AV-unprocessed.smi:197|AV-procd|sdf|1547|dock9
  -GOLD-   2262019413D 1   1.00000     0.00000
 Structure written by MMmdl.
 54 57  0  0  0  0  0  0  0  0  1 V2000
  152.4734  145.0293  158.7746 C   0  0  0  0  0  0  0  0  0  0  0  0
  151.8955  143.7498  158.5859 O   0  0  0  0  0  0  0  0  0  0  0  0
  152.6376  142.7190  159.2165 C   0  0  0  0  0  0  0  0  0  0  0  0
  151.8724  141.3927  159.0919 C   0  0  0  0  0  0  0  0  0  0  0  0
  152.7632  140.1239  159.1765 C   0  0  1  0  0  0  0  0  0  0  0  0
  153.6172  140.1393  160.4678 C   0  0  0  0  0  0  0  0  0  0  0  0
  154.3824  138.9460  160.5850 O   0  0  0  0  0  0  0  0  0  0  0  0
  153.5532  137.7965  160.6722 C   0  0  0  0  0  0  0  0  0  0  0  0
  152.7441  137.6741  159.3759 C   0  0  0  0  0  0  0  0  0  0  0  0
  151.9679  138.8872  159.1378 N   0  0  0  0  0  0  0  0  0  0  0  0
  151.1480  138.6991  158.0753 C   0  0  0  0  0  0  0  0  0  0  0  0
  151.1721  139.5629  157.0251 N   0  0  0  0  0  0  0  0  0  0  0  0
  150.3779  139.3565  155.9702 C   0  0  0  0  0  0  0  0  0  0  0  0
  149.5102  138.3642  155.7598 N   0  0  0  0  0  0  0  0  0  0  0  0
  149.4939  137.4898  156.8067 C   0  0  0  0  0  0  0  0  0  0  0  0
  150.2738  137.5829  157.9928 C   0  0  0  0  0  0  0  0  0  0  0  0
  149.9909  136.5163  158.8360 N   0  0  0  0  0  0  0  0  0  0  0  0
  149.0949  135.8274  158.1827 C   0  0  0  0  0  0  0  0  0  0  0  0
  148.7442  136.3356  156.9516 N   0  0  0  0  0  0  0  0  0  0  0  0
  147.7869  135.7680  156.0150 C   0  0  0  0  0  0  0  0  0  0  0  0
  148.4301  135.3226  154.6801 C   0  0  2  0  0  0  0  0  0  0  0  0
  148.8101  136.4820  153.9548 O   0  0  0  0  0  0  0  0  0  0  0  0
  147.5181  134.4801  153.8005 C   0  0  0  0  0  0  0  0  0  0  0  0
  148.5102  133.7207  152.9287 C   0  0  0  0  0  0  0  0  0  0  0  0
  149.6143  133.4522  153.7835 O   0  0  0  0  0  0  0  0  0  0  0  0
  149.6363  134.3768  154.8707 C   0  0  1  0  0  0  0  0  0  0  0  0
  151.0171  135.0398  155.0014 C   0  0  0  0  0  0  0  0  0  0  0  0
  151.8650  145.7831  158.2752 H   0  0  0  0  0  0  0  0  0  0  0  0
  153.4781  145.0736  158.3520 H   0  0  0  0  0  0  0  0  0  0  0  0
  152.5262  145.2864  159.8333 H   0  0  0  0  0  0  0  0  0  0  0  0
  153.6353  142.6419  158.7841 H   0  0  0  0  0  0  0  0  0  0  0  0
  152.7695  142.9606  160.2723 H   0  0  0  0  0  0  0  0  0  0  0  0
  151.1063  141.3469  159.8668 H   0  0  0  0  0  0  0  0  0  0  0  0
  151.3311  141.4248  158.1467 H   0  0  0  0  0  0  0  0  0  0  0  0
  153.4434  140.1092  158.3236 H   0  0  0  0  0  0  0  0  0  0  0  0
  154.3163  140.9746  160.4588 H   0  0  0  0  0  0  0  0  0  0  0  0
  152.9885  140.2613  161.3516 H   0  0  0  0  0  0  0  0  0  0  0  0
  154.1790  136.9146  160.8097 H   0  0  0  0  0  0  0  0  0  0  0  0
  152.8964  137.8638  161.5411 H   0  0  0  0  0  0  0  0  0  0  0  0
  153.4176  137.5033  158.5345 H   0  0  0  0  0  0  0  0  0  0  0  0
  152.0847  136.8070  159.4403 H   0  0  0  0  0  0  0  0  0  0  0  0
  150.4511  140.0893  155.1803 H   0  0  0  0  0  0  0  0  0  0  0  0
  148.6677  134.9181  158.5801 H   0  0  0  0  0  0  0  0  0  0  0  0
  147.2898  134.9253  156.4976 H   0  0  0  0  0  0  0  0  0  0  0  0
  147.0122  136.5136  155.8308 H   0  0  0  0  0  0  0  0  0  0  0  0
  148.9149  136.2454  153.0460 H   0  0  0  0  0  0  0  0  0  0  0  0
  146.9613  133.7676  154.4103 H   0  0  0  0  0  0  0  0  0  0  0  0
  146.7979  135.0633  153.2248 H   0  0  0  0  0  0  0  0  0  0  0  0
  148.0909  132.8034  152.5152 H   0  0  0  0  0  0  0  0  0  0  0  0
  148.8475  134.3444  152.0998 H   0  0  0  0  0  0  0  0  0  0  0  0
  149.4654  133.7731  155.7629 H   0  0  0  0  0  0  0  0  0  0  0  0
  151.0338  135.7513  155.8273 H   0  0  0  0  0  0  0  0  0  0  0  0
  151.2986  135.5697  154.0910 H   0  0  0  0  0  0  0  0  0  0  0  0
  151.7862  134.2916  155.1933 H   0  0  0  0  0  0  0  0  0  0  0  0
  1  2  1  0  0  0  0
  1 28  1  0  0  0  0
  1 29  1  0  0  0  0
  1 30  1  0  0  0  0
  2  3  1  0  0  0  0
  3  4  1  0  0  0  0
  3 31  1  0  0  0  0
  3 32  1  0  0  0  0
  4  5  1  0  0  0  0
  4 33  1  0  0  0  0
  4 34  1  0  0  0  0
  5 10  1  0  0  0  0
  5  6  1  0  0  0  0
  5 35  1  0  0  0  0
  6  7  1  0  0  0  0
  6 36  1  0  0  0  0
  6 37  1  0  0  0  0
  7  8  1  0  0  0  0
  8  9  1  0  0  0  0
  8 38  1  0  0  0  0
  8 39  1  0  0  0  0
  9 10  1  0  0  0  0
  9 40  1  0  0  0  0
  9 41  1  0  0  0  0
 10 11  1  0  0  0  0
 11 16  1  0  0  0  0
 11 12  2  0  0  0  0
 12 13  1  0  0  0  0
 13 14  2  0  0  0  0
 13 42  1  0  0  0  0
 14 15  1  0  0  0  0
 15 19  1  0  0  0  0
 15 16  2  0  0  0  0
 16 17  1  0  0  0  0
 17 18  2  0  0  0  0
 18 19  1  0  0  0  0
 18 43  1  0  0  0  0
 19 20  1  0  0  0  0
 20 21  1  0  0  0  0
 20 44  1  0  0  0  0
 20 45  1  0  0  0  0
 21 26  1  0  0  0  0
 21 22  1  0  0  0  0
 21 23  1  0  0  0  0
 22 46  1  0  0  0  0
 23 24  1  0  0  0  0
 23 47  1  0  0  0  0
 23 48  1  0  0  0  0
 24 25  1  0  0  0  0
 24 49  1  0  0  0  0
 24 50  1  0  0  0  0
 25 26  1  0  0  0  0
 26 27  1  0  0  0  0
 26 51  1  0  0  0  0
 27 52  1  0  0  0  0
 27 53  1  0  0  0  0
 27 54  1  0  0  0  0
M  END
> <s_m_source_file>
AV-unprocessed.smi

> <i_m_source_file_index>
197

> <i_lp_mmshare_version>
43012

> <i_f3d_flags>
0

> <s_epik_input>
W0NIM11PW0NIMl1bQ0gyXVtDQEBIXTFbQ0gyXU9bQ0gyXVtDSDJdTjFjKG5bY0hdbjIpYyhjMjMpbltjSF1uM1tDSDJdW0NAQF00KFtPSF0pW0NIMl1bQ0gyXU9bQ0BIXTRbQ0gzXQ==

> <s_epik_cmdline>
J2VwaWtfcHl0aG9uJywgJy1waCcsICc3LjAnLCAnLXRuJywgJzgnLCAnLW1hJywgJzIwMCcsICctbWV0YWxfYmluZGluZycsICctaW1hZScsICc8aW5maWxlLm1hZT4nLCAnLW9tYWUnLCAnPG91dGZpbGUubWFlPic=

> <r_lp_tautomer_probability>
1

> <r_epik_Ionization_Penalty>
0.000106218

> <r_epik_Ionization_Penalty_Charging>
0

> <r_epik_Ionization_Penalty_Neutral>
0.000106218

> <r_epik_State_Penalty>
-0

> <r_epik_Charging_Adjusted_Penalty>
0

> <i_epik_Tot_Q>
0

> <i_epik_Tot_abs_Q>
0

> <r_epik_Metal_State_Penalty>
-0

> <b_epik_Metal_Only>
0

> <s_lp_Force_Field>
OPLS_2005

> <r_lp_Energy>
42.2665

> <b_lp_Chiralities_Consistent>
1

> <s_lp_Variant>
AV-unprocessed.smi:197-4

> <Gold.Version>
5.8.1

> <Gold.Id.Protein>
6NUR|6NUR_protein|mol2

> <Gold.PLP.Fitness>
39.1120

> <Gold.PLP.PLP>
-33.4457

> <Gold.PLP.part.hbond>
-1.9320

> <Gold.PLP.part.metal>
0.0000

> <Gold.PLP.part.buried>
-6.3368

> <Gold.PLP.part.nonpolar>
-25.1223

> <Gold.PLP.part.repulsive>
0.1884

> <Gold.PLP.ligand.clash>
0.0000

> <Gold.PLP.ligand.torsion>
0.3235

> <Gold.PLP.Chemscore.Hbond>
2.0000

> <Gold.PLP.Chemscore.CHOScore>
0.0000

> <Gold.PLP.Chemscore.Metal>
0.0000

> <Gold.Chemscore.Hbonds>
donor molecule, donor type, donor heavy atom, donor atom, acceptor molecule, acceptor atom, score
      L1  H    22    46       P1  7948  0.10
      P1  H  6896  6907       L1    17  0.91

> <Gold.PLP.Chemscore.Internal.Correction>
0.3133

> <Gold.Rescore>
     Score         DG    S(hbond)    S(metal)    S(lipo)     H(rot)  DE(clash)    DE(int)     intcor
     11.57     -13.43       1.84        0.00      77.61       2.84       0.02       1.84       ----

> <Gold.Chemscore.Fitness>
11.5692

> <Gold.Chemscore.DG>
-13.4318

> <Gold.Chemscore.ZeroCoef>
-5.4800

> <Gold.Chemscore.Hbond>
1.8356

> <Gold.Chemscore.Metal>
0.0000

> <Gold.Chemscore.Lipo>
77.6096

> <Gold.Chemscore.Internal_Hbond>
0.0000

> <Gold.Chemscore.DEClash>
0.0232

> <Gold.Chemscore.DEInternal>
1.8393

> <Gold.Chemscore.Rot>
2.8358

> <Gold.Chemscore.Internal.Correction>
   9.000000E+99

> <Gold.Chemscore.Hbonds>
donor molecule, donor type, donor heavy atom, donor atom, acceptor molecule, acceptor atom, score
      L1  H    22    46       P1  7948  0.13
      P1  H  6896  6907       L1    17  0.34

> <Gold.Chemscore.Hbond.Weighted>
-6.1310

> <Gold.Chemscore.Metal.Weighted>
-0.0000

> <Gold.Chemscore.Lipo.Weighted>
-9.0803

> <Gold.Chemscore.Internal_Hbond.Weighted>
0.0000

> <Gold.Chemscore.DEClash.Weighted>
0.0232

> <Gold.Chemscore.DEInternal.Weighted>
1.8393

> <Gold.Chemscore.Rot.Weighted>
7.2596

> <Gold.Chemscore.Internal.Correction.Weighted>
   9.000000E+99

> <Gold.Protein.RotatedTorsions>
[ 6907 6896 6895 6894 ] final  -30.64 input  -60.11 | X-H torsion
[ 7974 7965 7964 7962 ] final -127.82 input  175.53 | X-H torsion
[ 8008 7997 7996 7995 ] final  116.92 input   59.86 | X-H torsion
[ 10167 10162 10161 10158 ] final -172.91 input  -65.29 | X-H torsion
[ 10718 10713 10712 10709 ] final   13.32 input   66.30 | X-H torsion
[ 10763 10752 10751 10750 ] final  173.80 input  -60.55 | X-H torsion
[ 11005 11000 10999 10996 ] final  167.69 input  -57.11 | X-H torsion

> <Gold.Protein.ActiveResidues>
 VAL166  LYS551  ARG553  GLY616  TRP617  ASP618  TYR619  PRO620  LYS621  CYS622 
 ASP623  PHE694  ASN695  SER759  ASP760  ASP761  ALA762  ILE779  LEU786  VAL792 
 PHE793  MET794  SER795  GLU796  ALA797  LYS798  CYS799  TRP800  GLU811  SER814 

> <Gold.Protein.RotatedAtoms>
  151.1028  134.9982  159.8456 H   0  0  0  0  0  0  0  0  0  0  0  0  # atno 6907 bound_to 6896
  152.5438  134.1930  159.8691 H   0  0  0  0  0  0  0  0  0  0  0  0  # atno 6908 bound_to 6896
  151.1974  133.4587  159.2629 H   0  0  0  0  0  0  0  0  0  0  0  0  # atno 6909 bound_to 6896
  144.9733  140.7567  143.4657 H   0  0  0  0  0  0  0  0  0  0  0  0  # atno 7974 bound_to 7965
  156.2466  140.2907  156.0597 H   0  0  0  0  0  0  0  0  0  0  0  0  # atno 8008 bound_to 7997
  155.1789  140.0403  157.2895 H   0  0  0  0  0  0  0  0  0  0  0  0  # atno 8009 bound_to 7997
  154.6273  140.2491  155.7483 H   0  0  0  0  0  0  0  0  0  0  0  0  # atno 8010 bound_to 7997
  139.5718  144.1624  152.1394 H   0  0  0  0  0  0  0  0  0  0  0  0  # atno 10167 bound_to 10162
  157.0229  130.6162  149.5724 H   0  0  0  0  0  0  0  0  0  0  0  0  # atno 10718 bound_to 10713
  154.4451  135.2763  155.1820 H   0  0  0  0  0  0  0  0  0  0  0  0  # atno 10763 bound_to 10752
  154.3671  135.6117  153.5724 H   0  0  0  0  0  0  0  0  0  0  0  0  # atno 10764 bound_to 10752
  152.9843  135.5848  154.4785 H   0  0  0  0  0  0  0  0  0  0  0  0  # atno 10765 bound_to 10752
  140.2794  134.7762  157.3745 H   0  0  0  0  0  0  0  0  0  0  0  0  # atno 11005 bound_to 11000
  145.2527  139.2025  143.4933 LP  0  0  0  0  0  0  0  0  0  0  0  0  # atno 17320 bound_to 7965
  146.3388  140.2443  142.8596 LP  0  0  0  0  0  0  0  0  0  0  0  0  # atno 17321 bound_to 7965
  140.1159  144.5416  150.6894 LP  0  0  0  0  0  0  0  0  0  0  0  0  # atno 17342 bound_to 10162
  140.7002  143.2430  151.4886 LP  0  0  0  0  0  0  0  0  0  0  0  0  # atno 17343 bound_to 10162
  156.0096  130.5186  150.7944 LP  0  0  0  0  0  0  0  0  0  0  0  0  # atno 17370 bound_to 10713
  157.5236  131.0933  151.0047 LP  0  0  0  0  0  0  0  0  0  0  0  0  # atno 17371 bound_to 10713
  140.1298  134.5110  155.8115 LP  0  0  0  0  0  0  0  0  0  0  0  0  # atno 17394 bound_to 11000
  141.2165  133.6785  156.7018 LP  0  0  0  0  0  0  0  0  0  0  0  0  # atno 17395 bound_to 11000

$$$$
