AV-unprocessed.smi:2332|AV-procd|sdf|9318|dock1
  -GOLD-   2272012543D 1   1.00000     0.00000
 Structure written by MMmdl.
 32 33  0  0  0  0  0  0  0  0  1 V2000
  151.5038  137.7870  154.6946 C   0  0  0  0  0  0  0  0  0  0  0  0
  151.8283  139.0801  155.2768 N   0  0  0  0  0  0  0  0  0  0  0  0
  151.0931  139.6945  156.2160 C   0  0  0  0  0  0  0  0  0  0  0  0
  150.0647  139.2037  156.6830 O   0  0  0  0  0  0  0  0  0  0  0  0
  151.5997  141.0551  156.7189 C   0  0  2  0  0  0  0  0  0  0  0  0
  151.8163  141.0648  158.2497 C   0  0  0  0  0  0  0  0  0  0  0  0
  152.1834  142.4009  158.7135 N   0  0  0  0  0  0  0  0  0  0  0  0
  152.6578  142.4746  160.0413 C   0  0  0  0  0  0  0  0  0  0  0  0
  152.2335  143.5242  160.8916 C   0  0  0  0  0  0  0  0  0  0  0  0
  152.7226  143.5814  162.2112 C   0  0  0  0  0  0  0  0  0  0  0  0
  153.6202  142.5880  162.6463 C   0  0  0  0  0  0  0  0  0  0  0  0
  154.1526  142.6035  163.9977 C   0  0  0  0  0  0  0  0  0  0  0  0
  154.5764  142.6159  165.0743 N   0  0  0  0  0  0  0  0  0  0  0  0
  153.9851  141.5765  161.7368 C   0  0  0  0  0  0  0  0  0  0  0  0
  153.5176  141.5172  160.4713 N   0  0  0  0  0  0  0  0  0  0  0  0
  151.2725  143.4471  158.2549 C   0  0  0  0  0  0  0  0  0  0  0  0
  151.0955  143.3688  156.7310 C   0  0  0  0  0  0  0  0  0  0  0  0
  150.6519  142.0658  156.3716 O   0  0  0  0  0  0  0  0  0  0  0  0
  152.2334  137.5317  153.9263 H   0  0  0  0  0  0  0  0  0  0  0  0
  150.5153  137.8044  154.2339 H   0  0  0  0  0  0  0  0  0  0  0  0
  151.5203  137.0051  155.4547 H   0  0  0  0  0  0  0  0  0  0  0  0
  152.6603  139.5448  154.9423 H   0  0  0  0  0  0  0  0  0  0  0  0
  152.5435  141.2603  156.2106 H   0  0  0  0  0  0  0  0  0  0  0  0
  150.9036  140.7570  158.7623 H   0  0  0  0  0  0  0  0  0  0  0  0
  152.5836  140.3356  158.5065 H   0  0  0  0  0  0  0  0  0  0  0  0
  151.5318  144.2727  160.5546 H   0  0  0  0  0  0  0  0  0  0  0  0
  152.4073  144.3747  162.8736 H   0  0  0  0  0  0  0  0  0  0  0  0
  154.6686  140.7911  162.0259 H   0  0  0  0  0  0  0  0  0  0  0  0
  150.3072  143.3295  158.7495 H   0  0  0  0  0  0  0  0  0  0  0  0
  151.6610  144.4306  158.5231 H   0  0  0  0  0  0  0  0  0  0  0  0
  150.3566  144.0989  156.4008 H   0  0  0  0  0  0  0  0  0  0  0  0
  152.0285  143.6041  156.2164 H   0  0  0  0  0  0  0  0  0  0  0  0
  1  2  1  0  0  0  0
  1 19  1  0  0  0  0
  1 20  1  0  0  0  0
  1 21  1  0  0  0  0
  2  3  1  0  0  0  0
  2 22  1  0  0  0  0
  3  4  2  0  0  0  0
  3  5  1  0  0  0  0
  5 18  1  0  0  0  0
  5  6  1  0  0  0  0
  5 23  1  0  0  0  0
  6  7  1  0  0  0  0
  6 24  1  0  0  0  0
  6 25  1  0  0  0  0
  7  8  1  0  0  0  0
  7 16  1  0  0  0  0
  8 15  1  0  0  0  0
  8  9  2  0  0  0  0
  9 10  1  0  0  0  0
  9 26  1  0  0  0  0
 10 11  2  0  0  0  0
 10 27  1  0  0  0  0
 11 12  1  0  0  0  0
 11 14  1  0  0  0  0
 12 13  3  0  0  0  0
 14 15  2  0  0  0  0
 14 28  1  0  0  0  0
 16 17  1  0  0  0  0
 16 29  1  0  0  0  0
 16 30  1  0  0  0  0
 17 18  1  0  0  0  0
 17 31  1  0  0  0  0
 17 32  1  0  0  0  0
M  END
> <s_m_source_file>
AV-unprocessed.smi

> <i_m_source_file_index>
2332

> <i_lp_mmshare_version>
43012

> <i_f3d_flags>
0

> <s_epik_input>
W0NIM11bTkhdQyg9TylbQ0BASF0xW0NIMl1OKFtDSDJdW0NIMl1PMSljMltjSF1bY0hdYyhDI04pW2NIXW4y

> <s_epik_cmdline>
J2VwaWtfcHl0aG9uJywgJy1waCcsICc3LjAnLCAnLXRuJywgJzgnLCAnLW1hJywgJzIwMCcsICctbWV0YWxfYmluZGluZycsICctaW1hZScsICc8aW5maWxlLm1hZT4nLCAnLW9tYWUnLCAnPG91dGZpbGUubWFlPic=

> <r_lp_tautomer_probability>
1

> <r_epik_Ionization_Penalty>
6.95229e-08

> <r_epik_Ionization_Penalty_Charging>
0

> <r_epik_Ionization_Penalty_Neutral>
6.95229e-08

> <r_epik_State_Penalty>
-0

> <r_epik_Charging_Adjusted_Penalty>
0

> <i_epik_Tot_Q>
0

> <i_epik_Tot_abs_Q>
0

> <r_epik_Metal_State_Penalty>
-0

> <b_epik_Metal_Only>
0

> <s_lp_Force_Field>
OPLS_2005

> <r_lp_Energy>
17.7289

> <b_lp_Chiralities_Consistent>
1

> <s_lp_Variant>
AV-unprocessed.smi:2332-1

> <Gold.Version>
5.8.1

> <Gold.Id.Protein>
6NUR|6NUR_protein|mol2

> <Gold.PLP.Fitness>
36.7098

> <Gold.PLP.PLP>
-36.9239

> <Gold.PLP.part.hbond>
-0.4632

> <Gold.PLP.part.metal>
0.0000

> <Gold.PLP.part.buried>
-2.9936

> <Gold.PLP.part.nonpolar>
-31.5038

> <Gold.PLP.part.repulsive>
0.2862

> <Gold.PLP.ligand.clash>
0.0000

> <Gold.PLP.ligand.torsion>
0.2747

> <Gold.PLP.Chemscore.Hbond>
0.0000

> <Gold.PLP.Chemscore.CHOScore>
0.0000

> <Gold.PLP.Chemscore.Metal>
0.0000

> <Gold.PLP.Chemscore.Internal.Correction>
0.3354

> <Gold.Rescore>
     Score         DG    S(hbond)    S(metal)    S(lipo)     H(rot)  DE(clash)    DE(int)     intcor
     11.94     -12.36       0.00        0.00      88.37       1.35       0.21       0.22       ----

> <Gold.Chemscore.Fitness>
11.9366

> <Gold.Chemscore.DG>
-12.3633

> <Gold.Chemscore.ZeroCoef>
-5.4800

> <Gold.Chemscore.Hbond>
0.0000

> <Gold.Chemscore.Metal>
0.0000

> <Gold.Chemscore.Lipo>
88.3665

> <Gold.Chemscore.Internal_Hbond>
0.0000

> <Gold.Chemscore.DEClash>
0.2063

> <Gold.Chemscore.DEInternal>
0.2205

> <Gold.Chemscore.Rot>
1.3498

> <Gold.Chemscore.Internal.Correction>
   9.000000E+99

> <Gold.Chemscore.Hbond.Weighted>
-0.0000

> <Gold.Chemscore.Metal.Weighted>
-0.0000

> <Gold.Chemscore.Lipo.Weighted>
-10.3389

> <Gold.Chemscore.Internal_Hbond.Weighted>
0.0000

> <Gold.Chemscore.DEClash.Weighted>
0.2063

> <Gold.Chemscore.DEInternal.Weighted>
0.2205

> <Gold.Chemscore.Rot.Weighted>
3.4556

> <Gold.Chemscore.Internal.Correction.Weighted>
   9.000000E+99

> <Gold.Protein.RotatedTorsions>
[ 6907 6896 6895 6894 ] final   26.46 input  -60.11 | X-H torsion
[ 7974 7965 7964 7962 ] final   78.17 input  175.53 | X-H torsion
[ 8008 7997 7996 7995 ] final  -82.46 input   59.86 | X-H torsion
[ 10167 10162 10161 10158 ] final  -31.97 input  -65.29 | X-H torsion
[ 10718 10713 10712 10709 ] final -174.04 input   66.30 | X-H torsion
[ 10763 10752 10751 10750 ] final   68.85 input  -60.55 | X-H torsion
[ 11005 11000 10999 10996 ] final   68.91 input  -57.11 | X-H torsion

> <Gold.Protein.ActiveResidues>
 VAL166  LYS551  ARG553  GLY616  TRP617  ASP618  TYR619  PRO620  LYS621  CYS622 
 ASP623  PHE694  ASN695  SER759  ASP760  ASP761  ALA762  ILE779  LEU786  VAL792 
 PHE793  MET794  SER795  GLU796  ALA797  LYS798  CYS799  TRP800  GLU811  SER814 

> <Gold.Protein.RotatedAtoms>
  151.9877  134.9995  160.0559 H   0  0  0  0  0  0  0  0  0  0  0  0  # atno 6907 bound_to 6896
  152.1637  133.4594  159.4882 H   0  0  0  0  0  0  0  0  0  0  0  0  # atno 6908 bound_to 6896
  150.6891  134.1957  159.4345 H   0  0  0  0  0  0  0  0  0  0  0  0  # atno 6909 bound_to 6896
  145.6806  139.2523  143.1816 H   0  0  0  0  0  0  0  0  0  0  0  0  # atno 7974 bound_to 7965
  154.6088  140.0633  156.9467 H   0  0  0  0  0  0  0  0  0  0  0  0  # atno 8008 bound_to 7997
  155.2007  140.3315  155.4325 H   0  0  0  0  0  0  0  0  0  0  0  0  # atno 8009 bound_to 7997
  156.2364  140.1865  156.7091 H   0  0  0  0  0  0  0  0  0  0  0  0  # atno 8010 bound_to 7997
  140.7228  143.3730  151.1742 H   0  0  0  0  0  0  0  0  0  0  0  0  # atno 10167 bound_to 10162
  156.7792  130.9477  151.3120 H   0  0  0  0  0  0  0  0  0  0  0  0  # atno 10718 bound_to 10713
  153.0256  135.5232  154.7197 H   0  0  0  0  0  0  0  0  0  0  0  0  # atno 10763 bound_to 10752
  154.6256  135.2894  155.0278 H   0  0  0  0  0  0  0  0  0  0  0  0  # atno 10764 bound_to 10752
  154.1249  135.6602  153.4963 H   0  0  0  0  0  0  0  0  0  0  0  0  # atno 10765 bound_to 10752
  139.9684  134.6942  156.0498 H   0  0  0  0  0  0  0  0  0  0  0  0  # atno 11005 bound_to 11000
  146.0967  140.7592  142.9569 LP  0  0  0  0  0  0  0  0  0  0  0  0  # atno 17320 bound_to 7965
  144.7027  140.3723  143.7143 LP  0  0  0  0  0  0  0  0  0  0  0  0  # atno 17321 bound_to 7965
  139.7305  143.9080  152.3018 LP  0  0  0  0  0  0  0  0  0  0  0  0  # atno 17342 bound_to 10162
  139.8867  144.6988  150.8816 LP  0  0  0  0  0  0  0  0  0  0  0  0  # atno 17343 bound_to 10162
  157.6654  130.9003  149.9922 LP  0  0  0  0  0  0  0  0  0  0  0  0  # atno 17370 bound_to 10713
  156.1229  130.3645  149.9857 LP  0  0  0  0  0  0  0  0  0  0  0  0  # atno 17371 bound_to 10713
  141.1363  133.6574  156.3604 LP  0  0  0  0  0  0  0  0  0  0  0  0  # atno 17394 bound_to 11000
  140.5347  134.6179  157.5361 LP  0  0  0  0  0  0  0  0  0  0  0  0  # atno 17395 bound_to 11000

$$$$
