AV-unprocessed.smi:83|AV-procd|sdf|807|dock3
  -GOLD-   2262017203D 1   1.00000     0.00000
 Structure written by MMmdl.
 56 59  0  0  0  0  0  0  0  0  1 V2000
  154.2551  139.2592  160.5091 C   0  0  0  0  0  0  0  0  0  0  0  0
  154.2187  140.7164  160.9732 C   0  0  0  0  0  0  0  0  0  0  0  0
  154.9959  141.0822  161.8549 O   0  0  0  0  0  0  0  0  0  0  0  0
  153.3293  141.5506  160.3978 N   0  0  0  0  0  0  0  0  0  0  0  0
  153.1440  142.9626  160.7283 C   0  0  0  0  0  0  0  0  0  0  0  0
  151.9018  143.4045  159.9520 C   0  0  0  0  0  0  0  0  0  0  0  0
  151.8503  142.4535  158.7610 C   0  0  2  0  0  0  0  0  0  0  0  0
  150.4559  142.3342  158.1137 C   0  0  0  0  0  0  0  0  0  0  0  0
  150.4971  141.7071  156.7913 N   0  0  0  0  0  0  0  0  0  0  0  0
  151.7371  141.0674  156.3711 C   0  0  0  0  0  0  0  0  0  0  0  0
  149.3245  141.3506  156.1989 C   0  0  0  0  0  0  0  0  0  0  0  0
  148.1723  141.8489  156.7210 N   0  0  0  0  0  0  0  0  0  0  0  0
  146.9878  141.5256  156.1958 C   0  0  0  0  0  0  0  0  0  0  0  0
  146.7256  140.7273  155.1611 N   0  0  0  0  0  0  0  0  0  0  0  0
  147.8731  140.2189  154.6295 C   0  0  0  0  0  0  0  0  0  0  0  0
  149.2024  140.4767  155.0753 C   0  0  0  0  0  0  0  0  0  0  0  0
  150.0997  139.7651  154.2841 N   0  0  0  0  0  0  0  0  0  0  0  0
  149.3492  139.1347  153.4231 C   0  0  0  0  0  0  0  0  0  0  0  0
  147.9985  139.3496  153.5616 N   0  0  0  0  0  0  0  0  0  0  0  0
  146.9367  138.7752  152.7554 C   0  0  0  0  0  0  0  0  0  0  0  0
  146.0006  137.8694  153.5774 C   0  0  1  0  0  0  0  0  0  0  0  0
  145.2783  138.6315  154.5271 O   0  0  0  0  0  0  0  0  0  0  0  0
  145.0401  137.0482  152.6940 C   0  0  1  0  0  0  0  0  0  0  0  0
  145.6910  136.1198  151.6545 C   0  0  0  0  0  0  0  0  0  0  0  0
  144.9459  134.8040  151.8227 C   0  0  0  0  0  0  0  0  0  0  0  0
  143.7089  135.1921  152.6252 C   0  0  0  0  0  0  0  0  0  0  0  0
  144.1893  136.2190  153.4759 O   0  0  0  0  0  0  0  0  0  0  0  0
  152.4086  141.1479  159.3391 C   0  0  0  0  0  0  0  0  0  0  0  0
  153.2747  138.7943  160.6153 H   0  0  0  0  0  0  0  0  0  0  0  0
  154.9651  138.6838  161.1044 H   0  0  0  0  0  0  0  0  0  0  0  0
  154.5626  139.1955  159.4651 H   0  0  0  0  0  0  0  0  0  0  0  0
  153.0152  143.1234  161.7995 H   0  0  0  0  0  0  0  0  0  0  0  0
  154.0190  143.5251  160.3996 H   0  0  0  0  0  0  0  0  0  0  0  0
  151.0162  143.2694  160.5748 H   0  0  0  0  0  0  0  0  0  0  0  0
  151.9431  144.4527  159.6541 H   0  0  0  0  0  0  0  0  0  0  0  0
  152.5586  142.8253  158.0186 H   0  0  0  0  0  0  0  0  0  0  0  0
  149.7714  141.8141  158.7839 H   0  0  0  0  0  0  0  0  0  0  0  0
  150.0355  143.3332  157.9940 H   0  0  0  0  0  0  0  0  0  0  0  0
  151.7975  141.0076  155.2839 H   0  0  0  0  0  0  0  0  0  0  0  0
  151.8140  140.0616  156.7847 H   0  0  0  0  0  0  0  0  0  0  0  0
  152.5977  141.6398  156.7177 H   0  0  0  0  0  0  0  0  0  0  0  0
  146.1273  141.9686  156.6750 H   0  0  0  0  0  0  0  0  0  0  0  0
  149.7623  138.4911  152.6599 H   0  0  0  0  0  0  0  0  0  0  0  0
  146.3754  139.5864  152.2893 H   0  0  0  0  0  0  0  0  0  0  0  0
  147.3954  138.2075  151.9451 H   0  0  0  0  0  0  0  0  0  0  0  0
  146.6112  137.1658  154.1445 H   0  0  0  0  0  0  0  0  0  0  0  0
  144.4974  138.9644  154.1123 H   0  0  0  0  0  0  0  0  0  0  0  0
  144.3867  137.7421  152.1620 H   0  0  0  0  0  0  0  0  0  0  0  0
  145.5548  136.5239  150.6506 H   0  0  0  0  0  0  0  0  0  0  0  0
  146.7613  135.9802  151.8073 H   0  0  0  0  0  0  0  0  0  0  0  0
  144.7010  134.3271  150.8732 H   0  0  0  0  0  0  0  0  0  0  0  0
  145.5547  134.1090  152.4023 H   0  0  0  0  0  0  0  0  0  0  0  0
  142.9290  135.5903  151.9740 H   0  0  0  0  0  0  0  0  0  0  0  0
  143.2942  134.3586  153.1924 H   0  0  0  0  0  0  0  0  0  0  0  0
  152.9031  140.5538  158.5684 H   0  0  0  0  0  0  0  0  0  0  0  0
  151.6161  140.5410  159.7796 H   0  0  0  0  0  0  0  0  0  0  0  0
  1  2  1  0  0  0  0
  1 29  1  0  0  0  0
  1 30  1  0  0  0  0
  1 31  1  0  0  0  0
  2  3  2  0  0  0  0
  2  4  1  0  0  0  0
  4 28  1  0  0  0  0
  4  5  1  0  0  0  0
  5  6  1  0  0  0  0
  5 32  1  0  0  0  0
  5 33  1  0  0  0  0
  6  7  1  0  0  0  0
  6 34  1  0  0  0  0
  6 35  1  0  0  0  0
  7  8  1  0  0  0  0
  7 28  1  0  0  0  0
  7 36  1  0  0  0  0
  8  9  1  0  0  0  0
  8 37  1  0  0  0  0
  8 38  1  0  0  0  0
  9 10  1  0  0  0  0
  9 11  1  0  0  0  0
 10 39  1  0  0  0  0
 10 40  1  0  0  0  0
 10 41  1  0  0  0  0
 11 16  1  0  0  0  0
 11 12  2  0  0  0  0
 12 13  1  0  0  0  0
 13 14  2  0  0  0  0
 13 42  1  0  0  0  0
 14 15  1  0  0  0  0
 15 19  1  0  0  0  0
 15 16  2  0  0  0  0
 16 17  1  0  0  0  0
 17 18  2  0  0  0  0
 18 19  1  0  0  0  0
 18 43  1  0  0  0  0
 19 20  1  0  0  0  0
 20 21  1  0  0  0  0
 20 44  1  0  0  0  0
 20 45  1  0  0  0  0
 21 22  1  0  0  0  0
 21 23  1  0  0  0  0
 21 46  1  0  0  0  0
 22 47  1  0  0  0  0
 23 27  1  0  0  0  0
 23 24  1  0  0  0  0
 23 48  1  0  0  0  0
 24 25  1  0  0  0  0
 24 49  1  0  0  0  0
 24 50  1  0  0  0  0
 25 26  1  0  0  0  0
 25 51  1  0  0  0  0
 25 52  1  0  0  0  0
 26 27  1  0  0  0  0
 26 53  1  0  0  0  0
 26 54  1  0  0  0  0
 28 55  1  0  0  0  0
 28 56  1  0  0  0  0
M  END
> <s_m_source_file>
AV-unprocessed.smi

> <i_m_source_file_index>
83

> <i_lp_mmshare_version>
43012

> <i_f3d_flags>
0

> <s_epik_input>
W0NIM11DKD1PKU4xW0NIMl1bQ0gyXVtDQEhdKFtDSDJdMSlbQ0gyXU4oW0NIM10pYyhuW2NIXW4yKWMoYzIzKW5bY0hdbjNbQ0gyXVtDQEhdKFtPSF0pW0NAQEhdNFtDSDJdW0NIMl1bQ0gyXU80

> <s_epik_cmdline>
J2VwaWtfcHl0aG9uJywgJy1waCcsICc3LjAnLCAnLXRuJywgJzgnLCAnLW1hJywgJzIwMCcsICctbWV0YWxfYmluZGluZycsICctaW1hZScsICc8aW5maWxlLm1hZT4nLCAnLW9tYWUnLCAnPG91dGZpbGUubWFlPic=

> <r_lp_tautomer_probability>
1

> <r_epik_Ionization_Penalty>
0.00109752

> <r_epik_Ionization_Penalty_Charging>
0

> <r_epik_Ionization_Penalty_Neutral>
0.00109752

> <r_epik_State_Penalty>
0.000634803

> <r_epik_Charging_Adjusted_Penalty>
0.000634803

> <i_epik_Tot_Q>
0

> <i_epik_Tot_abs_Q>
0

> <r_epik_Metal_State_Penalty>
-0

> <b_epik_Metal_Only>
0

> <s_lp_Force_Field>
OPLS_2005

> <r_lp_Energy>
54.4429

> <b_lp_Chiralities_Consistent>
1

> <s_lp_Variant>
AV-unprocessed.smi:83-8

> <Gold.Version>
5.8.1

> <Gold.Id.Protein>
6NUR|6NUR_protein|mol2

> <Gold.PLP.Fitness>
52.6698

> <Gold.PLP.PLP>
-43.2305

> <Gold.PLP.part.hbond>
-3.0000

> <Gold.PLP.part.metal>
0.0000

> <Gold.PLP.part.buried>
-0.9661

> <Gold.PLP.part.nonpolar>
-41.3757

> <Gold.PLP.part.repulsive>
1.9843

> <Gold.PLP.ligand.clash>
0.0000

> <Gold.PLP.ligand.torsion>
0.3408

> <Gold.PLP.Chemscore.Hbond>
1.9913

> <Gold.PLP.Chemscore.CHOScore>
1.2153

> <Gold.PLP.Chemscore.Metal>
0.0000

> <Gold.Chemscore.Hbonds>
donor molecule, donor type, donor heavy atom, donor atom, acceptor molecule, acceptor atom, score
      L1  H    22    47       P1 10175  0.16
      P1  H  7989  7998       L1    17  0.98
      L1  C    18    43       P1  7948  1.00
      L1  C    18    43       P1  7957  0.27

> <Gold.PLP.Chemscore.Internal.Correction>
0.5013

> <Gold.Rescore>
     Score         DG    S(hbond)    S(metal)    S(lipo)     H(rot)  DE(clash)    DE(int)     intcor
      9.59     -14.53       1.38        0.00      95.03       2.62       3.25       1.69       ----

> <Gold.Chemscore.Fitness>
9.5932

> <Gold.Chemscore.DG>
-14.5261

> <Gold.Chemscore.ZeroCoef>
-5.4800

> <Gold.Chemscore.Hbond>
1.3839

> <Gold.Chemscore.Metal>
0.0000

> <Gold.Chemscore.Lipo>
95.0326

> <Gold.Chemscore.Internal_Hbond>
0.0000

> <Gold.Chemscore.DEClash>
3.2462

> <Gold.Chemscore.DEInternal>
1.6867

> <Gold.Chemscore.Rot>
2.6152

> <Gold.Chemscore.Internal.Correction>
   9.000000E+99

> <Gold.Chemscore.Hbonds>
donor molecule, donor type, donor heavy atom, donor atom, acceptor molecule, acceptor atom, score
      L1  H    22    47       P1 10175  0.17
      P1  H  7989  7998       L1    17  0.74

> <Gold.Chemscore.Hbond.Weighted>
-4.6222

> <Gold.Chemscore.Metal.Weighted>
-0.0000

> <Gold.Chemscore.Lipo.Weighted>
-11.1188

> <Gold.Chemscore.Internal_Hbond.Weighted>
0.0000

> <Gold.Chemscore.DEClash.Weighted>
3.2462

> <Gold.Chemscore.DEInternal.Weighted>
1.6867

> <Gold.Chemscore.Rot.Weighted>
6.6949

> <Gold.Chemscore.Internal.Correction.Weighted>
   9.000000E+99

> <Gold.Protein.RotatedTorsions>
[ 6907 6896 6895 6894 ] final  -16.46 input  -60.11 | X-H torsion
[ 7974 7965 7964 7962 ] final  115.46 input  175.53 | X-H torsion
[ 8008 7997 7996 7995 ] final -145.72 input   59.86 | X-H torsion
[ 10167 10162 10161 10158 ] final  152.53 input  -65.29 | X-H torsion
[ 10718 10713 10712 10709 ] final   18.73 input   66.30 | X-H torsion
[ 10763 10752 10751 10750 ] final   19.85 input  -60.55 | X-H torsion
[ 11005 11000 10999 10996 ] final   14.34 input  -57.11 | X-H torsion

> <Gold.Protein.ActiveResidues>
 VAL166  LYS551  ARG553  GLY616  TRP617  ASP618  TYR619  PRO620  LYS621  CYS622 
 ASP623  PHE694  ASN695  SER759  ASP760  ASP761  ALA762  ILE779  LEU786  VAL792 
 PHE793  MET794  SER795  GLU796  ALA797  LYS798  CYS799  TRP800  GLU811  SER814 

> <Gold.Protein.RotatedAtoms>
  151.3083  135.0787  159.9263 H   0  0  0  0  0  0  0  0  0  0  0  0  # atno 6907 bound_to 6896
  152.5283  133.9762  159.7795 H   0  0  0  0  0  0  0  0  0  0  0  0  # atno 6908 bound_to 6896
  151.0061  133.5958  159.2719 H   0  0  0  0  0  0  0  0  0  0  0  0  # atno 6909 bound_to 6896
  145.1917  139.2997  143.4365 H   0  0  0  0  0  0  0  0  0  0  0  0  # atno 7974 bound_to 7965
  155.5477  140.0614  157.2856 H   0  0  0  0  0  0  0  0  0  0  0  0  # atno 8008 bound_to 7997
  154.4431  140.1908  156.0699 H   0  0  0  0  0  0  0  0  0  0  0  0  # atno 8009 bound_to 7997
  156.0539  140.3281  155.7386 H   0  0  0  0  0  0  0  0  0  0  0  0  # atno 8010 bound_to 7997
  139.4832  144.5350  151.7660 H   0  0  0  0  0  0  0  0  0  0  0  0  # atno 10167 bound_to 10162
  157.1004  130.6466  149.5871 H   0  0  0  0  0  0  0  0  0  0  0  0  # atno 10718 bound_to 10713
  153.1127  135.6700  153.9472 H   0  0  0  0  0  0  0  0  0  0  0  0  # atno 10763 bound_to 10752
  153.9010  135.3036  155.3450 H   0  0  0  0  0  0  0  0  0  0  0  0  # atno 10764 bound_to 10752
  154.7546  135.5018  153.9428 H   0  0  0  0  0  0  0  0  0  0  0  0  # atno 10765 bound_to 10752
  140.4706  134.1035  155.7732 H   0  0  0  0  0  0  0  0  0  0  0  0  # atno 11005 bound_to 11000
  146.3435  140.2132  142.8590 LP  0  0  0  0  0  0  0  0  0  0  0  0  # atno 17320 bound_to 7965
  145.0035  140.8652  143.5267 LP  0  0  0  0  0  0  0  0  0  0  0  0  # atno 17321 bound_to 7965
  140.4882  144.1350  150.5945 LP  0  0  0  0  0  0  0  0  0  0  0  0  # atno 17342 bound_to 10162
  140.4201  143.2615  151.9725 LP  0  0  0  0  0  0  0  0  0  0  0  0  # atno 17343 bound_to 10162
  155.9875  130.4914  150.7127 LP  0  0  0  0  0  0  0  0  0  0  0  0  # atno 17370 bound_to 10713
  157.4645  131.0887  151.0709 LP  0  0  0  0  0  0  0  0  0  0  0  0  # atno 17371 bound_to 10713
  141.1579  133.8849  157.1929 LP  0  0  0  0  0  0  0  0  0  0  0  0  # atno 17394 bound_to 11000
  139.9887  135.0072  156.9925 LP  0  0  0  0  0  0  0  0  0  0  0  0  # atno 17395 bound_to 11000

$$$$
