AV-unprocessed.smi:629|AV-procd|sdf|3116|dock5
  -GOLD-   22720 0 43D 1   1.00000     0.00000
 Structure written by MMmdl.
 31 32  0  0  0  0  0  0  0  0  1 V2000
  146.4440  138.4985  152.1984 C   0  0  0  0  0  0  0  0  0  0  0  0
  147.3263  139.6199  152.4800 N   0  0  0  0  0  0  0  0  0  0  0  0
  147.3305  140.3072  153.6323 C   0  0  0  0  0  0  0  0  0  0  0  0
  146.5863  140.0454  154.5773 O   0  0  0  0  0  0  0  0  0  0  0  0
  148.3323  141.4589  153.7436 C   0  0  0  0  0  0  0  0  0  0  0  0
  149.3248  141.2008  154.8326 C   0  0  0  0  0  0  0  0  0  0  0  0
  150.4122  140.4692  154.6153 N   0  0  0  0  0  0  0  0  0  0  0  0
  151.0639  140.4801  155.8567 O   0  0  0  0  0  0  0  0  0  0  0  0
  150.2713  141.2030  156.6839 C   0  0  0  0  0  0  0  0  0  0  0  0
  150.7221  141.4464  158.0861 C   0  0  0  0  0  0  0  0  0  0  0  0
  151.9606  142.3580  158.1657 C   0  0  1  0  0  0  0  0  0  0  0  0
  151.7058  143.7388  157.6156 C   0  0  0  0  0  0  0  0  0  0  0  0
  152.0327  144.7050  158.4707 C   0  0  0  0  0  0  0  0  0  0  0  0
  152.5695  144.1669  159.7672 C   0  0  0  0  0  0  0  0  0  0  0  0
  152.4189  142.6365  159.6213 C   0  0  0  0  0  0  0  0  0  0  0  0
  149.1800  141.6870  156.0966 N   0  0  0  0  0  0  0  0  0  0  0  0
  146.6031  138.1481  151.1789 H   0  0  0  0  0  0  0  0  0  0  0  0
  145.3978  138.7906  152.2992 H   0  0  0  0  0  0  0  0  0  0  0  0
  146.6420  137.6696  152.8790 H   0  0  0  0  0  0  0  0  0  0  0  0
  147.9687  139.8973  151.7516 H   0  0  0  0  0  0  0  0  0  0  0  0
  148.8586  141.5849  152.7962 H   0  0  0  0  0  0  0  0  0  0  0  0
  147.7998  142.3913  153.9362 H   0  0  0  0  0  0  0  0  0  0  0  0
  149.8962  141.8569  158.6689 H   0  0  0  0  0  0  0  0  0  0  0  0
  150.9539  140.4748  158.5243 H   0  0  0  0  0  0  0  0  0  0  0  0
  152.7901  141.9117  157.6149 H   0  0  0  0  0  0  0  0  0  0  0  0
  151.3132  143.8973  156.6218 H   0  0  0  0  0  0  0  0  0  0  0  0
  151.9453  145.7641  158.2777 H   0  0  0  0  0  0  0  0  0  0  0  0
  153.6127  144.4606  159.8862 H   0  0  0  0  0  0  0  0  0  0  0  0
  151.9985  144.5528  160.6119 H   0  0  0  0  0  0  0  0  0  0  0  0
  151.6782  142.2774  160.3369 H   0  0  0  0  0  0  0  0  0  0  0  0
  153.3539  142.1226  159.8478 H   0  0  0  0  0  0  0  0  0  0  0  0
  1  2  1  0  0  0  0
  1 17  1  0  0  0  0
  1 18  1  0  0  0  0
  1 19  1  0  0  0  0
  2  3  1  0  0  0  0
  2 20  1  0  0  0  0
  3  4  2  0  0  0  0
  3  5  1  0  0  0  0
  5  6  1  0  0  0  0
  5 21  1  0  0  0  0
  5 22  1  0  0  0  0
  6 16  1  0  0  0  0
  6  7  2  0  0  0  0
  7  8  1  0  0  0  0
  8  9  1  0  0  0  0
  9 10  1  0  0  0  0
  9 16  2  0  0  0  0
 10 11  1  0  0  0  0
 10 23  1  0  0  0  0
 10 24  1  0  0  0  0
 11 15  1  0  0  0  0
 11 12  1  0  0  0  0
 11 25  1  0  0  0  0
 12 13  2  0  0  0  0
 12 26  1  0  0  0  0
 13 14  1  0  0  0  0
 13 27  1  0  0  0  0
 14 15  1  0  0  0  0
 14 28  1  0  0  0  0
 14 29  1  0  0  0  0
 15 30  1  0  0  0  0
 15 31  1  0  0  0  0
M  END
> <s_m_source_file>
AV-unprocessed.smi

> <i_m_source_file_index>
629

> <i_lp_mmshare_version>
43012

> <i_f3d_flags>
0

> <s_epik_input>
W0NIM11bTkhdQyg9TylbQ0gyXWMxbm9jKG4xKVtDSDJdW0NAQEhdMltDSF09W0NIXVtDSDJdW0NIMl0y

> <s_epik_cmdline>
J2VwaWtfcHl0aG9uJywgJy1waCcsICc3LjAnLCAnLXRuJywgJzgnLCAnLW1hJywgJzIwMCcsICctbWV0YWxfYmluZGluZycsICctaW1hZScsICc8aW5maWxlLm1hZT4nLCAnLW9tYWUnLCAnPG91dGZpbGUubWFlPic=

> <r_lp_tautomer_probability>
1

> <r_epik_Ionization_Penalty>
1.02915e-07

> <r_epik_Ionization_Penalty_Charging>
0

> <r_epik_Ionization_Penalty_Neutral>
1.02915e-07

> <r_epik_State_Penalty>
-0

> <r_epik_Charging_Adjusted_Penalty>
0

> <i_epik_Tot_Q>
0

> <i_epik_Tot_abs_Q>
0

> <r_epik_Metal_State_Penalty>
-0

> <b_epik_Metal_Only>
0

> <s_lp_Force_Field>
OPLS_2005

> <r_lp_Energy>
15.6904

> <b_lp_Chiralities_Consistent>
1

> <s_lp_Variant>
AV-unprocessed.smi:629-2

> <Gold.Version>
5.8.1

> <Gold.Id.Protein>
6NUR|6NUR_protein|mol2

> <Gold.PLP.Fitness>
41.8176

> <Gold.PLP.PLP>
-36.7029

> <Gold.PLP.part.hbond>
-2.0474

> <Gold.PLP.part.metal>
0.0000

> <Gold.PLP.part.buried>
-4.4387

> <Gold.PLP.part.nonpolar>
-30.6064

> <Gold.PLP.part.repulsive>
0.3873

> <Gold.PLP.ligand.clash>
0.0000

> <Gold.PLP.ligand.torsion>
0.4419

> <Gold.PLP.Chemscore.Hbond>
1.9920

> <Gold.PLP.Chemscore.CHOScore>
0.0000

> <Gold.PLP.Chemscore.Metal>
0.0000

> <Gold.Chemscore.Hbonds>
donor molecule, donor type, donor heavy atom, donor atom, acceptor molecule, acceptor atom, score
      L1  H     2    20       P1  7957  1.00
      P1  H  7989  7998       L1     7  1.00

> <Gold.PLP.Chemscore.Internal.Correction>
0.0225

> <Gold.Rescore>
     Score         DG    S(hbond)    S(metal)    S(lipo)     H(rot)  DE(clash)    DE(int)     intcor
     16.11     -16.61       1.87        0.00      83.02       1.89       0.10       0.40       ----

> <Gold.Chemscore.Fitness>
16.1053

> <Gold.Chemscore.DG>
-16.6107

> <Gold.Chemscore.ZeroCoef>
-5.4800

> <Gold.Chemscore.Hbond>
1.8712

> <Gold.Chemscore.Metal>
0.0000

> <Gold.Chemscore.Lipo>
83.0202

> <Gold.Chemscore.Internal_Hbond>
0.0000

> <Gold.Chemscore.DEClash>
0.1031

> <Gold.Chemscore.DEInternal>
0.4022

> <Gold.Chemscore.Rot>
1.8877

> <Gold.Chemscore.Internal.Correction>
   9.000000E+99

> <Gold.Chemscore.Hbonds>
donor molecule, donor type, donor heavy atom, donor atom, acceptor molecule, acceptor atom, score
      L1  H     2    20       P1  7957  0.95
      P1  H  7989  7998       L1     7  0.47

> <Gold.Chemscore.Hbond.Weighted>
-6.2498

> <Gold.Chemscore.Metal.Weighted>
-0.0000

> <Gold.Chemscore.Lipo.Weighted>
-9.7134

> <Gold.Chemscore.Internal_Hbond.Weighted>
0.0000

> <Gold.Chemscore.DEClash.Weighted>
0.1031

> <Gold.Chemscore.DEInternal.Weighted>
0.4022

> <Gold.Chemscore.Rot.Weighted>
4.8325

> <Gold.Chemscore.Internal.Correction.Weighted>
   9.000000E+99

> <Gold.Protein.RotatedTorsions>
[ 6907 6896 6895 6894 ] final -179.39 input  -60.11 | X-H torsion
[ 7974 7965 7964 7962 ] final  151.72 input  175.53 | X-H torsion
[ 8008 7997 7996 7995 ] final   27.33 input   59.86 | X-H torsion
[ 10167 10162 10161 10158 ] final  138.47 input  -65.29 | X-H torsion
[ 10718 10713 10712 10709 ] final  108.18 input   66.30 | X-H torsion
[ 10763 10752 10751 10750 ] final -134.64 input  -60.55 | X-H torsion
[ 11005 11000 10999 10996 ] final   96.81 input  -57.11 | X-H torsion

> <Gold.Protein.ActiveResidues>
 VAL166  LYS551  ARG553  GLY616  TRP617  ASP618  TYR619  PRO620  LYS621  CYS622 
 ASP623  PHE694  ASN695  SER759  ASP760  ASP761  ALA762  ILE779  LEU786  VAL792 
 PHE793  MET794  SER795  GLU796  ALA797  LYS798  CYS799  TRP800  GLU811  SER814 

> <Gold.Protein.RotatedAtoms>
  151.6527  133.3320  159.3155 H   0  0  0  0  0  0  0  0  0  0  0  0  # atno 6907 bound_to 6896
  150.7952  134.7010  159.6560 H   0  0  0  0  0  0  0  0  0  0  0  0  # atno 6908 bound_to 6896
  152.4038  134.6245  160.0111 H   0  0  0  0  0  0  0  0  0  0  0  0  # atno 6909 bound_to 6896
  144.8272  139.6575  143.6074 H   0  0  0  0  0  0  0  0  0  0  0  0  # atno 7974 bound_to 7965
  155.0412  140.3169  155.4724 H   0  0  0  0  0  0  0  0  0  0  0  0  # atno 8008 bound_to 7997
  156.2854  140.2162  156.5479 H   0  0  0  0  0  0  0  0  0  0  0  0  # atno 8009 bound_to 7997
  154.7288  140.0483  157.0695 H   0  0  0  0  0  0  0  0  0  0  0  0  # atno 8010 bound_to 7997
  139.5110  144.6351  151.5716 H   0  0  0  0  0  0  0  0  0  0  0  0  # atno 10167 bound_to 10162
  157.6597  131.0888  150.6267 H   0  0  0  0  0  0  0  0  0  0  0  0  # atno 10718 bound_to 10713
  154.8716  135.3728  154.4768 H   0  0  0  0  0  0  0  0  0  0  0  0  # atno 10763 bound_to 10752
  153.5425  135.7026  153.5635 H   0  0  0  0  0  0  0  0  0  0  0  0  # atno 10764 bound_to 10752
  153.3790  135.4001  155.1808 H   0  0  0  0  0  0  0  0  0  0  0  0  # atno 10765 bound_to 10752
  139.8779  134.8969  156.4214 H   0  0  0  0  0  0  0  0  0  0  0  0  # atno 11005 bound_to 11000
  146.2577  139.6339  142.9383 LP  0  0  0  0  0  0  0  0  0  0  0  0  # atno 17320 bound_to 7965
  145.4974  141.0438  143.2559 LP  0  0  0  0  0  0  0  0  0  0  0  0  # atno 17321 bound_to 7965
  140.6098  143.9457  150.6445 LP  0  0  0  0  0  0  0  0  0  0  0  0  # atno 17342 bound_to 10162
  140.2696  143.3465  152.1249 LP  0  0  0  0  0  0  0  0  0  0  0  0  # atno 17343 bound_to 10162
  156.6571  130.4501  149.5700 LP  0  0  0  0  0  0  0  0  0  0  0  0  # atno 17370 bound_to 10713
  156.2094  130.6669  151.1253 LP  0  0  0  0  0  0  0  0  0  0  0  0  # atno 17371 bound_to 10713
  140.9131  133.7697  155.9816 LP  0  0  0  0  0  0  0  0  0  0  0  0  # atno 17394 bound_to 11000
  140.8524  134.2938  157.5270 LP  0  0  0  0  0  0  0  0  0  0  0  0  # atno 17395 bound_to 11000

$$$$
