AV-unprocessed.smi:679|AV-procd|sdf|3322|dock3
  -GOLD-   22720 0293D 1   1.00000     0.00000
 Structure written by MMmdl.
 41 43  0  0  0  0  0  0  0  0  1 V2000
  153.0972  142.6057  163.0239 C   0  0  0  0  0  0  0  0  0  0  0  0
  153.5660  141.9393  161.7287 C   0  0  0  0  0  0  0  0  0  0  0  0
  153.3408  142.8309  160.6503 O   0  0  0  0  0  0  0  0  0  0  0  0
  152.8447  142.1835  159.4892 C   0  0  1  0  0  0  0  0  0  0  0  0
  151.8745  141.0294  159.7600 C   0  0  0  0  0  0  0  0  0  0  0  0
  151.0373  141.5488  158.5851 C   0  0  2  0  0  0  0  0  0  0  0  0
  151.4380  140.9108  157.3301 N   0  0  0  0  0  0  0  0  0  0  0  0
  151.3219  139.6010  157.0683 C   0  0  0  0  0  0  0  0  0  0  0  0
  150.8614  138.7911  157.8740 O   0  0  0  0  0  0  0  0  0  0  0  0
  151.7857  139.1490  155.6800 C   0  0  0  0  0  0  0  0  0  0  0  0
  151.6930  137.7094  155.5119 N   0  0  0  0  0  0  0  0  0  0  0  0
  151.0795  136.9712  154.5843 C   0  0  0  0  0  0  0  0  0  0  0  0
  151.2374  135.6754  154.8073 N   0  0  0  0  0  0  0  0  0  0  0  0
  152.0047  135.6459  155.9598 N   0  0  0  0  0  0  0  0  0  0  0  0
  152.2759  136.8496  156.3839 N   0  0  0  0  0  0  0  0  0  0  0  0
  151.6821  142.9436  158.8056 C   0  0  0  0  0  0  0  0  0  0  0  0
  150.8938  143.9280  159.6735 C   0  0  0  0  0  0  0  0  0  0  0  0
  151.5196  145.3121  159.4723 C   0  0  0  0  0  0  0  0  0  0  0  0
  152.2961  145.2303  158.1543 C   0  0  0  0  0  0  0  0  0  0  0  0
  152.0339  143.8253  157.6086 C   0  0  0  0  0  0  0  0  0  0  0  0
  153.2622  141.9523  163.8810 H   0  0  0  0  0  0  0  0  0  0  0  0
  152.0332  142.8397  162.9805 H   0  0  0  0  0  0  0  0  0  0  0  0
  153.6382  143.5352  163.2026 H   0  0  0  0  0  0  0  0  0  0  0  0
  154.6269  141.6949  161.7996 H   0  0  0  0  0  0  0  0  0  0  0  0
  153.0212  141.0074  161.5716 H   0  0  0  0  0  0  0  0  0  0  0  0
  153.6321  141.9139  158.7818 H   0  0  0  0  0  0  0  0  0  0  0  0
  152.3006  140.0338  159.6296 H   0  0  0  0  0  0  0  0  0  0  0  0
  151.3597  141.1225  160.7176 H   0  0  0  0  0  0  0  0  0  0  0  0
  149.9642  141.5171  158.7819 H   0  0  0  0  0  0  0  0  0  0  0  0
  151.8221  141.5096  156.6136 H   0  0  0  0  0  0  0  0  0  0  0  0
  151.1785  139.6439  154.9205 H   0  0  0  0  0  0  0  0  0  0  0  0
  152.8216  139.4465  155.5112 H   0  0  0  0  0  0  0  0  0  0  0  0
  150.5234  137.3795  153.7534 H   0  0  0  0  0  0  0  0  0  0  0  0
  149.8534  143.9558  159.3462 H   0  0  0  0  0  0  0  0  0  0  0  0
  150.8780  143.6479  160.7274 H   0  0  0  0  0  0  0  0  0  0  0  0
  150.7578  146.0918  159.4494 H   0  0  0  0  0  0  0  0  0  0  0  0
  152.2022  145.5434  160.2911 H   0  0  0  0  0  0  0  0  0  0  0  0
  151.9908  146.0011  157.4462 H   0  0  0  0  0  0  0  0  0  0  0  0
  153.3615  145.3631  158.3467 H   0  0  0  0  0  0  0  0  0  0  0  0
  152.8910  143.4513  157.0479 H   0  0  0  0  0  0  0  0  0  0  0  0
  151.1934  143.8631  156.9144 H   0  0  0  0  0  0  0  0  0  0  0  0
  1  2  1  0  0  0  0
  1 21  1  0  0  0  0
  1 22  1  0  0  0  0
  1 23  1  0  0  0  0
  2  3  1  0  0  0  0
  2 24  1  0  0  0  0
  2 25  1  0  0  0  0
  3  4  1  0  0  0  0
  4 16  1  0  0  0  0
  4  5  1  0  0  0  0
  4 26  1  0  0  0  0
  5  6  1  0  0  0  0
  5 27  1  0  0  0  0
  5 28  1  0  0  0  0
  6  7  1  0  0  0  0
  6 16  1  0  0  0  0
  6 29  1  0  0  0  0
  7  8  1  0  0  0  0
  7 30  1  0  0  0  0
  8  9  2  0  0  0  0
  8 10  1  0  0  0  0
 10 11  1  0  0  0  0
 10 31  1  0  0  0  0
 10 32  1  0  0  0  0
 11 15  1  0  0  0  0
 11 12  1  0  0  0  0
 12 13  2  0  0  0  0
 12 33  1  0  0  0  0
 13 14  1  0  0  0  0
 14 15  2  0  0  0  0
 16 20  1  0  0  0  0
 16 17  1  0  0  0  0
 17 18  1  0  0  0  0
 17 34  1  0  0  0  0
 17 35  1  0  0  0  0
 18 19  1  0  0  0  0
 18 36  1  0  0  0  0
 18 37  1  0  0  0  0
 19 20  1  0  0  0  0
 19 38  1  0  0  0  0
 19 39  1  0  0  0  0
 20 40  1  0  0  0  0
 20 41  1  0  0  0  0
M  END
> <s_m_source_file>
AV-unprocessed.smi

> <i_m_source_file_index>
679

> <i_lp_mmshare_version>
43012

> <i_f3d_flags>
0

> <s_epik_input>
W0NIMl0xW0NIMl1bQ0gyXVtDSDJdQzEyW0NASF0oT1tDSDJdW0NIM10pW0NIMl1bQ0BIXTJbTkhdQyg9TylbQ0gyXW4zW2NIXW5ubjM=

> <s_epik_cmdline>
J2VwaWtfcHl0aG9uJywgJy1waCcsICc3LjAnLCAnLXRuJywgJzgnLCAnLW1hJywgJzIwMCcsICctbWV0YWxfYmluZGluZycsICctaW1hZScsICc8aW5maWxlLm1hZT4nLCAnLW9tYWUnLCAnPG91dGZpbGUubWFlPic=

> <r_lp_tautomer_probability>
1

> <r_epik_Ionization_Penalty>
7.96741e-07

> <r_epik_Ionization_Penalty_Charging>
0

> <r_epik_Ionization_Penalty_Neutral>
7.96741e-07

> <r_epik_State_Penalty>
-0

> <r_epik_Charging_Adjusted_Penalty>
0

> <i_epik_Tot_Q>
0

> <i_epik_Tot_abs_Q>
0

> <r_epik_Metal_State_Penalty>
-0

> <b_epik_Metal_Only>
0

> <s_lp_Force_Field>
OPLS_2005

> <r_lp_Energy>
39.7046

> <b_lp_Chiralities_Consistent>
1

> <s_lp_Variant>
AV-unprocessed.smi:679-4

> <Gold.Version>
5.8.1

> <Gold.Id.Protein>
6NUR|6NUR_protein|mol2

> <Gold.PLP.Fitness>
44.4261

> <Gold.PLP.PLP>
-40.2260

> <Gold.PLP.part.hbond>
-2.7841

> <Gold.PLP.part.metal>
0.0000

> <Gold.PLP.part.buried>
-4.5750

> <Gold.PLP.part.nonpolar>
-34.0856

> <Gold.PLP.part.repulsive>
0.2917

> <Gold.PLP.ligand.clash>
0.0000

> <Gold.PLP.ligand.torsion>
0.9103

> <Gold.PLP.Chemscore.Hbond>
0.9500

> <Gold.PLP.Chemscore.CHOScore>
0.9335

> <Gold.PLP.Chemscore.Metal>
0.0000

> <Gold.Chemscore.Hbonds>
donor molecule, donor type, donor heavy atom, donor atom, acceptor molecule, acceptor atom, score
      P1  H 10752 10763       L1    14  0.39
      L1  C    12    33       P1  7948  0.51
      L1  C    12    33       P1  7949  0.17

> <Gold.PLP.Chemscore.Internal.Correction>
0.3703

> <Gold.Rescore>
     Score         DG    S(hbond)    S(metal)    S(lipo)     H(rot)  DE(clash)    DE(int)     intcor
      9.84     -12.68       0.08        0.00     111.88       2.41       0.62       2.22       ----

> <Gold.Chemscore.Fitness>
9.8386

> <Gold.Chemscore.DG>
-12.6791

> <Gold.Chemscore.ZeroCoef>
-5.4800

> <Gold.Chemscore.Hbond>
0.0826

> <Gold.Chemscore.Metal>
0.0000

> <Gold.Chemscore.Lipo>
111.8811

> <Gold.Chemscore.Internal_Hbond>
0.0000

> <Gold.Chemscore.DEClash>
0.6243

> <Gold.Chemscore.DEInternal>
2.2162

> <Gold.Chemscore.Rot>
2.4089

> <Gold.Chemscore.Internal.Correction>
   9.000000E+99

> <Gold.Chemscore.Hbond.Weighted>
-0.2758

> <Gold.Chemscore.Metal.Weighted>
-0.0000

> <Gold.Chemscore.Lipo.Weighted>
-13.0901

> <Gold.Chemscore.Internal_Hbond.Weighted>
0.0000

> <Gold.Chemscore.DEClash.Weighted>
0.6243

> <Gold.Chemscore.DEInternal.Weighted>
2.2162

> <Gold.Chemscore.Rot.Weighted>
6.1668

> <Gold.Chemscore.Internal.Correction.Weighted>
   9.000000E+99

> <Gold.Protein.RotatedTorsions>
[ 6907 6896 6895 6894 ] final  171.37 input  -60.11 | X-H torsion
[ 7974 7965 7964 7962 ] final -102.72 input  175.53 | X-H torsion
[ 8008 7997 7996 7995 ] final   19.54 input   59.86 | X-H torsion
[ 10167 10162 10161 10158 ] final -128.92 input  -65.29 | X-H torsion
[ 10718 10713 10712 10709 ] final  161.09 input   66.30 | X-H torsion
[ 10763 10752 10751 10750 ] final   97.12 input  -60.55 | X-H torsion
[ 11005 11000 10999 10996 ] final -145.11 input  -57.11 | X-H torsion

> <Gold.Protein.ActiveResidues>
 VAL166  LYS551  ARG553  GLY616  TRP617  ASP618  TYR619  PRO620  LYS621  CYS622 
 ASP623  PHE694  ASN695  SER759  ASP760  ASP761  ALA762  ILE779  LEU786  VAL792 
 PHE793  MET794  SER795  GLU796  ALA797  LYS798  CYS799  TRP800  GLU811  SER814 

> <Gold.Protein.RotatedAtoms>
  151.8013  133.3370  159.3527 H   0  0  0  0  0  0  0  0  0  0  0  0  # atno 6907 bound_to 6896
  150.7357  134.5750  159.5919 H   0  0  0  0  0  0  0  0  0  0  0  0  # atno 6908 bound_to 6896
  152.3141  134.7463  160.0381 H   0  0  0  0  0  0  0  0  0  0  0  0  # atno 6909 bound_to 6896
  145.2651  140.9281  143.3018 H   0  0  0  0  0  0  0  0  0  0  0  0  # atno 7974 bound_to 7965
  154.9222  140.3029  155.5210 H   0  0  0  0  0  0  0  0  0  0  0  0  # atno 8008 bound_to 7997
  156.3009  140.2369  156.4209 H   0  0  0  0  0  0  0  0  0  0  0  0  # atno 8009 bound_to 7997
  154.8320  140.0418  157.1472 H   0  0  0  0  0  0  0  0  0  0  0  0  # atno 8010 bound_to 7997
  139.9452  143.6118  152.2492 H   0  0  0  0  0  0  0  0  0  0  0  0  # atno 10167 bound_to 10162
  157.1413  131.0541  151.2325 H   0  0  0  0  0  0  0  0  0  0  0  0  # atno 10718 bound_to 10713
  153.2731  135.4194  155.1007 H   0  0  0  0  0  0  0  0  0  0  0  0  # atno 10763 bound_to 10752
  154.8463  135.3477  154.6216 H   0  0  0  0  0  0  0  0  0  0  0  0  # atno 10764 bound_to 10752
  153.6636  135.7047  153.5227 H   0  0  0  0  0  0  0  0  0  0  0  0  # atno 10765 bound_to 10752
  140.7956  134.2917  157.4997 H   0  0  0  0  0  0  0  0  0  0  0  0  # atno 11005 bound_to 11000
  144.9384  139.4217  143.6461 LP  0  0  0  0  0  0  0  0  0  0  0  0  # atno 17320 bound_to 7965
  146.3263  139.8331  142.8904 LP  0  0  0  0  0  0  0  0  0  0  0  0  # atno 17321 bound_to 7965
  139.6672  144.7662  151.1850 LP  0  0  0  0  0  0  0  0  0  0  0  0  # atno 17342 bound_to 10162
  140.7599  143.5919  150.8787 LP  0  0  0  0  0  0  0  0  0  0  0  0  # atno 17343 bound_to 10162
  157.4304  130.7487  149.6985 LP  0  0  0  0  0  0  0  0  0  0  0  0  # atno 17370 bound_to 10713
  155.9788  130.4047  150.3627 LP  0  0  0  0  0  0  0  0  0  0  0  0  # atno 17371 bound_to 10713
  139.8726  134.9400  156.3757 LP  0  0  0  0  0  0  0  0  0  0  0  0  # atno 17394 bound_to 11000
  140.9346  133.7556  156.0068 LP  0  0  0  0  0  0  0  0  0  0  0  0  # atno 17395 bound_to 11000

$$$$
