AV-unprocessed.smi:101|AV-procd|sdf|915|dock7
  -GOLD-   2262017413D 1   1.00000     0.00000
 Structure written by MMmdl.
 44 46  0  0  0  0  0  0  0  0  1 V2000
  147.3916  136.7856  163.2420 C   0  0  0  0  0  0  0  0  0  0  0  0
  147.4770  135.9044  162.0067 C   0  0  0  0  0  0  0  0  0  0  0  0
  148.0675  136.3179  160.8559 C   0  0  0  0  0  0  0  0  0  0  0  0
  148.1736  135.5290  159.7160 N   0  0  0  0  0  0  0  0  0  0  0  0
  148.8557  136.0117  158.4514 C   0  0  2  0  0  0  0  0  0  0  0  0
  150.1747  136.3777  158.7426 O   0  0  0  0  0  0  0  0  0  0  0  0
  150.4210  137.7193  158.3358 C   0  0  2  0  0  0  0  0  0  0  0  0
  151.4774  138.3715  159.2421 C   0  0  0  0  0  0  0  0  0  0  0  0
  151.4511  139.7806  159.0782 O   0  0  0  0  0  0  0  0  0  0  0  0
  152.5880  140.4980  159.0690 C   0  0  0  0  0  0  0  0  0  0  0  0
  153.6791  140.0498  158.7118 O   0  0  0  0  0  0  0  0  0  0  0  0
  152.3844  141.8956  159.5476 C   0  0  0  0  0  0  0  0  0  0  0  0
  152.0327  142.9029  158.6195 C   0  0  0  0  0  0  0  0  0  0  0  0
  151.8409  144.2324  159.0431 C   0  0  0  0  0  0  0  0  0  0  0  0
  151.9945  144.5697  160.4003 C   0  0  0  0  0  0  0  0  0  0  0  0
  152.3382  143.5758  161.3345 C   0  0  0  0  0  0  0  0  0  0  0  0
  152.5333  142.2463  160.9127 C   0  0  0  0  0  0  0  0  0  0  0  0
  149.0447  138.3859  158.3292 C   0  0  1  0  0  0  0  0  0  0  0  0
  148.9823  139.5233  157.4894 O   0  0  0  0  0  0  0  0  0  0  0  0
  148.1347  137.2505  157.8806 C   0  0  1  0  0  0  0  0  0  0  0  0
  148.0128  137.1613  156.4726 O   0  0  0  0  0  0  0  0  0  0  0  0
  147.6457  134.2214  159.7340 C   0  0  0  0  0  0  0  0  0  0  0  0
  147.7069  133.4668  158.7637 O   0  0  0  0  0  0  0  0  0  0  0  0
  147.0318  133.7993  160.9113 N   0  0  0  0  0  0  0  0  0  0  0  0
  146.9012  134.5587  162.0762 C   0  0  0  0  0  0  0  0  0  0  0  0
  146.3342  134.0759  163.0550 O   0  0  0  0  0  0  0  0  0  0  0  0
  146.6500  132.8646  160.9248 H   0  0  0  0  0  0  0  0  0  0  0  0
  147.8886  137.7445  163.0928 H   0  0  0  0  0  0  0  0  0  0  0  0
  147.8658  136.2968  164.0938 H   0  0  0  0  0  0  0  0  0  0  0  0
  146.3502  136.9838  163.4974 H   0  0  0  0  0  0  0  0  0  0  0  0
  148.4769  137.3157  160.8471 H   0  0  0  0  0  0  0  0  0  0  0  0
  148.8605  135.1482  157.7825 H   0  0  0  0  0  0  0  0  0  0  0  0
  150.8040  137.6709  157.3150 H   0  0  0  0  0  0  0  0  0  0  0  0
  151.2864  138.0972  160.2806 H   0  0  0  0  0  0  0  0  0  0  0  0
  152.4717  138.0055  158.9849 H   0  0  0  0  0  0  0  0  0  0  0  0
  151.9097  142.6672  157.5720 H   0  0  0  0  0  0  0  0  0  0  0  0
  151.5753  144.9939  158.3248 H   0  0  0  0  0  0  0  0  0  0  0  0
  151.8474  145.5895  160.7243 H   0  0  0  0  0  0  0  0  0  0  0  0
  152.4560  143.8330  162.3767 H   0  0  0  0  0  0  0  0  0  0  0  0
  152.8008  141.5095  161.6559 H   0  0  0  0  0  0  0  0  0  0  0  0
  148.7532  138.6772  159.3387 H   0  0  0  0  0  0  0  0  0  0  0  0
  148.0875  139.6405  157.2087 H   0  0  0  0  0  0  0  0  0  0  0  0
  147.1328  137.3595  158.2976 H   0  0  0  0  0  0  0  0  0  0  0  0
  147.1132  136.9616  156.2624 H   0  0  0  0  0  0  0  0  0  0  0  0
  1  2  1  0  0  0  0
  1 28  1  0  0  0  0
  1 29  1  0  0  0  0
  1 30  1  0  0  0  0
  2 25  1  0  0  0  0
  2  3  2  0  0  0  0
  3  4  1  0  0  0  0
  3 31  1  0  0  0  0
  4  5  1  0  0  0  0
  4 22  1  0  0  0  0
  5 20  1  0  0  0  0
  5  6  1  0  0  0  0
  5 32  1  0  0  0  0
  6  7  1  0  0  0  0
  7  8  1  0  0  0  0
  7 18  1  0  0  0  0
  7 33  1  0  0  0  0
  8  9  1  0  0  0  0
  8 34  1  0  0  0  0
  8 35  1  0  0  0  0
  9 10  1  0  0  0  0
 10 11  2  0  0  0  0
 10 12  1  0  0  0  0
 12 17  1  0  0  0  0
 12 13  2  0  0  0  0
 13 14  1  0  0  0  0
 13 36  1  0  0  0  0
 14 15  2  0  0  0  0
 14 37  1  0  0  0  0
 15 16  1  0  0  0  0
 15 38  1  0  0  0  0
 16 17  2  0  0  0  0
 16 39  1  0  0  0  0
 17 40  1  0  0  0  0
 18 19  1  0  0  0  0
 18 20  1  0  0  0  0
 18 41  1  0  0  0  0
 19 42  1  0  0  0  0
 20 21  1  0  0  0  0
 20 43  1  0  0  0  0
 21 44  1  0  0  0  0
 22 23  2  0  0  0  0
 22 24  1  0  0  0  0
 24 27  1  0  0  0  0
 24 25  1  0  0  0  0
 25 26  2  0  0  0  0
M  END
> <s_m_source_file>
AV-unprocessed.smi

> <i_m_source_file_index>
101

> <i_lp_mmshare_version>
43012

> <i_f3d_flags>
0

> <s_epik_input>
Tz1jMVtuSF1jKD1PKW4oW2NIXWMxW0NIM10pW0NAQEhdMk9bQ0BIXShbQ0BASF0oW09IXSlbQ0BIXTJbT0hdKVtDSDJdT0MoPU8pYzNbY0hdW2NIXVtjSF1bY0hdW2NIXTM=

> <s_epik_cmdline>
J2VwaWtfcHl0aG9uJywgJy1waCcsICc3LjAnLCAnLXRuJywgJzgnLCAnLW1hJywgJzIwMCcsICctbWV0YWxfYmluZGluZycsICctaW1hZScsICc8aW5maWxlLm1hZT4nLCAnLW9tYWUnLCAnPG91dGZpbGUubWFlPic=

> <r_lp_tautomer_probability>
0.999537

> <r_epik_Ionization_Penalty>
0.00263537

> <r_epik_Ionization_Penalty_Charging>
0.00263428

> <r_epik_Ionization_Penalty_Neutral>
1.09111e-06

> <r_epik_State_Penalty>
0.00183335

> <r_epik_Charging_Adjusted_Penalty>
0.00446763

> <i_epik_Tot_Q>
0

> <i_epik_Tot_abs_Q>
0

> <r_epik_Metal_State_Penalty>
1.00528

> <b_epik_Metal_Only>
0

> <s_epik_Chemistry_Notes>
This compound has an ester and may undergo hydrolysis at high or low pH. This compound contains an acetal/aminal-like group ( X-CH(R)-Y where X, Y are N, S, or O) that may be acid/base labile, releasing an aldehyde.

> <s_lp_Force_Field>
OPLS_2005

> <r_lp_Energy>
35.2309

> <b_lp_Chiralities_Consistent>
1

> <s_lp_Variant>
AV-unprocessed.smi:101-3

> <Gold.Version>
5.8.1

> <Gold.Id.Protein>
6NUR|6NUR_protein|mol2

> <Gold.PLP.Fitness>
51.2015

> <Gold.PLP.PLP>
-49.6842

> <Gold.PLP.part.hbond>
-3.0000

> <Gold.PLP.part.metal>
0.0000

> <Gold.PLP.part.buried>
-6.0108

> <Gold.PLP.part.nonpolar>
-40.1868

> <Gold.PLP.part.repulsive>
0.0351

> <Gold.PLP.ligand.clash>
0.0000

> <Gold.PLP.ligand.torsion>
2.2608

> <Gold.PLP.Chemscore.Hbond>
2.0000

> <Gold.PLP.Chemscore.CHOScore>
0.0000

> <Gold.PLP.Chemscore.Metal>
0.0000

> <Gold.Chemscore.Hbonds>
donor molecule, donor type, donor heavy atom, donor atom, acceptor molecule, acceptor atom, score
      P1  H  6896  6909       L1     6  1.00
      P1  H  7997  8009       L1    11  1.00

> <Gold.PLP.Chemscore.Internal.Correction>
0.0390

> <Gold.Rescore>
     Score         DG    S(hbond)    S(metal)    S(lipo)     H(rot)  DE(clash)    DE(int)     intcor
     12.08     -15.52       1.95        0.00     102.73       3.32       0.02       3.43       ----

> <Gold.Chemscore.Fitness>
12.0788

> <Gold.Chemscore.DG>
-15.5243

> <Gold.Chemscore.ZeroCoef>
-5.4800

> <Gold.Chemscore.Hbond>
1.9511

> <Gold.Chemscore.Metal>
0.0000

> <Gold.Chemscore.Lipo>
102.7313

> <Gold.Chemscore.Internal_Hbond>
0.0000

> <Gold.Chemscore.DEClash>
0.0178

> <Gold.Chemscore.DEInternal>
3.4277

> <Gold.Chemscore.Rot>
3.3172

> <Gold.Chemscore.Internal.Correction>
   9.000000E+99

> <Gold.Chemscore.Hbonds>
donor molecule, donor type, donor heavy atom, donor atom, acceptor molecule, acceptor atom, score
      P1  H  6896  6909       L1     6  0.44
      P1  H  7997  8009       L1    11  0.95

> <Gold.Chemscore.Hbond.Weighted>
-6.5167

> <Gold.Chemscore.Metal.Weighted>
-0.0000

> <Gold.Chemscore.Lipo.Weighted>
-12.0196

> <Gold.Chemscore.Internal_Hbond.Weighted>
0.0000

> <Gold.Chemscore.DEClash.Weighted>
0.0178

> <Gold.Chemscore.DEInternal.Weighted>
3.4277

> <Gold.Chemscore.Rot.Weighted>
8.4920

> <Gold.Chemscore.Internal.Correction.Weighted>
   9.000000E+99

> <Gold.Protein.RotatedTorsions>
[ 6907 6896 6895 6894 ] final   71.00 input  -60.11 | X-H torsion
[ 7974 7965 7964 7962 ] final   93.84 input  175.53 | X-H torsion
[ 8008 7997 7996 7995 ] final  142.31 input   59.86 | X-H torsion
[ 10167 10162 10161 10158 ] final   20.21 input  -65.29 | X-H torsion
[ 10718 10713 10712 10709 ] final   -4.29 input   66.30 | X-H torsion
[ 10763 10752 10751 10750 ] final -162.75 input  -60.55 | X-H torsion
[ 11005 11000 10999 10996 ] final  145.61 input  -57.11 | X-H torsion

> <Gold.Protein.ActiveResidues>
 VAL166  LYS551  ARG553  GLY616  TRP617  ASP618  TYR619  PRO620  LYS621  CYS622 
 ASP623  PHE694  ASN695  SER759  ASP760  ASP761  ALA762  ILE779  LEU786  VAL792 
 PHE793  MET794  SER795  GLU796  ALA797  LYS798  CYS799  TRP800  GLU811  SER814 

> <Gold.Protein.RotatedAtoms>
  152.4784  134.4785  159.9657 H   0  0  0  0  0  0  0  0  0  0  0  0  # atno 6907 bound_to 6896
  151.4796  133.3543  159.2844 H   0  0  0  0  0  0  0  0  0  0  0  0  # atno 6908 bound_to 6896
  150.8838  134.8259  159.7305 H   0  0  0  0  0  0  0  0  0  0  0  0  # atno 6909 bound_to 6896
  145.4735  139.2281  143.2922 H   0  0  0  0  0  0  0  0  0  0  0  0  # atno 7974 bound_to 7965
  156.2951  140.2292  156.4707 H   0  0  0  0  0  0  0  0  0  0  0  0  # atno 8008 bound_to 7997
  154.7938  140.0452  157.1242 H   0  0  0  0  0  0  0  0  0  0  0  0  # atno 8009 bound_to 7997
  154.9614  140.3055  155.5032 H   0  0  0  0  0  0  0  0  0  0  0  0  # atno 8010 bound_to 7997
  140.5521  143.9490  150.6585 H   0  0  0  0  0  0  0  0  0  0  0  0  # atno 10167 bound_to 10162
  156.7635  130.5277  149.5780 H   0  0  0  0  0  0  0  0  0  0  0  0  # atno 10718 bound_to 10713
  154.7185  135.3021  154.9085 H   0  0  0  0  0  0  0  0  0  0  0  0  # atno 10763 bound_to 10752
  153.9964  135.6712  153.4761 H   0  0  0  0  0  0  0  0  0  0  0  0  # atno 10764 bound_to 10752
  153.0814  135.5007  154.8427 H   0  0  0  0  0  0  0  0  0  0  0  0  # atno 10765 bound_to 10752
  140.0726  134.9143  157.1371 H   0  0  0  0  0  0  0  0  0  0  0  0  # atno 11005 bound_to 11000
  146.2383  140.5515  142.8945 LP  0  0  0  0  0  0  0  0  0  0  0  0  # atno 17320 bound_to 7965
  144.7931  140.6070  143.6528 LP  0  0  0  0  0  0  0  0  0  0  0  0  # atno 17321 bound_to 7965
  140.2919  143.3318  152.1054 LP  0  0  0  0  0  0  0  0  0  0  0  0  # atno 17342 bound_to 10162
  139.5032  144.6750  151.6150 LP  0  0  0  0  0  0  0  0  0  0  0  0  # atno 17343 bound_to 10162
  156.1324  130.6187  151.0352 LP  0  0  0  0  0  0  0  0  0  0  0  0  # atno 17370 bound_to 10713
  157.6724  131.0858  150.7580 LP  0  0  0  0  0  0  0  0  0  0  0  0  # atno 17371 bound_to 10713
  140.3604  134.2500  155.7188 LP  0  0  0  0  0  0  0  0  0  0  0  0  # atno 17394 bound_to 11000
  141.2018  133.7954  157.0424 LP  0  0  0  0  0  0  0  0  0  0  0  0  # atno 17395 bound_to 11000

$$$$
