AV-unprocessed.smi:1323|AV-procd|sdf|5466|dock7
  -GOLD-   22720 5 33D 1   1.00000     0.00000
 Structure written by MMmdl.
 45 46  0  0  0  0  0  0  0  0  1 V2000
  147.8071  140.9047  154.0831 C   0  0  0  0  0  0  0  0  0  0  0  0
  149.2799  140.5821  154.3816 C   0  0  1  0  0  0  0  0  0  0  0  0
  149.7527  141.2371  155.6971 C   0  0  0  0  0  0  0  0  0  0  0  0
  151.2375  140.9478  155.9716 C   0  0  0  0  0  0  0  0  0  0  0  0
  151.5311  139.4393  155.9551 C   0  0  0  0  0  0  0  0  0  0  0  0
  151.0535  138.7925  154.6460 C   0  0  0  0  0  0  0  0  0  0  0  0
  149.5528  139.0610  154.3970 C   0  0  1  0  0  0  0  0  0  0  0  0
  148.7304  138.5013  155.4142 O   0  0  0  0  0  0  0  0  0  0  0  0
  149.0003  137.1589  155.7857 C   0  0  0  0  0  0  0  0  0  0  0  0
  147.7914  136.6116  156.5606 C   0  0  0  0  0  0  0  0  0  0  0  0
  148.1672  136.1548  157.8961 N   0  0  0  0  0  0  0  0  0  0  0  0
  147.9517  136.8387  159.0313 C   0  0  0  0  0  0  0  0  0  0  0  0
  147.3693  137.9236  159.0644 O   0  0  0  0  0  0  0  0  0  0  0  0
  148.4501  136.1886  160.3288 C   0  0  0  0  0  0  0  0  0  0  0  0
  147.3524  135.6038  161.1168 N   0  0  0  0  0  0  0  0  0  0  0  0
  147.4401  134.2304  161.4212 C   0  0  0  0  0  0  0  0  0  0  0  0
  146.4784  133.5922  162.1066 C   0  0  0  0  0  0  0  0  0  0  0  0
  145.3272  134.3510  162.5349 C   0  0  0  0  0  0  0  0  0  0  0  0
  145.2351  135.6658  162.2523 C   0  0  0  0  0  0  0  0  0  0  0  0
  146.2880  136.3688  161.5106 C   0  0  0  0  0  0  0  0  0  0  0  0
  146.2168  137.5717  161.2597 O   0  0  0  0  0  0  0  0  0  0  0  0
  147.1483  140.5340  154.8691 H   0  0  0  0  0  0  0  0  0  0  0  0
  147.4896  140.4547  153.1421 H   0  0  0  0  0  0  0  0  0  0  0  0
  147.6514  141.9808  154.0025 H   0  0  0  0  0  0  0  0  0  0  0  0
  149.8684  141.0129  153.5702 H   0  0  0  0  0  0  0  0  0  0  0  0
  149.5951  142.3153  155.6559 H   0  0  0  0  0  0  0  0  0  0  0  0
  149.1509  140.8732  156.5310 H   0  0  0  0  0  0  0  0  0  0  0  0
  151.8495  141.4453  155.2181 H   0  0  0  0  0  0  0  0  0  0  0  0
  151.5271  141.3721  156.9334 H   0  0  0  0  0  0  0  0  0  0  0  0
  152.5994  139.2677  156.0884 H   0  0  0  0  0  0  0  0  0  0  0  0
  151.0339  138.9561  156.7962 H   0  0  0  0  0  0  0  0  0  0  0  0
  151.6313  139.2002  153.8156 H   0  0  0  0  0  0  0  0  0  0  0  0
  151.2685  137.7246  154.6533 H   0  0  0  0  0  0  0  0  0  0  0  0
  149.2634  138.6364  153.4344 H   0  0  0  0  0  0  0  0  0  0  0  0
  149.1722  136.5523  154.8956 H   0  0  0  0  0  0  0  0  0  0  0  0
  149.8940  137.0981  156.4064 H   0  0  0  0  0  0  0  0  0  0  0  0
  147.0026  137.3637  156.6171 H   0  0  0  0  0  0  0  0  0  0  0  0
  147.3679  135.7634  156.0227 H   0  0  0  0  0  0  0  0  0  0  0  0
  148.6454  135.2677  157.9584 H   0  0  0  0  0  0  0  0  0  0  0  0
  149.1788  135.4204  160.0664 H   0  0  0  0  0  0  0  0  0  0  0  0
  149.0053  136.9176  160.9224 H   0  0  0  0  0  0  0  0  0  0  0  0
  148.3276  133.7346  161.0554 H   0  0  0  0  0  0  0  0  0  0  0  0
  146.5600  132.5376  162.3257 H   0  0  0  0  0  0  0  0  0  0  0  0
  144.5346  133.8620  163.0818 H   0  0  0  0  0  0  0  0  0  0  0  0
  144.3653  136.2172  162.5781 H   0  0  0  0  0  0  0  0  0  0  0  0
  1  2  1  0  0  0  0
  1 22  1  0  0  0  0
  1 23  1  0  0  0  0
  1 24  1  0  0  0  0
  2  7  1  0  0  0  0
  2  3  1  0  0  0  0
  2 25  1  0  0  0  0
  3  4  1  0  0  0  0
  3 26  1  0  0  0  0
  3 27  1  0  0  0  0
  4  5  1  0  0  0  0
  4 28  1  0  0  0  0
  4 29  1  0  0  0  0
  5  6  1  0  0  0  0
  5 30  1  0  0  0  0
  5 31  1  0  0  0  0
  6  7  1  0  0  0  0
  6 32  1  0  0  0  0
  6 33  1  0  0  0  0
  7  8  1  0  0  0  0
  7 34  1  0  0  0  0
  8  9  1  0  0  0  0
  9 10  1  0  0  0  0
  9 35  1  0  0  0  0
  9 36  1  0  0  0  0
 10 11  1  0  0  0  0
 10 37  1  0  0  0  0
 10 38  1  0  0  0  0
 11 12  1  0  0  0  0
 11 39  1  0  0  0  0
 12 13  2  0  0  0  0
 12 14  1  0  0  0  0
 14 15  1  0  0  0  0
 14 40  1  0  0  0  0
 14 41  1  0  0  0  0
 15 20  1  0  0  0  0
 15 16  1  0  0  0  0
 16 17  2  0  0  0  0
 16 42  1  0  0  0  0
 17 18  1  0  0  0  0
 17 43  1  0  0  0  0
 18 19  2  0  0  0  0
 18 44  1  0  0  0  0
 19 20  1  0  0  0  0
 19 45  1  0  0  0  0
 20 21  2  0  0  0  0
M  END
> <s_m_source_file>
AV-unprocessed.smi

> <i_m_source_file_index>
1323

> <i_lp_mmshare_version>
43012

> <i_f3d_flags>
0

> <s_epik_input>
W0NIM11bQ0BASF0xW0NIMl1bQ0gyXVtDSDJdW0NIMl1bQ0BIXTFPW0NIMl1bQ0gyXVtOSF1DKD1PKVtDSDJdbjJbY0hdW2NIXVtjSF1bY0hdYzI9Tw==

> <s_epik_cmdline>
J2VwaWtfcHl0aG9uJywgJy1waCcsICc3LjAnLCAnLXRuJywgJzgnLCAnLW1hJywgJzIwMCcsICctbWV0YWxfYmluZGluZycsICctaW1hZScsICc8aW5maWxlLm1hZT4nLCAnLW9tYWUnLCAnPG91dGZpbGUubWFlPic=

> <r_lp_tautomer_probability>
1

> <r_epik_Ionization_Penalty>
4.02412e-07

> <r_epik_Ionization_Penalty_Charging>
3.74552e-07

> <r_epik_Ionization_Penalty_Neutral>
2.78599e-08

> <r_epik_State_Penalty>
-0

> <r_epik_Charging_Adjusted_Penalty>
3.74552e-07

> <i_epik_Tot_Q>
0

> <i_epik_Tot_abs_Q>
0

> <r_epik_Metal_State_Penalty>
-0

> <b_epik_Metal_Only>
0

> <s_lp_Force_Field>
OPLS_2005

> <r_lp_Energy>
18.6453

> <b_lp_Chiralities_Consistent>
1

> <s_lp_Variant>
AV-unprocessed.smi:1323-2

> <Gold.Version>
5.8.1

> <Gold.Id.Protein>
6NUR|6NUR_protein|mol2

> <Gold.PLP.Fitness>
40.5947

> <Gold.PLP.PLP>
-39.1946

> <Gold.PLP.part.hbond>
-1.7888

> <Gold.PLP.part.metal>
0.0000

> <Gold.PLP.part.buried>
-4.4330

> <Gold.PLP.part.nonpolar>
-33.7126

> <Gold.PLP.part.repulsive>
0.0892

> <Gold.PLP.ligand.clash>
0.0000

> <Gold.PLP.ligand.torsion>
0.8424

> <Gold.PLP.Chemscore.Hbond>
1.0000

> <Gold.PLP.Chemscore.CHOScore>
0.0000

> <Gold.PLP.Chemscore.Metal>
0.0000

> <Gold.Chemscore.Hbonds>
donor molecule, donor type, donor heavy atom, donor atom, acceptor molecule, acceptor atom, score
      P1  H  6934  6947       L1    21  1.00

> <Gold.PLP.Chemscore.Internal.Correction>
0.0848

> <Gold.Rescore>
     Score         DG    S(hbond)    S(metal)    S(lipo)     H(rot)  DE(clash)    DE(int)     intcor
     11.33     -13.76       0.91        0.00      87.23       1.94       0.09       2.33       ----

> <Gold.Chemscore.Fitness>
11.3324

> <Gold.Chemscore.DG>
-13.7563

> <Gold.Chemscore.ZeroCoef>
-5.4800

> <Gold.Chemscore.Hbond>
0.9092

> <Gold.Chemscore.Metal>
0.0000

> <Gold.Chemscore.Lipo>
87.2265

> <Gold.Chemscore.Internal_Hbond>
0.0000

> <Gold.Chemscore.DEClash>
0.0922

> <Gold.Chemscore.DEInternal>
2.3317

> <Gold.Chemscore.Rot>
1.9398

> <Gold.Chemscore.Internal.Correction>
   9.000000E+99

> <Gold.Chemscore.Hbonds>
donor molecule, donor type, donor heavy atom, donor atom, acceptor molecule, acceptor atom, score
      P1  H  6934  6947       L1    21  0.99

> <Gold.Chemscore.Hbond.Weighted>
-3.0367

> <Gold.Chemscore.Metal.Weighted>
-0.0000

> <Gold.Chemscore.Lipo.Weighted>
-10.2055

> <Gold.Chemscore.Internal_Hbond.Weighted>
0.0000

> <Gold.Chemscore.DEClash.Weighted>
0.0922

> <Gold.Chemscore.DEInternal.Weighted>
2.3317

> <Gold.Chemscore.Rot.Weighted>
4.9659

> <Gold.Chemscore.Internal.Correction.Weighted>
   9.000000E+99

> <Gold.Protein.RotatedTorsions>
[ 6907 6896 6895 6894 ] final -146.10 input  -60.11 | X-H torsion
[ 7974 7965 7964 7962 ] final   10.33 input  175.53 | X-H torsion
[ 8008 7997 7996 7995 ] final  -21.64 input   59.86 | X-H torsion
[ 10167 10162 10161 10158 ] final   23.81 input  -65.29 | X-H torsion
[ 10718 10713 10712 10709 ] final  152.98 input   66.30 | X-H torsion
[ 10763 10752 10751 10750 ] final  -83.55 input  -60.55 | X-H torsion
[ 11005 11000 10999 10996 ] final  124.93 input  -57.11 | X-H torsion

> <Gold.Protein.ActiveResidues>
 VAL166  LYS551  ARG553  GLY616  TRP617  ASP618  TYR619  PRO620  LYS621  CYS622 
 ASP623  PHE694  ASN695  SER759  ASP760  ASP761  ALA762  ILE779  LEU786  VAL792 
 PHE793  MET794  SER795  GLU796  ALA797  LYS798  CYS799  TRP800  GLU811  SER814 

> <Gold.Protein.RotatedAtoms>
  151.1370  133.4997  159.2597 H   0  0  0  0  0  0  0  0  0  0  0  0  # atno 6907 bound_to 6896
  151.1696  135.0311  159.8756 H   0  0  0  0  0  0  0  0  0  0  0  0  # atno 6908 bound_to 6896
  152.5461  134.1235  159.8462 H   0  0  0  0  0  0  0  0  0  0  0  0  # atno 6909 bound_to 6896
  146.2390  139.9651  142.8454 H   0  0  0  0  0  0  0  0  0  0  0  0  # atno 7974 bound_to 7965
  154.4693  140.2029  156.0037 H   0  0  0  0  0  0  0  0  0  0  0  0  # atno 8008 bound_to 7997
  156.0982  140.3248  155.7877 H   0  0  0  0  0  0  0  0  0  0  0  0  # atno 8009 bound_to 7997
  155.4842  140.0541  157.2953 H   0  0  0  0  0  0  0  0  0  0  0  0  # atno 8010 bound_to 7997
  140.5239  143.9956  150.6430 H   0  0  0  0  0  0  0  0  0  0  0  0  # atno 10167 bound_to 10162
  157.2508  131.0778  151.1731 H   0  0  0  0  0  0  0  0  0  0  0  0  # atno 10718 bound_to 10713
  154.5890  135.5552  153.7260 H   0  0  0  0  0  0  0  0  0  0  0  0  # atno 10763 bound_to 10752
  153.0109  135.6338  154.1876 H   0  0  0  0  0  0  0  0  0  0  0  0  # atno 10764 bound_to 10752
  154.1816  135.2887  155.3030 H   0  0  0  0  0  0  0  0  0  0  0  0  # atno 10765 bound_to 10752
  139.9382  134.9638  156.8482 H   0  0  0  0  0  0  0  0  0  0  0  0  # atno 11005 bound_to 11000
  145.1734  140.9732  143.4308 LP  0  0  0  0  0  0  0  0  0  0  0  0  # atno 17320 bound_to 7965
  145.0007  139.3601  143.6169 LP  0  0  0  0  0  0  0  0  0  0  0  0  # atno 17321 bound_to 7965
  140.3312  143.3076  152.0685 LP  0  0  0  0  0  0  0  0  0  0  0  0  # atno 17342 bound_to 10162
  139.4932  144.6507  151.6681 LP  0  0  0  0  0  0  0  0  0  0  0  0  # atno 17343 bound_to 10162
  157.3280  130.6971  149.6308 LP  0  0  0  0  0  0  0  0  0  0  0  0  # atno 17370 bound_to 10713
  155.9666  130.4316  150.4926 LP  0  0  0  0  0  0  0  0  0  0  0  0  # atno 17371 bound_to 10713
  140.6021  134.0162  155.7541 LP  0  0  0  0  0  0  0  0  0  0  0  0  # atno 17394 bound_to 11000
  141.1005  133.9776  157.3087 LP  0  0  0  0  0  0  0  0  0  0  0  0  # atno 17395 bound_to 11000

$$$$
