AV-unprocessed.smi:2640|AV-procd|sdf|10269|dock4
  -GOLD-   2272014283D 1   1.00000     0.00000
 Structure written by MMmdl.
 42 43  0  0  0  0  0  0  0  0  2 V2000
  146.2712  139.4183  154.0927 O   0  0  0  0  0  0  0  0  0  0  0  0
  147.0779  139.3219  153.1670 C   0  0  0  0  0  0  0  0  0  0  0  0
  146.6611  138.7102  151.8289 C   0  0  0  0  0  0  0  0  0  0  0  0
  145.2626  138.2353  151.8432 N   0  3  0  0  0  0  0  0  0  0  0  0
  145.0252  137.0953  152.7491 C   0  0  0  0  0  0  0  0  0  0  0  0
  144.1855  136.0085  152.0623 C   0  0  0  0  0  0  0  0  0  0  0  0
  144.9833  134.8468  151.7190 N   0  0  0  0  0  0  0  0  0  0  0  0
  146.3509  134.6879  151.8051 C   0  0  0  0  0  0  0  0  0  0  0  0
  146.6404  133.4235  151.3783 C   0  0  0  0  0  0  0  0  0  0  0  0
  145.3677  132.8769  151.0519 C   0  0  0  0  0  0  0  0  0  0  0  0
  144.3778  133.7306  151.2594 N   0  0  0  0  0  0  0  0  0  0  0  0
  148.3560  139.7234  153.2575 N   0  0  0  0  0  0  0  0  0  0  0  0
  148.9748  140.3422  154.4328 C   0  0  1  0  0  0  0  0  0  0  0  0
  150.4804  139.9915  154.4031 C   0  0  0  0  0  0  0  0  0  0  0  0
  151.1688  140.0837  155.7759 C   0  0  0  0  0  0  0  0  0  0  0  0
  151.2293  141.4957  156.3772 C   0  0  0  0  0  0  0  0  0  0  0  0
  149.8465  142.1046  156.6649 C   0  0  0  0  0  0  0  0  0  0  0  0
  149.2039  142.6023  155.4558 N   0  0  0  0  0  0  0  0  0  0  0  0
  148.8089  141.8801  154.3964 C   0  0  0  0  0  0  0  0  0  0  0  0
  148.3246  142.4362  153.4106 O   0  0  0  0  0  0  0  0  0  0  0  0
  146.7820  139.4504  151.0365 H   0  0  0  0  0  0  0  0  0  0  0  0
  147.3277  137.8766  151.6041 H   0  0  0  0  0  0  0  0  0  0  0  0
  144.6706  139.0037  152.1256 H   0  0  0  0  0  0  0  0  0  0  0  0
  145.9859  136.6868  153.0656 H   0  0  0  0  0  0  0  0  0  0  0  0
  144.5136  137.4503  153.6447 H   0  0  0  0  0  0  0  0  0  0  0  0
  143.3716  135.6889  152.7146 H   0  0  0  0  0  0  0  0  0  0  0  0
  143.7283  136.3951  151.1502 H   0  0  0  0  0  0  0  0  0  0  0  0
  146.9976  135.4778  152.1580 H   0  0  0  0  0  0  0  0  0  0  0  0
  147.6130  132.9588  151.3110 H   0  0  0  0  0  0  0  0  0  0  0  0
  145.1356  131.8919  150.6743 H   0  0  0  0  0  0  0  0  0  0  0  0
  148.9470  139.6104  152.4466 H   0  0  0  0  0  0  0  0  0  0  0  0
  148.5115  139.9358  155.3340 H   0  0  0  0  0  0  0  0  0  0  0  0
  150.5989  138.9633  154.0575 H   0  0  0  0  0  0  0  0  0  0  0  0
  151.0108  140.6061  153.6734 H   0  0  0  0  0  0  0  0  0  0  0  0
  150.6711  139.4122  156.4766 H   0  0  0  0  0  0  0  0  0  0  0  0
  152.1874  139.7069  155.6787 H   0  0  0  0  0  0  0  0  0  0  0  0
  151.7830  141.4398  157.3151 H   0  0  0  0  0  0  0  0  0  0  0  0
  151.8057  142.1577  155.7295 H   0  0  0  0  0  0  0  0  0  0  0  0
  149.1992  141.3927  157.1788 H   0  0  0  0  0  0  0  0  0  0  0  0
  149.9631  142.9542  157.3380 H   0  0  0  0  0  0  0  0  0  0  0  0
  149.0713  143.6021  155.4037 H   0  0  0  0  0  0  0  0  0  0  0  0
  145.0093  137.9638  150.9038 H   0  0  0  0  0  0  0  0  0  0  0  0
  1  2  2  0  0  0  0
  2  3  1  0  0  0  0
  2 12  1  0  0  0  0
  3  4  1  0  0  0  0
  3 21  1  0  0  0  0
  3 22  1  0  0  0  0
  4  5  1  0  0  0  0
  4 23  1  0  0  0  0
  4 42  1  0  0  0  0
  5  6  1  0  0  0  0
  5 24  1  0  0  0  0
  5 25  1  0  0  0  0
  6  7  1  0  0  0  0
  6 26  1  0  0  0  0
  6 27  1  0  0  0  0
  7 11  1  0  0  0  0
  7  8  1  0  0  0  0
  8  9  2  0  0  0  0
  8 28  1  0  0  0  0
  9 10  1  0  0  0  0
  9 29  1  0  0  0  0
 10 11  2  0  0  0  0
 10 30  1  0  0  0  0
 12 13  1  0  0  0  0
 12 31  1  0  0  0  0
 13 19  1  0  0  0  0
 13 14  1  0  0  0  0
 13 32  1  0  0  0  0
 14 15  1  0  0  0  0
 14 33  1  0  0  0  0
 14 34  1  0  0  0  0
 15 16  1  0  0  0  0
 15 35  1  0  0  0  0
 15 36  1  0  0  0  0
 16 17  1  0  0  0  0
 16 37  1  0  0  0  0
 16 38  1  0  0  0  0
 17 18  1  0  0  0  0
 17 39  1  0  0  0  0
 17 40  1  0  0  0  0
 18 19  1  0  0  0  0
 18 41  1  0  0  0  0
 19 20  2  0  0  0  0
M  CHG  1   4   1
M  END
> <s_m_source_file>
AV-unprocessed.smi

> <i_m_source_file_index>
2640

> <i_lp_mmshare_version>
43012

> <i_f3d_flags>
0

> <s_epik_input>
Tz1DMVtOSF1bQ0gyXVtDSDJdW0NIMl1bQ0gyXVtDQEhdMVtOSF1DKD1PKVtDSDJdW05IXVtDSDJdW0NIMl1uMltjSF1bY0hdW2NIXW4y

> <s_epik_cmdline>
J2VwaWtfcHl0aG9uJywgJy1waCcsICc3LjAnLCAnLXRuJywgJzgnLCAnLW1hJywgJzIwMCcsICctbWV0YWxfYmluZGluZycsICctaW1hZScsICc8aW5maWxlLm1hZT4nLCAnLW9tYWUnLCAnPG91dGZpbGUubWFlPic=

> <r_lp_tautomer_probability>
1

> <r_epik_Ionization_Penalty>
0.245908

> <r_epik_Ionization_Penalty_Charging>
0.245903

> <r_epik_Ionization_Penalty_Neutral>
5.38378e-06

> <r_epik_State_Penalty>
0.237496

> <r_epik_Charging_Adjusted_Penalty>
0.483398

> <i_epik_Tot_Q>
1

> <i_epik_Tot_abs_Q>
1

> <r_epik_Metal_State_Penalty>
0.237698

> <b_epik_Metal_Only>
0

> <s_lp_Force_Field>
OPLS_2005

> <r_lp_Energy>
9.28835

> <b_lp_Chiralities_Consistent>
1

> <s_lp_Variant>
AV-unprocessed.smi:2640-2

> <Gold.Version>
5.8.1

> <Gold.Id.Protein>
6NUR|6NUR_protein|mol2

> <Gold.PLP.Fitness>
55.9708

> <Gold.PLP.PLP>
-38.8565

> <Gold.PLP.part.hbond>
-4.9082

> <Gold.PLP.part.metal>
0.0000

> <Gold.PLP.part.buried>
-4.6035

> <Gold.PLP.part.nonpolar>
-31.2873

> <Gold.PLP.part.repulsive>
0.7794

> <Gold.PLP.ligand.clash>
0.0000

> <Gold.PLP.ligand.torsion>
1.1083

> <Gold.PLP.Chemscore.Hbond>
5.4240

> <Gold.PLP.Chemscore.CHOScore>
1.0000

> <Gold.PLP.Chemscore.Metal>
0.0000

> <Gold.Chemscore.Hbonds>
donor molecule, donor type, donor heavy atom, donor atom, acceptor molecule, acceptor atom, score
      L1  H     4    23       P1 10175  2.00
      L1  H     4    42       P1 10171  0.64
      L1  H    12    31       P1  7957  0.94
      L1  H    18    41       P1  8028  0.06
      P1  H  8011  8017       L1    20  0.18
      P1  H  8022  8030       L1    20  0.18
      L1  C     8    28       P1  7948  1.00

> <Gold.PLP.Chemscore.Internal.Correction>
0.0588

> <Gold.Rescore>
     Score         DG    S(hbond)    S(metal)    S(lipo)     H(rot)  DE(clash)    DE(int)     intcor
     18.99     -21.39       4.19        0.00      69.82       2.45       0.22       2.19       ----

> <Gold.Chemscore.Fitness>
18.9921

> <Gold.Chemscore.DG>
-21.3947

> <Gold.Chemscore.ZeroCoef>
-5.4800

> <Gold.Chemscore.Hbond>
4.1940

> <Gold.Chemscore.Metal>
0.0000

> <Gold.Chemscore.Lipo>
69.8215

> <Gold.Chemscore.Internal_Hbond>
0.0000

> <Gold.Chemscore.DEClash>
0.2150

> <Gold.Chemscore.DEInternal>
2.1876

> <Gold.Chemscore.Rot>
2.4462

> <Gold.Chemscore.Internal.Correction>
   9.000000E+99

> <Gold.Chemscore.Hbonds>
donor molecule, donor type, donor heavy atom, donor atom, acceptor molecule, acceptor atom, score
      L1  H     4    23       P1 10175  1.00
      L1  H     4    42       P1 10171  0.64
      L1  H    12    31       P1  7957  0.89
      L1  H    18    41       P1  8028  0.10
      P1  H  8011  8017       L1    20  0.05
      P1  H  8022  8030       L1    20  0.13

> <Gold.Chemscore.Hbond.Weighted>
-14.0079

> <Gold.Chemscore.Metal.Weighted>
-0.0000

> <Gold.Chemscore.Lipo.Weighted>
-8.1691

> <Gold.Chemscore.Internal_Hbond.Weighted>
0.0000

> <Gold.Chemscore.DEClash.Weighted>
0.2150

> <Gold.Chemscore.DEInternal.Weighted>
2.1876

> <Gold.Chemscore.Rot.Weighted>
6.2623

> <Gold.Chemscore.Internal.Correction.Weighted>
   9.000000E+99

> <Gold.Protein.RotatedTorsions>
[ 6907 6896 6895 6894 ] final -118.97 input  -60.11 | X-H torsion
[ 7974 7965 7964 7962 ] final  173.11 input  175.53 | X-H torsion
[ 8008 7997 7996 7995 ] final  -95.61 input   59.86 | X-H torsion
[ 10167 10162 10161 10158 ] final  -18.27 input  -65.29 | X-H torsion
[ 10718 10713 10712 10709 ] final -112.48 input   66.30 | X-H torsion
[ 10763 10752 10751 10750 ] final  176.18 input  -60.55 | X-H torsion
[ 11005 11000 10999 10996 ] final -165.97 input  -57.11 | X-H torsion

> <Gold.Protein.ActiveResidues>
 VAL166  LYS551  ARG553  GLY616  TRP617  ASP618  TYR619  PRO620  LYS621  CYS622 
 ASP623  PHE694  ASN695  SER759  ASP760  ASP761  ALA762  ILE779  LEU786  VAL792 
 PHE793  MET794  SER795  GLU796  ALA797  LYS798  CYS799  TRP800  GLU811  SER814 

> <Gold.Protein.RotatedAtoms>
  150.8265  133.8164  159.3116 H   0  0  0  0  0  0  0  0  0  0  0  0  # atno 6907 bound_to 6896
  151.5906  135.1052  160.0047 H   0  0  0  0  0  0  0  0  0  0  0  0  # atno 6908 bound_to 6896
  152.4349  133.7302  159.6639 H   0  0  0  0  0  0  0  0  0  0  0  0  # atno 6909 bound_to 6896
  144.7251  139.9599  143.6434 H   0  0  0  0  0  0  0  0  0  0  0  0  # atno 7974 bound_to 7965
  154.7637  140.0478  157.0994 H   0  0  0  0  0  0  0  0  0  0  0  0  # atno 8008 bound_to 7997
  154.9906  140.3112  155.4888 H   0  0  0  0  0  0  0  0  0  0  0  0  # atno 8009 bound_to 7997
  156.2909  140.2219  156.5011 H   0  0  0  0  0  0  0  0  0  0  0  0  # atno 8010 bound_to 7997
  140.7257  143.4933  150.9963 H   0  0  0  0  0  0  0  0  0  0  0  0  # atno 10167 bound_to 10162
  156.0708  130.5922  150.8514 H   0  0  0  0  0  0  0  0  0  0  0  0  # atno 10718 bound_to 10713
  154.4776  135.2773  155.1595 H   0  0  0  0  0  0  0  0  0  0  0  0  # atno 10763 bound_to 10752
  154.3318  135.6188  153.5558 H   0  0  0  0  0  0  0  0  0  0  0  0  # atno 10764 bound_to 10752
  152.9871  135.5767  154.5171 H   0  0  0  0  0  0  0  0  0  0  0  0  # atno 10765 bound_to 10752
  140.5698  134.5249  157.5159 H   0  0  0  0  0  0  0  0  0  0  0  0  # atno 11005 bound_to 11000
  146.0646  139.3637  143.0560 LP  0  0  0  0  0  0  0  0  0  0  0  0  # atno 17320 bound_to 7965
  145.8048  140.9754  143.0979 LP  0  0  0  0  0  0  0  0  0  0  0  0  # atno 17321 bound_to 7965
  139.8638  143.7280  152.3171 LP  0  0  0  0  0  0  0  0  0  0  0  0  # atno 17342 bound_to 10162
  139.7504  144.7535  151.0515 LP  0  0  0  0  0  0  0  0  0  0  0  0  # atno 17343 bound_to 10162
  157.5778  131.0946  150.9319 LP  0  0  0  0  0  0  0  0  0  0  0  0  # atno 17370 bound_to 10713
  156.9521  130.5423  149.5283 LP  0  0  0  0  0  0  0  0  0  0  0  0  # atno 17371 bound_to 10713
  139.9367  134.7862  156.0784 LP  0  0  0  0  0  0  0  0  0  0  0  0  # atno 17394 bound_to 11000
  141.1063  133.6659  156.2872 LP  0  0  0  0  0  0  0  0  0  0  0  0  # atno 17395 bound_to 11000

$$$$
