AV-unprocessed.smi:1696|AV-procd|sdf|6802|dock9
  -GOLD-   22720 7573D 1   1.00000     0.00000
 Structure written by MMmdl.
 38 39  0  0  0  0  0  0  0  0  3 V2000
  152.4090  138.3378  155.0771 C   0  0  0  0  0  0  0  0  0  0  0  0
  151.5803  137.1882  154.4823 C   0  0  0  0  0  0  0  0  0  0  0  0
  150.1962  136.9715  155.1522 C   0  0  1  0  0  0  0  0  0  0  0  0
  150.1400  137.5239  156.6000 C   0  0  0  0  0  0  0  0  0  0  0  0
  149.6675  136.5195  157.5488 N   0  0  0  0  0  0  0  0  0  0  0  0
  149.3870  136.7129  158.8453 C   0  0  0  0  0  0  0  0  0  0  0  0
  149.4981  137.8351  159.3437 O   0  0  0  0  0  0  0  0  0  0  0  0
  148.9971  135.5876  159.4844 N   0  5  0  0  0  0  0  0  0  0  0  0
  148.2778  135.6723  160.6153 C   0  0  0  0  0  0  0  0  0  0  0  0
  148.1546  136.8033  161.3194 N   0  0  0  0  0  0  0  0  0  0  0  0
  147.3664  136.6618  162.4629 C   0  0  0  0  0  0  0  0  0  0  0  0
  146.8856  135.3913  162.6385 C   0  0  0  0  0  0  0  0  0  0  0  0
  147.4115  134.3282  161.3646 S   0  0  0  0  0  0  0  0  0  0  0  0
  149.0995  137.5225  154.3027 N   0  3  0  0  0  0  0  0  0  0  0  0
  147.7258  137.3229  154.8317 C   0  0  0  0  0  0  0  0  0  0  0  0
  146.9214  138.5878  154.5006 C   0  0  0  0  0  0  0  0  0  0  0  0
  147.8027  139.3663  153.5312 C   0  0  0  0  0  0  0  0  0  0  0  0
  149.2102  138.9533  153.9445 C   0  0  0  0  0  0  0  0  0  0  0  0
  153.3551  138.4416  154.5457 H   0  0  0  0  0  0  0  0  0  0  0  0
  152.6449  138.1644  156.1264 H   0  0  0  0  0  0  0  0  0  0  0  0
  151.8851  139.2908  155.0033 H   0  0  0  0  0  0  0  0  0  0  0  0
  151.4567  137.3652  153.4143 H   0  0  0  0  0  0  0  0  0  0  0  0
  152.1657  136.2703  154.5403 H   0  0  0  0  0  0  0  0  0  0  0  0
  150.0339  135.8942  155.2185 H   0  0  0  0  0  0  0  0  0  0  0  0
  151.1102  137.9315  156.8871 H   0  0  0  0  0  0  0  0  0  0  0  0
  149.4348  138.3519  156.6689 H   0  0  0  0  0  0  0  0  0  0  0  0
  149.5529  135.5808  157.1949 H   0  0  0  0  0  0  0  0  0  0  0  0
  147.2017  137.5197  163.0980 H   0  0  0  0  0  0  0  0  0  0  0  0
  146.2597  135.0169  163.4343 H   0  0  0  0  0  0  0  0  0  0  0  0
  147.2879  136.4405  154.3640 H   0  0  0  0  0  0  0  0  0  0  0  0
  147.7258  137.1616  155.9108 H   0  0  0  0  0  0  0  0  0  0  0  0
  145.9390  138.3642  154.0834 H   0  0  0  0  0  0  0  0  0  0  0  0
  146.7695  139.1734  155.4086 H   0  0  0  0  0  0  0  0  0  0  0  0
  147.6064  139.0428  152.5080 H   0  0  0  0  0  0  0  0  0  0  0  0
  147.6435  140.4439  153.5816 H   0  0  0  0  0  0  0  0  0  0  0  0
  149.5204  139.5296  154.8179 H   0  0  0  0  0  0  0  0  0  0  0  0
  149.9349  139.1204  153.1470 H   0  0  0  0  0  0  0  0  0  0  0  0
  149.1347  137.0218  153.4260 H   0  0  0  0  0  0  0  0  0  0  0  0
  1  2  1  0  0  0  0
  1 19  1  0  0  0  0
  1 20  1  0  0  0  0
  1 21  1  0  0  0  0
  2  3  1  0  0  0  0
  2 22  1  0  0  0  0
  2 23  1  0  0  0  0
  3  4  1  0  0  0  0
  3 14  1  0  0  0  0
  3 24  1  0  0  0  0
  4  5  1  0  0  0  0
  4 25  1  0  0  0  0
  4 26  1  0  0  0  0
  5  6  1  0  0  0  0
  5 27  1  0  0  0  0
  6  7  2  0  0  0  0
  6  8  1  0  0  0  0
  8  9  1  0  0  0  0
  9 13  1  0  0  0  0
  9 10  2  0  0  0  0
 10 11  1  0  0  0  0
 11 12  2  0  0  0  0
 11 28  1  0  0  0  0
 12 13  1  0  0  0  0
 12 29  1  0  0  0  0
 14 18  1  0  0  0  0
 14 15  1  0  0  0  0
 14 38  1  0  0  0  0
 15 16  1  0  0  0  0
 15 30  1  0  0  0  0
 15 31  1  0  0  0  0
 16 17  1  0  0  0  0
 16 32  1  0  0  0  0
 16 33  1  0  0  0  0
 17 18  1  0  0  0  0
 17 34  1  0  0  0  0
 17 35  1  0  0  0  0
 18 36  1  0  0  0  0
 18 37  1  0  0  0  0
M  CHG  1   8  -1
M  CHG  1  14   1
M  END
> <s_m_source_file>
AV-unprocessed.smi

> <i_m_source_file_index>
1696

> <i_lp_mmshare_version>
43012

> <i_f3d_flags>
0

> <s_epik_input>
W0NIMl0xW0NIMl1bQ0gyXVtDSDJdTjFbQ0BIXShbQ0gyXVtDSDNdKVtDSDJdW05IXUMoPU8pW05IXWMybltjSF1bY0hdczI=

> <s_epik_cmdline>
J2VwaWtfcHl0aG9uJywgJy1waCcsICc3LjAnLCAnLXRuJywgJzgnLCAnLW1hJywgJzIwMCcsICctbWV0YWxfYmluZGluZycsICctaW1hZScsICc8aW5maWxlLm1hZT4nLCAnLW9tYWUnLCAnPG91dGZpbGUubWFlPic=

> <r_lp_tautomer_probability>
1

> <r_epik_Ionization_Penalty>
7.71903

> <r_epik_Ionization_Penalty_Charging>
6.3282

> <r_epik_Ionization_Penalty_Neutral>
1.39083

> <r_epik_State_Penalty>
6.32705

> <r_epik_Charging_Adjusted_Penalty>
12.6552

> <i_epik_Tot_Q>
0

> <i_epik_Tot_abs_Q>
2

> <r_epik_Metal_State_Penalty>
2.26116

> <b_epik_Metal_Only>
1

> <s_lp_Force_Field>
OPLS_2005

> <r_lp_Energy>
23.2163

> <b_lp_Chiralities_Consistent>
1

> <s_lp_Variant>
AV-unprocessed.smi:1696-4

> <Gold.Version>
5.8.1

> <Gold.Id.Protein>
6NUR|6NUR_protein|mol2

> <Gold.PLP.Fitness>
44.4460

> <Gold.PLP.PLP>
-31.3198

> <Gold.PLP.part.hbond>
-5.8143

> <Gold.PLP.part.metal>
0.0000

> <Gold.PLP.part.buried>
-2.5693

> <Gold.PLP.part.nonpolar>
-24.0169

> <Gold.PLP.part.repulsive>
0.0470

> <Gold.PLP.ligand.clash>
0.0000

> <Gold.PLP.ligand.torsion>
1.4581

> <Gold.PLP.Chemscore.Hbond>
5.2542

> <Gold.PLP.Chemscore.CHOScore>
0.0000

> <Gold.PLP.Chemscore.Metal>
0.0000

> <Gold.Chemscore.Hbonds>
donor molecule, donor type, donor heavy atom, donor atom, acceptor molecule, acceptor atom, score
      L1  H    14    38       P1  7948  2.00
      P1  H  6896  6907       L1     8  1.70
      P1  H  6931  6943       L1    10  0.75

> <Gold.PLP.Chemscore.Internal.Correction>
0.2798

> <Gold.Rescore>
     Score         DG    S(hbond)    S(metal)    S(lipo)     H(rot)  DE(clash)    DE(int)     intcor
     14.36     -17.59       2.75        0.00      62.83       1.73       0.10       3.13       ----

> <Gold.Chemscore.Fitness>
14.3600

> <Gold.Chemscore.DG>
-17.5870

> <Gold.Chemscore.ZeroCoef>
-5.4800

> <Gold.Chemscore.Hbond>
2.7477

> <Gold.Chemscore.Metal>
0.0000

> <Gold.Chemscore.Lipo>
62.8288

> <Gold.Chemscore.Internal_Hbond>
0.0000

> <Gold.Chemscore.DEClash>
0.1016

> <Gold.Chemscore.DEInternal>
3.1254

> <Gold.Chemscore.Rot>
1.7270

> <Gold.Chemscore.Internal.Correction>
   9.000000E+99

> <Gold.Chemscore.Hbonds>
donor molecule, donor type, donor heavy atom, donor atom, acceptor molecule, acceptor atom, score
      L1  H    14    38       P1  7948  1.00
      P1  H  6896  6907       L1     8  0.13
      P1  H  6931  6943       L1    10  0.09

> <Gold.Chemscore.Hbond.Weighted>
-9.1772

> <Gold.Chemscore.Metal.Weighted>
-0.0000

> <Gold.Chemscore.Lipo.Weighted>
-7.3510

> <Gold.Chemscore.Internal_Hbond.Weighted>
0.0000

> <Gold.Chemscore.DEClash.Weighted>
0.1016

> <Gold.Chemscore.DEInternal.Weighted>
3.1254

> <Gold.Chemscore.Rot.Weighted>
4.4212

> <Gold.Chemscore.Internal.Correction.Weighted>
   9.000000E+99

> <Gold.Protein.RotatedTorsions>
[ 6907 6896 6895 6894 ] final  -54.21 input  -60.11 | X-H torsion
[ 7974 7965 7964 7962 ] final   75.97 input  175.53 | X-H torsion
[ 8008 7997 7996 7995 ] final   53.02 input   59.86 | X-H torsion
[ 10167 10162 10161 10158 ] final  -90.57 input  -65.29 | X-H torsion
[ 10718 10713 10712 10709 ] final   52.12 input   66.30 | X-H torsion
[ 10763 10752 10751 10750 ] final  -80.46 input  -60.55 | X-H torsion
[ 11005 11000 10999 10996 ] final   49.28 input  -57.11 | X-H torsion

> <Gold.Protein.ActiveResidues>
 VAL166  LYS551  ARG553  GLY616  TRP617  ASP618  TYR619  PRO620  LYS621  CYS622 
 ASP623  PHE694  ASN695  SER759  ASP760  ASP761  ALA762  ILE779  LEU786  VAL792 
 PHE793  MET794  SER795  GLU796  ALA797  LYS798  CYS799  TRP800  GLU811  SER814 

> <Gold.Protein.RotatedAtoms>
  150.8358  134.7630  159.6890 H   0  0  0  0  0  0  0  0  0  0  0  0  # atno 6907 bound_to 6896
  152.4455  134.5501  159.9874 H   0  0  0  0  0  0  0  0  0  0  0  0  # atno 6908 bound_to 6896
  151.5652  133.3360  159.3014 H   0  0  0  0  0  0  0  0  0  0  0  0  # atno 6909 bound_to 6896
  145.7088  139.2607  143.1663 H   0  0  0  0  0  0  0  0  0  0  0  0  # atno 7974 bound_to 7965
  155.4614  140.3462  155.4313 H   0  0  0  0  0  0  0  0  0  0  0  0  # atno 8008 bound_to 7997
  156.1158  140.1473  156.9304 H   0  0  0  0  0  0  0  0  0  0  0  0  # atno 8009 bound_to 7997
  154.4788  140.0876  156.7306 H   0  0  0  0  0  0  0  0  0  0  0  0  # atno 8010 bound_to 7997
  140.3536  143.2878  151.9697 H   0  0  0  0  0  0  0  0  0  0  0  0  # atno 10167 bound_to 10162
  157.5045  130.8459  149.8357 H   0  0  0  0  0  0  0  0  0  0  0  0  # atno 10718 bound_to 10713
  154.5515  135.5660  153.6926 H   0  0  0  0  0  0  0  0  0  0  0  0  # atno 10763 bound_to 10752
  152.9991  135.6252  154.2368 H   0  0  0  0  0  0  0  0  0  0  0  0  # atno 10764 bound_to 10752
  154.2303  135.2866  155.2872 H   0  0  0  0  0  0  0  0  0  0  0  0  # atno 10765 bound_to 10752
  140.1117  134.4946  155.8672 H   0  0  0  0  0  0  0  0  0  0  0  0  # atno 11005 bound_to 11000
  146.0731  140.7847  142.9678 LP  0  0  0  0  0  0  0  0  0  0  0  0  # atno 17320 bound_to 7965
  144.6948  140.3373  143.7205 LP  0  0  0  0  0  0  0  0  0  0  0  0  # atno 17321 bound_to 7965
  139.4823  144.6054  151.7530 LP  0  0  0  0  0  0  0  0  0  0  0  0  # atno 17342 bound_to 10162
  140.5195  144.0901  150.6018 LP  0  0  0  0  0  0  0  0  0  0  0  0  # atno 17343 bound_to 10162
  156.0249  130.3783  150.1851 LP  0  0  0  0  0  0  0  0  0  0  0  0  # atno 17370 bound_to 10713
  157.0041  130.9931  151.3383 LP  0  0  0  0  0  0  0  0  0  0  0  0  # atno 17371 bound_to 10713
  141.2132  133.6729  156.6718 LP  0  0  0  0  0  0  0  0  0  0  0  0  # atno 17394 bound_to 11000
  140.3082  134.8108  157.4154 LP  0  0  0  0  0  0  0  0  0  0  0  0  # atno 17395 bound_to 11000

$$$$
