AV-unprocessed.smi:197|AV-procd|sdf|1546|dock7
  -GOLD-   2262019403D 1   1.00000     0.00000
 Structure written by MMmdl.
 54 57  0  0  0  0  0  0  0  0  1 V2000
  151.4947  144.9553  158.8598 C   0  0  0  0  0  0  0  0  0  0  0  0
  151.5642  143.5383  158.8913 O   0  0  0  0  0  0  0  0  0  0  0  0
  150.7500  142.8882  157.9236 C   0  0  0  0  0  0  0  0  0  0  0  0
  151.2462  141.4690  157.5856 C   0  0  0  0  0  0  0  0  0  0  0  0
  150.6107  140.8521  156.3112 C   0  0  2  0  0  0  0  0  0  0  0  0
  150.0818  141.9495  155.3573 C   0  0  0  0  0  0  0  0  0  0  0  0
  149.4766  141.3655  154.2089 O   0  0  0  0  0  0  0  0  0  0  0  0
  148.3599  140.5553  154.5503 C   0  0  0  0  0  0  0  0  0  0  0  0
  148.8355  139.4033  155.4451 C   0  0  0  0  0  0  0  0  0  0  0  0
  149.5131  139.9275  156.6251 N   0  0  0  0  0  0  0  0  0  0  0  0
  149.7851  138.9338  157.5007 C   0  0  0  0  0  0  0  0  0  0  0  0
  151.0892  138.7217  157.8030 N   0  0  0  0  0  0  0  0  0  0  0  0
  151.4281  137.7458  158.6505 C   0  0  0  0  0  0  0  0  0  0  0  0
  150.6358  136.8847  159.2924 N   0  0  0  0  0  0  0  0  0  0  0  0
  149.3223  137.1010  158.9955 C   0  0  0  0  0  0  0  0  0  0  0  0
  148.8106  138.1023  158.1232 C   0  0  0  0  0  0  0  0  0  0  0  0
  147.4238  138.0294  158.0810 N   0  0  0  0  0  0  0  0  0  0  0  0
  147.1333  137.0304  158.8683 C   0  0  0  0  0  0  0  0  0  0  0  0
  148.2142  136.4079  159.4510 N   0  0  0  0  0  0  0  0  0  0  0  0
  148.1773  135.2694  160.3561 C   0  0  0  0  0  0  0  0  0  0  0  0
  147.2668  135.4886  161.5897 C   0  0  2  0  0  0  0  0  0  0  0  0
  147.7791  136.5820  162.3334 O   0  0  0  0  0  0  0  0  0  0  0  0
  147.2344  134.2607  162.5068 C   0  0  0  0  0  0  0  0  0  0  0  0
  145.8069  133.7403  162.3838 C   0  0  0  0  0  0  0  0  0  0  0  0
  145.0567  134.9221  162.1714 O   0  0  0  0  0  0  0  0  0  0  0  0
  145.7740  135.7008  161.2255 C   0  0  1  0  0  0  0  0  0  0  0  0
  145.2515  137.1466  161.2043 C   0  0  0  0  0  0  0  0  0  0  0  0
  152.2039  145.3686  159.5767 H   0  0  0  0  0  0  0  0  0  0  0  0
  150.5051  145.3165  159.1346 H   0  0  0  0  0  0  0  0  0  0  0  0
  151.7501  145.3448  157.8739 H   0  0  0  0  0  0  0  0  0  0  0  0
  149.7147  142.8557  158.2662 H   0  0  0  0  0  0  0  0  0  0  0  0
  150.7427  143.5028  157.0241 H   0  0  0  0  0  0  0  0  0  0  0  0
  152.3311  141.5087  157.4958 H   0  0  0  0  0  0  0  0  0  0  0  0
  151.0538  140.8143  158.4361 H   0  0  0  0  0  0  0  0  0  0  0  0
  151.3772  140.2935  155.7747 H   0  0  0  0  0  0  0  0  0  0  0  0
  149.3655  142.5978  155.8647 H   0  0  0  0  0  0  0  0  0  0  0  0
  150.8955  142.5849  155.0104 H   0  0  0  0  0  0  0  0  0  0  0  0
  147.5972  141.1528  155.0520 H   0  0  0  0  0  0  0  0  0  0  0  0
  147.9114  140.1635  153.6374 H   0  0  0  0  0  0  0  0  0  0  0  0
  147.9820  138.7920  155.7427 H   0  0  0  0  0  0  0  0  0  0  0  0
  149.5160  138.7579  154.8877 H   0  0  0  0  0  0  0  0  0  0  0  0
  152.4859  137.6370  158.8386 H   0  0  0  0  0  0  0  0  0  0  0  0
  146.1155  136.7121  159.0410 H   0  0  0  0  0  0  0  0  0  0  0  0
  147.8447  134.3950  159.7948 H   0  0  0  0  0  0  0  0  0  0  0  0
  149.1989  135.0551  160.6733 H   0  0  0  0  0  0  0  0  0  0  0  0
  147.5831  136.4381  163.2466 H   0  0  0  0  0  0  0  0  0  0  0  0
  147.9693  133.5002  162.2406 H   0  0  0  0  0  0  0  0  0  0  0  0
  147.4209  134.5392  163.5454 H   0  0  0  0  0  0  0  0  0  0  0  0
  145.7037  133.0786  161.5223 H   0  0  0  0  0  0  0  0  0  0  0  0
  145.4744  133.2045  163.2732 H   0  0  0  0  0  0  0  0  0  0  0  0
  145.5740  135.2484  160.2536 H   0  0  0  0  0  0  0  0  0  0  0  0
  145.7994  137.7510  160.4826 H   0  0  0  0  0  0  0  0  0  0  0  0
  145.3370  137.6230  162.1809 H   0  0  0  0  0  0  0  0  0  0  0  0
  144.1994  137.1701  160.9201 H   0  0  0  0  0  0  0  0  0  0  0  0
  1  2  1  0  0  0  0
  1 28  1  0  0  0  0
  1 29  1  0  0  0  0
  1 30  1  0  0  0  0
  2  3  1  0  0  0  0
  3  4  1  0  0  0  0
  3 31  1  0  0  0  0
  3 32  1  0  0  0  0
  4  5  1  0  0  0  0
  4 33  1  0  0  0  0
  4 34  1  0  0  0  0
  5 10  1  0  0  0  0
  5  6  1  0  0  0  0
  5 35  1  0  0  0  0
  6  7  1  0  0  0  0
  6 36  1  0  0  0  0
  6 37  1  0  0  0  0
  7  8  1  0  0  0  0
  8  9  1  0  0  0  0
  8 38  1  0  0  0  0
  8 39  1  0  0  0  0
  9 10  1  0  0  0  0
  9 40  1  0  0  0  0
  9 41  1  0  0  0  0
 10 11  1  0  0  0  0
 11 16  1  0  0  0  0
 11 12  2  0  0  0  0
 12 13  1  0  0  0  0
 13 14  2  0  0  0  0
 13 42  1  0  0  0  0
 14 15  1  0  0  0  0
 15 19  1  0  0  0  0
 15 16  2  0  0  0  0
 16 17  1  0  0  0  0
 17 18  2  0  0  0  0
 18 19  1  0  0  0  0
 18 43  1  0  0  0  0
 19 20  1  0  0  0  0
 20 21  1  0  0  0  0
 20 44  1  0  0  0  0
 20 45  1  0  0  0  0
 21 26  1  0  0  0  0
 21 22  1  0  0  0  0
 21 23  1  0  0  0  0
 22 46  1  0  0  0  0
 23 24  1  0  0  0  0
 23 47  1  0  0  0  0
 23 48  1  0  0  0  0
 24 25  1  0  0  0  0
 24 49  1  0  0  0  0
 24 50  1  0  0  0  0
 25 26  1  0  0  0  0
 26 27  1  0  0  0  0
 26 51  1  0  0  0  0
 27 52  1  0  0  0  0
 27 53  1  0  0  0  0
 27 54  1  0  0  0  0
M  END
> <s_m_source_file>
AV-unprocessed.smi

> <i_m_source_file_index>
197

> <i_lp_mmshare_version>
43012

> <i_f3d_flags>
0

> <s_epik_input>
W0NIM11PW0NIMl1bQ0gyXVtDQEBIXTFbQ0gyXU9bQ0gyXVtDSDJdTjFjKG5bY0hdbjIpYyhjMjMpbltjSF1uM1tDSDJdW0NAQF00KFtPSF0pW0NIMl1bQ0gyXU9bQ0BIXTRbQ0gzXQ==

> <s_epik_cmdline>
J2VwaWtfcHl0aG9uJywgJy1waCcsICc3LjAnLCAnLXRuJywgJzgnLCAnLW1hJywgJzIwMCcsICctbWV0YWxfYmluZGluZycsICctaW1hZScsICc8aW5maWxlLm1hZT4nLCAnLW9tYWUnLCAnPG91dGZpbGUubWFlPic=

> <r_lp_tautomer_probability>
1

> <r_epik_Ionization_Penalty>
0.000106218

> <r_epik_Ionization_Penalty_Charging>
0

> <r_epik_Ionization_Penalty_Neutral>
0.000106218

> <r_epik_State_Penalty>
-0

> <r_epik_Charging_Adjusted_Penalty>
0

> <i_epik_Tot_Q>
0

> <i_epik_Tot_abs_Q>
0

> <r_epik_Metal_State_Penalty>
-0

> <b_epik_Metal_Only>
0

> <s_lp_Force_Field>
OPLS_2005

> <r_lp_Energy>
42.2513

> <b_lp_Chiralities_Consistent>
1

> <s_lp_Variant>
AV-unprocessed.smi:197-3

> <Gold.Version>
5.8.1

> <Gold.Id.Protein>
6NUR|6NUR_protein|mol2

> <Gold.PLP.Fitness>
48.1291

> <Gold.PLP.PLP>
-41.6866

> <Gold.PLP.part.hbond>
-4.0000

> <Gold.PLP.part.metal>
0.0000

> <Gold.PLP.part.buried>
-3.9116

> <Gold.PLP.part.nonpolar>
-31.4116

> <Gold.PLP.part.repulsive>
0.2086

> <Gold.PLP.ligand.clash>
0.0000

> <Gold.PLP.ligand.torsion>
0.8684

> <Gold.PLP.Chemscore.Hbond>
2.6373

> <Gold.PLP.Chemscore.CHOScore>
0.0000

> <Gold.PLP.Chemscore.Metal>
0.0000

> <Gold.Chemscore.Hbonds>
donor molecule, donor type, donor heavy atom, donor atom, acceptor molecule, acceptor atom, score
      P1  H  6896  6908       L1    14  1.00
      P1  H  6931  6943       L1    22  0.78
      P1  H  7989  7998       L1     7  0.04
      P1  H  8011  8017       L1     7  0.44

> <Gold.PLP.Chemscore.Internal.Correction>
0.2674

> <Gold.Rescore>
     Score         DG    S(hbond)    S(metal)    S(lipo)     H(rot)  DE(clash)    DE(int)     intcor
     13.15     -16.20       2.07        0.00      94.46       2.84       0.07       2.98       ----

> <Gold.Chemscore.Fitness>
13.1462

> <Gold.Chemscore.DG>
-16.1980

> <Gold.Chemscore.ZeroCoef>
-5.4800

> <Gold.Chemscore.Hbond>
2.0734

> <Gold.Chemscore.Metal>
0.0000

> <Gold.Chemscore.Lipo>
94.4641

> <Gold.Chemscore.Internal_Hbond>
0.0000

> <Gold.Chemscore.DEClash>
0.0678

> <Gold.Chemscore.DEInternal>
2.9840

> <Gold.Chemscore.Rot>
2.8358

> <Gold.Chemscore.Internal.Correction>
   9.000000E+99

> <Gold.Chemscore.Hbonds>
donor molecule, donor type, donor heavy atom, donor atom, acceptor molecule, acceptor atom, score
      P1  H  6896  6908       L1    14  0.74
      P1  H  6931  6943       L1    22  0.69
      P1  H  8011  8017       L1     7  0.40

> <Gold.Chemscore.Hbond.Weighted>
-6.9253

> <Gold.Chemscore.Metal.Weighted>
-0.0000

> <Gold.Chemscore.Lipo.Weighted>
-11.0523

> <Gold.Chemscore.Internal_Hbond.Weighted>
0.0000

> <Gold.Chemscore.DEClash.Weighted>
0.0678

> <Gold.Chemscore.DEInternal.Weighted>
2.9840

> <Gold.Chemscore.Rot.Weighted>
7.2596

> <Gold.Chemscore.Internal.Correction.Weighted>
   9.000000E+99

> <Gold.Protein.RotatedTorsions>
[ 6907 6896 6895 6894 ] final -161.96 input  -60.11 | X-H torsion
[ 7974 7965 7964 7962 ] final  -31.12 input  175.53 | X-H torsion
[ 8008 7997 7996 7995 ] final  130.51 input   59.86 | X-H torsion
[ 10167 10162 10161 10158 ] final   64.16 input  -65.29 | X-H torsion
[ 10718 10713 10712 10709 ] final -115.49 input   66.30 | X-H torsion
[ 10763 10752 10751 10750 ] final  -80.84 input  -60.55 | X-H torsion
[ 11005 11000 10999 10996 ] final   14.69 input  -57.11 | X-H torsion

> <Gold.Protein.ActiveResidues>
 VAL166  LYS551  ARG553  GLY616  TRP617  ASP618  TYR619  PRO620  LYS621  CYS622 
 ASP623  PHE694  ASN695  SER759  ASP760  ASP761  ALA762  ILE779  LEU786  VAL792 
 PHE793  MET794  SER795  GLU796  ALA797  LYS798  CYS799  TRP800  GLU811  SER814 

> <Gold.Protein.RotatedAtoms>
  151.3728  133.3848  159.2701 H   0  0  0  0  0  0  0  0  0  0  0  0  # atno 6907 bound_to 6896
  150.9638  134.9022  159.7757 H   0  0  0  0  0  0  0  0  0  0  0  0  # atno 6908 bound_to 6896
  152.5159  134.3688  159.9363 H   0  0  0  0  0  0  0  0  0  0  0  0  # atno 6909 bound_to 6896
  146.1091  140.5627  142.8786 H   0  0  0  0  0  0  0  0  0  0  0  0  # atno 7974 bound_to 7965
  156.2955  140.2594  156.2773 H   0  0  0  0  0  0  0  0  0  0  0  0  # atno 8008 bound_to 7997
  154.9636  140.0392  157.2220 H   0  0  0  0  0  0  0  0  0  0  0  0  # atno 8009 bound_to 7997
  154.7924  140.2814  155.5986 H   0  0  0  0  0  0  0  0  0  0  0  0  # atno 8010 bound_to 7997
  140.1251  144.4695  150.6897 H   0  0  0  0  0  0  0  0  0  0  0  0  # atno 10167 bound_to 10162
  156.0899  130.6084  150.8913 H   0  0  0  0  0  0  0  0  0  0  0  0  # atno 10718 bound_to 10713
  154.5562  135.5647  153.6966 H   0  0  0  0  0  0  0  0  0  0  0  0  # atno 10763 bound_to 10752
  153.0004  135.6263  154.2307 H   0  0  0  0  0  0  0  0  0  0  0  0  # atno 10764 bound_to 10752
  154.2243  135.2868  155.2893 H   0  0  0  0  0  0  0  0  0  0  0  0  # atno 10765 bound_to 10752
  140.4666  134.1073  155.7725 H   0  0  0  0  0  0  0  0  0  0  0  0  # atno 11005 bound_to 11000
  144.7496  140.5157  143.6811 LP  0  0  0  0  0  0  0  0  0  0  0  0  # atno 17320 bound_to 7965
  145.5700  139.1483  143.3294 LP  0  0  0  0  0  0  0  0  0  0  0  0  # atno 17321 bound_to 7965
  140.6849  143.2345  151.5286 LP  0  0  0  0  0  0  0  0  0  0  0  0  # atno 17342 bound_to 10162
  139.5548  144.2303  152.1593 LP  0  0  0  0  0  0  0  0  0  0  0  0  # atno 17343 bound_to 10162
  157.6045  131.0939  150.8903 LP  0  0  0  0  0  0  0  0  0  0  0  0  # atno 17370 bound_to 10713
  156.9054  130.5261  149.5281 LP  0  0  0  0  0  0  0  0  0  0  0  0  # atno 17371 bound_to 10713
  141.1596  133.8817  157.1883 LP  0  0  0  0  0  0  0  0  0  0  0  0  # atno 17394 bound_to 11000
  139.9911  135.0064  156.9977 LP  0  0  0  0  0  0  0  0  0  0  0  0  # atno 17395 bound_to 11000

$$$$
