AV-unprocessed.smi:2078|AV-procd|sdf|8466|dock1
  -GOLD-   2272011163D 1   1.00000     0.00000
 Structure written by MMmdl.
 42 43  0  0  0  0  0  0  0  0  2 V2000
  136.4144  140.1066  154.4765 C   0  0  0  0  0  0  0  0  0  0  0  0
  137.8977  139.9631  154.4962 C   0  0  0  0  0  0  0  0  0  0  0  0
  138.7820  139.3351  153.6649 C   0  0  0  0  0  0  0  0  0  0  0  0
  140.0365  139.5942  154.2782 C   0  0  0  0  0  0  0  0  0  0  0  0
  141.2396  139.1018  153.7113 N   0  0  0  0  0  0  0  0  0  0  0  0
  141.5833  137.8184  153.5082 C   0  0  0  0  0  0  0  0  0  0  0  0
  140.8874  136.8425  153.7906 O   0  0  0  0  0  0  0  0  0  0  0  0
  142.7996  137.7194  152.9523 N   0  0  0  0  0  0  0  0  0  0  0  0
  143.4518  136.4656  152.5923 C   0  0  0  0  0  0  0  0  0  0  0  0
  143.2226  135.3789  153.6610 C   0  0  0  0  0  0  0  0  0  0  0  0
  143.8630  134.0880  153.3034 N   0  3  2  0  0  0  0  0  0  0  0  0
  145.2977  134.0487  153.6883 C   0  0  0  0  0  0  0  0  0  0  0  0
  145.9030  132.6584  153.4366 C   0  0  0  0  0  0  0  0  0  0  0  0
  145.7171  132.2332  151.9748 C   0  0  0  0  0  0  0  0  0  0  0  0
  144.2317  132.3056  151.5833 C   0  0  2  0  0  0  0  0  0  0  0  0
  144.0188  131.9106  150.1151 C   0  0  0  0  0  0  0  0  0  0  0  0
  143.6704  133.7115  151.8769 C   0  0  0  0  0  0  0  0  0  0  0  0
  139.9284  140.3158  155.3831 N   0  0  0  0  0  0  0  0  0  0  0  0
  138.5569  140.5550  155.5291 O   0  0  0  0  0  0  0  0  0  0  0  0
  136.0198  139.9251  153.4765 H   0  0  0  0  0  0  0  0  0  0  0  0
  136.1166  141.1108  154.7793 H   0  0  0  0  0  0  0  0  0  0  0  0
  135.9493  139.3946  155.1587 H   0  0  0  0  0  0  0  0  0  0  0  0
  138.5625  138.7802  152.7648 H   0  0  0  0  0  0  0  0  0  0  0  0
  141.9083  139.8027  153.4284 H   0  0  0  0  0  0  0  0  0  0  0  0
  143.3035  138.5714  152.7522 H   0  0  0  0  0  0  0  0  0  0  0  0
  143.0933  136.1265  151.6189 H   0  0  0  0  0  0  0  0  0  0  0  0
  144.5133  136.6793  152.4746 H   0  0  0  0  0  0  0  0  0  0  0  0
  143.5786  135.7118  154.6372 H   0  0  0  0  0  0  0  0  0  0  0  0
  142.1480  135.2218  153.7644 H   0  0  0  0  0  0  0  0  0  0  0  0
  145.8472  134.8072  153.1283 H   0  0  0  0  0  0  0  0  0  0  0  0
  145.4037  134.2953  154.7455 H   0  0  0  0  0  0  0  0  0  0  0  0
  146.9634  132.6622  153.6905 H   0  0  0  0  0  0  0  0  0  0  0  0
  145.4304  131.9278  154.0945 H   0  0  0  0  0  0  0  0  0  0  0  0
  146.3062  132.8835  151.3261 H   0  0  0  0  0  0  0  0  0  0  0  0
  146.0983  131.2214  151.8316 H   0  0  0  0  0  0  0  0  0  0  0  0
  143.6844  131.5894  152.1984 H   0  0  0  0  0  0  0  0  0  0  0  0
  144.5459  132.5873  149.4417 H   0  0  0  0  0  0  0  0  0  0  0  0
  142.9614  131.9348  149.8502 H   0  0  0  0  0  0  0  0  0  0  0  0
  144.3826  130.9007  149.9237 H   0  0  0  0  0  0  0  0  0  0  0  0
  142.6104  133.7258  151.6258 H   0  0  0  0  0  0  0  0  0  0  0  0
  144.1543  134.4521  151.2376 H   0  0  0  0  0  0  0  0  0  0  0  0
  143.4056  133.3803  153.8606 H   0  0  0  0  0  0  0  0  0  0  0  0
  1  2  1  0  0  0  0
  1 20  1  0  0  0  0
  1 21  1  0  0  0  0
  1 22  1  0  0  0  0
  2 19  1  0  0  0  0
  2  3  2  0  0  0  0
  3  4  1  0  0  0  0
  3 23  1  0  0  0  0
  4  5  1  0  0  0  0
  4 18  2  0  0  0  0
  5  6  1  0  0  0  0
  5 24  1  0  0  0  0
  6  7  2  0  0  0  0
  6  8  1  0  0  0  0
  8  9  1  0  0  0  0
  8 25  1  0  0  0  0
  9 10  1  0  0  0  0
  9 26  1  0  0  0  0
  9 27  1  0  0  0  0
 10 11  1  0  0  0  0
 10 28  1  0  0  0  0
 10 29  1  0  0  0  0
 11 17  1  0  0  0  0
 11 12  1  0  0  0  0
 11 42  1  0  0  0  0
 12 13  1  0  0  0  0
 12 30  1  0  0  0  0
 12 31  1  0  0  0  0
 13 14  1  0  0  0  0
 13 32  1  0  0  0  0
 13 33  1  0  0  0  0
 14 15  1  0  0  0  0
 14 34  1  0  0  0  0
 14 35  1  0  0  0  0
 15 16  1  0  0  0  0
 15 17  1  0  0  0  0
 15 36  1  0  0  0  0
 16 37  1  0  0  0  0
 16 38  1  0  0  0  0
 16 39  1  0  0  0  0
 17 40  1  0  0  0  0
 17 41  1  0  0  0  0
 18 19  1  0  0  0  0
M  CHG  1  11   1
M  END
> <s_m_source_file>
AV-unprocessed.smi

> <i_m_source_file_index>
2078

> <i_lp_mmshare_version>
43012

> <i_f3d_flags>
0

> <s_epik_input>
W0NIM11jMVtjSF1jKG5vMSlbTkhdQyg9TylbTkhdW0NIMl1bQ0gyXU4yW0NIMl1bQ0gyXVtDSDJdW0NAQEhdKFtDSDNdKVtDSDJdMg==

> <s_epik_cmdline>
J2VwaWtfcHl0aG9uJywgJy1waCcsICc3LjAnLCAnLXRuJywgJzgnLCAnLW1hJywgJzIwMCcsICctbWV0YWxfYmluZGluZycsICctaW1hZScsICc8aW5maWxlLm1hZT4nLCAnLW9tYWUnLCAnPG91dGZpbGUubWFlPic=

> <r_epik_Ionization_Penalty>
0.00216453

> <r_epik_Ionization_Penalty_Charging>
0.00212879

> <r_epik_Ionization_Penalty_Neutral>
3.57418e-05

> <r_epik_State_Penalty>
0.00146033

> <r_epik_Charging_Adjusted_Penalty>
0.00358912

> <i_epik_Tot_Q>
1

> <i_epik_Tot_abs_Q>
1

> <r_epik_Metal_State_Penalty>
0.0215827

> <b_epik_Metal_Only>
0

> <s_lp_Force_Field>
OPLS_2005

> <r_lp_Energy>
12.7075

> <b_lp_Chiralities_Consistent>
1

> <s_lp_Variant>
AV-unprocessed.smi:2078-4

> <Gold.Version>
5.8.1

> <Gold.Id.Protein>
6NUR|6NUR_protein|mol2

> <Gold.PLP.Fitness>
39.7880

> <Gold.PLP.PLP>
-29.6460

> <Gold.PLP.part.hbond>
-4.0325

> <Gold.PLP.part.metal>
0.0000

> <Gold.PLP.part.buried>
-4.9896

> <Gold.PLP.part.nonpolar>
-22.4977

> <Gold.PLP.part.repulsive>
0.2647

> <Gold.PLP.ligand.clash>
0.0000

> <Gold.PLP.ligand.torsion>
0.9109

> <Gold.PLP.Chemscore.Hbond>
3.9825

> <Gold.PLP.Chemscore.CHOScore>
0.0000

> <Gold.PLP.Chemscore.Metal>
0.0000

> <Gold.Chemscore.Hbonds>
donor molecule, donor type, donor heavy atom, donor atom, acceptor molecule, acceptor atom, score
      L1  H     5    24       P1 10175  1.00
      L1  H     8    25       P1 10175  1.00
      L1  H    11    42       P1 10957  2.00

> <Gold.PLP.Chemscore.Internal.Correction>
0.0164

> <Gold.Rescore>
     Score         DG    S(hbond)    S(metal)    S(lipo)     H(rot)  DE(clash)    DE(int)     intcor
     15.74     -18.09       2.76        0.00      63.47       1.57       0.09       2.26       ----

> <Gold.Chemscore.Fitness>
15.7429

> <Gold.Chemscore.DG>
-18.0901

> <Gold.Chemscore.ZeroCoef>
-5.4800

> <Gold.Chemscore.Hbond>
2.7551

> <Gold.Chemscore.Metal>
0.0000

> <Gold.Chemscore.Lipo>
63.4747

> <Gold.Chemscore.Internal_Hbond>
0.0000

> <Gold.Chemscore.DEClash>
0.0910

> <Gold.Chemscore.DEInternal>
2.2563

> <Gold.Chemscore.Rot>
1.5697

> <Gold.Chemscore.Internal.Correction>
   9.000000E+99

> <Gold.Chemscore.Hbonds>
donor molecule, donor type, donor heavy atom, donor atom, acceptor molecule, acceptor atom, score
      L1  H     5    24       P1 10175  0.68
      L1  H     8    25       P1 10175  0.99
      L1  H    11    42       P1 10957  0.96

> <Gold.Chemscore.Hbond.Weighted>
-9.2020

> <Gold.Chemscore.Metal.Weighted>
-0.0000

> <Gold.Chemscore.Lipo.Weighted>
-7.4265

> <Gold.Chemscore.Internal_Hbond.Weighted>
0.0000

> <Gold.Chemscore.DEClash.Weighted>
0.0910

> <Gold.Chemscore.DEInternal.Weighted>
2.2563

> <Gold.Chemscore.Rot.Weighted>
4.0185

> <Gold.Chemscore.Internal.Correction.Weighted>
   9.000000E+99

> <Gold.Protein.RotatedTorsions>
[ 6907 6896 6895 6894 ] final   41.09 input  -60.11 | X-H torsion
[ 7974 7965 7964 7962 ] final  -17.36 input  175.53 | X-H torsion
[ 8008 7997 7996 7995 ] final -102.17 input   59.86 | X-H torsion
[ 10167 10162 10161 10158 ] final  135.10 input  -65.29 | X-H torsion
[ 10718 10713 10712 10709 ] final   98.38 input   66.30 | X-H torsion
[ 10763 10752 10751 10750 ] final   93.68 input  -60.55 | X-H torsion
[ 11005 11000 10999 10996 ] final   34.50 input  -57.11 | X-H torsion

> <Gold.Protein.ActiveResidues>
 VAL166  LYS551  ARG553  GLY616  TRP617  ASP618  TYR619  PRO620  LYS621  CYS622 
 ASP623  PHE694  ASN695  SER759  ASP760  ASP761  ALA762  ILE779  LEU786  VAL792 
 PHE793  MET794  SER795  GLU796  ALA797  LYS798  CYS799  TRP800  GLU811  SER814 

> <Gold.Protein.RotatedAtoms>
  152.1909  134.8673  160.0517 H   0  0  0  0  0  0  0  0  0  0  0  0  # atno 6907 bound_to 6896
  151.9562  133.3676  159.4026 H   0  0  0  0  0  0  0  0  0  0  0  0  # atno 6908 bound_to 6896
  150.6935  134.4212  159.5250 H   0  0  0  0  0  0  0  0  0  0  0  0  # atno 6909 bound_to 6896
  146.1945  140.3768  142.8446 H   0  0  0  0  0  0  0  0  0  0  0  0  # atno 7974 bound_to 7965
  154.8528  140.0430  157.1615 H   0  0  0  0  0  0  0  0  0  0  0  0  # atno 8008 bound_to 7997
  154.8924  140.2988  155.5343 H   0  0  0  0  0  0  0  0  0  0  0  0  # atno 8009 bound_to 7997
  156.2996  140.2391  156.3941 H   0  0  0  0  0  0  0  0  0  0  0  0  # atno 8010 bound_to 7997
  139.5230  144.6534  151.5234 H   0  0  0  0  0  0  0  0  0  0  0  0  # atno 10167 bound_to 10162
  157.6896  131.0638  150.4787 H   0  0  0  0  0  0  0  0  0  0  0  0  # atno 10718 bound_to 10713
  153.2330  135.4317  155.0616 H   0  0  0  0  0  0  0  0  0  0  0  0  # atno 10763 bound_to 10752
  154.8306  135.3384  154.6760 H   0  0  0  0  0  0  0  0  0  0  0  0  # atno 10764 bound_to 10752
  153.7186  135.7018  153.5075 H   0  0  0  0  0  0  0  0  0  0  0  0  # atno 10765 bound_to 10752
  140.2522  134.3289  155.7886 H   0  0  0  0  0  0  0  0  0  0  0  0  # atno 11005 bound_to 11000
  144.8551  140.7059  143.6143 LP  0  0  0  0  0  0  0  0  0  0  0  0  # atno 17320 bound_to 7965
  145.3689  139.1663  143.4343 LP  0  0  0  0  0  0  0  0  0  0  0  0  # atno 17321 bound_to 7965
  140.6349  143.9003  150.6638 LP  0  0  0  0  0  0  0  0  0  0  0  0  # atno 17342 bound_to 10162
  140.2319  143.3729  152.1558 LP  0  0  0  0  0  0  0  0  0  0  0  0  # atno 17343 bound_to 10162
  156.5120  130.4141  149.6296 LP  0  0  0  0  0  0  0  0  0  0  0  0  # atno 17370 bound_to 10713
  156.3232  130.7291  151.2207 LP  0  0  0  0  0  0  0  0  0  0  0  0  # atno 17371 bound_to 10713
  141.2200  133.7360  156.9056 LP  0  0  0  0  0  0  0  0  0  0  0  0  # atno 17394 bound_to 11000
  140.1546  134.9207  157.2637 LP  0  0  0  0  0  0  0  0  0  0  0  0  # atno 17395 bound_to 11000

$$$$
