AV-unprocessed.smi:1961|AV-procd|sdf|7919|dock10
  -GOLD-   2272010 83D 1   1.00000     0.00000
 Structure written by MMmdl.
 36 37  0  0  0  0  0  0  0  0  1 V2000
  151.7167  141.1420  157.4271 C   0  0  0  0  0  0  0  0  0  0  0  0
  150.5531  141.6105  156.5413 C   0  0  0  0  0  0  0  0  0  0  0  0
  149.3567  142.1365  157.3476 C   0  0  0  0  0  0  0  0  0  0  0  0
  150.1477  140.5710  155.5427 C   0  0  0  0  0  0  0  0  0  0  0  0
  151.0259  139.9240  154.7644 N   0  0  0  0  0  0  0  0  0  0  0  0
  150.4118  139.0060  153.9243 N   0  0  0  0  0  0  0  0  0  0  0  0
  149.0830  138.9839  154.0943 C   0  0  0  0  0  0  0  0  0  0  0  0
  148.2080  138.1308  153.3710 N   0  0  0  0  0  0  0  0  0  0  0  0
  146.8633  138.1222  153.3701 C   0  0  0  0  0  0  0  0  0  0  0  0
  146.1462  138.8645  154.0413 O   0  0  0  0  0  0  0  0  0  0  0  0
  146.3864  137.1856  152.5374 N   0  0  0  0  0  0  0  0  0  0  0  0
  144.9744  136.9053  152.2964 C   0  0  0  0  0  0  0  0  0  0  0  0
  144.7834  135.7674  151.2792 C   0  0  1  0  0  0  0  0  0  0  0  0
  145.8983  134.7214  151.2582 C   0  0  0  0  0  0  0  0  0  0  0  0
  145.1779  133.5232  150.6847 C   0  0  0  0  0  0  0  0  0  0  0  0
  143.8056  133.6419  151.3410 C   0  0  0  0  0  0  0  0  0  0  0  0
  143.5992  135.0328  151.5777 O   0  0  0  0  0  0  0  0  0  0  0  0
  148.4688  140.0977  155.3038 S   0  0  0  0  0  0  0  0  0  0  0  0
  152.5794  140.8579  156.8237 H   0  0  0  0  0  0  0  0  0  0  0  0
  151.4337  140.2797  158.0316 H   0  0  0  0  0  0  0  0  0  0  0  0
  152.0348  141.9332  158.1064 H   0  0  0  0  0  0  0  0  0  0  0  0
  150.9300  142.4573  155.9663 H   0  0  0  0  0  0  0  0  0  0  0  0
  148.5871  142.5405  156.6892 H   0  0  0  0  0  0  0  0  0  0  0  0
  149.6607  142.9331  158.0272 H   0  0  0  0  0  0  0  0  0  0  0  0
  148.9029  141.3455  157.9458 H   0  0  0  0  0  0  0  0  0  0  0  0
  148.6601  137.4525  152.7761 H   0  0  0  0  0  0  0  0  0  0  0  0
  147.0506  136.6212  152.0282 H   0  0  0  0  0  0  0  0  0  0  0  0
  144.4512  136.6796  153.2272 H   0  0  0  0  0  0  0  0  0  0  0  0
  144.5207  137.8169  151.9073 H   0  0  0  0  0  0  0  0  0  0  0  0
  144.6623  136.1815  150.2768 H   0  0  0  0  0  0  0  0  0  0  0  0
  146.7607  135.0276  150.6653 H   0  0  0  0  0  0  0  0  0  0  0  0
  146.2393  134.5011  152.2710 H   0  0  0  0  0  0  0  0  0  0  0  0
  145.0880  133.6241  149.6022 H   0  0  0  0  0  0  0  0  0  0  0  0
  145.6751  132.5772  150.9009 H   0  0  0  0  0  0  0  0  0  0  0  0
  143.0126  133.2210  150.7221 H   0  0  0  0  0  0  0  0  0  0  0  0
  143.7963  133.1242  152.3007 H   0  0  0  0  0  0  0  0  0  0  0  0
  1  2  1  0  0  0  0
  1 19  1  0  0  0  0
  1 20  1  0  0  0  0
  1 21  1  0  0  0  0
  2  3  1  0  0  0  0
  2  4  1  0  0  0  0
  2 22  1  0  0  0  0
  3 23  1  0  0  0  0
  3 24  1  0  0  0  0
  3 25  1  0  0  0  0
  4 18  1  0  0  0  0
  4  5  2  0  0  0  0
  5  6  1  0  0  0  0
  6  7  2  0  0  0  0
  7  8  1  0  0  0  0
  7 18  1  0  0  0  0
  8  9  1  0  0  0  0
  8 26  1  0  0  0  0
  9 10  2  0  0  0  0
  9 11  1  0  0  0  0
 11 12  1  0  0  0  0
 11 27  1  0  0  0  0
 12 13  1  0  0  0  0
 12 28  1  0  0  0  0
 12 29  1  0  0  0  0
 13 17  1  0  0  0  0
 13 14  1  0  0  0  0
 13 30  1  0  0  0  0
 14 15  1  0  0  0  0
 14 31  1  0  0  0  0
 14 32  1  0  0  0  0
 15 16  1  0  0  0  0
 15 33  1  0  0  0  0
 15 34  1  0  0  0  0
 16 17  1  0  0  0  0
 16 35  1  0  0  0  0
 16 36  1  0  0  0  0
M  END
> <s_m_source_file>
AV-unprocessed.smi

> <i_m_source_file_index>
1961

> <i_lp_mmshare_version>
43012

> <i_f3d_flags>
0

> <s_epik_input>
W0NIM11bQ0hdKFtDSDNdKWMxbm5jKHMxKVtOSF1DKD1PKVtOSF1bQ0gyXVtDQEBIXTJbQ0gyXVtDSDJdW0NIMl1PMg==

> <s_epik_cmdline>
J2VwaWtfcHl0aG9uJywgJy1waCcsICc3LjAnLCAnLXRuJywgJzgnLCAnLW1hJywgJzIwMCcsICctbWV0YWxfYmluZGluZycsICctaW1hZScsICc8aW5maWxlLm1hZT4nLCAnLW9tYWUnLCAnPG91dGZpbGUubWFlPic=

> <r_lp_tautomer_probability>
1

> <r_epik_Ionization_Penalty>
0.000505257

> <r_epik_Ionization_Penalty_Charging>
0

> <r_epik_Ionization_Penalty_Neutral>
0.000505257

> <r_epik_State_Penalty>
-0

> <r_epik_Charging_Adjusted_Penalty>
0

> <i_epik_Tot_Q>
0

> <i_epik_Tot_abs_Q>
0

> <r_epik_Metal_State_Penalty>
0.219912

> <b_epik_Metal_Only>
0

> <s_lp_Force_Field>
OPLS_2005

> <r_lp_Energy>
10.2881

> <b_lp_Chiralities_Consistent>
1

> <s_lp_Variant>
AV-unprocessed.smi:1961-2

> <Gold.Version>
5.8.1

> <Gold.Id.Protein>
6NUR|6NUR_protein|mol2

> <Gold.PLP.Fitness>
32.9322

> <Gold.PLP.PLP>
-26.0273

> <Gold.PLP.part.hbond>
-3.6509

> <Gold.PLP.part.metal>
0.0000

> <Gold.PLP.part.buried>
-4.4150

> <Gold.PLP.part.nonpolar>
-19.1062

> <Gold.PLP.part.repulsive>
1.1736

> <Gold.PLP.ligand.clash>
0.0000

> <Gold.PLP.ligand.torsion>
0.5370

> <Gold.PLP.Chemscore.Hbond>
2.6300

> <Gold.PLP.Chemscore.CHOScore>
0.0000

> <Gold.PLP.Chemscore.Metal>
0.0000

> <Gold.Chemscore.Hbonds>
donor molecule, donor type, donor heavy atom, donor atom, acceptor molecule, acceptor atom, score
      L1  H     8    26       P1  7948  1.00
      L1  H    11    27       P1  7948  0.88
      P1  H  7989  7998       L1     5  0.70

> <Gold.PLP.Chemscore.Internal.Correction>
0.0888

> <Gold.Rescore>
     Score         DG    S(hbond)    S(metal)    S(lipo)     H(rot)  DE(clash)    DE(int)     intcor
     12.86     -14.70       1.93        0.00      55.45       1.45       0.11       1.73       ----

> <Gold.Chemscore.Fitness>
12.8592

> <Gold.Chemscore.DG>
-14.7039

> <Gold.Chemscore.ZeroCoef>
-5.4800

> <Gold.Chemscore.Hbond>
1.9277

> <Gold.Chemscore.Metal>
0.0000

> <Gold.Chemscore.Lipo>
55.4479

> <Gold.Chemscore.Internal_Hbond>
0.0000

> <Gold.Chemscore.DEClash>
0.1128

> <Gold.Chemscore.DEInternal>
1.7319

> <Gold.Chemscore.Rot>
1.4461

> <Gold.Chemscore.Internal.Correction>
   9.000000E+99

> <Gold.Chemscore.Hbonds>
donor molecule, donor type, donor heavy atom, donor atom, acceptor molecule, acceptor atom, score
      L1  H     8    26       P1  7948  0.93
      L1  H    11    27       P1  7948  0.86
      P1  H  7989  7998       L1     5  0.06

> <Gold.Chemscore.Hbond.Weighted>
-6.4384

> <Gold.Chemscore.Metal.Weighted>
-0.0000

> <Gold.Chemscore.Lipo.Weighted>
-6.4874

> <Gold.Chemscore.Internal_Hbond.Weighted>
0.0000

> <Gold.Chemscore.DEClash.Weighted>
0.1128

> <Gold.Chemscore.DEInternal.Weighted>
1.7319

> <Gold.Chemscore.Rot.Weighted>
3.7019

> <Gold.Chemscore.Internal.Correction.Weighted>
   9.000000E+99

> <Gold.Protein.RotatedTorsions>
[ 6907 6896 6895 6894 ] final  -19.87 input  -60.11 | X-H torsion
[ 7974 7965 7964 7962 ] final  -28.70 input  175.53 | X-H torsion
[ 8008 7997 7996 7995 ] final   19.92 input   59.86 | X-H torsion
[ 10167 10162 10161 10158 ] final  123.05 input  -65.29 | X-H torsion
[ 10718 10713 10712 10709 ] final   93.93 input   66.30 | X-H torsion
[ 10763 10752 10751 10750 ] final  -86.64 input  -60.55 | X-H torsion
[ 11005 11000 10999 10996 ] final   16.80 input  -57.11 | X-H torsion

> <Gold.Protein.ActiveResidues>
 VAL166  LYS551  ARG553  GLY616  TRP617  ASP618  TYR619  PRO620  LYS621  CYS622 
 ASP623  PHE694  ASN695  SER759  ASP760  ASP761  ALA762  ILE779  LEU786  VAL792 
 PHE793  MET794  SER795  GLU796  ALA797  LYS798  CYS799  TRP800  GLU811  SER814 

> <Gold.Protein.RotatedAtoms>
  151.2567  135.0640  159.9082 H   0  0  0  0  0  0  0  0  0  0  0  0  # atno 6907 bound_to 6896
  152.5372  134.0275  159.8020 H   0  0  0  0  0  0  0  0  0  0  0  0  # atno 6908 bound_to 6896
  151.0491  133.5590  159.2675 H   0  0  0  0  0  0  0  0  0  0  0  0  # atno 6909 bound_to 6896
  146.1269  140.5317  142.8710 H   0  0  0  0  0  0  0  0  0  0  0  0  # atno 7974 bound_to 7965
  154.9280  140.3036  155.5182 H   0  0  0  0  0  0  0  0  0  0  0  0  # atno 8008 bound_to 7997
  156.3005  140.2359  156.4273 H   0  0  0  0  0  0  0  0  0  0  0  0  # atno 8009 bound_to 7997
  154.8266  140.0420  157.1436 H   0  0  0  0  0  0  0  0  0  0  0  0  # atno 8010 bound_to 7997
  139.5822  144.6991  151.3499 H   0  0  0  0  0  0  0  0  0  0  0  0  # atno 10167 bound_to 10162
  157.6951  131.0495  150.4108 H   0  0  0  0  0  0  0  0  0  0  0  0  # atno 10718 bound_to 10713
  154.6247  135.5442  153.7613 H   0  0  0  0  0  0  0  0  0  0  0  0  # atno 10763 bound_to 10752
  153.0255  135.6421  154.1389 H   0  0  0  0  0  0  0  0  0  0  0  0  # atno 10764 bound_to 10752
  154.1322  135.2913  155.3162 H   0  0  0  0  0  0  0  0  0  0  0  0  # atno 10765 bound_to 10752
  140.4431  134.1301  155.7693 H   0  0  0  0  0  0  0  0  0  0  0  0  # atno 11005 bound_to 11000
  144.7652  140.5513  143.6708 LP  0  0  0  0  0  0  0  0  0  0  0  0  # atno 17320 bound_to 7965
  145.5345  139.1475  143.3481 LP  0  0  0  0  0  0  0  0  0  0  0  0  # atno 17321 bound_to 7965
  140.7099  143.7417  150.7548 LP  0  0  0  0  0  0  0  0  0  0  0  0  # atno 17342 bound_to 10162
  140.0953  143.4839  152.2456 LP  0  0  0  0  0  0  0  0  0  0  0  0  # atno 17343 bound_to 10162
  156.4493  130.4008  149.6646 LP  0  0  0  0  0  0  0  0  0  0  0  0  # atno 17370 bound_to 10713
  156.3802  130.7575  151.2567 LP  0  0  0  0  0  0  0  0  0  0  0  0  # atno 17371 bound_to 10713
  141.1697  133.8633  157.1608 LP  0  0  0  0  0  0  0  0  0  0  0  0  # atno 17394 bound_to 11000
  140.0057  135.0009  157.0286 LP  0  0  0  0  0  0  0  0  0  0  0  0  # atno 17395 bound_to 11000

$$$$
