AV-unprocessed.smi:1362|AV-procd|sdf|5562|dock6
  -GOLD-   22720 5153D 1   1.00000     0.00000
 Structure written by MMmdl.
 38 38  0  0  0  0  0  0  0  0  2 V2000
  150.9886  142.6915  157.4299 C   0  0  0  0  0  0  0  0  0  0  0  0
  150.9535  141.4730  156.5326 C   0  0  0  0  0  0  0  0  0  0  0  0
  149.9141  141.2499  155.8221 N   0  0  0  0  0  0  0  0  0  0  0  0
  149.8760  140.1189  154.9890 C   0  0  0  0  0  0  0  0  0  0  0  0
  148.6023  139.9294  154.1838 C   0  0  0  0  0  0  0  0  0  0  0  0
  150.9289  139.2546  154.9239 C   0  0  0  0  0  0  0  0  0  0  0  0
  150.9343  138.0082  154.0380 C   0  0  0  0  0  0  0  0  0  0  0  0
  150.8358  136.6607  154.7581 C   0  0  0  0  0  0  0  0  0  0  0  0
  151.5803  136.3930  155.7017 O   0  0  0  0  0  0  0  0  0  0  0  0
  149.9044  135.8153  154.2908 N   0  0  0  0  0  0  0  0  0  0  0  0
  149.6244  134.4797  154.8165 C   0  0  2  0  0  0  0  0  0  0  0  0
  150.9611  133.7770  155.1234 C   0  0  0  0  0  0  0  0  0  0  0  0
  148.7302  133.6914  153.8228 C   0  0  0  0  0  0  0  0  0  0  0  0
  147.2862  134.2297  153.7827 C   0  0  0  0  0  0  0  0  0  0  0  0
  148.7055  132.1820  154.1246 C   0  0  0  0  0  0  0  0  0  0  0  0
  152.1105  139.5512  155.7532 C   0  0  0  0  0  0  0  0  0  0  0  0
  153.0940  138.8124  155.7196 O   0  0  0  0  0  0  0  0  0  0  0  0
  152.0669  140.6629  156.5417 N   0  5  0  0  0  0  0  0  0  0  0  0
  150.1544  143.3608  157.2157 H   0  0  0  0  0  0  0  0  0  0  0  0
  151.9158  143.2467  157.2836 H   0  0  0  0  0  0  0  0  0  0  0  0
  150.9269  142.3897  158.4756 H   0  0  0  0  0  0  0  0  0  0  0  0
  148.0829  139.0252  154.5013 H   0  0  0  0  0  0  0  0  0  0  0  0
  148.8279  139.8465  153.1205 H   0  0  0  0  0  0  0  0  0  0  0  0
  147.9217  140.7714  154.3156 H   0  0  0  0  0  0  0  0  0  0  0  0
  150.1368  138.0625  153.2965 H   0  0  0  0  0  0  0  0  0  0  0  0
  151.8544  138.0082  153.4534 H   0  0  0  0  0  0  0  0  0  0  0  0
  149.3405  136.1227  153.5119 H   0  0  0  0  0  0  0  0  0  0  0  0
  149.0714  134.5818  155.7523 H   0  0  0  0  0  0  0  0  0  0  0  0
  150.8111  132.8273  155.6357 H   0  0  0  0  0  0  0  0  0  0  0  0
  151.5871  134.3880  155.7747 H   0  0  0  0  0  0  0  0  0  0  0  0
  151.5258  133.5822  154.2112 H   0  0  0  0  0  0  0  0  0  0  0  0
  149.1477  133.8147  152.8224 H   0  0  0  0  0  0  0  0  0  0  0  0
  146.8177  134.1764  154.7659 H   0  0  0  0  0  0  0  0  0  0  0  0
  146.6706  133.6528  153.0919 H   0  0  0  0  0  0  0  0  0  0  0  0
  147.2459  135.2671  153.4510 H   0  0  0  0  0  0  0  0  0  0  0  0
  148.3605  131.9860  155.1404 H   0  0  0  0  0  0  0  0  0  0  0  0
  149.6896  131.7289  154.0101 H   0  0  0  0  0  0  0  0  0  0  0  0
  148.0373  131.6568  153.4417 H   0  0  0  0  0  0  0  0  0  0  0  0
  1  2  1  0  0  0  0
  1 19  1  0  0  0  0
  1 20  1  0  0  0  0
  1 21  1  0  0  0  0
  2 18  1  0  0  0  0
  2  3  2  0  0  0  0
  3  4  1  0  0  0  0
  4  5  1  0  0  0  0
  4  6  2  0  0  0  0
  5 22  1  0  0  0  0
  5 23  1  0  0  0  0
  5 24  1  0  0  0  0
  6  7  1  0  0  0  0
  6 16  1  0  0  0  0
  7  8  1  0  0  0  0
  7 25  1  0  0  0  0
  7 26  1  0  0  0  0
  8  9  2  0  0  0  0
  8 10  1  0  0  0  0
 10 11  1  0  0  0  0
 10 27  1  0  0  0  0
 11 12  1  0  0  0  0
 11 13  1  0  0  0  0
 11 28  1  0  0  0  0
 12 29  1  0  0  0  0
 12 30  1  0  0  0  0
 12 31  1  0  0  0  0
 13 14  1  0  0  0  0
 13 15  1  0  0  0  0
 13 32  1  0  0  0  0
 14 33  1  0  0  0  0
 14 34  1  0  0  0  0
 14 35  1  0  0  0  0
 15 36  1  0  0  0  0
 15 37  1  0  0  0  0
 15 38  1  0  0  0  0
 16 17  2  0  0  0  0
 16 18  1  0  0  0  0
M  CHG  1  18  -1
M  END
> <s_m_source_file>
AV-unprocessed.smi

> <i_m_source_file_index>
1362

> <i_lp_mmshare_version>
43012

> <i_f3d_flags>
0

> <s_epik_input>
W0NIM11jMW5jKFtDSDNdKWMoYyg9TylbbkhdMSlbQ0gyXUMoPU8pW05IXVtDQEhdKFtDSDNdKVtDSF0oW0NIM10pW0NIM10=

> <s_epik_cmdline>
J2VwaWtfcHl0aG9uJywgJy1waCcsICc3LjAnLCAnLXRuJywgJzgnLCAnLW1hJywgJzIwMCcsICctbWV0YWxfYmluZGluZycsICctaW1hZScsICc8aW5maWxlLm1hZT4nLCAnLW9tYWUnLCAnPG91dGZpbGUubWFlPic=

> <r_lp_tautomer_probability>
0.839158

> <r_epik_Ionization_Penalty>
6.62204

> <r_epik_Ionization_Penalty_Charging>
7.30593e-08

> <r_epik_Ionization_Penalty_Neutral>
6.62204

> <r_epik_State_Penalty>
4.44062

> <r_epik_Charging_Adjusted_Penalty>
4.44062

> <i_epik_Tot_Q>
-1

> <i_epik_Tot_abs_Q>
1

> <r_epik_Metal_State_Penalty>
0.802984

> <b_epik_Metal_Only>
1

> <s_lp_Force_Field>
OPLS_2005

> <r_lp_Energy>
10.6651

> <b_lp_Chiralities_Consistent>
1

> <s_lp_Variant>
AV-unprocessed.smi:1362-5

> <Gold.Version>
5.8.1

> <Gold.Id.Protein>
6NUR|6NUR_protein|mol2

> <Gold.PLP.Fitness>
37.5332

> <Gold.PLP.PLP>
-30.4363

> <Gold.PLP.part.hbond>
-3.6935

> <Gold.PLP.part.metal>
0.0000

> <Gold.PLP.part.buried>
-0.8824

> <Gold.PLP.part.nonpolar>
-25.7263

> <Gold.PLP.part.repulsive>
0.1754

> <Gold.PLP.ligand.clash>
0.0104

> <Gold.PLP.ligand.torsion>
0.6112

> <Gold.PLP.Chemscore.Hbond>
2.7670

> <Gold.PLP.Chemscore.CHOScore>
0.0000

> <Gold.PLP.Chemscore.Metal>
0.0000

> <Gold.Chemscore.Hbonds>
donor molecule, donor type, donor heavy atom, donor atom, acceptor molecule, acceptor atom, score
      L1  H    10    27       P1  7948  1.00
      P1  H  7997  8009       L1    17  0.85
      P1  H 10752 10763       L1     9  1.00

> <Gold.PLP.Chemscore.Internal.Correction>
0.0286

> <Gold.Rescore>
     Score         DG    S(hbond)    S(metal)    S(lipo)     H(rot)  DE(clash)    DE(int)     intcor
     10.97     -14.41       1.84        0.00      59.64       1.64       0.08       3.37       ----

> <Gold.Chemscore.Fitness>
10.9683

> <Gold.Chemscore.DG>
-14.4118

> <Gold.Chemscore.ZeroCoef>
-5.4800

> <Gold.Chemscore.Hbond>
1.8444

> <Gold.Chemscore.Metal>
0.0000

> <Gold.Chemscore.Lipo>
59.6442

> <Gold.Chemscore.Internal_Hbond>
0.0000

> <Gold.Chemscore.DEClash>
0.0774

> <Gold.Chemscore.DEInternal>
3.3660

> <Gold.Chemscore.Rot>
1.6433

> <Gold.Chemscore.Internal.Correction>
   9.000000E+99

> <Gold.Chemscore.Hbonds>
donor molecule, donor type, donor heavy atom, donor atom, acceptor molecule, acceptor atom, score
      L1  H    10    27       P1  7948  0.72
      P1  H  7997  8009       L1    17  0.14
      P1  H 10752 10763       L1     9  0.35

> <Gold.Chemscore.Hbond.Weighted>
-6.1603

> <Gold.Chemscore.Metal.Weighted>
-0.0000

> <Gold.Chemscore.Lipo.Weighted>
-6.9784

> <Gold.Chemscore.Internal_Hbond.Weighted>
0.0000

> <Gold.Chemscore.DEClash.Weighted>
0.0774

> <Gold.Chemscore.DEInternal.Weighted>
3.3660

> <Gold.Chemscore.Rot.Weighted>
4.2069

> <Gold.Chemscore.Internal.Correction.Weighted>
   9.000000E+99

> <Gold.Protein.RotatedTorsions>
[ 6907 6896 6895 6894 ] final   99.79 input  -60.11 | X-H torsion
[ 7974 7965 7964 7962 ] final   75.53 input  175.53 | X-H torsion
[ 8008 7997 7996 7995 ] final -164.88 input   59.86 | X-H torsion
[ 10167 10162 10161 10158 ] final -174.27 input  -65.29 | X-H torsion
[ 10718 10713 10712 10709 ] final   75.29 input   66.30 | X-H torsion
[ 10763 10752 10751 10750 ] final   74.49 input  -60.55 | X-H torsion
[ 11005 11000 10999 10996 ] final  -53.75 input  -57.11 | X-H torsion

> <Gold.Protein.ActiveResidues>
 VAL166  LYS551  ARG553  GLY616  TRP617  ASP618  TYR619  PRO620  LYS621  CYS622 
 ASP623  PHE694  ASN695  SER759  ASP760  ASP761  ALA762  ILE779  LEU786  VAL792 
 PHE793  MET794  SER795  GLU796  ALA797  LYS798  CYS799  TRP800  GLU811  SER814 

> <Gold.Protein.RotatedAtoms>
  152.5385  134.0376  159.8052 H   0  0  0  0  0  0  0  0  0  0  0  0  # atno 6907 bound_to 6896
  151.0537  133.5595  159.2647 H   0  0  0  0  0  0  0  0  0  0  0  0  # atno 6908 bound_to 6896
  151.2520  135.0633  159.9119 H   0  0  0  0  0  0  0  0  0  0  0  0  # atno 6909 bound_to 6896
  145.7145  139.2626  143.1632 H   0  0  0  0  0  0  0  0  0  0  0  0  # atno 7974 bound_to 7965
  155.8420  140.0950  157.1729 H   0  0  0  0  0  0  0  0  0  0  0  0  # atno 8008 bound_to 7997
  154.3982  140.1399  156.3801 H   0  0  0  0  0  0  0  0  0  0  0  0  # atno 8009 bound_to 7997
  155.8054  140.3451  155.5429 H   0  0  0  0  0  0  0  0  0  0  0  0  # atno 8010 bound_to 7997
  139.5643  144.1794  152.1287 H   0  0  0  0  0  0  0  0  0  0  0  0  # atno 10167 bound_to 10162
  157.6628  130.9719  150.1332 H   0  0  0  0  0  0  0  0  0  0  0  0  # atno 10718 bound_to 10713
  153.0590  135.5024  154.8050 H   0  0  0  0  0  0  0  0  0  0  0  0  # atno 10763 bound_to 10752
  154.6853  135.2975  154.9558 H   0  0  0  0  0  0  0  0  0  0  0  0  # atno 10764 bound_to 10752
  154.0331  135.6727  153.4835 H   0  0  0  0  0  0  0  0  0  0  0  0  # atno 10765 bound_to 10752
  141.0991  133.6620  156.4218 H   0  0  0  0  0  0  0  0  0  0  0  0  # atno 11005 bound_to 11000
  146.0683  140.7897  142.9701 LP  0  0  0  0  0  0  0  0  0  0  0  0  # atno 17320 bound_to 7965
  144.6933  140.3302  143.7217 LP  0  0  0  0  0  0  0  0  0  0  0  0  # atno 17321 bound_to 7965
  140.1314  144.5285  150.6800 LP  0  0  0  0  0  0  0  0  0  0  0  0  # atno 17342 bound_to 10162
  140.6925  143.2384  151.5092 LP  0  0  0  0  0  0  0  0  0  0  0  0  # atno 17343 bound_to 10162
  156.2173  130.3671  149.8597 LP  0  0  0  0  0  0  0  0  0  0  0  0  # atno 17370 bound_to 10713
  156.6460  130.8724  151.3522 LP  0  0  0  0  0  0  0  0  0  0  0  0  # atno 17371 bound_to 10713
  140.5066  134.6435  157.5268 LP  0  0  0  0  0  0  0  0  0  0  0  0  # atno 17394 bound_to 11000
  139.9837  134.7096  155.9812 LP  0  0  0  0  0  0  0  0  0  0  0  0  # atno 17395 bound_to 11000

$$$$
