AV-unprocessed.smi:604|AV-procd|sdf|3038|dock10
  -GOLD-   2262023553D 1   1.00000     0.00000
 Structure written by MMmdl.
 49 51  0  0  0  0  0  0  0  0  2 V2000
  152.4424  139.9667  156.0750 O   0  0  0  0  0  0  0  0  0  0  0  0
  151.3378  140.3852  156.4205 C   0  0  0  0  0  0  0  0  0  0  0  0
  151.0713  141.0166  157.5767 N   0  0  0  0  0  0  0  0  0  0  0  0
  151.9680  141.3479  158.6286 C   0  0  0  0  0  0  0  0  0  0  0  0
  151.9018  142.5426  159.3862 C   0  0  0  0  0  0  0  0  0  0  0  0
  152.8404  142.7471  160.4160 C   0  0  0  0  0  0  0  0  0  0  0  0
  153.8049  141.7495  160.6558 C   0  0  0  0  0  0  0  0  0  0  0  0
  153.8709  140.6000  159.9515 N   0  0  0  0  0  0  0  0  0  0  0  0
  152.9669  140.4100  158.9669 C   0  0  0  0  0  0  0  0  0  0  0  0
  150.2293  140.2382  155.6802 N   0  0  0  0  0  0  0  0  0  0  0  0
  150.1664  139.5783  154.3760 C   0  0  2  0  0  0  0  0  0  0  0  0
  148.7222  139.1558  154.0536 C   0  0  0  0  0  0  0  0  0  0  0  0
  148.2572  137.9663  154.9154 C   0  0  0  0  0  0  0  0  0  0  0  0
  149.1880  136.8140  154.7952 N   0  3  2  0  0  0  0  0  0  0  0  0
  148.6989  135.5999  155.4996 C   0  0  0  0  0  0  0  0  0  0  0  0
  149.5188  134.3470  155.1338 C   0  0  0  0  0  0  0  0  0  0  0  0
  148.9511  133.5887  153.9307 C   0  0  0  0  0  0  0  0  0  0  0  0
  149.5676  132.1884  154.0106 C   0  0  0  0  0  0  0  0  0  0  0  0
  149.9560  131.9753  155.4807 C   0  0  0  0  0  0  0  0  0  0  0  0
  149.5761  133.2644  156.2167 C   0  0  0  0  0  0  0  0  0  0  0  0
  150.5727  137.1922  155.1809 C   0  0  0  0  0  0  0  0  0  0  0  0
  151.0927  138.3476  154.3088 C   0  0  0  0  0  0  0  0  0  0  0  0
  150.1009  141.2303  157.7545 H   0  0  0  0  0  0  0  0  0  0  0  0
  151.1484  143.2941  159.2102 H   0  0  0  0  0  0  0  0  0  0  0  0
  152.8184  143.6476  161.0121 H   0  0  0  0  0  0  0  0  0  0  0  0
  154.5388  141.8753  161.4381 H   0  0  0  0  0  0  0  0  0  0  0  0
  153.0485  139.4780  158.4266 H   0  0  0  0  0  0  0  0  0  0  0  0
  149.3664  140.6168  156.0427 H   0  0  0  0  0  0  0  0  0  0  0  0
  150.4840  140.3002  153.6212 H   0  0  0  0  0  0  0  0  0  0  0  0
  148.0432  140.0001  154.1809 H   0  0  0  0  0  0  0  0  0  0  0  0
  148.6601  138.8754  153.0013 H   0  0  0  0  0  0  0  0  0  0  0  0
  148.1757  138.2627  155.9624 H   0  0  0  0  0  0  0  0  0  0  0  0
  147.2594  137.6658  154.5926 H   0  0  0  0  0  0  0  0  0  0  0  0
  148.6787  135.7589  156.5791 H   0  0  0  0  0  0  0  0  0  0  0  0
  147.6636  135.4071  155.2137 H   0  0  0  0  0  0  0  0  0  0  0  0
  150.5391  134.6468  154.8874 H   0  0  0  0  0  0  0  0  0  0  0  0
  147.8664  133.5107  154.0195 H   0  0  0  0  0  0  0  0  0  0  0  0
  149.1683  134.0833  152.9833 H   0  0  0  0  0  0  0  0  0  0  0  0
  148.8730  131.4263  153.6561 H   0  0  0  0  0  0  0  0  0  0  0  0
  150.4583  132.1338  153.3837 H   0  0  0  0  0  0  0  0  0  0  0  0
  149.4539  131.1099  155.9137 H   0  0  0  0  0  0  0  0  0  0  0  0
  151.0298  131.8001  155.5566 H   0  0  0  0  0  0  0  0  0  0  0  0
  150.2830  133.5035  157.0118 H   0  0  0  0  0  0  0  0  0  0  0  0
  148.5920  133.1415  156.6718 H   0  0  0  0  0  0  0  0  0  0  0  0
  150.5951  137.4757  156.2343 H   0  0  0  0  0  0  0  0  0  0  0  0
  151.2415  136.3394  155.0762 H   0  0  0  0  0  0  0  0  0  0  0  0
  151.1619  138.0080  153.2745 H   0  0  0  0  0  0  0  0  0  0  0  0
  152.1087  138.6115  154.6047 H   0  0  0  0  0  0  0  0  0  0  0  0
  149.2107  136.5776  153.8132 H   0  0  0  0  0  0  0  0  0  0  0  0
  1  2  2  0  0  0  0
  2  3  1  0  0  0  0
  2 10  1  0  0  0  0
  3  4  1  0  0  0  0
  3 23  1  0  0  0  0
  4  9  1  0  0  0  0
  4  5  2  0  0  0  0
  5  6  1  0  0  0  0
  5 24  1  0  0  0  0
  6  7  2  0  0  0  0
  6 25  1  0  0  0  0
  7  8  1  0  0  0  0
  7 26  1  0  0  0  0
  8  9  2  0  0  0  0
  9 27  1  0  0  0  0
 10 11  1  0  0  0  0
 10 28  1  0  0  0  0
 11 22  1  0  0  0  0
 11 12  1  0  0  0  0
 11 29  1  0  0  0  0
 12 13  1  0  0  0  0
 12 30  1  0  0  0  0
 12 31  1  0  0  0  0
 13 14  1  0  0  0  0
 13 32  1  0  0  0  0
 13 33  1  0  0  0  0
 14 15  1  0  0  0  0
 14 21  1  0  0  0  0
 14 49  1  0  0  0  0
 15 16  1  0  0  0  0
 15 34  1  0  0  0  0
 15 35  1  0  0  0  0
 16 20  1  0  0  0  0
 16 17  1  0  0  0  0
 16 36  1  0  0  0  0
 17 18  1  0  0  0  0
 17 37  1  0  0  0  0
 17 38  1  0  0  0  0
 18 19  1  0  0  0  0
 18 39  1  0  0  0  0
 18 40  1  0  0  0  0
 19 20  1  0  0  0  0
 19 41  1  0  0  0  0
 19 42  1  0  0  0  0
 20 43  1  0  0  0  0
 20 44  1  0  0  0  0
 21 22  1  0  0  0  0
 21 45  1  0  0  0  0
 21 46  1  0  0  0  0
 22 47  1  0  0  0  0
 22 48  1  0  0  0  0
M  CHG  1  14   1
M  END
> <s_m_source_file>
AV-unprocessed.smi

> <i_m_source_file_index>
604

> <i_lp_mmshare_version>
43012

> <i_f3d_flags>
0

> <s_epik_input>
W2NIXTFuW2NIXVtjSF1bY0hdYzFbTkhdQyg9TylbTkhdW0NIXTJbQ0gyXVtDSDJdTihbQ0gyXVtDSDJdMilbQ0gyXVtDSF0zW0NIMl1bQ0gyXVtDSDJdW0NIMl0z

> <s_epik_cmdline>
J2VwaWtfcHl0aG9uJywgJy1waCcsICc3LjAnLCAnLXRuJywgJzgnLCAnLW1hJywgJzIwMCcsICctbWV0YWxfYmluZGluZycsICctaW1hZScsICc8aW5maWxlLm1hZT4nLCAnLW9tYWUnLCAnPG91dGZpbGUubWFlPic=

> <r_lp_tautomer_probability>
1

> <r_epik_Ionization_Penalty>
0.00608112

> <r_epik_Ionization_Penalty_Charging>
0.00207989

> <r_epik_Ionization_Penalty_Neutral>
0.00400122

> <r_epik_State_Penalty>
-0

> <r_epik_Charging_Adjusted_Penalty>
0.00207989

> <i_epik_Tot_Q>
1

> <i_epik_Tot_abs_Q>
1

> <r_epik_Metal_State_Penalty>
-0

> <b_epik_Metal_Only>
0

> <s_lp_Force_Field>
OPLS_2005

> <r_lp_Energy>
40.9588

> <b_lp_Chiralities_Consistent>
1

> <s_lp_Variant>
AV-unprocessed.smi:604-2

> <Gold.Version>
5.8.1

> <Gold.Id.Protein>
6NUR|6NUR_protein|mol2

> <Gold.PLP.Fitness>
47.0952

> <Gold.PLP.PLP>
-40.0407

> <Gold.PLP.part.hbond>
-2.0000

> <Gold.PLP.part.metal>
0.0000

> <Gold.PLP.part.buried>
-3.4345

> <Gold.PLP.part.nonpolar>
-34.3191

> <Gold.PLP.part.repulsive>
0.1338

> <Gold.PLP.ligand.clash>
0.0000

> <Gold.PLP.ligand.torsion>
0.9846

> <Gold.PLP.Chemscore.Hbond>
3.0000

> <Gold.PLP.Chemscore.CHOScore>
0.0000

> <Gold.PLP.Chemscore.Metal>
0.0000

> <Gold.Chemscore.Hbonds>
donor molecule, donor type, donor heavy atom, donor atom, acceptor molecule, acceptor atom, score
      L1  H    14    49       P1  7948  2.00
      P1  H  7997  8008       L1     1  1.00

> <Gold.PLP.Chemscore.Internal.Correction>
0.0237

> <Gold.Rescore>
     Score         DG    S(hbond)    S(metal)    S(lipo)     H(rot)  DE(clash)    DE(int)     intcor
     17.46     -20.83       1.95        0.00     104.98       1.35       0.15       3.22       ----

> <Gold.Chemscore.Fitness>
17.4571

> <Gold.Chemscore.DG>
-20.8326

> <Gold.Chemscore.ZeroCoef>
-5.4800

> <Gold.Chemscore.Hbond>
1.9504

> <Gold.Chemscore.Metal>
0.0000

> <Gold.Chemscore.Lipo>
104.9807

> <Gold.Chemscore.Internal_Hbond>
0.0000

> <Gold.Chemscore.DEClash>
0.1514

> <Gold.Chemscore.DEInternal>
3.2241

> <Gold.Chemscore.Rot>
1.3455

> <Gold.Chemscore.Internal.Correction>
   9.000000E+99

> <Gold.Chemscore.Hbonds>
donor molecule, donor type, donor heavy atom, donor atom, acceptor molecule, acceptor atom, score
      L1  H    14    49       P1  7948  0.95
      P1  H  7997  8008       L1     1  0.99

> <Gold.Chemscore.Hbond.Weighted>
-6.5143

> <Gold.Chemscore.Metal.Weighted>
-0.0000

> <Gold.Chemscore.Lipo.Weighted>
-12.2827

> <Gold.Chemscore.Internal_Hbond.Weighted>
0.0000

> <Gold.Chemscore.DEClash.Weighted>
0.1514

> <Gold.Chemscore.DEInternal.Weighted>
3.2241

> <Gold.Chemscore.Rot.Weighted>
3.4445

> <Gold.Chemscore.Internal.Correction.Weighted>
   9.000000E+99

> <Gold.Protein.RotatedTorsions>
[ 6907 6896 6895 6894 ] final -165.71 input  -60.11 | X-H torsion
[ 7974 7965 7964 7962 ] final  156.77 input  175.53 | X-H torsion
[ 8008 7997 7996 7995 ] final  -43.83 input   59.86 | X-H torsion
[ 10167 10162 10161 10158 ] final  -84.33 input  -65.29 | X-H torsion
[ 10718 10713 10712 10709 ] final  127.55 input   66.30 | X-H torsion
[ 10763 10752 10751 10750 ] final  152.98 input  -60.55 | X-H torsion
[ 11005 11000 10999 10996 ] final  -67.83 input  -57.11 | X-H torsion

> <Gold.Protein.ActiveResidues>
 VAL166  LYS551  ARG553  GLY616  TRP617  ASP618  TYR619  PRO620  LYS621  CYS622 
 ASP623  PHE694  ASN695  SER759  ASP760  ASP761  ALA762  ILE779  LEU786  VAL792 
 PHE793  MET794  SER795  GLU796  ALA797  LYS798  CYS799  TRP800  GLU811  SER814 

> <Gold.Protein.RotatedAtoms>
  151.4320  133.3667  159.2769 H   0  0  0  0  0  0  0  0  0  0  0  0  # atno 6907 bound_to 6896
  150.9218  134.8637  159.7505 H   0  0  0  0  0  0  0  0  0  0  0  0  # atno 6908 bound_to 6896
  152.4985  134.4258  159.9548 H   0  0  0  0  0  0  0  0  0  0  0  0  # atno 6909 bound_to 6896
  144.7943  139.7249  143.6208 H   0  0  0  0  0  0  0  0  0  0  0  0  # atno 7974 bound_to 7965
  154.3997  140.1437  156.3584 H   0  0  0  0  0  0  0  0  0  0  0  0  # atno 8008 bound_to 7997
  155.8204  140.3469  155.5490 H   0  0  0  0  0  0  0  0  0  0  0  0  # atno 8009 bound_to 7997
  155.8294  140.0910  157.1792 H   0  0  0  0  0  0  0  0  0  0  0  0  # atno 8010 bound_to 7997
  140.4142  143.2610  151.8977 H   0  0  0  0  0  0  0  0  0  0  0  0  # atno 10167 bound_to 10162
  157.5323  131.1098  150.8989 H   0  0  0  0  0  0  0  0  0  0  0  0  # atno 10718 bound_to 10713
  154.1288  135.2828  155.3190 H   0  0  0  0  0  0  0  0  0  0  0  0  # atno 10763 bound_to 10752
  154.6370  135.5415  153.7749 H   0  0  0  0  0  0  0  0  0  0  0  0  # atno 10764 bound_to 10752
  153.0288  135.6477  154.1439 H   0  0  0  0  0  0  0  0  0  0  0  0  # atno 10765 bound_to 10752
  141.1517  133.6727  156.6352 H   0  0  0  0  0  0  0  0  0  0  0  0  # atno 11005 bound_to 11000
  146.2206  139.5628  142.9621 LP  0  0  0  0  0  0  0  0  0  0  0  0  # atno 17320 bound_to 7965
  145.5714  141.0393  143.2172 LP  0  0  0  0  0  0  0  0  0  0  0  0  # atno 17321 bound_to 7965
  139.4782  144.5505  151.8393 LP  0  0  0  0  0  0  0  0  0  0  0  0  # atno 17342 bound_to 10162
  140.4604  144.1729  150.5906 LP  0  0  0  0  0  0  0  0  0  0  0  0  # atno 17343 bound_to 10162
  156.9567  130.5440  149.5284 LP  0  0  0  0  0  0  0  0  0  0  0  0  # atno 17370 bound_to 10713
  156.0432  130.5512  150.8820 LP  0  0  0  0  0  0  0  0  0  0  0  0  # atno 17371 bound_to 10713
  140.3436  134.7828  157.4415 LP  0  0  0  0  0  0  0  0  0  0  0  0  # atno 17394 bound_to 11000
  140.0918  134.5591  155.8437 LP  0  0  0  0  0  0  0  0  0  0  0  0  # atno 17395 bound_to 11000

$$$$
