AV-unprocessed.smi:283|AV-procd|sdf|2139|dock1
  -GOLD-   2262021463D 1   1.00000     0.00000
 Structure written by MMmdl.
 48 51  0  0  0  0  0  0  0  0  1 V2000
  152.9698  139.1163  159.2866 C   0  0  0  0  0  0  0  0  0  0  0  0
  151.7164  139.9177  158.8906 C   0  0  2  0  0  0  0  0  0  0  0  0
  151.2088  139.4944  157.5858 N   0  0  0  0  0  0  0  0  0  0  0  0
  150.0934  138.7408  157.4654 C   0  0  0  0  0  0  0  0  0  0  0  0
  149.6108  138.0180  158.5099 N   0  0  0  0  0  0  0  0  0  0  0  0
  148.5013  137.2882  158.3627 C   0  0  0  0  0  0  0  0  0  0  0  0
  147.7343  137.1463  157.2798 N   0  0  0  0  0  0  0  0  0  0  0  0
  148.2119  137.8735  156.2276 C   0  0  0  0  0  0  0  0  0  0  0  0
  149.3764  138.6908  156.2421 C   0  0  0  0  0  0  0  0  0  0  0  0
  149.5523  139.2822  154.9977 N   0  0  0  0  0  0  0  0  0  0  0  0
  148.5463  138.8393  154.2923 C   0  0  0  0  0  0  0  0  0  0  0  0
  147.6889  137.9891  154.9544 N   0  0  0  0  0  0  0  0  0  0  0  0
  146.4587  137.3327  154.4102 C   0  0  1  0  0  0  0  0  0  0  0  0
  146.2864  137.7090  153.0837 O   0  0  0  0  0  0  0  0  0  0  0  0
  145.5747  136.6862  152.3950 C   0  0  1  0  0  0  0  0  0  0  0  0
  146.1758  136.5211  150.9875 C   0  0  0  0  0  0  0  0  0  0  0  0
  146.6918  137.7383  150.4902 O   0  0  0  0  0  0  0  0  0  0  0  0
  145.5954  135.4268  153.2885 C   0  0  2  0  0  0  0  0  0  0  0  0
  144.2942  135.1842  153.7889 O   0  0  0  0  0  0  0  0  0  0  0  0
  146.5249  135.7990  154.4373 C   0  0  1  0  0  0  0  0  0  0  0  0
  147.8268  135.2840  154.2262 O   0  0  0  0  0  0  0  0  0  0  0  0
  152.0155  141.4152  158.9464 C   0  0  0  0  0  0  0  0  0  0  0  0
  152.6055  141.9754  160.1042 C   0  0  0  0  0  0  0  0  0  0  0  0
  152.8832  143.3536  160.1745 C   0  0  0  0  0  0  0  0  0  0  0  0
  152.5675  144.1904  159.0893 C   0  0  0  0  0  0  0  0  0  0  0  0
  151.9685  143.6475  157.9379 C   0  0  0  0  0  0  0  0  0  0  0  0
  151.6875  142.2684  157.8618 C   0  0  0  0  0  0  0  0  0  0  0  0
  150.9346  141.6630  156.4275 Cl  0  0  0  0  0  0  0  0  0  0  0  0
  145.6344  137.7268  155.0064 H   0  0  0  0  0  0  0  0  0  0  0  0
  144.5511  137.0472  152.2794 H   0  0  0  0  0  0  0  0  0  0  0  0
  145.9239  134.5304  152.7606 H   0  0  0  0  0  0  0  0  0  0  0  0
  146.1746  135.4356  155.4044 H   0  0  0  0  0  0  0  0  0  0  0  0
  153.3171  139.4011  160.2802 H   0  0  0  0  0  0  0  0  0  0  0  0
  153.7878  139.2914  158.5870 H   0  0  0  0  0  0  0  0  0  0  0  0
  152.7773  138.0437  159.3071 H   0  0  0  0  0  0  0  0  0  0  0  0
  150.9294  139.7142  159.6158 H   0  0  0  0  0  0  0  0  0  0  0  0
  151.7816  139.7486  156.7940 H   0  0  0  0  0  0  0  0  0  0  0  0
  148.1817  136.7411  159.2373 H   0  0  0  0  0  0  0  0  0  0  0  0
  148.3988  139.1254  153.2610 H   0  0  0  0  0  0  0  0  0  0  0  0
  146.9929  135.8000  151.0177 H   0  0  0  0  0  0  0  0  0  0  0  0
  145.4305  136.1306  150.2941 H   0  0  0  0  0  0  0  0  0  0  0  0
  145.9655  138.3013  150.2663 H   0  0  0  0  0  0  0  0  0  0  0  0
  144.1833  134.2518  153.8957 H   0  0  0  0  0  0  0  0  0  0  0  0
  148.1193  135.5535  153.3688 H   0  0  0  0  0  0  0  0  0  0  0  0
  152.8474  141.3524  160.9526 H   0  0  0  0  0  0  0  0  0  0  0  0
  153.3365  143.7687  161.0627 H   0  0  0  0  0  0  0  0  0  0  0  0
  152.7794  145.2482  159.1419 H   0  0  0  0  0  0  0  0  0  0  0  0
  151.7211  144.2944  157.1090 H   0  0  0  0  0  0  0  0  0  0  0  0
  1  2  1  0  0  0  0
  1 33  1  0  0  0  0
  1 34  1  0  0  0  0
  1 35  1  0  0  0  0
  2  3  1  0  0  0  0
  2 22  1  0  0  0  0
  2 36  1  0  0  0  0
  3  4  1  0  0  0  0
  3 37  1  0  0  0  0
  4  9  1  0  0  0  0
  4  5  2  0  0  0  0
  5  6  1  0  0  0  0
  6  7  2  0  0  0  0
  6 38  1  0  0  0  0
  7  8  1  0  0  0  0
  8 12  1  0  0  0  0
  8  9  2  0  0  0  0
  9 10  1  0  0  0  0
 10 11  2  0  0  0  0
 11 12  1  0  0  0  0
 11 39  1  0  0  0  0
 12 13  1  0  0  0  0
 13 29  1  0  0  0  0
 13 20  1  0  0  0  0
 13 14  1  0  0  0  0
 14 15  1  0  0  0  0
 15 30  1  0  0  0  0
 15 16  1  0  0  0  0
 15 18  1  0  0  0  0
 16 17  1  0  0  0  0
 16 40  1  0  0  0  0
 16 41  1  0  0  0  0
 17 42  1  0  0  0  0
 18 31  1  0  0  0  0
 18 19  1  0  0  0  0
 18 20  1  0  0  0  0
 19 43  1  0  0  0  0
 20 32  1  0  0  0  0
 20 21  1  0  0  0  0
 21 44  1  0  0  0  0
 22 27  1  0  0  0  0
 22 23  2  0  0  0  0
 23 24  1  0  0  0  0
 23 45  1  0  0  0  0
 24 25  2  0  0  0  0
 24 46  1  0  0  0  0
 25 26  1  0  0  0  0
 25 47  1  0  0  0  0
 26 27  2  0  0  0  0
 26 48  1  0  0  0  0
 27 28  1  0  0  0  0
M  END
> <s_m_source_file>
AV-unprocessed.smi

> <i_m_source_file_index>
283

> <i_lp_mmshare_version>
43012

> <i_f3d_flags>
0

> <s_epik_input>
Q2xjMVtjSF1bY0hdW2NIXVtjSF1jMVtDQEhdKFtDSDNdKVtOSF1jKG5bY0hdbjIpYyhjMjMpbltjSF1uM1tDQEBIXTRPW0NASF0oW0NIMl1bT0hdKVtDQEBIXShbT0hdKVtDQEhdNFtPSF0=

> <s_epik_cmdline>
J2VwaWtfcHl0aG9uJywgJy1waCcsICc3LjAnLCAnLXRuJywgJzgnLCAnLW1hJywgJzIwMCcsICctbWV0YWxfYmluZGluZycsICctaW1hZScsICc8aW5maWxlLm1hZT4nLCAnLW9tYWUnLCAnPG91dGZpbGUubWFlPic=

> <r_lp_tautomer_probability>
1

> <r_epik_Ionization_Penalty>
0.000266407

> <r_epik_Ionization_Penalty_Charging>
0

> <r_epik_Ionization_Penalty_Neutral>
0.000266407

> <r_epik_State_Penalty>
-0

> <r_epik_Charging_Adjusted_Penalty>
0

> <i_epik_Tot_Q>
0

> <i_epik_Tot_abs_Q>
0

> <r_epik_Metal_State_Penalty>
-0

> <b_epik_Metal_Only>
0

> <s_epik_Chemistry_Notes>
This compound contains an acetal/aminal-like group ( X-CH(R)-Y where X, Y are N, S, or O) that may be acid/base labile, releasing an aldehyde.

> <s_lp_Force_Field>
OPLS_2005

> <r_lp_Energy>
48.6958

> <b_lp_Chiralities_Consistent>
1

> <s_lp_Variant>
AV-unprocessed.smi:283-15

> <Gold.Version>
5.8.1

> <Gold.Id.Protein>
6NUR|6NUR_protein|mol2

> <Gold.PLP.Fitness>
49.6377

> <Gold.PLP.PLP>
-39.9934

> <Gold.PLP.part.hbond>
-3.2919

> <Gold.PLP.part.metal>
0.0000

> <Gold.PLP.part.buried>
-5.1865

> <Gold.PLP.part.nonpolar>
-32.7842

> <Gold.PLP.part.repulsive>
0.3662

> <Gold.PLP.ligand.clash>
1.0401

> <Gold.PLP.ligand.torsion>
0.6817

> <Gold.PLP.Chemscore.Hbond>
2.8800

> <Gold.PLP.Chemscore.CHOScore>
1.0000

> <Gold.PLP.Chemscore.Metal>
0.0000

> <Gold.Chemscore.Hbonds>
donor molecule, donor type, donor heavy atom, donor atom, acceptor molecule, acceptor atom, score
      L1  H    17    42       P1 10171  0.73
      L1  H    21    44       P1  7948  1.00
      P1  H  7954  7966       L1    17  0.99
      L1  C    11    39       P1  7957  0.87

> <Gold.PLP.Chemscore.Internal.Correction>
0.4079

> <Gold.Rescore>
     Score         DG    S(hbond)    S(metal)    S(lipo)     H(rot)  DE(clash)    DE(int)     intcor
     14.13     -16.67       2.79        0.00     105.52       4.10       0.17       2.37       ----

> <Gold.Chemscore.Fitness>
14.1279

> <Gold.Chemscore.DG>
-16.6690

> <Gold.Chemscore.ZeroCoef>
-5.4800

> <Gold.Chemscore.Hbond>
2.7936

> <Gold.Chemscore.Metal>
0.0000

> <Gold.Chemscore.Lipo>
105.5241

> <Gold.Chemscore.Internal_Hbond>
0.0000

> <Gold.Chemscore.DEClash>
0.1682

> <Gold.Chemscore.DEInternal>
2.3729

> <Gold.Chemscore.Rot>
4.0968

> <Gold.Chemscore.Internal.Correction>
   9.000000E+99

> <Gold.Chemscore.Hbonds>
donor molecule, donor type, donor heavy atom, donor atom, acceptor molecule, acceptor atom, score
      L1  H    17    42       P1 10171  0.70
      L1  H    21    44       P1  7948  1.00
      P1  H  7954  7966       L1    17  0.90

> <Gold.Chemscore.Hbond.Weighted>
-9.3306

> <Gold.Chemscore.Metal.Weighted>
-0.0000

> <Gold.Chemscore.Lipo.Weighted>
-12.3463

> <Gold.Chemscore.Internal_Hbond.Weighted>
0.0000

> <Gold.Chemscore.DEClash.Weighted>
0.1682

> <Gold.Chemscore.DEInternal.Weighted>
2.3729

> <Gold.Chemscore.Rot.Weighted>
10.4879

> <Gold.Chemscore.Internal.Correction.Weighted>
   9.000000E+99

> <Gold.Protein.RotatedTorsions>
[ 6907 6896 6895 6894 ] final  172.20 input  -60.11 | X-H torsion
[ 7974 7965 7964 7962 ] final   -2.49 input  175.53 | X-H torsion
[ 8008 7997 7996 7995 ] final   94.94 input   59.86 | X-H torsion
[ 10167 10162 10161 10158 ] final  -61.19 input  -65.29 | X-H torsion
[ 10718 10713 10712 10709 ] final  169.91 input   66.30 | X-H torsion
[ 10763 10752 10751 10750 ] final  -12.01 input  -60.55 | X-H torsion
[ 11005 11000 10999 10996 ] final  163.09 input  -57.11 | X-H torsion

> <Gold.Protein.ActiveResidues>
 VAL166  LYS551  ARG553  GLY616  TRP617  ASP618  TYR619  PRO620  LYS621  CYS622 
 ASP623  PHE694  ASN695  SER759  ASP760  ASP761  ALA762  ILE779  LEU786  VAL792 
 PHE793  MET794  SER795  GLU796  ALA797  LYS798  CYS799  TRP800  GLU811  SER814 

> <Gold.Protein.RotatedAtoms>
  151.7881  133.3356  159.3490 H   0  0  0  0  0  0  0  0  0  0  0  0  # atno 6907 bound_to 6896
  150.7401  134.5868  159.5976 H   0  0  0  0  0  0  0  0  0  0  0  0  # atno 6908 bound_to 6896
  152.3229  134.7359  160.0360 H   0  0  0  0  0  0  0  0  0  0  0  0  # atno 6909 bound_to 6896
  146.2404  140.1578  142.8333 H   0  0  0  0  0  0  0  0  0  0  0  0  # atno 7974 bound_to 7965
  156.0634  140.3293  155.7489 H   0  0  0  0  0  0  0  0  0  0  0  0  # atno 8008 bound_to 7997
  155.5418  140.0602  157.2886 H   0  0  0  0  0  0  0  0  0  0  0  0  # atno 8009 bound_to 7997
  154.4493  140.1909  156.0587 H   0  0  0  0  0  0  0  0  0  0  0  0  # atno 8010 bound_to 7997
  140.6022  143.2364  151.5903 H   0  0  0  0  0  0  0  0  0  0  0  0  # atno 10167 bound_to 10162
  157.0158  131.0217  151.2789 H   0  0  0  0  0  0  0  0  0  0  0  0  # atno 10718 bound_to 10713
  153.4922  135.7017  153.5878 H   0  0  0  0  0  0  0  0  0  0  0  0  # atno 10763 bound_to 10752
  153.4045  135.3864  155.2010 H   0  0  0  0  0  0  0  0  0  0  0  0  # atno 10764 bound_to 10752
  154.8716  135.3889  154.4384 H   0  0  0  0  0  0  0  0  0  0  0  0  # atno 10765 bound_to 10752
  140.2322  134.8115  157.3329 H   0  0  0  0  0  0  0  0  0  0  0  0  # atno 11005 bound_to 11000
  145.0114  140.8717  143.5222 LP  0  0  0  0  0  0  0  0  0  0  0  0  # atno 17320 bound_to 7965
  145.1612  139.2457  143.5390 LP  0  0  0  0  0  0  0  0  0  0  0  0  # atno 17321 bound_to 7965
  139.5299  144.2947  152.1123 LP  0  0  0  0  0  0  0  0  0  0  0  0  # atno 17342 bound_to 10162
  140.2130  144.4543  150.6377 LP  0  0  0  0  0  0  0  0  0  0  0  0  # atno 17343 bound_to 10162
  157.5286  130.8044  149.7891 LP  0  0  0  0  0  0  0  0  0  0  0  0  # atno 17370 bound_to 10713
  156.0120  130.3829  150.2235 LP  0  0  0  0  0  0  0  0  0  0  0  0  # atno 17371 bound_to 10713
  140.1738  134.4575  155.7814 LP  0  0  0  0  0  0  0  0  0  0  0  0  # atno 17394 bound_to 11000
  141.2217  133.6953  156.7753 LP  0  0  0  0  0  0  0  0  0  0  0  0  # atno 17395 bound_to 11000

$$$$
