AV-unprocessed.smi:1207|AV-procd|sdf|5054|dock8
  -GOLD-   22720 4 83D 1   1.00000     0.00000
 Structure written by MMmdl.
 52 54  0  0  0  0  0  0  0  0  2 V2000
  153.0850  142.7331  161.0418 C   0  0  0  0  0  0  0  0  0  0  0  0
  152.4102  142.4239  159.7169 C   0  0  0  0  0  0  0  0  0  0  0  0
  152.8278  141.2923  158.9807 C   0  0  0  0  0  0  0  0  0  0  0  0
  152.2245  140.9684  157.7460 C   0  0  0  0  0  0  0  0  0  0  0  0
  152.4686  139.9221  156.8729 N   0  0  0  0  0  0  0  0  0  0  0  0
  151.5850  140.1646  155.9095 C   0  0  0  0  0  0  0  0  0  0  0  0
  150.7949  141.2454  156.0552 N   0  0  0  0  0  0  0  0  0  0  0  0
  149.7603  141.7001  155.1436 C   0  0  0  0  0  0  0  0  0  0  0  0
  148.7174  140.6062  154.8439 C   0  0  1  0  0  0  0  0  0  0  0  0
  147.4974  141.2083  154.4522 O   0  0  0  0  0  0  0  0  0  0  0  0
  149.1806  139.6649  153.7178 C   0  0  0  0  0  0  0  0  0  0  0  0
  148.2750  138.4931  153.5787 N   0  3  2  0  0  0  0  0  0  0  0  0
  147.1048  138.7755  152.7162 C   0  0  0  0  0  0  0  0  0  0  0  0
  147.8808  137.8808  154.8720 C   0  0  0  0  0  0  0  0  0  0  0  0
  149.0779  137.6583  155.7619 C   0  0  0  0  0  0  0  0  0  0  0  0
  150.1123  136.6891  155.6175 C   0  0  0  0  0  0  0  0  0  0  0  0
  150.2819  135.6557  154.5404 C   0  0  0  0  0  0  0  0  0  0  0  0
  150.9988  136.7650  156.5952 N   0  0  0  0  0  0  0  0  0  0  0  0
  150.5715  137.8087  157.4212 O   0  0  0  0  0  0  0  0  0  0  0  0
  149.4295  138.3261  156.9029 C   0  0  0  0  0  0  0  0  0  0  0  0
  148.8082  139.4533  157.6557 C   0  0  0  0  0  0  0  0  0  0  0  0
  151.1848  141.8155  157.2627 C   0  0  0  0  0  0  0  0  0  0  0  0
  150.7619  142.9454  157.9850 C   0  0  0  0  0  0  0  0  0  0  0  0
  151.3736  143.2531  159.2181 C   0  0  0  0  0  0  0  0  0  0  0  0
  150.9068  144.4728  159.9926 C   0  0  0  0  0  0  0  0  0  0  0  0
  153.8792  142.0185  161.2602 H   0  0  0  0  0  0  0  0  0  0  0  0
  152.3626  142.6899  161.8572 H   0  0  0  0  0  0  0  0  0  0  0  0
  153.5279  143.7291  161.0227 H   0  0  0  0  0  0  0  0  0  0  0  0
  153.6173  140.6604  159.3604 H   0  0  0  0  0  0  0  0  0  0  0  0
  151.5047  139.5172  155.0485 H   0  0  0  0  0  0  0  0  0  0  0  0
  149.2819  142.5817  155.5723 H   0  0  0  0  0  0  0  0  0  0  0  0
  150.2394  142.0260  154.2194 H   0  0  0  0  0  0  0  0  0  0  0  0
  148.5352  140.0359  155.7552 H   0  0  0  0  0  0  0  0  0  0  0  0
  147.0226  141.4671  155.2277 H   0  0  0  0  0  0  0  0  0  0  0  0
  149.2278  140.2379  152.7919 H   0  0  0  0  0  0  0  0  0  0  0  0
  150.1989  139.3178  153.8998 H   0  0  0  0  0  0  0  0  0  0  0  0
  146.4460  139.5108  153.1801 H   0  0  0  0  0  0  0  0  0  0  0  0
  146.5289  137.8667  152.5380 H   0  0  0  0  0  0  0  0  0  0  0  0
  147.4147  139.1606  151.7448 H   0  0  0  0  0  0  0  0  0  0  0  0
  147.1319  138.5121  155.3521 H   0  0  0  0  0  0  0  0  0  0  0  0
  147.3881  136.9270  154.6787 H   0  0  0  0  0  0  0  0  0  0  0  0
  149.4043  135.0131  154.4728 H   0  0  0  0  0  0  0  0  0  0  0  0
  151.1456  135.0154  154.7247 H   0  0  0  0  0  0  0  0  0  0  0  0
  150.4233  136.1279  153.5681 H   0  0  0  0  0  0  0  0  0  0  0  0
  148.0867  139.9872  157.0372 H   0  0  0  0  0  0  0  0  0  0  0  0
  149.5655  140.1670  157.9811 H   0  0  0  0  0  0  0  0  0  0  0  0
  148.2883  139.0844  158.5400 H   0  0  0  0  0  0  0  0  0  0  0  0
  149.9711  143.5686  157.5945 H   0  0  0  0  0  0  0  0  0  0  0  0
  150.0843  144.9764  159.4838 H   0  0  0  0  0  0  0  0  0  0  0  0
  151.7214  145.1887  160.1027 H   0  0  0  0  0  0  0  0  0  0  0  0
  150.5596  144.1860  160.9854 H   0  0  0  0  0  0  0  0  0  0  0  0
  148.8151  137.7854  153.1008 H   0  0  0  0  0  0  0  0  0  0  0  0
  1  2  1  0  0  0  0
  1 26  1  0  0  0  0
  1 27  1  0  0  0  0
  1 28  1  0  0  0  0
  2 24  1  0  0  0  0
  2  3  2  0  0  0  0
  3  4  1  0  0  0  0
  3 29  1  0  0  0  0
  4 22  2  0  0  0  0
  4  5  1  0  0  0  0
  5  6  2  0  0  0  0
  6  7  1  0  0  0  0
  6 30  1  0  0  0  0
  7  8  1  0  0  0  0
  7 22  1  0  0  0  0
  8  9  1  0  0  0  0
  8 31  1  0  0  0  0
  8 32  1  0  0  0  0
  9 10  1  0  0  0  0
  9 11  1  0  0  0  0
  9 33  1  0  0  0  0
 10 34  1  0  0  0  0
 11 12  1  0  0  0  0
 11 35  1  0  0  0  0
 11 36  1  0  0  0  0
 12 13  1  0  0  0  0
 12 14  1  0  0  0  0
 12 52  1  0  0  0  0
 13 37  1  0  0  0  0
 13 38  1  0  0  0  0
 13 39  1  0  0  0  0
 14 15  1  0  0  0  0
 14 40  1  0  0  0  0
 14 41  1  0  0  0  0
 15 20  2  0  0  0  0
 15 16  1  0  0  0  0
 16 17  1  0  0  0  0
 16 18  2  0  0  0  0
 17 42  1  0  0  0  0
 17 43  1  0  0  0  0
 17 44  1  0  0  0  0
 18 19  1  0  0  0  0
 19 20  1  0  0  0  0
 20 21  1  0  0  0  0
 21 45  1  0  0  0  0
 21 46  1  0  0  0  0
 21 47  1  0  0  0  0
 22 23  1  0  0  0  0
 23 24  2  0  0  0  0
 23 48  1  0  0  0  0
 24 25  1  0  0  0  0
 25 49  1  0  0  0  0
 25 50  1  0  0  0  0
 25 51  1  0  0  0  0
M  CHG  1  12   1
M  END
> <s_m_source_file>
AV-unprocessed.smi

> <i_m_source_file_index>
1207

> <i_lp_mmshare_version>
43012

> <i_f3d_flags>
0

> <s_epik_input>
W0NIM11jKFtjSF0xKWMoW0NIM10pW2NIXWMoYzEyKW4oW2NIXW4yKVtDSDJdW0NASF0oW09IXSlbQ0gyXU4oW0NIM10pW0NIMl1jM2MoW0NIM10pbm9jM1tDSDNd

> <s_epik_cmdline>
J2VwaWtfcHl0aG9uJywgJy1waCcsICc3LjAnLCAnLXRuJywgJzgnLCAnLW1hJywgJzIwMCcsICctbWV0YWxfYmluZGluZycsICctaW1hZScsICc8aW5maWxlLm1hZT4nLCAnLW9tYWUnLCAnPG91dGZpbGUubWFlPic=

> <r_epik_Ionization_Penalty>
0.646518

> <r_epik_Ionization_Penalty_Charging>
0.559419

> <r_epik_Ionization_Penalty_Neutral>
0.0870981

> <r_epik_State_Penalty>
0.661677

> <r_epik_Charging_Adjusted_Penalty>
1.2211

> <i_epik_Tot_Q>
1

> <i_epik_Tot_abs_Q>
1

> <r_epik_Metal_State_Penalty>
0.649158

> <b_epik_Metal_Only>
0

> <s_lp_Force_Field>
OPLS_2005

> <r_lp_Energy>
8.09598

> <b_lp_Chiralities_Consistent>
1

> <s_lp_Variant>
AV-unprocessed.smi:1207-6

> <Gold.Version>
5.8.1

> <Gold.Id.Protein>
6NUR|6NUR_protein|mol2

> <Gold.PLP.Fitness>
47.4827

> <Gold.PLP.PLP>
-39.5667

> <Gold.PLP.part.hbond>
-2.2828

> <Gold.PLP.part.metal>
0.0000

> <Gold.PLP.part.buried>
0.0183

> <Gold.PLP.part.nonpolar>
-36.5379

> <Gold.PLP.part.repulsive>
0.0169

> <Gold.PLP.ligand.clash>
0.0000

> <Gold.PLP.ligand.torsion>
0.6908

> <Gold.PLP.Chemscore.Hbond>
3.0000

> <Gold.PLP.Chemscore.CHOScore>
0.0000

> <Gold.PLP.Chemscore.Metal>
0.0000

> <Gold.Chemscore.Hbonds>
donor molecule, donor type, donor heavy atom, donor atom, acceptor molecule, acceptor atom, score
      L1  H    12    52       P1  7948  2.00
      P1  H  7997  8010       L1     5  1.00

> <Gold.PLP.Chemscore.Internal.Correction>
0.2977

> <Gold.Rescore>
     Score         DG    S(hbond)    S(metal)    S(lipo)     H(rot)  DE(clash)    DE(int)     intcor
     15.10     -17.91       1.57        0.00     115.03       2.46       1.14       1.68       ----

> <Gold.Chemscore.Fitness>
15.0952

> <Gold.Chemscore.DG>
-17.9100

> <Gold.Chemscore.ZeroCoef>
-5.4800

> <Gold.Chemscore.Hbond>
1.5750

> <Gold.Chemscore.Metal>
0.0000

> <Gold.Chemscore.Lipo>
115.0283

> <Gold.Chemscore.Internal_Hbond>
0.0000

> <Gold.Chemscore.DEClash>
1.1358

> <Gold.Chemscore.DEInternal>
1.6790

> <Gold.Chemscore.Rot>
2.4565

> <Gold.Chemscore.Internal.Correction>
   9.000000E+99

> <Gold.Chemscore.Hbonds>
donor molecule, donor type, donor heavy atom, donor atom, acceptor molecule, acceptor atom, score
      L1  H    12    52       P1  7948  0.95
      P1  H  7997  8010       L1     5  0.38

> <Gold.Chemscore.Hbond.Weighted>
-5.2604

> <Gold.Chemscore.Metal.Weighted>
-0.0000

> <Gold.Chemscore.Lipo.Weighted>
-13.4583

> <Gold.Chemscore.Internal_Hbond.Weighted>
0.0000

> <Gold.Chemscore.DEClash.Weighted>
1.1358

> <Gold.Chemscore.DEInternal.Weighted>
1.6790

> <Gold.Chemscore.Rot.Weighted>
6.2887

> <Gold.Chemscore.Internal.Correction.Weighted>
   9.000000E+99

> <Gold.Protein.RotatedTorsions>
[ 6907 6896 6895 6894 ] final  -41.97 input  -60.11 | X-H torsion
[ 7974 7965 7964 7962 ] final -113.60 input  175.53 | X-H torsion
[ 8008 7997 7996 7995 ] final   71.04 input   59.86 | X-H torsion
[ 10167 10162 10161 10158 ] final  -12.24 input  -65.29 | X-H torsion
[ 10718 10713 10712 10709 ] final  101.85 input   66.30 | X-H torsion
[ 10763 10752 10751 10750 ] final   91.57 input  -60.55 | X-H torsion
[ 11005 11000 10999 10996 ] final  116.36 input  -57.11 | X-H torsion

> <Gold.Protein.ActiveResidues>
 VAL166  LYS551  ARG553  GLY616  TRP617  ASP618  TYR619  PRO620  LYS621  CYS622 
 ASP623  PHE694  ASN695  SER759  ASP760  ASP761  ALA762  ILE779  LEU786  VAL792 
 PHE793  MET794  SER795  GLU796  ALA797  LYS798  CYS799  TRP800  GLU811  SER814 

> <Gold.Protein.RotatedAtoms>
  150.9606  134.8994  159.7727 H   0  0  0  0  0  0  0  0  0  0  0  0  # atno 6907 bound_to 6896
  152.5154  134.3678  159.9317 H   0  0  0  0  0  0  0  0  0  0  0  0  # atno 6908 bound_to 6896
  151.3691  133.3821  159.2732 H   0  0  0  0  0  0  0  0  0  0  0  0  # atno 6909 bound_to 6896
  145.1301  140.8719  143.3763 H   0  0  0  0  0  0  0  0  0  0  0  0  # atno 7974 bound_to 7965
  155.7480  140.3489  155.5136 H   0  0  0  0  0  0  0  0  0  0  0  0  # atno 8008 bound_to 7997
  155.9032  140.1037  157.1356 H   0  0  0  0  0  0  0  0  0  0  0  0  # atno 8009 bound_to 7997
  154.4046  140.1282  156.4449 H   0  0  0  0  0  0  0  0  0  0  0  0  # atno 8010 bound_to 7997
  140.7157  143.5554  150.9255 H   0  0  0  0  0  0  0  0  0  0  0  0  # atno 10167 bound_to 10162
  157.6818  131.0737  150.5315 H   0  0  0  0  0  0  0  0  0  0  0  0  # atno 10718 bound_to 10713
  153.2097  135.4392  155.0365 H   0  0  0  0  0  0  0  0  0  0  0  0  # atno 10763 bound_to 10752
  154.8193  135.3330  154.7087 H   0  0  0  0  0  0  0  0  0  0  0  0  # atno 10764 bound_to 10752
  153.7526  135.6997  153.4998 H   0  0  0  0  0  0  0  0  0  0  0  0  # atno 10765 bound_to 10752
  139.9039  134.9597  156.7186 H   0  0  0  0  0  0  0  0  0  0  0  0  # atno 11005 bound_to 11000
  145.0645  139.3079  143.5863 LP  0  0  0  0  0  0  0  0  0  0  0  0  # atno 17320 bound_to 7965
  146.3514  140.0098  142.8668 LP  0  0  0  0  0  0  0  0  0  0  0  0  # atno 17321 bound_to 7965
  139.9279  143.6528  152.3083 LP  0  0  0  0  0  0  0  0  0  0  0  0  # atno 17342 bound_to 10162
  139.6968  144.7640  151.1341 LP  0  0  0  0  0  0  0  0  0  0  0  0  # atno 17343 bound_to 10162
  156.5625  130.4259  149.6056 LP  0  0  0  0  0  0  0  0  0  0  0  0  # atno 17370 bound_to 10713
  156.2809  130.7070  151.1894 LP  0  0  0  0  0  0  0  0  0  0  0  0  # atno 17371 bound_to 10713
  140.7019  133.9299  155.8029 LP  0  0  0  0  0  0  0  0  0  0  0  0  # atno 17394 bound_to 11000
  141.0365  134.0682  157.3952 LP  0  0  0  0  0  0  0  0  0  0  0  0  # atno 17395 bound_to 11000

$$$$
