AV-unprocessed.smi:995|AV-procd|sdf|4346|dock5
  -GOLD-   22720 2243D 1   1.00000     0.00000
 Structure written by MMmdl.
 37 38  0  0  0  0  0  0  0  0  1 V2000
  150.4385  136.0732  158.4378 O   0  0  0  0  0  0  0  0  0  0  0  0
  150.1150  136.0068  157.2517 C   0  0  0  0  0  0  0  0  0  0  0  0
  150.1223  137.0539  156.4050 N   0  0  0  0  0  0  0  0  0  0  0  0
  150.4289  138.4153  156.6740 C   0  0  0  0  0  0  0  0  0  0  0  0
  151.0004  139.1806  155.6375 C   0  0  0  0  0  0  0  0  0  0  0  0
  151.2976  140.5369  155.8683 C   0  0  0  0  0  0  0  0  0  0  0  0
  151.0046  141.0907  157.1301 C   0  0  0  0  0  0  0  0  0  0  0  0
  151.3005  142.4199  157.3518 O   0  0  0  0  0  0  0  0  0  0  0  0
  151.1176  142.9491  158.6626 C   0  0  0  0  0  0  0  0  0  0  0  0
  152.2826  143.8936  158.9941 C   0  0  0  0  0  0  0  0  0  0  0  0
  153.3869  143.1756  159.2036 F   0  0  0  0  0  0  0  0  0  0  0  0
  152.4700  144.7050  157.9523 F   0  0  0  0  0  0  0  0  0  0  0  0
  152.0013  144.7593  160.2326 C   0  0  0  0  0  0  0  0  0  0  0  0
  150.8076  145.3473  160.1488 F   0  0  0  0  0  0  0  0  0  0  0  0
  152.0571  144.0254  161.3441 F   0  0  0  0  0  0  0  0  0  0  0  0
  150.4403  140.3682  158.1289 N   0  0  0  0  0  0  0  0  0  0  0  0
  150.1585  139.0675  157.9019 C   0  0  0  0  0  0  0  0  0  0  0  0
  149.7217  134.6534  156.6397 C   0  0  1  0  0  0  0  0  0  0  0  0
  150.4645  134.3535  155.3167 C   0  0  0  0  0  0  0  0  0  0  0  0
  150.0754  133.0726  154.8376 O   0  0  0  0  0  0  0  0  0  0  0  0
  150.3851  132.0524  155.7763 C   0  0  0  0  0  0  0  0  0  0  0  0
  149.6369  132.3390  157.0877 C   0  0  0  0  0  0  0  0  0  0  0  0
  150.0256  133.6176  157.5719 O   0  0  0  0  0  0  0  0  0  0  0  0
  149.9237  136.8361  155.4390 H   0  0  0  0  0  0  0  0  0  0  0  0
  151.2136  138.7357  154.6765 H   0  0  0  0  0  0  0  0  0  0  0  0
  151.7418  141.1417  155.0915 H   0  0  0  0  0  0  0  0  0  0  0  0
  150.1750  143.4962  158.7199 H   0  0  0  0  0  0  0  0  0  0  0  0
  151.0792  142.1379  159.3918 H   0  0  0  0  0  0  0  0  0  0  0  0
  152.7407  145.5541  160.3349 H   0  0  0  0  0  0  0  0  0  0  0  0
  149.6862  138.5599  158.7282 H   0  0  0  0  0  0  0  0  0  0  0  0
  148.6449  134.6725  156.4621 H   0  0  0  0  0  0  0  0  0  0  0  0
  150.2139  135.0928  154.5552 H   0  0  0  0  0  0  0  0  0  0  0  0
  151.5468  134.3872  155.4541 H   0  0  0  0  0  0  0  0  0  0  0  0
  150.0811  131.0881  155.3689 H   0  0  0  0  0  0  0  0  0  0  0  0
  151.4624  132.0070  155.9440 H   0  0  0  0  0  0  0  0  0  0  0  0
  148.5567  132.3044  156.9373 H   0  0  0  0  0  0  0  0  0  0  0  0
  149.8823  131.5855  157.8362 H   0  0  0  0  0  0  0  0  0  0  0  0
  1  2  2  0  0  0  0
  2  3  1  0  0  0  0
  2 18  1  0  0  0  0
  3  4  1  0  0  0  0
  3 24  1  0  0  0  0
  4 17  1  0  0  0  0
  4  5  2  0  0  0  0
  5  6  1  0  0  0  0
  5 25  1  0  0  0  0
  6  7  2  0  0  0  0
  6 26  1  0  0  0  0
  7  8  1  0  0  0  0
  7 16  1  0  0  0  0
  8  9  1  0  0  0  0
  9 10  1  0  0  0  0
  9 27  1  0  0  0  0
  9 28  1  0  0  0  0
 10 11  1  0  0  0  0
 10 12  1  0  0  0  0
 10 13  1  0  0  0  0
 13 14  1  0  0  0  0
 13 15  1  0  0  0  0
 13 29  1  0  0  0  0
 16 17  2  0  0  0  0
 17 30  1  0  0  0  0
 18 23  1  0  0  0  0
 18 19  1  0  0  0  0
 18 31  1  0  0  0  0
 19 20  1  0  0  0  0
 19 32  1  0  0  0  0
 19 33  1  0  0  0  0
 20 21  1  0  0  0  0
 21 22  1  0  0  0  0
 21 34  1  0  0  0  0
 21 35  1  0  0  0  0
 22 23  1  0  0  0  0
 22 36  1  0  0  0  0
 22 37  1  0  0  0  0
M  END
> <s_m_source_file>
AV-unprocessed.smi

> <i_m_source_file_index>
995

> <i_lp_mmshare_version>
43012

> <i_f3d_flags>
0

> <s_epik_input>
TzFbQ0gyXVtDSDJdT1tDSDJdW0NASF0xQyg9TylbTkhdYzJbY0hdW2NIXWMobltjSF0yKU9bQ0gyXUMoRikoRilbQ0hdKEYpRg==

> <s_epik_cmdline>
J2VwaWtfcHl0aG9uJywgJy1waCcsICc3LjAnLCAnLXRuJywgJzgnLCAnLW1hJywgJzIwMCcsICctbWV0YWxfYmluZGluZycsICctaW1hZScsICc8aW5maWxlLm1hZT4nLCAnLW9tYWUnLCAnPG91dGZpbGUubWFlPic=

> <r_lp_tautomer_probability>
1

> <r_epik_Ionization_Penalty>
2.54436e-06

> <r_epik_Ionization_Penalty_Charging>
0

> <r_epik_Ionization_Penalty_Neutral>
2.54436e-06

> <r_epik_State_Penalty>
-0

> <r_epik_Charging_Adjusted_Penalty>
0

> <i_epik_Tot_Q>
0

> <i_epik_Tot_abs_Q>
0

> <r_epik_Metal_State_Penalty>
-0

> <b_epik_Metal_Only>
0

> <s_lp_Force_Field>
OPLS_2005

> <r_lp_Energy>
9.88959

> <b_lp_Chiralities_Consistent>
1

> <s_lp_Variant>
AV-unprocessed.smi:995-2

> <Gold.Version>
5.8.1

> <Gold.Id.Protein>
6NUR|6NUR_protein|mol2

> <Gold.PLP.Fitness>
45.5020

> <Gold.PLP.PLP>
-42.7864

> <Gold.PLP.part.hbond>
-2.0000

> <Gold.PLP.part.metal>
0.0000

> <Gold.PLP.part.buried>
-5.7205

> <Gold.PLP.part.nonpolar>
-35.6865

> <Gold.PLP.part.repulsive>
0.1435

> <Gold.PLP.ligand.clash>
0.0000

> <Gold.PLP.ligand.torsion>
1.0470

> <Gold.PLP.Chemscore.Hbond>
1.5520

> <Gold.PLP.Chemscore.CHOScore>
0.0000

> <Gold.PLP.Chemscore.Metal>
0.0000

> <Gold.Chemscore.Hbonds>
donor molecule, donor type, donor heavy atom, donor atom, acceptor molecule, acceptor atom, score
      P1  H  6896  6908       L1    23  0.94
      P1  H  6896  6909       L1     1  0.59

> <Gold.PLP.Chemscore.Internal.Correction>
0.1536

> <Gold.Rescore>
     Score         DG    S(hbond)    S(metal)    S(lipo)     H(rot)  DE(clash)    DE(int)     intcor
     11.45     -12.96       1.48        0.00      68.12       2.12       0.00       1.50       ----

> <Gold.Chemscore.Fitness>
11.4543

> <Gold.Chemscore.DG>
-12.9594

> <Gold.Chemscore.ZeroCoef>
-5.4800

> <Gold.Chemscore.Hbond>
1.4759

> <Gold.Chemscore.Metal>
0.0000

> <Gold.Chemscore.Lipo>
68.1175

> <Gold.Chemscore.Internal_Hbond>
0.0000

> <Gold.Chemscore.DEClash>
0.0040

> <Gold.Chemscore.DEInternal>
1.5010

> <Gold.Chemscore.Rot>
2.1172

> <Gold.Chemscore.Internal.Correction>
   9.000000E+99

> <Gold.Chemscore.Hbonds>
donor molecule, donor type, donor heavy atom, donor atom, acceptor molecule, acceptor atom, score
      P1  H  6896  6908       L1    23  0.80
      P1  H  6896  6909       L1     1  0.58

> <Gold.Chemscore.Hbond.Weighted>
-4.9296

> <Gold.Chemscore.Metal.Weighted>
-0.0000

> <Gold.Chemscore.Lipo.Weighted>
-7.9697

> <Gold.Chemscore.Internal_Hbond.Weighted>
0.0000

> <Gold.Chemscore.DEClash.Weighted>
0.0040

> <Gold.Chemscore.DEInternal.Weighted>
1.5010

> <Gold.Chemscore.Rot.Weighted>
5.4200

> <Gold.Chemscore.Internal.Correction.Weighted>
   9.000000E+99

> <Gold.Protein.RotatedTorsions>
[ 6907 6896 6895 6894 ] final  101.47 input  -60.11 | X-H torsion
[ 7974 7965 7964 7962 ] final -125.31 input  175.53 | X-H torsion
[ 8008 7997 7996 7995 ] final  -31.70 input   59.86 | X-H torsion
[ 10167 10162 10161 10158 ] final  -45.97 input  -65.29 | X-H torsion
[ 10718 10713 10712 10709 ] final  -99.42 input   66.30 | X-H torsion
[ 10763 10752 10751 10750 ] final  171.37 input  -60.55 | X-H torsion
[ 11005 11000 10999 10996 ] final  -38.74 input  -57.11 | X-H torsion

> <Gold.Protein.ActiveResidues>
 VAL166  LYS551  ARG553  GLY616  TRP617  ASP618  TYR619  PRO620  LYS621  CYS622 
 ASP623  PHE694  ASN695  SER759  ASP760  ASP761  ALA762  ILE779  LEU786  VAL792 
 PHE793  MET794  SER795  GLU796  ALA797  LYS798  CYS799  TRP800  GLU811  SER814 

> <Gold.Protein.RotatedAtoms>
  152.5348  134.0121  159.7942 H   0  0  0  0  0  0  0  0  0  0  0  0  # atno 6907 bound_to 6896
  151.0321  133.5773  159.2667 H   0  0  0  0  0  0  0  0  0  0  0  0  # atno 6908 bound_to 6896
  151.2773  135.0710  159.9210 H   0  0  0  0  0  0  0  0  0  0  0  0  # atno 6909 bound_to 6896
  144.9989  140.7802  143.4508 H   0  0  0  0  0  0  0  0  0  0  0  0  # atno 7974 bound_to 7965
  154.4204  140.1757  156.1609 H   0  0  0  0  0  0  0  0  0  0  0  0  # atno 8008 bound_to 7997
  155.9838  140.3375  155.6664 H   0  0  0  0  0  0  0  0  0  0  0  0  # atno 8009 bound_to 7997
  155.6464  140.0685  157.2592 H   0  0  0  0  0  0  0  0  0  0  0  0  # atno 8010 bound_to 7997
  140.6836  143.2853  151.3715 H   0  0  0  0  0  0  0  0  0  0  0  0  # atno 10167 bound_to 10162
  156.0134  130.5282  150.6668 H   0  0  0  0  0  0  0  0  0  0  0  0  # atno 10718 bound_to 10713
  154.4109  135.2756  155.2037 H   0  0  0  0  0  0  0  0  0  0  0  0  # atno 10763 bound_to 10752
  154.4024  135.6041  153.5908 H   0  0  0  0  0  0  0  0  0  0  0  0  # atno 10764 bound_to 10752
  152.9831  135.5929  154.4390 H   0  0  0  0  0  0  0  0  0  0  0  0  # atno 10765 bound_to 10752
  141.0050  133.6936  156.2093 H   0  0  0  0  0  0  0  0  0  0  0  0  # atno 11005 bound_to 11000
  145.2181  139.2172  143.5108 LP  0  0  0  0  0  0  0  0  0  0  0  0  # atno 17320 bound_to 7965
  146.3448  140.2033  142.8589 LP  0  0  0  0  0  0  0  0  0  0  0  0  # atno 17321 bound_to 7965
  139.6178  144.0968  152.2362 LP  0  0  0  0  0  0  0  0  0  0  0  0  # atno 17342 bound_to 10162
  140.0403  144.6013  150.7416 LP  0  0  0  0  0  0  0  0  0  0  0  0  # atno 17343 bound_to 10162
  157.4399  131.0860  151.0954 LP  0  0  0  0  0  0  0  0  0  0  0  0  # atno 17370 bound_to 10713
  157.1501  130.6180  149.5580 LP  0  0  0  0  0  0  0  0  0  0  0  0  # atno 17371 bound_to 10713
  140.6828  134.4749  157.5589 LP  0  0  0  0  0  0  0  0  0  0  0  0  # atno 17394 bound_to 11000
  139.9058  134.8452  156.1711 LP  0  0  0  0  0  0  0  0  0  0  0  0  # atno 17395 bound_to 11000

$$$$
