AV-unprocessed.smi:2481|AV-procd|sdf|9774|dock5
  -GOLD-   2272013413D 1   1.00000     0.00000
 Structure written by MMmdl.
 37 38  0  0  0  0  0  0  0  0  1 V2000
  148.2939  132.9274  152.8432 C   0  0  0  0  0  0  0  0  0  0  0  0
  149.2405  132.8273  153.9372 N   0  0  0  0  0  0  0  0  0  0  0  0
  149.6500  131.6214  154.3964 N   0  0  0  0  0  0  0  0  0  0  0  0
  150.4957  131.9510  155.3730 C   0  0  0  0  0  0  0  0  0  0  0  0
  150.6711  133.2886  155.5876 N   0  0  0  0  0  0  0  0  0  0  0  0
  149.8571  133.7715  154.6540 C   0  0  0  0  0  0  0  0  0  0  0  0
  149.6127  135.1446  154.3840 N   0  0  0  0  0  0  0  0  0  0  0  0
  149.6476  136.1734  155.2474 C   0  0  0  0  0  0  0  0  0  0  0  0
  149.9162  136.0864  156.4459 O   0  0  0  0  0  0  0  0  0  0  0  0
  149.3512  137.3286  154.6349 N   0  0  0  0  0  0  0  0  0  0  0  0
  149.2958  138.6409  155.2768 C   0  0  1  0  0  0  0  0  0  0  0  0
  150.6295  138.9046  156.0076 C   0  0  0  0  0  0  0  0  0  0  0  0
  150.6649  140.2992  156.6465 C   0  0  0  0  0  0  0  0  0  0  0  0
  150.3923  141.3859  155.5996 C   0  0  0  0  0  0  0  0  0  0  0  0
  149.0527  141.1409  154.8903 C   0  0  0  0  0  0  0  0  0  0  0  0
  148.9899  139.7444  154.2298 C   0  0  2  0  0  0  0  0  0  0  0  0
  147.6298  139.5228  153.5302 C   0  0  0  0  0  0  0  0  0  0  0  0
  147.7279  138.5142  152.5461 O   0  0  0  0  0  0  0  0  0  0  0  0
  147.4606  133.5671  153.1352 H   0  0  0  0  0  0  0  0  0  0  0  0
  147.9064  131.9422  152.5799 H   0  0  0  0  0  0  0  0  0  0  0  0
  148.7874  133.3591  151.9721 H   0  0  0  0  0  0  0  0  0  0  0  0
  151.0069  131.1974  155.9538 H   0  0  0  0  0  0  0  0  0  0  0  0
  149.3843  135.3661  153.4263 H   0  0  0  0  0  0  0  0  0  0  0  0
  149.1465  137.3021  153.6466 H   0  0  0  0  0  0  0  0  0  0  0  0
  148.4902  138.6471  156.0140 H   0  0  0  0  0  0  0  0  0  0  0  0
  150.7908  138.1496  156.7780 H   0  0  0  0  0  0  0  0  0  0  0  0
  151.4595  138.8098  155.3059 H   0  0  0  0  0  0  0  0  0  0  0  0
  149.9200  140.3584  157.4411 H   0  0  0  0  0  0  0  0  0  0  0  0
  151.6343  140.4691  157.1161 H   0  0  0  0  0  0  0  0  0  0  0  0
  150.3871  142.3671  156.0753 H   0  0  0  0  0  0  0  0  0  0  0  0
  151.1992  141.4013  154.8658 H   0  0  0  0  0  0  0  0  0  0  0  0
  148.2393  141.2439  155.6098 H   0  0  0  0  0  0  0  0  0  0  0  0
  148.9002  141.9200  154.1428 H   0  0  0  0  0  0  0  0  0  0  0  0
  149.7693  139.7007  153.4668 H   0  0  0  0  0  0  0  0  0  0  0  0
  146.8647  139.2097  154.2403 H   0  0  0  0  0  0  0  0  0  0  0  0
  147.2768  140.4455  153.0685 H   0  0  0  0  0  0  0  0  0  0  0  0
  148.3999  138.7607  151.9289 H   0  0  0  0  0  0  0  0  0  0  0  0
  1  2  1  0  0  0  0
  1 19  1  0  0  0  0
  1 20  1  0  0  0  0
  1 21  1  0  0  0  0
  2  6  1  0  0  0  0
  2  3  1  0  0  0  0
  3  4  2  0  0  0  0
  4  5  1  0  0  0  0
  4 22  1  0  0  0  0
  5  6  2  0  0  0  0
  6  7  1  0  0  0  0
  7  8  1  0  0  0  0
  7 23  1  0  0  0  0
  8  9  2  0  0  0  0
  8 10  1  0  0  0  0
 10 11  1  0  0  0  0
 10 24  1  0  0  0  0
 11 16  1  0  0  0  0
 11 12  1  0  0  0  0
 11 25  1  0  0  0  0
 12 13  1  0  0  0  0
 12 26  1  0  0  0  0
 12 27  1  0  0  0  0
 13 14  1  0  0  0  0
 13 28  1  0  0  0  0
 13 29  1  0  0  0  0
 14 15  1  0  0  0  0
 14 30  1  0  0  0  0
 14 31  1  0  0  0  0
 15 16  1  0  0  0  0
 15 32  1  0  0  0  0
 15 33  1  0  0  0  0
 16 17  1  0  0  0  0
 16 34  1  0  0  0  0
 17 18  1  0  0  0  0
 17 35  1  0  0  0  0
 17 36  1  0  0  0  0
 18 37  1  0  0  0  0
M  END
> <s_m_source_file>
AV-unprocessed.smi

> <i_m_source_file_index>
2481

> <i_lp_mmshare_version>
43012

> <i_f3d_flags>
0

> <s_epik_input>
W0NIM11uMW5bY0hdbmMxW05IXUMoPU8pW05IXVtDQEBIXTJbQ0gyXVtDSDJdW0NIMl1bQ0gyXVtDQEhdMltDSDJdW09IXQ==

> <s_epik_cmdline>
J2VwaWtfcHl0aG9uJywgJy1waCcsICc3LjAnLCAnLXRuJywgJzgnLCAnLW1hJywgJzIwMCcsICctbWV0YWxfYmluZGluZycsICctaW1hZScsICc8aW5maWxlLm1hZT4nLCAnLW9tYWUnLCAnPG91dGZpbGUubWFlPic=

> <r_lp_tautomer_probability>
1

> <r_epik_Ionization_Penalty>
2.32704e-05

> <r_epik_Ionization_Penalty_Charging>
0

> <r_epik_Ionization_Penalty_Neutral>
2.32704e-05

> <r_epik_State_Penalty>
-0

> <r_epik_Charging_Adjusted_Penalty>
0

> <i_epik_Tot_Q>
0

> <i_epik_Tot_abs_Q>
0

> <r_epik_Metal_State_Penalty>
-0

> <b_epik_Metal_Only>
0

> <s_lp_Force_Field>
OPLS_2005

> <r_lp_Energy>
12.9645

> <b_lp_Chiralities_Consistent>
1

> <s_lp_Variant>
AV-unprocessed.smi:2481-4

> <Gold.Version>
5.8.1

> <Gold.Id.Protein>
6NUR|6NUR_protein|mol2

> <Gold.PLP.Fitness>
37.0649

> <Gold.PLP.PLP>
-29.2573

> <Gold.PLP.part.hbond>
-4.0000

> <Gold.PLP.part.metal>
0.0000

> <Gold.PLP.part.buried>
-2.6025

> <Gold.PLP.part.nonpolar>
-22.4274

> <Gold.PLP.part.repulsive>
0.0916

> <Gold.PLP.ligand.clash>
0.0000

> <Gold.PLP.ligand.torsion>
0.3922

> <Gold.PLP.Chemscore.Hbond>
2.8600

> <Gold.PLP.Chemscore.CHOScore>
0.0000

> <Gold.PLP.Chemscore.Metal>
0.0000

> <Gold.Chemscore.Hbonds>
donor molecule, donor type, donor heavy atom, donor atom, acceptor molecule, acceptor atom, score
      L1  H     7    23       P1  7948  0.85
      L1  H    10    24       P1  7948  0.89
      L1  H    18    37       P1  7957  1.00

> <Gold.PLP.Chemscore.Internal.Correction>
0.0120

> <Gold.Rescore>
     Score         DG    S(hbond)    S(metal)    S(lipo)     H(rot)  DE(clash)    DE(int)     intcor
     10.59     -13.67       2.37        0.00      45.75       1.99       0.15       2.93       ----

> <Gold.Chemscore.Fitness>
10.5876

> <Gold.Chemscore.DG>
-13.6692

> <Gold.Chemscore.ZeroCoef>
-5.4800

> <Gold.Chemscore.Hbond>
2.3726

> <Gold.Chemscore.Metal>
0.0000

> <Gold.Chemscore.Lipo>
45.7549

> <Gold.Chemscore.Internal_Hbond>
0.0000

> <Gold.Chemscore.DEClash>
0.1549

> <Gold.Chemscore.DEInternal>
2.9266

> <Gold.Chemscore.Rot>
1.9877

> <Gold.Chemscore.Internal.Correction>
   9.000000E+99

> <Gold.Chemscore.Hbonds>
donor molecule, donor type, donor heavy atom, donor atom, acceptor molecule, acceptor atom, score
      L1  H     7    23       P1  7948  0.15
      L1  H    10    24       P1  7948  0.82
      L1  H    18    37       P1  7957  0.83

> <Gold.Chemscore.Hbond.Weighted>
-7.9243

> <Gold.Chemscore.Metal.Weighted>
-0.0000

> <Gold.Chemscore.Lipo.Weighted>
-5.3533

> <Gold.Chemscore.Internal_Hbond.Weighted>
0.0000

> <Gold.Chemscore.DEClash.Weighted>
0.1549

> <Gold.Chemscore.DEInternal.Weighted>
2.9266

> <Gold.Chemscore.Rot.Weighted>
5.0885

> <Gold.Chemscore.Internal.Correction.Weighted>
   9.000000E+99

> <Gold.Protein.RotatedTorsions>
[ 6907 6896 6895 6894 ] final  -33.56 input  -60.11 | X-H torsion
[ 7974 7965 7964 7962 ] final   -6.10 input  175.53 | X-H torsion
[ 8008 7997 7996 7995 ] final  -37.37 input   59.86 | X-H torsion
[ 10167 10162 10161 10158 ] final  -61.73 input  -65.29 | X-H torsion
[ 10718 10713 10712 10709 ] final  143.83 input   66.30 | X-H torsion
[ 10763 10752 10751 10750 ] final  -78.12 input  -60.55 | X-H torsion
[ 11005 11000 10999 10996 ] final -145.04 input  -57.11 | X-H torsion

> <Gold.Protein.ActiveResidues>
 VAL166  LYS551  ARG553  GLY616  TRP617  ASP618  TYR619  PRO620  LYS621  CYS622 
 ASP623  PHE694  ASN695  SER759  ASP760  ASP761  ALA762  ILE779  LEU786  VAL792 
 PHE793  MET794  SER795  GLU796  ALA797  LYS798  CYS799  TRP800  GLU811  SER814 

> <Gold.Protein.RotatedAtoms>
  151.0640  134.9755  159.8274 H   0  0  0  0  0  0  0  0  0  0  0  0  # atno 6907 bound_to 6896
  152.5399  134.2382  159.8861 H   0  0  0  0  0  0  0  0  0  0  0  0  # atno 6908 bound_to 6896
  151.2403  133.4360  159.2641 H   0  0  0  0  0  0  0  0  0  0  0  0  # atno 6909 bound_to 6896
  146.2338  140.2120  142.8335 H   0  0  0  0  0  0  0  0  0  0  0  0  # atno 7974 bound_to 7965
  154.4055  140.1606  156.2526 H   0  0  0  0  0  0  0  0  0  0  0  0  # atno 8008 bound_to 7997
  155.9106  140.3427  155.6073 H   0  0  0  0  0  0  0  0  0  0  0  0  # atno 8009 bound_to 7997
  155.7340  140.0784  157.2266 H   0  0  0  0  0  0  0  0  0  0  0  0  # atno 8010 bound_to 7997
  140.5986  143.2356  151.5979 H   0  0  0  0  0  0  0  0  0  0  0  0  # atno 10167 bound_to 10162
  157.3643  131.0970  151.0886 H   0  0  0  0  0  0  0  0  0  0  0  0  # atno 10718 bound_to 10713
  154.5217  135.5741  153.6686 H   0  0  0  0  0  0  0  0  0  0  0  0  # atno 10763 bound_to 10752
  152.9919  135.6183  154.2745 H   0  0  0  0  0  0  0  0  0  0  0  0  # atno 10764 bound_to 10752
  154.2666  135.2854  155.2735 H   0  0  0  0  0  0  0  0  0  0  0  0  # atno 10765 bound_to 10752
  140.7963  134.2909  157.4995 H   0  0  0  0  0  0  0  0  0  0  0  0  # atno 11005 bound_to 11000
  144.9699  140.8359  143.5461 LP  0  0  0  0  0  0  0  0  0  0  0  0  # atno 17320 bound_to 7965
  145.2100  139.2209  143.5148 LP  0  0  0  0  0  0  0  0  0  0  0  0  # atno 17321 bound_to 7965
  139.5275  144.3014  152.1070 LP  0  0  0  0  0  0  0  0  0  0  0  0  # atno 17342 bound_to 10162
  140.2190  144.4485  150.6350 LP  0  0  0  0  0  0  0  0  0  0  0  0  # atno 17343 bound_to 10162
  157.2014  130.6396  149.5740 LP  0  0  0  0  0  0  0  0  0  0  0  0  # atno 17370 bound_to 10713
  155.9743  130.4689  150.6378 LP  0  0  0  0  0  0  0  0  0  0  0  0  # atno 17371 bound_to 10713
  139.8726  134.9404  156.3768 LP  0  0  0  0  0  0  0  0  0  0  0  0  # atno 17394 bound_to 11000
  140.9339  133.7560  156.0060 LP  0  0  0  0  0  0  0  0  0  0  0  0  # atno 17395 bound_to 11000

$$$$
