AV-unprocessed.smi:147|AV-procd|sdf|1201|dock5
  -GOLD-   2262018363D 1   1.00000     0.00000
 Structure written by MMmdl.
 55 57  0  0  0  0  0  0  0  0  1 V2000
  147.3901  134.5713  162.3002 C   0  0  0  0  0  0  0  0  0  0  0  0
  146.7706  135.9776  162.2467 C   0  0  0  0  0  0  0  0  0  0  0  0
  145.2608  135.9323  162.5324 C   0  0  0  0  0  0  0  0  0  0  0  0
  147.0431  136.6424  160.8913 C   0  0  0  0  0  0  0  0  0  0  0  0
  147.9012  137.5203  160.7923 O   0  0  0  0  0  0  0  0  0  0  0  0
  146.3085  136.2127  159.8537 N   0  0  0  0  0  0  0  0  0  0  0  0
  146.4266  136.7014  158.4859 C   0  0  0  0  0  0  0  0  0  0  0  0
  145.0789  137.2328  157.9641 C   0  0  0  0  0  0  0  0  0  0  0  0
  145.1192  137.5549  156.5371 N   0  0  0  0  0  0  0  0  0  0  0  0
  144.6165  138.8582  156.1189 C   0  0  0  0  0  0  0  0  0  0  0  0
  145.2833  136.5699  155.6067 C   0  0  0  0  0  0  0  0  0  0  0  0
  146.1662  135.5671  155.8653 N   0  0  0  0  0  0  0  0  0  0  0  0
  146.3583  134.5768  154.9911 C   0  0  0  0  0  0  0  0  0  0  0  0
  145.7862  134.3948  153.8020 N   0  0  0  0  0  0  0  0  0  0  0  0
  144.9084  135.3982  153.5188 C   0  0  0  0  0  0  0  0  0  0  0  0
  144.5933  136.5096  154.3557 C   0  0  0  0  0  0  0  0  0  0  0  0
  143.6473  137.3082  153.7195 N   0  0  0  0  0  0  0  0  0  0  0  0
  143.4120  136.7027  152.5886 C   0  0  0  0  0  0  0  0  0  0  0  0
  144.1505  135.5631  152.3725 N   0  0  0  0  0  0  0  0  0  0  0  0
  144.0700  134.6901  151.2382 C   0  0  0  0  0  0  0  0  0  0  0  0
  143.7808  133.1973  151.4100 C   0  0  0  0  0  0  0  0  0  0  0  0
  144.6637  132.8903  150.1797 C   0  0  0  0  0  0  0  0  0  0  0  0
  145.5841  131.6667  150.3163 C   0  0  0  0  0  0  0  0  0  0  0  0
  146.7007  131.7670  149.4563 O   0  0  0  0  0  0  0  0  0  0  0  0
  143.9138  132.8129  148.8347 C   0  0  0  0  0  0  0  0  0  0  0  0
  142.7584  132.0049  148.9334 O   0  0  0  0  0  0  0  0  0  0  0  0
  145.3282  134.2513  150.4843 C   0  0  0  0  0  0  0  0  0  0  0  0
  148.4610  134.6013  162.0956 H   0  0  0  0  0  0  0  0  0  0  0  0
  146.9302  133.9013  161.5727 H   0  0  0  0  0  0  0  0  0  0  0  0
  147.2589  134.1260  163.2866 H   0  0  0  0  0  0  0  0  0  0  0  0
  147.2414  136.5796  163.0256 H   0  0  0  0  0  0  0  0  0  0  0  0
  144.8203  136.9296  162.4975 H   0  0  0  0  0  0  0  0  0  0  0  0
  145.0648  135.5241  163.5241 H   0  0  0  0  0  0  0  0  0  0  0  0
  144.7332  135.3095  161.8089 H   0  0  0  0  0  0  0  0  0  0  0  0
  145.6253  135.4886  160.0222 H   0  0  0  0  0  0  0  0  0  0  0  0
  147.1739  137.4952  158.4793 H   0  0  0  0  0  0  0  0  0  0  0  0
  146.8090  135.9111  157.8380 H   0  0  0  0  0  0  0  0  0  0  0  0
  144.3053  136.4797  158.1177 H   0  0  0  0  0  0  0  0  0  0  0  0
  144.7576  138.0984  158.5449 H   0  0  0  0  0  0  0  0  0  0  0  0
  145.4028  139.4323  155.6285 H   0  0  0  0  0  0  0  0  0  0  0  0
  144.2708  139.4375  156.9754 H   0  0  0  0  0  0  0  0  0  0  0  0
  143.7760  138.7517  155.4324 H   0  0  0  0  0  0  0  0  0  0  0  0
  147.0748  133.8243  155.2857 H   0  0  0  0  0  0  0  0  0  0  0  0
  142.6954  137.0799  151.8735 H   0  0  0  0  0  0  0  0  0  0  0  0
  143.3496  135.1461  150.5572 H   0  0  0  0  0  0  0  0  0  0  0  0
  144.1911  132.8003  152.3404 H   0  0  0  0  0  0  0  0  0  0  0  0
  142.7289  132.9300  151.3056 H   0  0  0  0  0  0  0  0  0  0  0  0
  145.9586  131.5766  151.3364 H   0  0  0  0  0  0  0  0  0  0  0  0
  145.0537  130.7384  150.1034 H   0  0  0  0  0  0  0  0  0  0  0  0
  147.4654  131.4652  149.9223 H   0  0  0  0  0  0  0  0  0  0  0  0
  143.5998  133.8020  148.5014 H   0  0  0  0  0  0  0  0  0  0  0  0
  144.5516  132.4173  148.0441 H   0  0  0  0  0  0  0  0  0  0  0  0
  142.0619  132.5216  149.3088 H   0  0  0  0  0  0  0  0  0  0  0  0
  145.5624  134.8538  149.6063 H   0  0  0  0  0  0  0  0  0  0  0  0
  146.1979  134.1606  151.1382 H   0  0  0  0  0  0  0  0  0  0  0  0
  1  2  1  0  0  0  0
  1 28  1  0  0  0  0
  1 29  1  0  0  0  0
  1 30  1  0  0  0  0
  2  3  1  0  0  0  0
  2  4  1  0  0  0  0
  2 31  1  0  0  0  0
  3 32  1  0  0  0  0
  3 33  1  0  0  0  0
  3 34  1  0  0  0  0
  4  5  2  0  0  0  0
  4  6  1  0  0  0  0
  6  7  1  0  0  0  0
  6 35  1  0  0  0  0
  7  8  1  0  0  0  0
  7 36  1  0  0  0  0
  7 37  1  0  0  0  0
  8  9  1  0  0  0  0
  8 38  1  0  0  0  0
  8 39  1  0  0  0  0
  9 10  1  0  0  0  0
  9 11  1  0  0  0  0
 10 40  1  0  0  0  0
 10 41  1  0  0  0  0
 10 42  1  0  0  0  0
 11 16  1  0  0  0  0
 11 12  2  0  0  0  0
 12 13  1  0  0  0  0
 13 14  2  0  0  0  0
 13 43  1  0  0  0  0
 14 15  1  0  0  0  0
 15 19  1  0  0  0  0
 15 16  2  0  0  0  0
 16 17  1  0  0  0  0
 17 18  2  0  0  0  0
 18 19  1  0  0  0  0
 18 44  1  0  0  0  0
 19 20  1  0  0  0  0
 20 27  1  0  0  0  0
 20 21  1  0  0  0  0
 20 45  1  0  0  0  0
 21 22  1  0  0  0  0
 21 46  1  0  0  0  0
 21 47  1  0  0  0  0
 22 23  1  0  0  0  0
 22 25  1  0  0  0  0
 22 27  1  0  0  0  0
 23 24  1  0  0  0  0
 23 48  1  0  0  0  0
 23 49  1  0  0  0  0
 24 50  1  0  0  0  0
 25 26  1  0  0  0  0
 25 51  1  0  0  0  0
 25 52  1  0  0  0  0
 26 53  1  0  0  0  0
 27 54  1  0  0  0  0
 27 55  1  0  0  0  0
M  END
> <s_m_source_file>
AV-unprocessed.smi

> <i_m_source_file_index>
147

> <i_lp_mmshare_version>
43012

> <i_f3d_flags>
0

> <s_epik_input>
W0NIM11bQ0hdKFtDSDNdKUMoPU8pW05IXVtDSDJdW0NIMl1OKFtDSDNdKWMobltjSF1uMSljKGMxMiluW2NIXW4yW0NIXShbQ0gyXTMpW0NIMl1DMyhbQ0gyXVtPSF0pW0NIMl1bT0hd

> <s_epik_cmdline>
J2VwaWtfcHl0aG9uJywgJy1waCcsICc3LjAnLCAnLXRuJywgJzgnLCAnLW1hJywgJzIwMCcsICctbWV0YWxfYmluZGluZycsICctaW1hZScsICc8aW5maWxlLm1hZT4nLCAnLW9tYWUnLCAnPG91dGZpbGUubWFlPic=

> <r_lp_tautomer_probability>
1

> <r_epik_Ionization_Penalty>
0.00124047

> <r_epik_Ionization_Penalty_Charging>
0

> <r_epik_Ionization_Penalty_Neutral>
0.00124047

> <r_epik_State_Penalty>
0.000682986

> <r_epik_Charging_Adjusted_Penalty>
0.000682986

> <i_epik_Tot_Q>
0

> <i_epik_Tot_abs_Q>
0

> <r_epik_Metal_State_Penalty>
-0

> <b_epik_Metal_Only>
0

> <s_lp_Force_Field>
OPLS_2005

> <r_lp_Energy>
28.5646

> <b_lp_Chiralities_Consistent>
1

> <s_lp_Variant>
AV-unprocessed.smi:147-1

> <Gold.Version>
5.8.1

> <Gold.Id.Protein>
6NUR|6NUR_protein|mol2

> <Gold.PLP.Fitness>
53.8208

> <Gold.PLP.PLP>
-39.7110

> <Gold.PLP.part.hbond>
-6.0000

> <Gold.PLP.part.metal>
0.0000

> <Gold.PLP.part.buried>
-6.3793

> <Gold.PLP.part.nonpolar>
-27.2928

> <Gold.PLP.part.repulsive>
0.2576

> <Gold.PLP.ligand.clash>
0.0000

> <Gold.PLP.ligand.torsion>
1.5508

> <Gold.PLP.Chemscore.Hbond>
4.7120

> <Gold.PLP.Chemscore.CHOScore>
0.7635

> <Gold.PLP.Chemscore.Metal>
0.0000

> <Gold.Chemscore.Hbonds>
donor molecule, donor type, donor heavy atom, donor atom, acceptor molecule, acceptor atom, score
      L1  H    24    50       P1 10747  1.00
      L1  H    26    53       P1 10186  0.65
      P1  H  6931  6943       L1     5  0.69
      P1  H  6934  6947       L1     5  0.74
      P1  H 10785 10796       L1    26  1.00
      L1  C    18    44       P1 10171  0.25

> <Gold.PLP.Chemscore.Internal.Correction>
0.7850

> <Gold.Rescore>
     Score         DG    S(hbond)    S(metal)    S(lipo)     H(rot)  DE(clash)    DE(int)     intcor
     14.37     -18.52       4.38        0.00      77.31       4.15       0.02       4.13       ----

> <Gold.Chemscore.Fitness>
14.3681

> <Gold.Chemscore.DG>
-18.5217

> <Gold.Chemscore.ZeroCoef>
-5.4800

> <Gold.Chemscore.Hbond>
4.3753

> <Gold.Chemscore.Metal>
0.0000

> <Gold.Chemscore.Lipo>
77.3062

> <Gold.Chemscore.Internal_Hbond>
0.0000

> <Gold.Chemscore.DEClash>
0.0234

> <Gold.Chemscore.DEInternal>
4.1302

> <Gold.Chemscore.Rot>
4.1472

> <Gold.Chemscore.Internal.Correction>
   9.000000E+99

> <Gold.Chemscore.Hbonds>
donor molecule, donor type, donor heavy atom, donor atom, acceptor molecule, acceptor atom, score
      L1  H    24    50       P1 10747  0.99
      L1  H    26    53       P1 10186  0.62
      P1  H  6931  6943       L1     5  0.68
      P1  H  6934  6947       L1     5  0.55
      P1  H 10785 10796       L1    26  0.78

> <Gold.Chemscore.Hbond.Weighted>
-14.6136

> <Gold.Chemscore.Metal.Weighted>
-0.0000

> <Gold.Chemscore.Lipo.Weighted>
-9.0448

> <Gold.Chemscore.Internal_Hbond.Weighted>
0.0000

> <Gold.Chemscore.DEClash.Weighted>
0.0234

> <Gold.Chemscore.DEInternal.Weighted>
4.1302

> <Gold.Chemscore.Rot.Weighted>
10.6167

> <Gold.Chemscore.Internal.Correction.Weighted>
   9.000000E+99

> <Gold.Protein.RotatedTorsions>
[ 6907 6896 6895 6894 ] final  166.47 input  -60.11 | X-H torsion
[ 7974 7965 7964 7962 ] final  150.23 input  175.53 | X-H torsion
[ 8008 7997 7996 7995 ] final  -88.81 input   59.86 | X-H torsion
[ 10167 10162 10161 10158 ] final -152.63 input  -65.29 | X-H torsion
[ 10718 10713 10712 10709 ] final  122.57 input   66.30 | X-H torsion
[ 10763 10752 10751 10750 ] final -161.72 input  -60.55 | X-H torsion
[ 11005 11000 10999 10996 ] final   40.61 input  -57.11 | X-H torsion

> <Gold.Protein.ActiveResidues>
 VAL166  LYS551  ARG553  GLY616  TRP617  ASP618  TYR619  PRO620  LYS621  CYS622 
 ASP623  PHE694  ASN695  SER759  ASP760  ASP761  ALA762  ILE779  LEU786  VAL792 
 PHE793  MET794  SER795  GLU796  ALA797  LYS798  CYS799  TRP800  GLU811  SER814 

> <Gold.Protein.RotatedAtoms>
  151.8784  133.3490  159.3757 H   0  0  0  0  0  0  0  0  0  0  0  0  # atno 6907 bound_to 6896
  150.7134  134.5043  159.5586 H   0  0  0  0  0  0  0  0  0  0  0  0  # atno 6908 bound_to 6896
  152.2590  134.8054  160.0484 H   0  0  0  0  0  0  0  0  0  0  0  0  # atno 6909 bound_to 6896
  144.8379  139.6381  143.6029 H   0  0  0  0  0  0  0  0  0  0  0  0  # atno 7974 bound_to 7965
  154.6792  140.0549  157.0248 H   0  0  0  0  0  0  0  0  0  0  0  0  # atno 8008 bound_to 7997
  155.0976  140.3225  155.4537 H   0  0  0  0  0  0  0  0  0  0  0  0  # atno 8009 bound_to 7997
  156.2688  140.2037  156.6102 H   0  0  0  0  0  0  0  0  0  0  0  0  # atno 8010 bound_to 7997
  139.7165  143.9024  152.2488 H   0  0  0  0  0  0  0  0  0  0  0  0  # atno 10167 bound_to 10162
  157.5732  131.1081  150.8328 H   0  0  0  0  0  0  0  0  0  0  0  0  # atno 10718 bound_to 10713
  154.7279  135.3040  154.8941 H   0  0  0  0  0  0  0  0  0  0  0  0  # atno 10763 bound_to 10752
  153.9792  135.6732  153.4753 H   0  0  0  0  0  0  0  0  0  0  0  0  # atno 10764 bound_to 10752
  153.0891  135.4968  154.8575 H   0  0  0  0  0  0  0  0  0  0  0  0  # atno 10765 bound_to 10752
  140.1914  134.3982  155.8144 H   0  0  0  0  0  0  0  0  0  0  0  0  # atno 11005 bound_to 11000
  146.2676  139.6557  142.9319 LP  0  0  0  0  0  0  0  0  0  0  0  0  # atno 17320 bound_to 7965
  145.4755  141.0437  143.2675 LP  0  0  0  0  0  0  0  0  0  0  0  0  # atno 17321 bound_to 7965
  139.8908  144.6966  150.8772 LP  0  0  0  0  0  0  0  0  0  0  0  0  # atno 17342 bound_to 10162
  140.7745  143.3588  151.1869 LP  0  0  0  0  0  0  0  0  0  0  0  0  # atno 17343 bound_to 10162
  156.8793  130.5174  149.5292 LP  0  0  0  0  0  0  0  0  0  0  0  0  # atno 17370 bound_to 10713
  156.0777  130.5795  150.9505 LP  0  0  0  0  0  0  0  0  0  0  0  0  # atno 17371 bound_to 10713
  141.2226  133.7048  156.8102 LP  0  0  0  0  0  0  0  0  0  0  0  0  # atno 17394 bound_to 11000
  140.2155  134.8796  157.3321 LP  0  0  0  0  0  0  0  0  0  0  0  0  # atno 17395 bound_to 11000

$$$$
