AV-unprocessed.smi:2044|AV-procd|sdf|8301|dock5
  -GOLD-   2272010563D 1   1.00000     0.00000
 Structure written by MMmdl.
 40 41  0  0  0  0  0  0  0  0  2 V2000
  151.0462  141.8663  156.1679 C   0  0  0  0  0  0  0  0  0  0  0  0
  150.5145  140.7103  155.3921 C   0  0  0  0  0  0  0  0  0  0  0  0
  149.2527  140.2242  155.1956 C   0  0  0  0  0  0  0  0  0  0  0  0
  149.4720  139.1021  154.3444 C   0  0  0  0  0  0  0  0  0  0  0  0
  148.4778  138.2327  153.8260 N   0  0  0  0  0  0  0  0  0  0  0  0
  147.1831  138.1440  154.1738 C   0  0  0  0  0  0  0  0  0  0  0  0
  146.6299  138.8103  155.0487 O   0  0  0  0  0  0  0  0  0  0  0  0
  146.5427  137.2259  153.4355 N   0  0  0  0  0  0  0  0  0  0  0  0
  145.1226  136.9066  153.5523 C   0  0  0  0  0  0  0  0  0  0  0  0
  144.4576  136.5785  152.1882 C   0  0  1  0  0  0  0  0  0  0  0  0
  145.3687  135.6340  151.3661 C   0  0  0  0  0  0  0  0  0  0  0  0
  143.0735  136.0400  152.3977 N   0  3  0  0  0  0  0  0  0  0  0  0
  143.0733  134.6031  152.7878 C   0  0  0  0  0  0  0  0  0  0  0  0
  141.6403  134.0612  152.9136 C   0  0  0  0  0  0  0  0  0  0  0  0
  140.9276  134.8298  153.8706 O   0  0  0  0  0  0  0  0  0  0  0  0
  140.8212  136.1876  153.4707 C   0  0  0  0  0  0  0  0  0  0  0  0
  142.2226  136.8108  153.3467 C   0  0  0  0  0  0  0  0  0  0  0  0
  150.7478  138.9255  154.0542 N   0  0  0  0  0  0  0  0  0  0  0  0
  151.4240  139.9528  154.7225 O   0  0  0  0  0  0  0  0  0  0  0  0
  150.3009  142.2386  156.8711 H   0  0  0  0  0  0  0  0  0  0  0  0
  151.3203  142.6841  155.5014 H   0  0  0  0  0  0  0  0  0  0  0  0
  151.9318  141.5793  156.7350 H   0  0  0  0  0  0  0  0  0  0  0  0
  148.3347  140.6214  155.6014 H   0  0  0  0  0  0  0  0  0  0  0  0
  148.7896  137.6137  153.0923 H   0  0  0  0  0  0  0  0  0  0  0  0
  147.0705  136.7186  152.7397 H   0  0  0  0  0  0  0  0  0  0  0  0
  145.0270  136.0518  154.2227 H   0  0  0  0  0  0  0  0  0  0  0  0
  144.6350  137.7395  154.0574 H   0  0  0  0  0  0  0  0  0  0  0  0
  144.3622  137.4996  151.6108 H   0  0  0  0  0  0  0  0  0  0  0  0
  146.3751  136.0374  151.2557 H   0  0  0  0  0  0  0  0  0  0  0  0
  144.9996  135.4905  150.3505 H   0  0  0  0  0  0  0  0  0  0  0  0
  145.4599  134.6557  151.8394 H   0  0  0  0  0  0  0  0  0  0  0  0
  143.6070  133.9953  152.0599 H   0  0  0  0  0  0  0  0  0  0  0  0
  143.5948  134.4838  153.7388 H   0  0  0  0  0  0  0  0  0  0  0  0
  141.1271  134.0815  151.9506 H   0  0  0  0  0  0  0  0  0  0  0  0
  141.6600  133.0220  153.2421 H   0  0  0  0  0  0  0  0  0  0  0  0
  140.2783  136.2599  152.5268 H   0  0  0  0  0  0  0  0  0  0  0  0
  140.2360  136.7285  154.2145 H   0  0  0  0  0  0  0  0  0  0  0  0
  142.7041  136.8475  154.3253 H   0  0  0  0  0  0  0  0  0  0  0  0
  142.0920  137.8374  153.0061 H   0  0  0  0  0  0  0  0  0  0  0  0
  142.6091  136.1012  151.5027 H   0  0  0  0  0  0  0  0  0  0  0  0
  1  2  1  0  0  0  0
  1 20  1  0  0  0  0
  1 21  1  0  0  0  0
  1 22  1  0  0  0  0
  2 19  1  0  0  0  0
  2  3  2  0  0  0  0
  3  4  1  0  0  0  0
  3 23  1  0  0  0  0
  4  5  1  0  0  0  0
  4 18  2  0  0  0  0
  5  6  1  0  0  0  0
  5 24  1  0  0  0  0
  6  7  2  0  0  0  0
  6  8  1  0  0  0  0
  8  9  1  0  0  0  0
  8 25  1  0  0  0  0
  9 10  1  0  0  0  0
  9 26  1  0  0  0  0
  9 27  1  0  0  0  0
 10 11  1  0  0  0  0
 10 12  1  0  0  0  0
 10 28  1  0  0  0  0
 11 29  1  0  0  0  0
 11 30  1  0  0  0  0
 11 31  1  0  0  0  0
 12 17  1  0  0  0  0
 12 13  1  0  0  0  0
 12 40  1  0  0  0  0
 13 14  1  0  0  0  0
 13 32  1  0  0  0  0
 13 33  1  0  0  0  0
 14 15  1  0  0  0  0
 14 34  1  0  0  0  0
 14 35  1  0  0  0  0
 15 16  1  0  0  0  0
 16 17  1  0  0  0  0
 16 36  1  0  0  0  0
 16 37  1  0  0  0  0
 17 38  1  0  0  0  0
 17 39  1  0  0  0  0
 18 19  1  0  0  0  0
M  CHG  1  12   1
M  END
> <s_m_source_file>
AV-unprocessed.smi

> <i_m_source_file_index>
2044

> <i_lp_mmshare_version>
43012

> <i_f3d_flags>
0

> <s_epik_input>
W0NIM11jMVtjSF1jKG5vMSlbTkhdQyg9TylbTkhdW0NIMl1bQ0BIXShbQ0gzXSlOMltDSDJdW0NIMl1PW0NIMl1bQ0gyXTI=

> <s_epik_cmdline>
J2VwaWtfcHl0aG9uJywgJy1waCcsICc3LjAnLCAnLXRuJywgJzgnLCAnLW1hJywgJzIwMCcsICctbWV0YWxfYmluZGluZycsICctaW1hZScsICc8aW5maWxlLm1hZT4nLCAnLW9tYWUnLCAnPG91dGZpbGUubWFlPic=

> <r_epik_Ionization_Penalty>
0.707076

> <r_epik_Ionization_Penalty_Charging>
0.707039

> <r_epik_Ionization_Penalty_Neutral>
3.67886e-05

> <r_epik_State_Penalty>
0.730276

> <r_epik_Charging_Adjusted_Penalty>
1.43732

> <i_epik_Tot_Q>
1

> <i_epik_Tot_abs_Q>
1

> <r_epik_Metal_State_Penalty>
0.743216

> <b_epik_Metal_Only>
0

> <s_lp_Force_Field>
OPLS_2005

> <r_lp_Energy>
19.4768

> <b_lp_Chiralities_Consistent>
1

> <s_lp_Variant>
AV-unprocessed.smi:2044-4

> <Gold.Version>
5.8.1

> <Gold.Id.Protein>
6NUR|6NUR_protein|mol2

> <Gold.PLP.Fitness>
39.3146

> <Gold.PLP.PLP>
-29.4179

> <Gold.PLP.part.hbond>
-5.1245

> <Gold.PLP.part.metal>
0.0000

> <Gold.PLP.part.buried>
-3.5027

> <Gold.PLP.part.nonpolar>
-21.0104

> <Gold.PLP.part.repulsive>
0.5387

> <Gold.PLP.ligand.clash>
0.0000

> <Gold.PLP.ligand.torsion>
0.4835

> <Gold.PLP.Chemscore.Hbond>
3.6076

> <Gold.PLP.Chemscore.CHOScore>
0.0000

> <Gold.PLP.Chemscore.Metal>
0.0000

> <Gold.Chemscore.Hbonds>
donor molecule, donor type, donor heavy atom, donor atom, acceptor molecule, acceptor atom, score
      L1  H     5    24       P1  7948  1.00
      L1  H     8    25       P1  7948  0.76
      P1  H  7989  7998       L1    19  0.81
      P1  H 11000 11005       L1    15  1.00

> <Gold.PLP.Chemscore.Internal.Correction>
0.0408

> <Gold.Rescore>
     Score         DG    S(hbond)    S(metal)    S(lipo)     H(rot)  DE(clash)    DE(int)     intcor
     15.56     -17.27       2.79        0.00      56.61       1.62       0.12       1.59       ----

> <Gold.Chemscore.Fitness>
15.5630

> <Gold.Chemscore.DG>
-17.2714

> <Gold.Chemscore.ZeroCoef>
-5.4800

> <Gold.Chemscore.Hbond>
2.7899

> <Gold.Chemscore.Metal>
0.0000

> <Gold.Chemscore.Lipo>
56.6144

> <Gold.Chemscore.Internal_Hbond>
0.0000

> <Gold.Chemscore.DEClash>
0.1218

> <Gold.Chemscore.DEInternal>
1.5866

> <Gold.Chemscore.Rot>
1.6213

> <Gold.Chemscore.Internal.Correction>
   9.000000E+99

> <Gold.Chemscore.Hbonds>
donor molecule, donor type, donor heavy atom, donor atom, acceptor molecule, acceptor atom, score
      L1  H     5    24       P1  7948  1.00
      L1  H     8    25       P1  7948  0.71
      P1  H  7989  7998       L1    19  0.03
      P1  H 11000 11005       L1    15  0.92

> <Gold.Chemscore.Hbond.Weighted>
-9.3182

> <Gold.Chemscore.Metal.Weighted>
-0.0000

> <Gold.Chemscore.Lipo.Weighted>
-6.6239

> <Gold.Chemscore.Internal_Hbond.Weighted>
0.0000

> <Gold.Chemscore.DEClash.Weighted>
0.1218

> <Gold.Chemscore.DEInternal.Weighted>
1.5866

> <Gold.Chemscore.Rot.Weighted>
4.1506

> <Gold.Chemscore.Internal.Correction.Weighted>
   9.000000E+99

> <Gold.Protein.RotatedTorsions>
[ 6907 6896 6895 6894 ] final   58.85 input  -60.11 | X-H torsion
[ 7974 7965 7964 7962 ] final  -82.80 input  175.53 | X-H torsion
[ 8008 7997 7996 7995 ] final   98.02 input   59.86 | X-H torsion
[ 10167 10162 10161 10158 ] final   80.30 input  -65.29 | X-H torsion
[ 10718 10713 10712 10709 ] final  -63.53 input   66.30 | X-H torsion
[ 10763 10752 10751 10750 ] final   86.06 input  -60.55 | X-H torsion
[ 11005 11000 10999 10996 ] final   30.58 input  -57.11 | X-H torsion

> <Gold.Protein.ActiveResidues>
 VAL166  LYS551  ARG553  GLY616  TRP617  ASP618  TYR619  PRO620  LYS621  CYS622 
 ASP623  PHE694  ASN695  SER759  ASP760  ASP761  ALA762  ILE779  LEU786  VAL792 
 PHE793  MET794  SER795  GLU796  ALA797  LYS798  CYS799  TRP800  GLU811  SER814 

> <Gold.Protein.RotatedAtoms>
  152.3861  134.6514  160.0124 H   0  0  0  0  0  0  0  0  0  0  0  0  # atno 6907 bound_to 6896
  151.6762  133.3307  159.3216 H   0  0  0  0  0  0  0  0  0  0  0  0  # atno 6908 bound_to 6896
  150.7787  134.6756  159.6460 H   0  0  0  0  0  0  0  0  0  0  0  0  # atno 6909 bound_to 6896
  145.5285  140.9524  143.1616 H   0  0  0  0  0  0  0  0  0  0  0  0  # atno 7974 bound_to 7965
  156.0962  140.3250  155.7880 H   0  0  0  0  0  0  0  0  0  0  0  0  # atno 8008 bound_to 7997
  155.4914  140.0562  157.2970 H   0  0  0  0  0  0  0  0  0  0  0  0  # atno 8009 bound_to 7997
  154.4668  140.1993  156.0114 H   0  0  0  0  0  0  0  0  0  0  0  0  # atno 8010 bound_to 7997
  139.9512  144.6025  150.8159 H   0  0  0  0  0  0  0  0  0  0  0  0  # atno 10167 bound_to 10162
  156.0785  130.4222  150.1290 H   0  0  0  0  0  0  0  0  0  0  0  0  # atno 10718 bound_to 10713
  153.1534  135.4594  154.9669 H   0  0  0  0  0  0  0  0  0  0  0  0  # atno 10763 bound_to 10752
  154.7842  135.3198  154.7924 H   0  0  0  0  0  0  0  0  0  0  0  0  # atno 10764 bound_to 10752
  153.8426  135.6929  153.4855 H   0  0  0  0  0  0  0  0  0  0  0  0  # atno 10765 bound_to 10752
  140.2929  134.2844  155.7771 H   0  0  0  0  0  0  0  0  0  0  0  0  # atno 11005 bound_to 11000
  144.7638  139.6893  143.7223 LP  0  0  0  0  0  0  0  0  0  0  0  0  # atno 17320 bound_to 7965
  146.2060  139.5384  142.9712 LP  0  0  0  0  0  0  0  0  0  0  0  0  # atno 17321 bound_to 7965
  140.7582  143.3103  151.2862 LP  0  0  0  0  0  0  0  0  0  0  0  0  # atno 17342 bound_to 10162
  139.6627  144.0160  152.2703 LP  0  0  0  0  0  0  0  0  0  0  0  0  # atno 17343 bound_to 10162
  156.9326  130.9718  151.3530 LP  0  0  0  0  0  0  0  0  0  0  0  0  # atno 17370 bound_to 10713
  157.5892  130.8431  149.8634 LP  0  0  0  0  0  0  0  0  0  0  0  0  # atno 17371 bound_to 10713
  141.2143  133.7597  156.9652 LP  0  0  0  0  0  0  0  0  0  0  0  0  # atno 17394 bound_to 11000
  140.1179  134.9436  157.2160 LP  0  0  0  0  0  0  0  0  0  0  0  0  # atno 17395 bound_to 11000

$$$$
