AV-unprocessed.smi:2498|AV-procd|sdf|9830|dock7
  -GOLD-   2272013463D 1   1.00000     0.00000
 Structure written by MMmdl.
 36 36  0  0  0  0  0  0  0  0  2 V2000
  150.5995  139.7820  156.1579 C   0  0  0  0  0  0  0  0  0  0  0  0
  151.0222  140.8599  157.1155 C   0  0  0  0  0  0  0  0  0  0  0  0
  150.8180  142.1225  156.7808 N   0  0  0  0  0  0  0  0  0  0  0  0
  151.2500  142.8374  157.8402 N   0  0  0  0  0  0  0  0  0  0  0  0
  151.1910  144.2885  157.7999 C   0  0  0  0  0  0  0  0  0  0  0  0
  150.5066  144.7419  158.8498 F   0  0  0  0  0  0  0  0  0  0  0  0
  152.4182  144.8119  157.7981 F   0  0  0  0  0  0  0  0  0  0  0  0
  151.7669  142.0230  158.8291 C   0  0  0  0  0  0  0  0  0  0  0  0
  152.3305  142.5741  160.0987 C   0  0  0  0  0  0  0  0  0  0  0  0
  151.6321  140.7296  158.3993 C   0  0  0  0  0  0  0  0  0  0  0  0
  152.0194  139.4590  159.1164 C   0  0  0  0  0  0  0  0  0  0  0  0
  153.1021  138.7309  158.3202 C   0  0  0  0  0  0  0  0  0  0  0  0
  153.2907  139.0313  157.1422 O   0  0  0  0  0  0  0  0  0  0  0  0
  153.7829  137.7895  159.0001 N   0  0  0  0  0  0  0  0  0  0  0  0
  154.9548  136.9760  158.6474 C   0  0  0  0  0  0  0  0  0  0  0  0
  154.5987  136.1588  157.3863 C   0  0  0  0  0  0  0  0  0  0  0  0
  156.2502  137.7855  158.3736 C   0  0  0  0  0  0  0  0  0  0  0  0
  155.1812  136.0328  159.8522 C   0  0  0  0  0  0  0  0  0  0  0  0
  154.2602  135.2448  160.1639 O   0  0  0  0  0  0  0  0  0  0  0  0
  156.2945  136.0748  160.4231 O   0  5  0  0  0  0  0  0  0  0  0  0
  150.9184  138.7956  156.4930 H   0  0  0  0  0  0  0  0  0  0  0  0
  151.0237  139.9463  155.1672 H   0  0  0  0  0  0  0  0  0  0  0  0
  149.5141  139.7571  156.0562 H   0  0  0  0  0  0  0  0  0  0  0  0
  150.6890  144.6237  156.8922 H   0  0  0  0  0  0  0  0  0  0  0  0
  152.8017  141.7943  160.6961 H   0  0  0  0  0  0  0  0  0  0  0  0
  151.5448  143.0263  160.7039 H   0  0  0  0  0  0  0  0  0  0  0  0
  153.0821  143.3363  159.8923 H   0  0  0  0  0  0  0  0  0  0  0  0
  152.3916  139.6597  160.1212 H   0  0  0  0  0  0  0  0  0  0  0  0
  151.1626  138.7974  159.2461 H   0  0  0  0  0  0  0  0  0  0  0  0
  153.4894  137.6675  159.9584 H   0  0  0  0  0  0  0  0  0  0  0  0
  155.3885  135.4496  157.1348 H   0  0  0  0  0  0  0  0  0  0  0  0
  154.4623  136.8127  156.5245 H   0  0  0  0  0  0  0  0  0  0  0  0
  153.6726  135.5949  157.5080 H   0  0  0  0  0  0  0  0  0  0  0  0
  157.1001  137.1221  158.2082 H   0  0  0  0  0  0  0  0  0  0  0  0
  156.5116  138.4453  159.2023 H   0  0  0  0  0  0  0  0  0  0  0  0
  156.1543  138.4006  157.4785 H   0  0  0  0  0  0  0  0  0  0  0  0
  1  2  1  0  0  0  0
  1 21  1  0  0  0  0
  1 22  1  0  0  0  0
  1 23  1  0  0  0  0
  2 10  1  0  0  0  0
  2  3  2  0  0  0  0
  3  4  1  0  0  0  0
  4  5  1  0  0  0  0
  4  8  1  0  0  0  0
  5  6  1  0  0  0  0
  5  7  1  0  0  0  0
  5 24  1  0  0  0  0
  8  9  1  0  0  0  0
  8 10  2  0  0  0  0
  9 25  1  0  0  0  0
  9 26  1  0  0  0  0
  9 27  1  0  0  0  0
 10 11  1  0  0  0  0
 11 12  1  0  0  0  0
 11 28  1  0  0  0  0
 11 29  1  0  0  0  0
 12 13  2  0  0  0  0
 12 14  1  0  0  0  0
 14 15  1  0  0  0  0
 14 30  1  0  0  0  0
 15 16  1  0  0  0  0
 15 17  1  0  0  0  0
 15 18  1  0  0  0  0
 16 31  1  0  0  0  0
 16 32  1  0  0  0  0
 16 33  1  0  0  0  0
 17 34  1  0  0  0  0
 17 35  1  0  0  0  0
 17 36  1  0  0  0  0
 18 19  2  0  0  0  0
 18 20  1  0  0  0  0
M  CHG  1  20  -1
M  END
> <s_m_source_file>
AV-unprocessed.smi

> <i_m_source_file_index>
2498

> <i_lp_mmshare_version>
43012

> <i_f3d_flags>
0

> <s_epik_input>
W0NIM11jMW5uKFtDSF0oRilGKWMoW0NIM10pYzFbQ0gyXUMoPU8pW05IXUMoW0NIM10pKFtDSDNdKUMoPU8pW09IXQ==

> <s_epik_cmdline>
J2VwaWtfcHl0aG9uJywgJy1waCcsICc3LjAnLCAnLXRuJywgJzgnLCAnLW1hJywgJzIwMCcsICctbWV0YWxfYmluZGluZycsICctaW1hZScsICc8aW5maWxlLm1hZT4nLCAnLW9tYWUnLCAnPG91dGZpbGUubWFlPic=

> <r_lp_tautomer_probability>
1

> <r_epik_Ionization_Penalty>
0.000275972

> <r_epik_Ionization_Penalty_Charging>
0.000275542

> <r_epik_Ionization_Penalty_Neutral>
4.29922e-07

> <r_epik_State_Penalty>
-0

> <r_epik_Charging_Adjusted_Penalty>
0.000275542

> <i_epik_Tot_Q>
-1

> <i_epik_Tot_abs_Q>
1

> <r_epik_Metal_State_Penalty>
-0

> <b_epik_Metal_Only>
0

> <s_lp_Force_Field>
OPLS_2005

> <r_lp_Energy>
1.362

> <b_lp_Chiralities_Consistent>
1

> <s_lp_Variant>
AV-unprocessed.smi:2498-1

> <Gold.Version>
5.8.1

> <Gold.Id.Protein>
6NUR|6NUR_protein|mol2

> <Gold.PLP.Fitness>
41.3097

> <Gold.PLP.PLP>
-32.8229

> <Gold.PLP.part.hbond>
-1.7659

> <Gold.PLP.part.metal>
0.0000

> <Gold.PLP.part.buried>
-4.4541

> <Gold.PLP.part.nonpolar>
-27.1359

> <Gold.PLP.part.repulsive>
0.1498

> <Gold.PLP.ligand.clash>
0.0000

> <Gold.PLP.ligand.torsion>
0.2992

> <Gold.PLP.Chemscore.Hbond>
3.0000

> <Gold.PLP.Chemscore.CHOScore>
0.0000

> <Gold.PLP.Chemscore.Metal>
0.0000

> <Gold.Chemscore.Hbonds>
donor molecule, donor type, donor heavy atom, donor atom, acceptor molecule, acceptor atom, score
      P1  H  6896  6907       L1    19  2.00
      P1  H  7997  8009       L1    13  0.94

> <Gold.PLP.Chemscore.Internal.Correction>
0.0852

> <Gold.Rescore>
     Score         DG    S(hbond)    S(metal)    S(lipo)     H(rot)  DE(clash)    DE(int)     intcor
     12.34     -13.77       1.98        0.00      61.33       2.15       0.00       1.43       ----

> <Gold.Chemscore.Fitness>
12.3390

> <Gold.Chemscore.DG>
-13.7716

> <Gold.Chemscore.ZeroCoef>
-5.4800

> <Gold.Chemscore.Hbond>
1.9822

> <Gold.Chemscore.Metal>
0.0000

> <Gold.Chemscore.Lipo>
61.3266

> <Gold.Chemscore.Internal_Hbond>
0.0000

> <Gold.Chemscore.DEClash>
0.0044

> <Gold.Chemscore.DEInternal>
1.4281

> <Gold.Chemscore.Rot>
2.1501

> <Gold.Chemscore.Internal.Correction>
   9.000000E+99

> <Gold.Chemscore.Hbonds>
donor molecule, donor type, donor heavy atom, donor atom, acceptor molecule, acceptor atom, score
      P1  H  6896  6907       L1    19  1.00
      P1  H  7997  8009       L1    13  0.67

> <Gold.Chemscore.Hbond.Weighted>
-6.6207

> <Gold.Chemscore.Metal.Weighted>
-0.0000

> <Gold.Chemscore.Lipo.Weighted>
-7.1752

> <Gold.Chemscore.Internal_Hbond.Weighted>
0.0000

> <Gold.Chemscore.DEClash.Weighted>
0.0044

> <Gold.Chemscore.DEInternal.Weighted>
1.4281

> <Gold.Chemscore.Rot.Weighted>
5.5043

> <Gold.Chemscore.Internal.Correction.Weighted>
   9.000000E+99

> <Gold.Protein.RotatedTorsions>
[ 6907 6896 6895 6894 ] final   79.52 input  -60.11 | X-H torsion
[ 7974 7965 7964 7962 ] final -101.49 input  175.53 | X-H torsion
[ 8008 7997 7996 7995 ] final  151.70 input   59.86 | X-H torsion
[ 10167 10162 10161 10158 ] final  -16.36 input  -65.29 | X-H torsion
[ 10718 10713 10712 10709 ] final  166.78 input   66.30 | X-H torsion
[ 10763 10752 10751 10750 ] final -176.85 input  -60.55 | X-H torsion
[ 11005 11000 10999 10996 ] final -133.89 input  -57.11 | X-H torsion

> <Gold.Protein.ActiveResidues>
 VAL166  LYS551  ARG553  GLY616  TRP617  ASP618  TYR619  PRO620  LYS621  CYS622 
 ASP623  PHE694  ASN695  SER759  ASP760  ASP761  ALA762  ILE779  LEU786  VAL792 
 PHE793  MET794  SER795  GLU796  ALA797  LYS798  CYS799  TRP800  GLU811  SER814 

> <Gold.Protein.RotatedAtoms>
  152.5201  134.3499  159.9247 H   0  0  0  0  0  0  0  0  0  0  0  0  # atno 6907 bound_to 6896
  151.3450  133.3941  159.2682 H   0  0  0  0  0  0  0  0  0  0  0  0  # atno 6908 bound_to 6896
  150.9773  134.9153  159.7881 H   0  0  0  0  0  0  0  0  0  0  0  0  # atno 6909 bound_to 6896
  145.2809  140.9326  143.2932 H   0  0  0  0  0  0  0  0  0  0  0  0  # atno 7974 bound_to 7965
  156.2662  140.2040  156.6217 H   0  0  0  0  0  0  0  0  0  0  0  0  # atno 8008 bound_to 7997
  154.6751  140.0546  157.0231 H   0  0  0  0  0  0  0  0  0  0  0  0  # atno 8009 bound_to 7997
  155.1080  140.3212  155.4532 H   0  0  0  0  0  0  0  0  0  0  0  0  # atno 8010 bound_to 7997
  140.7232  143.5124  150.9734 H   0  0  0  0  0  0  0  0  0  0  0  0  # atno 10167 bound_to 10162
  157.0610  131.0340  151.2647 H   0  0  0  0  0  0  0  0  0  0  0  0  # atno 10718 bound_to 10713
  154.5673  135.2825  155.0861 H   0  0  0  0  0  0  0  0  0  0  0  0  # atno 10763 bound_to 10752
  154.2247  135.6385  153.5160 H   0  0  0  0  0  0  0  0  0  0  0  0  # atno 10764 bound_to 10752
  153.0047  135.5523  154.6285 H   0  0  0  0  0  0  0  0  0  0  0  0  # atno 10765 bound_to 10752
  140.9040  134.1654  157.4439 H   0  0  0  0  0  0  0  0  0  0  0  0  # atno 11005 bound_to 11000
  144.9254  139.4362  143.6521 LP  0  0  0  0  0  0  0  0  0  0  0  0  # atno 17320 bound_to 7965
  146.3216  139.8136  142.8941 LP  0  0  0  0  0  0  0  0  0  0  0  0  # atno 17321 bound_to 7965
  139.8838  143.7038  152.3154 LP  0  0  0  0  0  0  0  0  0  0  0  0  # atno 17342 bound_to 10162
  139.7330  144.7578  151.0772 LP  0  0  0  0  0  0  0  0  0  0  0  0  # atno 17343 bound_to 10162
  157.4955  130.7848  149.7551 LP  0  0  0  0  0  0  0  0  0  0  0  0  # atno 17370 bound_to 10713
  155.9978  130.3897  150.2724 LP  0  0  0  0  0  0  0  0  0  0  0  0  # atno 17371 bound_to 10713
  139.8746  134.9909  156.5526 LP  0  0  0  0  0  0  0  0  0  0  0  0  # atno 17394 bound_to 11000
  140.8194  133.8366  155.8882 LP  0  0  0  0  0  0  0  0  0  0  0  0  # atno 17395 bound_to 11000

$$$$
