AV-unprocessed.smi:1752|AV-procd|sdf|7059|dock4
  -GOLD-   22720 8273D 1   1.00000     0.00000
 Structure written by MMmdl.
 43 44  0  0  0  0  0  0  0  0  2 V2000
  146.8853  141.2693  153.5249 C   0  0  0  0  0  0  0  0  0  0  0  0
  147.7006  139.9748  153.6460 C   0  0  1  0  0  0  0  0  0  0  0  0
  148.4197  139.8887  155.0094 C   0  0  0  0  0  0  0  0  0  0  0  0
  149.6838  139.1776  154.9344 N   0  0  0  0  0  0  0  0  0  0  0  0
  150.2020  138.4605  153.8764 C   0  0  0  0  0  0  0  0  0  0  0  0
  151.4216  137.9864  154.2656 C   0  0  0  0  0  0  0  0  0  0  0  0
  151.5615  138.4675  155.5975 C   0  0  0  0  0  0  0  0  0  0  0  0
  150.5188  139.1785  155.9955 N   0  0  0  0  0  0  0  0  0  0  0  0
  146.8073  138.8315  153.4612 N   0  0  0  0  0  0  0  0  0  0  0  0
  146.5346  138.2234  152.2925 C   0  0  0  0  0  0  0  0  0  0  0  0
  147.0185  138.5943  151.2224 O   0  0  0  0  0  0  0  0  0  0  0  0
  145.7548  137.1193  152.4049 N   0  0  0  0  0  0  0  0  0  0  0  0
  145.4070  136.2386  151.2675 C   0  0  0  0  0  0  0  0  0  0  0  0
  145.1893  134.7562  151.6544 C   0  0  0  0  0  0  0  0  0  0  0  0
  146.3913  134.0719  152.3413 C   0  0  0  0  0  0  0  0  0  0  0  0
  147.0992  134.9049  153.3507 N   0  3  2  0  0  0  0  0  0  0  0  0
  148.2048  134.1629  153.9957 C   0  0  0  0  0  0  0  0  0  0  0  0
  146.2266  135.5872  154.3439 C   0  0  0  0  0  0  0  0  0  0  0  0
  145.3013  136.6641  153.7302 C   0  0  0  0  0  0  0  0  0  0  0  0
  147.5258  142.1458  153.6271 H   0  0  0  0  0  0  0  0  0  0  0  0
  146.1157  141.3292  154.2953 H   0  0  0  0  0  0  0  0  0  0  0  0
  146.3925  141.3348  152.5541 H   0  0  0  0  0  0  0  0  0  0  0  0
  148.4516  139.9940  152.8541 H   0  0  0  0  0  0  0  0  0  0  0  0
  148.6185  140.8904  155.3934 H   0  0  0  0  0  0  0  0  0  0  0  0
  147.7851  139.3948  155.7466 H   0  0  0  0  0  0  0  0  0  0  0  0
  149.6687  138.3548  152.9432 H   0  0  0  0  0  0  0  0  0  0  0  0
  152.1093  137.3871  153.6878 H   0  0  0  0  0  0  0  0  0  0  0  0
  152.3842  138.3220  156.2821 H   0  0  0  0  0  0  0  0  0  0  0  0
  146.3897  138.4486  154.2968 H   0  0  0  0  0  0  0  0  0  0  0  0
  144.5059  136.6282  150.7921 H   0  0  0  0  0  0  0  0  0  0  0  0
  146.1923  136.2605  150.5100 H   0  0  0  0  0  0  0  0  0  0  0  0
  144.3002  134.6459  152.2743 H   0  0  0  0  0  0  0  0  0  0  0  0
  144.9503  134.1949  150.7505 H   0  0  0  0  0  0  0  0  0  0  0  0
  146.0571  133.1419  152.8037 H   0  0  0  0  0  0  0  0  0  0  0  0
  147.1175  133.7927  151.5768 H   0  0  0  0  0  0  0  0  0  0  0  0
  147.8210  133.3520  154.6160 H   0  0  0  0  0  0  0  0  0  0  0  0
  148.8005  134.8241  154.6261 H   0  0  0  0  0  0  0  0  0  0  0  0
  148.8720  133.7350  153.2466 H   0  0  0  0  0  0  0  0  0  0  0  0
  145.6447  134.8539  154.9041 H   0  0  0  0  0  0  0  0  0  0  0  0
  146.8723  136.0839  155.0697 H   0  0  0  0  0  0  0  0  0  0  0  0
  145.2082  137.4999  154.4266 H   0  0  0  0  0  0  0  0  0  0  0  0
  144.2797  136.2930  153.6560 H   0  0  0  0  0  0  0  0  0  0  0  0
  147.5386  135.6505  152.8297 H   0  0  0  0  0  0  0  0  0  0  0  0
  1  2  1  0  0  0  0
  1 20  1  0  0  0  0
  1 21  1  0  0  0  0
  1 22  1  0  0  0  0
  2  3  1  0  0  0  0
  2  9  1  0  0  0  0
  2 23  1  0  0  0  0
  3  4  1  0  0  0  0
  3 24  1  0  0  0  0
  3 25  1  0  0  0  0
  4  8  1  0  0  0  0
  4  5  1  0  0  0  0
  5  6  2  0  0  0  0
  5 26  1  0  0  0  0
  6  7  1  0  0  0  0
  6 27  1  0  0  0  0
  7  8  2  0  0  0  0
  7 28  1  0  0  0  0
  9 10  1  0  0  0  0
  9 29  1  0  0  0  0
 10 11  2  0  0  0  0
 10 12  1  0  0  0  0
 12 19  1  0  0  0  0
 12 13  1  0  0  0  0
 13 14  1  0  0  0  0
 13 30  1  0  0  0  0
 13 31  1  0  0  0  0
 14 15  1  0  0  0  0
 14 32  1  0  0  0  0
 14 33  1  0  0  0  0
 15 16  1  0  0  0  0
 15 34  1  0  0  0  0
 15 35  1  0  0  0  0
 16 17  1  0  0  0  0
 16 18  1  0  0  0  0
 16 43  1  0  0  0  0
 17 36  1  0  0  0  0
 17 37  1  0  0  0  0
 17 38  1  0  0  0  0
 18 19  1  0  0  0  0
 18 39  1  0  0  0  0
 18 40  1  0  0  0  0
 19 41  1  0  0  0  0
 19 42  1  0  0  0  0
M  CHG  1  16   1
M  END
> <s_m_source_file>
AV-unprocessed.smi

> <i_m_source_file_index>
1752

> <i_lp_mmshare_version>
43012

> <i_f3d_flags>
0

> <s_epik_input>
bjFbY0hdW2NIXVtjSF1uMVtDSDJdW0NAQEhdKFtDSDNdKVtOSF1DKD1PKU4yW0NIMl1bQ0gyXVtDSDJdTihbQ0gzXSlbQ0gyXVtDSDJdMg==

> <s_epik_cmdline>
J2VwaWtfcHl0aG9uJywgJy1waCcsICc3LjAnLCAnLXRuJywgJzgnLCAnLW1hJywgJzIwMCcsICctbWV0YWxfYmluZGluZycsICctaW1hZScsICc8aW5maWxlLm1hZT4nLCAnLW9tYWUnLCAnPG91dGZpbGUubWFlPic=

> <r_lp_tautomer_probability>
1

> <r_epik_Ionization_Penalty>
0.00208423

> <r_epik_Ionization_Penalty_Charging>
0.00203643

> <r_epik_Ionization_Penalty_Neutral>
4.77939e-05

> <r_epik_State_Penalty>
0.00139278

> <r_epik_Charging_Adjusted_Penalty>
0.00342922

> <i_epik_Tot_Q>
1

> <i_epik_Tot_abs_Q>
1

> <r_epik_Metal_State_Penalty>
-0

> <b_epik_Metal_Only>
0

> <s_lp_Force_Field>
OPLS_2005

> <r_lp_Energy>
45.8522

> <b_lp_Chiralities_Consistent>
1

> <s_lp_Variant>
AV-unprocessed.smi:1752-2

> <Gold.Version>
5.8.1

> <Gold.Id.Protein>
6NUR|6NUR_protein|mol2

> <Gold.PLP.Fitness>
35.8323

> <Gold.PLP.PLP>
-26.3586

> <Gold.PLP.part.hbond>
-2.0000

> <Gold.PLP.part.metal>
0.0000

> <Gold.PLP.part.buried>
-2.0853

> <Gold.PLP.part.nonpolar>
-25.0215

> <Gold.PLP.part.repulsive>
2.4157

> <Gold.PLP.ligand.clash>
3.4663

> <Gold.PLP.ligand.torsion>
0.8455

> <Gold.PLP.Chemscore.Hbond>
2.9200

> <Gold.PLP.Chemscore.CHOScore>
1.9191

> <Gold.PLP.Chemscore.Metal>
0.0000

> <Gold.Chemscore.Hbonds>
donor molecule, donor type, donor heavy atom, donor atom, acceptor molecule, acceptor atom, score
      L1  H    16    43       P1  7948  1.92
      P1  H  7954  7966       L1    11  1.00
      L1  C     5    26       P1  7948  0.95
      L1  C     5    26       P1  7957  0.91

> <Gold.PLP.Chemscore.Internal.Correction>
0.1138

> <Gold.Rescore>
     Score         DG    S(hbond)    S(metal)    S(lipo)     H(rot)  DE(clash)    DE(int)     intcor
     13.64     -15.73       1.90        0.00      64.18       1.41       1.42       0.67       ----

> <Gold.Chemscore.Fitness>
13.6370

> <Gold.Chemscore.DG>
-15.7257

> <Gold.Chemscore.ZeroCoef>
-5.4800

> <Gold.Chemscore.Hbond>
1.9020

> <Gold.Chemscore.Metal>
0.0000

> <Gold.Chemscore.Lipo>
64.1789

> <Gold.Chemscore.Internal_Hbond>
0.0000

> <Gold.Chemscore.DEClash>
1.4203

> <Gold.Chemscore.DEInternal>
0.6684

> <Gold.Chemscore.Rot>
1.4125

> <Gold.Chemscore.Internal.Correction>
   9.000000E+99

> <Gold.Chemscore.Hbonds>
donor molecule, donor type, donor heavy atom, donor atom, acceptor molecule, acceptor atom, score
      L1  H    16    43       P1  7948  0.92
      P1  H  7954  7966       L1    11  0.97

> <Gold.Chemscore.Hbond.Weighted>
-6.3527

> <Gold.Chemscore.Metal.Weighted>
-0.0000

> <Gold.Chemscore.Lipo.Weighted>
-7.5089

> <Gold.Chemscore.Internal_Hbond.Weighted>
0.0000

> <Gold.Chemscore.DEClash.Weighted>
1.4203

> <Gold.Chemscore.DEInternal.Weighted>
0.6684

> <Gold.Chemscore.Rot.Weighted>
3.6160

> <Gold.Chemscore.Internal.Correction.Weighted>
   9.000000E+99

> <Gold.Protein.RotatedTorsions>
[ 6907 6896 6895 6894 ] final -130.69 input  -60.11 | X-H torsion
[ 7974 7965 7964 7962 ] final    9.50 input  175.53 | X-H torsion
[ 8008 7997 7996 7995 ] final  -54.51 input   59.86 | X-H torsion
[ 10167 10162 10161 10158 ] final   57.51 input  -65.29 | X-H torsion
[ 10718 10713 10712 10709 ] final  -53.30 input   66.30 | X-H torsion
[ 10763 10752 10751 10750 ] final  -68.77 input  -60.55 | X-H torsion
[ 11005 11000 10999 10996 ] final  -63.06 input  -57.11 | X-H torsion

> <Gold.Protein.ActiveResidues>
 VAL166  LYS551  ARG553  GLY616  TRP617  ASP618  TYR619  PRO620  LYS621  CYS622 
 ASP623  PHE694  ASN695  SER759  ASP760  ASP761  ALA762  ILE779  LEU786  VAL792 
 PHE793  MET794  SER795  GLU796  ALA797  LYS798  CYS799  TRP800  GLU811  SER814 

> <Gold.Protein.RotatedAtoms>
  150.9426  133.6639  159.2787 H   0  0  0  0  0  0  0  0  0  0  0  0  # atno 6907 bound_to 6896
  151.4023  135.0972  159.9569 H   0  0  0  0  0  0  0  0  0  0  0  0  # atno 6908 bound_to 6896
  152.5076  133.8917  159.7452 H   0  0  0  0  0  0  0  0  0  0  0  0  # atno 6909 bound_to 6896
  146.2402  139.9773  142.8440 H   0  0  0  0  0  0  0  0  0  0  0  0  # atno 7974 bound_to 7965
  154.4165  140.1174  156.5327 H   0  0  0  0  0  0  0  0  0  0  0  0  # atno 8008 bound_to 7997
  155.6589  140.3496  155.4756 H   0  0  0  0  0  0  0  0  0  0  0  0  # atno 8009 bound_to 7997
  155.9730  140.1145  157.0785 H   0  0  0  0  0  0  0  0  0  0  0  0  # atno 8010 bound_to 7997
  140.1972  144.4025  150.6545 H   0  0  0  0  0  0  0  0  0  0  0  0  # atno 10167 bound_to 10162
  156.1546  130.4150  149.9889 H   0  0  0  0  0  0  0  0  0  0  0  0  # atno 10718 bound_to 10713
  154.3938  135.6046  153.5858 H   0  0  0  0  0  0  0  0  0  0  0  0  # atno 10763 bound_to 10752
  152.9787  135.5890  154.4265 H   0  0  0  0  0  0  0  0  0  0  0  0  # atno 10764 bound_to 10752
  154.4054  135.2843  155.2049 H   0  0  0  0  0  0  0  0  0  0  0  0  # atno 10765 bound_to 10752
  141.1381  133.6647  156.5623 H   0  0  0  0  0  0  0  0  0  0  0  0  # atno 11005 bound_to 11000
  145.1624  140.9680  143.4369 LP  0  0  0  0  0  0  0  0  0  0  0  0  # atno 17320 bound_to 7965
  145.0103  139.3516  143.6123 LP  0  0  0  0  0  0  0  0  0  0  0  0  # atno 17321 bound_to 7965
  140.6415  143.2204  151.6279 LP  0  0  0  0  0  0  0  0  0  0  0  0  # atno 17342 bound_to 10162
  139.5232  144.3141  152.0967 LP  0  0  0  0  0  0  0  0  0  0  0  0  # atno 17343 bound_to 10162
  156.7736  130.9195  151.3645 LP  0  0  0  0  0  0  0  0  0  0  0  0  # atno 17370 bound_to 10713
  157.6685  130.9029  149.9986 LP  0  0  0  0  0  0  0  0  0  0  0  0  # atno 17371 bound_to 10713
  140.3978  134.7383  157.4761 LP  0  0  0  0  0  0  0  0  0  0  0  0  # atno 17394 bound_to 11000
  140.0518  134.6119  155.8852 LP  0  0  0  0  0  0  0  0  0  0  0  0  # atno 17395 bound_to 11000

$$$$
