AV-unprocessed.smi:1876|AV-procd|sdf|7621|dock2
  -GOLD-   22720 9353D 1   1.00000     0.00000
 Structure written by MMmdl.
 31 32  0  0  0  0  0  0  0  0  1 V2000
  149.5155  124.7479  150.5790 C   0  0  0  0  0  0  0  0  0  0  0  0
  148.8016  125.9610  151.0685 C   0  0  0  0  0  0  0  0  0  0  0  0
  148.6394  127.2166  150.5537 C   0  0  0  0  0  0  0  0  0  0  0  0
  147.8453  127.8652  151.5366 C   0  0  0  0  0  0  0  0  0  0  0  0
  147.4454  129.2164  151.3747 N   0  0  0  0  0  0  0  0  0  0  0  0
  146.3634  129.8178  151.8977 C   0  0  0  0  0  0  0  0  0  0  0  0
  145.5326  129.2743  152.6264 O   0  0  0  0  0  0  0  0  0  0  0  0
  146.2917  131.1036  151.5235 N   0  0  0  0  0  0  0  0  0  0  0  0
  145.2157  132.0289  151.8732 C   0  0  1  0  0  0  0  0  0  0  0  0
  145.7667  133.2678  152.6040 C   0  0  0  0  0  0  0  0  0  0  0  0
  144.6571  134.3049  152.7995 C   0  0  0  0  0  0  0  0  0  0  0  0
  144.0529  134.7102  151.4452 C   0  0  0  0  0  0  0  0  0  0  0  0
  143.7777  133.5704  150.5685 N   0  0  0  0  0  0  0  0  0  0  0  0
  144.3261  132.3457  150.6577 C   0  0  0  0  0  0  0  0  0  0  0  0
  144.0981  131.4794  149.8146 O   0  0  0  0  0  0  0  0  0  0  0  0
  147.5510  127.0771  152.5595 N   0  0  0  0  0  0  0  0  0  0  0  0
  148.1617  125.8527  152.2643 O   0  0  0  0  0  0  0  0  0  0  0  0
  150.1291  124.9810  149.7088 H   0  0  0  0  0  0  0  0  0  0  0  0
  148.8056  123.9714  150.2942 H   0  0  0  0  0  0  0  0  0  0  0  0
  150.1674  124.3434  151.3534 H   0  0  0  0  0  0  0  0  0  0  0  0
  149.0259  127.6043  149.6227 H   0  0  0  0  0  0  0  0  0  0  0  0
  148.0422  129.7827  150.7900 H   0  0  0  0  0  0  0  0  0  0  0  0
  147.0172  131.4656  150.9220 H   0  0  0  0  0  0  0  0  0  0  0  0
  144.5466  131.5147  152.5658 H   0  0  0  0  0  0  0  0  0  0  0  0
  146.1836  132.9844  153.5711 H   0  0  0  0  0  0  0  0  0  0  0  0
  146.5821  133.7105  152.0299 H   0  0  0  0  0  0  0  0  0  0  0  0
  143.8782  133.8855  153.4376 H   0  0  0  0  0  0  0  0  0  0  0  0
  145.0431  135.1834  153.3170 H   0  0  0  0  0  0  0  0  0  0  0  0
  143.1330  135.2753  151.5976 H   0  0  0  0  0  0  0  0  0  0  0  0
  144.7431  135.3718  150.9208 H   0  0  0  0  0  0  0  0  0  0  0  0
  143.1652  133.7464  149.7852 H   0  0  0  0  0  0  0  0  0  0  0  0
  1  2  1  0  0  0  0
  1 18  1  0  0  0  0
  1 19  1  0  0  0  0
  1 20  1  0  0  0  0
  2 17  1  0  0  0  0
  2  3  2  0  0  0  0
  3  4  1  0  0  0  0
  3 21  1  0  0  0  0
  4  5  1  0  0  0  0
  4 16  2  0  0  0  0
  5  6  1  0  0  0  0
  5 22  1  0  0  0  0
  6  7  2  0  0  0  0
  6  8  1  0  0  0  0
  8  9  1  0  0  0  0
  8 23  1  0  0  0  0
  9 14  1  0  0  0  0
  9 10  1  0  0  0  0
  9 24  1  0  0  0  0
 10 11  1  0  0  0  0
 10 25  1  0  0  0  0
 10 26  1  0  0  0  0
 11 12  1  0  0  0  0
 11 27  1  0  0  0  0
 11 28  1  0  0  0  0
 12 13  1  0  0  0  0
 12 29  1  0  0  0  0
 12 30  1  0  0  0  0
 13 14  1  0  0  0  0
 13 31  1  0  0  0  0
 14 15  2  0  0  0  0
 16 17  1  0  0  0  0
M  END
> <s_m_source_file>
AV-unprocessed.smi

> <i_m_source_file_index>
1876

> <i_lp_mmshare_version>
43012

> <i_f3d_flags>
0

> <s_epik_input>
W0NIM11jMVtjSF1jKG5vMSlbTkhdQyg9TylbTkhdW0NAQEhdMltDSDJdW0NIMl1bQ0gyXVtOSF1DMj1P

> <s_epik_cmdline>
J2VwaWtfcHl0aG9uJywgJy1waCcsICc3LjAnLCAnLXRuJywgJzgnLCAnLW1hJywgJzIwMCcsICctbWV0YWxfYmluZGluZycsICctaW1hZScsICc8aW5maWxlLm1hZT4nLCAnLW9tYWUnLCAnPG91dGZpbGUubWFlPic=

> <r_lp_tautomer_probability>
1

> <r_epik_Ionization_Penalty>
2.33177e-05

> <r_epik_Ionization_Penalty_Charging>
0

> <r_epik_Ionization_Penalty_Neutral>
2.33177e-05

> <r_epik_State_Penalty>
-0

> <r_epik_Charging_Adjusted_Penalty>
0

> <i_epik_Tot_Q>
0

> <i_epik_Tot_abs_Q>
0

> <r_epik_Metal_State_Penalty>
-0

> <b_epik_Metal_Only>
0

> <s_lp_Force_Field>
OPLS_2005

> <r_lp_Energy>
6.99083

> <b_lp_Chiralities_Consistent>
1

> <s_lp_Variant>
AV-unprocessed.smi:1876-2

> <Gold.Version>
5.8.1

> <Gold.Id.Protein>
6NUR|6NUR_protein|mol2

> <Gold.PLP.Fitness>
38.0302

> <Gold.PLP.PLP>
-31.5925

> <Gold.PLP.part.hbond>
-4.6414

> <Gold.PLP.part.metal>
0.0000

> <Gold.PLP.part.buried>
-6.0960

> <Gold.PLP.part.nonpolar>
-22.0840

> <Gold.PLP.part.repulsive>
0.4989

> <Gold.PLP.ligand.clash>
0.0000

> <Gold.PLP.ligand.torsion>
0.2116

> <Gold.PLP.Chemscore.Hbond>
2.2729

> <Gold.PLP.Chemscore.CHOScore>
0.0000

> <Gold.PLP.Chemscore.Metal>
0.0000

> <Gold.Chemscore.Hbonds>
donor molecule, donor type, donor heavy atom, donor atom, acceptor molecule, acceptor atom, score
      L1  H     5    22       P1 10747  0.86
      L1  H     8    23       P1 10747  0.51
      L1  H    13    31       P1 10186  0.27
      P1  H 10785 10796       L1    15  0.64

> <Gold.PLP.Chemscore.Internal.Correction>
0.0422

> <Gold.Rescore>
     Score         DG    S(hbond)    S(metal)    S(lipo)     H(rot)  DE(clash)    DE(int)     intcor
     14.97     -16.60       2.59        0.00      42.92       1.00       0.31       1.32       ----

> <Gold.Chemscore.Fitness>
14.9680

> <Gold.Chemscore.DG>
-16.6015

> <Gold.Chemscore.ZeroCoef>
-5.4800

> <Gold.Chemscore.Hbond>
2.5928

> <Gold.Chemscore.Metal>
0.0000

> <Gold.Chemscore.Lipo>
42.9193

> <Gold.Chemscore.Internal_Hbond>
0.0000

> <Gold.Chemscore.DEClash>
0.3095

> <Gold.Chemscore.DEInternal>
1.3241

> <Gold.Chemscore.Rot>
1.0000

> <Gold.Chemscore.Internal.Correction>
   9.000000E+99

> <Gold.Chemscore.Hbonds>
donor molecule, donor type, donor heavy atom, donor atom, acceptor molecule, acceptor atom, score
      L1  H     5    22       P1 10747  0.74
      L1  H     8    23       P1 10747  0.52
      L1  H    13    31       P1 10186  0.27
      P1  H 10785 10796       L1    15  0.64

> <Gold.Chemscore.Hbond.Weighted>
-8.6600

> <Gold.Chemscore.Metal.Weighted>
-0.0000

> <Gold.Chemscore.Lipo.Weighted>
-5.0216

> <Gold.Chemscore.Internal_Hbond.Weighted>
0.0000

> <Gold.Chemscore.DEClash.Weighted>
0.3095

> <Gold.Chemscore.DEInternal.Weighted>
1.3241

> <Gold.Chemscore.Rot.Weighted>
2.5600

> <Gold.Chemscore.Internal.Correction.Weighted>
   9.000000E+99

> <Gold.Protein.RotatedTorsions>
[ 6907 6896 6895 6894 ] final -129.24 input  -60.11 | X-H torsion
[ 7974 7965 7964 7962 ] final  122.06 input  175.53 | X-H torsion
[ 8008 7997 7996 7995 ] final  -36.48 input   59.86 | X-H torsion
[ 10167 10162 10161 10158 ] final  -56.90 input  -65.29 | X-H torsion
[ 10718 10713 10712 10709 ] final -131.10 input   66.30 | X-H torsion
[ 10763 10752 10751 10750 ] final   87.54 input  -60.55 | X-H torsion
[ 11005 11000 10999 10996 ] final  -38.78 input  -57.11 | X-H torsion

> <Gold.Protein.ActiveResidues>
 VAL166  LYS551  ARG553  GLY616  TRP617  ASP618  TYR619  PRO620  LYS621  CYS622 
 ASP623  PHE694  ASN695  SER759  ASP760  ASP761  ALA762  ILE779  LEU786  VAL792 
 PHE793  MET794  SER795  GLU796  ALA797  LYS798  CYS799  TRP800  GLU811  SER814 

> <Gold.Protein.RotatedAtoms>
  150.9265  133.6817  159.2819 H   0  0  0  0  0  0  0  0  0  0  0  0  # atno 6907 bound_to 6896
  151.4254  135.1002  159.9636 H   0  0  0  0  0  0  0  0  0  0  0  0  # atno 6908 bound_to 6896
  152.5005  133.8707  159.7352 H   0  0  0  0  0  0  0  0  0  0  0  0  # atno 6909 bound_to 6896
  145.1120  139.3446  143.4758 H   0  0  0  0  0  0  0  0  0  0  0  0  # atno 7974 bound_to 7965
  154.4072  140.1629  156.2381 H   0  0  0  0  0  0  0  0  0  0  0  0  # atno 8008 bound_to 7997
  155.9225  140.3420  155.6161 H   0  0  0  0  0  0  0  0  0  0  0  0  # atno 8009 bound_to 7997
  155.7205  140.0768  157.2323 H   0  0  0  0  0  0  0  0  0  0  0  0  # atno 8010 bound_to 7997
  140.6290  143.2451  151.5291 H   0  0  0  0  0  0  0  0  0  0  0  0  # atno 10167 bound_to 10162
  156.2210  130.6978  151.0755 H   0  0  0  0  0  0  0  0  0  0  0  0  # atno 10718 bound_to 10713
  153.1678  135.4540  154.9861 H   0  0  0  0  0  0  0  0  0  0  0  0  # atno 10763 bound_to 10752
  154.7944  135.3232  154.7703 H   0  0  0  0  0  0  0  0  0  0  0  0  # atno 10764 bound_to 10752
  153.8184  135.6949  153.4885 H   0  0  0  0  0  0  0  0  0  0  0  0  # atno 10765 bound_to 10752
  141.0053  133.6934  156.2099 H   0  0  0  0  0  0  0  0  0  0  0  0  # atno 11005 bound_to 11000
  146.3526  140.1043  142.8606 LP  0  0  0  0  0  0  0  0  0  0  0  0  # atno 17320 bound_to 7965
  145.0836  140.9238  143.4810 LP  0  0  0  0  0  0  0  0  0  0  0  0  # atno 17321 bound_to 7965
  139.5506  144.2405  152.1523 LP  0  0  0  0  0  0  0  0  0  0  0  0  # atno 17342 bound_to 10162
  140.1644  144.4995  150.6614 LP  0  0  0  0  0  0  0  0  0  0  0  0  # atno 17343 bound_to 10162
  157.7087  131.0744  150.6576 LP  0  0  0  0  0  0  0  0  0  0  0  0  # atno 17370 bound_to 10713
  156.6639  130.4520  149.5678 LP  0  0  0  0  0  0  0  0  0  0  0  0  # atno 17371 bound_to 10713
  140.6822  134.4755  157.5589 LP  0  0  0  0  0  0  0  0  0  0  0  0  # atno 17394 bound_to 11000
  139.9060  134.8448  156.1704 LP  0  0  0  0  0  0  0  0  0  0  0  0  # atno 17395 bound_to 11000

$$$$
