AV-unprocessed.smi:2391|AV-procd|sdf|9485|dock6
  -GOLD-   2272013113D 1   1.00000     0.00000
 Structure written by MMmdl.
 34 35  0  0  0  0  0  0  0  0  2 V2000
  152.2554  138.7872  158.6567 O   0  0  0  0  0  0  0  0  0  0  0  0
  152.6905  139.7118  157.9667 C   0  0  0  0  0  0  0  0  0  0  0  0
  152.6594  139.7864  156.6156 N   0  5  0  0  0  0  0  0  0  0  0  0
  151.5427  140.1792  155.9843 C   0  0  0  0  0  0  0  0  0  0  0  0
  150.6821  141.1274  156.5816 C   0  0  0  0  0  0  0  0  0  0  0  0
  149.5189  141.5051  155.8904 C   0  0  0  0  0  0  0  0  0  0  0  0
  149.2894  140.9013  154.6428 C   0  0  0  0  0  0  0  0  0  0  0  0
  150.1343  139.9920  154.1111 N   0  0  0  0  0  0  0  0  0  0  0  0
  151.2396  139.6385  154.7767 N   0  0  0  0  0  0  0  0  0  0  0  0
  153.2659  140.7730  158.5502 N   0  0  0  0  0  0  0  0  0  0  0  0
  153.4453  140.9903  159.9875 C   0  0  2  0  0  0  0  0  0  0  0  0
  153.2140  142.4910  160.2997 C   0  0  0  0  0  0  0  0  0  0  0  0
  152.8228  142.8042  161.7499 C   0  0  0  0  0  0  0  0  0  0  0  0
  152.1351  144.1745  161.7123 C   0  0  0  0  0  0  0  0  0  0  0  0
  151.7209  144.4121  160.2539 C   0  0  0  0  0  0  0  0  0  0  0  0
  152.0684  143.1261  159.5004 C   0  0  0  0  0  0  0  0  0  0  0  0
  154.8371  140.4688  160.4215 C   0  0  0  0  0  0  0  0  0  0  0  0
  155.0165  140.6511  161.7303 F   0  0  0  0  0  0  0  0  0  0  0  0
  154.9548  139.1678  160.1530 F   0  0  0  0  0  0  0  0  0  0  0  0
  155.8085  141.1269  159.7902 F   0  0  0  0  0  0  0  0  0  0  0  0
  150.9111  141.5575  157.5458 H   0  0  0  0  0  0  0  0  0  0  0  0
  148.8310  142.2289  156.3011 H   0  0  0  0  0  0  0  0  0  0  0  0
  148.4136  141.1493  154.0617 H   0  0  0  0  0  0  0  0  0  0  0  0
  153.6098  141.4998  157.9399 H   0  0  0  0  0  0  0  0  0  0  0  0
  152.6873  140.4225  160.5300 H   0  0  0  0  0  0  0  0  0  0  0  0
  154.1255  143.0453  160.0692 H   0  0  0  0  0  0  0  0  0  0  0  0
  152.1167  142.0560  162.1129 H   0  0  0  0  0  0  0  0  0  0  0  0
  153.6800  142.8029  162.4234 H   0  0  0  0  0  0  0  0  0  0  0  0
  151.2767  144.1988  162.3845 H   0  0  0  0  0  0  0  0  0  0  0  0
  152.8232  144.9565  162.0358 H   0  0  0  0  0  0  0  0  0  0  0  0
  150.6633  144.6612  160.1605 H   0  0  0  0  0  0  0  0  0  0  0  0
  152.2910  145.2462  159.8433 H   0  0  0  0  0  0  0  0  0  0  0  0
  152.3359  143.3196  158.4610 H   0  0  0  0  0  0  0  0  0  0  0  0
  151.2042  142.4600  159.4983 H   0  0  0  0  0  0  0  0  0  0  0  0
  1  2  2  0  0  0  0
  2  3  1  0  0  0  0
  2 10  1  0  0  0  0
  3  4  1  0  0  0  0
  4  9  1  0  0  0  0
  4  5  2  0  0  0  0
  5  6  1  0  0  0  0
  5 21  1  0  0  0  0
  6  7  2  0  0  0  0
  6 22  1  0  0  0  0
  7  8  1  0  0  0  0
  7 23  1  0  0  0  0
  8  9  2  0  0  0  0
 10 11  1  0  0  0  0
 10 24  1  0  0  0  0
 11 12  1  0  0  0  0
 11 17  1  0  0  0  0
 11 25  1  0  0  0  0
 12 16  1  0  0  0  0
 12 13  1  0  0  0  0
 12 26  1  0  0  0  0
 13 14  1  0  0  0  0
 13 27  1  0  0  0  0
 13 28  1  0  0  0  0
 14 15  1  0  0  0  0
 14 29  1  0  0  0  0
 14 30  1  0  0  0  0
 15 16  1  0  0  0  0
 15 31  1  0  0  0  0
 15 32  1  0  0  0  0
 16 33  1  0  0  0  0
 16 34  1  0  0  0  0
 17 18  1  0  0  0  0
 17 19  1  0  0  0  0
 17 20  1  0  0  0  0
M  CHG  1   3  -1
M  END
> <s_m_source_file>
AV-unprocessed.smi

> <i_m_source_file_index>
2391

> <i_lp_mmshare_version>
43012

> <i_f3d_flags>
0

> <s_epik_input>
W0NIMl0xW0NIMl1bQ0gyXVtDSDJdW0NIXTFbQ0BIXShDKEYpKEYpRilbTkhdQyg9TylbTkhdYzJbY0hdW2NIXVtjSF1ubjI=

> <s_epik_cmdline>
J2VwaWtfcHl0aG9uJywgJy1waCcsICc3LjAnLCAnLXRuJywgJzgnLCAnLW1hJywgJzIwMCcsICctbWV0YWxfYmluZGluZycsICctaW1hZScsICc8aW5maWxlLm1hZT4nLCAnLW9tYWUnLCAnPG91dGZpbGUubWFlPic=

> <r_lp_tautomer_probability>
1

> <r_epik_Ionization_Penalty>
8.90766

> <r_epik_Ionization_Penalty_Charging>
5.82661

> <r_epik_Ionization_Penalty_Neutral>
3.08106

> <r_epik_State_Penalty>
5.83894

> <r_epik_Charging_Adjusted_Penalty>
11.6655

> <i_epik_Tot_Q>
-1

> <i_epik_Tot_abs_Q>
1

> <r_epik_Metal_State_Penalty>
1.80768

> <b_epik_Metal_Only>
1

> <s_lp_Force_Field>
OPLS_2005

> <r_lp_Energy>
28.0244

> <b_lp_Chiralities_Consistent>
1

> <s_lp_Variant>
AV-unprocessed.smi:2391-5

> <Gold.Version>
5.8.1

> <Gold.Id.Protein>
6NUR|6NUR_protein|mol2

> <Gold.PLP.Fitness>
48.5040

> <Gold.PLP.PLP>
-45.5122

> <Gold.PLP.part.hbond>
-3.0000

> <Gold.PLP.part.metal>
0.0000

> <Gold.PLP.part.buried>
-2.4214

> <Gold.PLP.part.nonpolar>
-40.4727

> <Gold.PLP.part.repulsive>
1.1805

> <Gold.PLP.ligand.clash>
0.0000

> <Gold.PLP.ligand.torsion>
1.6996

> <Gold.PLP.Chemscore.Hbond>
2.0000

> <Gold.PLP.Chemscore.CHOScore>
0.0000

> <Gold.PLP.Chemscore.Metal>
0.0000

> <Gold.Chemscore.Hbonds>
donor molecule, donor type, donor heavy atom, donor atom, acceptor molecule, acceptor atom, score
      P1  H  7997  8008       L1     3  2.00

> <Gold.PLP.Chemscore.Internal.Correction>
0.3910

> <Gold.Rescore>
     Score         DG    S(hbond)    S(metal)    S(lipo)     H(rot)  DE(clash)    DE(int)     intcor
     13.00     -15.65       0.73        0.00      94.85       1.32       0.35       2.30       ----

> <Gold.Chemscore.Fitness>
12.9957

> <Gold.Chemscore.DG>
-15.6524

> <Gold.Chemscore.ZeroCoef>
-5.4800

> <Gold.Chemscore.Hbond>
0.7332

> <Gold.Chemscore.Metal>
0.0000

> <Gold.Chemscore.Lipo>
94.8478

> <Gold.Chemscore.Internal_Hbond>
0.0000

> <Gold.Chemscore.DEClash>
0.3535

> <Gold.Chemscore.DEInternal>
2.3033

> <Gold.Chemscore.Rot>
1.3179

> <Gold.Chemscore.Internal.Correction>
   9.000000E+99

> <Gold.Chemscore.Hbonds>
donor molecule, donor type, donor heavy atom, donor atom, acceptor molecule, acceptor atom, score
      P1  H  7997  8008       L1     3  0.30

> <Gold.Chemscore.Hbond.Weighted>
-2.4490

> <Gold.Chemscore.Metal.Weighted>
-0.0000

> <Gold.Chemscore.Lipo.Weighted>
-11.0972

> <Gold.Chemscore.Internal_Hbond.Weighted>
0.0000

> <Gold.Chemscore.DEClash.Weighted>
0.3535

> <Gold.Chemscore.DEInternal.Weighted>
2.3033

> <Gold.Chemscore.Rot.Weighted>
3.3737

> <Gold.Chemscore.Internal.Correction.Weighted>
   9.000000E+99

> <Gold.Protein.RotatedTorsions>
[ 6907 6896 6895 6894 ] final   29.37 input  -60.11 | X-H torsion
[ 7974 7965 7964 7962 ] final  -71.45 input  175.53 | X-H torsion
[ 8008 7997 7996 7995 ] final  -36.56 input   59.86 | X-H torsion
[ 10167 10162 10161 10158 ] final   64.61 input  -65.29 | X-H torsion
[ 10718 10713 10712 10709 ] final  -17.80 input   66.30 | X-H torsion
[ 10763 10752 10751 10750 ] final -120.19 input  -60.55 | X-H torsion
[ 11005 11000 10999 10996 ] final -167.14 input  -57.11 | X-H torsion

> <Gold.Protein.ActiveResidues>
 VAL166  LYS551  ARG553  GLY616  TRP617  ASP618  TYR619  PRO620  LYS621  CYS622 
 ASP623  PHE694  ASN695  SER759  ASP760  ASP761  ALA762  ILE779  LEU786  VAL792 
 PHE793  MET794  SER795  GLU796  ALA797  LYS798  CYS799  TRP800  GLU811  SER814 

> <Gold.Protein.RotatedAtoms>
  152.0305  134.9770  160.0572 H   0  0  0  0  0  0  0  0  0  0  0  0  # atno 6907 bound_to 6896
  152.1249  133.4369  159.4701 H   0  0  0  0  0  0  0  0  0  0  0  0  # atno 6908 bound_to 6896
  150.6852  134.2409  159.4515 H   0  0  0  0  0  0  0  0  0  0  0  0  # atno 6909 bound_to 6896
  145.6779  140.9198  143.0848 H   0  0  0  0  0  0  0  0  0  0  0  0  # atno 7974 bound_to 7965
  154.4070  140.1627  156.2395 H   0  0  0  0  0  0  0  0  0  0  0  0  # atno 8008 bound_to 7997
  155.9214  140.3421  155.6153 H   0  0  0  0  0  0  0  0  0  0  0  0  # atno 8009 bound_to 7997
  155.7218  140.0769  157.2318 H   0  0  0  0  0  0  0  0  0  0  0  0  # atno 8010 bound_to 7997
  140.1203  144.4737  150.6924 H   0  0  0  0  0  0  0  0  0  0  0  0  # atno 10167 bound_to 10162
  156.5685  130.4743  149.6374 H   0  0  0  0  0  0  0  0  0  0  0  0  # atno 10718 bound_to 10713
  154.8638  135.4211  154.2420 H   0  0  0  0  0  0  0  0  0  0  0  0  # atno 10763 bound_to 10752
  153.3383  135.6992  153.6894 H   0  0  0  0  0  0  0  0  0  0  0  0  # atno 10764 bound_to 10752
  153.5883  135.3559  155.2874 H   0  0  0  0  0  0  0  0  0  0  0  0  # atno 10765 bound_to 10752
  140.5566  134.5375  157.5134 H   0  0  0  0  0  0  0  0  0  0  0  0  # atno 11005 bound_to 11000
  144.7035  139.8658  143.7437 LP  0  0  0  0  0  0  0  0  0  0  0  0  # atno 17320 bound_to 7965
  146.0989  139.3983  143.0359 LP  0  0  0  0  0  0  0  0  0  0  0  0  # atno 17321 bound_to 7965
  140.6876  143.2358  151.5219 LP  0  0  0  0  0  0  0  0  0  0  0  0  # atno 17342 bound_to 10162
  139.5572  144.2246  152.1632 LP  0  0  0  0  0  0  0  0  0  0  0  0  # atno 17343 bound_to 10162
  156.2736  130.7031  151.1835 LP  0  0  0  0  0  0  0  0  0  0  0  0  # atno 17370 bound_to 10713
  157.7353  131.0573  150.5475 LP  0  0  0  0  0  0  0  0  0  0  0  0  # atno 17371 bound_to 10713
  139.9429  134.7755  156.0634 LP  0  0  0  0  0  0  0  0  0  0  0  0  # atno 17394 bound_to 11000
  141.1140  133.6634  156.3048 LP  0  0  0  0  0  0  0  0  0  0  0  0  # atno 17395 bound_to 11000

$$$$
