AV-unprocessed.smi:2178|AV-procd|sdf|8852|dock10
  -GOLD-   2272012 43D 1   1.00000     0.00000
 Structure written by MMmdl.
 46 48  0  0  0  0  0  0  0  0  1 V2000
  151.4568  145.5289  159.4004 C   0  0  0  0  0  0  0  0  0  0  0  0
  152.2060  144.5348  160.2689 C   0  0  0  0  0  0  0  0  0  0  0  0
  152.4877  144.8663  161.6102 C   0  0  0  0  0  0  0  0  0  0  0  0
  153.1977  143.9690  162.4291 C   0  0  0  0  0  0  0  0  0  0  0  0
  153.6345  142.7369  161.9091 C   0  0  0  0  0  0  0  0  0  0  0  0
  153.3561  142.3931  160.5701 C   0  0  0  0  0  0  0  0  0  0  0  0
  153.8394  141.0646  160.0190 C   0  0  0  0  0  0  0  0  0  0  0  0
  152.6277  143.2865  159.7506 C   0  0  0  0  0  0  0  0  0  0  0  0
  152.3602  142.9462  158.4497 O   0  0  0  0  0  0  0  0  0  0  0  0
  150.9750  142.8076  158.1689 C   0  0  0  0  0  0  0  0  0  0  0  0
  150.7182  141.3959  157.6211 C   0  0  2  0  0  0  0  0  0  0  0  0
  151.2364  140.4553  158.5416 O   0  0  0  0  0  0  0  0  0  0  0  0
  151.3862  141.1822  156.2479 C   0  0  0  0  0  0  0  0  0  0  0  0
  150.6847  140.2038  155.4273 N   0  0  0  0  0  0  0  0  0  0  0  0
  151.1051  138.9678  155.0567 C   0  0  0  0  0  0  0  0  0  0  0  0
  152.4302  138.4127  155.4812 C   0  0  0  0  0  0  0  0  0  0  0  0
  153.5093  139.2540  155.1352 O   0  0  0  0  0  0  0  0  0  0  0  0
  150.2612  138.2714  154.2948 N   0  0  0  0  0  0  0  0  0  0  0  0
  149.1914  139.1345  154.1600 C   0  0  0  0  0  0  0  0  0  0  0  0
  147.9708  138.9807  153.4645 C   0  0  0  0  0  0  0  0  0  0  0  0
  147.0118  140.0148  153.4681 C   0  0  0  0  0  0  0  0  0  0  0  0
  147.2589  141.2145  154.1664 C   0  0  0  0  0  0  0  0  0  0  0  0
  148.4683  141.3880  154.8666 C   0  0  0  0  0  0  0  0  0  0  0  0
  149.4230  140.3531  154.8589 C   0  0  0  0  0  0  0  0  0  0  0  0
  151.6312  146.5502  159.7402 H   0  0  0  0  0  0  0  0  0  0  0  0
  150.3851  145.3345  159.4433 H   0  0  0  0  0  0  0  0  0  0  0  0
  151.7778  145.4655  158.3603 H   0  0  0  0  0  0  0  0  0  0  0  0
  152.1626  145.8133  162.0153 H   0  0  0  0  0  0  0  0  0  0  0  0
  153.4128  144.2287  163.4552 H   0  0  0  0  0  0  0  0  0  0  0  0
  154.1856  142.0573  162.5427 H   0  0  0  0  0  0  0  0  0  0  0  0
  154.3271  141.2037  159.0537 H   0  0  0  0  0  0  0  0  0  0  0  0
  152.9998  140.3822  159.8861 H   0  0  0  0  0  0  0  0  0  0  0  0
  154.5564  140.5938  160.6922 H   0  0  0  0  0  0  0  0  0  0  0  0
  150.4247  142.9444  159.1011 H   0  0  0  0  0  0  0  0  0  0  0  0
  150.6166  143.5710  157.4765 H   0  0  0  0  0  0  0  0  0  0  0  0
  149.6440  141.2354  157.5263 H   0  0  0  0  0  0  0  0  0  0  0  0
  150.5984  139.7687  158.6615 H   0  0  0  0  0  0  0  0  0  0  0  0
  151.4373  142.1234  155.7004 H   0  0  0  0  0  0  0  0  0  0  0  0
  152.4190  140.8548  156.3752 H   0  0  0  0  0  0  0  0  0  0  0  0
  152.4313  138.2722  156.5628 H   0  0  0  0  0  0  0  0  0  0  0  0
  152.5816  137.4289  155.0384 H   0  0  0  0  0  0  0  0  0  0  0  0
  153.6208  139.2279  154.1973 H   0  0  0  0  0  0  0  0  0  0  0  0
  147.7725  138.0651  152.9273 H   0  0  0  0  0  0  0  0  0  0  0  0
  146.0826  139.8867  152.9326 H   0  0  0  0  0  0  0  0  0  0  0  0
  146.5194  142.0018  154.1638 H   0  0  0  0  0  0  0  0  0  0  0  0
  148.6604  142.3063  155.4009 H   0  0  0  0  0  0  0  0  0  0  0  0
  1  2  1  0  0  0  0
  1 25  1  0  0  0  0
  1 26  1  0  0  0  0
  1 27  1  0  0  0  0
  2  8  1  0  0  0  0
  2  3  2  0  0  0  0
  3  4  1  0  0  0  0
  3 28  1  0  0  0  0
  4  5  2  0  0  0  0
  4 29  1  0  0  0  0
  5  6  1  0  0  0  0
  5 30  1  0  0  0  0
  6  7  1  0  0  0  0
  6  8  2  0  0  0  0
  7 31  1  0  0  0  0
  7 32  1  0  0  0  0
  7 33  1  0  0  0  0
  8  9  1  0  0  0  0
  9 10  1  0  0  0  0
 10 11  1  0  0  0  0
 10 34  1  0  0  0  0
 10 35  1  0  0  0  0
 11 12  1  0  0  0  0
 11 13  1  0  0  0  0
 11 36  1  0  0  0  0
 12 37  1  0  0  0  0
 13 14  1  0  0  0  0
 13 38  1  0  0  0  0
 13 39  1  0  0  0  0
 14 24  1  0  0  0  0
 14 15  1  0  0  0  0
 15 16  1  0  0  0  0
 15 18  2  0  0  0  0
 16 17  1  0  0  0  0
 16 40  1  0  0  0  0
 16 41  1  0  0  0  0
 17 42  1  0  0  0  0
 18 19  1  0  0  0  0
 19 24  2  0  0  0  0
 19 20  1  0  0  0  0
 20 21  2  0  0  0  0
 20 43  1  0  0  0  0
 21 22  1  0  0  0  0
 21 44  1  0  0  0  0
 22 23  2  0  0  0  0
 22 45  1  0  0  0  0
 23 24  1  0  0  0  0
 23 46  1  0  0  0  0
M  END
> <s_m_source_file>
AV-unprocessed.smi

> <i_m_source_file_index>
2178

> <i_lp_mmshare_version>
43012

> <i_f3d_flags>
0

> <s_epik_input>
W0NIM11jMVtjSF1bY0hdW2NIXWMoW0NIM10pYzFPW0NIMl1bQ0BIXShbT0hdKVtDSDJdbihjKG4yKVtDSDJdW09IXSljKGMyMylbY0hdW2NIXVtjSF1bY0hdMw==

> <s_epik_cmdline>
J2VwaWtfcHl0aG9uJywgJy1waCcsICc3LjAnLCAnLXRuJywgJzgnLCAnLW1hJywgJzIwMCcsICctbWV0YWxfYmluZGluZycsICctaW1hZScsICc8aW5maWxlLm1hZT4nLCAnLW9tYWUnLCAnPG91dGZpbGUubWFlPic=

> <r_lp_tautomer_probability>
1

> <r_epik_Ionization_Penalty>
0.0555874

> <r_epik_Ionization_Penalty_Charging>
0

> <r_epik_Ionization_Penalty_Neutral>
0.0555874

> <r_epik_State_Penalty>
0.0478234

> <r_epik_Charging_Adjusted_Penalty>
0.0478234

> <i_epik_Tot_Q>
0

> <i_epik_Tot_abs_Q>
0

> <r_epik_Metal_State_Penalty>
4.98044e-05

> <b_epik_Metal_Only>
0

> <s_lp_Force_Field>
OPLS_2005

> <r_lp_Energy>
19.7692

> <b_lp_Chiralities_Consistent>
1

> <s_lp_Variant>
AV-unprocessed.smi:2178-1

> <Gold.Version>
5.8.1

> <Gold.Id.Protein>
6NUR|6NUR_protein|mol2

> <Gold.PLP.Fitness>
60.0280

> <Gold.PLP.PLP>
-58.6411

> <Gold.PLP.part.hbond>
-1.0000

> <Gold.PLP.part.metal>
0.0000

> <Gold.PLP.part.buried>
-1.2014

> <Gold.PLP.part.nonpolar>
-56.3355

> <Gold.PLP.part.repulsive>
0.2644

> <Gold.PLP.ligand.clash>
0.0000

> <Gold.PLP.ligand.torsion>
0.8370

> <Gold.PLP.Chemscore.Hbond>
1.0000

> <Gold.PLP.Chemscore.CHOScore>
0.0000

> <Gold.PLP.Chemscore.Metal>
0.0000

> <Gold.Chemscore.Hbonds>
donor molecule, donor type, donor heavy atom, donor atom, acceptor molecule, acceptor atom, score
      P1  H  7997  8008       L1    17  1.00

> <Gold.PLP.Chemscore.Internal.Correction>
0.0609

> <Gold.Rescore>
     Score         DG    S(hbond)    S(metal)    S(lipo)     H(rot)  DE(clash)    DE(int)     intcor
     16.53     -19.42       0.99        0.00     155.59       2.96       2.13       0.75       ----

> <Gold.Chemscore.Fitness>
16.5293

> <Gold.Chemscore.DG>
-19.4165

> <Gold.Chemscore.ZeroCoef>
-5.4800

> <Gold.Chemscore.Hbond>
0.9882

> <Gold.Chemscore.Metal>
0.0000

> <Gold.Chemscore.Lipo>
155.5874

> <Gold.Chemscore.Internal_Hbond>
0.0000

> <Gold.Chemscore.DEClash>
2.1339

> <Gold.Chemscore.DEInternal>
0.7534

> <Gold.Chemscore.Rot>
2.9561

> <Gold.Chemscore.Internal.Correction>
   9.000000E+99

> <Gold.Chemscore.Hbonds>
donor molecule, donor type, donor heavy atom, donor atom, acceptor molecule, acceptor atom, score
      P1  H  7997  8008       L1    17  0.50

> <Gold.Chemscore.Hbond.Weighted>
-3.3005

> <Gold.Chemscore.Metal.Weighted>
-0.0000

> <Gold.Chemscore.Lipo.Weighted>
-18.2037

> <Gold.Chemscore.Internal_Hbond.Weighted>
0.0000

> <Gold.Chemscore.DEClash.Weighted>
2.1339

> <Gold.Chemscore.DEInternal.Weighted>
0.7534

> <Gold.Chemscore.Rot.Weighted>
7.5677

> <Gold.Chemscore.Internal.Correction.Weighted>
   9.000000E+99

> <Gold.Protein.RotatedTorsions>
[ 6907 6896 6895 6894 ] final  122.81 input  -60.11 | X-H torsion
[ 7974 7965 7964 7962 ] final -147.46 input  175.53 | X-H torsion
[ 8008 7997 7996 7995 ] final    0.98 input   59.86 | X-H torsion
[ 10167 10162 10161 10158 ] final -160.51 input  -65.29 | X-H torsion
[ 10718 10713 10712 10709 ] final -166.96 input   66.30 | X-H torsion
[ 10763 10752 10751 10750 ] final -154.39 input  -60.55 | X-H torsion
[ 11005 11000 10999 10996 ] final  -79.16 input  -57.11 | X-H torsion

> <Gold.Protein.ActiveResidues>
 VAL166  LYS551  ARG553  GLY616  TRP617  ASP618  TYR619  PRO620  LYS621  CYS622 
 ASP623  PHE694  ASN695  SER759  ASP760  ASP761  ALA762  ILE779  LEU786  VAL792 
 PHE793  MET794  SER795  GLU796  ALA797  LYS798  CYS799  TRP800  GLU811  SER814 

> <Gold.Protein.RotatedAtoms>
  152.4213  133.7120  159.6484 H   0  0  0  0  0  0  0  0  0  0  0  0  # atno 6907 bound_to 6896
  150.8088  133.8448  159.3198 H   0  0  0  0  0  0  0  0  0  0  0  0  # atno 6908 bound_to 6896
  151.6164  135.1038  160.0144 H   0  0  0  0  0  0  0  0  0  0  0  0  # atno 6909 bound_to 6896
  144.8092  140.5324  143.5654 H   0  0  0  0  0  0  0  0  0  0  0  0  # atno 7974 bound_to 7965
  154.6744  140.2619  155.6973 H   0  0  0  0  0  0  0  0  0  0  0  0  # atno 8008 bound_to 7997
  156.2672  140.2823  156.1187 H   0  0  0  0  0  0  0  0  0  0  0  0  # atno 8009 bound_to 7997
  155.1122  140.0376  157.2717 H   0  0  0  0  0  0  0  0  0  0  0  0  # atno 8010 bound_to 7997
  139.6534  144.0042  152.2177 H   0  0  0  0  0  0  0  0  0  0  0  0  # atno 10167 bound_to 10162
  156.6754  130.9101  151.3050 H   0  0  0  0  0  0  0  0  0  0  0  0  # atno 10718 bound_to 10713
  154.7862  135.3191  154.7881 H   0  0  0  0  0  0  0  0  0  0  0  0  # atno 10763 bound_to 10752
  153.8581  135.6856  153.4790 H   0  0  0  0  0  0  0  0  0  0  0  0  # atno 10764 bound_to 10752
  153.1514  135.4698  154.9581 H   0  0  0  0  0  0  0  0  0  0  0  0  # atno 10765 bound_to 10752
  141.1667  133.7094  156.8080 H   0  0  0  0  0  0  0  0  0  0  0  0  # atno 11005 bound_to 11000
  145.5364  139.1475  143.3471 LP  0  0  0  0  0  0  0  0  0  0  0  0  # atno 17320 bound_to 7965
  146.2388  140.5504  142.8943 LP  0  0  0  0  0  0  0  0  0  0  0  0  # atno 17321 bound_to 7965
  139.9763  144.6459  150.7942 LP  0  0  0  0  0  0  0  0  0  0  0  0  # atno 17342 bound_to 10162
  140.7548  143.3034  151.3023 LP  0  0  0  0  0  0  0  0  0  0  0  0  # atno 17343 bound_to 10162
  157.7062  130.9388  150.0940 LP  0  0  0  0  0  0  0  0  0  0  0  0  # atno 17370 bound_to 10713
  156.1907  130.3654  149.8914 LP  0  0  0  0  0  0  0  0  0  0  0  0  # atno 17371 bound_to 10713
  140.2208  134.8758  157.3375 LP  0  0  0  0  0  0  0  0  0  0  0  0  # atno 17394 bound_to 11000
  140.1990  134.4278  155.7673 LP  0  0  0  0  0  0  0  0  0  0  0  0  # atno 17395 bound_to 11000

$$$$
