AV-unprocessed.smi:2527|AV-procd|sdf|9947|dock5
  -GOLD-   2272013583D 1   1.00000     0.00000
 Structure written by MMmdl.
 36 38  0  0  0  0  0  0  0  0  3 V2000
  152.5564  129.1198  155.0989 C   0  0  0  0  0  0  0  0  0  0  0  0
  151.2400  129.5235  155.4317 O   0  0  0  0  0  0  0  0  0  0  0  0
  150.8622  130.7302  154.7887 C   0  0  0  0  0  0  0  0  0  0  0  0
  149.4591  131.1514  155.2483 C   0  0  0  0  0  0  0  0  0  0  0  0
  148.8683  132.1702  154.3682 N   0  0  0  0  0  0  0  0  0  0  0  0
  149.1612  133.4943  154.2384 C   0  0  0  0  0  0  0  0  0  0  0  0
  150.3876  134.3830  155.1420 S   0  0  0  0  0  0  0  0  0  0  0  0
  149.9327  134.2048  156.8885 C   0  0  0  0  0  0  0  0  0  0  0  0
  149.4469  135.4755  157.5225 C   0  0  0  0  0  0  0  0  0  0  0  0
  149.1558  135.4828  158.8503 N   0  5  0  0  0  0  0  0  0  0  0  0
  148.7642  136.7482  159.0842 C   0  0  0  0  0  0  0  0  0  0  0  0
  148.3956  137.2741  160.1320 O   0  0  0  0  0  0  0  0  0  0  0  0
  148.8411  137.3966  157.9197 N   0  0  0  0  0  0  0  0  0  0  0  0
  149.2721  136.5971  156.9299 N   0  0  0  0  0  0  0  0  0  0  0  0
  148.3386  134.0074  153.2822 N   0  3  0  0  0  0  0  0  0  0  0  0
  147.5106  132.9976  152.7887 C   0  0  0  0  0  0  0  0  0  0  0  0
  146.5200  133.0285  151.8120 C   0  0  0  0  0  0  0  0  0  0  0  0
  145.8595  131.8124  151.5384 C   0  0  0  0  0  0  0  0  0  0  0  0
  144.6217  131.7744  150.3375 Cl  0  0  0  0  0  0  0  0  0  0  0  0
  146.1936  130.6275  152.2265 C   0  0  0  0  0  0  0  0  0  0  0  0
  147.1987  130.6075  153.2156 C   0  0  0  0  0  0  0  0  0  0  0  0
  147.8457  131.8144  153.4806 C   0  0  0  0  0  0  0  0  0  0  0  0
  148.6227  138.3643  157.7335 H   0  0  0  0  0  0  0  0  0  0  0  0
  152.7975  128.1923  155.6181 H   0  0  0  0  0  0  0  0  0  0  0  0
  153.2873  129.8727  155.3968 H   0  0  0  0  0  0  0  0  0  0  0  0
  152.6544  128.9412  154.0273 H   0  0  0  0  0  0  0  0  0  0  0  0
  151.5791  131.5180  155.0241 H   0  0  0  0  0  0  0  0  0  0  0  0
  150.8714  130.5947  153.7058 H   0  0  0  0  0  0  0  0  0  0  0  0
  148.7901  130.2930  155.3065 H   0  0  0  0  0  0  0  0  0  0  0  0
  149.5064  131.5698  156.2541 H   0  0  0  0  0  0  0  0  0  0  0  0
  149.1596  133.4397  156.9645 H   0  0  0  0  0  0  0  0  0  0  0  0
  150.7973  133.8231  157.4331 H   0  0  0  0  0  0  0  0  0  0  0  0
  146.2650  133.9353  151.2834 H   0  0  0  0  0  0  0  0  0  0  0  0
  145.6692  129.7128  151.9909 H   0  0  0  0  0  0  0  0  0  0  0  0
  147.4490  129.6919  153.7306 H   0  0  0  0  0  0  0  0  0  0  0  0
  148.3468  134.9770  152.9927 H   0  0  0  0  0  0  0  0  0  0  0  0
  1  2  1  0  0  0  0
  1 24  1  0  0  0  0
  1 25  1  0  0  0  0
  1 26  1  0  0  0  0
  2  3  1  0  0  0  0
  3  4  1  0  0  0  0
  3 27  1  0  0  0  0
  3 28  1  0  0  0  0
  4  5  1  0  0  0  0
  4 29  1  0  0  0  0
  4 30  1  0  0  0  0
  5 22  1  0  0  0  0
  5  6  1  0  0  0  0
  6  7  1  0  0  0  0
  6 15  2  0  0  0  0
  7  8  1  0  0  0  0
  8 31  1  0  0  0  0
  8 32  1  0  0  0  0
  8  9  1  0  0  0  0
  9 14  2  0  0  0  0
  9 10  1  0  0  0  0
 10 11  1  0  0  0  0
 11 13  1  0  0  0  0
 11 12  2  0  0  0  0
 13 14  1  0  0  0  0
 13 23  1  0  0  0  0
 15 16  1  0  0  0  0
 15 36  1  0  0  0  0
 16 22  2  0  0  0  0
 16 17  1  0  0  0  0
 17 18  2  0  0  0  0
 17 33  1  0  0  0  0
 18 19  1  0  0  0  0
 18 20  1  0  0  0  0
 20 21  2  0  0  0  0
 20 34  1  0  0  0  0
 21 22  1  0  0  0  0
 21 35  1  0  0  0  0
M  CHG  1  10  -1
M  CHG  1  15   1
M  END
> <s_m_source_file>
AV-unprocessed.smi

> <i_m_source_file_index>
2527

> <i_lp_mmshare_version>
43012

> <i_f3d_flags>
0

> <s_epik_input>
W2NIXTFjKENsKVtjSF1bY0hdYyhjMTIpbihbQ0gyXVtDSDJdT1tDSDNdKWMobjIpU1tDSDJdYzNuYyg9TylbbkhdW25IXTM=

> <s_epik_cmdline>
J2VwaWtfcHl0aG9uJywgJy1waCcsICc3LjAnLCAnLXRuJywgJzgnLCAnLW1hJywgJzIwMCcsICctbWV0YWxfYmluZGluZycsICctaW1hZScsICc8aW5maWxlLm1hZT4nLCAnLW9tYWUnLCAnPG91dGZpbGUubWFlPic=

> <r_lp_tautomer_probability>
0.999897

> <r_epik_Ionization_Penalty>
3.64286

> <r_epik_Ionization_Penalty_Charging>
2.48685

> <r_epik_Ionization_Penalty_Neutral>
1.15601

> <r_epik_State_Penalty>
3.71863

> <r_epik_Charging_Adjusted_Penalty>
6.20549

> <i_epik_Tot_Q>
0

> <i_epik_Tot_abs_Q>
2

> <r_epik_Metal_State_Penalty>
2.92967

> <b_epik_Metal_Only>
1

> <s_lp_Force_Field>
OPLS_2005

> <r_lp_Energy>
23.3692

> <b_lp_Chiralities_Consistent>
1

> <s_lp_Variant>
AV-unprocessed.smi:2527-6

> <Gold.Version>
5.8.1

> <Gold.Id.Protein>
6NUR|6NUR_protein|mol2

> <Gold.PLP.Fitness>
48.3019

> <Gold.PLP.PLP>
-35.8389

> <Gold.PLP.part.hbond>
-3.9598

> <Gold.PLP.part.metal>
0.0000

> <Gold.PLP.part.buried>
-4.6771

> <Gold.PLP.part.nonpolar>
-28.1606

> <Gold.PLP.part.repulsive>
0.1252

> <Gold.PLP.ligand.clash>
0.0000

> <Gold.PLP.ligand.torsion>
0.5927

> <Gold.PLP.Chemscore.Hbond>
4.5333

> <Gold.PLP.Chemscore.CHOScore>
0.0000

> <Gold.PLP.Chemscore.Metal>
0.0000

> <Gold.Chemscore.Hbonds>
donor molecule, donor type, donor heavy atom, donor atom, acceptor molecule, acceptor atom, score
      L1  H    15    36       P1  7948  1.86
      P1  H  6896  6909       L1    10  2.00
      P1  H  6931  6943       L1    12  0.47
      P1  H  6934  6947       L1    12  0.24

> <Gold.PLP.Chemscore.Internal.Correction>
0.0485

> <Gold.Rescore>
     Score         DG    S(hbond)    S(metal)    S(lipo)     H(rot)  DE(clash)    DE(int)     intcor
     13.05     -13.86       2.23        0.00      70.93       2.88       0.05       0.76       ----

> <Gold.Chemscore.Fitness>
13.0532

> <Gold.Chemscore.DG>
-13.8614

> <Gold.Chemscore.ZeroCoef>
-5.4800

> <Gold.Chemscore.Hbond>
2.2298

> <Gold.Chemscore.Metal>
0.0000

> <Gold.Chemscore.Lipo>
70.9311

> <Gold.Chemscore.Internal_Hbond>
0.0000

> <Gold.Chemscore.DEClash>
0.0515

> <Gold.Chemscore.DEInternal>
0.7567

> <Gold.Chemscore.Rot>
2.8770

> <Gold.Chemscore.Internal.Correction>
   9.000000E+99

> <Gold.Chemscore.Hbonds>
donor molecule, donor type, donor heavy atom, donor atom, acceptor molecule, acceptor atom, score
      L1  H    15    36       P1  7948  0.71
      P1  H  6896  6909       L1    10  0.39
      P1  H  6931  6943       L1    12  0.47
      P1  H  6934  6947       L1    12  0.24

> <Gold.Chemscore.Hbond.Weighted>
-7.4475

> <Gold.Chemscore.Metal.Weighted>
-0.0000

> <Gold.Chemscore.Lipo.Weighted>
-8.2989

> <Gold.Chemscore.Internal_Hbond.Weighted>
0.0000

> <Gold.Chemscore.DEClash.Weighted>
0.0515

> <Gold.Chemscore.DEInternal.Weighted>
0.7567

> <Gold.Chemscore.Rot.Weighted>
7.3650

> <Gold.Chemscore.Internal.Correction.Weighted>
   9.000000E+99

> <Gold.Protein.RotatedTorsions>
[ 6907 6896 6895 6894 ] final   61.92 input  -60.11 | X-H torsion
[ 7974 7965 7964 7962 ] final  -75.88 input  175.53 | X-H torsion
[ 8008 7997 7996 7995 ] final  109.60 input   59.86 | X-H torsion
[ 10167 10162 10161 10158 ] final   57.17 input  -65.29 | X-H torsion
[ 10718 10713 10712 10709 ] final  -97.04 input   66.30 | X-H torsion
[ 10763 10752 10751 10750 ] final  141.20 input  -60.55 | X-H torsion
[ 11005 11000 10999 10996 ] final   68.95 input  -57.11 | X-H torsion

> <Gold.Protein.ActiveResidues>
 VAL166  LYS551  ARG553  GLY616  TRP617  ASP618  TYR619  PRO620  LYS621  CYS622 
 ASP623  PHE694  ASN695  SER759  ASP760  ASP761  ALA762  ILE779  LEU786  VAL792 
 PHE793  MET794  SER795  GLU796  ALA797  LYS798  CYS799  TRP800  GLU811  SER814 

> <Gold.Protein.RotatedAtoms>
  152.4129  134.6092  160.0020 H   0  0  0  0  0  0  0  0  0  0  0  0  # atno 6907 bound_to 6896
  151.6264  133.3329  159.3107 H   0  0  0  0  0  0  0  0  0  0  0  0  # atno 6908 bound_to 6896
  150.8019  134.7159  159.6675 H   0  0  0  0  0  0  0  0  0  0  0  0  # atno 6909 bound_to 6896
  145.6202  140.9365  143.1142 H   0  0  0  0  0  0  0  0  0  0  0  0  # atno 7974 bound_to 7965
  156.1991  140.3054  155.9489 H   0  0  0  0  0  0  0  0  0  0  0  0  # atno 8008 bound_to 7997
  155.2996  140.0446  157.3045 H   0  0  0  0  0  0  0  0  0  0  0  0  # atno 8009 bound_to 7997
  154.5548  140.2302  155.8437 H   0  0  0  0  0  0  0  0  0  0  0  0  # atno 8010 bound_to 7997
  140.2009  144.3989  150.6529 H   0  0  0  0  0  0  0  0  0  0  0  0  # atno 10167 bound_to 10162
  156.0075  130.5177  150.6315 H   0  0  0  0  0  0  0  0  0  0  0  0  # atno 10718 bound_to 10713
  153.9352  135.2986  155.3444 H   0  0  0  0  0  0  0  0  0  0  0  0  # atno 10763 bound_to 10752
  154.7506  135.4982  153.9285 H   0  0  0  0  0  0  0  0  0  0  0  0  # atno 10764 bound_to 10752
  153.1070  135.6749  153.9673 H   0  0  0  0  0  0  0  0  0  0  0  0  # atno 10765 bound_to 10752
  139.9682  134.6945  156.0502 H   0  0  0  0  0  0  0  0  0  0  0  0  # atno 11005 bound_to 11000
  144.7234  139.7954  143.7373 LP  0  0  0  0  0  0  0  0  0  0  0  0  # atno 17320 bound_to 7965
  146.1437  139.4501  143.0092 LP  0  0  0  0  0  0  0  0  0  0  0  0  # atno 17321 bound_to 7965
  140.6391  143.2200  151.6329 LP  0  0  0  0  0  0  0  0  0  0  0  0  # atno 17342 bound_to 10162
  139.5218  144.3183  152.0933 LP  0  0  0  0  0  0  0  0  0  0  0  0  # atno 17343 bound_to 10162
  157.4112  131.0824  151.1219 LP  0  0  0  0  0  0  0  0  0  0  0  0  # atno 17370 bound_to 10713
  157.1850  130.6326  149.5685 LP  0  0  0  0  0  0  0  0  0  0  0  0  # atno 17371 bound_to 10713
  141.1361  133.6575  156.3599 LP  0  0  0  0  0  0  0  0  0  0  0  0  # atno 17394 bound_to 11000
  140.5351  134.6175  157.5362 LP  0  0  0  0  0  0  0  0  0  0  0  0  # atno 17395 bound_to 11000

$$$$
