AV-unprocessed.smi:2551|AV-procd|sdf|10013|dock3
  -GOLD-   2272014 53D 1   1.00000     0.00000
 Structure written by MMmdl.
 26 27  0  0  0  0  0  0  0  0  1 V2000
  151.6311  141.3404  157.0489 O   0  0  0  0  0  0  0  0  0  0  0  0
  150.9807  142.3164  156.6788 C   0  0  0  0  0  0  0  0  0  0  0  0
  150.0111  142.1918  155.7471 N   0  0  0  0  0  0  0  0  0  0  0  0
  149.5206  141.0606  155.0309 C   0  0  0  0  0  0  0  0  0  0  0  0
  150.2585  139.9892  154.6965 N   0  0  0  0  0  0  0  0  0  0  0  0
  149.5225  139.0443  153.9947 N   0  0  0  0  0  0  0  0  0  0  0  0
  148.2586  139.4394  153.8205 C   0  0  0  0  0  0  0  0  0  0  0  0
  147.8459  141.0049  154.4971 S   0  0  0  0  0  0  0  0  0  0  0  0
  151.1929  143.5524  157.1596 N   0  0  0  0  0  0  0  0  0  0  0  0
  152.1883  143.9134  158.1648 C   0  0  0  0  0  0  0  0  0  0  0  0
  152.0641  143.0042  159.4033 C   0  0  0  0  0  0  0  0  0  0  0  0
  152.0202  143.9372  160.6151 C   0  0  0  0  0  0  0  0  0  0  0  0
  151.4048  145.2259  160.0796 C   0  0  0  0  0  0  0  0  0  0  0  0
  151.9831  145.3552  158.6707 C   0  0  0  0  0  0  0  0  0  0  0  0
  149.5534  143.0600  155.5101 H   0  0  0  0  0  0  0  0  0  0  0  0
  147.5652  138.8055  153.2880 H   0  0  0  0  0  0  0  0  0  0  0  0
  150.6167  144.3011  156.8018 H   0  0  0  0  0  0  0  0  0  0  0  0
  153.1881  143.8144  157.7380 H   0  0  0  0  0  0  0  0  0  0  0  0
  151.1388  142.4264  159.3668 H   0  0  0  0  0  0  0  0  0  0  0  0
  152.8848  142.2897  159.4716 H   0  0  0  0  0  0  0  0  0  0  0  0
  151.4569  143.5166  161.4485 H   0  0  0  0  0  0  0  0  0  0  0  0
  153.0347  144.1344  160.9641 H   0  0  0  0  0  0  0  0  0  0  0  0
  150.3204  145.1205  160.0245 H   0  0  0  0  0  0  0  0  0  0  0  0
  151.6257  146.0906  160.7061 H   0  0  0  0  0  0  0  0  0  0  0  0
  152.9510  145.8550  158.7259 H   0  0  0  0  0  0  0  0  0  0  0  0
  151.3487  145.9603  158.0217 H   0  0  0  0  0  0  0  0  0  0  0  0
  1  2  2  0  0  0  0
  2  3  1  0  0  0  0
  2  9  1  0  0  0  0
  3  4  1  0  0  0  0
  3 15  1  0  0  0  0
  4  8  1  0  0  0  0
  4  5  2  0  0  0  0
  5  6  1  0  0  0  0
  6  7  2  0  0  0  0
  7  8  1  0  0  0  0
  7 16  1  0  0  0  0
  9 10  1  0  0  0  0
  9 17  1  0  0  0  0
 10 14  1  0  0  0  0
 10 11  1  0  0  0  0
 10 18  1  0  0  0  0
 11 12  1  0  0  0  0
 11 19  1  0  0  0  0
 11 20  1  0  0  0  0
 12 13  1  0  0  0  0
 12 21  1  0  0  0  0
 12 22  1  0  0  0  0
 13 14  1  0  0  0  0
 13 23  1  0  0  0  0
 13 24  1  0  0  0  0
 14 25  1  0  0  0  0
 14 26  1  0  0  0  0
M  END
> <s_m_source_file>
AV-unprocessed.smi

> <i_m_source_file_index>
2551

> <i_lp_mmshare_version>
43012

> <i_f3d_flags>
0

> <s_epik_input>
W0NIMl0xW0NIMl1bQ0gyXVtDSDJdW0NIXTFbTkhdQyg9TylbTkhdYzJubltjSF1zMg==

> <s_epik_cmdline>
J2VwaWtfcHl0aG9uJywgJy1waCcsICc3LjAnLCAnLXRuJywgJzgnLCAnLW1hJywgJzIwMCcsICctbWV0YWxfYmluZGluZycsICctaW1hZScsICc8aW5maWxlLm1hZT4nLCAnLW9tYWUnLCAnPG91dGZpbGUubWFlPic=

> <r_lp_tautomer_probability>
1

> <r_epik_Ionization_Penalty>
0.000339189

> <r_epik_Ionization_Penalty_Charging>
0

> <r_epik_Ionization_Penalty_Neutral>
0.000339189

> <r_epik_State_Penalty>
-0

> <r_epik_Charging_Adjusted_Penalty>
0

> <i_epik_Tot_Q>
0

> <i_epik_Tot_abs_Q>
0

> <r_epik_Metal_State_Penalty>
0.176475

> <b_epik_Metal_Only>
0

> <s_lp_Force_Field>
OPLS_2005

> <r_lp_Energy>
20.1327

> <b_lp_Chiralities_Consistent>
1

> <s_lp_Variant>
AV-unprocessed.smi:2551-1

> <Gold.Version>
5.8.1

> <Gold.Id.Protein>
6NUR|6NUR_protein|mol2

> <Gold.PLP.Fitness>
39.6543

> <Gold.PLP.PLP>
-31.8872

> <Gold.PLP.part.hbond>
-3.0000

> <Gold.PLP.part.metal>
0.0000

> <Gold.PLP.part.buried>
-3.5308

> <Gold.PLP.part.nonpolar>
-26.1530

> <Gold.PLP.part.repulsive>
1.3341

> <Gold.PLP.ligand.clash>
0.0000

> <Gold.PLP.ligand.torsion>
0.2736

> <Gold.PLP.Chemscore.Hbond>
2.7706

> <Gold.PLP.Chemscore.CHOScore>
0.0000

> <Gold.PLP.Chemscore.Metal>
0.0000

> <Gold.Chemscore.Hbonds>
donor molecule, donor type, donor heavy atom, donor atom, acceptor molecule, acceptor atom, score
      L1  H     3    15       P1  8028  1.00
      L1  H     9    17       P1  8028  0.77
      P1  H  7989  7998       L1     5  1.00

> <Gold.PLP.Chemscore.Internal.Correction>
0.0025

> <Gold.Rescore>
     Score         DG    S(hbond)    S(metal)    S(lipo)     H(rot)  DE(clash)    DE(int)     intcor
     16.12     -18.38       2.17        0.00      70.04       1.00       0.09       2.16       ----

> <Gold.Chemscore.Fitness>
16.1194

> <Gold.Chemscore.DG>
-18.3778

> <Gold.Chemscore.ZeroCoef>
-5.4800

> <Gold.Chemscore.Hbond>
2.1746

> <Gold.Chemscore.Metal>
0.0000

> <Gold.Chemscore.Lipo>
70.0389

> <Gold.Chemscore.Internal_Hbond>
0.0000

> <Gold.Chemscore.DEClash>
0.0934

> <Gold.Chemscore.DEInternal>
2.1649

> <Gold.Chemscore.Rot>
1.0000

> <Gold.Chemscore.Internal.Correction>
   9.000000E+99

> <Gold.Chemscore.Hbonds>
donor molecule, donor type, donor heavy atom, donor atom, acceptor molecule, acceptor atom, score
      L1  H     3    15       P1  8028  1.00
      L1  H     9    17       P1  8028  0.73
      P1  H  7989  7998       L1     5  0.19

> <Gold.Chemscore.Hbond.Weighted>
-7.2633

> <Gold.Chemscore.Metal.Weighted>
-0.0000

> <Gold.Chemscore.Lipo.Weighted>
-8.1946

> <Gold.Chemscore.Internal_Hbond.Weighted>
0.0000

> <Gold.Chemscore.DEClash.Weighted>
0.0934

> <Gold.Chemscore.DEInternal.Weighted>
2.1649

> <Gold.Chemscore.Rot.Weighted>
2.5600

> <Gold.Chemscore.Internal.Correction.Weighted>
   9.000000E+99

> <Gold.Protein.RotatedTorsions>
[ 6907 6896 6895 6894 ] final -170.12 input  -60.11 | X-H torsion
[ 7974 7965 7964 7962 ] final  -17.64 input  175.53 | X-H torsion
[ 8008 7997 7996 7995 ] final  138.10 input   59.86 | X-H torsion
[ 10167 10162 10161 10158 ] final   -3.32 input  -65.29 | X-H torsion
[ 10718 10713 10712 10709 ] final  118.02 input   66.30 | X-H torsion
[ 10763 10752 10751 10750 ] final    4.54 input  -60.55 | X-H torsion
[ 11005 11000 10999 10996 ] final   15.48 input  -57.11 | X-H torsion

> <Gold.Protein.ActiveResidues>
 VAL166  LYS551  ARG553  GLY616  TRP617  ASP618  TYR619  PRO620  LYS621  CYS622 
 ASP623  PHE694  ASN695  SER759  ASP760  ASP761  ALA762  ILE779  LEU786  VAL792 
 PHE793  MET794  SER795  GLU796  ALA797  LYS798  CYS799  TRP800  GLU811  SER814 

> <Gold.Protein.RotatedAtoms>
  151.5026  133.3501  159.2871 H   0  0  0  0  0  0  0  0  0  0  0  0  # atno 6907 bound_to 6896
  150.8763  134.8149  159.7203 H   0  0  0  0  0  0  0  0  0  0  0  0  # atno 6908 bound_to 6896
  152.4733  134.4918  159.9749 H   0  0  0  0  0  0  0  0  0  0  0  0  # atno 6909 bound_to 6896
  146.1931  140.3807  142.8450 H   0  0  0  0  0  0  0  0  0  0  0  0  # atno 7974 bound_to 7965
  156.2999  140.2402  156.4018 H   0  0  0  0  0  0  0  0  0  0  0  0  # atno 8008 bound_to 7997
  154.8520  140.0423  157.1630 H   0  0  0  0  0  0  0  0  0  0  0  0  # atno 8009 bound_to 7997
  154.8988  140.2974  155.5333 H   0  0  0  0  0  0  0  0  0  0  0  0  # atno 8010 bound_to 7997
  140.6885  143.6553  150.8314 H   0  0  0  0  0  0  0  0  0  0  0  0  # atno 10167 bound_to 10162
  157.6058  131.1043  150.7698 H   0  0  0  0  0  0  0  0  0  0  0  0  # atno 10718 bound_to 10713
  153.2701  135.6931  153.7489 H   0  0  0  0  0  0  0  0  0  0  0  0  # atno 10763 bound_to 10752
  153.6516  135.3376  155.3102 H   0  0  0  0  0  0  0  0  0  0  0  0  # atno 10764 bound_to 10752
  154.8461  135.4456  154.1720 H   0  0  0  0  0  0  0  0  0  0  0  0  # atno 10765 bound_to 10752
  140.4578  134.1158  155.7712 H   0  0  0  0  0  0  0  0  0  0  0  0  # atno 11005 bound_to 11000
  144.8526  140.7024  143.6158 LP  0  0  0  0  0  0  0  0  0  0  0  0  # atno 17320 bound_to 7965
  145.3729  139.1654  143.4322 LP  0  0  0  0  0  0  0  0  0  0  0  0  # atno 17321 bound_to 7965
  140.0263  143.5489  152.2779 LP  0  0  0  0  0  0  0  0  0  0  0  0  # atno 17342 bound_to 10162
  139.6266  144.7638  151.2625 LP  0  0  0  0  0  0  0  0  0  0  0  0  # atno 17343 bound_to 10162
  156.8086  130.4945  149.5359 LP  0  0  0  0  0  0  0  0  0  0  0  0  # atno 17370 bound_to 10713
  156.1144  130.6064  151.0097 LP  0  0  0  0  0  0  0  0  0  0  0  0  # atno 17371 bound_to 10713
  141.1635  133.8748  157.1782 LP  0  0  0  0  0  0  0  0  0  0  0  0  # atno 17394 bound_to 11000
  139.9965  135.0045  157.0093 LP  0  0  0  0  0  0  0  0  0  0  0  0  # atno 17395 bound_to 11000

$$$$
