AV-unprocessed.smi:169|AV-procd|sdf|1402|dock6
  -GOLD-   2262019153D 1   1.00000     0.00000
 Structure written by MMmdl.
 56 60  0  0  0  0  0  0  0  0  2 V2000
  145.2373  143.7057  153.4112 C   0  0  0  0  0  0  0  0  0  0  0  0
  145.6955  142.4364  154.1508 C   0  0  0  0  0  0  0  0  0  0  0  0
  144.5831  141.5191  154.5119 N   0  3  2  0  0  0  0  0  0  0  0  0
  143.2655  142.2363  154.6506 C   0  0  0  0  0  0  0  0  0  0  0  0
  141.9914  141.3252  154.4876 C   0  0  0  0  0  0  0  0  0  0  0  0
  142.1632  139.9285  155.1160 C   0  0  3  0  0  0  0  0  0  0  0  0
  141.9199  139.2715  156.4808 C   0  0  0  0  0  0  0  0  0  0  0  0
  143.3749  138.8179  156.8326 C   0  0  0  0  0  0  0  0  0  0  0  0
  144.2392  139.1736  155.5771 C   0  0  2  0  0  0  0  0  0  0  0  0
  144.9466  140.5762  155.6359 C   0  0  0  0  0  0  0  0  0  0  0  0
  143.2574  139.1903  154.5102 N   0  0  0  0  0  0  0  0  0  0  0  0
  143.0087  138.0578  153.8020 C   0  0  0  0  0  0  0  0  0  0  0  0
  141.7742  137.4910  153.8584 N   0  0  0  0  0  0  0  0  0  0  0  0
  141.5063  136.3825  153.1628 C   0  0  0  0  0  0  0  0  0  0  0  0
  142.3087  135.6953  152.3485 N   0  0  0  0  0  0  0  0  0  0  0  0
  143.5413  136.2724  152.2651 C   0  0  0  0  0  0  0  0  0  0  0  0
  143.9725  137.4416  152.9538 C   0  0  0  0  0  0  0  0  0  0  0  0
  145.2884  137.7301  152.6115 N   0  0  0  0  0  0  0  0  0  0  0  0
  145.6200  136.7781  151.7830 C   0  0  0  0  0  0  0  0  0  0  0  0
  144.6245  135.8693  151.5023 N   0  0  0  0  0  0  0  0  0  0  0  0
  144.7110  134.7189  150.6123 C   0  0  0  0  0  0  0  0  0  0  0  0
  144.6113  133.3416  151.3098 C   0  0  0  0  0  0  0  0  0  0  0  0
  143.2237  132.7818  150.9501 C   0  0  0  0  0  0  0  0  0  0  0  0
  143.0323  132.6415  149.5566 O   0  0  0  0  0  0  0  0  0  0  0  0
  145.8170  132.3952  151.1613 C   0  0  0  0  0  0  0  0  0  0  0  0
  146.3195  132.7557  152.4671 O   0  0  0  0  0  0  0  0  0  0  0  0
  145.0235  133.3053  152.7920 C   0  0  0  0  0  0  0  0  0  0  0  0
  146.0920  144.3430  153.1833 H   0  0  0  0  0  0  0  0  0  0  0  0
  144.5439  144.2959  154.0103 H   0  0  0  0  0  0  0  0  0  0  0  0
  144.7493  143.4697  152.4655 H   0  0  0  0  0  0  0  0  0  0  0  0
  146.4172  141.8963  153.5367 H   0  0  0  0  0  0  0  0  0  0  0  0
  146.2321  142.7159  155.0585 H   0  0  0  0  0  0  0  0  0  0  0  0
  143.2409  142.7316  155.6225 H   0  0  0  0  0  0  0  0  0  0  0  0
  143.2020  143.0345  153.9097 H   0  0  0  0  0  0  0  0  0  0  0  0
  141.1128  141.8290  154.8943 H   0  0  0  0  0  0  0  0  0  0  0  0
  141.7909  141.1929  153.4238 H   0  0  0  0  0  0  0  0  0  0  0  0
  142.5684  140.6122  155.8523 H   0  0  0  0  0  0  0  0  0  0  0  0
  141.4621  139.9119  157.2417 H   0  0  0  0  0  0  0  0  0  0  0  0
  141.2752  138.3993  156.3665 H   0  0  0  0  0  0  0  0  0  0  0  0
  143.7508  139.2956  157.7378 H   0  0  0  0  0  0  0  0  0  0  0  0
  143.3872  137.7412  157.0069 H   0  0  0  0  0  0  0  0  0  0  0  0
  144.9943  138.4021  155.4357 H   0  0  0  0  0  0  0  0  0  0  0  0
  146.0212  140.3899  155.6102 H   0  0  0  0  0  0  0  0  0  0  0  0
  144.7634  141.0706  156.5908 H   0  0  0  0  0  0  0  0  0  0  0  0
  140.5047  135.9930  153.2708 H   0  0  0  0  0  0  0  0  0  0  0  0
  146.6066  136.7182  151.3477 H   0  0  0  0  0  0  0  0  0  0  0  0
  143.9214  134.8206  149.8667 H   0  0  0  0  0  0  0  0  0  0  0  0
  145.6486  134.8006  150.0608 H   0  0  0  0  0  0  0  0  0  0  0  0
  143.0718  131.8035  151.4075 H   0  0  0  0  0  0  0  0  0  0  0  0
  142.4346  133.4318  151.3299 H   0  0  0  0  0  0  0  0  0  0  0  0
  142.3420  133.2278  149.2865 H   0  0  0  0  0  0  0  0  0  0  0  0
  145.5570  131.3368  151.1128 H   0  0  0  0  0  0  0  0  0  0  0  0
  146.5052  132.6478  150.3566 H   0  0  0  0  0  0  0  0  0  0  0  0
  145.0818  134.2815  153.2708 H   0  0  0  0  0  0  0  0  0  0  0  0
  144.4427  132.6183  153.4092 H   0  0  0  0  0  0  0  0  0  0  0  0
  144.4790  140.9278  153.6992 H   0  0  0  0  0  0  0  0  0  0  0  0
  1  2  1  0  0  0  0
  1 28  1  0  0  0  0
  1 29  1  0  0  0  0
  1 30  1  0  0  0  0
  2  3  1  0  0  0  0
  2 31  1  0  0  0  0
  2 32  1  0  0  0  0
  3 10  1  0  0  0  0
  3  4  1  0  0  0  0
  3 56  1  0  0  0  0
  4  5  1  0  0  0  0
  4 33  1  0  0  0  0
  4 34  1  0  0  0  0
  5  6  1  0  0  0  0
  5 35  1  0  0  0  0
  5 36  1  0  0  0  0
  6 11  1  0  0  0  0
  6  7  1  0  0  0  0
  6 37  1  0  0  0  0
  7  8  1  0  0  0  0
  7 38  1  0  0  0  0
  7 39  1  0  0  0  0
  8  9  1  0  0  0  0
  8 40  1  0  0  0  0
  8 41  1  0  0  0  0
  9 10  1  0  0  0  0
  9 11  1  0  0  0  0
  9 42  1  0  0  0  0
 10 43  1  0  0  0  0
 10 44  1  0  0  0  0
 11 12  1  0  0  0  0
 12 17  1  0  0  0  0
 12 13  2  0  0  0  0
 13 14  1  0  0  0  0
 14 15  2  0  0  0  0
 14 45  1  0  0  0  0
 15 16  1  0  0  0  0
 16 20  1  0  0  0  0
 16 17  2  0  0  0  0
 17 18  1  0  0  0  0
 18 19  2  0  0  0  0
 19 20  1  0  0  0  0
 19 46  1  0  0  0  0
 20 21  1  0  0  0  0
 21 22  1  0  0  0  0
 21 47  1  0  0  0  0
 21 48  1  0  0  0  0
 22 27  1  0  0  0  0
 22 23  1  0  0  0  0
 22 25  1  0  0  0  0
 23 24  1  0  0  0  0
 23 49  1  0  0  0  0
 23 50  1  0  0  0  0
 24 51  1  0  0  0  0
 25 26  1  0  0  0  0
 25 52  1  0  0  0  0
 25 53  1  0  0  0  0
 26 27  1  0  0  0  0
 27 54  1  0  0  0  0
 27 55  1  0  0  0  0
M  CHG  1   3   1
M  END
> <s_m_source_file>
AV-unprocessed.smi

> <i_m_source_file_index>
169

> <i_lp_mmshare_version>
43012

> <i_f3d_flags>
0

> <s_epik_input>
W0NASF0xMltDSDJdW0NIMl1OKFtDSDJdW0NIM10pW0NIMl1bQ0BIXShbQ0gyXVtDSDJdMSlOMmMobltjSF1uMyljKGMzNCluW2NIXW40W0NIMl1DNShbQ0gyXVtPSF0pW0NIMl1PW0NIMl01

> <s_epik_cmdline>
J2VwaWtfcHl0aG9uJywgJy1waCcsICc3LjAnLCAnLXRuJywgJzgnLCAnLW1hJywgJzIwMCcsICctbWV0YWxfYmluZGluZycsICctaW1hZScsICc8aW5maWxlLm1hZT4nLCAnLW9tYWUnLCAnPG91dGZpbGUubWFlPic=

> <r_lp_tautomer_probability>
1

> <r_epik_Ionization_Penalty>
0.00274162

> <r_epik_Ionization_Penalty_Charging>
0.00243722

> <r_epik_Ionization_Penalty_Neutral>
0.000304399

> <r_epik_State_Penalty>
-0

> <r_epik_Charging_Adjusted_Penalty>
0.00243722

> <i_epik_Tot_Q>
1

> <i_epik_Tot_abs_Q>
1

> <r_epik_Metal_State_Penalty>
-0

> <b_epik_Metal_Only>
0

> <s_lp_Force_Field>
OPLS_2005

> <r_lp_Energy>
131.144

> <b_lp_Chiralities_Consistent>
1

> <s_lp_Variant>
AV-unprocessed.smi:169-5

> <Gold.Version>
5.8.1

> <Gold.Id.Protein>
6NUR|6NUR_protein|mol2

> <Gold.PLP.Fitness>
42.4228

> <Gold.PLP.PLP>
-32.9227

> <Gold.PLP.part.hbond>
-2.8139

> <Gold.PLP.part.metal>
0.0000

> <Gold.PLP.part.buried>
-7.1017

> <Gold.PLP.part.nonpolar>
-26.0695

> <Gold.PLP.part.repulsive>
0.8966

> <Gold.PLP.ligand.clash>
0.0000

> <Gold.PLP.ligand.torsion>
1.5556

> <Gold.PLP.Chemscore.Hbond>
2.9825

> <Gold.PLP.Chemscore.CHOScore>
1.0785

> <Gold.PLP.Chemscore.Metal>
0.0000

> <Gold.Chemscore.Hbonds>
donor molecule, donor type, donor heavy atom, donor atom, acceptor molecule, acceptor atom, score
      L1  H     3    56       P1 10175  1.84
      L1  H    24    51       P1 10186  1.00
      L1  C    19    46       P1  7948  1.00

> <Gold.PLP.Chemscore.Internal.Correction>
0.4283

> <Gold.Rescore>
     Score         DG    S(hbond)    S(metal)    S(lipo)     H(rot)  DE(clash)    DE(int)     intcor
      9.47     -11.27       1.91        0.00      52.31       2.62       0.41       1.39       ----

> <Gold.Chemscore.Fitness>
9.4702

> <Gold.Chemscore.DG>
-11.2673

> <Gold.Chemscore.ZeroCoef>
-5.4800

> <Gold.Chemscore.Hbond>
1.9094

> <Gold.Chemscore.Metal>
0.0000

> <Gold.Chemscore.Lipo>
52.3098

> <Gold.Chemscore.Internal_Hbond>
0.0000

> <Gold.Chemscore.DEClash>
0.4080

> <Gold.Chemscore.DEInternal>
1.3892

> <Gold.Chemscore.Rot>
2.6212

> <Gold.Chemscore.Internal.Correction>
   9.000000E+99

> <Gold.Chemscore.Hbonds>
donor molecule, donor type, donor heavy atom, donor atom, acceptor molecule, acceptor atom, score
      L1  H     3    56       P1 10175  0.69
      L1  H    24    51       P1 10186  0.99

> <Gold.Chemscore.Hbond.Weighted>
-6.3773

> <Gold.Chemscore.Metal.Weighted>
-0.0000

> <Gold.Chemscore.Lipo.Weighted>
-6.1202

> <Gold.Chemscore.Internal_Hbond.Weighted>
0.0000

> <Gold.Chemscore.DEClash.Weighted>
0.4080

> <Gold.Chemscore.DEInternal.Weighted>
1.3892

> <Gold.Chemscore.Rot.Weighted>
6.7102

> <Gold.Chemscore.Internal.Correction.Weighted>
   9.000000E+99

> <Gold.Protein.RotatedTorsions>
[ 6907 6896 6895 6894 ] final -175.13 input  -60.11 | X-H torsion
[ 7974 7965 7964 7962 ] final    0.86 input  175.53 | X-H torsion
[ 8008 7997 7996 7995 ] final  -55.60 input   59.86 | X-H torsion
[ 10167 10162 10161 10158 ] final  177.71 input  -65.29 | X-H torsion
[ 10718 10713 10712 10709 ] final -138.02 input   66.30 | X-H torsion
[ 10763 10752 10751 10750 ] final  -43.82 input  -60.55 | X-H torsion
[ 11005 11000 10999 10996 ] final -132.73 input  -57.11 | X-H torsion

> <Gold.Protein.ActiveResidues>
 VAL166  LYS551  ARG553  GLY616  TRP617  ASP618  TYR619  PRO620  LYS621  CYS622 
 ASP623  PHE694  ASN695  SER759  ASP760  ASP761  ALA762  ILE779  LEU786  VAL792 
 PHE793  MET794  SER795  GLU796  ALA797  LYS798  CYS799  TRP800  GLU811  SER814 

> <Gold.Protein.RotatedAtoms>
  151.5836  133.3375  159.3013 H   0  0  0  0  0  0  0  0  0  0  0  0  # atno 6907 bound_to 6896
  150.8299  134.7551  159.6856 H   0  0  0  0  0  0  0  0  0  0  0  0  # atno 6908 bound_to 6896
  152.4384  134.5646  159.9955 H   0  0  0  0  0  0  0  0  0  0  0  0  # atno 6909 bound_to 6896
  146.2437  140.1074  142.8345 H   0  0  0  0  0  0  0  0  0  0  0  0  # atno 7974 bound_to 7965
  154.4201  140.1149  156.5504 H   0  0  0  0  0  0  0  0  0  0  0  0  # atno 8008 bound_to 7997
  155.6416  140.3496  155.4698 H   0  0  0  0  0  0  0  0  0  0  0  0  # atno 8009 bound_to 7997
  155.9866  140.1171  157.0667 H   0  0  0  0  0  0  0  0  0  0  0  0  # atno 8010 bound_to 7997
  139.5264  144.2766  152.0582 H   0  0  0  0  0  0  0  0  0  0  0  0  # atno 10167 bound_to 10162
  156.2947  130.7395  151.1430 H   0  0  0  0  0  0  0  0  0  0  0  0  # atno 10718 bound_to 10713
  154.0018  135.6692  153.4759 H   0  0  0  0  0  0  0  0  0  0  0  0  # atno 10763 bound_to 10752
  153.0659  135.5001  154.8194 H   0  0  0  0  0  0  0  0  0  0  0  0  # atno 10764 bound_to 10752
  154.7048  135.3086  154.9250 H   0  0  0  0  0  0  0  0  0  0  0  0  # atno 10765 bound_to 10752
  140.9144  134.1526  157.4364 H   0  0  0  0  0  0  0  0  0  0  0  0  # atno 11005 bound_to 11000
  145.0517  140.9022  143.4992 LP  0  0  0  0  0  0  0  0  0  0  0  0  # atno 17320 bound_to 7965
  145.1172  139.2717  143.5607 LP  0  0  0  0  0  0  0  0  0  0  0  0  # atno 17321 bound_to 7965
  140.2224  144.4453  150.6336 LP  0  0  0  0  0  0  0  0  0  0  0  0  # atno 17342 bound_to 10162
  140.6410  143.2203  151.6290 LP  0  0  0  0  0  0  0  0  0  0  0  0  # atno 17343 bound_to 10162
  157.7352  131.0574  150.5483 LP  0  0  0  0  0  0  0  0  0  0  0  0  # atno 17370 bound_to 10713
  156.5603  130.4254  149.6066 LP  0  0  0  0  0  0  0  0  0  0  0  0  # atno 17371 bound_to 10713
  139.8763  134.9948  156.5712 LP  0  0  0  0  0  0  0  0  0  0  0  0  # atno 17394 bound_to 11000
  140.8068  133.8461  155.8775 LP  0  0  0  0  0  0  0  0  0  0  0  0  # atno 17395 bound_to 11000

$$$$
