AV-unprocessed.smi:2226|AV-procd|sdf|9016|dock9
  -GOLD-   2272012223D 1   1.00000     0.00000
 Structure written by MMmdl.
 40 42  0  0  0  0  0  0  0  0  2 V2000
  146.4365  142.5213  155.6724 C   0  0  0  0  0  0  0  0  0  0  0  0
  146.4691  141.1970  155.0072 N   0  3  1  0  0  0  0  0  0  0  0  0
  147.2960  141.1368  153.7773 C   0  0  1  0  0  0  0  0  0  0  0  0
  148.8071  141.2360  154.1082 C   0  0  0  0  0  0  0  0  0  0  0  0
  149.2815  140.2355  155.1790 C   0  0  0  0  0  0  0  0  0  0  0  0
  148.2821  140.1005  156.3436 C   0  0  0  0  0  0  0  0  0  0  0  0
  146.7977  140.0586  155.8994 C   0  0  2  0  0  0  0  0  0  0  0  0
  146.3629  138.7441  155.2111 C   0  0  0  0  0  0  0  0  0  0  0  0
  146.9017  138.5647  153.7711 C   0  0  1  0  0  0  0  0  0  0  0  0
  146.0827  137.5733  153.0751 N   0  0  0  0  0  0  0  0  0  0  0  0
  146.0509  137.3442  151.7531 C   0  0  0  0  0  0  0  0  0  0  0  0
  146.7501  137.9864  150.9631 O   0  0  0  0  0  0  0  0  0  0  0  0
  145.1500  136.3256  151.4764 N   0  0  0  0  0  0  0  0  0  0  0  0
  145.5498  135.0911  151.4428 C   0  0  0  0  0  0  0  0  0  0  0  0
  146.7895  134.4874  151.6375 N   0  0  0  0  0  0  0  0  0  0  0  0
  146.6359  133.1383  151.4814 C   0  0  0  0  0  0  0  0  0  0  0  0
  145.3586  132.8989  151.2009 C   0  0  0  0  0  0  0  0  0  0  0  0
  144.6698  134.0742  151.1704 O   0  0  0  0  0  0  0  0  0  0  0  0
  146.8902  139.8859  152.9645 C   0  0  0  0  0  0  0  0  0  0  0  0
  147.4136  142.8183  156.0524 H   0  0  0  0  0  0  0  0  0  0  0  0
  145.7386  142.5079  156.5099 H   0  0  0  0  0  0  0  0  0  0  0  0
  146.0984  143.2878  154.9748 H   0  0  0  0  0  0  0  0  0  0  0  0
  147.0417  142.0010  153.1617 H   0  0  0  0  0  0  0  0  0  0  0  0
  149.3995  141.1132  153.2009 H   0  0  0  0  0  0  0  0  0  0  0  0
  149.0242  142.2450  154.4600 H   0  0  0  0  0  0  0  0  0  0  0  0
  149.4746  139.2646  154.7312 H   0  0  0  0  0  0  0  0  0  0  0  0
  150.2504  140.5518  155.5672 H   0  0  0  0  0  0  0  0  0  0  0  0
  148.5229  139.2165  156.9350 H   0  0  0  0  0  0  0  0  0  0  0  0
  148.4234  140.9456  157.0178 H   0  0  0  0  0  0  0  0  0  0  0  0
  146.1876  140.1527  156.7990 H   0  0  0  0  0  0  0  0  0  0  0  0
  146.6402  137.8852  155.8236 H   0  0  0  0  0  0  0  0  0  0  0  0
  145.2718  138.7407  155.1779 H   0  0  0  0  0  0  0  0  0  0  0  0
  147.9249  138.2043  153.8279 H   0  0  0  0  0  0  0  0  0  0  0  0
  145.4799  137.0042  153.6519 H   0  0  0  0  0  0  0  0  0  0  0  0
  147.6722  134.9266  151.8568 H   0  0  0  0  0  0  0  0  0  0  0  0
  147.4813  132.4752  151.5909 H   0  0  0  0  0  0  0  0  0  0  0  0
  144.8083  131.9906  151.0053 H   0  0  0  0  0  0  0  0  0  0  0  0
  145.8792  140.0563  152.5895 H   0  0  0  0  0  0  0  0  0  0  0  0
  147.5189  139.7883  152.0786 H   0  0  0  0  0  0  0  0  0  0  0  0
  145.5182  141.0406  154.7045 H   0  0  0  0  0  0  0  0  0  0  0  0
  1  2  1  0  0  0  0
  1 20  1  0  0  0  0
  1 21  1  0  0  0  0
  1 22  1  0  0  0  0
  2  7  1  0  0  0  0
  2  3  1  0  0  0  0
  2 40  1  0  0  0  0
  3 19  1  0  0  0  0
  3  4  1  0  0  0  0
  3 23  1  0  0  0  0
  4  5  1  0  0  0  0
  4 24  1  0  0  0  0
  4 25  1  0  0  0  0
  5  6  1  0  0  0  0
  5 26  1  0  0  0  0
  5 27  1  0  0  0  0
  6  7  1  0  0  0  0
  6 28  1  0  0  0  0
  6 29  1  0  0  0  0
  7  8  1  0  0  0  0
  7 30  1  0  0  0  0
  8  9  1  0  0  0  0
  8 31  1  0  0  0  0
  8 32  1  0  0  0  0
  9 10  1  0  0  0  0
  9 19  1  0  0  0  0
  9 33  1  0  0  0  0
 10 34  1  0  0  0  0
 10 11  1  0  0  0  0
 11 13  1  0  0  0  0
 11 12  2  0  0  0  0
 13 14  2  0  0  0  0
 14 18  1  0  0  0  0
 14 15  1  0  0  0  0
 15 35  1  0  0  0  0
 15 16  1  0  0  0  0
 16 36  1  0  0  0  0
 16 17  2  0  0  0  0
 17 37  1  0  0  0  0
 17 18  1  0  0  0  0
 19 38  1  0  0  0  0
 19 39  1  0  0  0  0
M  CHG  1   2   1
M  END
> <s_m_source_file>
AV-unprocessed.smi

> <i_m_source_file_index>
2226

> <i_lp_mmshare_version>
43012

> <i_f3d_flags>
0

> <s_epik_input>
W0NIMl0xW0NIMl1bQ0gyXVtDQEhdKE4oW0NIM10pW0NIXTEyKVtDSDJdW0NASF0oW0NIMl0yKVtOSF1DKD1PKVtOSF1jM25bY0hdW2NIXW8z

> <s_epik_cmdline>
J2VwaWtfcHl0aG9uJywgJy1waCcsICc3LjAnLCAnLXRuJywgJzgnLCAnLW1hJywgJzIwMCcsICctbWV0YWxfYmluZGluZycsICctaW1hZScsICc8aW5maWxlLm1hZT4nLCAnLW9tYWUnLCAnPG91dGZpbGUubWFlPic=

> <r_lp_tautomer_probability>
0.107061

> <r_epik_Ionization_Penalty>
1.08307

> <r_epik_Ionization_Penalty_Charging>
1.08272

> <r_epik_Ionization_Penalty_Neutral>
0.000345913

> <r_epik_State_Penalty>
2.5744

> <r_epik_Charging_Adjusted_Penalty>
3.65713

> <i_epik_Tot_Q>
1

> <i_epik_Tot_abs_Q>
1

> <r_epik_Metal_State_Penalty>
3.72133

> <b_epik_Metal_Only>
0

> <s_lp_Force_Field>
OPLS_2005

> <r_lp_Energy>
58.4837

> <b_lp_Chiralities_Consistent>
1

> <s_lp_Variant>
AV-unprocessed.smi:2226-16

> <Gold.Version>
5.8.1

> <Gold.Id.Protein>
6NUR|6NUR_protein|mol2

> <Gold.PLP.Fitness>
29.6173

> <Gold.PLP.PLP>
-22.5417

> <Gold.PLP.part.hbond>
-2.0000

> <Gold.PLP.part.metal>
0.0000

> <Gold.PLP.part.buried>
-2.1298

> <Gold.PLP.part.nonpolar>
-20.9732

> <Gold.PLP.part.repulsive>
2.4143

> <Gold.PLP.ligand.clash>
0.0000

> <Gold.PLP.ligand.torsion>
0.9649

> <Gold.PLP.Chemscore.Hbond>
2.0000

> <Gold.PLP.Chemscore.CHOScore>
1.0000

> <Gold.PLP.Chemscore.Metal>
0.0000

> <Gold.Chemscore.Hbonds>
donor molecule, donor type, donor heavy atom, donor atom, acceptor molecule, acceptor atom, score
      L1  H    15    35       P1  7948  1.00
      P1  H  7954  7966       L1    12  1.00
      L1  C    16    36       P1 10747  0.92

> <Gold.PLP.Chemscore.Internal.Correction>
0.0054

> <Gold.Rescore>
     Score         DG    S(hbond)    S(metal)    S(lipo)     H(rot)  DE(clash)    DE(int)     intcor
     12.07     -15.36       1.90        0.00      52.09       1.00       1.00       2.29       ----

> <Gold.Chemscore.Fitness>
12.0697

> <Gold.Chemscore.DG>
-15.3588

> <Gold.Chemscore.ZeroCoef>
-5.4800

> <Gold.Chemscore.Hbond>
1.8995

> <Gold.Chemscore.Metal>
0.0000

> <Gold.Chemscore.Lipo>
52.0885

> <Gold.Chemscore.Internal_Hbond>
0.0000

> <Gold.Chemscore.DEClash>
0.9971

> <Gold.Chemscore.DEInternal>
2.2920

> <Gold.Chemscore.Rot>
1.0000

> <Gold.Chemscore.Internal.Correction>
   9.000000E+99

> <Gold.Chemscore.Hbonds>
donor molecule, donor type, donor heavy atom, donor atom, acceptor molecule, acceptor atom, score
      L1  H    15    35       P1  7948  0.65
      P1  H  7954  7966       L1    12  1.00

> <Gold.Chemscore.Hbond.Weighted>
-6.3444

> <Gold.Chemscore.Metal.Weighted>
-0.0000

> <Gold.Chemscore.Lipo.Weighted>
-6.0944

> <Gold.Chemscore.Internal_Hbond.Weighted>
0.0000

> <Gold.Chemscore.DEClash.Weighted>
0.9971

> <Gold.Chemscore.DEInternal.Weighted>
2.2920

> <Gold.Chemscore.Rot.Weighted>
2.5600

> <Gold.Chemscore.Internal.Correction.Weighted>
   9.000000E+99

> <Gold.Protein.RotatedTorsions>
[ 6907 6896 6895 6894 ] final   37.62 input  -60.11 | X-H torsion
[ 7974 7965 7964 7962 ] final  -61.71 input  175.53 | X-H torsion
[ 8008 7997 7996 7995 ] final -166.72 input   59.86 | X-H torsion
[ 10167 10162 10161 10158 ] final   53.30 input  -65.29 | X-H torsion
[ 10718 10713 10712 10709 ] final  107.76 input   66.30 | X-H torsion
[ 10763 10752 10751 10750 ] final  -97.40 input  -60.55 | X-H torsion
[ 11005 11000 10999 10996 ] final  109.44 input  -57.11 | X-H torsion

> <Gold.Protein.ActiveResidues>
 VAL166  LYS551  ARG553  GLY616  TRP617  ASP618  TYR619  PRO620  LYS621  CYS622 
 ASP623  PHE694  ASN695  SER759  ASP760  ASP761  ALA762  ILE779  LEU786  VAL792 
 PHE793  MET794  SER795  GLU796  ALA797  LYS798  CYS799  TRP800  GLU811  SER814 

> <Gold.Protein.RotatedAtoms>
  152.1455  134.9029  160.0551 H   0  0  0  0  0  0  0  0  0  0  0  0  # atno 6907 bound_to 6896
  152.0080  133.3846  159.4216 H   0  0  0  0  0  0  0  0  0  0  0  0  # atno 6908 bound_to 6896
  150.6870  134.3683  159.5024 H   0  0  0  0  0  0  0  0  0  0  0  0  # atno 6909 bound_to 6896
  145.8002  140.8659  143.0235 H   0  0  0  0  0  0  0  0  0  0  0  0  # atno 7974 bound_to 7965
  155.8677  140.0988  157.1571 H   0  0  0  0  0  0  0  0  0  0  0  0  # atno 8008 bound_to 7997
  154.3995  140.1353  156.4102 H   0  0  0  0  0  0  0  0  0  0  0  0  # atno 8009 bound_to 7997
  155.7786  140.3459  155.5287 H   0  0  0  0  0  0  0  0  0  0  0  0  # atno 8010 bound_to 7997
  140.2422  144.3571  150.6376 H   0  0  0  0  0  0  0  0  0  0  0  0  # atno 10167 bound_to 10162
  157.6615  131.0879  150.6205 H   0  0  0  0  0  0  0  0  0  0  0  0  # atno 10718 bound_to 10713
  154.7325  135.5048  153.8987 H   0  0  0  0  0  0  0  0  0  0  0  0  # atno 10763 bound_to 10752
  153.0963  135.6673  153.9765 H   0  0  0  0  0  0  0  0  0  0  0  0  # atno 10764 bound_to 10752
  153.9563  135.3052  155.3415 H   0  0  0  0  0  0  0  0  0  0  0  0  # atno 10765 bound_to 10752
  139.8862  134.9458  156.6126 H   0  0  0  0  0  0  0  0  0  0  0  0  # atno 11005 bound_to 11000
  144.6770  140.0248  143.7483 LP  0  0  0  0  0  0  0  0  0  0  0  0  # atno 17320 bound_to 7965
  145.9886  139.2997  143.0999 LP  0  0  0  0  0  0  0  0  0  0  0  0  # atno 17321 bound_to 7965
  140.6104  143.2169  151.6896 LP  0  0  0  0  0  0  0  0  0  0  0  0  # atno 17342 bound_to 10162
  139.5073  144.3650  152.0526 LP  0  0  0  0  0  0  0  0  0  0  0  0  # atno 17343 bound_to 10162
  156.6507  130.4484  149.5720 LP  0  0  0  0  0  0  0  0  0  0  0  0  # atno 17370 bound_to 10713
  156.2139  130.6696  151.1299 LP  0  0  0  0  0  0  0  0  0  0  0  0  # atno 17371 bound_to 10713
  140.7800  133.8668  155.8560 LP  0  0  0  0  0  0  0  0  0  0  0  0  # atno 17394 bound_to 11000
  140.9768  134.1458  157.4529 LP  0  0  0  0  0  0  0  0  0  0  0  0  # atno 17395 bound_to 11000

$$$$
