AV-unprocessed.smi:1626|AV-procd|sdf|6513|dock1
  -GOLD-   22720 7183D 1   1.00000     0.00000
 Structure written by MMmdl.
 49 51  0  0  0  0  0  0  0  0  3 V2000
  152.9416  143.3831  160.5845 C   0  0  0  0  0  0  0  0  0  0  0  0
  152.4162  142.5509  159.4269 C   0  0  0  0  0  0  0  0  0  0  0  0
  151.6140  143.1841  158.4507 C   0  0  0  0  0  0  0  0  0  0  0  0
  151.1484  142.3966  157.4046 C   0  0  0  0  0  0  0  0  0  0  0  0
  150.3507  142.7157  156.3037 N   0  3  0  0  0  0  0  0  0  0  0  0
  150.1618  141.6031  155.5414 C   0  0  0  0  0  0  0  0  0  0  0  0
  150.8221  140.5762  156.1438 N   0  0  0  0  0  0  0  0  0  0  0  0
  150.9511  139.1694  155.7401 C   0  0  0  0  0  0  0  0  0  0  0  0
  150.0027  138.7807  154.5884 C   0  0  1  0  0  0  0  0  0  0  0  0
  150.6259  137.7955  153.7865 O   0  0  0  0  0  0  0  0  0  0  0  0
  148.6685  138.2180  155.1179 C   0  0  0  0  0  0  0  0  0  0  0  0
  147.7402  137.8214  154.0276 N   0  3  2  0  0  0  0  0  0  0  0  0
  147.2636  138.9715  153.2135 C   0  0  0  0  0  0  0  0  0  0  0  0
  146.4182  138.4978  152.0169 C   0  0  0  0  0  0  0  0  0  0  0  0
  145.2433  137.6097  152.4581 C   0  0  2  0  0  0  0  0  0  0  0  0
  144.2760  138.3822  153.1408 O   0  0  0  0  0  0  0  0  0  0  0  0
  145.7458  136.4728  153.3626 C   0  0  0  0  0  0  0  0  0  0  0  0
  146.6068  136.9991  154.5249 C   0  0  0  0  0  0  0  0  0  0  0  0
  151.4551  141.0254  157.3077 C   0  0  0  0  0  0  0  0  0  0  0  0
  152.2445  140.3856  158.2599 C   0  0  0  0  0  0  0  0  0  0  0  0
  152.7264  141.1691  159.3332 C   0  0  0  0  0  0  0  0  0  0  0  0
  153.5888  140.4991  160.3895 C   0  0  0  0  0  0  0  0  0  0  0  0
  152.6405  144.4273  160.4945 H   0  0  0  0  0  0  0  0  0  0  0  0
  154.0310  143.3533  160.6157 H   0  0  0  0  0  0  0  0  0  0  0  0
  152.5563  143.0059  161.5321 H   0  0  0  0  0  0  0  0  0  0  0  0
  151.3740  144.2355  158.5156 H   0  0  0  0  0  0  0  0  0  0  0  0
  149.5905  141.5461  154.6256 H   0  0  0  0  0  0  0  0  0  0  0  0
  151.9895  139.0096  155.4456 H   0  0  0  0  0  0  0  0  0  0  0  0
  150.7793  138.5432  156.6168 H   0  0  0  0  0  0  0  0  0  0  0  0
  149.8264  139.6584  153.9679 H   0  0  0  0  0  0  0  0  0  0  0  0
  149.9967  137.4794  153.1555 H   0  0  0  0  0  0  0  0  0  0  0  0
  148.8876  137.3550  155.7488 H   0  0  0  0  0  0  0  0  0  0  0  0
  148.1740  138.9454  155.7638 H   0  0  0  0  0  0  0  0  0  0  0  0
  146.6809  139.6464  153.8424 H   0  0  0  0  0  0  0  0  0  0  0  0
  148.1084  139.5478  152.8387 H   0  0  0  0  0  0  0  0  0  0  0  0
  146.0536  139.3555  151.4502 H   0  0  0  0  0  0  0  0  0  0  0  0
  147.0553  137.9324  151.3354 H   0  0  0  0  0  0  0  0  0  0  0  0
  144.7562  137.1854  151.5796 H   0  0  0  0  0  0  0  0  0  0  0  0
  144.0825  139.1501  152.6242 H   0  0  0  0  0  0  0  0  0  0  0  0
  144.9046  135.8957  153.7489 H   0  0  0  0  0  0  0  0  0  0  0  0
  146.3412  135.7797  152.7666 H   0  0  0  0  0  0  0  0  0  0  0  0
  146.9888  136.1498  155.0928 H   0  0  0  0  0  0  0  0  0  0  0  0
  145.9993  137.5901  155.2120 H   0  0  0  0  0  0  0  0  0  0  0  0
  152.4829  139.3349  158.1871 H   0  0  0  0  0  0  0  0  0  0  0  0
  153.7053  139.4329  160.1927 H   0  0  0  0  0  0  0  0  0  0  0  0
  153.1399  140.6074  161.3771 H   0  0  0  0  0  0  0  0  0  0  0  0
  154.5833  140.9449  160.4099 H   0  0  0  0  0  0  0  0  0  0  0  0
  148.2718  137.2210  153.4133 H   0  0  0  0  0  0  0  0  0  0  0  0
  149.9655  143.6259  156.0847 H   0  0  0  0  0  0  0  0  0  0  0  0
  1  2  1  0  0  0  0
  1 23  1  0  0  0  0
  1 24  1  0  0  0  0
  1 25  1  0  0  0  0
  2 21  1  0  0  0  0
  2  3  2  0  0  0  0
  3  4  1  0  0  0  0
  3 26  1  0  0  0  0
  4 19  2  0  0  0  0
  4  5  1  0  0  0  0
  5  6  2  0  0  0  0
  5 49  1  0  0  0  0
  6  7  1  0  0  0  0
  6 27  1  0  0  0  0
  7  8  1  0  0  0  0
  7 19  1  0  0  0  0
  8  9  1  0  0  0  0
  8 28  1  0  0  0  0
  8 29  1  0  0  0  0
  9 10  1  0  0  0  0
  9 11  1  0  0  0  0
  9 30  1  0  0  0  0
 10 31  1  0  0  0  0
 11 12  1  0  0  0  0
 11 32  1  0  0  0  0
 11 33  1  0  0  0  0
 12 18  1  0  0  0  0
 12 13  1  0  0  0  0
 12 48  1  0  0  0  0
 13 14  1  0  0  0  0
 13 34  1  0  0  0  0
 13 35  1  0  0  0  0
 14 15  1  0  0  0  0
 14 36  1  0  0  0  0
 14 37  1  0  0  0  0
 15 16  1  0  0  0  0
 15 17  1  0  0  0  0
 15 38  1  0  0  0  0
 16 39  1  0  0  0  0
 17 18  1  0  0  0  0
 17 40  1  0  0  0  0
 17 41  1  0  0  0  0
 18 42  1  0  0  0  0
 18 43  1  0  0  0  0
 19 20  1  0  0  0  0
 20 21  2  0  0  0  0
 20 44  1  0  0  0  0
 21 22  1  0  0  0  0
 22 45  1  0  0  0  0
 22 46  1  0  0  0  0
 22 47  1  0  0  0  0
M  CHG  1   5   1
M  CHG  1  12   1
M  END
> <s_m_source_file>
AV-unprocessed.smi

> <i_m_source_file_index>
1626

> <i_lp_mmshare_version>
43012

> <i_f3d_flags>
0

> <s_epik_input>
W0NIM11jKFtjSF0xKWMoW0NIM10pW2NIXWMoYzEyKW4oW2NIXW4yKVtDSDJdW0NASF0oW09IXSlbQ0gyXU4zW0NIMl1bQ0gyXVtDSF0oW09IXSlbQ0gyXVtDSDJdMw==

> <s_epik_cmdline>
J2VwaWtfcHl0aG9uJywgJy1waCcsICc3LjAnLCAnLXRuJywgJzgnLCAnLW1hJywgJzIwMCcsICctbWV0YWxfYmluZGluZycsICctaW1hZScsICc8aW5maWxlLm1hZT4nLCAnLW9tYWUnLCAnPG91dGZpbGUubWFlPic=

> <r_epik_Ionization_Penalty>
1.19369

> <r_epik_Ionization_Penalty_Charging>
1.19369

> <r_epik_Ionization_Penalty_Neutral>
1.68219e-06

> <r_epik_State_Penalty>
1.27429

> <r_epik_Charging_Adjusted_Penalty>
2.46798

> <i_epik_Tot_Q>
2

> <i_epik_Tot_abs_Q>
2

> <r_epik_Metal_State_Penalty>
5.29157

> <b_epik_Metal_Only>
0

> <s_lp_Force_Field>
OPLS_2005

> <r_lp_Energy>
31.8675

> <b_lp_Chiralities_Consistent>
1

> <s_lp_Variant>
AV-unprocessed.smi:1626-8

> <Gold.Version>
5.8.1

> <Gold.Id.Protein>
6NUR|6NUR_protein|mol2

> <Gold.PLP.Fitness>
60.2888

> <Gold.PLP.PLP>
-43.9000

> <Gold.PLP.part.hbond>
-4.8657

> <Gold.PLP.part.metal>
0.0000

> <Gold.PLP.part.buried>
-5.4345

> <Gold.PLP.part.nonpolar>
-36.1603

> <Gold.PLP.part.repulsive>
0.0881

> <Gold.PLP.ligand.clash>
0.0000

> <Gold.PLP.ligand.torsion>
0.5778

> <Gold.PLP.Chemscore.Hbond>
5.8336

> <Gold.PLP.Chemscore.CHOScore>
0.0000

> <Gold.PLP.Chemscore.Metal>
0.0000

> <Gold.Chemscore.Hbonds>
donor molecule, donor type, donor heavy atom, donor atom, acceptor molecule, acceptor atom, score
      L1  H     5    49       P1  8028  2.00
      L1  H    10    31       P1  7948  1.00
      L1  H    12    48       P1  7948  2.00
      L1  H    16    39       P1 10175  0.60

> <Gold.PLP.Chemscore.Internal.Correction>
0.0434

> <Gold.Rescore>
     Score         DG    S(hbond)    S(metal)    S(lipo)     H(rot)  DE(clash)    DE(int)     intcor
     21.40     -21.89       3.11        0.00     111.38       2.74       0.03       0.45       ----

> <Gold.Chemscore.Fitness>
21.4028

> <Gold.Chemscore.DG>
-21.8907

> <Gold.Chemscore.ZeroCoef>
-5.4800

> <Gold.Chemscore.Hbond>
3.1106

> <Gold.Chemscore.Metal>
0.0000

> <Gold.Chemscore.Lipo>
111.3820

> <Gold.Chemscore.Internal_Hbond>
0.0000

> <Gold.Chemscore.DEClash>
0.0348

> <Gold.Chemscore.DEInternal>
0.4531

> <Gold.Chemscore.Rot>
2.7384

> <Gold.Chemscore.Internal.Correction>
   9.000000E+99

> <Gold.Chemscore.Hbonds>
donor molecule, donor type, donor heavy atom, donor atom, acceptor molecule, acceptor atom, score
      L1  H     5    49       P1  8028  0.98
      L1  H    10    31       P1  7948  0.28
      L1  H    12    48       P1  7948  0.99
      L1  H    16    39       P1 10175  0.59

> <Gold.Chemscore.Hbond.Weighted>
-10.3893

> <Gold.Chemscore.Metal.Weighted>
-0.0000

> <Gold.Chemscore.Lipo.Weighted>
-13.0317

> <Gold.Chemscore.Internal_Hbond.Weighted>
0.0000

> <Gold.Chemscore.DEClash.Weighted>
0.0348

> <Gold.Chemscore.DEInternal.Weighted>
0.4531

> <Gold.Chemscore.Rot.Weighted>
7.0103

> <Gold.Chemscore.Internal.Correction.Weighted>
   9.000000E+99

> <Gold.Protein.RotatedTorsions>
[ 6907 6896 6895 6894 ] final -177.70 input  -60.11 | X-H torsion
[ 7974 7965 7964 7962 ] final -123.77 input  175.53 | X-H torsion
[ 8008 7997 7996 7995 ] final  -83.58 input   59.86 | X-H torsion
[ 10167 10162 10161 10158 ] final  106.61 input  -65.29 | X-H torsion
[ 10718 10713 10712 10709 ] final  166.93 input   66.30 | X-H torsion
[ 10763 10752 10751 10750 ] final  165.98 input  -60.55 | X-H torsion
[ 11005 11000 10999 10996 ] final  -26.72 input  -57.11 | X-H torsion

> <Gold.Protein.ActiveResidues>
 VAL166  LYS551  ARG553  GLY616  TRP617  ASP618  TYR619  PRO620  LYS621  CYS622 
 ASP623  PHE694  ASN695  SER759  ASP760  ASP761  ALA762  ILE779  LEU786  VAL792 
 PHE793  MET794  SER795  GLU796  ALA797  LYS798  CYS799  TRP800  GLU811  SER814 

> <Gold.Protein.RotatedAtoms>
  151.6253  133.3336  159.3096 H   0  0  0  0  0  0  0  0  0  0  0  0  # atno 6907 bound_to 6896
  150.8084  134.7228  159.6677 H   0  0  0  0  0  0  0  0  0  0  0  0  # atno 6908 bound_to 6896
  152.4181  134.6010  160.0051 H   0  0  0  0  0  0  0  0  0  0  0  0  # atno 6909 bound_to 6896
  145.0151  140.7940  143.4415 H   0  0  0  0  0  0  0  0  0  0  0  0  # atno 7974 bound_to 7965
  154.6206  140.0617  156.9609 H   0  0  0  0  0  0  0  0  0  0  0  0  # atno 8008 bound_to 7997
  155.1824  140.3300  155.4354 H   0  0  0  0  0  0  0  0  0  0  0  0  # atno 8009 bound_to 7997
  156.2429  140.1895  156.6920 H   0  0  0  0  0  0  0  0  0  0  0  0  # atno 8010 bound_to 7997
  139.6995  144.7096  151.1210 H   0  0  0  0  0  0  0  0  0  0  0  0  # atno 10167 bound_to 10162
  157.0587  131.0334  151.2654 H   0  0  0  0  0  0  0  0  0  0  0  0  # atno 10718 bound_to 10713
  154.3321  135.2754  155.2466 H   0  0  0  0  0  0  0  0  0  0  0  0  # atno 10763 bound_to 10752
  154.4773  135.5867  153.6368 H   0  0  0  0  0  0  0  0  0  0  0  0  # atno 10764 bound_to 10752
  152.9865  135.6103  154.3515 H   0  0  0  0  0  0  0  0  0  0  0  0  # atno 10765 bound_to 10752
  140.9054  133.7496  156.0599 H   0  0  0  0  0  0  0  0  0  0  0  0  # atno 11005 bound_to 11000
  145.1970  139.2271  143.5212 LP  0  0  0  0  0  0  0  0  0  0  0  0  # atno 17320 bound_to 7965
  146.3476  140.1779  142.8589 LP  0  0  0  0  0  0  0  0  0  0  0  0  # atno 17321 bound_to 7965
  140.7705  143.5444  150.9275 LP  0  0  0  0  0  0  0  0  0  0  0  0  # atno 17342 bound_to 10162
  139.9125  143.6703  152.3112 LP  0  0  0  0  0  0  0  0  0  0  0  0  # atno 17343 bound_to 10162
  157.4972  130.7858  149.7567 LP  0  0  0  0  0  0  0  0  0  0  0  0  # atno 17370 bound_to 10713
  155.9985  130.3894  150.2700 LP  0  0  0  0  0  0  0  0  0  0  0  0  # atno 17371 bound_to 10713
  140.8177  134.3325  157.5392 LP  0  0  0  0  0  0  0  0  0  0  0  0  # atno 17394 bound_to 11000
  139.8748  134.9291  156.3468 LP  0  0  0  0  0  0  0  0  0  0  0  0  # atno 17395 bound_to 11000

$$$$
