AV-unprocessed.smi:1442|AV-procd|sdf|5876|dock3
  -GOLD-   22720 5553D 1   1.00000     0.00000
 Structure written by MMmdl.
 44 45  0  0  0  0  0  0  0  0  1 V2000
  142.5859  139.1119  155.3807 C   0  0  0  0  0  0  0  0  0  0  0  0
  143.7887  139.6416  154.7564 N   0  0  0  0  0  0  0  0  0  0  0  0
  144.9733  139.7548  155.3743 C   0  0  0  0  0  0  0  0  0  0  0  0
  145.1574  139.4149  156.5436 O   0  0  0  0  0  0  0  0  0  0  0  0
  146.1255  140.3394  154.5462 C   0  0  0  0  0  0  0  0  0  0  0  0
  147.2845  139.3234  154.4090 C   0  0  0  0  0  0  0  0  0  0  0  0
  148.4937  139.9562  153.6971 C   0  0  0  0  0  0  0  0  0  0  0  0
  148.9105  141.1515  154.4501 N   0  0  0  0  0  0  0  0  0  0  0  0
  149.9892  141.2490  155.2683 C   0  0  0  0  0  0  0  0  0  0  0  0
  150.8643  140.3847  155.3371 O   0  0  0  0  0  0  0  0  0  0  0  0
  150.0259  142.3621  156.0205 N   0  0  0  0  0  0  0  0  0  0  0  0
  151.0864  142.7118  156.9576 C   0  0  0  0  0  0  0  0  0  0  0  0
  150.6789  142.4071  158.4084 C   0  0  0  0  0  0  0  0  0  0  0  0
  151.8802  142.2211  159.2918 C   0  0  0  0  0  0  0  0  0  0  0  0
  152.2711  143.0089  160.4121 C   0  0  0  0  0  0  0  0  0  0  0  0
  153.3879  142.5808  160.9779 N   0  0  0  0  0  0  0  0  0  0  0  0
  153.7454  141.5068  160.2443 N   0  0  0  0  0  0  0  0  0  0  0  0
  154.9462  140.7756  160.5878 C   0  0  0  0  0  0  0  0  0  0  0  0
  152.8549  141.2662  159.2202 C   0  0  0  0  0  0  0  0  0  0  0  0
  147.8719  142.1880  154.4098 C   0  0  0  0  0  0  0  0  0  0  0  0
  146.6274  141.6707  155.1545 C   0  0  0  0  0  0  0  0  0  0  0  0
  141.7537  139.1522  154.6778 H   0  0  0  0  0  0  0  0  0  0  0  0
  142.3160  139.6946  156.2623 H   0  0  0  0  0  0  0  0  0  0  0  0
  142.7295  138.0727  155.6798 H   0  0  0  0  0  0  0  0  0  0  0  0
  143.7172  139.9422  153.7950 H   0  0  0  0  0  0  0  0  0  0  0  0
  145.7549  140.5546  153.5422 H   0  0  0  0  0  0  0  0  0  0  0  0
  147.5974  138.9654  155.3913 H   0  0  0  0  0  0  0  0  0  0  0  0
  146.9490  138.4468  153.8534 H   0  0  0  0  0  0  0  0  0  0  0  0
  149.2812  139.2129  153.5734 H   0  0  0  0  0  0  0  0  0  0  0  0
  148.2157  140.2499  152.6838 H   0  0  0  0  0  0  0  0  0  0  0  0
  149.2688  143.0225  155.9224 H   0  0  0  0  0  0  0  0  0  0  0  0
  151.9733  142.1355  156.6922 H   0  0  0  0  0  0  0  0  0  0  0  0
  151.3537  143.7641  156.8444 H   0  0  0  0  0  0  0  0  0  0  0  0
  150.0543  143.2154  158.7902 H   0  0  0  0  0  0  0  0  0  0  0  0
  150.0506  141.5156  158.4249 H   0  0  0  0  0  0  0  0  0  0  0  0
  151.7790  143.8769  160.8259 H   0  0  0  0  0  0  0  0  0  0  0  0
  154.9984  139.8514  160.0117 H   0  0  0  0  0  0  0  0  0  0  0  0
  154.9408  140.5300  161.6504 H   0  0  0  0  0  0  0  0  0  0  0  0
  155.8232  141.3837  160.3647 H   0  0  0  0  0  0  0  0  0  0  0  0
  152.9863  140.4443  158.5317 H   0  0  0  0  0  0  0  0  0  0  0  0
  148.2018  143.1322  154.8454 H   0  0  0  0  0  0  0  0  0  0  0  0
  147.6229  142.4141  153.3720 H   0  0  0  0  0  0  0  0  0  0  0  0
  145.8375  142.4219  155.1142 H   0  0  0  0  0  0  0  0  0  0  0  0
  146.8731  141.5383  156.2098 H   0  0  0  0  0  0  0  0  0  0  0  0
  1  2  1  0  0  0  0
  1 22  1  0  0  0  0
  1 23  1  0  0  0  0
  1 24  1  0  0  0  0
  2  3  1  0  0  0  0
  2 25  1  0  0  0  0
  3  4  2  0  0  0  0
  3  5  1  0  0  0  0
  5 21  1  0  0  0  0
  5  6  1  0  0  0  0
  5 26  1  0  0  0  0
  6  7  1  0  0  0  0
  6 27  1  0  0  0  0
  6 28  1  0  0  0  0
  7  8  1  0  0  0  0
  7 29  1  0  0  0  0
  7 30  1  0  0  0  0
  8  9  1  0  0  0  0
  8 20  1  0  0  0  0
  9 10  2  0  0  0  0
  9 11  1  0  0  0  0
 11 12  1  0  0  0  0
 11 31  1  0  0  0  0
 12 13  1  0  0  0  0
 12 32  1  0  0  0  0
 12 33  1  0  0  0  0
 13 14  1  0  0  0  0
 13 34  1  0  0  0  0
 13 35  1  0  0  0  0
 14 19  2  0  0  0  0
 14 15  1  0  0  0  0
 15 16  2  0  0  0  0
 15 36  1  0  0  0  0
 16 17  1  0  0  0  0
 17 18  1  0  0  0  0
 17 19  1  0  0  0  0
 18 37  1  0  0  0  0
 18 38  1  0  0  0  0
 18 39  1  0  0  0  0
 19 40  1  0  0  0  0
 20 21  1  0  0  0  0
 20 41  1  0  0  0  0
 20 42  1  0  0  0  0
 21 43  1  0  0  0  0
 21 44  1  0  0  0  0
M  END
> <s_m_source_file>
AV-unprocessed.smi

> <i_m_source_file_index>
1442

> <i_lp_mmshare_version>
43012

> <i_f3d_flags>
0

> <s_epik_input>
W0NIM11bTkhdQyg9TylbQ0hdMVtDSDJdW0NIMl1OKFtDSDJdW0NIMl0xKUMoPU8pW05IXVtDSDJdW0NIMl1jMltjSF1ubihbQ0gzXSlbY0hdMg==

> <s_epik_cmdline>
J2VwaWtfcHl0aG9uJywgJy1waCcsICc3LjAnLCAnLXRuJywgJzgnLCAnLW1hJywgJzIwMCcsICctbWV0YWxfYmluZGluZycsICctaW1hZScsICc8aW5maWxlLm1hZT4nLCAnLW9tYWUnLCAnPG91dGZpbGUubWFlPic=

> <r_lp_tautomer_probability>
1

> <r_epik_Ionization_Penalty>
0.000562975

> <r_epik_Ionization_Penalty_Charging>
0

> <r_epik_Ionization_Penalty_Neutral>
0.000562975

> <r_epik_State_Penalty>
-0

> <r_epik_Charging_Adjusted_Penalty>
0

> <i_epik_Tot_Q>
0

> <i_epik_Tot_abs_Q>
0

> <r_epik_Metal_State_Penalty>
-0

> <b_epik_Metal_Only>
0

> <s_lp_Force_Field>
OPLS_2005

> <r_lp_Energy>
25.7174

> <b_lp_Chiralities_Consistent>
1

> <s_lp_Variant>
AV-unprocessed.smi:1442-1

> <Gold.Version>
5.8.1

> <Gold.Id.Protein>
6NUR|6NUR_protein|mol2

> <Gold.PLP.Fitness>
39.9401

> <Gold.PLP.PLP>
-34.5710

> <Gold.PLP.part.hbond>
-3.0000

> <Gold.PLP.part.metal>
0.0000

> <Gold.PLP.part.buried>
-0.2186

> <Gold.PLP.part.nonpolar>
-32.0063

> <Gold.PLP.part.repulsive>
0.1798

> <Gold.PLP.ligand.clash>
1.9684

> <Gold.PLP.ligand.torsion>
0.2991

> <Gold.PLP.Chemscore.Hbond>
2.6200

> <Gold.PLP.Chemscore.CHOScore>
0.0000

> <Gold.PLP.Chemscore.Metal>
0.0000

> <Gold.Chemscore.Hbonds>
donor molecule, donor type, donor heavy atom, donor atom, acceptor molecule, acceptor atom, score
      L1  H     2    25       P1 10175  0.67
      L1  H    11    31       P1  8028  0.88
      P1  H  7989  7998       L1    10  0.62

> <Gold.PLP.Chemscore.Internal.Correction>
0.0756

> <Gold.Rescore>
     Score         DG    S(hbond)    S(metal)    S(lipo)     H(rot)  DE(clash)    DE(int)     intcor
     16.04     -16.73       1.98        0.00      78.40       1.77       0.40       0.30       ----

> <Gold.Chemscore.Fitness>
16.0353

> <Gold.Chemscore.DG>
-16.7317

> <Gold.Chemscore.ZeroCoef>
-5.4800

> <Gold.Chemscore.Hbond>
1.9760

> <Gold.Chemscore.Metal>
0.0000

> <Gold.Chemscore.Lipo>
78.4020

> <Gold.Chemscore.Internal_Hbond>
0.0000

> <Gold.Chemscore.DEClash>
0.3960

> <Gold.Chemscore.DEInternal>
0.3003

> <Gold.Chemscore.Rot>
1.7661

> <Gold.Chemscore.Internal.Correction>
   9.000000E+99

> <Gold.Chemscore.Hbonds>
donor molecule, donor type, donor heavy atom, donor atom, acceptor molecule, acceptor atom, score
      L1  H     2    25       P1 10175  0.67
      L1  H    11    31       P1  8028  0.87
      P1  H  7989  7998       L1    10  0.05

> <Gold.Chemscore.Hbond.Weighted>
-6.5997

> <Gold.Chemscore.Metal.Weighted>
-0.0000

> <Gold.Chemscore.Lipo.Weighted>
-9.1730

> <Gold.Chemscore.Internal_Hbond.Weighted>
0.0000

> <Gold.Chemscore.DEClash.Weighted>
0.3960

> <Gold.Chemscore.DEInternal.Weighted>
0.3003

> <Gold.Chemscore.Rot.Weighted>
4.5211

> <Gold.Chemscore.Internal.Correction.Weighted>
   9.000000E+99

> <Gold.Protein.RotatedTorsions>
[ 6907 6896 6895 6894 ] final   68.53 input  -60.11 | X-H torsion
[ 7974 7965 7964 7962 ] final   30.56 input  175.53 | X-H torsion
[ 8008 7997 7996 7995 ] final  102.00 input   59.86 | X-H torsion
[ 10167 10162 10161 10158 ] final  -98.72 input  -65.29 | X-H torsion
[ 10718 10713 10712 10709 ] final -121.09 input   66.30 | X-H torsion
[ 10763 10752 10751 10750 ] final   -4.42 input  -60.55 | X-H torsion
[ 11005 11000 10999 10996 ] final -160.16 input  -57.11 | X-H torsion

> <Gold.Protein.ActiveResidues>
 VAL166  LYS551  ARG553  GLY616  TRP617  ASP618  TYR619  PRO620  LYS621  CYS622 
 ASP623  PHE694  ASN695  SER759  ASP760  ASP761  ALA762  ILE779  LEU786  VAL792 
 PHE793  MET794  SER795  GLU796  ALA797  LYS798  CYS799  TRP800  GLU811  SER814 

> <Gold.Protein.RotatedAtoms>
  152.4626  134.5149  159.9764 H   0  0  0  0  0  0  0  0  0  0  0  0  # atno 6907 bound_to 6896
  151.5194  133.3463  159.2906 H   0  0  0  0  0  0  0  0  0  0  0  0  # atno 6908 bound_to 6896
  150.8596  134.7973  159.7134 H   0  0  0  0  0  0  0  0  0  0  0  0  # atno 6909 bound_to 6896
  146.1604  139.6772  142.9037 H   0  0  0  0  0  0  0  0  0  0  0  0  # atno 7974 bound_to 7965
  156.1352  140.3188  155.8410 H   0  0  0  0  0  0  0  0  0  0  0  0  # atno 8008 bound_to 7997
  155.4257  140.0515  157.3039 H   0  0  0  0  0  0  0  0  0  0  0  0  # atno 8009 bound_to 7997
  154.4931  140.2100  155.9517 H   0  0  0  0  0  0  0  0  0  0  0  0  # atno 8010 bound_to 7997
  140.2700  143.3350  152.0543 H   0  0  0  0  0  0  0  0  0  0  0  0  # atno 10167 bound_to 10162
  156.1309  130.6395  150.9619 H   0  0  0  0  0  0  0  0  0  0  0  0  # atno 10718 bound_to 10713
  153.3846  135.6999  153.6540 H   0  0  0  0  0  0  0  0  0  0  0  0  # atno 10763 bound_to 10752
  153.5137  135.3626  155.2599 H   0  0  0  0  0  0  0  0  0  0  0  0  # atno 10764 bound_to 10752
  154.8696  135.4141  154.3151 H   0  0  0  0  0  0  0  0  0  0  0  0  # atno 10765 bound_to 10752
  140.6345  134.4616  157.5231 H   0  0  0  0  0  0  0  0  0  0  0  0  # atno 11005 bound_to 11000
  145.4603  141.0432  143.2755 LP  0  0  0  0  0  0  0  0  0  0  0  0  # atno 17320 bound_to 7965
  144.8019  139.6124  143.7068 LP  0  0  0  0  0  0  0  0  0  0  0  0  # atno 17321 bound_to 7965
  139.4991  144.6662  151.6350 LP  0  0  0  0  0  0  0  0  0  0  0  0  # atno 17342 bound_to 10162
  140.5897  143.9801  150.6317 LP  0  0  0  0  0  0  0  0  0  0  0  0  # atno 17343 bound_to 10162
  157.6487  131.0900  150.8098 LP  0  0  0  0  0  0  0  0  0  0  0  0  # atno 17370 bound_to 10713
  156.8183  130.4975  149.5346 LP  0  0  0  0  0  0  0  0  0  0  0  0  # atno 17371 bound_to 10713
  139.9103  134.8359  156.1552 LP  0  0  0  0  0  0  0  0  0  0  0  0  # atno 17394 bound_to 11000
  141.0651  133.6823  156.2029 LP  0  0  0  0  0  0  0  0  0  0  0  0  # atno 17395 bound_to 11000

$$$$
