AV-unprocessed.smi:1576|AV-procd|sdf|6345|dock9
  -GOLD-   22720 6563D 1   1.00000     0.00000
 Structure written by MMmdl.
 46 48  0  0  0  0  0  0  0  0  2 V2000
  150.7595  136.0879  156.7408 O   0  0  0  0  0  0  0  0  0  0  0  0
  150.4322  136.3974  155.5956 C   0  0  0  0  0  0  0  0  0  0  0  0
  150.4121  137.6487  155.1047 N   0  0  0  0  0  0  0  0  0  0  0  0
  150.7147  138.8658  155.7732 C   0  0  0  0  0  0  0  0  0  0  0  0
  150.3773  140.1491  155.2786 C   0  0  0  0  0  0  0  0  0  0  0  0
  150.7393  141.2966  156.0140 C   0  0  0  0  0  0  0  0  0  0  0  0
  151.4427  141.1632  157.2380 C   0  0  0  0  0  0  0  0  0  0  0  0
  151.8502  142.2555  158.0377 N   0  0  0  0  0  0  0  0  0  0  0  0
  152.0980  141.9662  159.4542 C   0  0  0  0  0  0  0  0  0  0  0  0
  152.9206  143.0807  160.1227 C   0  0  0  0  0  0  0  0  0  0  0  0
  152.2741  144.4545  159.9013 C   0  0  0  0  0  0  0  0  0  0  0  0
  152.0829  144.7019  158.3991 C   0  0  0  0  0  0  0  0  0  0  0  0
  151.2719  143.5692  157.7463 C   0  0  0  0  0  0  0  0  0  0  0  0
  151.7537  139.9124  157.6575 N   0  3  0  0  0  0  0  0  0  0  0  0
  151.4283  138.7876  156.9856 C   0  0  0  0  0  0  0  0  0  0  0  0
  150.0628  135.5046  154.6665 N   0  0  0  0  0  0  0  0  0  0  0  0
  149.9896  134.0614  154.8749 C   0  0  2  0  0  0  0  0  0  0  0  0
  148.7372  133.6798  155.6856 C   0  0  0  0  0  0  0  0  0  0  0  0
  148.8913  132.2348  156.1752 C   0  0  0  0  0  0  0  0  0  0  0  0
  150.6874  131.9750  156.4319 S   0  0  0  0  0  0  0  0  0  0  0  0
  150.9955  132.0490  157.8680 O   0  0  0  0  0  0  0  0  0  0  0  0
  151.1243  130.8284  155.6215 O   0  0  0  0  0  0  0  0  0  0  0  0
  151.2214  133.5322  155.6270 C   0  0  0  0  0  0  0  0  0  0  0  0
  150.2024  137.7354  154.1210 H   0  0  0  0  0  0  0  0  0  0  0  0
  149.8578  140.2811  154.3422 H   0  0  0  0  0  0  0  0  0  0  0  0
  150.4607  142.2625  155.6210 H   0  0  0  0  0  0  0  0  0  0  0  0
  151.1370  141.8604  159.9592 H   0  0  0  0  0  0  0  0  0  0  0  0
  152.6279  141.0234  159.5876 H   0  0  0  0  0  0  0  0  0  0  0  0
  153.0186  142.8813  161.1901 H   0  0  0  0  0  0  0  0  0  0  0  0
  153.9322  143.0830  159.7144 H   0  0  0  0  0  0  0  0  0  0  0  0
  151.3102  144.4975  160.4098 H   0  0  0  0  0  0  0  0  0  0  0  0
  152.8946  145.2383  160.3365 H   0  0  0  0  0  0  0  0  0  0  0  0
  151.5842  145.6578  158.2373 H   0  0  0  0  0  0  0  0  0  0  0  0
  153.0582  144.7769  157.9163 H   0  0  0  0  0  0  0  0  0  0  0  0
  151.2503  143.7432  156.6702 H   0  0  0  0  0  0  0  0  0  0  0  0
  150.2412  143.5923  158.1021 H   0  0  0  0  0  0  0  0  0  0  0  0
  151.7450  137.8613  157.4434 H   0  0  0  0  0  0  0  0  0  0  0  0
  149.8156  135.8442  153.7484 H   0  0  0  0  0  0  0  0  0  0  0  0
  149.9266  133.5549  153.9097 H   0  0  0  0  0  0  0  0  0  0  0  0
  148.6585  134.3342  156.5549 H   0  0  0  0  0  0  0  0  0  0  0  0
  147.8229  133.8096  155.1057 H   0  0  0  0  0  0  0  0  0  0  0  0
  148.3448  132.0356  157.0971 H   0  0  0  0  0  0  0  0  0  0  0  0
  148.5563  131.5312  155.4129 H   0  0  0  0  0  0  0  0  0  0  0  0
  152.0722  133.3433  154.9720 H   0  0  0  0  0  0  0  0  0  0  0  0
  151.5333  134.2211  156.4127 H   0  0  0  0  0  0  0  0  0  0  0  0
  152.2682  139.8146  158.5330 H   0  0  0  0  0  0  0  0  0  0  0  0
  1  2  2  0  0  0  0
  2  3  1  0  0  0  0
  2 16  1  0  0  0  0
  3  4  1  0  0  0  0
  3 24  1  0  0  0  0
  4 15  1  0  0  0  0
  4  5  2  0  0  0  0
  5  6  1  0  0  0  0
  5 25  1  0  0  0  0
  6  7  2  0  0  0  0
  6 26  1  0  0  0  0
  7  8  1  0  0  0  0
  7 14  1  0  0  0  0
  8 13  1  0  0  0  0
  8  9  1  0  0  0  0
  9 10  1  0  0  0  0
  9 27  1  0  0  0  0
  9 28  1  0  0  0  0
 10 11  1  0  0  0  0
 10 29  1  0  0  0  0
 10 30  1  0  0  0  0
 11 12  1  0  0  0  0
 11 31  1  0  0  0  0
 11 32  1  0  0  0  0
 12 13  1  0  0  0  0
 12 33  1  0  0  0  0
 12 34  1  0  0  0  0
 13 35  1  0  0  0  0
 13 36  1  0  0  0  0
 14 15  2  0  0  0  0
 14 46  1  0  0  0  0
 15 37  1  0  0  0  0
 16 17  1  0  0  0  0
 16 38  1  0  0  0  0
 17 23  1  0  0  0  0
 17 18  1  0  0  0  0
 17 39  1  0  0  0  0
 18 19  1  0  0  0  0
 18 40  1  0  0  0  0
 18 41  1  0  0  0  0
 19 20  1  0  0  0  0
 19 42  1  0  0  0  0
 19 43  1  0  0  0  0
 20 21  2  0  0  0  0
 20 22  2  0  0  0  0
 20 23  1  0  0  0  0
 23 44  1  0  0  0  0
 23 45  1  0  0  0  0
M  CHG  1  14   1
M  END
> <s_m_source_file>
AV-unprocessed.smi

> <i_m_source_file_index>
1576

> <i_lp_mmshare_version>
43012

> <i_f3d_flags>
0

> <s_epik_input>
Tz1TMSg9TylbQ0gyXVtDSDJdW0NASF0oW0NIMl0xKVtOSF1DKD1PKVtOSF1jMltjSF1bY0hdYyhuW2NIXTIpTjNbQ0gyXVtDSDJdW0NIMl1bQ0gyXVtDSDJdMw==

> <s_epik_cmdline>
J2VwaWtfcHl0aG9uJywgJy1waCcsICc3LjAnLCAnLXRuJywgJzgnLCAnLW1hJywgJzIwMCcsICctbWV0YWxfYmluZGluZycsICctaW1hZScsICc8aW5maWxlLm1hZT4nLCAnLW9tYWUnLCAnPG91dGZpbGUubWFlPic=

> <r_lp_tautomer_probability>
0.999994

> <r_epik_Ionization_Penalty>
1.19724

> <r_epik_Ionization_Penalty_Charging>
1.19722

> <r_epik_Ionization_Penalty_Neutral>
2.11505e-05

> <r_epik_State_Penalty>
1.26251

> <r_epik_Charging_Adjusted_Penalty>
2.45973

> <i_epik_Tot_Q>
1

> <i_epik_Tot_abs_Q>
1

> <r_epik_Metal_State_Penalty>
1.33857

> <b_epik_Metal_Only>
0

> <s_lp_Force_Field>
OPLS_2005

> <r_lp_Energy>
26.9885

> <b_lp_Chiralities_Consistent>
1

> <s_lp_Variant>
AV-unprocessed.smi:1576-3

> <Gold.Version>
5.8.1

> <Gold.Id.Protein>
6NUR|6NUR_protein|mol2

> <Gold.PLP.Fitness>
41.9842

> <Gold.PLP.PLP>
-36.9339

> <Gold.PLP.part.hbond>
-2.0000

> <Gold.PLP.part.metal>
0.0000

> <Gold.PLP.part.buried>
-4.7282

> <Gold.PLP.part.nonpolar>
-30.6114

> <Gold.PLP.part.repulsive>
0.1800

> <Gold.PLP.ligand.clash>
0.0000

> <Gold.PLP.ligand.torsion>
0.7363

> <Gold.PLP.Chemscore.Hbond>
2.0000

> <Gold.PLP.Chemscore.CHOScore>
0.0000

> <Gold.PLP.Chemscore.Metal>
0.0000

> <Gold.Chemscore.Hbonds>
donor molecule, donor type, donor heavy atom, donor atom, acceptor molecule, acceptor atom, score
      L1  H    16    38       P1  7948  0.73
      P1  H  6896  6907       L1    21  1.00

> <Gold.PLP.Chemscore.Internal.Correction>
0.5229

> <Gold.Rescore>
     Score         DG    S(hbond)    S(metal)    S(lipo)     H(rot)  DE(clash)    DE(int)     intcor
     15.96     -19.47       1.63        0.00     100.48       1.25       0.15       3.37       ----

> <Gold.Chemscore.Fitness>
15.9551

> <Gold.Chemscore.DG>
-19.4708

> <Gold.Chemscore.ZeroCoef>
-5.4800

> <Gold.Chemscore.Hbond>
1.6251

> <Gold.Chemscore.Metal>
0.0000

> <Gold.Chemscore.Lipo>
100.4794

> <Gold.Chemscore.Internal_Hbond>
0.0000

> <Gold.Chemscore.DEClash>
0.1476

> <Gold.Chemscore.DEInternal>
3.3681

> <Gold.Chemscore.Rot>
1.2473

> <Gold.Chemscore.Internal.Correction>
   9.000000E+99

> <Gold.Chemscore.Hbonds>
donor molecule, donor type, donor heavy atom, donor atom, acceptor molecule, acceptor atom, score
      L1  H    16    38       P1  7948  0.10
      P1  H  6896  6907       L1    21  1.00

> <Gold.Chemscore.Hbond.Weighted>
-5.4279

> <Gold.Chemscore.Metal.Weighted>
-0.0000

> <Gold.Chemscore.Lipo.Weighted>
-11.7561

> <Gold.Chemscore.Internal_Hbond.Weighted>
0.0000

> <Gold.Chemscore.DEClash.Weighted>
0.1476

> <Gold.Chemscore.DEInternal.Weighted>
3.3681

> <Gold.Chemscore.Rot.Weighted>
3.1931

> <Gold.Chemscore.Internal.Correction.Weighted>
   9.000000E+99

> <Gold.Protein.RotatedTorsions>
[ 6907 6896 6895 6894 ] final -158.51 input  -60.11 | X-H torsion
[ 7974 7965 7964 7962 ] final  173.19 input  175.53 | X-H torsion
[ 8008 7997 7996 7995 ] final  108.32 input   59.86 | X-H torsion
[ 10167 10162 10161 10158 ] final   21.87 input  -65.29 | X-H torsion
[ 10718 10713 10712 10709 ] final  126.27 input   66.30 | X-H torsion
[ 10763 10752 10751 10750 ] final -167.02 input  -60.55 | X-H torsion
[ 11005 11000 10999 10996 ] final  127.77 input  -57.11 | X-H torsion

> <Gold.Protein.ActiveResidues>
 VAL166  LYS551  ARG553  GLY616  TRP617  ASP618  TYR619  PRO620  LYS621  CYS622 
 ASP623  PHE694  ASN695  SER759  ASP760  ASP761  ALA762  ILE779  LEU786  VAL792 
 PHE793  MET794  SER795  GLU796  ALA797  LYS798  CYS799  TRP800  GLU811  SER814 

> <Gold.Protein.RotatedAtoms>
  151.3193  133.4047  159.2652 H   0  0  0  0  0  0  0  0  0  0  0  0  # atno 6907 bound_to 6896
  151.0048  134.9351  159.7984 H   0  0  0  0  0  0  0  0  0  0  0  0  # atno 6908 bound_to 6896
  152.5285  134.3158  159.9183 H   0  0  0  0  0  0  0  0  0  0  0  0  # atno 6909 bound_to 6896
  144.7249  139.9610  143.6435 H   0  0  0  0  0  0  0  0  0  0  0  0  # atno 7974 bound_to 7965
  156.1894  140.3078  155.9302 H   0  0  0  0  0  0  0  0  0  0  0  0  # atno 8008 bound_to 7997
  155.3208  140.0455  157.3056 H   0  0  0  0  0  0  0  0  0  0  0  0  # atno 8009 bound_to 7997
  154.5434  140.2268  155.8613 H   0  0  0  0  0  0  0  0  0  0  0  0  # atno 8010 bound_to 7997
  140.5393  143.9705  150.6510 H   0  0  0  0  0  0  0  0  0  0  0  0  # atno 10167 bound_to 10162
  157.5433  131.1096  150.8823 H   0  0  0  0  0  0  0  0  0  0  0  0  # atno 10718 bound_to 10713
  154.6775  135.2949  154.9659 H   0  0  0  0  0  0  0  0  0  0  0  0  # atno 10763 bound_to 10752
  154.0665  135.6624  153.4822 H   0  0  0  0  0  0  0  0  0  0  0  0  # atno 10764 bound_to 10752
  153.0525  135.5165  154.7801 H   0  0  0  0  0  0  0  0  0  0  0  0  # atno 10765 bound_to 10752
  139.9525  134.9619  156.8903 H   0  0  0  0  0  0  0  0  0  0  0  0  # atno 11005 bound_to 11000
  146.0637  139.3629  143.0565 LP  0  0  0  0  0  0  0  0  0  0  0  0  # atno 17320 bound_to 7965
  145.8059  140.9749  143.0974 LP  0  0  0  0  0  0  0  0  0  0  0  0  # atno 17321 bound_to 7965
  140.3101  143.3204  152.0887 LP  0  0  0  0  0  0  0  0  0  0  0  0  # atno 17342 bound_to 10162
  139.4983  144.6642  151.6396 LP  0  0  0  0  0  0  0  0  0  0  0  0  # atno 17343 bound_to 10162
  156.9370  130.5370  149.5279 LP  0  0  0  0  0  0  0  0  0  0  0  0  # atno 17370 bound_to 10713
  156.0514  130.5583  150.8998 LP  0  0  0  0  0  0  0  0  0  0  0  0  # atno 17371 bound_to 10713
  140.5686  134.0465  155.7422 LP  0  0  0  0  0  0  0  0  0  0  0  0  # atno 17394 bound_to 11000
  141.1190  133.9492  157.2766 LP  0  0  0  0  0  0  0  0  0  0  0  0  # atno 17395 bound_to 11000

$$$$
