AV-unprocessed.smi:3096|AV-procd|sdf|11796|dock2
  -GOLD-   2272017173D 1   1.00000     0.00000
 Structure written by MMmdl.
 33 33  0  0  0  0  0  0  0  0  2 V2000
  145.8371  143.2888  154.0242 C   0  0  0  0  0  0  0  0  0  0  0  0
  146.5566  142.2817  154.5405 C   0  0  0  0  0  0  0  0  0  0  0  0
  147.8202  141.7298  153.9187 C   0  0  0  0  0  0  0  0  0  0  0  0
  148.9205  141.8593  154.8813 N   0  0  0  0  0  0  0  0  0  0  0  0
  149.8207  140.9027  155.1819 C   0  0  0  0  0  0  0  0  0  0  0  0
  149.7511  139.6977  154.5828 N   0  3  0  0  0  0  0  0  0  0  0  0
  150.6636  138.5724  154.8187 C   0  0  0  0  0  0  0  0  0  0  0  0
  150.7915  141.1525  156.0824 N   0  0  0  0  0  0  0  0  0  0  0  0
  150.9883  142.4216  156.7952 C   0  0  0  0  0  0  0  0  0  0  0  0
  150.9911  142.2126  158.3152 C   0  0  0  0  0  0  0  0  0  0  0  0
  151.4060  143.4118  159.0165 N   0  0  0  0  0  0  0  0  0  0  0  0
  151.7703  144.6333  158.4896 C   0  0  0  0  0  0  0  0  0  0  0  0
  152.0797  145.4512  159.5383 C   0  0  0  0  0  0  0  0  0  0  0  0
  151.8693  144.6303  160.6815 C   0  0  0  0  0  0  0  0  0  0  0  0
  151.4658  143.4102  160.3657 N   0  0  0  0  0  0  0  0  0  0  0  0
  146.1332  143.7796  153.1088 H   0  0  0  0  0  0  0  0  0  0  0  0
  144.9390  143.6362  154.5138 H   0  0  0  0  0  0  0  0  0  0  0  0
  146.2262  141.8135  155.4567 H   0  0  0  0  0  0  0  0  0  0  0  0
  147.6713  140.6792  153.6684 H   0  0  0  0  0  0  0  0  0  0  0  0
  148.0630  142.2663  153.0007 H   0  0  0  0  0  0  0  0  0  0  0  0
  149.0031  142.7517  155.3472 H   0  0  0  0  0  0  0  0  0  0  0  0
  150.3736  137.7185  154.2062 H   0  0  0  0  0  0  0  0  0  0  0  0
  150.6345  138.2717  155.8660 H   0  0  0  0  0  0  0  0  0  0  0  0
  151.6862  138.8499  154.5626 H   0  0  0  0  0  0  0  0  0  0  0  0
  151.4555  140.4180  156.2823 H   0  0  0  0  0  0  0  0  0  0  0  0
  151.9337  142.8588  156.4723 H   0  0  0  0  0  0  0  0  0  0  0  0
  150.1968  143.1164  156.5128 H   0  0  0  0  0  0  0  0  0  0  0  0
  149.9953  141.9337  158.6623 H   0  0  0  0  0  0  0  0  0  0  0  0
  151.6633  141.3986  158.5908 H   0  0  0  0  0  0  0  0  0  0  0  0
  151.7799  144.8169  157.4250 H   0  0  0  0  0  0  0  0  0  0  0  0
  152.4060  146.4799  159.4960 H   0  0  0  0  0  0  0  0  0  0  0  0
  151.9975  144.8827  161.7240 H   0  0  0  0  0  0  0  0  0  0  0  0
  149.0139  139.5426  153.9099 H   0  0  0  0  0  0  0  0  0  0  0  0
  1  2  2  0  0  0  0
  1 16  1  0  0  0  0
  1 17  1  0  0  0  0
  2  3  1  0  0  0  0
  2 18  1  0  0  0  0
  3  4  1  0  0  0  0
  3 19  1  0  0  0  0
  3 20  1  0  0  0  0
  4  5  1  0  0  0  0
  4 21  1  0  0  0  0
  5  6  2  0  0  0  0
  5  8  1  0  0  0  0
  6  7  1  0  0  0  0
  6 33  1  0  0  0  0
  7 22  1  0  0  0  0
  7 23  1  0  0  0  0
  7 24  1  0  0  0  0
  8  9  1  0  0  0  0
  8 25  1  0  0  0  0
  9 10  1  0  0  0  0
  9 26  1  0  0  0  0
  9 27  1  0  0  0  0
 10 11  1  0  0  0  0
 10 28  1  0  0  0  0
 10 29  1  0  0  0  0
 11 15  1  0  0  0  0
 11 12  1  0  0  0  0
 12 13  2  0  0  0  0
 12 30  1  0  0  0  0
 13 14  1  0  0  0  0
 13 31  1  0  0  0  0
 14 15  2  0  0  0  0
 14 32  1  0  0  0  0
M  CHG  1   6   1
M  END
> <s_m_source_file>
AV-unprocessed.smi

> <i_m_source_file_index>
3096

> <i_lp_mmshare_version>
43012

> <i_f3d_flags>
0

> <s_epik_input>
W0NIMl09W0NIXVtDSDJdW05IXS9DKD1OL1tDSDNdKVtOSF1bQ0gyXVtDSDJdbjFbY0hdW2NIXVtjSF1uMQ==

> <s_epik_cmdline>
J2VwaWtfcHl0aG9uJywgJy1waCcsICc3LjAnLCAnLXRuJywgJzgnLCAnLW1hJywgJzIwMCcsICctbWV0YWxfYmluZGluZycsICctaW1hZScsICc8aW5maWxlLm1hZT4nLCAnLW9tYWUnLCAnPG91dGZpbGUubWFlPic=

> <r_lp_tautomer_probability>
1

> <r_epik_Ionization_Penalty>
5.14269e-05

> <r_epik_Ionization_Penalty_Charging>
1.55211e-07

> <r_epik_Ionization_Penalty_Neutral>
5.12717e-05

> <r_epik_State_Penalty>
-0

> <r_epik_Charging_Adjusted_Penalty>
1.55211e-07

> <i_epik_Tot_Q>
1

> <i_epik_Tot_abs_Q>
1

> <r_epik_Metal_State_Penalty>
-0

> <b_epik_Metal_Only>
0

> <s_epik_Chemistry_Notes>
This compound has an imine and may undergo hydrolysis.

> <s_lp_Force_Field>
OPLS_2005

> <r_lp_Energy>
4.847

> <b_lp_Chiralities_Consistent>
1

> <s_lp_Variant>
AV-unprocessed.smi:3096-1

> <Gold.Version>
5.8.1

> <Gold.Id.Protein>
6NUR|6NUR_protein|mol2

> <Gold.PLP.Fitness>
44.9141

> <Gold.PLP.PLP>
-39.1048

> <Gold.PLP.part.hbond>
-1.4287

> <Gold.PLP.part.metal>
0.0000

> <Gold.PLP.part.buried>
-5.3456

> <Gold.PLP.part.nonpolar>
-32.4451

> <Gold.PLP.part.repulsive>
0.5461

> <Gold.PLP.ligand.clash>
0.0000

> <Gold.PLP.ligand.torsion>
0.1208

> <Gold.PLP.Chemscore.Hbond>
2.0000

> <Gold.PLP.Chemscore.CHOScore>
0.0000

> <Gold.PLP.Chemscore.Metal>
0.0000

> <Gold.Chemscore.Hbonds>
donor molecule, donor type, donor heavy atom, donor atom, acceptor molecule, acceptor atom, score
      L1  H     4    21       P1  8028  2.00

> <Gold.PLP.Chemscore.Internal.Correction>
0.0508

> <Gold.Rescore>
     Score         DG    S(hbond)    S(metal)    S(lipo)     H(rot)  DE(clash)    DE(int)     intcor
     13.58     -13.77       0.99        0.00      83.94       1.89       0.08       0.11       ----

> <Gold.Chemscore.Fitness>
13.5777

> <Gold.Chemscore.DG>
-13.7736

> <Gold.Chemscore.ZeroCoef>
-5.4800

> <Gold.Chemscore.Hbond>
0.9906

> <Gold.Chemscore.Metal>
0.0000

> <Gold.Chemscore.Lipo>
83.9409

> <Gold.Chemscore.Internal_Hbond>
0.0000

> <Gold.Chemscore.DEClash>
0.0823

> <Gold.Chemscore.DEInternal>
0.1136

> <Gold.Chemscore.Rot>
1.8891

> <Gold.Chemscore.Internal.Correction>
   9.000000E+99

> <Gold.Chemscore.Hbonds>
donor molecule, donor type, donor heavy atom, donor atom, acceptor molecule, acceptor atom, score
      L1  H     4    21       P1  8028  0.96

> <Gold.Chemscore.Hbond.Weighted>
-3.3086

> <Gold.Chemscore.Metal.Weighted>
-0.0000

> <Gold.Chemscore.Lipo.Weighted>
-9.8211

> <Gold.Chemscore.Internal_Hbond.Weighted>
0.0000

> <Gold.Chemscore.DEClash.Weighted>
0.0823

> <Gold.Chemscore.DEInternal.Weighted>
0.1136

> <Gold.Chemscore.Rot.Weighted>
4.8361

> <Gold.Chemscore.Internal.Correction.Weighted>
   9.000000E+99

> <Gold.Protein.RotatedTorsions>
[ 6907 6896 6895 6894 ] final -111.76 input  -60.11 | X-H torsion
[ 7974 7965 7964 7962 ] final  -98.62 input  175.53 | X-H torsion
[ 8008 7997 7996 7995 ] final  -92.46 input   59.86 | X-H torsion
[ 10167 10162 10161 10158 ] final   38.02 input  -65.29 | X-H torsion
[ 10718 10713 10712 10709 ] final   91.62 input   66.30 | X-H torsion
[ 10763 10752 10751 10750 ] final   19.70 input  -60.55 | X-H torsion
[ 11005 11000 10999 10996 ] final    0.21 input  -57.11 | X-H torsion

> <Gold.Protein.ActiveResidues>
 VAL166  LYS551  ARG553  GLY616  TRP617  ASP618  TYR619  PRO620  LYS621  CYS622 
 ASP623  PHE694  ASN695  SER759  ASP760  ASP761  ALA762  ILE779  LEU786  VAL792 
 PHE793  MET794  SER795  GLU796  ALA797  LYS798  CYS799  TRP800  GLU811  SER814 

> <Gold.Protein.RotatedAtoms>
  150.7712  133.9188  159.3391 H   0  0  0  0  0  0  0  0  0  0  0  0  # atno 6907 bound_to 6896
  151.7074  135.0917  160.0271 H   0  0  0  0  0  0  0  0  0  0  0  0  # atno 6908 bound_to 6896
  152.3730  133.6406  159.6137 H   0  0  0  0  0  0  0  0  0  0  0  0  # atno 6909 bound_to 6896
  145.3182  140.9416  143.2731 H   0  0  0  0  0  0  0  0  0  0  0  0  # atno 7974 bound_to 7965
  154.7234  140.0509  157.0660 H   0  0  0  0  0  0  0  0  0  0  0  0  # atno 8008 bound_to 7997
  155.0397  140.3167  155.4710 H   0  0  0  0  0  0  0  0  0  0  0  0  # atno 8009 bound_to 7997
  156.2822  140.2135  156.5520 H   0  0  0  0  0  0  0  0  0  0  0  0  # atno 8010 bound_to 7997
  140.3976  144.1767  150.6132 H   0  0  0  0  0  0  0  0  0  0  0  0  # atno 10167 bound_to 10162
  157.6960  131.0414  150.3758 H   0  0  0  0  0  0  0  0  0  0  0  0  # atno 10718 bound_to 10713
  153.1140  135.6703  153.9451 H   0  0  0  0  0  0  0  0  0  0  0  0  # atno 10763 bound_to 10752
  153.8986  135.3038  155.3449 H   0  0  0  0  0  0  0  0  0  0  0  0  # atno 10764 bound_to 10752
  154.7557  135.5013  153.9449 H   0  0  0  0  0  0  0  0  0  0  0  0  # atno 10765 bound_to 10752
  140.6291  133.9592  155.8264 H   0  0  0  0  0  0  0  0  0  0  0  0  # atno 11005 bound_to 11000
  144.8960  139.4711  143.6655 LP  0  0  0  0  0  0  0  0  0  0  0  0  # atno 17320 bound_to 7965
  146.3092  139.7687  142.9032 LP  0  0  0  0  0  0  0  0  0  0  0  0  # atno 17321 bound_to 7965
  140.4774  143.2391  151.9004 LP  0  0  0  0  0  0  0  0  0  0  0  0  # atno 17342 bound_to 10162
  139.4786  144.5306  151.8672 LP  0  0  0  0  0  0  0  0  0  0  0  0  # atno 17343 bound_to 10162
  156.4177  130.3946  149.6847 LP  0  0  0  0  0  0  0  0  0  0  0  0  # atno 17370 bound_to 10713
  156.4108  130.7721  151.2734 LP  0  0  0  0  0  0  0  0  0  0  0  0  # atno 17371 bound_to 10713
  141.0688  134.0236  157.3555 LP  0  0  0  0  0  0  0  0  0  0  0  0  # atno 17394 bound_to 11000
  139.9123  135.0192  156.7742 LP  0  0  0  0  0  0  0  0  0  0  0  0  # atno 17395 bound_to 11000

$$$$
