AV-unprocessed.smi:1032|AV-procd|sdf|4489|dock4
  -GOLD-   22720 2473D 1   1.00000     0.00000
 Structure written by MMmdl.
 47 48  0  0  0  0  0  0  0  0  3 V2000
  151.8475  143.5421  160.1189 C   0  0  0  0  0  0  0  0  0  0  0  0
  151.1302  144.3045  158.9913 C   0  0  2  0  0  0  0  0  0  0  0  0
  149.6082  144.0714  158.9870 C   0  0  0  0  0  0  0  0  0  0  0  0
  149.2324  142.6746  158.4604 C   0  0  0  0  0  0  0  0  0  0  0  0
  149.8034  142.4387  157.1080 N   0  3  2  0  0  0  0  0  0  0  0  0
  149.3608  141.1579  156.4986 C   0  0  0  0  0  0  0  0  0  0  0  0
  149.3742  141.2004  154.9564 C   0  0  1  0  0  0  0  0  0  0  0  0
  149.9609  139.9912  154.5162 O   0  0  0  0  0  0  0  0  0  0  0  0
  147.9454  141.2875  154.3813 C   0  0  0  0  0  0  0  0  0  0  0  0
  147.6423  140.1696  153.4926 N   0  0  0  0  0  0  0  0  0  0  0  0
  146.5883  139.3510  153.6178 C   0  0  0  0  0  0  0  0  0  0  0  0
  145.7656  139.4410  154.5285 O   0  0  0  0  0  0  0  0  0  0  0  0
  146.5701  138.4240  152.6444 N   0  0  0  0  0  0  0  0  0  0  0  0
  145.6055  137.4059  152.4114 C   0  0  0  0  0  0  0  0  0  0  0  0
  145.8981  136.4403  151.4224 C   0  0  0  0  0  0  0  0  0  0  0  0
  144.9621  135.4232  151.1449 C   0  0  0  0  0  0  0  0  0  0  0  0
  143.7913  135.3852  151.8163 N   0  3  0  0  0  0  0  0  0  0  0  0
  143.4607  136.2936  152.7591 C   0  0  0  0  0  0  0  0  0  0  0  0
  144.3568  137.3333  153.0804 C   0  0  0  0  0  0  0  0  0  0  0  0
  151.2813  142.5867  157.1043 C   0  0  0  0  0  0  0  0  0  0  0  0
  151.7020  143.9824  157.5987 C   0  0  0  0  0  0  0  0  0  0  0  0
  151.7380  142.4625  160.0214 H   0  0  0  0  0  0  0  0  0  0  0  0
  151.4522  143.8266  161.0945 H   0  0  0  0  0  0  0  0  0  0  0  0
  152.9146  143.7658  160.1228 H   0  0  0  0  0  0  0  0  0  0  0  0
  151.3003  145.3653  159.1805 H   0  0  0  0  0  0  0  0  0  0  0  0
  149.2010  144.2162  159.9884 H   0  0  0  0  0  0  0  0  0  0  0  0
  149.1333  144.8247  158.3567 H   0  0  0  0  0  0  0  0  0  0  0  0
  149.5825  141.9023  159.1466 H   0  0  0  0  0  0  0  0  0  0  0  0
  148.1465  142.5925  158.4300 H   0  0  0  0  0  0  0  0  0  0  0  0
  150.0127  140.3458  156.8257 H   0  0  0  0  0  0  0  0  0  0  0  0
  148.3649  140.9110  156.8698 H   0  0  0  0  0  0  0  0  0  0  0  0
  149.9656  142.0439  154.6008 H   0  0  0  0  0  0  0  0  0  0  0  0
  149.6223  139.7870  153.6569 H   0  0  0  0  0  0  0  0  0  0  0  0
  147.1973  141.3882  155.1703 H   0  0  0  0  0  0  0  0  0  0  0  0
  147.8559  142.1851  153.7688 H   0  0  0  0  0  0  0  0  0  0  0  0
  148.2724  140.0215  152.7176 H   0  0  0  0  0  0  0  0  0  0  0  0
  147.3649  138.4188  152.0217 H   0  0  0  0  0  0  0  0  0  0  0  0
  146.8332  136.4716  150.8821 H   0  0  0  0  0  0  0  0  0  0  0  0
  145.1130  134.6461  150.4097 H   0  0  0  0  0  0  0  0  0  0  0  0
  142.4924  136.1667  153.2211 H   0  0  0  0  0  0  0  0  0  0  0  0
  144.0631  138.0603  153.8221 H   0  0  0  0  0  0  0  0  0  0  0  0
  151.7309  141.8069  157.7202 H   0  0  0  0  0  0  0  0  0  0  0  0
  151.6603  142.4440  156.0918 H   0  0  0  0  0  0  0  0  0  0  0  0
  151.3481  144.7295  156.8867 H   0  0  0  0  0  0  0  0  0  0  0  0
  152.7893  144.0655  157.6072 H   0  0  0  0  0  0  0  0  0  0  0  0
  149.4504  143.1692  156.5058 H   0  0  0  0  0  0  0  0  0  0  0  0
  143.1268  134.6421  151.5991 H   0  0  0  0  0  0  0  0  0  0  0  0
  1  2  1  0  0  0  0
  1 22  1  0  0  0  0
  1 23  1  0  0  0  0
  1 24  1  0  0  0  0
  2 21  1  0  0  0  0
  2  3  1  0  0  0  0
  2 25  1  0  0  0  0
  3  4  1  0  0  0  0
  3 26  1  0  0  0  0
  3 27  1  0  0  0  0
  4  5  1  0  0  0  0
  4 28  1  0  0  0  0
  4 29  1  0  0  0  0
  5  6  1  0  0  0  0
  5 20  1  0  0  0  0
  5 46  1  0  0  0  0
  6  7  1  0  0  0  0
  6 30  1  0  0  0  0
  6 31  1  0  0  0  0
  7  8  1  0  0  0  0
  7  9  1  0  0  0  0
  7 32  1  0  0  0  0
  8 33  1  0  0  0  0
  9 10  1  0  0  0  0
  9 34  1  0  0  0  0
  9 35  1  0  0  0  0
 10 11  1  0  0  0  0
 10 36  1  0  0  0  0
 11 12  2  0  0  0  0
 11 13  1  0  0  0  0
 13 14  1  0  0  0  0
 13 37  1  0  0  0  0
 14 19  1  0  0  0  0
 14 15  2  0  0  0  0
 15 16  1  0  0  0  0
 15 38  1  0  0  0  0
 16 17  2  0  0  0  0
 16 39  1  0  0  0  0
 17 18  1  0  0  0  0
 17 47  1  0  0  0  0
 18 19  2  0  0  0  0
 18 40  1  0  0  0  0
 19 41  1  0  0  0  0
 20 21  1  0  0  0  0
 20 42  1  0  0  0  0
 20 43  1  0  0  0  0
 21 44  1  0  0  0  0
 21 45  1  0  0  0  0
M  CHG  1   5   1
M  CHG  1  17   1
M  END
> <s_m_source_file>
AV-unprocessed.smi

> <i_m_source_file_index>
1032

> <i_lp_mmshare_version>
43012

> <i_f3d_flags>
0

> <s_epik_input>
W0NIM11bQ0hdMVtDSDJdW0NIMl1OKFtDSDJdW0NIMl0xKVtDSDJdW0NASF0oW09IXSlbQ0gyXVtOSF1DKD1PKVtOSF1jMltjSF1bY0hdbltjSF1bY0hdMg==

> <s_epik_cmdline>
J2VwaWtfcHl0aG9uJywgJy1waCcsICc3LjAnLCAnLXRuJywgJzgnLCAnLW1hJywgJzIwMCcsICctbWV0YWxfYmluZGluZycsICctaW1hZScsICc8aW5maWxlLm1hZT4nLCAnLW9tYWUnLCAnPG91dGZpbGUubWFlPic=

> <r_epik_Ionization_Penalty>
1.02509

> <r_epik_Ionization_Penalty_Charging>
1.02507

> <r_epik_Ionization_Penalty_Neutral>
1.85474e-05

> <r_epik_State_Penalty>
1.07411

> <r_epik_Charging_Adjusted_Penalty>
2.09917

> <i_epik_Tot_Q>
2

> <i_epik_Tot_abs_Q>
2

> <r_epik_Metal_State_Penalty>
1.1725

> <b_epik_Metal_Only>
0

> <s_lp_Force_Field>
OPLS_2005

> <r_lp_Energy>
32.8821

> <b_lp_Chiralities_Consistent>
1

> <s_lp_Variant>
AV-unprocessed.smi:1032-8

> <Gold.Version>
5.8.1

> <Gold.Id.Protein>
6NUR|6NUR_protein|mol2

> <Gold.PLP.Fitness>
50.6700

> <Gold.PLP.PLP>
-39.5700

> <Gold.PLP.part.hbond>
-3.8463

> <Gold.PLP.part.metal>
0.0000

> <Gold.PLP.part.buried>
-3.0809

> <Gold.PLP.part.nonpolar>
-32.8799

> <Gold.PLP.part.repulsive>
0.2526

> <Gold.PLP.ligand.clash>
0.0000

> <Gold.PLP.ligand.torsion>
1.6675

> <Gold.PLP.Chemscore.Hbond>
4.7840

> <Gold.PLP.Chemscore.CHOScore>
0.0000

> <Gold.PLP.Chemscore.Metal>
0.0000

> <Gold.Chemscore.Hbonds>
donor molecule, donor type, donor heavy atom, donor atom, acceptor molecule, acceptor atom, score
      L1  H     5    46       P1  8028  2.00
      L1  H    10    36       P1  7957  0.96
      P1  H  7989  7998       L1     8  0.19

> <Gold.PLP.Chemscore.Internal.Correction>
0.0831

> <Gold.Rescore>
     Score         DG    S(hbond)    S(metal)    S(lipo)     H(rot)  DE(clash)    DE(int)     intcor
     18.54     -21.65       3.21        0.00      97.61       2.34       0.15       2.97       ----

> <Gold.Chemscore.Fitness>
18.5366

> <Gold.Chemscore.DG>
-21.6498

> <Gold.Chemscore.ZeroCoef>
-5.4800

> <Gold.Chemscore.Hbond>
3.2148

> <Gold.Chemscore.Metal>
0.0000

> <Gold.Chemscore.Lipo>
97.6148

> <Gold.Chemscore.Internal_Hbond>
0.0000

> <Gold.Chemscore.DEClash>
0.1478

> <Gold.Chemscore.DEInternal>
2.9654

> <Gold.Chemscore.Rot>
2.3393

> <Gold.Chemscore.Internal.Correction>
   9.000000E+99

> <Gold.Chemscore.Hbonds>
donor molecule, donor type, donor heavy atom, donor atom, acceptor molecule, acceptor atom, score
      L1  H     5    46       P1  8028  1.00
      L1  H     8    33       P1  7957  0.01
      L1  H    10    36       P1  7957  0.91

> <Gold.Chemscore.Hbond.Weighted>
-10.7376

> <Gold.Chemscore.Metal.Weighted>
-0.0000

> <Gold.Chemscore.Lipo.Weighted>
-11.4209

> <Gold.Chemscore.Internal_Hbond.Weighted>
0.0000

> <Gold.Chemscore.DEClash.Weighted>
0.1478

> <Gold.Chemscore.DEInternal.Weighted>
2.9654

> <Gold.Chemscore.Rot.Weighted>
5.9886

> <Gold.Chemscore.Internal.Correction.Weighted>
   9.000000E+99

> <Gold.Protein.RotatedTorsions>
[ 6907 6896 6895 6894 ] final -133.97 input  -60.11 | X-H torsion
[ 7974 7965 7964 7962 ] final -173.46 input  175.53 | X-H torsion
[ 8008 7997 7996 7995 ] final  132.88 input   59.86 | X-H torsion
[ 10167 10162 10161 10158 ] final  -52.63 input  -65.29 | X-H torsion
[ 10718 10713 10712 10709 ] final  -38.81 input   66.30 | X-H torsion
[ 10763 10752 10751 10750 ] final  -41.35 input  -60.55 | X-H torsion
[ 11005 11000 10999 10996 ] final  -24.06 input  -57.11 | X-H torsion

> <Gold.Protein.ActiveResidues>
 VAL166  LYS551  ARG553  GLY616  TRP617  ASP618  TYR619  PRO620  LYS621  CYS622 
 ASP623  PHE694  ASN695  SER759  ASP760  ASP761  ALA762  ILE779  LEU786  VAL792 
 PHE793  MET794  SER795  GLU796  ALA797  LYS798  CYS799  TRP800  GLU811  SER814 

> <Gold.Protein.RotatedAtoms>
  150.9803  133.6253  159.2723 H   0  0  0  0  0  0  0  0  0  0  0  0  # atno 6907 bound_to 6896
  151.3510  135.0883  159.9412 H   0  0  0  0  0  0  0  0  0  0  0  0  # atno 6908 bound_to 6896
  152.5213  133.9395  159.7674 H   0  0  0  0  0  0  0  0  0  0  0  0  # atno 6909 bound_to 6896
  144.7138  140.1618  143.6375 H   0  0  0  0  0  0  0  0  0  0  0  0  # atno 7974 bound_to 7965
  156.2987  140.2535  156.3162 H   0  0  0  0  0  0  0  0  0  0  0  0  # atno 8008 bound_to 7997
  154.9279  140.0399  157.2051 H   0  0  0  0  0  0  0  0  0  0  0  0  # atno 8009 bound_to 7997
  154.8247  140.2866  155.5767 H   0  0  0  0  0  0  0  0  0  0  0  0  # atno 8010 bound_to 7997
  140.6527  143.2577  151.4675 H   0  0  0  0  0  0  0  0  0  0  0  0  # atno 10167 bound_to 10162
  156.2995  130.4238  149.8157 H   0  0  0  0  0  0  0  0  0  0  0  0  # atno 10718 bound_to 10713
  153.9610  135.6739  153.4745 H   0  0  0  0  0  0  0  0  0  0  0  0  # atno 10763 bound_to 10752
  153.0838  135.4909  154.8553 H   0  0  0  0  0  0  0  0  0  0  0  0  # atno 10764 bound_to 10752
  154.7272  135.3130  154.8911 H   0  0  0  0  0  0  0  0  0  0  0  0  # atno 10765 bound_to 10752
  140.8810  133.7654  156.0302 H   0  0  0  0  0  0  0  0  0  0  0  0  # atno 11005 bound_to 11000
  145.9023  139.2438  143.1486 LP  0  0  0  0  0  0  0  0  0  0  0  0  # atno 17320 bound_to 7965
  145.9798  140.8692  143.0120 LP  0  0  0  0  0  0  0  0  0  0  0  0  # atno 17321 bound_to 7965
  139.5745  144.1851  152.1883 LP  0  0  0  0  0  0  0  0  0  0  0  0  # atno 17342 bound_to 10162
  140.1158  144.5417  150.6895 LP  0  0  0  0  0  0  0  0  0  0  0  0  # atno 17343 bound_to 10162
  156.5540  130.8354  151.3308 LP  0  0  0  0  0  0  0  0  0  0  0  0  # atno 17370 bound_to 10713
  157.7364  130.9778  150.2136 LP  0  0  0  0  0  0  0  0  0  0  0  0  # atno 17371 bound_to 10713
  140.8461  134.3009  157.5294 LP  0  0  0  0  0  0  0  0  0  0  0  0  # atno 17394 bound_to 11000
  139.8720  134.9442  156.3876 LP  0  0  0  0  0  0  0  0  0  0  0  0  # atno 17395 bound_to 11000

$$$$
