AV-unprocessed.smi:60|AV-procd|sdf|593|dock2
  -GOLD-   2262016483D 1   1.00000     0.00000
 Structure written by MMmdl.
 36 37  0  0  0  0  0  0  0  0  1 V2000
  153.4571  139.2881  158.0953 O   0  0  0  0  0  0  0  0  0  0  0  0
  152.4811  139.8137  157.5625 C   0  0  0  0  0  0  0  0  0  0  0  0
  152.1182  139.4367  156.2658 N   0  0  0  0  0  0  0  0  0  0  0  0
  151.0364  139.9422  155.5462 C   0  0  0  0  0  0  0  0  0  0  0  0
  150.8119  139.5432  154.4033 O   0  0  0  0  0  0  0  0  0  0  0  0
  150.2404  140.9080  156.1962 N   0  0  0  0  0  0  0  0  0  0  0  0
  149.1327  141.4734  155.4468 C   0  0  0  0  0  0  0  0  0  0  0  0
  148.0410  140.6159  155.5336 O   0  0  0  0  0  0  0  0  0  0  0  0
  146.8580  141.1605  154.9702 C   0  0  0  0  0  0  0  0  0  0  0  0
  147.0787  141.3975  153.4714 C   0  0  0  0  0  0  0  0  0  0  0  0
  147.4287  140.1872  152.8349 O   0  0  0  0  0  0  0  0  0  0  0  0
  150.5724  141.3282  157.4733 C   0  0  0  0  0  0  0  0  0  0  0  0
  151.6251  140.8360  158.1749 C   0  0  0  0  0  0  0  0  0  0  0  0
  151.9532  141.3195  159.5799 C   0  0  0  0  0  0  0  0  0  0  0  0
  152.0581  142.8305  159.6851 C   0  0  0  0  0  0  0  0  0  0  0  0
  151.9925  143.4597  160.9466 C   0  0  0  0  0  0  0  0  0  0  0  0
  152.0958  144.8608  161.0459 C   0  0  0  0  0  0  0  0  0  0  0  0
  152.2626  145.6391  159.8843 C   0  0  0  0  0  0  0  0  0  0  0  0
  152.3261  145.0152  158.6232 C   0  0  0  0  0  0  0  0  0  0  0  0
  152.2247  143.6138  158.5234 C   0  0  0  0  0  0  0  0  0  0  0  0
  152.6898  138.7396  155.8111 H   0  0  0  0  0  0  0  0  0  0  0  0
  148.9003  142.4639  155.8459 H   0  0  0  0  0  0  0  0  0  0  0  0
  149.4324  141.5895  154.4035 H   0  0  0  0  0  0  0  0  0  0  0  0
  146.0478  140.4412  155.1014 H   0  0  0  0  0  0  0  0  0  0  0  0
  146.5580  142.0813  155.4739 H   0  0  0  0  0  0  0  0  0  0  0  0
  146.1966  141.8359  153.0035 H   0  0  0  0  0  0  0  0  0  0  0  0
  147.9030  142.0960  153.3263 H   0  0  0  0  0  0  0  0  0  0  0  0
  148.2709  140.2983  152.4206 H   0  0  0  0  0  0  0  0  0  0  0  0
  149.9562  142.0846  157.9386 H   0  0  0  0  0  0  0  0  0  0  0  0
  151.2145  140.9392  160.2870 H   0  0  0  0  0  0  0  0  0  0  0  0
  152.9064  140.8922  159.8935 H   0  0  0  0  0  0  0  0  0  0  0  0
  151.8655  142.8692  161.8421 H   0  0  0  0  0  0  0  0  0  0  0  0
  152.0478  145.3385  162.0133 H   0  0  0  0  0  0  0  0  0  0  0  0
  152.3418  146.7135  159.9604 H   0  0  0  0  0  0  0  0  0  0  0  0
  152.4547  145.6117  157.7319 H   0  0  0  0  0  0  0  0  0  0  0  0
  152.2785  143.1430  157.5526 H   0  0  0  0  0  0  0  0  0  0  0  0
  1  2  2  0  0  0  0
  2 13  1  0  0  0  0
  2  3  1  0  0  0  0
  3 21  1  0  0  0  0
  3  4  1  0  0  0  0
  4  5  2  0  0  0  0
  4  6  1  0  0  0  0
  6  7  1  0  0  0  0
  6 12  1  0  0  0  0
  7  8  1  0  0  0  0
  7 22  1  0  0  0  0
  7 23  1  0  0  0  0
  8  9  1  0  0  0  0
  9 10  1  0  0  0  0
  9 24  1  0  0  0  0
  9 25  1  0  0  0  0
 10 11  1  0  0  0  0
 10 26  1  0  0  0  0
 10 27  1  0  0  0  0
 11 28  1  0  0  0  0
 12 13  2  0  0  0  0
 12 29  1  0  0  0  0
 13 14  1  0  0  0  0
 14 15  1  0  0  0  0
 14 30  1  0  0  0  0
 14 31  1  0  0  0  0
 15 20  1  0  0  0  0
 15 16  2  0  0  0  0
 16 17  1  0  0  0  0
 16 32  1  0  0  0  0
 17 18  2  0  0  0  0
 17 33  1  0  0  0  0
 18 19  1  0  0  0  0
 18 34  1  0  0  0  0
 19 20  2  0  0  0  0
 19 35  1  0  0  0  0
 20 36  1  0  0  0  0
M  END
> <s_m_source_file>
AV-unprocessed.smi

> <i_m_source_file_index>
60

> <i_lp_mmshare_version>
43012

> <i_f3d_flags>
0

> <s_epik_input>
W09IXVtDSDJdW0NIMl1PW0NIMl1uKGMoPU8pW25IXWMxPU8pW2NIXWMxW0NIMl1jMltjSF1bY0hdW2NIXVtjSF1bY0hdMg==

> <s_epik_cmdline>
J2VwaWtfcHl0aG9uJywgJy1waCcsICc3LjAnLCAnLXRuJywgJzgnLCAnLW1hJywgJzIwMCcsICctbWV0YWxfYmluZGluZycsICctaW1hZScsICc8aW5maWxlLm1hZT4nLCAnLW9tYWUnLCAnPG91dGZpbGUubWFlPic=

> <r_lp_tautomer_probability>
0.999537

> <r_epik_Ionization_Penalty>
0.00298861

> <r_epik_Ionization_Penalty_Charging>
0.00298856

> <r_epik_Ionization_Penalty_Neutral>
5.3532e-08

> <r_epik_State_Penalty>
0.00209779

> <r_epik_Charging_Adjusted_Penalty>
0.00508635

> <i_epik_Tot_Q>
0

> <i_epik_Tot_abs_Q>
0

> <r_epik_Metal_State_Penalty>
1.06718

> <b_epik_Metal_Only>
0

> <s_epik_Chemistry_Notes>
This compound contains an acetal/aminal-like group ( X-CH(R)-Y where X, Y are N, S, or O) that may be acid/base labile, releasing an aldehyde.

> <s_lp_Force_Field>
OPLS_2005

> <r_lp_Energy>
6.34754

> <b_lp_Chiralities_Consistent>
1

> <s_lp_Variant>
AV-unprocessed.smi:60-1

> <Gold.Version>
5.8.1

> <Gold.Id.Protein>
6NUR|6NUR_protein|mol2

> <Gold.PLP.Fitness>
50.0327

> <Gold.PLP.PLP>
-42.4935

> <Gold.PLP.part.hbond>
-3.0000

> <Gold.PLP.part.metal>
0.0000

> <Gold.PLP.part.buried>
-4.5922

> <Gold.PLP.part.nonpolar>
-35.1549

> <Gold.PLP.part.repulsive>
0.3381

> <Gold.PLP.ligand.clash>
0.0000

> <Gold.PLP.ligand.torsion>
0.6114

> <Gold.PLP.Chemscore.Hbond>
2.9000

> <Gold.PLP.Chemscore.CHOScore>
0.0000

> <Gold.PLP.Chemscore.Metal>
0.0000

> <Gold.Chemscore.Hbonds>
donor molecule, donor type, donor heavy atom, donor atom, acceptor molecule, acceptor atom, score
      L1  H    11    28       P1  7957  1.00
      P1  H  7989  7998       L1     5  0.95
      P1  H  7997  8009       L1     1  1.00

> <Gold.PLP.Chemscore.Internal.Correction>
0.0620

> <Gold.Rescore>
     Score         DG    S(hbond)    S(metal)    S(lipo)     H(rot)  DE(clash)    DE(int)     intcor
     12.78     -14.92       1.70        0.00     103.96       3.28       0.46       1.68       ----

> <Gold.Chemscore.Fitness>
12.7790

> <Gold.Chemscore.DG>
-14.9188

> <Gold.Chemscore.ZeroCoef>
-5.4800

> <Gold.Chemscore.Hbond>
1.7008

> <Gold.Chemscore.Metal>
0.0000

> <Gold.Chemscore.Lipo>
103.9587

> <Gold.Chemscore.Internal_Hbond>
0.0000

> <Gold.Chemscore.DEClash>
0.4643

> <Gold.Chemscore.DEInternal>
1.6755

> <Gold.Chemscore.Rot>
3.2832

> <Gold.Chemscore.Internal.Correction>
   9.000000E+99

> <Gold.Chemscore.Hbonds>
donor molecule, donor type, donor heavy atom, donor atom, acceptor molecule, acceptor atom, score
      L1  H    11    28       P1  7957  0.99
      P1  H  7989  7998       L1     5  0.22
      P1  H  7997  8009       L1     1  0.26

> <Gold.Chemscore.Hbond.Weighted>
-5.6807

> <Gold.Chemscore.Metal.Weighted>
-0.0000

> <Gold.Chemscore.Lipo.Weighted>
-12.1632

> <Gold.Chemscore.Internal_Hbond.Weighted>
0.0000

> <Gold.Chemscore.DEClash.Weighted>
0.4643

> <Gold.Chemscore.DEInternal.Weighted>
1.6755

> <Gold.Chemscore.Rot.Weighted>
8.4050

> <Gold.Chemscore.Internal.Correction.Weighted>
   9.000000E+99

> <Gold.Protein.RotatedTorsions>
[ 6907 6896 6895 6894 ] final -153.62 input  -60.11 | X-H torsion
[ 7974 7965 7964 7962 ] final  136.83 input  175.53 | X-H torsion
[ 8008 7997 7996 7995 ] final  142.37 input   59.86 | X-H torsion
[ 10167 10162 10161 10158 ] final  115.76 input  -65.29 | X-H torsion
[ 10718 10713 10712 10709 ] final -149.13 input   66.30 | X-H torsion
[ 10763 10752 10751 10750 ] final  159.92 input  -60.55 | X-H torsion
[ 11005 11000 10999 10996 ] final  159.50 input  -57.11 | X-H torsion

> <Gold.Protein.ActiveResidues>
 VAL166  LYS551  ARG553  GLY616  TRP617  ASP618  TYR619  PRO620  LYS621  CYS622 
 ASP623  PHE694  ASN695  SER759  ASP760  ASP761  ALA762  ILE779  LEU786  VAL792 
 PHE793  MET794  SER795  GLU796  ALA797  LYS798  CYS799  TRP800  GLU811  SER814 

> <Gold.Protein.RotatedAtoms>
  151.2453  133.4378  159.2608 H   0  0  0  0  0  0  0  0  0  0  0  0  # atno 6907 bound_to 6896
  151.0667  134.9772  159.8298 H   0  0  0  0  0  0  0  0  0  0  0  0  # atno 6908 bound_to 6896
  152.5406  134.2401  159.8911 H   0  0  0  0  0  0  0  0  0  0  0  0  # atno 6909 bound_to 6896
  144.9527  139.4800  143.5518 H   0  0  0  0  0  0  0  0  0  0  0  0  # atno 7974 bound_to 7965
  156.2950  140.2290  156.4717 H   0  0  0  0  0  0  0  0  0  0  0  0  # atno 8008 bound_to 7997
  154.7929  140.0453  157.1236 H   0  0  0  0  0  0  0  0  0  0  0  0  # atno 8009 bound_to 7997
  154.9623  140.3056  155.5028 H   0  0  0  0  0  0  0  0  0  0  0  0  # atno 8010 bound_to 7997
  139.6294  144.7113  151.2464 H   0  0  0  0  0  0  0  0  0  0  0  0  # atno 10167 bound_to 10162
  156.4292  130.8067  151.2293 H   0  0  0  0  0  0  0  0  0  0  0  0  # atno 10718 bound_to 10713
  154.2394  135.2775  155.2860 H   0  0  0  0  0  0  0  0  0  0  0  0  # atno 10763 bound_to 10752
  154.5558  135.5661  153.6966 H   0  0  0  0  0  0  0  0  0  0  0  0  # atno 10764 bound_to 10752
  153.0003  135.6285  154.2537 H   0  0  0  0  0  0  0  0  0  0  0  0  # atno 10765 bound_to 10752
  140.1968  134.8367  157.2973 H   0  0  0  0  0  0  0  0  0  0  0  0  # atno 11005 bound_to 11000
  146.3326  139.8623  142.8854 LP  0  0  0  0  0  0  0  0  0  0  0  0  # atno 17320 bound_to 7965
  145.2820  141.0141  143.3712 LP  0  0  0  0  0  0  0  0  0  0  0  0  # atno 17321 bound_to 7965
  140.7430  143.6508  150.8250 LP  0  0  0  0  0  0  0  0  0  0  0  0  # atno 17342 bound_to 10162
  140.0130  143.5622  152.2831 LP  0  0  0  0  0  0  0  0  0  0  0  0  # atno 17343 bound_to 10162
  157.7508  131.0203  150.3705 LP  0  0  0  0  0  0  0  0  0  0  0  0  # atno 17370 bound_to 10713
  156.4039  130.3921  149.6940 LP  0  0  0  0  0  0  0  0  0  0  0  0  # atno 17371 bound_to 10713
  140.2098  134.4152  155.7618 LP  0  0  0  0  0  0  0  0  0  0  0  0  # atno 17394 bound_to 11000
  141.2227  133.7113  156.8320 LP  0  0  0  0  0  0  0  0  0  0  0  0  # atno 17395 bound_to 11000

$$$$
