AV-unprocessed.smi:99|AV-procd|sdf|875|dock10
  -GOLD-   2262017343D 1   1.00000     0.00000
 Structure written by MMmdl.
 53 56  0  0  0  0  0  0  0  0  1 V2000
  152.5407  139.8387  157.1511 O   0  0  0  0  0  0  0  0  0  0  0  0
  151.7092  140.4765  157.7995 C   0  0  0  0  0  0  0  0  0  0  0  0
  150.5979  139.9360  158.3300 O   0  0  0  0  0  0  0  0  0  0  0  0
  150.4655  138.5295  158.4759 C   0  0  0  0  0  0  0  0  0  0  0  0
  150.2608  137.8873  157.0939 C   0  0  2  0  0  0  0  0  0  0  0  0
  149.4874  138.7341  156.2549 O   0  0  0  0  0  0  0  0  0  0  0  0
  148.6654  137.9884  155.4101 C   0  0  2  0  0  0  0  0  0  0  0  0
  147.2444  138.4909  155.6257 N   0  0  0  0  0  0  0  0  0  0  0  0
  146.6507  138.6162  156.8791 C   0  0  0  0  0  0  0  0  0  0  0  0
  145.4303  139.1680  157.0759 C   0  0  0  0  0  0  0  0  0  0  0  0
  144.6643  139.6930  155.9529 C   0  0  0  0  0  0  0  0  0  0  0  0
  143.5516  140.2088  156.0319 O   0  0  0  0  0  0  0  0  0  0  0  0
  145.3045  139.5825  154.7174 N   0  0  0  0  0  0  0  0  0  0  0  0
  146.5657  139.0245  154.5044 C   0  0  0  0  0  0  0  0  0  0  0  0
  147.0434  139.0189  153.3703 O   0  0  0  0  0  0  0  0  0  0  0  0
  148.8943  136.4893  155.7110 C   0  0  1  0  0  0  0  0  0  0  0  0
  149.7155  135.8769  154.7369 O   0  0  0  0  0  0  0  0  0  0  0  0
  149.6136  136.4958  157.0568 C   0  0  2  0  0  0  0  0  0  0  0  0
  148.6925  136.3029  158.1244 O   0  0  0  0  0  0  0  0  0  0  0  0
  148.4100  135.0684  158.5934 C   0  0  0  0  0  0  0  0  0  0  0  0
  148.4426  134.0479  157.9035 O   0  0  0  0  0  0  0  0  0  0  0  0
  148.0594  135.0714  160.0419 C   0  0  0  0  0  0  0  0  0  0  0  0
  148.0690  136.2903  160.7587 C   0  0  0  0  0  0  0  0  0  0  0  0
  147.7353  136.3190  162.1271 C   0  0  0  0  0  0  0  0  0  0  0  0
  147.3924  135.1290  162.7956 C   0  0  0  0  0  0  0  0  0  0  0  0
  147.3875  133.9090  162.0951 C   0  0  0  0  0  0  0  0  0  0  0  0
  147.7206  133.8798  160.7277 C   0  0  0  0  0  0  0  0  0  0  0  0
  151.8367  141.9300  158.1052 C   0  0  0  0  0  0  0  0  0  0  0  0
  152.5707  142.3389  159.2423 C   0  0  0  0  0  0  0  0  0  0  0  0
  152.6859  143.7045  159.5672 C   0  0  0  0  0  0  0  0  0  0  0  0
  152.0719  144.6769  158.7565 C   0  0  0  0  0  0  0  0  0  0  0  0
  151.3454  144.2831  157.6180 C   0  0  0  0  0  0  0  0  0  0  0  0
  151.2293  142.9183  157.2914 C   0  0  0  0  0  0  0  0  0  0  0  0
  144.8204  139.9512  153.9118 H   0  0  0  0  0  0  0  0  0  0  0  0
  151.3735  138.1429  158.9393 H   0  0  0  0  0  0  0  0  0  0  0  0
  149.6297  138.2716  159.1281 H   0  0  0  0  0  0  0  0  0  0  0  0
  151.2360  137.7951  156.6142 H   0  0  0  0  0  0  0  0  0  0  0  0
  148.8884  138.2104  154.3644 H   0  0  0  0  0  0  0  0  0  0  0  0
  147.1478  138.2714  157.7671 H   0  0  0  0  0  0  0  0  0  0  0  0
  145.0217  139.2300  158.0743 H   0  0  0  0  0  0  0  0  0  0  0  0
  147.9689  135.9164  155.7062 H   0  0  0  0  0  0  0  0  0  0  0  0
  149.3023  135.9713  153.8923 H   0  0  0  0  0  0  0  0  0  0  0  0
  150.3917  135.7320  157.1042 H   0  0  0  0  0  0  0  0  0  0  0  0
  148.3261  137.2168  160.2655 H   0  0  0  0  0  0  0  0  0  0  0  0
  147.7414  137.2562  162.6638 H   0  0  0  0  0  0  0  0  0  0  0  0
  147.1354  135.1515  163.8444 H   0  0  0  0  0  0  0  0  0  0  0  0
  147.1278  132.9931  162.6056 H   0  0  0  0  0  0  0  0  0  0  0  0
  147.7146  132.9275  160.2205 H   0  0  0  0  0  0  0  0  0  0  0  0
  153.0442  141.6091  159.8830 H   0  0  0  0  0  0  0  0  0  0  0  0
  153.2440  144.0053  160.4415 H   0  0  0  0  0  0  0  0  0  0  0  0
  152.1595  145.7240  159.0069 H   0  0  0  0  0  0  0  0  0  0  0  0
  150.8755  145.0288  156.9938 H   0  0  0  0  0  0  0  0  0  0  0  0
  150.6646  142.6492  156.4107 H   0  0  0  0  0  0  0  0  0  0  0  0
  1  2  2  0  0  0  0
  2  3  1  0  0  0  0
  2 28  1  0  0  0  0
  3  4  1  0  0  0  0
  4  5  1  0  0  0  0
  4 35  1  0  0  0  0
  4 36  1  0  0  0  0
  5 18  1  0  0  0  0
  5  6  1  0  0  0  0
  5 37  1  0  0  0  0
  6  7  1  0  0  0  0
  7  8  1  0  0  0  0
  7 16  1  0  0  0  0
  7 38  1  0  0  0  0
  8 14  1  0  0  0  0
  8  9  1  0  0  0  0
  9 10  2  0  0  0  0
  9 39  1  0  0  0  0
 10 11  1  0  0  0  0
 10 40  1  0  0  0  0
 11 12  2  0  0  0  0
 11 13  1  0  0  0  0
 13 34  1  0  0  0  0
 13 14  1  0  0  0  0
 14 15  2  0  0  0  0
 16 17  1  0  0  0  0
 16 18  1  0  0  0  0
 16 41  1  0  0  0  0
 17 42  1  0  0  0  0
 18 19  1  0  0  0  0
 18 43  1  0  0  0  0
 19 20  1  0  0  0  0
 20 21  2  0  0  0  0
 20 22  1  0  0  0  0
 22 27  1  0  0  0  0
 22 23  2  0  0  0  0
 23 24  1  0  0  0  0
 23 44  1  0  0  0  0
 24 25  2  0  0  0  0
 24 45  1  0  0  0  0
 25 26  1  0  0  0  0
 25 46  1  0  0  0  0
 26 27  2  0  0  0  0
 26 47  1  0  0  0  0
 27 48  1  0  0  0  0
 28 33  1  0  0  0  0
 28 29  2  0  0  0  0
 29 30  1  0  0  0  0
 29 49  1  0  0  0  0
 30 31  2  0  0  0  0
 30 50  1  0  0  0  0
 31 32  1  0  0  0  0
 31 51  1  0  0  0  0
 32 33  2  0  0  0  0
 32 52  1  0  0  0  0
 33 53  1  0  0  0  0
M  END
> <s_m_source_file>
AV-unprocessed.smi

> <i_m_source_file_index>
99

> <i_lp_mmshare_version>
43012

> <i_f3d_flags>
0

> <s_epik_input>
W2NIXTFbY0hdW2NIXVtjSF1bY0hdYzFDKD1PKU9bQ0gyXVtDQEBIXTJPW0NAQEhdKG4zW2NIXVtjSF1jKD1PKVtuSF1jMz1PKVtDQEBIXShbT0hdKVtDQEhdMk9DKD1PKWM0W2NIXVtjSF1bY0hdW2NIXVtjSF00

> <s_epik_cmdline>
J2VwaWtfcHl0aG9uJywgJy1waCcsICc3LjAnLCAnLXRuJywgJzgnLCAnLW1hJywgJzIwMCcsICctbWV0YWxfYmluZGluZycsICctaW1hZScsICc8aW5maWxlLm1hZT4nLCAnLW9tYWUnLCAnPG91dGZpbGUubWFlPic=

> <r_lp_tautomer_probability>
1

> <r_epik_Ionization_Penalty>
0.00454555

> <r_epik_Ionization_Penalty_Charging>
0.0045191

> <r_epik_Ionization_Penalty_Neutral>
2.64449e-05

> <r_epik_State_Penalty>
-0

> <r_epik_Charging_Adjusted_Penalty>
0.0045191

> <i_epik_Tot_Q>
0

> <i_epik_Tot_abs_Q>
0

> <r_epik_Metal_State_Penalty>
1.27877

> <b_epik_Metal_Only>
0

> <s_epik_Chemistry_Notes>
This compound has an ester and may undergo hydrolysis at high or low pH. This compound contains an acetal/aminal-like group ( X-CH(R)-Y where X, Y are N, S, or O) that may be acid/base labile, releasing an aldehyde.

> <s_lp_Force_Field>
OPLS_2005

> <r_lp_Energy>
29.5489

> <b_lp_Chiralities_Consistent>
1

> <s_lp_Variant>
AV-unprocessed.smi:99-11

> <Gold.Version>
5.8.1

> <Gold.Id.Protein>
6NUR|6NUR_protein|mol2

> <Gold.PLP.Fitness>
52.6766

> <Gold.PLP.PLP>
-49.0006

> <Gold.PLP.part.hbond>
-3.0000

> <Gold.PLP.part.metal>
0.0000

> <Gold.PLP.part.buried>
-7.0757

> <Gold.PLP.part.nonpolar>
-39.8642

> <Gold.PLP.part.repulsive>
0.3023

> <Gold.PLP.ligand.clash>
0.0000

> <Gold.PLP.ligand.torsion>
2.7967

> <Gold.PLP.Chemscore.Hbond>
3.0000

> <Gold.PLP.Chemscore.CHOScore>
0.0000

> <Gold.PLP.Chemscore.Metal>
0.0000

> <Gold.Chemscore.Hbonds>
donor molecule, donor type, donor heavy atom, donor atom, acceptor molecule, acceptor atom, score
      L1  H    13    34       P1 10175  1.00
      L1  H    17    42       P1  7948  0.94
      P1  H  7997  8010       L1     1  1.00

> <Gold.PLP.Chemscore.Internal.Correction>
0.2693

> <Gold.Rescore>
     Score         DG    S(hbond)    S(metal)    S(lipo)     H(rot)  DE(clash)    DE(int)     intcor
     19.17     -21.88       2.92        0.00     126.63       3.19       0.01       2.71       ----

> <Gold.Chemscore.Fitness>
19.1652

> <Gold.Chemscore.DG>
-21.8803

> <Gold.Chemscore.ZeroCoef>
-5.4800

> <Gold.Chemscore.Hbond>
2.9195

> <Gold.Chemscore.Metal>
0.0000

> <Gold.Chemscore.Lipo>
126.6338

> <Gold.Chemscore.Internal_Hbond>
0.0000

> <Gold.Chemscore.DEClash>
0.0073

> <Gold.Chemscore.DEInternal>
2.7078

> <Gold.Chemscore.Rot>
3.1903

> <Gold.Chemscore.Internal.Correction>
   9.000000E+99

> <Gold.Chemscore.Hbonds>
donor molecule, donor type, donor heavy atom, donor atom, acceptor molecule, acceptor atom, score
      L1  H    13    34       P1 10175  1.00
      L1  H    17    42       P1  7948  0.70
      P1  H  7997  8010       L1     1  0.98

> <Gold.Chemscore.Hbond.Weighted>
-9.7513

> <Gold.Chemscore.Metal.Weighted>
-0.0000

> <Gold.Chemscore.Lipo.Weighted>
-14.8162

> <Gold.Chemscore.Internal_Hbond.Weighted>
0.0000

> <Gold.Chemscore.DEClash.Weighted>
0.0073

> <Gold.Chemscore.DEInternal.Weighted>
2.7078

> <Gold.Chemscore.Rot.Weighted>
8.1671

> <Gold.Chemscore.Internal.Correction.Weighted>
   9.000000E+99

> <Gold.Protein.RotatedTorsions>
[ 6907 6896 6895 6894 ] final  119.20 input  -60.11 | X-H torsion
[ 7974 7965 7964 7962 ] final -117.76 input  175.53 | X-H torsion
[ 8008 7997 7996 7995 ] final   71.33 input   59.86 | X-H torsion
[ 10167 10162 10161 10158 ] final   53.29 input  -65.29 | X-H torsion
[ 10718 10713 10712 10709 ] final  169.22 input   66.30 | X-H torsion
[ 10763 10752 10751 10750 ] final   98.78 input  -60.55 | X-H torsion
[ 11005 11000 10999 10996 ] final  161.31 input  -57.11 | X-H torsion

> <Gold.Protein.ActiveResidues>
 VAL166  LYS551  ARG553  GLY616  TRP617  ASP618  TYR619  PRO620  LYS621  CYS622 
 ASP623  PHE694  ASN695  SER759  ASP760  ASP761  ALA762  ILE779  LEU786  VAL792 
 PHE793  MET794  SER795  GLU796  ALA797  LYS798  CYS799  TRP800  GLU811  SER814 

> <Gold.Protein.RotatedAtoms>
  152.4489  133.7589  159.6735 H   0  0  0  0  0  0  0  0  0  0  0  0  # atno 6907 bound_to 6896
  150.8395  133.7948  159.3072 H   0  0  0  0  0  0  0  0  0  0  0  0  # atno 6908 bound_to 6896
  151.5578  135.1069  160.0017 H   0  0  0  0  0  0  0  0  0  0  0  0  # atno 6909 bound_to 6896
  145.0815  140.8429  143.4036 H   0  0  0  0  0  0  0  0  0  0  0  0  # atno 7974 bound_to 7965
  155.7522  140.3488  155.5156 H   0  0  0  0  0  0  0  0  0  0  0  0  # atno 8008 bound_to 7997
  155.8994  140.1031  157.1382 H   0  0  0  0  0  0  0  0  0  0  0  0  # atno 8009 bound_to 7997
  154.4042  140.1289  156.4403 H   0  0  0  0  0  0  0  0  0  0  0  0  # atno 8010 bound_to 7997
  140.2423  144.3569  150.6376 H   0  0  0  0  0  0  0  0  0  0  0  0  # atno 10167 bound_to 10162
  157.0258  131.0245  151.2760 H   0  0  0  0  0  0  0  0  0  0  0  0  # atno 10718 bound_to 10713
  153.2932  135.4136  155.1186 H   0  0  0  0  0  0  0  0  0  0  0  0  # atno 10763 bound_to 10752
  154.8527  135.3523  154.5952 H   0  0  0  0  0  0  0  0  0  0  0  0  # atno 10764 bound_to 10752
  153.6375  135.7058  153.5311 H   0  0  0  0  0  0  0  0  0  0  0  0  # atno 10765 bound_to 10752
  140.2145  134.8242  157.3156 H   0  0  0  0  0  0  0  0  0  0  0  0  # atno 11005 bound_to 11000
  145.1172  139.2717  143.5607 LP  0  0  0  0  0  0  0  0  0  0  0  0  # atno 17320 bound_to 7965
  146.3531  140.0786  142.8619 LP  0  0  0  0  0  0  0  0  0  0  0  0  # atno 17321 bound_to 7965
  140.6104  143.2169  151.6898 LP  0  0  0  0  0  0  0  0  0  0  0  0  # atno 17342 bound_to 10162
  139.5073  144.3651  152.0525 LP  0  0  0  0  0  0  0  0  0  0  0  0  # atno 17343 bound_to 10162
  157.5215  130.8001  149.7814 LP  0  0  0  0  0  0  0  0  0  0  0  0  # atno 17370 bound_to 10713
  156.0086  130.3843  150.2342 LP  0  0  0  0  0  0  0  0  0  0  0  0  # atno 17371 bound_to 10713
  140.1915  134.4366  155.7713 LP  0  0  0  0  0  0  0  0  0  0  0  0  # atno 17394 bound_to 11000
  141.2225  133.7029  156.8035 LP  0  0  0  0  0  0  0  0  0  0  0  0  # atno 17395 bound_to 11000

$$$$
