AV-unprocessed.smi:274|AV-procd|sdf|2060|dock7
  -GOLD-   2262021303D 1   1.00000     0.00000
 Structure written by MMmdl.
 50 53  0  0  0  0  0  0  0  0  1 V2000
  149.5565  139.1660  157.8869 C   0  0  0  0  0  0  0  0  0  0  0  0
  148.2148  139.3893  157.1605 C   0  0  0  0  0  0  0  0  0  0  0  0
  147.2088  138.3180  157.6284 C   0  0  0  0  0  0  0  0  0  0  0  0
  148.3487  139.4271  155.6052 C   0  0  2  0  0  0  0  0  0  0  0  0
  149.3567  140.4991  155.1181 C   0  0  0  0  0  0  0  0  0  0  0  0
  150.5649  140.2902  155.2066 O   0  0  0  0  0  0  0  0  0  0  0  0
  148.8897  141.6362  154.5712 N   0  0  0  0  0  0  0  0  0  0  0  0
  147.4844  141.9670  154.3340 C   0  0  0  0  0  0  0  0  0  0  0  0
  146.5046  141.0010  155.0238 C   0  0  0  0  0  0  0  0  0  0  0  0
  147.0249  139.6361  154.9941 N   0  0  0  0  0  0  0  0  0  0  0  0
  146.6932  138.9309  153.8813 C   0  0  0  0  0  0  0  0  0  0  0  0
  147.2910  139.2065  152.6914 N   0  0  0  0  0  0  0  0  0  0  0  0
  146.9493  138.5286  151.5920 C   0  0  0  0  0  0  0  0  0  0  0  0
  146.0467  137.5548  151.4591 N   0  0  0  0  0  0  0  0  0  0  0  0
  145.4436  137.2733  152.6497 C   0  0  0  0  0  0  0  0  0  0  0  0
  145.7097  137.9034  153.8977 C   0  0  0  0  0  0  0  0  0  0  0  0
  144.9193  137.3394  154.8918 N   0  0  0  0  0  0  0  0  0  0  0  0
  144.2212  136.4320  154.2654 C   0  0  0  0  0  0  0  0  0  0  0  0
  144.4591  136.3360  152.9125 N   0  0  0  0  0  0  0  0  0  0  0  0
  143.8236  135.4216  151.9752 C   0  0  0  0  0  0  0  0  0  0  0  0
  144.8155  134.5284  151.1858 C   0  0  2  0  0  0  0  0  0  0  0  0
  145.6001  135.3393  150.3306 O   0  0  0  0  0  0  0  0  0  0  0  0
  144.1464  133.4287  150.3574 C   0  0  0  0  0  0  0  0  0  0  0  0
  144.2914  132.1978  151.2402 C   0  0  0  0  0  0  0  0  0  0  0  0
  145.5891  132.3658  151.7807 O   0  0  0  0  0  0  0  0  0  0  0  0
  145.7389  133.7354  152.1335 C   0  0  0  0  0  0  0  0  0  0  0  0
  150.0502  138.2593  157.5364 H   0  0  0  0  0  0  0  0  0  0  0  0
  149.4083  139.0661  158.9625 H   0  0  0  0  0  0  0  0  0  0  0  0
  150.2432  140.0002  157.7465 H   0  0  0  0  0  0  0  0  0  0  0  0
  147.8349  140.3533  157.5005 H   0  0  0  0  0  0  0  0  0  0  0  0
  147.5028  137.3253  157.2862 H   0  0  0  0  0  0  0  0  0  0  0  0
  146.2015  138.5129  157.2599 H   0  0  0  0  0  0  0  0  0  0  0  0
  147.1439  138.2872  158.7165 H   0  0  0  0  0  0  0  0  0  0  0  0
  148.7400  138.4542  155.3019 H   0  0  0  0  0  0  0  0  0  0  0  0
  149.5705  142.3139  154.2600 H   0  0  0  0  0  0  0  0  0  0  0  0
  147.2904  142.9942  154.6427 H   0  0  0  0  0  0  0  0  0  0  0  0
  147.3256  141.9293  153.2558 H   0  0  0  0  0  0  0  0  0  0  0  0
  146.3700  141.2961  156.0642 H   0  0  0  0  0  0  0  0  0  0  0  0
  145.5178  141.0827  154.5673 H   0  0  0  0  0  0  0  0  0  0  0  0
  147.4721  138.8081  150.6893 H   0  0  0  0  0  0  0  0  0  0  0  0
  143.5046  135.8063  154.7774 H   0  0  0  0  0  0  0  0  0  0  0  0
  143.1250  134.7975  152.5346 H   0  0  0  0  0  0  0  0  0  0  0  0
  143.2179  136.0105  151.2852 H   0  0  0  0  0  0  0  0  0  0  0  0
  145.5294  135.0021  149.4505 H   0  0  0  0  0  0  0  0  0  0  0  0
  143.1108  133.6290  150.0886 H   0  0  0  0  0  0  0  0  0  0  0  0
  144.6935  133.2566  149.4288 H   0  0  0  0  0  0  0  0  0  0  0  0
  143.5511  132.1977  152.0420 H   0  0  0  0  0  0  0  0  0  0  0  0
  144.2030  131.2647  150.6835 H   0  0  0  0  0  0  0  0  0  0  0  0
  146.7865  134.0310  152.0640 H   0  0  0  0  0  0  0  0  0  0  0  0
  145.4358  133.8568  153.1742 H   0  0  0  0  0  0  0  0  0  0  0  0
  1  2  1  0  0  0  0
  1 27  1  0  0  0  0
  1 28  1  0  0  0  0
  1 29  1  0  0  0  0
  2  3  1  0  0  0  0
  2  4  1  0  0  0  0
  2 30  1  0  0  0  0
  3 31  1  0  0  0  0
  3 32  1  0  0  0  0
  3 33  1  0  0  0  0
  4 10  1  0  0  0  0
  4  5  1  0  0  0  0
  4 34  1  0  0  0  0
  5  6  2  0  0  0  0
  5  7  1  0  0  0  0
  7  8  1  0  0  0  0
  7 35  1  0  0  0  0
  8  9  1  0  0  0  0
  8 36  1  0  0  0  0
  8 37  1  0  0  0  0
  9 10  1  0  0  0  0
  9 38  1  0  0  0  0
  9 39  1  0  0  0  0
 10 11  1  0  0  0  0
 11 16  1  0  0  0  0
 11 12  2  0  0  0  0
 12 13  1  0  0  0  0
 13 14  2  0  0  0  0
 13 40  1  0  0  0  0
 14 15  1  0  0  0  0
 15 19  1  0  0  0  0
 15 16  2  0  0  0  0
 16 17  1  0  0  0  0
 17 18  2  0  0  0  0
 18 19  1  0  0  0  0
 18 41  1  0  0  0  0
 19 20  1  0  0  0  0
 20 21  1  0  0  0  0
 20 42  1  0  0  0  0
 20 43  1  0  0  0  0
 21 26  1  0  0  0  0
 21 22  1  0  0  0  0
 21 23  1  0  0  0  0
 22 44  1  0  0  0  0
 23 24  1  0  0  0  0
 23 45  1  0  0  0  0
 23 46  1  0  0  0  0
 24 25  1  0  0  0  0
 24 47  1  0  0  0  0
 24 48  1  0  0  0  0
 25 26  1  0  0  0  0
 26 49  1  0  0  0  0
 26 50  1  0  0  0  0
M  END
> <s_m_source_file>
AV-unprocessed.smi

> <i_m_source_file_index>
274

> <i_lp_mmshare_version>
43012

> <i_f3d_flags>
0

> <s_epik_input>
W0NIM11bQ0hdKFtDSDNdKVtDQEBIXTFDKD1PKVtOSF1bQ0gyXVtDSDJdTjFjKG5bY0hdbjIpYyhjMjMpbltjSF1uM1tDSDJdW0NAQF00KFtPSF0pW0NIMl1bQ0gyXU9bQ0gyXTQ=

> <s_epik_cmdline>
J2VwaWtfcHl0aG9uJywgJy1waCcsICc3LjAnLCAnLXRuJywgJzgnLCAnLW1hJywgJzIwMCcsICctbWV0YWxfYmluZGluZycsICctaW1hZScsICc8aW5maWxlLm1hZT4nLCAnLW9tYWUnLCAnPG91dGZpbGUubWFlPic=

> <r_lp_tautomer_probability>
1

> <r_epik_Ionization_Penalty>
0.000690079

> <r_epik_Ionization_Penalty_Charging>
0

> <r_epik_Ionization_Penalty_Neutral>
0.000690079

> <r_epik_State_Penalty>
0.000321372

> <r_epik_Charging_Adjusted_Penalty>
0.000321372

> <i_epik_Tot_Q>
0

> <i_epik_Tot_abs_Q>
0

> <r_epik_Metal_State_Penalty>
-0

> <b_epik_Metal_Only>
0

> <s_lp_Force_Field>
OPLS_2005

> <r_lp_Energy>
42.4

> <b_lp_Chiralities_Consistent>
1

> <s_lp_Variant>
AV-unprocessed.smi:274-3

> <Gold.Version>
5.8.1

> <Gold.Id.Protein>
6NUR|6NUR_protein|mol2

> <Gold.PLP.Fitness>
38.4214

> <Gold.PLP.PLP>
-30.7628

> <Gold.PLP.part.hbond>
-2.8062

> <Gold.PLP.part.metal>
0.0000

> <Gold.PLP.part.buried>
-7.6018

> <Gold.PLP.part.nonpolar>
-24.9783

> <Gold.PLP.part.repulsive>
4.6339

> <Gold.PLP.ligand.clash>
0.0000

> <Gold.PLP.ligand.torsion>
0.3278

> <Gold.PLP.Chemscore.Hbond>
1.9760

> <Gold.PLP.Chemscore.CHOScore>
0.6019

> <Gold.PLP.Chemscore.Metal>
0.0000

> <Gold.Chemscore.Hbonds>
donor molecule, donor type, donor heavy atom, donor atom, acceptor molecule, acceptor atom, score
      L1  H    22    44       P1  7921  1.00
      P1  H  7989  7998       L1     6  0.84
      L1  C    13    40       P1  7957  0.56

> <Gold.PLP.Chemscore.Internal.Correction>
0.5805

> <Gold.Rescore>
     Score         DG    S(hbond)    S(metal)    S(lipo)     H(rot)  DE(clash)    DE(int)     intcor
      8.82     -11.02       1.89        0.00      48.00       2.50       1.83       0.37       ----

> <Gold.Chemscore.Fitness>
8.8189

> <Gold.Chemscore.DG>
-11.0175

> <Gold.Chemscore.ZeroCoef>
-5.4800

> <Gold.Chemscore.Hbond>
1.8917

> <Gold.Chemscore.Metal>
0.0000

> <Gold.Chemscore.Lipo>
48.0029

> <Gold.Chemscore.Internal_Hbond>
0.0000

> <Gold.Chemscore.DEClash>
1.8283

> <Gold.Chemscore.DEInternal>
0.3703

> <Gold.Chemscore.Rot>
2.4988

> <Gold.Chemscore.Internal.Correction>
   9.000000E+99

> <Gold.Chemscore.Hbonds>
donor molecule, donor type, donor heavy atom, donor atom, acceptor molecule, acceptor atom, score
      L1  H    22    44       P1  7921  0.95
      P1  H  7989  7998       L1     6  0.69

> <Gold.Chemscore.Hbond.Weighted>
-6.3181

> <Gold.Chemscore.Metal.Weighted>
-0.0000

> <Gold.Chemscore.Lipo.Weighted>
-5.6163

> <Gold.Chemscore.Internal_Hbond.Weighted>
0.0000

> <Gold.Chemscore.DEClash.Weighted>
1.8283

> <Gold.Chemscore.DEInternal.Weighted>
0.3703

> <Gold.Chemscore.Rot.Weighted>
6.3970

> <Gold.Chemscore.Internal.Correction.Weighted>
   9.000000E+99

> <Gold.Protein.RotatedTorsions>
[ 6907 6896 6895 6894 ] final   65.80 input  -60.11 | X-H torsion
[ 7974 7965 7964 7962 ] final -169.81 input  175.53 | X-H torsion
[ 8008 7997 7996 7995 ] final   68.90 input   59.86 | X-H torsion
[ 10167 10162 10161 10158 ] final  -12.14 input  -65.29 | X-H torsion
[ 10718 10713 10712 10709 ] final  -48.30 input   66.30 | X-H torsion
[ 10763 10752 10751 10750 ] final  -56.61 input  -60.55 | X-H torsion
[ 11005 11000 10999 10996 ] final   48.68 input  -57.11 | X-H torsion

> <Gold.Protein.ActiveResidues>
 VAL166  LYS551  ARG553  GLY616  TRP617  ASP618  TYR619  PRO620  LYS621  CYS622 
 ASP623  PHE694  ASN695  SER759  ASP760  ASP761  ALA762  ILE779  LEU786  VAL792 
 PHE793  MET794  SER795  GLU796  ALA797  LYS798  CYS799  TRP800  GLU811  SER814 

> <Gold.Protein.RotatedAtoms>
  152.4434  134.5544  159.9875 H   0  0  0  0  0  0  0  0  0  0  0  0  # atno 6907 bound_to 6896
  151.5635  133.3394  159.2983 H   0  0  0  0  0  0  0  0  0  0  0  0  # atno 6908 bound_to 6896
  150.8345  134.7646  159.6945 H   0  0  0  0  0  0  0  0  0  0  0  0  # atno 6909 bound_to 6896
  144.7179  140.2165  143.6321 H   0  0  0  0  0  0  0  0  0  0  0  0  # atno 7974 bound_to 7965
  155.7154  140.3494  155.4992 H   0  0  0  0  0  0  0  0  0  0  0  0  # atno 8008 bound_to 7997
  155.9318  140.1085  157.1148 H   0  0  0  0  0  0  0  0  0  0  0  0  # atno 8009 bound_to 7997
  154.4086  140.1230  156.4799 H   0  0  0  0  0  0  0  0  0  0  0  0  # atno 8010 bound_to 7997
  140.7154  143.5565  150.9243 H   0  0  0  0  0  0  0  0  0  0  0  0  # atno 10167 bound_to 10162
  156.2001  130.4156  149.9252 H   0  0  0  0  0  0  0  0  0  0  0  0  # atno 10718 bound_to 10713
  154.2094  135.6397  153.5111 H   0  0  0  0  0  0  0  0  0  0  0  0  # atno 10763 bound_to 10752
  152.9993  135.5470  154.6231 H   0  0  0  0  0  0  0  0  0  0  0  0  # atno 10764 bound_to 10752
  154.5664  135.2913  155.0843 H   0  0  0  0  0  0  0  0  0  0  0  0  # atno 10765 bound_to 10752
  140.1169  134.4880  155.8629 H   0  0  0  0  0  0  0  0  0  0  0  0  # atno 11005 bound_to 11000
  145.8541  139.2190  143.1755 LP  0  0  0  0  0  0  0  0  0  0  0  0  # atno 17320 bound_to 7965
  146.0233  140.8327  142.9912 LP  0  0  0  0  0  0  0  0  0  0  0  0  # atno 17321 bound_to 7965
  139.9290  143.6516  152.3080 LP  0  0  0  0  0  0  0  0  0  0  0  0  # atno 17342 bound_to 10162
  139.6960  144.7641  151.1356 LP  0  0  0  0  0  0  0  0  0  0  0  0  # atno 17343 bound_to 10162
  156.6964  130.8916  151.3594 LP  0  0  0  0  0  0  0  0  0  0  0  0  # atno 17370 bound_to 10713
  157.6981  130.9303  150.0703 LP  0  0  0  0  0  0  0  0  0  0  0  0  # atno 17371 bound_to 10713
  141.2143  133.6747  156.6814 LP  0  0  0  0  0  0  0  0  0  0  0  0  # atno 17394 bound_to 11000
  140.3016  134.8159  157.4102 LP  0  0  0  0  0  0  0  0  0  0  0  0  # atno 17395 bound_to 11000

$$$$
