AV-unprocessed.smi:3132|AV-procd|sdf|11935|dock9
  -GOLD-   2272017323D 1   1.00000     0.00000
 Structure written by MMmdl.
 33 34  0  0  0  0  0  0  0  0  1 V2000
  151.6741  140.4911  155.4243 C   0  0  0  0  0  0  0  0  0  0  0  0
  150.5751  141.0171  156.3603 C   0  0  2  0  0  0  0  0  0  0  0  0
  149.6476  142.0135  155.6393 C   0  0  0  0  0  0  0  0  0  0  0  0
  148.7212  141.3522  154.7382 N   0  0  0  0  0  0  0  0  0  0  0  0
  147.6230  141.9162  154.1017 C   0  0  0  0  0  0  0  0  0  0  0  0
  147.0439  140.9145  153.3561 C   0  0  0  0  0  0  0  0  0  0  0  0
  147.7663  139.7343  153.5147 N   0  0  0  0  0  0  0  0  0  0  0  0
  148.7444  140.0713  154.3454 C   0  0  0  0  0  0  0  0  0  0  0  0
  151.1797  141.6544  157.5278 N   0  0  0  0  0  0  0  0  0  0  0  0
  152.2487  141.2026  158.2024 C   0  0  0  0  0  0  0  0  0  0  0  0
  152.8614  140.1830  157.8849 O   0  0  0  0  0  0  0  0  0  0  0  0
  152.6870  142.0069  159.4349 C   0  0  1  0  0  0  0  0  0  0  0  0
  152.9220  143.5048  159.1604 C   0  0  0  0  0  0  0  0  0  0  0  0
  151.9872  144.2095  160.1287 C   0  0  0  0  0  0  0  0  0  0  0  0
  151.7558  143.1543  161.2008 C   0  0  0  0  0  0  0  0  0  0  0  0
  151.6751  141.9613  160.4406 O   0  0  0  0  0  0  0  0  0  0  0  0
  151.2430  139.9942  154.5548 H   0  0  0  0  0  0  0  0  0  0  0  0
  152.3124  139.7670  155.9318 H   0  0  0  0  0  0  0  0  0  0  0  0
  152.3096  141.3007  155.0636 H   0  0  0  0  0  0  0  0  0  0  0  0
  149.9710  140.1675  156.6844 H   0  0  0  0  0  0  0  0  0  0  0  0
  149.0777  142.6010  156.3606 H   0  0  0  0  0  0  0  0  0  0  0  0
  150.2371  142.7214  155.0552 H   0  0  0  0  0  0  0  0  0  0  0  0
  147.3500  142.9532  154.2309 H   0  0  0  0  0  0  0  0  0  0  0  0
  146.1703  140.9522  152.7220 H   0  0  0  0  0  0  0  0  0  0  0  0
  149.4940  139.3688  154.6795 H   0  0  0  0  0  0  0  0  0  0  0  0
  150.7406  142.4997  157.8637 H   0  0  0  0  0  0  0  0  0  0  0  0
  153.5962  141.5600  159.8401 H   0  0  0  0  0  0  0  0  0  0  0  0
  153.9598  143.7614  159.3759 H   0  0  0  0  0  0  0  0  0  0  0  0
  152.7176  143.8056  158.1319 H   0  0  0  0  0  0  0  0  0  0  0  0
  152.4010  145.1370  160.5251 H   0  0  0  0  0  0  0  0  0  0  0  0
  151.0447  144.4416  159.6314 H   0  0  0  0  0  0  0  0  0  0  0  0
  152.6007  143.0992  161.8889 H   0  0  0  0  0  0  0  0  0  0  0  0
  150.8470  143.3283  161.7769 H   0  0  0  0  0  0  0  0  0  0  0  0
  1  2  1  0  0  0  0
  1 17  1  0  0  0  0
  1 18  1  0  0  0  0
  1 19  1  0  0  0  0
  2  3  1  0  0  0  0
  2  9  1  0  0  0  0
  2 20  1  0  0  0  0
  3  4  1  0  0  0  0
  3 21  1  0  0  0  0
  3 22  1  0  0  0  0
  4  8  1  0  0  0  0
  4  5  1  0  0  0  0
  5  6  2  0  0  0  0
  5 23  1  0  0  0  0
  6  7  1  0  0  0  0
  6 24  1  0  0  0  0
  7  8  2  0  0  0  0
  8 25  1  0  0  0  0
  9 10  1  0  0  0  0
  9 26  1  0  0  0  0
 10 11  2  0  0  0  0
 10 12  1  0  0  0  0
 12 16  1  0  0  0  0
 12 13  1  0  0  0  0
 12 27  1  0  0  0  0
 13 14  1  0  0  0  0
 13 28  1  0  0  0  0
 13 29  1  0  0  0  0
 14 15  1  0  0  0  0
 14 30  1  0  0  0  0
 14 31  1  0  0  0  0
 15 16  1  0  0  0  0
 15 32  1  0  0  0  0
 15 33  1  0  0  0  0
M  END
> <s_m_source_file>
AV-unprocessed.smi

> <i_m_source_file_index>
3132

> <i_lp_mmshare_version>
43012

> <i_f3d_flags>
0

> <s_epik_input>
W2NIXTFuW2NIXVtjSF1uMVtDSDJdW0NAQEhdKFtDSDNdKVtOSF1DKD1PKVtDQEBIXTJbQ0gyXVtDSDJdW0NIMl1PMg==

> <s_epik_cmdline>
J2VwaWtfcHl0aG9uJywgJy1waCcsICc3LjAnLCAnLXRuJywgJzgnLCAnLW1hJywgJzIwMCcsICctbWV0YWxfYmluZGluZycsICctaW1hZScsICc8aW5maWxlLm1hZT4nLCAnLW9tYWUnLCAnPG91dGZpbGUubWFlPic=

> <r_lp_tautomer_probability>
1

> <r_epik_Ionization_Penalty>
0.630322

> <r_epik_Ionization_Penalty_Charging>
0.630322

> <r_epik_Ionization_Penalty_Neutral>
3.82652e-08

> <r_epik_State_Penalty>
0.647117

> <r_epik_Charging_Adjusted_Penalty>
1.27744

> <i_epik_Tot_Q>
0

> <i_epik_Tot_abs_Q>
0

> <r_epik_Metal_State_Penalty>
0.309095

> <b_epik_Metal_Only>
0

> <s_lp_Force_Field>
OPLS_2005

> <r_lp_Energy>
19.804

> <b_lp_Chiralities_Consistent>
1

> <s_lp_Variant>
AV-unprocessed.smi:3132-7

> <Gold.Version>
5.8.1

> <Gold.Id.Protein>
6NUR|6NUR_protein|mol2

> <Gold.PLP.Fitness>
41.3632

> <Gold.PLP.PLP>
-34.6016

> <Gold.PLP.part.hbond>
-1.9598

> <Gold.PLP.part.metal>
0.0000

> <Gold.PLP.part.buried>
-1.4554

> <Gold.PLP.part.nonpolar>
-31.8797

> <Gold.PLP.part.repulsive>
0.2620

> <Gold.PLP.ligand.clash>
0.0226

> <Gold.PLP.ligand.torsion>
0.5516

> <Gold.PLP.Chemscore.Hbond>
1.0000

> <Gold.PLP.Chemscore.CHOScore>
1.6235

> <Gold.PLP.Chemscore.Metal>
0.0000

> <Gold.Chemscore.Hbonds>
donor molecule, donor type, donor heavy atom, donor atom, acceptor molecule, acceptor atom, score
      P1  H  7997  8010       L1    11  0.99
      L1  C     5    23       P1  8028  0.52
      L1  C     6    24       P1 10175  0.97

> <Gold.PLP.Chemscore.Internal.Correction>
0.0169

> <Gold.Rescore>
     Score         DG    S(hbond)    S(metal)    S(lipo)     H(rot)  DE(clash)    DE(int)     intcor
     11.57     -13.80       0.89        0.00      86.42       1.86       0.05       2.18       ----

> <Gold.Chemscore.Fitness>
11.5707

> <Gold.Chemscore.DG>
-13.7977

> <Gold.Chemscore.ZeroCoef>
-5.4800

> <Gold.Chemscore.Hbond>
0.8916

> <Gold.Chemscore.Metal>
0.0000

> <Gold.Chemscore.Lipo>
86.4151

> <Gold.Chemscore.Internal_Hbond>
0.0000

> <Gold.Chemscore.DEClash>
0.0516

> <Gold.Chemscore.DEInternal>
2.1754

> <Gold.Chemscore.Rot>
1.8636

> <Gold.Chemscore.Internal.Correction>
   9.000000E+99

> <Gold.Chemscore.Hbonds>
donor molecule, donor type, donor heavy atom, donor atom, acceptor molecule, acceptor atom, score
      P1  H  7997  8010       L1    11  0.94

> <Gold.Chemscore.Hbond.Weighted>
-2.9780

> <Gold.Chemscore.Metal.Weighted>
-0.0000

> <Gold.Chemscore.Lipo.Weighted>
-10.1106

> <Gold.Chemscore.Internal_Hbond.Weighted>
0.0000

> <Gold.Chemscore.DEClash.Weighted>
0.0516

> <Gold.Chemscore.DEInternal.Weighted>
2.1754

> <Gold.Chemscore.Rot.Weighted>
4.7709

> <Gold.Chemscore.Internal.Correction.Weighted>
   9.000000E+99

> <Gold.Protein.RotatedTorsions>
[ 6907 6896 6895 6894 ] final  -78.86 input  -60.11 | X-H torsion
[ 7974 7965 7964 7962 ] final   81.64 input  175.53 | X-H torsion
[ 8008 7997 7996 7995 ] final   43.80 input   59.86 | X-H torsion
[ 10167 10162 10161 10158 ] final  -44.96 input  -65.29 | X-H torsion
[ 10718 10713 10712 10709 ] final  129.25 input   66.30 | X-H torsion
[ 10763 10752 10751 10750 ] final  152.34 input  -60.55 | X-H torsion
[ 11005 11000 10999 10996 ] final  -53.27 input  -57.11 | X-H torsion

> <Gold.Protein.ActiveResidues>
 VAL166  LYS551  ARG553  GLY616  TRP617  ASP618  TYR619  PRO620  LYS621  CYS622 
 ASP623  PHE694  ASN695  SER759  ASP760  ASP761  ALA762  ILE779  LEU786  VAL792 
 PHE793  MET794  SER795  GLU796  ALA797  LYS798  CYS799  TRP800  GLU811  SER814 

> <Gold.Protein.RotatedAtoms>
  150.6963  134.4208  159.5203 H   0  0  0  0  0  0  0  0  0  0  0  0  # atno 6907 bound_to 6896
  152.1951  134.8635  160.0523 H   0  0  0  0  0  0  0  0  0  0  0  0  # atno 6908 bound_to 6896
  151.9575  133.3650  159.4060 H   0  0  0  0  0  0  0  0  0  0  0  0  # atno 6909 bound_to 6896
  145.6355  139.2414  143.2060 H   0  0  0  0  0  0  0  0  0  0  0  0  # atno 7974 bound_to 7965
  155.3087  140.3389  155.4244 H   0  0  0  0  0  0  0  0  0  0  0  0  # atno 8008 bound_to 7997
  156.1966  140.1717  156.8024 H   0  0  0  0  0  0  0  0  0  0  0  0  # atno 8009 bound_to 7997
  154.5506  140.0706  156.8646 H   0  0  0  0  0  0  0  0  0  0  0  0  # atno 8010 bound_to 7997
  140.6876  143.2903  151.3571 H   0  0  0  0  0  0  0  0  0  0  0  0  # atno 10167 bound_to 10162
  157.5172  131.1097  150.9208 H   0  0  0  0  0  0  0  0  0  0  0  0  # atno 10718 bound_to 10713
  154.1184  135.2834  155.3214 H   0  0  0  0  0  0  0  0  0  0  0  0  # atno 10763 bound_to 10752
  154.6440  135.5392  153.7826 H   0  0  0  0  0  0  0  0  0  0  0  0  # atno 10764 bound_to 10752
  153.0321  135.6493  154.1340 H   0  0  0  0  0  0  0  0  0  0  0  0  # atno 10765 bound_to 10752
  141.0967  133.6623  156.4148 H   0  0  0  0  0  0  0  0  0  0  0  0  # atno 11005 bound_to 11000
  146.1322  140.7170  142.9406 LP  0  0  0  0  0  0  0  0  0  0  0  0  # atno 17320 bound_to 7965
  144.7177  140.4267  143.7032 LP  0  0  0  0  0  0  0  0  0  0  0  0  # atno 17321 bound_to 7965
  139.6249  144.0834  152.2425 LP  0  0  0  0  0  0  0  0  0  0  0  0  # atno 17342 bound_to 10162
  140.0290  144.6095  150.7504 LP  0  0  0  0  0  0  0  0  0  0  0  0  # atno 17343 bound_to 10162
  156.9830  130.5534  149.5297 LP  0  0  0  0  0  0  0  0  0  0  0  0  # atno 17370 bound_to 10713
  156.0328  130.5418  150.8578 LP  0  0  0  0  0  0  0  0  0  0  0  0  # atno 17371 bound_to 10713
  140.5121  134.6385  157.5288 LP  0  0  0  0  0  0  0  0  0  0  0  0  # atno 17394 bound_to 11000
  139.9806  134.7143  155.9866 LP  0  0  0  0  0  0  0  0  0  0  0  0  # atno 17395 bound_to 11000

$$$$
