AV-unprocessed.smi:1180|AV-procd|sdf|4964|dock7
  -GOLD-   22720 3553D 1   1.00000     0.00000
 Structure written by MMmdl.
 37 38  0  0  0  0  0  0  0  0  2 V2000
  148.6033  141.0354  154.8520 C   0  0  0  0  0  0  0  0  0  0  0  0
  149.5699  140.0515  155.4760 C   0  0  0  0  0  0  0  0  0  0  0  0
  149.1364  139.2128  156.3381 N   0  0  0  0  0  0  0  0  0  0  0  0
  150.0289  138.2998  156.9249 C   0  0  0  0  0  0  0  0  0  0  0  0
  149.4277  137.3452  157.9413 C   0  0  0  0  0  0  0  0  0  0  0  0
  151.3511  138.2916  156.5902 C   0  0  0  0  0  0  0  0  0  0  0  0
  152.3661  137.3243  157.2005 C   0  0  0  0  0  0  0  0  0  0  0  0
  153.0628  137.7862  158.4833 C   0  0  0  0  0  0  0  0  0  0  0  0
  153.4836  136.9701  159.3039 O   0  0  0  0  0  0  0  0  0  0  0  0
  153.1750  139.1133  158.6430 N   0  0  0  0  0  0  0  0  0  0  0  0
  153.8049  139.7711  159.7825 C   0  0  0  0  0  0  0  0  0  0  0  0
  153.6623  141.3041  159.7198 C   0  0  2  0  0  0  0  0  0  0  0  0
  154.1606  142.0227  160.9690 C   0  0  0  0  0  0  0  0  0  0  0  0
  153.1385  143.1404  161.2016 C   0  0  0  0  0  0  0  0  0  0  0  0
  152.3145  143.1446  160.0447 O   0  0  0  0  0  0  0  0  0  0  0  0
  152.2245  141.8059  159.5892 C   0  0  0  0  0  0  0  0  0  0  0  0
  151.8091  139.2691  155.5870 C   0  0  0  0  0  0  0  0  0  0  0  0
  152.9888  139.2929  155.2380 O   0  0  0  0  0  0  0  0  0  0  0  0
  150.8836  140.1272  155.0703 N   0  5  0  0  0  0  0  0  0  0  0  0
  147.5702  140.7219  155.0080 H   0  0  0  0  0  0  0  0  0  0  0  0
  148.7752  141.1135  153.7779 H   0  0  0  0  0  0  0  0  0  0  0  0
  148.7345  142.0222  155.2964 H   0  0  0  0  0  0  0  0  0  0  0  0
  149.8290  137.5451  158.9349 H   0  0  0  0  0  0  0  0  0  0  0  0
  149.6499  136.3112  157.6775 H   0  0  0  0  0  0  0  0  0  0  0  0
  148.3434  137.4514  157.9893 H   0  0  0  0  0  0  0  0  0  0  0  0
  151.8989  136.3554  157.3826 H   0  0  0  0  0  0  0  0  0  0  0  0
  153.1418  137.1206  156.4624 H   0  0  0  0  0  0  0  0  0  0  0  0
  152.8025  139.7099  157.9186 H   0  0  0  0  0  0  0  0  0  0  0  0
  153.3380  139.3893  160.6908 H   0  0  0  0  0  0  0  0  0  0  0  0
  154.8583  139.4914  159.8375 H   0  0  0  0  0  0  0  0  0  0  0  0
  154.2285  141.6855  158.8682 H   0  0  0  0  0  0  0  0  0  0  0  0
  154.1979  141.3616  161.8357 H   0  0  0  0  0  0  0  0  0  0  0  0
  155.1639  142.4201  160.8122 H   0  0  0  0  0  0  0  0  0  0  0  0
  152.5254  142.9214  162.0770 H   0  0  0  0  0  0  0  0  0  0  0  0
  153.6083  144.1127  161.3512 H   0  0  0  0  0  0  0  0  0  0  0  0
  151.8512  141.7548  158.5659 H   0  0  0  0  0  0  0  0  0  0  0  0
  151.5456  141.2448  160.2338 H   0  0  0  0  0  0  0  0  0  0  0  0
  1  2  1  0  0  0  0
  1 20  1  0  0  0  0
  1 21  1  0  0  0  0
  1 22  1  0  0  0  0
  2 19  1  0  0  0  0
  2  3  2  0  0  0  0
  3  4  1  0  0  0  0
  4  5  1  0  0  0  0
  4  6  2  0  0  0  0
  5 23  1  0  0  0  0
  5 24  1  0  0  0  0
  5 25  1  0  0  0  0
  6  7  1  0  0  0  0
  6 17  1  0  0  0  0
  7  8  1  0  0  0  0
  7 26  1  0  0  0  0
  7 27  1  0  0  0  0
  8  9  2  0  0  0  0
  8 10  1  0  0  0  0
 10 11  1  0  0  0  0
 10 28  1  0  0  0  0
 11 12  1  0  0  0  0
 11 29  1  0  0  0  0
 11 30  1  0  0  0  0
 12 16  1  0  0  0  0
 12 13  1  0  0  0  0
 12 31  1  0  0  0  0
 13 14  1  0  0  0  0
 13 32  1  0  0  0  0
 13 33  1  0  0  0  0
 14 15  1  0  0  0  0
 14 34  1  0  0  0  0
 14 35  1  0  0  0  0
 15 16  1  0  0  0  0
 16 36  1  0  0  0  0
 16 37  1  0  0  0  0
 17 18  2  0  0  0  0
 17 19  1  0  0  0  0
M  CHG  1  19  -1
M  END
> <s_m_source_file>
AV-unprocessed.smi

> <i_m_source_file_index>
1180

> <i_lp_mmshare_version>
43012

> <i_f3d_flags>
0

> <s_epik_input>
W0NIM11jMW5jKFtDSDNdKWMoYyg9TylbbkhdMSlbQ0gyXUMoPU8pW05IXVtDSDJdW0NAQEhdMltDSDJdW0NIMl1PW0NIMl0y

> <s_epik_cmdline>
J2VwaWtfcHl0aG9uJywgJy1waCcsICc3LjAnLCAnLXRuJywgJzgnLCAnLW1hJywgJzIwMCcsICctbWV0YWxfYmluZGluZycsICctaW1hZScsICc8aW5maWxlLm1hZT4nLCAnLW9tYWUnLCAnPG91dGZpbGUubWFlPic=

> <r_lp_tautomer_probability>
0.839158

> <r_epik_Ionization_Penalty>
6.60319

> <r_epik_Ionization_Penalty_Charging>
6.85407e-08

> <r_epik_Ionization_Penalty_Neutral>
6.60319

> <r_epik_State_Penalty>
4.42883

> <r_epik_Charging_Adjusted_Penalty>
4.42883

> <i_epik_Tot_Q>
-1

> <i_epik_Tot_abs_Q>
1

> <r_epik_Metal_State_Penalty>
0.797578

> <b_epik_Metal_Only>
1

> <s_lp_Force_Field>
OPLS_2005

> <r_lp_Energy>
24.7937

> <b_lp_Chiralities_Consistent>
1

> <s_lp_Variant>
AV-unprocessed.smi:1180-5

> <Gold.Version>
5.8.1

> <Gold.Id.Protein>
6NUR|6NUR_protein|mol2

> <Gold.PLP.Fitness>
39.0285

> <Gold.PLP.PLP>
-31.5626

> <Gold.PLP.part.hbond>
-3.0000

> <Gold.PLP.part.metal>
0.0000

> <Gold.PLP.part.buried>
-5.3345

> <Gold.PLP.part.nonpolar>
-23.1808

> <Gold.PLP.part.repulsive>
0.1571

> <Gold.PLP.ligand.clash>
0.0000

> <Gold.PLP.ligand.torsion>
0.7704

> <Gold.PLP.Chemscore.Hbond>
3.0000

> <Gold.PLP.Chemscore.CHOScore>
0.0000

> <Gold.PLP.Chemscore.Metal>
0.0000

> <Gold.Chemscore.Hbonds>
donor molecule, donor type, donor heavy atom, donor atom, acceptor molecule, acceptor atom, score
      P1  H  7989  7998       L1    19  1.00
      P1  H  7997  8010       L1    18  1.00

> <Gold.PLP.Chemscore.Internal.Correction>
0.0068

> <Gold.Rescore>
     Score         DG    S(hbond)    S(metal)    S(lipo)     H(rot)  DE(clash)    DE(int)     intcor
     17.90     -18.66       2.92        0.00      67.87       1.76       0.02       0.74       ----

> <Gold.Chemscore.Fitness>
17.8973

> <Gold.Chemscore.DG>
-18.6606

> <Gold.Chemscore.ZeroCoef>
-5.4800

> <Gold.Chemscore.Hbond>
2.9159

> <Gold.Chemscore.Metal>
0.0000

> <Gold.Chemscore.Lipo>
67.8739

> <Gold.Chemscore.Internal_Hbond>
0.0000

> <Gold.Chemscore.DEClash>
0.0234

> <Gold.Chemscore.DEInternal>
0.7399

> <Gold.Chemscore.Rot>
1.7577

> <Gold.Chemscore.Internal.Correction>
   9.000000E+99

> <Gold.Chemscore.Hbonds>
donor molecule, donor type, donor heavy atom, donor atom, acceptor molecule, acceptor atom, score
      P1  H  6896  6907       L1     9  0.01
      P1  H  7989  7998       L1    19  0.60
      P1  H  7997  8010       L1    18  1.00

> <Gold.Chemscore.Hbond.Weighted>
-9.7392

> <Gold.Chemscore.Metal.Weighted>
-0.0000

> <Gold.Chemscore.Lipo.Weighted>
-7.9412

> <Gold.Chemscore.Internal_Hbond.Weighted>
0.0000

> <Gold.Chemscore.DEClash.Weighted>
0.0234

> <Gold.Chemscore.DEInternal.Weighted>
0.7399

> <Gold.Chemscore.Rot.Weighted>
4.4998

> <Gold.Chemscore.Internal.Correction.Weighted>
   9.000000E+99

> <Gold.Protein.RotatedTorsions>
[ 6907 6896 6895 6894 ] final   28.09 input  -60.11 | X-H torsion
[ 7974 7965 7964 7962 ] final  176.10 input  175.53 | X-H torsion
[ 8008 7997 7996 7995 ] final   95.81 input   59.86 | X-H torsion
[ 10167 10162 10161 10158 ] final  -39.05 input  -65.29 | X-H torsion
[ 10718 10713 10712 10709 ] final   49.26 input   66.30 | X-H torsion
[ 10763 10752 10751 10750 ] final -136.29 input  -60.55 | X-H torsion
[ 11005 11000 10999 10996 ] final -125.47 input  -57.11 | X-H torsion

> <Gold.Protein.ActiveResidues>
 VAL166  LYS551  ARG553  GLY616  TRP617  ASP618  TYR619  PRO620  LYS621  CYS622 
 ASP623  PHE694  ASN695  SER759  ASP760  ASP761  ALA762  ILE779  LEU786  VAL792 
 PHE793  MET794  SER795  GLU796  ALA797  LYS798  CYS799  TRP800  GLU811  SER814 

> <Gold.Protein.RotatedAtoms>
  152.0118  134.9872  160.0568 H   0  0  0  0  0  0  0  0  0  0  0  0  # atno 6907 bound_to 6896
  152.1422  133.4466  159.4780 H   0  0  0  0  0  0  0  0  0  0  0  0  # atno 6908 bound_to 6896
  150.6866  134.2210  159.4440 H   0  0  0  0  0  0  0  0  0  0  0  0  # atno 6909 bound_to 6896
  144.7190  140.0046  143.6440 H   0  0  0  0  0  0  0  0  0  0  0  0  # atno 7974 bound_to 7965
  156.0729  140.3281  155.7598 H   0  0  0  0  0  0  0  0  0  0  0  0  # atno 8008 bound_to 7997
  155.5277  140.0590  157.2912 H   0  0  0  0  0  0  0  0  0  0  0  0  # atno 8009 bound_to 7997
  154.4539  140.1933  156.0453 H   0  0  0  0  0  0  0  0  0  0  0  0  # atno 8010 bound_to 7997
  140.7075  143.3239  151.2727 H   0  0  0  0  0  0  0  0  0  0  0  0  # atno 10167 bound_to 10162
  157.4769  130.8290  149.8050 H   0  0  0  0  0  0  0  0  0  0  0  0  # atno 10718 bound_to 10713
  154.8687  135.3677  154.5036 H   0  0  0  0  0  0  0  0  0  0  0  0  # atno 10763 bound_to 10752
  153.5675  135.7021  153.5524 H   0  0  0  0  0  0  0  0  0  0  0  0  # atno 10764 bound_to 10752
  153.3572  135.4056  155.1654 H   0  0  0  0  0  0  0  0  0  0  0  0  # atno 10765 bound_to 10752
  140.9760  134.0740  157.3818 H   0  0  0  0  0  0  0  0  0  0  0  0  # atno 11005 bound_to 11000
  146.0307  139.3333  143.0757 LP  0  0  0  0  0  0  0  0  0  0  0  0  # atno 17320 bound_to 7965
  145.8456  140.9557  143.0776 LP  0  0  0  0  0  0  0  0  0  0  0  0  # atno 17321 bound_to 7965
  139.6701  144.0035  152.2747 LP  0  0  0  0  0  0  0  0  0  0  0  0  # atno 17342 bound_to 10162
  139.9631  144.6544  150.8060 LP  0  0  0  0  0  0  0  0  0  0  0  0  # atno 17343 bound_to 10162
  156.0101  130.3837  150.2293 LP  0  0  0  0  0  0  0  0  0  0  0  0  # atno 17370 bound_to 10713
  157.0477  131.0054  151.3263 LP  0  0  0  0  0  0  0  0  0  0  0  0  # atno 17371 bound_to 10713
  139.8930  135.0128  156.6878 LP  0  0  0  0  0  0  0  0  0  0  0  0  # atno 17394 bound_to 11000
  140.7259  133.9101  155.8178 LP  0  0  0  0  0  0  0  0  0  0  0  0  # atno 17395 bound_to 11000

$$$$
