AV-unprocessed.smi:2040|AV-procd|sdf|8287|dock3
  -GOLD-   2272010553D 1   1.00000     0.00000
 Structure written by MMmdl.
 38 39  0  0  0  0  0  0  0  0  1 V2000
  149.8560  142.3102  155.6167 C   0  0  0  0  0  0  0  0  0  0  0  0
  149.7142  140.9412  155.0197 C   0  0  0  0  0  0  0  0  0  0  0  0
  148.5454  140.3421  154.4661 C   0  0  0  0  0  0  0  0  0  0  0  0
  148.9935  139.1084  154.0796 C   0  0  0  0  0  0  0  0  0  0  0  0
  148.3049  138.0946  153.4910 N   0  0  0  0  0  0  0  0  0  0  0  0
  147.0027  137.7832  153.6130 C   0  0  0  0  0  0  0  0  0  0  0  0
  146.1836  138.3942  154.2998 O   0  0  0  0  0  0  0  0  0  0  0  0
  146.6920  136.7078  152.8748 N   0  0  0  0  0  0  0  0  0  0  0  0
  145.3679  136.0971  152.7854 C   0  0  1  0  0  0  0  0  0  0  0  0
  144.2972  137.1975  152.6828 C   0  0  0  0  0  0  0  0  0  0  0  0
  145.3345  135.1382  151.5800 C   0  0  2  0  0  0  0  0  0  0  0  0
  143.9928  134.4343  151.3568 C   0  0  0  0  0  0  0  0  0  0  0  0
  144.3700  133.1105  150.7067 C   0  0  0  0  0  0  0  0  0  0  0  0
  145.8952  133.0620  150.8124 C   0  0  0  0  0  0  0  0  0  0  0  0
  146.2168  134.0446  151.7843 O   0  0  0  0  0  0  0  0  0  0  0  0
  150.3300  139.0018  154.3945 N   0  0  0  0  0  0  0  0  0  0  0  0
  151.2395  137.8921  154.1857 C   0  0  0  0  0  0  0  0  0  0  0  0
  150.7722  140.1393  154.9732 N   0  0  0  0  0  0  0  0  0  0  0  0
  148.8932  142.8188  155.6689 H   0  0  0  0  0  0  0  0  0  0  0  0
  150.5266  142.9301  155.0211 H   0  0  0  0  0  0  0  0  0  0  0  0
  150.2582  142.2586  156.6288 H   0  0  0  0  0  0  0  0  0  0  0  0
  147.5554  140.7634  154.3793 H   0  0  0  0  0  0  0  0  0  0  0  0
  148.8457  137.5096  152.8715 H   0  0  0  0  0  0  0  0  0  0  0  0
  147.4290  136.2656  152.3456 H   0  0  0  0  0  0  0  0  0  0  0  0
  145.1835  135.5136  153.6895 H   0  0  0  0  0  0  0  0  0  0  0  0
  143.2934  136.7739  152.6526 H   0  0  0  0  0  0  0  0  0  0  0  0
  144.4317  137.7989  151.7831 H   0  0  0  0  0  0  0  0  0  0  0  0
  144.3370  137.8695  153.5408 H   0  0  0  0  0  0  0  0  0  0  0  0
  145.6324  135.6611  150.6685 H   0  0  0  0  0  0  0  0  0  0  0  0
  143.4992  134.2418  152.3105 H   0  0  0  0  0  0  0  0  0  0  0  0
  143.3124  135.0251  150.7428 H   0  0  0  0  0  0  0  0  0  0  0  0
  143.9116  132.2797  151.2446 H   0  0  0  0  0  0  0  0  0  0  0  0
  144.0463  133.0565  149.6668 H   0  0  0  0  0  0  0  0  0  0  0  0
  146.2665  132.0786  151.1011 H   0  0  0  0  0  0  0  0  0  0  0  0
  146.3554  133.3349  149.8615 H   0  0  0  0  0  0  0  0  0  0  0  0
  151.3126  137.6740  153.1201 H   0  0  0  0  0  0  0  0  0  0  0  0
  150.8660  137.0099  154.7060 H   0  0  0  0  0  0  0  0  0  0  0  0
  152.2329  138.1324  154.5666 H   0  0  0  0  0  0  0  0  0  0  0  0
  1  2  1  0  0  0  0
  1 19  1  0  0  0  0
  1 20  1  0  0  0  0
  1 21  1  0  0  0  0
  2 18  2  0  0  0  0
  2  3  1  0  0  0  0
  3  4  2  0  0  0  0
  3 22  1  0  0  0  0
  4  5  1  0  0  0  0
  4 16  1  0  0  0  0
  5  6  1  0  0  0  0
  5 23  1  0  0  0  0
  6  7  2  0  0  0  0
  6  8  1  0  0  0  0
  8  9  1  0  0  0  0
  8 24  1  0  0  0  0
  9 10  1  0  0  0  0
  9 11  1  0  0  0  0
  9 25  1  0  0  0  0
 10 26  1  0  0  0  0
 10 27  1  0  0  0  0
 10 28  1  0  0  0  0
 11 15  1  0  0  0  0
 11 12  1  0  0  0  0
 11 29  1  0  0  0  0
 12 13  1  0  0  0  0
 12 30  1  0  0  0  0
 12 31  1  0  0  0  0
 13 14  1  0  0  0  0
 13 32  1  0  0  0  0
 13 33  1  0  0  0  0
 14 15  1  0  0  0  0
 14 34  1  0  0  0  0
 14 35  1  0  0  0  0
 16 17  1  0  0  0  0
 16 18  1  0  0  0  0
 17 36  1  0  0  0  0
 17 37  1  0  0  0  0
 17 38  1  0  0  0  0
M  END
> <s_m_source_file>
AV-unprocessed.smi

> <i_m_source_file_index>
2040

> <i_lp_mmshare_version>
43012

> <i_f3d_flags>
0

> <s_epik_input>
W0NIM11jMVtjSF1jKG4objEpW0NIM10pW05IXUMoPU8pW05IXVtDQEhdKFtDSDNdKVtDQEBIXTJbQ0gyXVtDSDJdW0NIMl1PMg==

> <s_epik_cmdline>
J2VwaWtfcHl0aG9uJywgJy1waCcsICc3LjAnLCAnLXRuJywgJzgnLCAnLW1hJywgJzIwMCcsICctbWV0YWxfYmluZGluZycsICctaW1hZScsICc8aW5maWxlLm1hZT4nLCAnLW9tYWUnLCAnPG91dGZpbGUubWFlPic=

> <r_lp_tautomer_probability>
1

> <r_epik_Ionization_Penalty>
9.09088e-05

> <r_epik_Ionization_Penalty_Charging>
0

> <r_epik_Ionization_Penalty_Neutral>
9.09088e-05

> <r_epik_State_Penalty>
-0

> <r_epik_Charging_Adjusted_Penalty>
0

> <i_epik_Tot_Q>
0

> <i_epik_Tot_abs_Q>
0

> <r_epik_Metal_State_Penalty>
-0

> <b_epik_Metal_Only>
0

> <s_lp_Force_Field>
OPLS_2005

> <r_lp_Energy>
19.5884

> <b_lp_Chiralities_Consistent>
1

> <s_lp_Variant>
AV-unprocessed.smi:2040-2

> <Gold.Version>
5.8.1

> <Gold.Id.Protein>
6NUR|6NUR_protein|mol2

> <Gold.PLP.Fitness>
35.9541

> <Gold.PLP.PLP>
-27.9350

> <Gold.PLP.part.hbond>
-3.0915

> <Gold.PLP.part.metal>
0.0000

> <Gold.PLP.part.buried>
1.4617

> <Gold.PLP.part.nonpolar>
-26.2649

> <Gold.PLP.part.repulsive>
0.3577

> <Gold.PLP.ligand.clash>
0.0000

> <Gold.PLP.ligand.torsion>
0.4268

> <Gold.PLP.Chemscore.Hbond>
2.9500

> <Gold.PLP.Chemscore.CHOScore>
0.0000

> <Gold.PLP.Chemscore.Metal>
0.0000

> <Gold.Chemscore.Hbonds>
donor molecule, donor type, donor heavy atom, donor atom, acceptor molecule, acceptor atom, score
      L1  H     5    23       P1  7948  1.00
      L1  H     8    24       P1  7948  1.00
      P1  H  7989  7998       L1    18  0.86

> <Gold.PLP.Chemscore.Internal.Correction>
0.0228

> <Gold.Rescore>
     Score         DG    S(hbond)    S(metal)    S(lipo)     H(rot)  DE(clash)    DE(int)     intcor
     12.79     -15.99       1.94        0.00      61.44       1.23       1.29       1.91       ----

> <Gold.Chemscore.Fitness>
12.7860

> <Gold.Chemscore.DG>
-15.9855

> <Gold.Chemscore.ZeroCoef>
-5.4800

> <Gold.Chemscore.Hbond>
1.9389

> <Gold.Chemscore.Metal>
0.0000

> <Gold.Chemscore.Lipo>
61.4363

> <Gold.Chemscore.Internal_Hbond>
0.0000

> <Gold.Chemscore.DEClash>
1.2906

> <Gold.Chemscore.DEInternal>
1.9089

> <Gold.Chemscore.Rot>
1.2338

> <Gold.Chemscore.Internal.Correction>
   9.000000E+99

> <Gold.Chemscore.Hbonds>
donor molecule, donor type, donor heavy atom, donor atom, acceptor molecule, acceptor atom, score
      L1  H     5    23       P1  7948  0.95
      L1  H     8    24       P1  7948  0.93
      P1  H  7989  7998       L1    18  0.04

> <Gold.Chemscore.Hbond.Weighted>
-6.4759

> <Gold.Chemscore.Metal.Weighted>
-0.0000

> <Gold.Chemscore.Lipo.Weighted>
-7.1880

> <Gold.Chemscore.Internal_Hbond.Weighted>
0.0000

> <Gold.Chemscore.DEClash.Weighted>
1.2906

> <Gold.Chemscore.DEInternal.Weighted>
1.9089

> <Gold.Chemscore.Rot.Weighted>
3.1584

> <Gold.Chemscore.Internal.Correction.Weighted>
   9.000000E+99

> <Gold.Protein.RotatedTorsions>
[ 6907 6896 6895 6894 ] final  145.28 input  -60.11 | X-H torsion
[ 7974 7965 7964 7962 ] final -109.18 input  175.53 | X-H torsion
[ 8008 7997 7996 7995 ] final  -57.74 input   59.86 | X-H torsion
[ 10167 10162 10161 10158 ] final -153.76 input  -65.29 | X-H torsion
[ 10718 10713 10712 10709 ] final  109.91 input   66.30 | X-H torsion
[ 10763 10752 10751 10750 ] final -138.04 input  -60.55 | X-H torsion
[ 11005 11000 10999 10996 ] final   43.71 input  -57.11 | X-H torsion

> <Gold.Protein.ActiveResidues>
 VAL166  LYS551  ARG553  GLY616  TRP617  ASP618  TYR619  PRO620  LYS621  CYS622 
 ASP623  PHE694  ASN695  SER759  ASP760  ASP761  ALA762  ILE779  LEU786  VAL792 
 PHE793  MET794  SER795  GLU796  ALA797  LYS798  CYS799  TRP800  GLU811  SER814 

> <Gold.Protein.RotatedAtoms>
  152.1829  133.4719  159.4966 H   0  0  0  0  0  0  0  0  0  0  0  0  # atno 6907 bound_to 6896
  150.6937  134.1811  159.4258 H   0  0  0  0  0  0  0  0  0  0  0  0  # atno 6908 bound_to 6896
  151.9723  135.0070  160.0604 H   0  0  0  0  0  0  0  0  0  0  0  0  # atno 6909 bound_to 6896
  145.1837  140.8983  143.3465 H   0  0  0  0  0  0  0  0  0  0  0  0  # atno 7974 bound_to 7965
  154.4280  140.1100  156.5845 H   0  0  0  0  0  0  0  0  0  0  0  0  # atno 8008 bound_to 7997
  155.6077  140.3494  155.4594 H   0  0  0  0  0  0  0  0  0  0  0  0  # atno 8009 bound_to 7997
  156.0124  140.1222  157.0430 H   0  0  0  0  0  0  0  0  0  0  0  0  # atno 8010 bound_to 7997
  139.7070  143.9171  152.2452 H   0  0  0  0  0  0  0  0  0  0  0  0  # atno 10167 bound_to 10162
  157.6519  131.0923  150.6524 H   0  0  0  0  0  0  0  0  0  0  0  0  # atno 10718 bound_to 10713
  154.8647  135.3624  154.5320 H   0  0  0  0  0  0  0  0  0  0  0  0  # atno 10763 bound_to 10752
  153.5945  135.7014  153.5414 H   0  0  0  0  0  0  0  0  0  0  0  0  # atno 10764 bound_to 10752
  153.3344  135.4115  155.1483 H   0  0  0  0  0  0  0  0  0  0  0  0  # atno 10765 bound_to 10752
  140.1619  134.4330  155.8312 H   0  0  0  0  0  0  0  0  0  0  0  0  # atno 11005 bound_to 11000
  145.0110  139.3510  143.6120 LP  0  0  0  0  0  0  0  0  0  0  0  0  # atno 17320 bound_to 7965
  146.3448  139.9372  142.8745 LP  0  0  0  0  0  0  0  0  0  0  0  0  # atno 17321 bound_to 7965
  139.9029  144.6901  150.8645 LP  0  0  0  0  0  0  0  0  0  0  0  0  # atno 17342 bound_to 10162
  140.7724  143.3500  151.2033 LP  0  0  0  0  0  0  0  0  0  0  0  0  # atno 17343 bound_to 10162
  156.6834  130.4574  149.5621 LP  0  0  0  0  0  0  0  0  0  0  0  0  # atno 17370 bound_to 10713
  156.1913  130.6561  151.1064 LP  0  0  0  0  0  0  0  0  0  0  0  0  # atno 17371 bound_to 10713
  141.2210  133.6917  156.7609 LP  0  0  0  0  0  0  0  0  0  0  0  0  # atno 17394 bound_to 11000
  140.2479  134.8563  157.3639 LP  0  0  0  0  0  0  0  0  0  0  0  0  # atno 17395 bound_to 11000

$$$$
