AV-unprocessed.smi:1762|AV-procd|sdf|7108|dock9
  -GOLD-   22720 8333D 1   1.00000     0.00000
 Structure written by MMmdl.
 53 54  0  0  0  0  0  0  0  0  2 V2000
  153.5698  137.7090  155.5443 C   0  0  0  0  0  0  0  0  0  0  0  0
  152.5940  138.8728  155.3364 C   0  0  1  0  0  0  0  0  0  0  0  0
  151.2560  138.4147  154.7241 C   0  0  0  0  0  0  0  0  0  0  0  0
  150.2884  139.5104  154.5878 N   0  0  0  0  0  0  0  0  0  0  0  0
  149.0052  139.0808  153.9639 C   0  0  1  0  0  0  0  0  0  0  0  0
  148.2529  138.0138  154.7941 C   0  0  0  0  0  0  0  0  0  0  0  0
  147.9781  138.2237  155.9761 O   0  0  0  0  0  0  0  0  0  0  0  0
  147.9528  136.8633  154.1705 N   0  0  0  0  0  0  0  0  0  0  0  0
  147.2730  135.7339  154.7929 C   0  0  0  0  0  0  0  0  0  0  0  0
  147.1328  134.5530  153.8175 C   0  0  0  0  0  0  0  0  0  0  0  0
  146.1434  134.8415  152.7056 C   0  0  0  0  0  0  0  0  0  0  0  0
  144.8320  134.3185  152.7155 C   0  0  0  0  0  0  0  0  0  0  0  0
  143.9576  134.6303  151.6535 C   0  0  0  0  0  0  0  0  0  0  0  0
  144.4119  135.4585  150.6062 C   0  0  0  0  0  0  0  0  0  0  0  0
  145.7307  135.9552  150.6478 C   0  0  0  0  0  0  0  0  0  0  0  0
  146.5384  135.6335  151.6823 N   0  3  0  0  0  0  0  0  0  0  0  0
  148.0421  140.2477  153.5606 C   0  0  0  0  0  0  0  0  0  0  0  0
  147.4565  141.0175  154.7608 C   0  0  0  0  0  0  0  0  0  0  0  0
  146.9151  139.8109  152.6030 C   0  0  0  0  0  0  0  0  0  0  0  0
  150.1371  140.1631  155.9000 C   0  0  0  0  0  0  0  0  0  0  0  0
  151.4833  140.6045  156.5058 C   0  0  1  0  0  0  0  0  0  0  0  0
  151.3228  141.2022  157.9080 C   0  0  0  0  0  0  0  0  0  0  0  0
  152.3464  139.4784  156.5987 O   0  0  0  0  0  0  0  0  0  0  0  0
  153.8052  137.2205  154.5984 H   0  0  0  0  0  0  0  0  0  0  0  0
  153.1520  136.9575  156.2148 H   0  0  0  0  0  0  0  0  0  0  0  0
  154.5064  138.0593  155.9787 H   0  0  0  0  0  0  0  0  0  0  0  0
  153.0635  139.6059  154.6781 H   0  0  0  0  0  0  0  0  0  0  0  0
  151.4874  137.9810  153.7535 H   0  0  0  0  0  0  0  0  0  0  0  0
  150.8284  137.6161  155.3329 H   0  0  0  0  0  0  0  0  0  0  0  0
  149.2696  138.5856  153.0269 H   0  0  0  0  0  0  0  0  0  0  0  0
  148.2149  136.7663  153.1999 H   0  0  0  0  0  0  0  0  0  0  0  0
  147.8122  135.4262  155.6906 H   0  0  0  0  0  0  0  0  0  0  0  0
  146.2886  136.0681  155.1213 H   0  0  0  0  0  0  0  0  0  0  0  0
  148.1021  134.3125  153.3785 H   0  0  0  0  0  0  0  0  0  0  0  0
  146.8084  133.6582  154.3503 H   0  0  0  0  0  0  0  0  0  0  0  0
  144.4980  133.6876  153.5265 H   0  0  0  0  0  0  0  0  0  0  0  0
  142.9504  134.2397  151.6424 H   0  0  0  0  0  0  0  0  0  0  0  0
  143.7579  135.7094  149.7839 H   0  0  0  0  0  0  0  0  0  0  0  0
  146.1604  136.5955  149.8910 H   0  0  0  0  0  0  0  0  0  0  0  0
  148.6161  140.9639  152.9752 H   0  0  0  0  0  0  0  0  0  0  0  0
  146.7778  140.4006  155.3492 H   0  0  0  0  0  0  0  0  0  0  0  0
  146.8927  141.8877  154.4241 H   0  0  0  0  0  0  0  0  0  0  0  0
  148.2398  141.3795  155.4268 H   0  0  0  0  0  0  0  0  0  0  0  0
  146.1841  139.1682  153.0945 H   0  0  0  0  0  0  0  0  0  0  0  0
  147.3153  139.2697  151.7452 H   0  0  0  0  0  0  0  0  0  0  0  0
  146.3757  140.6769  152.2187 H   0  0  0  0  0  0  0  0  0  0  0  0
  149.5183  141.0568  155.8307 H   0  0  0  0  0  0  0  0  0  0  0  0
  149.6306  139.4857  156.5900 H   0  0  0  0  0  0  0  0  0  0  0  0
  151.9451  141.3530  155.8596 H   0  0  0  0  0  0  0  0  0  0  0  0
  150.6789  142.0816  157.8887 H   0  0  0  0  0  0  0  0  0  0  0  0
  152.2878  141.5065  158.3141 H   0  0  0  0  0  0  0  0  0  0  0  0
  150.8842  140.4803  158.5973 H   0  0  0  0  0  0  0  0  0  0  0  0
  147.4887  136.0047  151.6919 H   0  0  0  0  0  0  0  0  0  0  0  0
  1  2  1  0  0  0  0
  1 24  1  0  0  0  0
  1 25  1  0  0  0  0
  1 26  1  0  0  0  0
  2 23  1  0  0  0  0
  2  3  1  0  0  0  0
  2 27  1  0  0  0  0
  3  4  1  0  0  0  0
  3 28  1  0  0  0  0
  3 29  1  0  0  0  0
  4  5  1  0  0  0  0
  4 20  1  0  0  0  0
  5  6  1  0  0  0  0
  5 17  1  0  0  0  0
  5 30  1  0  0  0  0
  6  7  2  0  0  0  0
  6  8  1  0  0  0  0
  8  9  1  0  0  0  0
  8 31  1  0  0  0  0
  9 10  1  0  0  0  0
  9 32  1  0  0  0  0
  9 33  1  0  0  0  0
 10 11  1  0  0  0  0
 10 34  1  0  0  0  0
 10 35  1  0  0  0  0
 11 16  1  0  0  0  0
 11 12  2  0  0  0  0
 12 13  1  0  0  0  0
 12 36  1  0  0  0  0
 13 14  2  0  0  0  0
 13 37  1  0  0  0  0
 14 15  1  0  0  0  0
 14 38  1  0  0  0  0
 15 16  2  0  0  0  0
 15 39  1  0  0  0  0
 16 53  1  0  0  0  0
 17 18  1  0  0  0  0
 17 19  1  0  0  0  0
 17 40  1  0  0  0  0
 18 41  1  0  0  0  0
 18 42  1  0  0  0  0
 18 43  1  0  0  0  0
 19 44  1  0  0  0  0
 19 45  1  0  0  0  0
 19 46  1  0  0  0  0
 20 21  1  0  0  0  0
 20 47  1  0  0  0  0
 20 48  1  0  0  0  0
 21 22  1  0  0  0  0
 21 23  1  0  0  0  0
 21 49  1  0  0  0  0
 22 50  1  0  0  0  0
 22 51  1  0  0  0  0
 22 52  1  0  0  0  0
M  CHG  1  16   1
M  END
> <s_m_source_file>
AV-unprocessed.smi

> <i_m_source_file_index>
1762

> <i_lp_mmshare_version>
43012

> <i_f3d_flags>
0

> <s_epik_input>
W0NIM11bQ0BASF0xW0NIMl1OKFtDSDJdW0NASF0oTzEpW0NIM10pW0NAQEhdKFtDSF0oW0NIM10pW0NIM10pQyg9TylbTkhdW0NIMl1bQ0gyXWMyW2NIXVtjSF1bY0hdW2NIXW4y

> <s_epik_cmdline>
J2VwaWtfcHl0aG9uJywgJy1waCcsICc3LjAnLCAnLXRuJywgJzgnLCAnLW1hJywgJzIwMCcsICctbWV0YWxfYmluZGluZycsICctaW1hZScsICc8aW5maWxlLm1hZT4nLCAnLW9tYWUnLCAnPG91dGZpbGUubWFlPic=

> <r_epik_Ionization_Penalty>
1.86475

> <r_epik_Ionization_Penalty_Charging>
1.85347

> <r_epik_Ionization_Penalty_Neutral>
0.0112771

> <r_epik_State_Penalty>
1.99714

> <r_epik_Charging_Adjusted_Penalty>
3.85061

> <i_epik_Tot_Q>
1

> <i_epik_Tot_abs_Q>
1

> <r_epik_Metal_State_Penalty>
2.02271

> <b_epik_Metal_Only>
0

> <s_lp_Force_Field>
OPLS_2005

> <r_lp_Energy>
32.1869

> <b_lp_Chiralities_Consistent>
1

> <s_lp_Variant>
AV-unprocessed.smi:1762-10

> <Gold.Version>
5.8.1

> <Gold.Id.Protein>
6NUR|6NUR_protein|mol2

> <Gold.PLP.Fitness>
45.7038

> <Gold.PLP.PLP>
-32.7981

> <Gold.PLP.part.hbond>
-4.0000

> <Gold.PLP.part.metal>
0.0000

> <Gold.PLP.part.buried>
4.0170

> <Gold.PLP.part.nonpolar>
-32.9908

> <Gold.PLP.part.repulsive>
0.2138

> <Gold.PLP.ligand.clash>
0.0000

> <Gold.PLP.ligand.torsion>
0.6011

> <Gold.PLP.Chemscore.Hbond>
4.5950

> <Gold.PLP.Chemscore.CHOScore>
0.0000

> <Gold.PLP.Chemscore.Metal>
0.0000

> <Gold.Chemscore.Hbonds>
donor molecule, donor type, donor heavy atom, donor atom, acceptor molecule, acceptor atom, score
      L1  H     8    31       P1  7948  1.00
      L1  H    16    53       P1  7948  1.62
      P1  H  7989  7998       L1     4  0.47
      P1  H  7997  8009       L1    23  0.25

> <Gold.PLP.Chemscore.Internal.Correction>
0.3228

> <Gold.Rescore>
     Score         DG    S(hbond)    S(metal)    S(lipo)     H(rot)  DE(clash)    DE(int)     intcor
     15.31     -18.41       2.00        0.00      91.03       1.72       0.26       2.85       ----

> <Gold.Chemscore.Fitness>
15.3071

> <Gold.Chemscore.DG>
-18.4134

> <Gold.Chemscore.ZeroCoef>
-5.4800

> <Gold.Chemscore.Hbond>
1.9997

> <Gold.Chemscore.Metal>
0.0000

> <Gold.Chemscore.Lipo>
91.0347

> <Gold.Chemscore.Internal_Hbond>
0.0000

> <Gold.Chemscore.DEClash>
0.2554

> <Gold.Chemscore.DEInternal>
2.8509

> <Gold.Chemscore.Rot>
1.7174

> <Gold.Chemscore.Internal.Correction>
   9.000000E+99

> <Gold.Chemscore.Hbonds>
donor molecule, donor type, donor heavy atom, donor atom, acceptor molecule, acceptor atom, score
      L1  H     8    31       P1  7948  0.99
      L1  H    16    53       P1  7948  0.80
      P1  H  7989  7998       L1     4  0.03

> <Gold.Chemscore.Hbond.Weighted>
-6.6789

> <Gold.Chemscore.Metal.Weighted>
-0.0000

> <Gold.Chemscore.Lipo.Weighted>
-10.6511

> <Gold.Chemscore.Internal_Hbond.Weighted>
0.0000

> <Gold.Chemscore.DEClash.Weighted>
0.2554

> <Gold.Chemscore.DEInternal.Weighted>
2.8509

> <Gold.Chemscore.Rot.Weighted>
4.3966

> <Gold.Chemscore.Internal.Correction.Weighted>
   9.000000E+99

> <Gold.Protein.RotatedTorsions>
[ 6907 6896 6895 6894 ] final -149.69 input  -60.11 | X-H torsion
[ 7974 7965 7964 7962 ] final   74.77 input  175.53 | X-H torsion
[ 8008 7997 7996 7995 ] final -173.42 input   59.86 | X-H torsion
[ 10167 10162 10161 10158 ] final  -68.75 input  -65.29 | X-H torsion
[ 10718 10713 10712 10709 ] final  -43.25 input   66.30 | X-H torsion
[ 10763 10752 10751 10750 ] final   -2.77 input  -60.55 | X-H torsion
[ 11005 11000 10999 10996 ] final   79.41 input  -57.11 | X-H torsion

> <Gold.Protein.ActiveResidues>
 VAL166  LYS551  ARG553  GLY616  TRP617  ASP618  TYR619  PRO620  LYS621  CYS622 
 ASP623  PHE694  ASN695  SER759  ASP760  ASP761  ALA762  ILE779  LEU786  VAL792 
 PHE793  MET794  SER795  GLU796  ALA797  LYS798  CYS799  TRP800  GLU811  SER814 

> <Gold.Protein.RotatedAtoms>
  151.1878  133.4685  159.2594 H   0  0  0  0  0  0  0  0  0  0  0  0  # atno 6907 bound_to 6896
  151.1194  135.0071  159.8541 H   0  0  0  0  0  0  0  0  0  0  0  0  # atno 6908 bound_to 6896
  152.5455  134.1791  159.8681 H   0  0  0  0  0  0  0  0  0  0  0  0  # atno 6909 bound_to 6896
  145.7240  139.2659  143.1579 H   0  0  0  0  0  0  0  0  0  0  0  0  # atno 7974 bound_to 7965
  155.9572  140.1137  157.0927 H   0  0  0  0  0  0  0  0  0  0  0  0  # atno 8008 bound_to 7997
  154.4123  140.1189  156.5197 H   0  0  0  0  0  0  0  0  0  0  0  0  # atno 8009 bound_to 7997
  155.6767  140.3473  155.4841 H   0  0  0  0  0  0  0  0  0  0  0  0  # atno 8010 bound_to 7997
  140.5483  143.2312  151.6959 H   0  0  0  0  0  0  0  0  0  0  0  0  # atno 10167 bound_to 10162
  156.2509  130.4188  149.8651 H   0  0  0  0  0  0  0  0  0  0  0  0  # atno 10718 bound_to 10713
  153.3624  135.6991  153.6702 H   0  0  0  0  0  0  0  0  0  0  0  0  # atno 10763 bound_to 10752
  153.5385  135.3577  155.2708 H   0  0  0  0  0  0  0  0  0  0  0  0  # atno 10764 bound_to 10752
  154.8670  135.4198  154.2884 H   0  0  0  0  0  0  0  0  0  0  0  0  # atno 10765 bound_to 10752
  139.9174  134.7840  156.1775 H   0  0  0  0  0  0  0  0  0  0  0  0  # atno 11005 bound_to 11000
  146.0599  140.7981  142.9740 LP  0  0  0  0  0  0  0  0  0  0  0  0  # atno 17320 bound_to 7965
  144.6909  140.3181  143.7237 LP  0  0  0  0  0  0  0  0  0  0  0  0  # atno 17321 bound_to 7965
  139.5016  144.3859  152.0329 LP  0  0  0  0  0  0  0  0  0  0  0  0  # atno 17342 bound_to 10162
  140.2974  144.3686  150.6070 LP  0  0  0  0  0  0  0  0  0  0  0  0  # atno 17343 bound_to 10162
  156.6199  130.8622  151.3473 LP  0  0  0  0  0  0  0  0  0  0  0  0  # atno 17370 bound_to 10713
  157.7214  130.9563  150.1454 LP  0  0  0  0  0  0  0  0  0  0  0  0  # atno 17371 bound_to 10713
  141.0663  133.6818  156.2051 LP  0  0  0  0  0  0  0  0  0  0  0  0  # atno 17394 bound_to 11000
  140.6580  134.4997  157.5582 LP  0  0  0  0  0  0  0  0  0  0  0  0  # atno 17395 bound_to 11000

$$$$
