AV-unprocessed.smi:1641|AV-procd|sdf|6559|dock5
  -GOLD-   22720 7243D 1   1.00000     0.00000
 Structure written by MMmdl.
 42 43  0  0  0  0  0  0  0  0  2 V2000
  153.3071  138.1512  157.8091 C   0  0  0  0  0  0  0  0  0  0  0  0
  152.4962  138.4283  156.5897 C   0  0  0  0  0  0  0  0  0  0  0  0
  152.7440  139.4601  155.7737 N   0  0  0  0  0  0  0  0  0  0  0  0
  151.8561  139.5134  154.7081 N   0  0  0  0  0  0  0  0  0  0  0  0
  150.9608  138.5173  154.7539 C   0  0  0  0  0  0  0  0  0  0  0  0
  149.9346  138.3339  153.7894 N   0  0  0  0  0  0  0  0  0  0  0  0
  148.7380  138.9431  153.7216 C   0  0  0  0  0  0  0  0  0  0  0  0
  148.3274  139.7990  154.5058 O   0  0  0  0  0  0  0  0  0  0  0  0
  148.0232  138.4998  152.6771 N   0  0  0  0  0  0  0  0  0  0  0  0
  146.6859  138.9652  152.3279 C   0  0  0  0  0  0  0  0  0  0  0  0
  146.0142  138.0382  151.2959 C   0  0  0  0  0  0  0  0  0  0  0  0
  146.1263  136.6046  151.6629 N   0  3  1  0  0  0  0  0  0  0  0  0
  145.8862  136.3713  153.1068 C   0  0  0  0  0  0  0  0  0  0  0  0
  146.0718  134.8816  153.4532 C   0  0  1  0  0  0  0  0  0  0  0  0
  145.7553  134.5835  154.9227 C   0  0  0  0  0  0  0  0  0  0  0  0
  145.1940  134.1050  152.6462 O   0  0  0  0  0  0  0  0  0  0  0  0
  145.4627  134.2439  151.2557 C   0  0  1  0  0  0  0  0  0  0  0  0
  144.5277  133.2990  150.4933 C   0  0  0  0  0  0  0  0  0  0  0  0
  145.2614  135.7156  150.8483 C   0  0  0  0  0  0  0  0  0  0  0  0
  151.1316  137.4238  156.1164 S   0  0  0  0  0  0  0  0  0  0  0  0
  154.2990  138.5950  157.7179 H   0  0  0  0  0  0  0  0  0  0  0  0
  153.4191  137.0760  157.9489 H   0  0  0  0  0  0  0  0  0  0  0  0
  152.8140  138.5700  158.6865 H   0  0  0  0  0  0  0  0  0  0  0  0
  150.1357  137.6559  153.0692 H   0  0  0  0  0  0  0  0  0  0  0  0
  148.4354  137.7988  152.0785 H   0  0  0  0  0  0  0  0  0  0  0  0
  146.0918  139.0481  153.2382 H   0  0  0  0  0  0  0  0  0  0  0  0
  146.7728  139.9730  151.9209 H   0  0  0  0  0  0  0  0  0  0  0  0
  144.9592  138.3099  151.2346 H   0  0  0  0  0  0  0  0  0  0  0  0
  146.4292  138.1913  150.2984 H   0  0  0  0  0  0  0  0  0  0  0  0
  146.5781  136.9732  153.6975 H   0  0  0  0  0  0  0  0  0  0  0  0
  144.8770  136.6970  153.3640 H   0  0  0  0  0  0  0  0  0  0  0  0
  147.1023  134.5825  153.2532 H   0  0  0  0  0  0  0  0  0  0  0  0
  146.4112  135.1448  155.5884 H   0  0  0  0  0  0  0  0  0  0  0  0
  145.8899  133.5239  155.1415 H   0  0  0  0  0  0  0  0  0  0  0  0
  144.7255  134.8458  155.1669 H   0  0  0  0  0  0  0  0  0  0  0  0
  146.4937  133.9451  151.0573 H   0  0  0  0  0  0  0  0  0  0  0  0
  144.6973  133.3606  149.4182 H   0  0  0  0  0  0  0  0  0  0  0  0
  143.4814  133.5415  150.6820 H   0  0  0  0  0  0  0  0  0  0  0  0
  144.6888  132.2640  150.7961 H   0  0  0  0  0  0  0  0  0  0  0  0
  144.2169  136.0029  150.9812 H   0  0  0  0  0  0  0  0  0  0  0  0
  145.4904  135.8289  149.7891 H   0  0  0  0  0  0  0  0  0  0  0  0
  147.0832  136.3331  151.4870 H   0  0  0  0  0  0  0  0  0  0  0  0
  1  2  1  0  0  0  0
  1 21  1  0  0  0  0
  1 22  1  0  0  0  0
  1 23  1  0  0  0  0
  2 20  1  0  0  0  0
  2  3  2  0  0  0  0
  3  4  1  0  0  0  0
  4  5  2  0  0  0  0
  5  6  1  0  0  0  0
  5 20  1  0  0  0  0
  6  7  1  0  0  0  0
  6 24  1  0  0  0  0
  7  8  2  0  0  0  0
  7  9  1  0  0  0  0
  9 10  1  0  0  0  0
  9 25  1  0  0  0  0
 10 11  1  0  0  0  0
 10 26  1  0  0  0  0
 10 27  1  0  0  0  0
 11 12  1  0  0  0  0
 11 28  1  0  0  0  0
 11 29  1  0  0  0  0
 12 19  1  0  0  0  0
 12 13  1  0  0  0  0
 12 42  1  0  0  0  0
 13 14  1  0  0  0  0
 13 30  1  0  0  0  0
 13 31  1  0  0  0  0
 14 15  1  0  0  0  0
 14 16  1  0  0  0  0
 14 32  1  0  0  0  0
 15 33  1  0  0  0  0
 15 34  1  0  0  0  0
 15 35  1  0  0  0  0
 16 17  1  0  0  0  0
 17 18  1  0  0  0  0
 17 19  1  0  0  0  0
 17 36  1  0  0  0  0
 18 37  1  0  0  0  0
 18 38  1  0  0  0  0
 18 39  1  0  0  0  0
 19 40  1  0  0  0  0
 19 41  1  0  0  0  0
M  CHG  1  12   1
M  END
> <s_m_source_file>
AV-unprocessed.smi

> <i_m_source_file_index>
1641

> <i_lp_mmshare_version>
43012

> <i_f3d_flags>
0

> <s_epik_input>
W0NIM11jMW5uYyhzMSlbTkhdQyg9TylbTkhdW0NIMl1bQ0gyXU4yW0NIMl1bQ0BASF0oW0NIM10pT1tDQEBIXShbQ0gzXSlbQ0gyXTI=

> <s_epik_cmdline>
J2VwaWtfcHl0aG9uJywgJy1waCcsICc3LjAnLCAnLXRuJywgJzgnLCAnLW1hJywgJzIwMCcsICctbWV0YWxfYmluZGluZycsICctaW1hZScsICc8aW5maWxlLm1hZT4nLCAnLW9tYWUnLCAnPG91dGZpbGUubWFlPic=

> <r_lp_tautomer_probability>
1

> <r_epik_Ionization_Penalty>
0.700114

> <r_epik_Ionization_Penalty_Charging>
0.695697

> <r_epik_Ionization_Penalty_Neutral>
0.00441638

> <r_epik_State_Penalty>
0.717972

> <r_epik_Charging_Adjusted_Penalty>
1.41367

> <i_epik_Tot_Q>
1

> <i_epik_Tot_abs_Q>
1

> <r_epik_Metal_State_Penalty>
1.06958

> <b_epik_Metal_Only>
0

> <s_lp_Force_Field>
OPLS_2005

> <r_lp_Energy>
12.6792

> <b_lp_Chiralities_Consistent>
1

> <s_lp_Variant>
AV-unprocessed.smi:1641-4

> <Gold.Version>
5.8.1

> <Gold.Id.Protein>
6NUR|6NUR_protein|mol2

> <Gold.PLP.Fitness>
43.4959

> <Gold.PLP.PLP>
-29.0885

> <Gold.PLP.part.hbond>
-6.8043

> <Gold.PLP.part.metal>
0.0000

> <Gold.PLP.part.buried>
-0.3772

> <Gold.PLP.part.nonpolar>
-23.9116

> <Gold.PLP.part.repulsive>
0.4499

> <Gold.PLP.ligand.clash>
0.0000

> <Gold.PLP.ligand.torsion>
0.9636

> <Gold.PLP.Chemscore.Hbond>
5.4411

> <Gold.PLP.Chemscore.CHOScore>
0.0000

> <Gold.PLP.Chemscore.Metal>
0.0000

> <Gold.Chemscore.Hbonds>
donor molecule, donor type, donor heavy atom, donor atom, acceptor molecule, acceptor atom, score
      L1  H     6    24       P1  7948  0.46
      L1  H     9    25       P1  7948  1.00
      L1  H    12    42       P1  7948  2.00
      P1  H  7989  7998       L1     4  1.00
      P1  H  7997  8010       L1     3  1.00

> <Gold.PLP.Chemscore.Internal.Correction>
0.0111

> <Gold.Rescore>
     Score         DG    S(hbond)    S(metal)    S(lipo)     H(rot)  DE(clash)    DE(int)     intcor
     19.29     -21.89       4.08        0.00      59.52       1.64       1.73       0.87       ----

> <Gold.Chemscore.Fitness>
19.2884

> <Gold.Chemscore.DG>
-21.8874

> <Gold.Chemscore.ZeroCoef>
-5.4800

> <Gold.Chemscore.Hbond>
4.0812

> <Gold.Chemscore.Metal>
0.0000

> <Gold.Chemscore.Lipo>
59.5211

> <Gold.Chemscore.Internal_Hbond>
0.0000

> <Gold.Chemscore.DEClash>
1.7293

> <Gold.Chemscore.DEInternal>
0.8698

> <Gold.Chemscore.Rot>
1.6358

> <Gold.Chemscore.Internal.Correction>
   9.000000E+99

> <Gold.Chemscore.Hbonds>
donor molecule, donor type, donor heavy atom, donor atom, acceptor molecule, acceptor atom, score
      L1  H     6    24       P1  7948  0.09
      L1  H     9    25       P1  7948  0.95
      L1  H    12    42       P1  7948  0.99
      P1  H  7989  7998       L1     4  0.92
      P1  H  7997  8010       L1     3  0.87

> <Gold.Chemscore.Hbond.Weighted>
-13.6312

> <Gold.Chemscore.Metal.Weighted>
-0.0000

> <Gold.Chemscore.Lipo.Weighted>
-6.9640

> <Gold.Chemscore.Internal_Hbond.Weighted>
0.0000

> <Gold.Chemscore.DEClash.Weighted>
1.7293

> <Gold.Chemscore.DEInternal.Weighted>
0.8698

> <Gold.Chemscore.Rot.Weighted>
4.1878

> <Gold.Chemscore.Internal.Correction.Weighted>
   9.000000E+99

> <Gold.Protein.RotatedTorsions>
[ 6907 6896 6895 6894 ] final  155.91 input  -60.11 | X-H torsion
[ 7974 7965 7964 7962 ] final -137.31 input  175.53 | X-H torsion
[ 8008 7997 7996 7995 ] final  101.79 input   59.86 | X-H torsion
[ 10167 10162 10161 10158 ] final -144.36 input  -65.29 | X-H torsion
[ 10718 10713 10712 10709 ] final  -28.12 input   66.30 | X-H torsion
[ 10763 10752 10751 10750 ] final   18.50 input  -60.55 | X-H torsion
[ 11005 11000 10999 10996 ] final  -36.79 input  -57.11 | X-H torsion

> <Gold.Protein.ActiveResidues>
 VAL166  LYS551  ARG553  GLY616  TRP617  ASP618  TYR619  PRO620  LYS621  CYS622 
 ASP623  PHE694  ASN695  SER759  ASP760  ASP761  ALA762  ILE779  LEU786  VAL792 
 PHE793  MET794  SER795  GLU796  ALA797  LYS798  CYS799  TRP800  GLU811  SER814 

> <Gold.Protein.RotatedAtoms>
  152.0374  133.3963  159.4322 H   0  0  0  0  0  0  0  0  0  0  0  0  # atno 6907 bound_to 6896
  150.6878  134.3453  159.4895 H   0  0  0  0  0  0  0  0  0  0  0  0  # atno 6908 bound_to 6896
  152.1247  134.9179  160.0612 H   0  0  0  0  0  0  0  0  0  0  0  0  # atno 6909 bound_to 6896
  144.8853  140.6566  143.5180 H   0  0  0  0  0  0  0  0  0  0  0  0  # atno 7974 bound_to 7965
  156.1333  140.3192  155.8381 H   0  0  0  0  0  0  0  0  0  0  0  0  # atno 8008 bound_to 7997
  155.4292  140.0517  157.3037 H   0  0  0  0  0  0  0  0  0  0  0  0  # atno 8009 bound_to 7997
  154.4916  140.2094  155.9548 H   0  0  0  0  0  0  0  0  0  0  0  0  # atno 8010 bound_to 7997
  139.7906  143.7971  152.2649 H   0  0  0  0  0  0  0  0  0  0  0  0  # atno 10167 bound_to 10162
  156.4293  130.4442  149.7129 H   0  0  0  0  0  0  0  0  0  0  0  0  # atno 10718 bound_to 10713
  153.1243  135.6726  153.9283 H   0  0  0  0  0  0  0  0  0  0  0  0  # atno 10763 bound_to 10752
  153.8788  135.3060  155.3446 H   0  0  0  0  0  0  0  0  0  0  0  0  # atno 10764 bound_to 10752
  154.7651  135.4968  153.9618 H   0  0  0  0  0  0  0  0  0  0  0  0  # atno 10765 bound_to 10752
  140.9902  133.7009  156.1836 H   0  0  0  0  0  0  0  0  0  0  0  0  # atno 11005 bound_to 11000
  145.3880  139.1622  143.4244 LP  0  0  0  0  0  0  0  0  0  0  0  0  # atno 17320 bound_to 7965
  146.3020  140.3967  142.8700 LP  0  0  0  0  0  0  0  0  0  0  0  0  # atno 17321 bound_to 7965
  139.8061  144.7355  150.9759 LP  0  0  0  0  0  0  0  0  0  0  0  0  # atno 17342 bound_to 10162
  140.7820  143.4297  151.0714 LP  0  0  0  0  0  0  0  0  0  0  0  0  # atno 17343 bound_to 10162
  156.4038  130.7688  151.2697 LP  0  0  0  0  0  0  0  0  0  0  0  0  # atno 17370 bound_to 10713
  157.7508  131.0232  150.3823 LP  0  0  0  0  0  0  0  0  0  0  0  0  # atno 17371 bound_to 10713
  140.7052  134.4521  157.5584 LP  0  0  0  0  0  0  0  0  0  0  0  0  # atno 17394 bound_to 11000
  139.8988  134.8604  156.1984 LP  0  0  0  0  0  0  0  0  0  0  0  0  # atno 17395 bound_to 11000

$$$$
