AV-unprocessed.smi:699|AV-procd|sdf|3403|dock2
  -GOLD-   22720 0383D 1   1.00000     0.00000
 Structure written by MMmdl.
 35 36  0  0  0  0  0  0  0  0  2 V2000
  142.5355  134.7062  154.6458 N   0  0  0  0  0  0  0  0  0  0  0  0
  143.0380  135.7461  153.9757 C   0  0  0  0  0  0  0  0  0  0  0  0
  142.6624  136.8985  154.1818 O   0  0  0  0  0  0  0  0  0  0  0  0
  144.1151  135.4450  152.9221 C   0  0  2  0  0  0  0  0  0  0  0  0
  143.7097  134.3056  151.9720 C   0  0  0  0  0  0  0  0  0  0  0  0
  145.0276  133.6636  151.5503 C   0  0  0  0  0  0  0  0  0  0  0  0
  145.8899  133.7219  152.8084 C   0  0  0  0  0  0  0  0  0  0  0  0
  145.4672  135.0035  153.5467 C   0  0  1  0  0  0  0  0  0  0  0  0
  146.4932  136.0370  153.4143 N   0  0  0  0  0  0  0  0  0  0  0  0
  146.3624  137.3124  153.8065 C   0  0  0  0  0  0  0  0  0  0  0  0
  145.3355  137.7659  154.3108 O   0  0  0  0  0  0  0  0  0  0  0  0
  147.4803  138.0163  153.5568 N   0  0  0  0  0  0  0  0  0  0  0  0
  147.7500  139.3817  153.8469 C   0  0  0  0  0  0  0  0  0  0  0  0
  149.0392  139.7070  154.3243 C   0  0  0  0  0  0  0  0  0  0  0  0
  149.3467  141.0459  154.6419 C   0  0  0  0  0  0  0  0  0  0  0  0
  148.4065  142.0041  154.4971 N   0  3  0  0  0  0  0  0  0  0  0  0
  147.1572  141.7403  154.0582 C   0  0  0  0  0  0  0  0  0  0  0  0
  146.7912  140.4201  153.7258 C   0  0  0  0  0  0  0  0  0  0  0  0
  141.8231  134.8592  155.3447 H   0  0  0  0  0  0  0  0  0  0  0  0
  142.8648  133.7720  154.4512 H   0  0  0  0  0  0  0  0  0  0  0  0
  144.2754  136.3366  152.3122 H   0  0  0  0  0  0  0  0  0  0  0  0
  143.0935  133.5629  152.4814 H   0  0  0  0  0  0  0  0  0  0  0  0
  143.1432  134.6677  151.1134 H   0  0  0  0  0  0  0  0  0  0  0  0
  144.8992  132.6477  151.1756 H   0  0  0  0  0  0  0  0  0  0  0  0
  145.4891  134.2565  150.7596 H   0  0  0  0  0  0  0  0  0  0  0  0
  145.6635  132.8573  153.4341 H   0  0  0  0  0  0  0  0  0  0  0  0
  146.9562  133.6812  152.5814 H   0  0  0  0  0  0  0  0  0  0  0  0
  145.3651  134.7617  154.6072 H   0  0  0  0  0  0  0  0  0  0  0  0
  147.3697  135.7518  153.0027 H   0  0  0  0  0  0  0  0  0  0  0  0
  148.2086  137.5268  153.0576 H   0  0  0  0  0  0  0  0  0  0  0  0
  149.7910  138.9400  154.4428 H   0  0  0  0  0  0  0  0  0  0  0  0
  150.3084  141.3756  155.0073 H   0  0  0  0  0  0  0  0  0  0  0  0
  146.4886  142.5864  153.9928 H   0  0  0  0  0  0  0  0  0  0  0  0
  145.7808  140.2296  153.3978 H   0  0  0  0  0  0  0  0  0  0  0  0
  148.6480  142.9669  154.7344 H   0  0  0  0  0  0  0  0  0  0  0  0
  1  2  1  0  0  0  0
  1 19  1  0  0  0  0
  1 20  1  0  0  0  0
  2  3  2  0  0  0  0
  2  4  1  0  0  0  0
  4  8  1  0  0  0  0
  4  5  1  0  0  0  0
  4 21  1  0  0  0  0
  5  6  1  0  0  0  0
  5 22  1  0  0  0  0
  5 23  1  0  0  0  0
  6  7  1  0  0  0  0
  6 24  1  0  0  0  0
  6 25  1  0  0  0  0
  7  8  1  0  0  0  0
  7 26  1  0  0  0  0
  7 27  1  0  0  0  0
  8  9  1  0  0  0  0
  8 28  1  0  0  0  0
  9 10  1  0  0  0  0
  9 29  1  0  0  0  0
 10 11  2  0  0  0  0
 10 12  1  0  0  0  0
 12 13  1  0  0  0  0
 12 30  1  0  0  0  0
 13 18  1  0  0  0  0
 13 14  2  0  0  0  0
 14 15  1  0  0  0  0
 14 31  1  0  0  0  0
 15 16  2  0  0  0  0
 15 32  1  0  0  0  0
 16 17  1  0  0  0  0
 16 35  1  0  0  0  0
 17 18  2  0  0  0  0
 17 33  1  0  0  0  0
 18 34  1  0  0  0  0
M  CHG  1  16   1
M  END
> <s_m_source_file>
AV-unprocessed.smi

> <i_m_source_file_index>
699

> <i_lp_mmshare_version>
43012

> <i_f3d_flags>
0

> <s_epik_input>
W05IMl1DKD1PKVtDQEBIXTFbQ0gyXVtDSDJdW0NIMl1bQ0BIXTFbTkhdQyg9TylbTkhdYzJbY0hdW2NIXW5bY0hdW2NIXTI=

> <s_epik_cmdline>
J2VwaWtfcHl0aG9uJywgJy1waCcsICc3LjAnLCAnLXRuJywgJzgnLCAnLW1hJywgJzIwMCcsICctbWV0YWxfYmluZGluZycsICctaW1hZScsICc8aW5maWxlLm1hZT4nLCAnLW9tYWUnLCAnPG91dGZpbGUubWFlPic=

> <r_epik_Ionization_Penalty>
1.0332

> <r_epik_Ionization_Penalty_Charging>
1.03318

> <r_epik_Ionization_Penalty_Neutral>
1.91967e-05

> <r_epik_State_Penalty>
1.08452

> <r_epik_Charging_Adjusted_Penalty>
2.11769

> <i_epik_Tot_Q>
1

> <i_epik_Tot_abs_Q>
1

> <r_epik_Metal_State_Penalty>
1.18144

> <b_epik_Metal_Only>
0

> <s_lp_Force_Field>
OPLS_2005

> <r_lp_Energy>
26.3794

> <b_lp_Chiralities_Consistent>
1

> <s_lp_Variant>
AV-unprocessed.smi:699-5

> <Gold.Version>
5.8.1

> <Gold.Id.Protein>
6NUR|6NUR_protein|mol2

> <Gold.PLP.Fitness>
41.8585

> <Gold.PLP.PLP>
-25.6726

> <Gold.PLP.part.hbond>
-5.0000

> <Gold.PLP.part.metal>
0.0000

> <Gold.PLP.part.buried>
-5.4178

> <Gold.PLP.part.nonpolar>
-17.2940

> <Gold.PLP.part.repulsive>
0.3971

> <Gold.PLP.ligand.clash>
0.0000

> <Gold.PLP.ligand.torsion>
0.5687

> <Gold.PLP.Chemscore.Hbond>
5.7737

> <Gold.PLP.Chemscore.CHOScore>
0.0000

> <Gold.PLP.Chemscore.Metal>
0.0000

> <Gold.Chemscore.Hbonds>
donor molecule, donor type, donor heavy atom, donor atom, acceptor molecule, acceptor atom, score
      L1  H     1    19       P1 11000  0.83
      L1  H     1    20       P1 10957  0.92
      L1  H     9    29       P1  7948  0.98
      L1  H    12    30       P1  7948  1.00
      L1  H    16    35       P1  8028  2.00

> <Gold.PLP.Chemscore.Internal.Correction>
0.0024

> <Gold.Rescore>
     Score         DG    S(hbond)    S(metal)    S(lipo)     H(rot)  DE(clash)    DE(int)     intcor
     19.18     -21.39       4.22        0.00      48.33       1.50       0.00       2.21       ----

> <Gold.Chemscore.Fitness>
19.1799

> <Gold.Chemscore.DG>
-21.3919

> <Gold.Chemscore.ZeroCoef>
-5.4800

> <Gold.Chemscore.Hbond>
4.2236

> <Gold.Chemscore.Metal>
0.0000

> <Gold.Chemscore.Lipo>
48.3319

> <Gold.Chemscore.Internal_Hbond>
0.0000

> <Gold.Chemscore.DEClash>
0.0000

> <Gold.Chemscore.DEInternal>
2.2120

> <Gold.Chemscore.Rot>
1.5038

> <Gold.Chemscore.Internal.Correction>
   9.000000E+99

> <Gold.Chemscore.Hbonds>
donor molecule, donor type, donor heavy atom, donor atom, acceptor molecule, acceptor atom, score
      L1  H     1    19       P1 11000  0.20
      L1  H     1    20       P1 10957  0.83
      L1  H     9    29       P1  7948  0.90
      L1  H    12    30       P1  7948  0.99
      L1  H    16    35       P1  8028  0.98

> <Gold.Chemscore.Hbond.Weighted>
-14.1067

> <Gold.Chemscore.Metal.Weighted>
-0.0000

> <Gold.Chemscore.Lipo.Weighted>
-5.6548

> <Gold.Chemscore.Internal_Hbond.Weighted>
0.0000

> <Gold.Chemscore.DEClash.Weighted>
0.0000

> <Gold.Chemscore.DEInternal.Weighted>
2.2120

> <Gold.Chemscore.Rot.Weighted>
3.8496

> <Gold.Chemscore.Internal.Correction.Weighted>
   9.000000E+99

> <Gold.Protein.RotatedTorsions>
[ 6907 6896 6895 6894 ] final   24.47 input  -60.11 | X-H torsion
[ 7974 7965 7964 7962 ] final  148.35 input  175.53 | X-H torsion
[ 8008 7997 7996 7995 ] final   83.20 input   59.86 | X-H torsion
[ 10167 10162 10161 10158 ] final  -14.84 input  -65.29 | X-H torsion
[ 10718 10713 10712 10709 ] final  -86.13 input   66.30 | X-H torsion
[ 10763 10752 10751 10750 ] final  -39.81 input  -60.55 | X-H torsion
[ 11005 11000 10999 10996 ] final -160.67 input  -57.11 | X-H torsion

> <Gold.Protein.ActiveResidues>
 VAL166  LYS551  ARG553  GLY616  TRP617  ASP618  TYR619  PRO620  LYS621  CYS622 
 ASP623  PHE694  ASN695  SER759  ASP760  ASP761  ALA762  ILE779  LEU786  VAL792 
 PHE793  MET794  SER795  GLU796  ALA797  LYS798  CYS799  TRP800  GLU811  SER814 

> <Gold.Protein.RotatedAtoms>
  151.9579  135.0138  160.0545 H   0  0  0  0  0  0  0  0  0  0  0  0  # atno 6907 bound_to 6896
  152.1895  133.4758  159.5008 H   0  0  0  0  0  0  0  0  0  0  0  0  # atno 6908 bound_to 6896
  150.6932  134.1648  159.4233 H   0  0  0  0  0  0  0  0  0  0  0  0  # atno 6909 bound_to 6896
  144.8521  139.6143  143.5969 H   0  0  0  0  0  0  0  0  0  0  0  0  # atno 7974 bound_to 7965
  155.9208  140.3421  155.6171 H   0  0  0  0  0  0  0  0  0  0  0  0  # atno 8008 bound_to 7997
  155.7276  140.0791  157.2322 H   0  0  0  0  0  0  0  0  0  0  0  0  # atno 8009 bound_to 7997
  154.4069  140.1594  156.2460 H   0  0  0  0  0  0  0  0  0  0  0  0  # atno 8010 bound_to 7997
  140.7208  143.5280  150.9553 H   0  0  0  0  0  0  0  0  0  0  0  0  # atno 10167 bound_to 10162
  155.9992  130.4754  150.4668 H   0  0  0  0  0  0  0  0  0  0  0  0  # atno 10718 bound_to 10713
  153.9356  135.6767  153.4745 H   0  0  0  0  0  0  0  0  0  0  0  0  # atno 10763 bound_to 10752
  153.0957  135.4852  154.8771 H   0  0  0  0  0  0  0  0  0  0  0  0  # atno 10764 bound_to 10752
  154.7405  135.3159  154.8695 H   0  0  0  0  0  0  0  0  0  0  0  0  # atno 10765 bound_to 10752
  140.6289  134.4672  157.5228 H   0  0  0  0  0  0  0  0  0  0  0  0  # atno 11005 bound_to 11000
  146.2793  139.6834  142.9240 LP  0  0  0  0  0  0  0  0  0  0  0  0  # atno 17320 bound_to 7965
  145.4480  141.0426  143.2820 LP  0  0  0  0  0  0  0  0  0  0  0  0  # atno 17321 bound_to 7965
  139.9000  143.6848  152.3133 LP  0  0  0  0  0  0  0  0  0  0  0  0  # atno 17342 bound_to 10162
  139.7194  144.7605  151.0980 LP  0  0  0  0  0  0  0  0  0  0  0  0  # atno 17343 bound_to 10162
  157.2687  131.0582  151.2274 LP  0  0  0  0  0  0  0  0  0  0  0  0  # atno 17370 bound_to 10713
  157.3362  130.7010  149.6354 LP  0  0  0  0  0  0  0  0  0  0  0  0  # atno 17371 bound_to 10713
  139.9124  134.8317  156.1483 LP  0  0  0  0  0  0  0  0  0  0  0  0  # atno 17394 bound_to 11000
  141.0689  133.6806  156.2101 LP  0  0  0  0  0  0  0  0  0  0  0  0  # atno 17395 bound_to 11000

$$$$
