AV-unprocessed.smi:53|AV-procd|sdf|520|dock5
  -GOLD-   2262016393D 1   1.00000     0.00000
 Structure written by MMmdl.
 30 31  0  0  0  0  0  0  0  0  1 V2000
  145.4765  138.5709  153.6737 N   0  0  0  0  0  0  0  0  0  0  0  0
  145.3538  137.2972  153.2742 C   0  0  0  0  0  0  0  0  0  0  0  0
  144.4152  136.9458  152.2326 C   0  0  0  0  0  0  0  0  0  0  0  0
  144.3466  135.6411  151.8881 C   0  0  0  0  0  0  0  0  0  0  0  0
  145.1251  134.6712  152.5047 N   0  0  0  0  0  0  0  0  0  0  0  0
  145.0370  133.2188  152.0919 C   0  0  1  0  0  0  0  0  0  0  0  0
  144.0612  133.0926  151.0988 O   0  0  0  0  0  0  0  0  0  0  0  0
  144.5682  132.3352  150.0044 C   0  0  1  0  0  0  0  0  0  0  0  0
  143.8468  132.7423  148.7103 C   0  0  0  0  0  0  0  0  0  0  0  0
  142.5711  132.1404  148.6563 O   0  0  0  0  0  0  0  0  0  0  0  0
  146.0559  132.6892  150.0145 C   0  0  2  0  0  0  0  0  0  0  0  0
  146.8538  131.7580  149.3079 O   0  0  0  0  0  0  0  0  0  0  0  0
  146.3779  132.7500  151.5034 C   0  0  2  0  0  0  0  0  0  0  0  0
  146.7544  131.4903  152.0306 O   0  0  0  0  0  0  0  0  0  0  0  0
  146.0517  135.0494  153.5057 C   0  0  0  0  0  0  0  0  0  0  0  0
  146.7914  134.2308  154.0503 O   0  0  0  0  0  0  0  0  0  0  0  0
  146.1055  136.3752  153.8438 N   0  0  0  0  0  0  0  0  0  0  0  0
  144.7114  132.6581  152.9703 H   0  0  0  0  0  0  0  0  0  0  0  0
  144.4427  131.2707  150.2129 H   0  0  0  0  0  0  0  0  0  0  0  0
  146.1990  133.6792  149.5791 H   0  0  0  0  0  0  0  0  0  0  0  0
  147.1747  133.4640  151.7174 H   0  0  0  0  0  0  0  0  0  0  0  0
  146.1354  138.8140  154.3992 H   0  0  0  0  0  0  0  0  0  0  0  0
  144.9106  139.2878  153.2430 H   0  0  0  0  0  0  0  0  0  0  0  0
  143.7844  137.6668  151.7325 H   0  0  0  0  0  0  0  0  0  0  0  0
  143.6576  135.3647  151.1037 H   0  0  0  0  0  0  0  0  0  0  0  0
  143.7608  133.8262  148.6268 H   0  0  0  0  0  0  0  0  0  0  0  0
  144.4079  132.3942  147.8426 H   0  0  0  0  0  0  0  0  0  0  0  0
  141.9219  132.7904  148.8784 H   0  0  0  0  0  0  0  0  0  0  0  0
  147.5394  131.4534  149.8831 H   0  0  0  0  0  0  0  0  0  0  0  0
  147.4855  131.1627  151.5294 H   0  0  0  0  0  0  0  0  0  0  0  0
  1  2  1  0  0  0  0
  1 22  1  0  0  0  0
  1 23  1  0  0  0  0
  2 17  2  0  0  0  0
  2  3  1  0  0  0  0
  3  4  2  0  0  0  0
  3 24  1  0  0  0  0
  4  5  1  0  0  0  0
  4 25  1  0  0  0  0
  5  6  1  0  0  0  0
  5 15  1  0  0  0  0
  6 18  1  0  0  0  0
  6 13  1  0  0  0  0
  6  7  1  0  0  0  0
  7  8  1  0  0  0  0
  8 19  1  0  0  0  0
  8  9  1  0  0  0  0
  8 11  1  0  0  0  0
  9 10  1  0  0  0  0
  9 26  1  0  0  0  0
  9 27  1  0  0  0  0
 10 28  1  0  0  0  0
 11 20  1  0  0  0  0
 11 12  1  0  0  0  0
 11 13  1  0  0  0  0
 12 29  1  0  0  0  0
 13 21  1  0  0  0  0
 13 14  1  0  0  0  0
 14 30  1  0  0  0  0
 15 16  2  0  0  0  0
 15 17  1  0  0  0  0
M  END
> <s_m_source_file>
AV-unprocessed.smi

> <i_m_source_file_index>
53

> <i_lp_mmshare_version>
43012

> <i_f3d_flags>
0

> <s_epik_input>
W05IMl1jMVtjSF1bY0hdbihjKD1PKW4xKVtDQEBIXTJPW0NASF0oW0NIMl1bT0hdKVtDQEBIXShbT0hdKVtDQEBIXTJbT0hd

> <s_epik_cmdline>
J2VwaWtfcHl0aG9uJywgJy1waCcsICc3LjAnLCAnLXRuJywgJzgnLCAnLW1hJywgJzIwMCcsICctbWV0YWxfYmluZGluZycsICctaW1hZScsICc8aW5maWxlLm1hZT4nLCAnLW9tYWUnLCAnPG91dGZpbGUubWFlPic=

> <r_lp_tautomer_probability>
0.99996

> <r_epik_Ionization_Penalty>
0.00069087

> <r_epik_Ionization_Penalty_Charging>
2.61959e-08

> <r_epik_Ionization_Penalty_Neutral>
0.000690844

> <r_epik_State_Penalty>
1.15523e-05

> <r_epik_Charging_Adjusted_Penalty>
1.15785e-05

> <i_epik_Tot_Q>
0

> <i_epik_Tot_abs_Q>
0

> <r_epik_Metal_State_Penalty>
-0

> <b_epik_Metal_Only>
0

> <s_epik_Chemistry_Notes>
This compound contains an acetal/aminal-like group ( X-CH(R)-Y where X, Y are N, S, or O) that may be acid/base labile, releasing an aldehyde.

> <s_lp_Force_Field>
OPLS_2005

> <r_lp_Energy>
33.3856

> <b_lp_Chiralities_Consistent>
1

> <s_lp_Variant>
AV-unprocessed.smi:53-8

> <Gold.Version>
5.8.1

> <Gold.Id.Protein>
6NUR|6NUR_protein|mol2

> <Gold.PLP.Fitness>
43.5695

> <Gold.PLP.PLP>
-28.8356

> <Gold.PLP.part.hbond>
-5.8234

> <Gold.PLP.part.metal>
0.0000

> <Gold.PLP.part.buried>
-4.1848

> <Gold.PLP.part.nonpolar>
-17.6527

> <Gold.PLP.part.repulsive>
0.3200

> <Gold.PLP.ligand.clash>
0.0000

> <Gold.PLP.ligand.torsion>
0.1282

> <Gold.PLP.Chemscore.Hbond>
4.9913

> <Gold.PLP.Chemscore.CHOScore>
0.0000

> <Gold.PLP.Chemscore.Metal>
0.0000

> <Gold.Chemscore.Hbonds>
donor molecule, donor type, donor heavy atom, donor atom, acceptor molecule, acceptor atom, score
      L1  H     1    23       P1 10175  1.00
      L1  H    10    28       P1 10186  1.00
      L1  H    12    29       P1 10747  1.00
      L1  H    14    30       P1 10747  1.00
      P1  H 10785 10796       L1    10  0.78

> <Gold.PLP.Chemscore.Internal.Correction>
0.0166

> <Gold.Rescore>
     Score         DG    S(hbond)    S(metal)    S(lipo)     H(rot)  DE(clash)    DE(int)     intcor
     14.84     -15.69       4.21        0.00      48.20       3.71       0.60       0.25       ----

> <Gold.Chemscore.Fitness>
14.8387

> <Gold.Chemscore.DG>
-15.6878

> <Gold.Chemscore.ZeroCoef>
-5.4800

> <Gold.Chemscore.Hbond>
4.2110

> <Gold.Chemscore.Metal>
0.0000

> <Gold.Chemscore.Lipo>
48.2000

> <Gold.Chemscore.Internal_Hbond>
0.0000

> <Gold.Chemscore.DEClash>
0.6014

> <Gold.Chemscore.DEInternal>
0.2477

> <Gold.Chemscore.Rot>
3.7095

> <Gold.Chemscore.Internal.Correction>
   9.000000E+99

> <Gold.Chemscore.Hbonds>
donor molecule, donor type, donor heavy atom, donor atom, acceptor molecule, acceptor atom, score
      L1  H     1    23       P1 10175  1.00
      L1  H    10    28       P1 10186  0.98
      L1  H    12    29       P1 10747  0.96
      L1  H    14    30       P1 10747  0.98
      P1  H 10785 10796       L1    10  0.14

> <Gold.Chemscore.Hbond.Weighted>
-14.0648

> <Gold.Chemscore.Metal.Weighted>
-0.0000

> <Gold.Chemscore.Lipo.Weighted>
-5.6394

> <Gold.Chemscore.Internal_Hbond.Weighted>
0.0000

> <Gold.Chemscore.DEClash.Weighted>
0.6014

> <Gold.Chemscore.DEInternal.Weighted>
0.2477

> <Gold.Chemscore.Rot.Weighted>
9.4964

> <Gold.Chemscore.Internal.Correction.Weighted>
   9.000000E+99

> <Gold.Protein.RotatedTorsions>
[ 6907 6896 6895 6894 ] final   97.78 input  -60.11 | X-H torsion
[ 7974 7965 7964 7962 ] final   -9.05 input  175.53 | X-H torsion
[ 8008 7997 7996 7995 ] final  -11.36 input   59.86 | X-H torsion
[ 10167 10162 10161 10158 ] final  -26.42 input  -65.29 | X-H torsion
[ 10718 10713 10712 10709 ] final  108.96 input   66.30 | X-H torsion
[ 10763 10752 10751 10750 ] final -161.64 input  -60.55 | X-H torsion
[ 11005 11000 10999 10996 ] final  135.08 input  -57.11 | X-H torsion

> <Gold.Protein.ActiveResidues>
 VAL166  LYS551  ARG553  GLY616  TRP617  ASP618  TYR619  PRO620  LYS621  CYS622 
 ASP623  PHE694  ASN695  SER759  ASP760  ASP761  ALA762  ILE779  LEU786  VAL792 
 PHE793  MET794  SER795  GLU796  ALA797  LYS798  CYS799  TRP800  GLU811  SER814 

> <Gold.Protein.RotatedAtoms>
  152.5419  134.0680  159.8181 H   0  0  0  0  0  0  0  0  0  0  0  0  # atno 6907 bound_to 6896
  151.0799  133.5391  159.2628 H   0  0  0  0  0  0  0  0  0  0  0  0  # atno 6908 bound_to 6896
  151.2222  135.0531  159.9008 H   0  0  0  0  0  0  0  0  0  0  0  0  # atno 6909 bound_to 6896
  146.2263  140.2558  142.8349 H   0  0  0  0  0  0  0  0  0  0  0  0  # atno 7974 bound_to 7965
  154.5472  140.2304  155.8544 H   0  0  0  0  0  0  0  0  0  0  0  0  # atno 8008 bound_to 7997
  156.1914  140.3076  155.9300 H   0  0  0  0  0  0  0  0  0  0  0  0  # atno 8009 bound_to 7997
  155.3141  140.0437  157.3027 H   0  0  0  0  0  0  0  0  0  0  0  0  # atno 8010 bound_to 7997
  140.7283  143.4180  151.0998 H   0  0  0  0  0  0  0  0  0  0  0  0  # atno 10167 bound_to 10162
  157.6563  131.0904  150.6383 H   0  0  0  0  0  0  0  0  0  0  0  0  # atno 10718 bound_to 10713
  154.7285  135.3041  154.8930 H   0  0  0  0  0  0  0  0  0  0  0  0  # atno 10763 bound_to 10752
  153.9780  135.6734  153.4753 H   0  0  0  0  0  0  0  0  0  0  0  0  # atno 10764 bound_to 10752
  153.0897  135.4966  154.8586 H   0  0  0  0  0  0  0  0  0  0  0  0  # atno 10765 bound_to 10752
  139.9956  134.9498  156.9957 H   0  0  0  0  0  0  0  0  0  0  0  0  # atno 11005 bound_to 11000
  144.9377  140.8044  143.5650 LP  0  0  0  0  0  0  0  0  0  0  0  0  # atno 17320 bound_to 7965
  145.2507  139.2033  143.4944 LP  0  0  0  0  0  0  0  0  0  0  0  0  # atno 17321 bound_to 7965
  139.7821  143.8339  152.3139 LP  0  0  0  0  0  0  0  0  0  0  0  0  # atno 17342 bound_to 10162
  139.8294  144.7260  150.9469 LP  0  0  0  0  0  0  0  0  0  0  0  0  # atno 17343 bound_to 10162
  156.6690  130.4534  149.5663 LP  0  0  0  0  0  0  0  0  0  0  0  0  # atno 17370 bound_to 10713
  156.2012  130.6621  151.1169 LP  0  0  0  0  0  0  0  0  0  0  0  0  # atno 17371 bound_to 10713
  140.4824  134.1275  155.7219 LP  0  0  0  0  0  0  0  0  0  0  0  0  # atno 17394 bound_to 11000
  141.1602  133.8808  157.1870 LP  0  0  0  0  0  0  0  0  0  0  0  0  # atno 17395 bound_to 11000

$$$$
