AV-unprocessed.smi:1464|AV-procd|sdf|5945|dock3
  -GOLD-   22720 6 23D 1   1.00000     0.00000
 Structure written by MMmdl.
 41 42  0  0  0  0  0  0  0  0  1 V2000
  153.0174  142.6118  162.3712 C   0  0  0  0  0  0  0  0  0  0  0  0
  152.9473  143.2005  160.9501 C   0  0  2  0  0  0  0  0  0  0  0  0
  152.1701  144.5317  160.9830 C   0  0  0  0  0  0  0  0  0  0  0  0
  152.0958  145.1833  159.5981 C   0  0  0  0  0  0  0  0  0  0  0  0
  151.4515  144.2294  158.5885 C   0  0  0  0  0  0  0  0  0  0  0  0
  152.2136  142.8920  158.5160 C   0  0  2  0  0  0  0  0  0  0  0  0
  151.5385  142.0023  157.5727 N   0  0  0  0  0  0  0  0  0  0  0  0
  150.2789  141.5552  157.6883 C   0  0  0  0  0  0  0  0  0  0  0  0
  149.5497  141.8287  158.6426 O   0  0  0  0  0  0  0  0  0  0  0  0
  149.7835  140.6424  156.5574 C   0  0  0  0  0  0  0  0  0  0  0  0
  148.6330  141.1956  155.8288 N   0  0  0  0  0  0  0  0  0  0  0  0
  147.5489  141.5095  156.6344 N   0  0  0  0  0  0  0  0  0  0  0  0
  146.4838  142.0175  156.1127 C   0  0  0  0  0  0  0  0  0  0  0  0
  145.4348  142.3167  156.9470 O   0  0  0  0  0  0  0  0  0  0  0  0
  146.3918  142.2658  154.6905 C   0  0  0  0  0  0  0  0  0  0  0  0
  147.4508  141.9507  153.9130 C   0  0  0  0  0  0  0  0  0  0  0  0
  148.6741  141.3723  154.4721 C   0  0  0  0  0  0  0  0  0  0  0  0
  149.6521  141.0724  153.7873 O   0  0  0  0  0  0  0  0  0  0  0  0
  152.3354  142.2188  159.9103 C   0  0  1  0  0  0  0  0  0  0  0  0
  153.1346  140.8998  159.8209 C   0  0  0  0  0  0  0  0  0  0  0  0
  145.0462  141.4853  157.1710 H   0  0  0  0  0  0  0  0  0  0  0  0
  152.0364  142.2807  162.7128 H   0  0  0  0  0  0  0  0  0  0  0  0
  153.3820  143.3529  163.0831 H   0  0  0  0  0  0  0  0  0  0  0  0
  153.6986  141.7636  162.4281 H   0  0  0  0  0  0  0  0  0  0  0  0
  153.9688  143.4255  160.6394 H   0  0  0  0  0  0  0  0  0  0  0  0
  151.1602  144.3612  161.3589 H   0  0  0  0  0  0  0  0  0  0  0  0
  152.6439  145.2240  161.6800 H   0  0  0  0  0  0  0  0  0  0  0  0
  151.5237  146.1099  159.6521 H   0  0  0  0  0  0  0  0  0  0  0  0
  153.0975  145.4550  159.2626 H   0  0  0  0  0  0  0  0  0  0  0  0
  150.4129  144.0500  158.8705 H   0  0  0  0  0  0  0  0  0  0  0  0
  151.4273  144.7038  157.6068 H   0  0  0  0  0  0  0  0  0  0  0  0
  153.2244  143.0914  158.1538 H   0  0  0  0  0  0  0  0  0  0  0  0
  152.0660  141.7207  156.7592 H   0  0  0  0  0  0  0  0  0  0  0  0
  150.6002  140.4419  155.8610 H   0  0  0  0  0  0  0  0  0  0  0  0
  149.5265  139.6754  156.9937 H   0  0  0  0  0  0  0  0  0  0  0  0
  145.4939  142.6923  154.2681 H   0  0  0  0  0  0  0  0  0  0  0  0
  147.3963  142.1301  152.8494 H   0  0  0  0  0  0  0  0  0  0  0  0
  151.3277  141.9676  160.2459 H   0  0  0  0  0  0  0  0  0  0  0  0
  154.1724  141.0854  159.5418 H   0  0  0  0  0  0  0  0  0  0  0  0
  152.7139  140.2162  159.0835 H   0  0  0  0  0  0  0  0  0  0  0  0
  153.1341  140.3602  160.7670 H   0  0  0  0  0  0  0  0  0  0  0  0
  1  2  1  0  0  0  0
  1 22  1  0  0  0  0
  1 23  1  0  0  0  0
  1 24  1  0  0  0  0
  2 19  1  0  0  0  0
  2  3  1  0  0  0  0
  2 25  1  0  0  0  0
  3  4  1  0  0  0  0
  3 26  1  0  0  0  0
  3 27  1  0  0  0  0
  4  5  1  0  0  0  0
  4 28  1  0  0  0  0
  4 29  1  0  0  0  0
  5  6  1  0  0  0  0
  5 30  1  0  0  0  0
  5 31  1  0  0  0  0
  6  7  1  0  0  0  0
  6 19  1  0  0  0  0
  6 32  1  0  0  0  0
  7  8  1  0  0  0  0
  7 33  1  0  0  0  0
  8  9  2  0  0  0  0
  8 10  1  0  0  0  0
 10 34  1  0  0  0  0
 10 35  1  0  0  0  0
 10 11  1  0  0  0  0
 11 12  1  0  0  0  0
 11 17  1  0  0  0  0
 12 13  2  0  0  0  0
 13 14  1  0  0  0  0
 13 15  1  0  0  0  0
 14 21  1  0  0  0  0
 15 36  1  0  0  0  0
 15 16  2  0  0  0  0
 16 37  1  0  0  0  0
 16 17  1  0  0  0  0
 17 18  2  0  0  0  0
 19 20  1  0  0  0  0
 19 38  1  0  0  0  0
 20 39  1  0  0  0  0
 20 40  1  0  0  0  0
 20 41  1  0  0  0  0
M  END
> <s_m_source_file>
AV-unprocessed.smi

> <i_m_source_file_index>
1464

> <i_lp_mmshare_version>
43012

> <i_f3d_flags>
0

> <s_epik_input>
W0NIM11bQ0BASF0xW0NIMl1bQ0gyXVtDSDJdW0NASF0oW0NASF0xW0NIM10pW05IXUMoPU8pW0NIMl1uMltuSF1jKD1PKVtjSF1bY0hdYzI9Tw==

> <s_epik_cmdline>
J2VwaWtfcHl0aG9uJywgJy1waCcsICc3LjAnLCAnLXRuJywgJzgnLCAnLW1hJywgJzIwMCcsICctbWV0YWxfYmluZGluZycsICctaW1hZScsICc8aW5maWxlLm1hZT4nLCAnLW9tYWUnLCAnPG91dGZpbGUubWFlPic=

> <r_lp_tautomer_probability>
0.9996

> <r_epik_Ionization_Penalty>
2.10335

> <r_epik_Ionization_Penalty_Charging>
3.98079e-08

> <r_epik_Ionization_Penalty_Neutral>
2.10335

> <r_epik_State_Penalty>
1.67957

> <r_epik_Charging_Adjusted_Penalty>
1.67957

> <i_epik_Tot_Q>
0

> <i_epik_Tot_abs_Q>
0

> <r_epik_Metal_State_Penalty>
1.67957

> <b_epik_Metal_Only>
0

> <s_lp_Force_Field>
OPLS_2005

> <r_lp_Energy>
21.8095

> <b_lp_Chiralities_Consistent>
1

> <s_lp_Variant>
AV-unprocessed.smi:1464-11

> <Gold.Version>
5.8.1

> <Gold.Id.Protein>
6NUR|6NUR_protein|mol2

> <Gold.PLP.Fitness>
48.1424

> <Gold.PLP.PLP>
-44.3428

> <Gold.PLP.part.hbond>
-2.6789

> <Gold.PLP.part.metal>
0.0000

> <Gold.PLP.part.buried>
-6.8540

> <Gold.PLP.part.nonpolar>
-36.4472

> <Gold.PLP.part.repulsive>
2.3224

> <Gold.PLP.ligand.clash>
0.0000

> <Gold.PLP.ligand.torsion>
0.0251

> <Gold.PLP.Chemscore.Hbond>
1.2800

> <Gold.PLP.Chemscore.CHOScore>
0.0000

> <Gold.PLP.Chemscore.Metal>
0.0000

> <Gold.Chemscore.Hbonds>
donor molecule, donor type, donor heavy atom, donor atom, acceptor molecule, acceptor atom, score
      P1  H  7989  7998       L1    18  0.34
      P1  H  8011  8017       L1    18  0.91

> <Gold.PLP.Chemscore.Internal.Correction>
0.0097

> <Gold.Rescore>
     Score         DG    S(hbond)    S(metal)    S(lipo)     H(rot)  DE(clash)    DE(int)     intcor
     13.09     -15.79       1.04        0.00     107.15       2.22       0.49       2.21       ----

> <Gold.Chemscore.Fitness>
13.0933

> <Gold.Chemscore.DG>
-15.7928

> <Gold.Chemscore.ZeroCoef>
-5.4800

> <Gold.Chemscore.Hbond>
1.0377

> <Gold.Chemscore.Metal>
0.0000

> <Gold.Chemscore.Lipo>
107.1462

> <Gold.Chemscore.Internal_Hbond>
0.0000

> <Gold.Chemscore.DEClash>
0.4937

> <Gold.Chemscore.DEInternal>
2.2058

> <Gold.Chemscore.Rot>
2.2224

> <Gold.Chemscore.Internal.Correction>
   9.000000E+99

> <Gold.Chemscore.Hbonds>
donor molecule, donor type, donor heavy atom, donor atom, acceptor molecule, acceptor atom, score
      P1  H  7989  7998       L1    18  0.33
      P1  H  8011  8017       L1    18  0.57

> <Gold.Chemscore.Hbond.Weighted>
-3.4660

> <Gold.Chemscore.Metal.Weighted>
-0.0000

> <Gold.Chemscore.Lipo.Weighted>
-12.5361

> <Gold.Chemscore.Internal_Hbond.Weighted>
0.0000

> <Gold.Chemscore.DEClash.Weighted>
0.4937

> <Gold.Chemscore.DEInternal.Weighted>
2.2058

> <Gold.Chemscore.Rot.Weighted>
5.6893

> <Gold.Chemscore.Internal.Correction.Weighted>
   9.000000E+99

> <Gold.Protein.RotatedTorsions>
[ 6907 6896 6895 6894 ] final   72.14 input  -60.11 | X-H torsion
[ 7974 7965 7964 7962 ] final  -67.92 input  175.53 | X-H torsion
[ 8008 7997 7996 7995 ] final   -8.03 input   59.86 | X-H torsion
[ 10167 10162 10161 10158 ] final   73.71 input  -65.29 | X-H torsion
[ 10718 10713 10712 10709 ] final  -72.25 input   66.30 | X-H torsion
[ 10763 10752 10751 10750 ] final   20.27 input  -60.55 | X-H torsion
[ 11005 11000 10999 10996 ] final  -15.91 input  -57.11 | X-H torsion

> <Gold.Protein.ActiveResidues>
 VAL166  LYS551  ARG553  GLY616  TRP617  ASP618  TYR619  PRO620  LYS621  CYS622 
 ASP623  PHE694  ASN695  SER759  ASP760  ASP761  ALA762  ILE779  LEU786  VAL792 
 PHE793  MET794  SER795  GLU796  ALA797  LYS798  CYS799  TRP800  GLU811  SER814 

> <Gold.Protein.RotatedAtoms>
  152.4851  134.4616  159.9606 H   0  0  0  0  0  0  0  0  0  0  0  0  # atno 6907 bound_to 6896
  151.4614  133.3586  159.2817 H   0  0  0  0  0  0  0  0  0  0  0  0  # atno 6908 bound_to 6896
  150.8954  134.8387  159.7383 H   0  0  0  0  0  0  0  0  0  0  0  0  # atno 6909 bound_to 6896
  145.7231  140.9030  143.0620 H   0  0  0  0  0  0  0  0  0  0  0  0  # atno 7974 bound_to 7965
  154.5781  140.2392  155.8093 H   0  0  0  0  0  0  0  0  0  0  0  0  # atno 8008 bound_to 7997
  156.2158  140.3012  155.9793 H   0  0  0  0  0  0  0  0  0  0  0  0  # atno 8009 bound_to 7997
  155.2591  140.0413  157.2986 H   0  0  0  0  0  0  0  0  0  0  0  0  # atno 8010 bound_to 7997
  140.0216  144.5536  150.7577 H   0  0  0  0  0  0  0  0  0  0  0  0  # atno 10167 bound_to 10162
  156.0328  130.4368  150.2565 H   0  0  0  0  0  0  0  0  0  0  0  0  # atno 10718 bound_to 10713
  153.1092  135.6692  153.9532 H   0  0  0  0  0  0  0  0  0  0  0  0  # atno 10763 bound_to 10752
  153.9080  135.3028  155.3450 H   0  0  0  0  0  0  0  0  0  0  0  0  # atno 10764 bound_to 10752
  154.7512  135.5034  153.9369 H   0  0  0  0  0  0  0  0  0  0  0  0  # atno 10765 bound_to 10752
  140.8014  133.8211  155.9474 H   0  0  0  0  0  0  0  0  0  0  0  0  # atno 11005 bound_to 11000
  144.6912  139.9229  143.7468 LP  0  0  0  0  0  0  0  0  0  0  0  0  # atno 17320 bound_to 7965
  146.0608  139.3601  143.0583 LP  0  0  0  0  0  0  0  0  0  0  0  0  # atno 17321 bound_to 7965
  140.7340  143.2724  151.3848 LP  0  0  0  0  0  0  0  0  0  0  0  0  # atno 17342 bound_to 10162
  139.6136  144.1048  152.2323 LP  0  0  0  0  0  0  0  0  0  0  0  0  # atno 17343 bound_to 10162
  157.0666  131.0105  151.3204 LP  0  0  0  0  0  0  0  0  0  0  0  0  # atno 17370 bound_to 10713
  157.5030  130.7892  149.7625 LP  0  0  0  0  0  0  0  0  0  0  0  0  # atno 17371 bound_to 10713
  140.9290  134.2045  157.4876 LP  0  0  0  0  0  0  0  0  0  0  0  0  # atno 17394 bound_to 11000
  139.8721  134.9825  156.5159 LP  0  0  0  0  0  0  0  0  0  0  0  0  # atno 17395 bound_to 11000

$$$$
