AV-unprocessed.smi:406|AV-procd|sdf|2500|dock8
  -GOLD-   2262022443D 1   1.00000     0.00000
 Structure written by MMmdl.
 34 35  0  0  0  0  0  0  0  0  2 V2000
  151.7828  144.4360  157.8364 C   0  0  0  0  0  0  0  0  0  0  0  0
  151.6026  142.9339  158.0795 C   0  0  0  0  0  0  0  0  0  0  0  0
  150.7742  142.2567  156.9764 C   0  0  0  0  0  0  0  0  0  0  0  0
  150.7294  140.8104  157.1492 N   0  0  0  0  0  0  0  0  0  0  0  0
  151.0000  139.9029  156.1967 C   0  0  0  0  0  0  0  0  0  0  0  0
  151.2941  140.2034  155.0397 O   0  0  0  0  0  0  0  0  0  0  0  0
  150.9201  138.4295  156.6076 C   0  0  0  0  0  0  0  0  0  0  0  0
  149.6719  138.1776  157.4029 C   0  0  0  0  0  0  0  0  0  0  0  0
  148.3776  138.2461  156.9559 C   0  0  0  0  0  0  0  0  0  0  0  0
  147.2437  137.8126  158.2028 S   0  0  0  0  0  0  0  0  0  0  0  0
  148.5860  137.5349  159.3134 C   0  0  0  0  0  0  0  0  0  0  0  0
  148.4540  137.1117  160.5835 N   0  5  0  0  0  0  0  0  0  0  0  0
  147.2763  136.6748  161.1114 C   0  0  0  0  0  0  0  0  0  0  0  0
  146.2482  137.3443  161.1982 O   0  0  0  0  0  0  0  0  0  0  0  0
  147.2961  135.2736  161.6560 C   0  0  0  0  0  0  0  0  0  0  0  0
  146.0582  134.7635  162.3676 C   0  0  0  0  0  0  0  0  0  0  0  0
  147.2901  135.1049  163.1634 C   0  0  0  0  0  0  0  0  0  0  0  0
  149.7666  137.8123  158.7485 N   0  0  0  0  0  0  0  0  0  0  0  0
  152.3745  144.8902  158.6313 H   0  0  0  0  0  0  0  0  0  0  0  0
  150.8202  144.9470  157.8041 H   0  0  0  0  0  0  0  0  0  0  0  0
  152.2942  144.6231  156.8918 H   0  0  0  0  0  0  0  0  0  0  0  0
  152.5830  142.4603  158.1450 H   0  0  0  0  0  0  0  0  0  0  0  0
  151.1228  142.7851  159.0476 H   0  0  0  0  0  0  0  0  0  0  0  0
  149.7613  142.6624  156.9519 H   0  0  0  0  0  0  0  0  0  0  0  0
  151.2151  142.4633  156.0007 H   0  0  0  0  0  0  0  0  0  0  0  0
  150.5018  140.4684  158.0726 H   0  0  0  0  0  0  0  0  0  0  0  0
  150.9437  137.8091  155.7109 H   0  0  0  0  0  0  0  0  0  0  0  0
  151.8039  138.1655  157.1897 H   0  0  0  0  0  0  0  0  0  0  0  0
  148.0246  138.5079  155.9699 H   0  0  0  0  0  0  0  0  0  0  0  0
  147.9054  134.5578  161.1069 H   0  0  0  0  0  0  0  0  0  0  0  0
  145.2050  135.4337  162.4550 H   0  0  0  0  0  0  0  0  0  0  0  0
  145.8084  133.7145  162.2222 H   0  0  0  0  0  0  0  0  0  0  0  0
  147.8786  134.2854  163.5701 H   0  0  0  0  0  0  0  0  0  0  0  0
  147.2439  135.9938  163.7903 H   0  0  0  0  0  0  0  0  0  0  0  0
  1  2  1  0  0  0  0
  1 19  1  0  0  0  0
  1 20  1  0  0  0  0
  1 21  1  0  0  0  0
  2  3  1  0  0  0  0
  2 22  1  0  0  0  0
  2 23  1  0  0  0  0
  3  4  1  0  0  0  0
  3 24  1  0  0  0  0
  3 25  1  0  0  0  0
  4  5  1  0  0  0  0
  4 26  1  0  0  0  0
  5  6  2  0  0  0  0
  5  7  1  0  0  0  0
  7  8  1  0  0  0  0
  7 27  1  0  0  0  0
  7 28  1  0  0  0  0
  8 18  1  0  0  0  0
  8  9  2  0  0  0  0
  9 10  1  0  0  0  0
  9 29  1  0  0  0  0
 10 11  1  0  0  0  0
 11 12  1  0  0  0  0
 11 18  2  0  0  0  0
 12 13  1  0  0  0  0
 13 14  2  0  0  0  0
 13 15  1  0  0  0  0
 15 17  1  0  0  0  0
 15 16  1  0  0  0  0
 15 30  1  0  0  0  0
 16 17  1  0  0  0  0
 16 31  1  0  0  0  0
 16 32  1  0  0  0  0
 17 33  1  0  0  0  0
 17 34  1  0  0  0  0
M  CHG  1  12  -1
M  END
> <s_m_source_file>
AV-unprocessed.smi

> <i_m_source_file_index>
406

> <i_lp_mmshare_version>
43012

> <i_f3d_flags>
0

> <s_epik_input>
W0NIM11bQ0gyXVtDSDJdW05IXUMoPU8pW0NIMl1jMVtjSF1zYyhuMSlbTkhdQyg9TylbQ0hdMltDSDJdW0NIMl0y

> <s_epik_cmdline>
J2VwaWtfcHl0aG9uJywgJy1waCcsICc3LjAnLCAnLXRuJywgJzgnLCAnLW1hJywgJzIwMCcsICctbWV0YWxfYmluZGluZycsICctaW1hZScsICc8aW5maWxlLm1hZT4nLCAnLW9tYWUnLCAnPG91dGZpbGUubWFlPic=

> <r_lp_tautomer_probability>
1

> <r_epik_Ionization_Penalty>
5.51776

> <r_epik_Ionization_Penalty_Charging>
5.00105

> <r_epik_Ionization_Penalty_Neutral>
0.516708

> <r_epik_State_Penalty>
5.00092

> <r_epik_Charging_Adjusted_Penalty>
10.002

> <i_epik_Tot_Q>
-1

> <i_epik_Tot_abs_Q>
1

> <r_epik_Metal_State_Penalty>
1.12078

> <b_epik_Metal_Only>
1

> <s_lp_Force_Field>
OPLS_2005

> <r_lp_Energy>
6.22345

> <b_lp_Chiralities_Consistent>
1

> <s_lp_Variant>
AV-unprocessed.smi:406-2

> <Gold.Version>
5.8.1

> <Gold.Id.Protein>
6NUR|6NUR_protein|mol2

> <Gold.PLP.Fitness>
39.5950

> <Gold.PLP.PLP>
-30.5826

> <Gold.PLP.part.hbond>
-3.3235

> <Gold.PLP.part.metal>
0.0000

> <Gold.PLP.part.buried>
-5.3078

> <Gold.PLP.part.nonpolar>
-24.1493

> <Gold.PLP.part.repulsive>
0.0917

> <Gold.PLP.ligand.clash>
0.0000

> <Gold.PLP.ligand.torsion>
0.9947

> <Gold.PLP.Chemscore.Hbond>
3.6140

> <Gold.PLP.Chemscore.CHOScore>
0.0000

> <Gold.PLP.Chemscore.Metal>
0.0000

> <Gold.Chemscore.Hbonds>
donor molecule, donor type, donor heavy atom, donor atom, acceptor molecule, acceptor atom, score
      P1  H  6931  6943       L1    12  1.60
      P1  H  6934  6947       L1    14  0.70
      P1  H  7989  7998       L1     6  1.00

> <Gold.PLP.Chemscore.Internal.Correction>
0.1598

> <Gold.Rescore>
     Score         DG    S(hbond)    S(metal)    S(lipo)     H(rot)  DE(clash)    DE(int)     intcor
     13.24     -14.19       1.72        0.00      65.71       1.85       0.01       0.94       ----

> <Gold.Chemscore.Fitness>
13.2425

> <Gold.Chemscore.DG>
-14.1911

> <Gold.Chemscore.ZeroCoef>
-5.4800

> <Gold.Chemscore.Hbond>
1.7227

> <Gold.Chemscore.Metal>
0.0000

> <Gold.Chemscore.Lipo>
65.7075

> <Gold.Chemscore.Internal_Hbond>
0.0000

> <Gold.Chemscore.DEClash>
0.0111

> <Gold.Chemscore.DEInternal>
0.9374

> <Gold.Chemscore.Rot>
1.8478

> <Gold.Chemscore.Internal.Correction>
   9.000000E+99

> <Gold.Chemscore.Hbonds>
donor molecule, donor type, donor heavy atom, donor atom, acceptor molecule, acceptor atom, score
      P1  H  6931  6943       L1    12  0.26
      P1  H  6934  6947       L1    14  0.07
      P1  H  7989  7998       L1     6  0.98

> <Gold.Chemscore.Hbond.Weighted>
-5.7538

> <Gold.Chemscore.Metal.Weighted>
-0.0000

> <Gold.Chemscore.Lipo.Weighted>
-7.6878

> <Gold.Chemscore.Internal_Hbond.Weighted>
0.0000

> <Gold.Chemscore.DEClash.Weighted>
0.0111

> <Gold.Chemscore.DEInternal.Weighted>
0.9374

> <Gold.Chemscore.Rot.Weighted>
4.7305

> <Gold.Chemscore.Internal.Correction.Weighted>
   9.000000E+99

> <Gold.Protein.RotatedTorsions>
[ 6907 6896 6895 6894 ] final -148.10 input  -60.11 | X-H torsion
[ 7974 7965 7964 7962 ] final  146.32 input  175.53 | X-H torsion
[ 8008 7997 7996 7995 ] final  -68.22 input   59.86 | X-H torsion
[ 10167 10162 10161 10158 ] final   92.44 input  -65.29 | X-H torsion
[ 10718 10713 10712 10709 ] final  -82.97 input   66.30 | X-H torsion
[ 10763 10752 10751 10750 ] final  -15.10 input  -60.55 | X-H torsion
[ 11005 11000 10999 10996 ] final  -26.58 input  -57.11 | X-H torsion

> <Gold.Protein.ActiveResidues>
 VAL166  LYS551  ARG553  GLY616  TRP617  ASP618  TYR619  PRO620  LYS621  CYS622 
 ASP623  PHE694  ASN695  SER759  ASP760  ASP761  ALA762  ILE779  LEU786  VAL792 
 PHE793  MET794  SER795  GLU796  ALA797  LYS798  CYS799  TRP800  GLU811  SER814 

> <Gold.Protein.RotatedAtoms>
  151.1650  133.4821  159.2593 H   0  0  0  0  0  0  0  0  0  0  0  0  # atno 6907 bound_to 6896
  151.1415  135.0181  159.8638 H   0  0  0  0  0  0  0  0  0  0  0  0  # atno 6908 bound_to 6896
  152.5462  134.1543  159.8584 H   0  0  0  0  0  0  0  0  0  0  0  0  # atno 6909 bound_to 6896
  144.8680  139.5891  143.5900 H   0  0  0  0  0  0  0  0  0  0  0  0  # atno 7974 bound_to 7965
  154.4853  140.0877  156.7472 H   0  0  0  0  0  0  0  0  0  0  0  0  # atno 8008 bound_to 7997
  155.4366  140.3452  155.4267 H   0  0  0  0  0  0  0  0  0  0  0  0  # atno 8009 bound_to 7997
  156.1252  140.1485  156.9135 H   0  0  0  0  0  0  0  0  0  0  0  0  # atno 8010 bound_to 7997
  139.8277  144.6702  150.9439 H   0  0  0  0  0  0  0  0  0  0  0  0  # atno 10167 bound_to 10162
  156.0025  130.4651  150.4186 H   0  0  0  0  0  0  0  0  0  0  0  0  # atno 10718 bound_to 10713
  153.5383  135.7013  153.5649 H   0  0  0  0  0  0  0  0  0  0  0  0  # atno 10763 bound_to 10752
  153.3626  135.3966  155.1729 H   0  0  0  0  0  0  0  0  0  0  0  0  # atno 10764 bound_to 10752
  154.8676  135.3792  154.4885 H   0  0  0  0  0  0  0  0  0  0  0  0  # atno 10765 bound_to 10752
  140.9042  133.7504  156.0584 H   0  0  0  0  0  0  0  0  0  0  0  0  # atno 11005 bound_to 11000
  146.2910  139.7139  142.9161 LP  0  0  0  0  0  0  0  0  0  0  0  0  # atno 17320 bound_to 7965
  145.4184  141.0404  143.2978 LP  0  0  0  0  0  0  0  0  0  0  0  0  # atno 17321 bound_to 7965
  140.7809  143.4031  151.1116 LP  0  0  0  0  0  0  0  0  0  0  0  0  # atno 17342 bound_to 10162
  139.7687  143.8527  152.3116 LP  0  0  0  0  0  0  0  0  0  0  0  0  # atno 17343 bound_to 10162
  157.2243  131.0489  151.2528 LP  0  0  0  0  0  0  0  0  0  0  0  0  # atno 17370 bound_to 10713
  157.3771  130.7211  149.6604 LP  0  0  0  0  0  0  0  0  0  0  0  0  # atno 17371 bound_to 10713
  140.8192  134.3309  157.5387 LP  0  0  0  0  0  0  0  0  0  0  0  0  # atno 17394 bound_to 11000
  139.8747  134.9299  156.3489 LP  0  0  0  0  0  0  0  0  0  0  0  0  # atno 17395 bound_to 11000

$$$$
