AV-unprocessed.smi:249|AV-procd|sdf|1904|dock8
  -GOLD-   2262020583D 1   1.00000     0.00000
 Structure written by MMmdl.
 64 67  0  0  0  0  0  0  0  0  2 V2000
  144.4515  135.1190  151.2184 C   0  0  0  0  0  0  0  0  0  0  0  0
  143.6490  134.1741  152.1280 C   0  0  0  0  0  0  0  0  0  0  0  0
  144.2593  133.9801  153.4755 N   0  3  2  0  0  0  0  0  0  0  0  0
  144.2372  135.2362  154.2794 C   0  0  0  0  0  0  0  0  0  0  0  0
  144.7919  135.0302  155.6980 C   0  0  0  0  0  0  0  0  0  0  0  0
  146.2349  134.4868  155.6683 C   0  0  2  0  0  0  0  0  0  0  0  0
  147.2164  135.4421  155.1280 N   0  0  0  0  0  0  0  0  0  0  0  0
  148.4730  134.8991  154.6217 C   0  0  0  0  0  0  0  0  0  0  0  0
  147.4504  136.5330  155.8913 C   0  0  0  0  0  0  0  0  0  0  0  0
  147.0174  136.4964  157.1754 N   0  0  0  0  0  0  0  0  0  0  0  0
  147.2302  137.5424  157.9802 C   0  0  0  0  0  0  0  0  0  0  0  0
  147.8420  138.6969  157.7056 N   0  0  0  0  0  0  0  0  0  0  0  0
  148.2701  138.7362  156.4111 C   0  0  0  0  0  0  0  0  0  0  0  0
  148.1149  137.7079  155.4406 C   0  0  0  0  0  0  0  0  0  0  0  0
  148.6730  138.1058  154.2319 N   0  0  0  0  0  0  0  0  0  0  0  0
  149.1368  139.3017  154.4751 C   0  0  0  0  0  0  0  0  0  0  0  0
  148.9441  139.7539  155.7610 N   0  0  0  0  0  0  0  0  0  0  0  0
  149.3600  141.0334  156.3064 C   0  0  0  0  0  0  0  0  0  0  0  0
  150.6685  140.9486  157.1308 C   0  0  1  0  0  0  0  0  0  0  0  0
  151.8727  140.4526  156.2937 C   0  0  0  0  0  0  0  0  0  0  0  0
  152.8564  139.8491  157.1091 O   0  0  0  0  0  0  0  0  0  0  0  0
  150.9649  142.2817  157.8629 C   0  0  2  0  0  0  0  0  0  0  0  0
  151.3531  143.4372  156.9572 C   0  0  0  0  0  0  0  0  0  0  0  0
  152.0201  144.3998  157.9332 C   0  0  0  0  0  0  0  0  0  0  0  0
  152.6516  143.5785  158.9082 O   0  0  0  0  0  0  0  0  0  0  0  0
  152.1809  142.2390  158.7956 C   0  0  0  0  0  0  0  0  0  0  0  0
  146.1888  133.1753  154.8630 C   0  0  0  0  0  0  0  0  0  0  0  0
  145.6284  133.3683  153.4346 C   0  0  1  0  0  0  0  0  0  0  0  0
  145.6622  132.0083  152.7065 C   0  0  0  0  0  0  0  0  0  0  0  0
  143.8803  135.3564  150.3205 H   0  0  0  0  0  0  0  0  0  0  0  0
  145.3895  134.6765  150.8847 H   0  0  0  0  0  0  0  0  0  0  0  0
  144.6760  136.0593  151.7226 H   0  0  0  0  0  0  0  0  0  0  0  0
  142.6624  134.6217  152.2219 H   0  0  0  0  0  0  0  0  0  0  0  0
  143.5078  133.2081  151.6413 H   0  0  0  0  0  0  0  0  0  0  0  0
  144.8021  136.0111  153.7594 H   0  0  0  0  0  0  0  0  0  0  0  0
  143.2186  135.6068  154.3796 H   0  0  0  0  0  0  0  0  0  0  0  0
  144.7237  135.9581  156.2660 H   0  0  0  0  0  0  0  0  0  0  0  0
  144.1537  134.3224  156.2288 H   0  0  0  0  0  0  0  0  0  0  0  0
  146.5363  134.2450  156.6878 H   0  0  0  0  0  0  0  0  0  0  0  0
  149.2363  135.6705  154.5045 H   0  0  0  0  0  0  0  0  0  0  0  0
  148.3195  134.4454  153.6426 H   0  0  0  0  0  0  0  0  0  0  0  0
  148.8637  134.1360  155.2961 H   0  0  0  0  0  0  0  0  0  0  0  0
  146.8585  137.4397  158.9891 H   0  0  0  0  0  0  0  0  0  0  0  0
  149.6430  139.8875  153.7212 H   0  0  0  0  0  0  0  0  0  0  0  0
  149.4777  141.7383  155.4825 H   0  0  0  0  0  0  0  0  0  0  0  0
  148.5417  141.4110  156.9201 H   0  0  0  0  0  0  0  0  0  0  0  0
  150.5057  140.1937  157.9014 H   0  0  0  0  0  0  0  0  0  0  0  0
  151.5526  139.7330  155.5407 H   0  0  0  0  0  0  0  0  0  0  0  0
  152.3310  141.2739  155.7425 H   0  0  0  0  0  0  0  0  0  0  0  0
  152.4233  139.3107  157.7539 H   0  0  0  0  0  0  0  0  0  0  0  0
  150.0931  142.5801  158.4478 H   0  0  0  0  0  0  0  0  0  0  0  0
  152.0722  143.1093  156.2048 H   0  0  0  0  0  0  0  0  0  0  0  0
  150.5032  143.8889  156.4449 H   0  0  0  0  0  0  0  0  0  0  0  0
  152.7347  145.0623  157.4448 H   0  0  0  0  0  0  0  0  0  0  0  0
  151.2708  145.0160  158.4314 H   0  0  0  0  0  0  0  0  0  0  0  0
  151.9390  141.8272  159.7757 H   0  0  0  0  0  0  0  0  0  0  0  0
  152.9792  141.6338  158.3643 H   0  0  0  0  0  0  0  0  0  0  0  0
  147.1772  132.7172  154.8263 H   0  0  0  0  0  0  0  0  0  0  0  0
  145.5626  132.4578  155.3958 H   0  0  0  0  0  0  0  0  0  0  0  0
  146.2860  134.0522  152.8955 H   0  0  0  0  0  0  0  0  0  0  0  0
  146.6300  131.5224  152.8350 H   0  0  0  0  0  0  0  0  0  0  0  0
  145.5189  132.1076  151.6314 H   0  0  0  0  0  0  0  0  0  0  0  0
  144.9016  131.3294  153.0937 H   0  0  0  0  0  0  0  0  0  0  0  0
  143.6721  133.3176  153.9616 H   0  0  0  0  0  0  0  0  0  0  0  0
  1  2  1  0  0  0  0
  1 30  1  0  0  0  0
  1 31  1  0  0  0  0
  1 32  1  0  0  0  0
  2  3  1  0  0  0  0
  2 33  1  0  0  0  0
  2 34  1  0  0  0  0
  3 28  1  0  0  0  0
  3  4  1  0  0  0  0
  3 64  1  0  0  0  0
  4  5  1  0  0  0  0
  4 35  1  0  0  0  0
  4 36  1  0  0  0  0
  5  6  1  0  0  0  0
  5 37  1  0  0  0  0
  5 38  1  0  0  0  0
  6  7  1  0  0  0  0
  6 27  1  0  0  0  0
  6 39  1  0  0  0  0
  7  8  1  0  0  0  0
  7  9  1  0  0  0  0
  8 40  1  0  0  0  0
  8 41  1  0  0  0  0
  8 42  1  0  0  0  0
  9 14  1  0  0  0  0
  9 10  2  0  0  0  0
 10 11  1  0  0  0  0
 11 12  2  0  0  0  0
 11 43  1  0  0  0  0
 12 13  1  0  0  0  0
 13 17  1  0  0  0  0
 13 14  2  0  0  0  0
 14 15  1  0  0  0  0
 15 16  2  0  0  0  0
 16 17  1  0  0  0  0
 16 44  1  0  0  0  0
 17 18  1  0  0  0  0
 18 19  1  0  0  0  0
 18 45  1  0  0  0  0
 18 46  1  0  0  0  0
 19 20  1  0  0  0  0
 19 22  1  0  0  0  0
 19 47  1  0  0  0  0
 20 21  1  0  0  0  0
 20 48  1  0  0  0  0
 20 49  1  0  0  0  0
 21 50  1  0  0  0  0
 22 26  1  0  0  0  0
 22 23  1  0  0  0  0
 22 51  1  0  0  0  0
 23 24  1  0  0  0  0
 23 52  1  0  0  0  0
 23 53  1  0  0  0  0
 24 25  1  0  0  0  0
 24 54  1  0  0  0  0
 24 55  1  0  0  0  0
 25 26  1  0  0  0  0
 26 56  1  0  0  0  0
 26 57  1  0  0  0  0
 27 28  1  0  0  0  0
 27 58  1  0  0  0  0
 27 59  1  0  0  0  0
 28 29  1  0  0  0  0
 28 60  1  0  0  0  0
 29 61  1  0  0  0  0
 29 62  1  0  0  0  0
 29 63  1  0  0  0  0
M  CHG  1   3   1
M  END
> <s_m_source_file>
AV-unprocessed.smi

> <i_m_source_file_index>
249

> <i_lp_mmshare_version>
43012

> <i_f3d_flags>
0

> <s_epik_input>
W0NIM11bQ0gyXU4xW0NIMl1bQ0gyXVtDQEhdKFtDSDJdW0NASF0xW0NIM10pTihbQ0gzXSljKG5bY0hdbjIpYyhjMjMpbltjSF1uM1tDSDJdW0NASF0oW0NIMl1bT0hdKVtDQEBIXTRbQ0gyXVtDSDJdT1tDSDJdNA==

> <s_epik_cmdline>
J2VwaWtfcHl0aG9uJywgJy1waCcsICc3LjAnLCAnLXRuJywgJzgnLCAnLW1hJywgJzIwMCcsICctbWV0YWxfYmluZGluZycsICctaW1hZScsICc8aW5maWxlLm1hZT4nLCAnLW9tYWUnLCAnPG91dGZpbGUubWFlPic=

> <r_lp_tautomer_probability>
1

> <r_epik_Ionization_Penalty>
0.00294688

> <r_epik_Ionization_Penalty_Charging>
0.00169971

> <r_epik_Ionization_Penalty_Neutral>
0.00124717

> <r_epik_State_Penalty>
-0

> <r_epik_Charging_Adjusted_Penalty>
0.00169971

> <i_epik_Tot_Q>
1

> <i_epik_Tot_abs_Q>
1

> <r_epik_Metal_State_Penalty>
-0

> <b_epik_Metal_Only>
0

> <s_lp_Force_Field>
OPLS_2005

> <r_lp_Energy>
56.7452

> <b_lp_Chiralities_Consistent>
1

> <s_lp_Variant>
AV-unprocessed.smi:249-7

> <Gold.Version>
5.8.1

> <Gold.Id.Protein>
6NUR|6NUR_protein|mol2

> <Gold.PLP.Fitness>
40.8270

> <Gold.PLP.PLP>
-30.8191

> <Gold.PLP.part.hbond>
-1.9987

> <Gold.PLP.part.metal>
0.0000

> <Gold.PLP.part.buried>
-4.4111

> <Gold.PLP.part.nonpolar>
-24.4590

> <Gold.PLP.part.repulsive>
0.8868

> <Gold.PLP.ligand.clash>
0.0000

> <Gold.PLP.ligand.torsion>
1.0030

> <Gold.PLP.Chemscore.Hbond>
3.0000

> <Gold.PLP.Chemscore.CHOScore>
0.7463

> <Gold.PLP.Chemscore.Metal>
0.0000

> <Gold.Chemscore.Hbonds>
donor molecule, donor type, donor heavy atom, donor atom, acceptor molecule, acceptor atom, score
      L1  H     3    64       P1 10957  2.00
      P1  H  7997  8009       L1    21  1.00
      L1  C    16    44       P1  7957  0.92

> <Gold.PLP.Chemscore.Internal.Correction>
0.7750

> <Gold.Rescore>
     Score         DG    S(hbond)    S(metal)    S(lipo)     H(rot)  DE(clash)    DE(int)     intcor
     11.67     -14.41       1.95        0.00      84.11       2.90       0.21       2.53       ----

> <Gold.Chemscore.Fitness>
11.6650

> <Gold.Chemscore.DG>
-14.4099

> <Gold.Chemscore.ZeroCoef>
-5.4800

> <Gold.Chemscore.Hbond>
1.9504

> <Gold.Chemscore.Metal>
0.0000

> <Gold.Chemscore.Lipo>
84.1136

> <Gold.Chemscore.Internal_Hbond>
0.0000

> <Gold.Chemscore.DEClash>
0.2140

> <Gold.Chemscore.DEInternal>
2.5309

> <Gold.Chemscore.Rot>
2.9006

> <Gold.Chemscore.Internal.Correction>
   9.000000E+99

> <Gold.Chemscore.Hbonds>
donor molecule, donor type, donor heavy atom, donor atom, acceptor molecule, acceptor atom, score
      L1  H     3    64       P1 10957  0.93
      P1  H  7997  8009       L1    21  0.77

> <Gold.Chemscore.Hbond.Weighted>
-6.5143

> <Gold.Chemscore.Metal.Weighted>
-0.0000

> <Gold.Chemscore.Lipo.Weighted>
-9.8413

> <Gold.Chemscore.Internal_Hbond.Weighted>
0.0000

> <Gold.Chemscore.DEClash.Weighted>
0.2140

> <Gold.Chemscore.DEInternal.Weighted>
2.5309

> <Gold.Chemscore.Rot.Weighted>
7.4256

> <Gold.Chemscore.Internal.Correction.Weighted>
   9.000000E+99

> <Gold.Protein.RotatedTorsions>
[ 6907 6896 6895 6894 ] final   91.92 input  -60.11 | X-H torsion
[ 7974 7965 7964 7962 ] final -121.57 input  175.53 | X-H torsion
[ 8008 7997 7996 7995 ] final -171.15 input   59.86 | X-H torsion
[ 10167 10162 10161 10158 ] final  -26.85 input  -65.29 | X-H torsion
[ 10718 10713 10712 10709 ] final   24.87 input   66.30 | X-H torsion
[ 10763 10752 10751 10750 ] final  -36.70 input  -60.55 | X-H torsion
[ 11005 11000 10999 10996 ] final   87.37 input  -57.11 | X-H torsion

> <Gold.Protein.ActiveResidues>
 VAL166  LYS551  ARG553  GLY616  TRP617  ASP618  TYR619  PRO620  LYS621  CYS622 
 ASP623  PHE694  ASN695  SER759  ASP760  ASP761  ALA762  ILE779  LEU786  VAL792 
 PHE793  MET794  SER795  GLU796  ALA797  LYS798  CYS799  TRP800  GLU811  SER814 

> <Gold.Protein.RotatedAtoms>
  152.5451  134.1582  159.8546 H   0  0  0  0  0  0  0  0  0  0  0  0  # atno 6907 bound_to 6896
  151.1603  133.4842  159.2602 H   0  0  0  0  0  0  0  0  0  0  0  0  # atno 6908 bound_to 6896
  151.1380  135.0175  159.8667 H   0  0  0  0  0  0  0  0  0  0  0  0  # atno 6909 bound_to 6896
  145.0389  140.8128  143.4278 H   0  0  0  0  0  0  0  0  0  0  0  0  # atno 7974 bound_to 7965
  155.9278  140.1085  157.1156 H   0  0  0  0  0  0  0  0  0  0  0  0  # atno 8008 bound_to 7997
  154.4065  140.1243  156.4828 H   0  0  0  0  0  0  0  0  0  0  0  0  # atno 8009 bound_to 7997
  155.7118  140.3471  155.4979 H   0  0  0  0  0  0  0  0  0  0  0  0  # atno 8010 bound_to 7997
  140.7281  143.4143  151.1054 H   0  0  0  0  0  0  0  0  0  0  0  0  # atno 10167 bound_to 10162
  157.1856  130.6823  149.6130 H   0  0  0  0  0  0  0  0  0  0  0  0  # atno 10718 bound_to 10713
  153.8841  135.6818  153.4765 H   0  0  0  0  0  0  0  0  0  0  0  0  # atno 10763 bound_to 10752
  153.1217  135.4737  154.9204 H   0  0  0  0  0  0  0  0  0  0  0  0  # atno 10764 bound_to 10752
  154.7654  135.3223  154.8248 H   0  0  0  0  0  0  0  0  0  0  0  0  # atno 10765 bound_to 10752
  139.8921  134.8417  156.2850 H   0  0  0  0  0  0  0  0  0  0  0  0  # atno 11005 bound_to 11000
  145.1674  139.2424  143.5360 LP  0  0  0  0  0  0  0  0  0  0  0  0  # atno 17320 bound_to 7965
  146.3507  140.1416  142.8594 LP  0  0  0  0  0  0  0  0  0  0  0  0  # atno 17321 bound_to 7965
  139.7781  143.8396  152.3133 LP  0  0  0  0  0  0  0  0  0  0  0  0  # atno 17342 bound_to 10162
  139.8337  144.7242  150.9418 LP  0  0  0  0  0  0  0  0  0  0  0  0  # atno 17343 bound_to 10162
  155.9718  130.4632  150.6172 LP  0  0  0  0  0  0  0  0  0  0  0  0  # atno 17370 bound_to 10713
  157.3910  131.0795  151.1394 LP  0  0  0  0  0  0  0  0  0  0  0  0  # atno 17371 bound_to 10713
  141.0014  133.7149  156.0966 LP  0  0  0  0  0  0  0  0  0  0  0  0  # atno 17394 bound_to 11000
  140.7493  134.4063  157.5544 LP  0  0  0  0  0  0  0  0  0  0  0  0  # atno 17395 bound_to 11000

$$$$
