AV-unprocessed.smi:1199|AV-procd|sdf|5016|dock9
  -GOLD-   22720 4 33D 1   1.00000     0.00000
 Structure written by MMmdl.
 41 42  0  0  0  0  0  0  0  0  3 V2000
  146.7243  133.1657  154.7904 C   0  0  0  0  0  0  0  0  0  0  0  0
  148.0674  133.4652  154.1115 C   0  0  2  0  0  0  0  0  0  0  0  0
  148.5372  132.2891  153.2238 C   0  0  0  0  0  0  0  0  0  0  0  0
  147.5560  131.9136  152.1718 N   0  3  0  0  0  0  0  0  0  0  0  0
  146.5035  130.9952  152.6658 C   0  0  0  0  0  0  0  0  0  0  0  0
  145.5729  130.5811  151.5132 C   0  0  0  0  0  0  0  0  0  0  0  0
  145.0180  131.7383  150.8987 O   0  0  0  0  0  0  0  0  0  0  0  0
  146.0217  132.5861  150.3534 C   0  0  0  0  0  0  0  0  0  0  0  0
  146.9432  133.0743  151.4828 C   0  0  0  0  0  0  0  0  0  0  0  0
  149.0748  133.7697  155.1265 N   0  0  0  0  0  0  0  0  0  0  0  0
  149.5226  134.9950  155.4422 C   0  0  0  0  0  0  0  0  0  0  0  0
  149.0296  136.0338  155.0014 O   0  0  0  0  0  0  0  0  0  0  0  0
  150.7286  135.0485  156.3854 C   0  0  0  0  0  0  0  0  0  0  0  0
  151.2118  136.4252  156.5529 N   0  0  0  0  0  0  0  0  0  0  0  0
  151.6874  137.0312  155.3100 N   0  5  0  0  0  0  0  0  0  0  0  0
  152.1658  138.3037  155.3366 C   0  0  0  0  0  0  0  0  0  0  0  0
  152.6010  138.8717  154.3380 O   0  0  0  0  0  0  0  0  0  0  0  0
  152.1486  139.0161  156.6029 C   0  0  0  0  0  0  0  0  0  0  0  0
  151.6812  138.4400  157.7278 C   0  0  0  0  0  0  0  0  0  0  0  0
  151.1712  137.0749  157.7512 C   0  0  0  0  0  0  0  0  0  0  0  0
  150.7356  136.5476  158.7743 O   0  0  0  0  0  0  0  0  0  0  0  0
  145.9521  132.9517  154.0509 H   0  0  0  0  0  0  0  0  0  0  0  0
  146.3854  134.0165  155.3823 H   0  0  0  0  0  0  0  0  0  0  0  0
  146.7963  132.3043  155.4555 H   0  0  0  0  0  0  0  0  0  0  0  0
  147.9100  134.3358  153.4734 H   0  0  0  0  0  0  0  0  0  0  0  0
  149.4650  132.5882  152.7336 H   0  0  0  0  0  0  0  0  0  0  0  0
  148.7817  131.4180  153.8335 H   0  0  0  0  0  0  0  0  0  0  0  0
  146.9602  130.1058  153.1015 H   0  0  0  0  0  0  0  0  0  0  0  0
  145.9308  131.4843  153.4554 H   0  0  0  0  0  0  0  0  0  0  0  0
  146.1138  129.9878  150.7769 H   0  0  0  0  0  0  0  0  0  0  0  0
  144.7620  129.9571  151.8888 H   0  0  0  0  0  0  0  0  0  0  0  0
  146.5901  132.0583  149.5857 H   0  0  0  0  0  0  0  0  0  0  0  0
  145.5414  133.4350  149.8671 H   0  0  0  0  0  0  0  0  0  0  0  0
  146.3759  133.6707  152.1988 H   0  0  0  0  0  0  0  0  0  0  0  0
  147.7113  133.7245  151.0671 H   0  0  0  0  0  0  0  0  0  0  0  0
  149.5336  132.9816  155.5609 H   0  0  0  0  0  0  0  0  0  0  0  0
  150.4464  134.6040  157.3410 H   0  0  0  0  0  0  0  0  0  0  0  0
  151.5357  134.4220  156.0006 H   0  0  0  0  0  0  0  0  0  0  0  0
  152.5172  140.0307  156.6430 H   0  0  0  0  0  0  0  0  0  0  0  0
  151.6867  139.0078  158.6463 H   0  0  0  0  0  0  0  0  0  0  0  0
  148.0717  131.3981  151.4711 H   0  0  0  0  0  0  0  0  0  0  0  0
  1  2  1  0  0  0  0
  1 22  1  0  0  0  0
  1 23  1  0  0  0  0
  1 24  1  0  0  0  0
  2  3  1  0  0  0  0
  2 10  1  0  0  0  0
  2 25  1  0  0  0  0
  3  4  1  0  0  0  0
  3 26  1  0  0  0  0
  3 27  1  0  0  0  0
  4  9  1  0  0  0  0
  4  5  1  0  0  0  0
  4 41  1  0  0  0  0
  5  6  1  0  0  0  0
  5 28  1  0  0  0  0
  5 29  1  0  0  0  0
  6  7  1  0  0  0  0
  6 30  1  0  0  0  0
  6 31  1  0  0  0  0
  7  8  1  0  0  0  0
  8  9  1  0  0  0  0
  8 32  1  0  0  0  0
  8 33  1  0  0  0  0
  9 34  1  0  0  0  0
  9 35  1  0  0  0  0
 10 11  1  0  0  0  0
 10 36  1  0  0  0  0
 11 12  2  0  0  0  0
 11 13  1  0  0  0  0
 13 37  1  0  0  0  0
 13 38  1  0  0  0  0
 13 14  1  0  0  0  0
 14 15  1  0  0  0  0
 14 20  1  0  0  0  0
 15 16  1  0  0  0  0
 16 17  2  0  0  0  0
 16 18  1  0  0  0  0
 18 39  1  0  0  0  0
 18 19  2  0  0  0  0
 19 40  1  0  0  0  0
 19 20  1  0  0  0  0
 20 21  2  0  0  0  0
M  CHG  1   4   1
M  CHG  1  15  -1
M  END
> <s_m_source_file>
AV-unprocessed.smi

> <i_m_source_file_index>
1199

> <i_lp_mmshare_version>
43012

> <i_f3d_flags>
0

> <s_epik_input>
W0NIMl0xW0NIMl1PW0NIMl1bQ0gyXU4xW0NIMl1bQ0BASF0oW0NIM10pW05IXUMoPU8pW0NIMl1uMltuSF1jKD1PKVtjSF1bY0hdYzI9Tw==

> <s_epik_cmdline>
J2VwaWtfcHl0aG9uJywgJy1waCcsICc3LjAnLCAnLXRuJywgJzgnLCAnLW1hJywgJzIwMCcsICctbWV0YWxfYmluZGluZycsICctaW1hZScsICc8aW5maWxlLm1hZT4nLCAnLW9tYWUnLCAnPG91dGZpbGUubWFlPic=

> <r_lp_tautomer_probability>
1

> <r_epik_Ionization_Penalty>
0.741876

> <r_epik_Ionization_Penalty_Charging>
0.741876

> <r_epik_Ionization_Penalty_Neutral>
9.12373e-08

> <r_epik_State_Penalty>
0.692284

> <r_epik_Charging_Adjusted_Penalty>
1.43416

> <i_epik_Tot_Q>
0

> <i_epik_Tot_abs_Q>
2

> <r_epik_Metal_State_Penalty>
0.692284

> <b_epik_Metal_Only>
0

> <s_lp_Force_Field>
OPLS_2005

> <r_lp_Energy>
28.0654

> <b_lp_Chiralities_Consistent>
1

> <s_lp_Variant>
AV-unprocessed.smi:1199-3

> <Gold.Version>
5.8.1

> <Gold.Id.Protein>
6NUR|6NUR_protein|mol2

> <Gold.PLP.Fitness>
40.4620

> <Gold.PLP.PLP>
-28.9096

> <Gold.PLP.part.hbond>
-4.0000

> <Gold.PLP.part.metal>
0.0000

> <Gold.PLP.part.buried>
-4.3571

> <Gold.PLP.part.nonpolar>
-21.3274

> <Gold.PLP.part.repulsive>
0.4052

> <Gold.PLP.ligand.clash>
0.0000

> <Gold.PLP.ligand.torsion>
0.4358

> <Gold.PLP.Chemscore.Hbond>
4.1225

> <Gold.PLP.Chemscore.CHOScore>
0.0000

> <Gold.PLP.Chemscore.Metal>
0.0000

> <Gold.Chemscore.Hbonds>
donor molecule, donor type, donor heavy atom, donor atom, acceptor molecule, acceptor atom, score
      L1  H     4    41       P1 10747  1.00
      P1  H  6896  6908       L1    21  0.98
      P1  H  7989  7998       L1    17  0.13
      P1  H 10752 10765       L1    15  1.98

> <Gold.PLP.Chemscore.Internal.Correction>
0.0566

> <Gold.Rescore>
     Score         DG    S(hbond)    S(metal)    S(lipo)     H(rot)  DE(clash)    DE(int)     intcor
     13.85     -15.94       2.93        0.00      57.60       2.37       0.02       2.07       ----

> <Gold.Chemscore.Fitness>
13.8497

> <Gold.Chemscore.DG>
-15.9358

> <Gold.Chemscore.ZeroCoef>
-5.4800

> <Gold.Chemscore.Hbond>
2.9328

> <Gold.Chemscore.Metal>
0.0000

> <Gold.Chemscore.Lipo>
57.6004

> <Gold.Chemscore.Internal_Hbond>
0.0000

> <Gold.Chemscore.DEClash>
0.0166

> <Gold.Chemscore.DEInternal>
2.0695

> <Gold.Chemscore.Rot>
2.3747

> <Gold.Chemscore.Internal.Correction>
   9.000000E+99

> <Gold.Chemscore.Hbonds>
donor molecule, donor type, donor heavy atom, donor atom, acceptor molecule, acceptor atom, score
      L1  H     4    41       P1 10747  0.98
      P1  H  6896  6908       L1    21  0.93
      P1  H  7989  7998       L1    17  0.13
      P1  H 10752 10765       L1    15  0.37

> <Gold.Chemscore.Hbond.Weighted>
-9.7957

> <Gold.Chemscore.Metal.Weighted>
-0.0000

> <Gold.Chemscore.Lipo.Weighted>
-6.7392

> <Gold.Chemscore.Internal_Hbond.Weighted>
0.0000

> <Gold.Chemscore.DEClash.Weighted>
0.0166

> <Gold.Chemscore.DEInternal.Weighted>
2.0695

> <Gold.Chemscore.Rot.Weighted>
6.0791

> <Gold.Chemscore.Internal.Correction.Weighted>
   9.000000E+99

> <Gold.Protein.RotatedTorsions>
[ 6907 6896 6895 6894 ] final -144.15 input  -60.11 | X-H torsion
[ 7974 7965 7964 7962 ] final  153.28 input  175.53 | X-H torsion
[ 8008 7997 7996 7995 ] final   -8.91 input   59.86 | X-H torsion
[ 10167 10162 10161 10158 ] final -119.02 input  -65.29 | X-H torsion
[ 10718 10713 10712 10709 ] final -140.79 input   66.30 | X-H torsion
[ 10763 10752 10751 10750 ] final  176.00 input  -60.55 | X-H torsion
[ 11005 11000 10999 10996 ] final   23.60 input  -57.11 | X-H torsion

> <Gold.Protein.ActiveResidues>
 VAL166  LYS551  ARG553  GLY616  TRP617  ASP618  TYR619  PRO620  LYS621  CYS622 
 ASP623  PHE694  ASN695  SER759  ASP760  ASP761  ALA762  ILE779  LEU786  VAL792 
 PHE793  MET794  SER795  GLU796  ALA797  LYS798  CYS799  TRP800  GLU811  SER814 

> <Gold.Protein.RotatedAtoms>
  151.1101  133.5179  159.2605 H   0  0  0  0  0  0  0  0  0  0  0  0  # atno 6907 bound_to 6896
  151.1977  135.0429  159.8869 H   0  0  0  0  0  0  0  0  0  0  0  0  # atno 6908 bound_to 6896
  152.5449  134.0933  159.8340 H   0  0  0  0  0  0  0  0  0  0  0  0  # atno 6909 bound_to 6896
  144.8165  139.6779  143.6119 H   0  0  0  0  0  0  0  0  0  0  0  0  # atno 7974 bound_to 7965
  154.5697  140.2369  155.8211 H   0  0  0  0  0  0  0  0  0  0  0  0  # atno 8008 bound_to 7997
  156.2096  140.3030  155.9662 H   0  0  0  0  0  0  0  0  0  0  0  0  # atno 8009 bound_to 7997
  155.2736  140.0419  157.3000 H   0  0  0  0  0  0  0  0  0  0  0  0  # atno 8010 bound_to 7997
  140.0512  143.5058  152.2081 H   0  0  0  0  0  0  0  0  0  0  0  0  # atno 10167 bound_to 10162
  156.3264  130.7562  151.1671 H   0  0  0  0  0  0  0  0  0  0  0  0  # atno 10718 bound_to 10713
  154.4753  135.2772  155.1612 H   0  0  0  0  0  0  0  0  0  0  0  0  # atno 10763 bound_to 10752
  154.3344  135.6183  153.5570 H   0  0  0  0  0  0  0  0  0  0  0  0  # atno 10764 bound_to 10752
  152.9869  135.5773  154.5142 H   0  0  0  0  0  0  0  0  0  0  0  0  # atno 10765 bound_to 10752
  140.3679  134.2055  155.7668 H   0  0  0  0  0  0  0  0  0  0  0  0  # atno 11005 bound_to 11000
  146.2469  139.6116  142.9454 LP  0  0  0  0  0  0  0  0  0  0  0  0  # atno 17320 bound_to 7965
  145.5202  141.0432  143.2440 LP  0  0  0  0  0  0  0  0  0  0  0  0  # atno 17321 bound_to 7965
  139.5952  144.7564  151.3304 LP  0  0  0  0  0  0  0  0  0  0  0  0  # atno 17342 bound_to 10162
  140.7216  143.7121  150.7761 LP  0  0  0  0  0  0  0  0  0  0  0  0  # atno 17343 bound_to 10162
  157.7422  131.0493  150.5041 LP  0  0  0  0  0  0  0  0  0  0  0  0  # atno 17370 bound_to 10713
  156.5201  130.4160  149.6255 LP  0  0  0  0  0  0  0  0  0  0  0  0  # atno 17371 bound_to 10713
  141.1964  133.8083  157.0674 LP  0  0  0  0  0  0  0  0  0  0  0  0  # atno 17394 bound_to 11000
  140.0575  134.9772  157.1246 LP  0  0  0  0  0  0  0  0  0  0  0  0  # atno 17395 bound_to 11000

$$$$
