AV-unprocessed.smi:1672|AV-procd|sdf|6701|dock2
  -GOLD-   22720 7433D 1   1.00000     0.00000
 Structure written by MMmdl.
 48 50  0  0  0  0  0  0  0  0  2 V2000
  143.9307  144.9649  155.5560 C   0  0  0  0  0  0  0  0  0  0  0  0
  145.0576  143.9654  155.2601 C   0  0  2  0  0  0  0  0  0  0  0  0
  145.4180  143.9410  153.7654 C   0  0  0  0  0  0  0  0  0  0  0  0
  146.5279  142.9174  153.4768 C   0  0  0  0  0  0  0  0  0  0  0  0
  146.1357  141.5575  153.9338 N   0  3  1  0  0  0  0  0  0  0  0  0
  147.1209  140.5112  153.5596 C   0  0  0  0  0  0  0  0  0  0  0  0
  148.5018  140.7531  154.2088 C   0  0  2  0  0  0  0  0  0  0  0  0
  149.4305  141.0777  153.1945 O   0  0  0  0  0  0  0  0  0  0  0  0
  149.0550  139.5385  154.9821 C   0  0  0  0  0  0  0  0  0  0  0  0
  150.2959  139.8235  155.6916 N   0  0  0  0  0  0  0  0  0  0  0  0
  151.4912  139.1857  155.5949 C   0  0  0  0  0  0  0  0  0  0  0  0
  151.7225  138.0267  154.6737 C   0  0  0  0  0  0  0  0  0  0  0  0
  151.7665  136.7925  155.3572 O   0  0  0  0  0  0  0  0  0  0  0  0
  152.4670  139.6643  156.3668 N   0  0  0  0  0  0  0  0  0  0  0  0
  151.8500  140.7054  157.0306 C   0  0  0  0  0  0  0  0  0  0  0  0
  152.3562  141.6087  157.9921 C   0  0  0  0  0  0  0  0  0  0  0  0
  151.5262  142.6097  158.5374 C   0  0  0  0  0  0  0  0  0  0  0  0
  150.1816  142.7223  158.1291 C   0  0  0  0  0  0  0  0  0  0  0  0
  149.6573  141.8324  157.1719 C   0  0  0  0  0  0  0  0  0  0  0  0
  150.4894  140.8328  156.6318 C   0  0  0  0  0  0  0  0  0  0  0  0
  145.8152  141.5431  155.3840 C   0  0  0  0  0  0  0  0  0  0  0  0
  144.6931  142.5420  155.7154 C   0  0  0  0  0  0  0  0  0  0  0  0
  143.0124  144.6950  155.0336 H   0  0  0  0  0  0  0  0  0  0  0  0
  144.2074  145.9725  155.2436 H   0  0  0  0  0  0  0  0  0  0  0  0
  143.7084  145.0011  156.6229 H   0  0  0  0  0  0  0  0  0  0  0  0
  145.9395  144.2856  155.8172 H   0  0  0  0  0  0  0  0  0  0  0  0
  144.5343  143.6972  153.1734 H   0  0  0  0  0  0  0  0  0  0  0  0
  145.7413  144.9314  153.4431 H   0  0  0  0  0  0  0  0  0  0  0  0
  146.7367  142.9155  152.4077 H   0  0  0  0  0  0  0  0  0  0  0  0
  147.4511  143.2179  153.9750 H   0  0  0  0  0  0  0  0  0  0  0  0
  146.7122  139.5399  153.8404 H   0  0  0  0  0  0  0  0  0  0  0  0
  147.2486  140.4806  152.4763 H   0  0  0  0  0  0  0  0  0  0  0  0
  148.4546  141.6020  154.8873 H   0  0  0  0  0  0  0  0  0  0  0  0
  149.4693  140.3617  152.5783 H   0  0  0  0  0  0  0  0  0  0  0  0
  148.3173  139.1969  155.7089 H   0  0  0  0  0  0  0  0  0  0  0  0
  149.2180  138.6953  154.3103 H   0  0  0  0  0  0  0  0  0  0  0  0
  150.9132  137.9886  153.9437 H   0  0  0  0  0  0  0  0  0  0  0  0
  152.6430  138.1609  154.1072 H   0  0  0  0  0  0  0  0  0  0  0  0
  151.9609  136.9619  156.2666 H   0  0  0  0  0  0  0  0  0  0  0  0
  153.3851  141.5311  158.3111 H   0  0  0  0  0  0  0  0  0  0  0  0
  151.9235  143.2941  159.2728 H   0  0  0  0  0  0  0  0  0  0  0  0
  149.5527  143.4920  158.5526 H   0  0  0  0  0  0  0  0  0  0  0  0
  148.6272  141.9200  156.8604 H   0  0  0  0  0  0  0  0  0  0  0  0
  145.4994  140.5421  155.6809 H   0  0  0  0  0  0  0  0  0  0  0  0
  146.7124  141.7773  155.9589 H   0  0  0  0  0  0  0  0  0  0  0  0
  144.4980  142.5313  156.7885 H   0  0  0  0  0  0  0  0  0  0  0  0
  143.7685  142.2243  155.2311 H   0  0  0  0  0  0  0  0  0  0  0  0
  145.2786  141.3194  153.4547 H   0  0  0  0  0  0  0  0  0  0  0  0
  1  2  1  0  0  0  0
  1 23  1  0  0  0  0
  1 24  1  0  0  0  0
  1 25  1  0  0  0  0
  2 22  1  0  0  0  0
  2  3  1  0  0  0  0
  2 26  1  0  0  0  0
  3  4  1  0  0  0  0
  3 27  1  0  0  0  0
  3 28  1  0  0  0  0
  4  5  1  0  0  0  0
  4 29  1  0  0  0  0
  4 30  1  0  0  0  0
  5  6  1  0  0  0  0
  5 21  1  0  0  0  0
  5 48  1  0  0  0  0
  6  7  1  0  0  0  0
  6 31  1  0  0  0  0
  6 32  1  0  0  0  0
  7  8  1  0  0  0  0
  7  9  1  0  0  0  0
  7 33  1  0  0  0  0
  8 34  1  0  0  0  0
  9 10  1  0  0  0  0
  9 35  1  0  0  0  0
  9 36  1  0  0  0  0
 10 20  1  0  0  0  0
 10 11  1  0  0  0  0
 11 12  1  0  0  0  0
 11 14  2  0  0  0  0
 12 13  1  0  0  0  0
 12 37  1  0  0  0  0
 12 38  1  0  0  0  0
 13 39  1  0  0  0  0
 14 15  1  0  0  0  0
 15 20  2  0  0  0  0
 15 16  1  0  0  0  0
 16 17  2  0  0  0  0
 16 40  1  0  0  0  0
 17 18  1  0  0  0  0
 17 41  1  0  0  0  0
 18 19  2  0  0  0  0
 18 42  1  0  0  0  0
 19 20  1  0  0  0  0
 19 43  1  0  0  0  0
 21 22  1  0  0  0  0
 21 44  1  0  0  0  0
 21 45  1  0  0  0  0
 22 46  1  0  0  0  0
 22 47  1  0  0  0  0
M  CHG  1   5   1
M  END
> <s_m_source_file>
AV-unprocessed.smi

> <i_m_source_file_index>
1672

> <i_lp_mmshare_version>
43012

> <i_f3d_flags>
0

> <s_epik_input>
W0NIM11bQ0hdMVtDSDJdW0NIMl1OKFtDSDJdW0NIMl0xKVtDSDJdW0NASF0oW09IXSlbQ0gyXW4oYyhuMilbQ0gyXVtPSF0pYyhjMjMpW2NIXVtjSF1bY0hdW2NIXTM=

> <s_epik_cmdline>
J2VwaWtfcHl0aG9uJywgJy1waCcsICc3LjAnLCAnLXRuJywgJzgnLCAnLW1hJywgJzIwMCcsICctbWV0YWxfYmluZGluZycsICctaW1hZScsICc8aW5maWxlLm1hZT4nLCAnLW9tYWUnLCAnPG91dGZpbGUubWFlPic=

> <r_epik_Ionization_Penalty>
0.0498263

> <r_epik_Ionization_Penalty_Charging>
0.00181365

> <r_epik_Ionization_Penalty_Neutral>
0.0480127

> <r_epik_State_Penalty>
0.0408546

> <r_epik_Charging_Adjusted_Penalty>
0.0426682

> <i_epik_Tot_Q>
1

> <i_epik_Tot_abs_Q>
1

> <r_epik_Metal_State_Penalty>
4.22946e-05

> <b_epik_Metal_Only>
0

> <s_lp_Force_Field>
OPLS_2005

> <r_lp_Energy>
22.4872

> <b_lp_Chiralities_Consistent>
1

> <s_lp_Variant>
AV-unprocessed.smi:1672-1

> <Gold.Version>
5.8.1

> <Gold.Id.Protein>
6NUR|6NUR_protein|mol2

> <Gold.PLP.Fitness>
55.9459

> <Gold.PLP.PLP>
-41.0301

> <Gold.PLP.part.hbond>
-5.4677

> <Gold.PLP.part.metal>
0.0000

> <Gold.PLP.part.buried>
-7.7831

> <Gold.PLP.part.nonpolar>
-28.2664

> <Gold.PLP.part.repulsive>
0.0178

> <Gold.PLP.ligand.clash>
0.0000

> <Gold.PLP.ligand.torsion>
0.9611

> <Gold.PLP.Chemscore.Hbond>
5.5840

> <Gold.PLP.Chemscore.CHOScore>
0.0000

> <Gold.PLP.Chemscore.Metal>
0.0000

> <Gold.Chemscore.Hbonds>
donor molecule, donor type, donor heavy atom, donor atom, acceptor molecule, acceptor atom, score
      L1  H     5    48       P1 10175  1.88
      L1  H     8    34       P1  7957  0.72
      P1  H  7989  7998       L1     8  0.04
      P1  H  7997  8008       L1    14  1.00
      P1  H  8011  8017       L1     8  1.00
      P1  H 10752 10763       L1    13  0.85

> <Gold.PLP.Chemscore.Internal.Correction>
0.0859

> <Gold.Rescore>
     Score         DG    S(hbond)    S(metal)    S(lipo)     H(rot)  DE(clash)    DE(int)     intcor
     18.37     -19.28       3.22        0.00      89.05       2.88       0.03       0.88       ----

> <Gold.Chemscore.Fitness>
18.3688

> <Gold.Chemscore.DG>
-19.2754

> <Gold.Chemscore.ZeroCoef>
-5.4800

> <Gold.Chemscore.Hbond>
3.2167

> <Gold.Chemscore.Metal>
0.0000

> <Gold.Chemscore.Lipo>
89.0493

> <Gold.Chemscore.Internal_Hbond>
0.0000

> <Gold.Chemscore.DEClash>
0.0282

> <Gold.Chemscore.DEInternal>
0.8784

> <Gold.Chemscore.Rot>
2.8778

> <Gold.Chemscore.Internal.Correction>
   9.000000E+99

> <Gold.Chemscore.Hbonds>
donor molecule, donor type, donor heavy atom, donor atom, acceptor molecule, acceptor atom, score
      L1  H     5    48       P1 10175  0.20
      L1  H     8    34       P1  7957  0.68
      P1  H  7997  8008       L1    14  0.61
      P1  H  8011  8017       L1     8  0.50
      P1  H 10752 10763       L1    13  0.44

> <Gold.Chemscore.Hbond.Weighted>
-10.7437

> <Gold.Chemscore.Metal.Weighted>
-0.0000

> <Gold.Chemscore.Lipo.Weighted>
-10.4188

> <Gold.Chemscore.Internal_Hbond.Weighted>
0.0000

> <Gold.Chemscore.DEClash.Weighted>
0.0282

> <Gold.Chemscore.DEInternal.Weighted>
0.8784

> <Gold.Chemscore.Rot.Weighted>
7.3671

> <Gold.Chemscore.Internal.Correction.Weighted>
   9.000000E+99

> <Gold.Protein.RotatedTorsions>
[ 6907 6896 6895 6894 ] final -174.97 input  -60.11 | X-H torsion
[ 7974 7965 7964 7962 ] final  -22.11 input  175.53 | X-H torsion
[ 8008 7997 7996 7995 ] final  -26.79 input   59.86 | X-H torsion
[ 10167 10162 10161 10158 ] final  137.79 input  -65.29 | X-H torsion
[ 10718 10713 10712 10709 ] final  -79.15 input   66.30 | X-H torsion
[ 10763 10752 10751 10750 ] final   43.06 input  -60.55 | X-H torsion
[ 11005 11000 10999 10996 ] final  106.57 input  -57.11 | X-H torsion

> <Gold.Protein.ActiveResidues>
 VAL166  LYS551  ARG553  GLY616  TRP617  ASP618  TYR619  PRO620  LYS621  CYS622 
 ASP623  PHE694  ASN695  SER759  ASP760  ASP761  ALA762  ILE779  LEU786  VAL792 
 PHE793  MET794  SER795  GLU796  ALA797  LYS798  CYS799  TRP800  GLU811  SER814 

> <Gold.Protein.RotatedAtoms>
  151.5811  133.3377  159.3008 H   0  0  0  0  0  0  0  0  0  0  0  0  # atno 6907 bound_to 6896
  150.8313  134.7570  159.6867 H   0  0  0  0  0  0  0  0  0  0  0  0  # atno 6908 bound_to 6896
  152.4396  134.5624  159.9949 H   0  0  0  0  0  0  0  0  0  0  0  0  # atno 6909 bound_to 6896
  146.1694  140.4434  142.8538 H   0  0  0  0  0  0  0  0  0  0  0  0  # atno 7974 bound_to 7965
  154.4408  140.1890  156.0831 H   0  0  0  0  0  0  0  0  0  0  0  0  # atno 8008 bound_to 7997
  156.0423  140.3318  155.7231 H   0  0  0  0  0  0  0  0  0  0  0  0  # atno 8009 bound_to 7997
  155.5681  140.0610  157.2804 H   0  0  0  0  0  0  0  0  0  0  0  0  # atno 8010 bound_to 7997
  139.5132  144.6390  151.5620 H   0  0  0  0  0  0  0  0  0  0  0  0  # atno 10167 bound_to 10162
  156.0099  130.4537  150.3604 H   0  0  0  0  0  0  0  0  0  0  0  0  # atno 10718 bound_to 10713
  152.9869  135.6113  154.3050 H   0  0  0  0  0  0  0  0  0  0  0  0  # atno 10763 bound_to 10752
  154.2769  135.2778  155.2716 H   0  0  0  0  0  0  0  0  0  0  0  0  # atno 10764 bound_to 10752
  154.5072  135.5851  153.6634 H   0  0  0  0  0  0  0  0  0  0  0  0  # atno 10765 bound_to 10752
  139.8816  134.9373  156.5687 H   0  0  0  0  0  0  0  0  0  0  0  0  # atno 11005 bound_to 11000
  144.8141  140.6437  143.6396 LP  0  0  0  0  0  0  0  0  0  0  0  0  # atno 17320 bound_to 7965
  145.4379  139.1539  143.3986 LP  0  0  0  0  0  0  0  0  0  0  0  0  # atno 17321 bound_to 7965
  140.6150  143.9366  150.6481 LP  0  0  0  0  0  0  0  0  0  0  0  0  # atno 17342 bound_to 10162
  140.2621  143.3516  152.1313 LP  0  0  0  0  0  0  0  0  0  0  0  0  # atno 17343 bound_to 10162
  157.1693  131.0365  151.2803 LP  0  0  0  0  0  0  0  0  0  0  0  0  # atno 17370 bound_to 10713
  157.4243  130.7455  149.6938 LP  0  0  0  0  0  0  0  0  0  0  0  0  # atno 17371 bound_to 10713
  140.8115  133.8426  155.8814 LP  0  0  0  0  0  0  0  0  0  0  0  0  # atno 17394 bound_to 11000
  140.9502  134.1788  157.4733 LP  0  0  0  0  0  0  0  0  0  0  0  0  # atno 17395 bound_to 11000

$$$$
