AV-unprocessed.smi:1419|AV-procd|sdf|5778|dock4
  -GOLD-   22720 5423D 1   1.00000     0.00000
 Structure written by MMmdl.
 42 43  0  0  0  0  0  0  0  0  2 V2000
  151.0203  139.6908  155.5949 C   0  0  0  0  0  0  0  0  0  0  0  0
  150.1444  140.8815  156.0068 C   0  0  2  0  0  0  0  0  0  0  0  0
  149.5948  141.6227  154.7685 C   0  0  0  0  0  0  0  0  0  0  0  0
  148.1448  141.4705  154.6053 N   0  0  0  0  0  0  0  0  0  0  0  0
  147.1594  142.0144  155.3889 C   0  0  0  0  0  0  0  0  0  0  0  0
  145.9647  141.6109  154.8510 C   0  0  0  0  0  0  0  0  0  0  0  0
  146.2710  140.8284  153.7700 N   0  3  0  0  0  0  0  0  0  0  0  0
  147.5971  140.7377  153.6271 C   0  0  0  0  0  0  0  0  0  0  0  0
  150.9350  141.7768  156.8507 N   0  0  0  0  0  0  0  0  0  0  0  0
  151.5714  141.4407  157.9867 C   0  0  0  0  0  0  0  0  0  0  0  0
  151.5343  140.2989  158.4470 O   0  0  0  0  0  0  0  0  0  0  0  0
  152.2284  142.4618  158.5899 N   0  0  0  0  0  0  0  0  0  0  0  0
  152.1647  143.8873  158.2393 C   0  0  0  0  0  0  0  0  0  0  0  0
  151.4490  144.6524  159.3720 C   0  0  1  0  0  0  0  0  0  0  0  0
  149.9394  144.3671  159.4590 C   0  0  0  0  0  0  0  0  0  0  0  0
  152.1022  144.3933  160.6192 O   0  0  0  0  0  0  0  0  0  0  0  0
  152.2727  143.0146  160.9601 C   0  0  2  0  0  0  0  0  0  0  0  0
  153.0491  142.9467  162.2794 C   0  0  0  0  0  0  0  0  0  0  0  0
  153.0073  142.2867  159.8170 C   0  0  0  0  0  0  0  0  0  0  0  0
  150.4569  138.9798  154.9902 H   0  0  0  0  0  0  0  0  0  0  0  0
  151.3918  139.1545  156.4689 H   0  0  0  0  0  0  0  0  0  0  0  0
  151.8824  140.0141  155.0102 H   0  0  0  0  0  0  0  0  0  0  0  0
  149.3077  140.4800  156.5815 H   0  0  0  0  0  0  0  0  0  0  0  0
  149.8352  142.6863  154.8134 H   0  0  0  0  0  0  0  0  0  0  0  0
  150.0568  141.2337  153.8600 H   0  0  0  0  0  0  0  0  0  0  0  0
  147.3760  142.6406  156.2424 H   0  0  0  0  0  0  0  0  0  0  0  0
  144.9468  141.8156  155.1494 H   0  0  0  0  0  0  0  0  0  0  0  0
  148.1204  140.1868  152.8663 H   0  0  0  0  0  0  0  0  0  0  0  0
  151.0125  142.7350  156.5418 H   0  0  0  0  0  0  0  0  0  0  0  0
  153.1824  144.2651  158.1301 H   0  0  0  0  0  0  0  0  0  0  0  0
  151.6811  144.0918  157.2842 H   0  0  0  0  0  0  0  0  0  0  0  0
  151.5639  145.7196  159.1809 H   0  0  0  0  0  0  0  0  0  0  0  0
  149.4401  144.6397  158.5290 H   0  0  0  0  0  0  0  0  0  0  0  0
  149.4815  144.9457  160.2615 H   0  0  0  0  0  0  0  0  0  0  0  0
  149.7280  143.3157  159.6461 H   0  0  0  0  0  0  0  0  0  0  0  0
  151.2961  142.5553  161.1172 H   0  0  0  0  0  0  0  0  0  0  0  0
  153.1960  141.9140  162.5966 H   0  0  0  0  0  0  0  0  0  0  0  0
  152.5126  143.4652  163.0745 H   0  0  0  0  0  0  0  0  0  0  0  0
  154.0313  143.4104  162.1836 H   0  0  0  0  0  0  0  0  0  0  0  0
  153.1555  141.2375  160.0767 H   0  0  0  0  0  0  0  0  0  0  0  0
  154.0056  142.7044  159.6777 H   0  0  0  0  0  0  0  0  0  0  0  0
  145.5935  140.3799  153.1661 H   0  0  0  0  0  0  0  0  0  0  0  0
  1  2  1  0  0  0  0
  1 20  1  0  0  0  0
  1 21  1  0  0  0  0
  1 22  1  0  0  0  0
  2  3  1  0  0  0  0
  2  9  1  0  0  0  0
  2 23  1  0  0  0  0
  3  4  1  0  0  0  0
  3 24  1  0  0  0  0
  3 25  1  0  0  0  0
  4  8  1  0  0  0  0
  4  5  1  0  0  0  0
  5  6  2  0  0  0  0
  5 26  1  0  0  0  0
  6  7  1  0  0  0  0
  6 27  1  0  0  0  0
  7  8  2  0  0  0  0
  7 42  1  0  0  0  0
  8 28  1  0  0  0  0
  9 10  1  0  0  0  0
  9 29  1  0  0  0  0
 10 11  2  0  0  0  0
 10 12  1  0  0  0  0
 12 19  1  0  0  0  0
 12 13  1  0  0  0  0
 13 14  1  0  0  0  0
 13 30  1  0  0  0  0
 13 31  1  0  0  0  0
 14 15  1  0  0  0  0
 14 16  1  0  0  0  0
 14 32  1  0  0  0  0
 15 33  1  0  0  0  0
 15 34  1  0  0  0  0
 15 35  1  0  0  0  0
 16 17  1  0  0  0  0
 17 18  1  0  0  0  0
 17 19  1  0  0  0  0
 17 36  1  0  0  0  0
 18 37  1  0  0  0  0
 18 38  1  0  0  0  0
 18 39  1  0  0  0  0
 19 40  1  0  0  0  0
 19 41  1  0  0  0  0
M  CHG  1   7   1
M  END
> <s_m_source_file>
AV-unprocessed.smi

> <i_m_source_file_index>
1419

> <i_lp_mmshare_version>
43012

> <i_f3d_flags>
0

> <s_epik_input>
W2NIXTFuW2NIXVtjSF1uMVtDSDJdW0NAQEhdKFtDSDNdKVtOSF1DKD1PKU4yW0NIMl1bQ0BASF0oW0NIM10pT1tDQEBIXShbQ0gzXSlbQ0gyXTI=

> <s_epik_cmdline>
J2VwaWtfcHl0aG9uJywgJy1waCcsICc3LjAnLCAnLXRuJywgJzgnLCAnLW1hJywgJzIwMCcsICctbWV0YWxfYmluZGluZycsICctaW1hZScsICc8aW5maWxlLm1hZT4nLCAnLW9tYWUnLCAnPG91dGZpbGUubWFlPic=

> <r_lp_tautomer_probability>
1

> <r_epik_Ionization_Penalty>
0.253607

> <r_epik_Ionization_Penalty_Charging>
0

> <r_epik_Ionization_Penalty_Neutral>
0.253607

> <r_epik_State_Penalty>
0.245018

> <r_epik_Charging_Adjusted_Penalty>
0.245018

> <i_epik_Tot_Q>
1

> <i_epik_Tot_abs_Q>
1

> <r_epik_Metal_State_Penalty>
0.535379

> <b_epik_Metal_Only>
0

> <s_lp_Force_Field>
OPLS_2005

> <r_lp_Energy>
31.638

> <b_lp_Chiralities_Consistent>
1

> <s_lp_Variant>
AV-unprocessed.smi:1419-5

> <Gold.Version>
5.8.1

> <Gold.Id.Protein>
6NUR|6NUR_protein|mol2

> <Gold.PLP.Fitness>
53.4557

> <Gold.PLP.PLP>
-44.6166

> <Gold.PLP.part.hbond>
-1.0000

> <Gold.PLP.part.metal>
0.0000

> <Gold.PLP.part.buried>
-4.1716

> <Gold.PLP.part.nonpolar>
-38.9833

> <Gold.PLP.part.repulsive>
0.1754

> <Gold.PLP.ligand.clash>
0.0000

> <Gold.PLP.ligand.torsion>
0.8465

> <Gold.PLP.Chemscore.Hbond>
2.0000

> <Gold.PLP.Chemscore.CHOScore>
1.4970

> <Gold.PLP.Chemscore.Metal>
0.0000

> <Gold.Chemscore.Hbonds>
donor molecule, donor type, donor heavy atom, donor atom, acceptor molecule, acceptor atom, score
      L1  H     7    42       P1 10175  1.74
      L1  C     5    26       P1  8028  0.48
      L1  C     8    28       P1  7957  1.00

> <Gold.PLP.Chemscore.Internal.Correction>
0.0409

> <Gold.Rescore>
     Score         DG    S(hbond)    S(metal)    S(lipo)     H(rot)  DE(clash)    DE(int)     intcor
     14.78     -15.65       0.98        0.00      94.51       1.63       0.04       0.82       ----

> <Gold.Chemscore.Fitness>
14.7831

> <Gold.Chemscore.DG>
-15.6478

> <Gold.Chemscore.ZeroCoef>
-5.4800

> <Gold.Chemscore.Hbond>
0.9807

> <Gold.Chemscore.Metal>
0.0000

> <Gold.Chemscore.Lipo>
94.5135

> <Gold.Chemscore.Internal_Hbond>
0.0000

> <Gold.Chemscore.DEClash>
0.0429

> <Gold.Chemscore.DEInternal>
0.8218

> <Gold.Chemscore.Rot>
1.6273

> <Gold.Chemscore.Internal.Correction>
   9.000000E+99

> <Gold.Chemscore.Hbonds>
donor molecule, donor type, donor heavy atom, donor atom, acceptor molecule, acceptor atom, score
      L1  H     7    42       P1 10175  0.77

> <Gold.Chemscore.Hbond.Weighted>
-3.2755

> <Gold.Chemscore.Metal.Weighted>
-0.0000

> <Gold.Chemscore.Lipo.Weighted>
-11.0581

> <Gold.Chemscore.Internal_Hbond.Weighted>
0.0000

> <Gold.Chemscore.DEClash.Weighted>
0.0429

> <Gold.Chemscore.DEInternal.Weighted>
0.8218

> <Gold.Chemscore.Rot.Weighted>
4.1658

> <Gold.Chemscore.Internal.Correction.Weighted>
   9.000000E+99

> <Gold.Protein.RotatedTorsions>
[ 6907 6896 6895 6894 ] final  -98.60 input  -60.11 | X-H torsion
[ 7974 7965 7964 7962 ] final   84.74 input  175.53 | X-H torsion
[ 8008 7997 7996 7995 ] final  -91.04 input   59.86 | X-H torsion
[ 10167 10162 10161 10158 ] final   85.01 input  -65.29 | X-H torsion
[ 10718 10713 10712 10709 ] final -115.75 input   66.30 | X-H torsion
[ 10763 10752 10751 10750 ] final   73.64 input  -60.55 | X-H torsion
[ 11005 11000 10999 10996 ] final  118.00 input  -57.11 | X-H torsion

> <Gold.Protein.ActiveResidues>
 VAL166  LYS551  ARG553  GLY616  TRP617  ASP618  TYR619  PRO620  LYS621  CYS622 
 ASP623  PHE694  ASN695  SER759  ASP760  ASP761  ALA762  ILE779  LEU786  VAL792 
 PHE793  MET794  SER795  GLU796  ALA797  LYS798  CYS799  TRP800  GLU811  SER814 

> <Gold.Protein.RotatedAtoms>
  150.7052  134.1169  159.4020 H   0  0  0  0  0  0  0  0  0  0  0  0  # atno 6907 bound_to 6896
  151.9155  135.0318  160.0527 H   0  0  0  0  0  0  0  0  0  0  0  0  # atno 6908 bound_to 6896
  152.2300  133.5015  159.5247 H   0  0  0  0  0  0  0  0  0  0  0  0  # atno 6909 bound_to 6896
  145.5947  139.2343  143.2279 H   0  0  0  0  0  0  0  0  0  0  0  0  # atno 7974 bound_to 7965
  154.7059  140.0524  157.0503 H   0  0  0  0  0  0  0  0  0  0  0  0  # atno 8008 bound_to 7997
  155.0621  140.3190  155.4638 H   0  0  0  0  0  0  0  0  0  0  0  0  # atno 8009 bound_to 7997
  156.2774  140.2097  156.5748 H   0  0  0  0  0  0  0  0  0  0  0  0  # atno 8010 bound_to 7997
  139.9021  144.6323  150.8626 H   0  0  0  0  0  0  0  0  0  0  0  0  # atno 10167 bound_to 10162
  156.0916  130.6098  150.8946 H   0  0  0  0  0  0  0  0  0  0  0  0  # atno 10718 bound_to 10713
  153.0535  135.5055  154.7924 H   0  0  0  0  0  0  0  0  0  0  0  0  # atno 10763 bound_to 10752
  154.6768  135.2962  154.9669 H   0  0  0  0  0  0  0  0  0  0  0  0  # atno 10764 bound_to 10752
  154.0469  135.6709  153.4848 H   0  0  0  0  0  0  0  0  0  0  0  0  # atno 10765 bound_to 10752
  139.9094  134.9616  156.7437 H   0  0  0  0  0  0  0  0  0  0  0  0  # atno 11005 bound_to 11000
  146.1621  140.6773  142.9273 LP  0  0  0  0  0  0  0  0  0  0  0  0  # atno 17320 bound_to 7965
  144.7336  140.4743  143.6920 LP  0  0  0  0  0  0  0  0  0  0  0  0  # atno 17321 bound_to 7965
  140.7704  143.3429  151.2171 LP  0  0  0  0  0  0  0  0  0  0  0  0  # atno 17342 bound_to 10162
  139.7016  143.9524  152.2908 LP  0  0  0  0  0  0  0  0  0  0  0  0  # atno 17343 bound_to 10162
  157.6067  131.0938  150.8867 LP  0  0  0  0  0  0  0  0  0  0  0  0  # atno 17370 bound_to 10713
  156.9014  130.5248  149.5282 LP  0  0  0  0  0  0  0  0  0  0  0  0  # atno 17371 bound_to 10713
  140.6829  133.9458  155.7921 LP  0  0  0  0  0  0  0  0  0  0  0  0  # atno 17394 bound_to 11000
  141.0497  134.0502  157.3799 LP  0  0  0  0  0  0  0  0  0  0  0  0  # atno 17395 bound_to 11000

$$$$
