AV-unprocessed.smi:3308|AV-procd|sdf|12712|dock1
  -GOLD-   2272019 43D 1   1.00000     0.00000
 Structure written by MMmdl.
 40 41  0  0  0  0  0  0  0  0  1 V2000
  151.1504  141.0960  155.9261 C   0  0  0  0  0  0  0  0  0  0  0  0
  149.9738  141.8273  156.6069 C   0  0  2  0  0  0  0  0  0  0  0  0
  150.3216  142.2290  157.9674 N   0  0  0  0  0  0  0  0  0  0  0  0
  151.5479  143.0321  158.0503 C   0  0  0  0  0  0  0  0  0  0  0  0
  151.6897  143.6850  159.4292 C   0  0  0  0  0  0  0  0  0  0  0  0
  151.0953  144.7412  159.6453 O   0  0  0  0  0  0  0  0  0  0  0  0
  152.4620  143.0879  160.3617 N   0  0  0  0  0  0  0  0  0  0  0  0
  152.6955  143.5712  161.7227 C   0  0  0  0  0  0  0  0  0  0  0  0
  153.4215  142.4364  162.4459 C   0  0  0  0  0  0  0  0  0  0  0  0
  154.1128  141.6654  161.3304 C   0  0  0  0  0  0  0  0  0  0  0  0
  153.1862  141.8399  160.1272 C   0  0  0  0  0  0  0  0  0  0  0  0
  148.6573  141.0053  156.6549 C   0  0  2  0  0  0  0  0  0  0  0  0
  148.7742  139.6664  157.4145 C   0  0  0  0  0  0  0  0  0  0  0  0
  148.1053  140.8078  155.3180 N   0  0  0  0  0  0  0  0  0  0  0  0
  147.6917  141.7448  154.3892 C   0  0  0  0  0  0  0  0  0  0  0  0
  147.2149  141.0664  153.3048 C   0  0  0  0  0  0  0  0  0  0  0  0
  147.3652  139.7001  153.6691 C   0  0  0  0  0  0  0  0  0  0  0  0
  147.8890  139.5493  154.8742 N   0  0  0  0  0  0  0  0  0  0  0  0
  150.8851  140.7622  154.9235 H   0  0  0  0  0  0  0  0  0  0  0  0
  151.4665  140.2217  156.4948 H   0  0  0  0  0  0  0  0  0  0  0  0
  152.0181  141.7450  155.8124 H   0  0  0  0  0  0  0  0  0  0  0  0
  149.7607  142.7324  156.0354 H   0  0  0  0  0  0  0  0  0  0  0  0
  150.3674  141.4135  158.5616 H   0  0  0  0  0  0  0  0  0  0  0  0
  152.4186  142.3997  157.8778 H   0  0  0  0  0  0  0  0  0  0  0  0
  151.5583  143.7969  157.2729 H   0  0  0  0  0  0  0  0  0  0  0  0
  153.3261  144.4602  161.6818 H   0  0  0  0  0  0  0  0  0  0  0  0
  151.7700  143.8321  162.2376 H   0  0  0  0  0  0  0  0  0  0  0  0
  154.1157  142.7947  163.2063 H   0  0  0  0  0  0  0  0  0  0  0  0
  152.6923  141.7908  162.9366 H   0  0  0  0  0  0  0  0  0  0  0  0
  155.0797  142.1231  161.1164 H   0  0  0  0  0  0  0  0  0  0  0  0
  154.2868  140.6191  161.5830 H   0  0  0  0  0  0  0  0  0  0  0  0
  152.4690  141.0196  160.0733 H   0  0  0  0  0  0  0  0  0  0  0  0
  153.7497  141.8601  159.1931 H   0  0  0  0  0  0  0  0  0  0  0  0
  147.9235  141.6014  157.2015 H   0  0  0  0  0  0  0  0  0  0  0  0
  149.0522  139.8226  158.4568 H   0  0  0  0  0  0  0  0  0  0  0  0
  149.5191  139.0057  156.9717 H   0  0  0  0  0  0  0  0  0  0  0  0
  147.8216  139.1358  157.4151 H   0  0  0  0  0  0  0  0  0  0  0  0
  147.7658  142.8065  154.5712 H   0  0  0  0  0  0  0  0  0  0  0  0
  146.8144  141.4830  152.3927 H   0  0  0  0  0  0  0  0  0  0  0  0
  147.1067  138.8196  153.0995 H   0  0  0  0  0  0  0  0  0  0  0  0
  1  2  1  0  0  0  0
  1 19  1  0  0  0  0
  1 20  1  0  0  0  0
  1 21  1  0  0  0  0
  2  3  1  0  0  0  0
  2 12  1  0  0  0  0
  2 22  1  0  0  0  0
  3  4  1  0  0  0  0
  3 23  1  0  0  0  0
  4  5  1  0  0  0  0
  4 24  1  0  0  0  0
  4 25  1  0  0  0  0
  5  6  2  0  0  0  0
  5  7  1  0  0  0  0
  7 11  1  0  0  0  0
  7  8  1  0  0  0  0
  8  9  1  0  0  0  0
  8 26  1  0  0  0  0
  8 27  1  0  0  0  0
  9 10  1  0  0  0  0
  9 28  1  0  0  0  0
  9 29  1  0  0  0  0
 10 11  1  0  0  0  0
 10 30  1  0  0  0  0
 10 31  1  0  0  0  0
 11 32  1  0  0  0  0
 11 33  1  0  0  0  0
 12 13  1  0  0  0  0
 12 14  1  0  0  0  0
 12 34  1  0  0  0  0
 13 35  1  0  0  0  0
 13 36  1  0  0  0  0
 13 37  1  0  0  0  0
 14 18  1  0  0  0  0
 14 15  1  0  0  0  0
 15 16  2  0  0  0  0
 15 38  1  0  0  0  0
 16 17  1  0  0  0  0
 16 39  1  0  0  0  0
 17 18  2  0  0  0  0
 17 40  1  0  0  0  0
M  END
> <s_m_source_file>
AV-unprocessed.smi

> <i_m_source_file_index>
3308

> <i_lp_mmshare_version>
43012

> <i_f3d_flags>
0

> <s_epik_input>
bjFbY0hdW2NIXVtjSF1uMVtDQEBIXShbQ0gzXSlbQ0BIXShbQ0gzXSlbTkhdW0NIMl1DKD1PKU4yW0NIMl1bQ0gyXVtDSDJdW0NIMl0y

> <s_epik_cmdline>
J2VwaWtfcHl0aG9uJywgJy1waCcsICc3LjAnLCAnLXRuJywgJzgnLCAnLW1hJywgJzIwMCcsICctbWV0YWxfYmluZGluZycsICctaW1hZScsICc8aW5maWxlLm1hZT4nLCAnLW9tYWUnLCAnPG91dGZpbGUubWFlPic=

> <r_lp_tautomer_probability>
1

> <r_epik_Ionization_Penalty>
0.918676

> <r_epik_Ionization_Penalty_Charging>
0

> <r_epik_Ionization_Penalty_Neutral>
0.918676

> <r_epik_State_Penalty>
0.958258

> <r_epik_Charging_Adjusted_Penalty>
0.958258

> <i_epik_Tot_Q>
0

> <i_epik_Tot_abs_Q>
0

> <r_epik_Metal_State_Penalty>
0.956879

> <b_epik_Metal_Only>
0

> <s_lp_Force_Field>
OPLS_2005

> <r_lp_Energy>
37.0374

> <b_lp_Chiralities_Consistent>
1

> <s_lp_Variant>
AV-unprocessed.smi:3308-5

> <Gold.Version>
5.8.1

> <Gold.Id.Protein>
6NUR|6NUR_protein|mol2

> <Gold.PLP.Fitness>
43.3439

> <Gold.PLP.PLP>
-40.9985

> <Gold.PLP.part.hbond>
0.0000

> <Gold.PLP.part.metal>
0.0000

> <Gold.PLP.part.buried>
-5.0070

> <Gold.PLP.part.nonpolar>
-36.1373

> <Gold.PLP.part.repulsive>
0.1802

> <Gold.PLP.ligand.clash>
0.0000

> <Gold.PLP.ligand.torsion>
0.4896

> <Gold.PLP.Chemscore.Hbond>
0.0000

> <Gold.PLP.Chemscore.CHOScore>
1.0000

> <Gold.PLP.Chemscore.Metal>
0.0000

> <Gold.Chemscore.Hbonds>
donor molecule, donor type, donor heavy atom, donor atom, acceptor molecule, acceptor atom, score
      L1  C    15    38       P1  8028  1.00

> <Gold.PLP.Chemscore.Internal.Correction>
0.3246

> <Gold.Rescore>
     Score         DG    S(hbond)    S(metal)    S(lipo)     H(rot)  DE(clash)    DE(int)     intcor
     11.51     -11.94       0.00        0.00      92.85       1.72       0.03       0.40       ----

> <Gold.Chemscore.Fitness>
11.5071

> <Gold.Chemscore.DG>
-11.9409

> <Gold.Chemscore.ZeroCoef>
-5.4800

> <Gold.Chemscore.Hbond>
0.0000

> <Gold.Chemscore.Metal>
0.0000

> <Gold.Chemscore.Lipo>
92.8549

> <Gold.Chemscore.Internal_Hbond>
0.0000

> <Gold.Chemscore.DEClash>
0.0317

> <Gold.Chemscore.DEInternal>
0.4022

> <Gold.Chemscore.Rot>
1.7200

> <Gold.Chemscore.Internal.Correction>
   9.000000E+99

> <Gold.Chemscore.Hbond.Weighted>
-0.0000

> <Gold.Chemscore.Metal.Weighted>
-0.0000

> <Gold.Chemscore.Lipo.Weighted>
-10.8640

> <Gold.Chemscore.Internal_Hbond.Weighted>
0.0000

> <Gold.Chemscore.DEClash.Weighted>
0.0317

> <Gold.Chemscore.DEInternal.Weighted>
0.4022

> <Gold.Chemscore.Rot.Weighted>
4.4031

> <Gold.Chemscore.Internal.Correction.Weighted>
   9.000000E+99

> <Gold.Protein.RotatedTorsions>
[ 6907 6896 6895 6894 ] final  127.91 input  -60.11 | X-H torsion
[ 7974 7965 7964 7962 ] final  -96.96 input  175.53 | X-H torsion
[ 8008 7997 7996 7995 ] final   90.51 input   59.86 | X-H torsion
[ 10167 10162 10161 10158 ] final   54.81 input  -65.29 | X-H torsion
[ 10718 10713 10712 10709 ] final   94.08 input   66.30 | X-H torsion
[ 10763 10752 10751 10750 ] final -164.97 input  -60.55 | X-H torsion
[ 11005 11000 10999 10996 ] final -127.31 input  -57.11 | X-H torsion

> <Gold.Protein.ActiveResidues>
 VAL166  LYS551  ARG553  GLY616  TRP617  ASP618  TYR619  PRO620  LYS621  CYS622 
 ASP623  PHE694  ASN695  SER759  ASP760  ASP761  ALA762  ILE779  LEU786  VAL792 
 PHE793  MET794  SER795  GLU796  ALA797  LYS798  CYS799  TRP800  GLU811  SER814 

> <Gold.Protein.RotatedAtoms>
  152.3769  133.6493  159.6130 H   0  0  0  0  0  0  0  0  0  0  0  0  # atno 6907 bound_to 6896
  150.7710  133.9179  159.3398 H   0  0  0  0  0  0  0  0  0  0  0  0  # atno 6908 bound_to 6896
  151.6992  135.0934  160.0299 H   0  0  0  0  0  0  0  0  0  0  0  0  # atno 6909 bound_to 6896
  145.3399  140.9458  143.2613 H   0  0  0  0  0  0  0  0  0  0  0  0  # atno 7974 bound_to 7965
  156.0128  140.3348  155.6958 H   0  0  0  0  0  0  0  0  0  0  0  0  # atno 8008 bound_to 7997
  155.6133  140.0667  157.2717 H   0  0  0  0  0  0  0  0  0  0  0  0  # atno 8009 bound_to 7997
  154.4287  140.1789  156.1283 H   0  0  0  0  0  0  0  0  0  0  0  0  # atno 8010 bound_to 7997
  140.2262  144.3736  150.6432 H   0  0  0  0  0  0  0  0  0  0  0  0  # atno 10167 bound_to 10162
  157.6950  131.0500  150.4131 H   0  0  0  0  0  0  0  0  0  0  0  0  # atno 10718 bound_to 10713
  154.6977  135.2982  154.9386 H   0  0  0  0  0  0  0  0  0  0  0  0  # atno 10763 bound_to 10752
  154.0329  135.6668  153.4786 H   0  0  0  0  0  0  0  0  0  0  0  0  # atno 10764 bound_to 10752
  153.0658  135.5089  154.8104 H   0  0  0  0  0  0  0  0  0  0  0  0  # atno 10765 bound_to 10752
  140.9610  134.0936  157.3968 H   0  0  0  0  0  0  0  0  0  0  0  0  # atno 11005 bound_to 11000
  144.8798  139.4920  143.6728 LP  0  0  0  0  0  0  0  0  0  0  0  0  # atno 17320 bound_to 7965
  146.3011  139.7431  142.9090 LP  0  0  0  0  0  0  0  0  0  0  0  0  # atno 17321 bound_to 7965
  140.6219  143.2177  151.6676 LP  0  0  0  0  0  0  0  0  0  0  0  0  # atno 17342 bound_to 10162
  139.5126  144.3469  152.0688 LP  0  0  0  0  0  0  0  0  0  0  0  0  # atno 17343 bound_to 10162
  156.4513  130.4012  149.6634 LP  0  0  0  0  0  0  0  0  0  0  0  0  # atno 17370 bound_to 10713
  156.3782  130.7565  151.2556 LP  0  0  0  0  0  0  0  0  0  0  0  0  # atno 17371 bound_to 10713
  139.8878  135.0092  156.6582 LP  0  0  0  0  0  0  0  0  0  0  0  0  # atno 17394 bound_to 11000
  140.7467  133.8931  155.8317 LP  0  0  0  0  0  0  0  0  0  0  0  0  # atno 17395 bound_to 11000

$$$$
