AV-unprocessed.smi:1695|AV-procd|sdf|6789|dock6
  -GOLD-   22720 7553D 1   1.00000     0.00000
 Structure written by MMmdl.
 51 53  0  0  0  0  0  0  0  0  2 V2000
  153.4242  142.4744  161.5779 C   0  0  0  0  0  0  0  0  0  0  0  0
  152.7253  142.2169  160.2545 C   0  0  0  0  0  0  0  0  0  0  0  0
  152.6726  140.8977  159.7507 C   0  0  0  0  0  0  0  0  0  0  0  0
  152.0329  140.6158  158.5242 C   0  0  0  0  0  0  0  0  0  0  0  0
  151.8607  139.4165  157.8548 N   0  0  0  0  0  0  0  0  0  0  0  0
  151.1859  139.8048  156.7769 C   0  0  0  0  0  0  0  0  0  0  0  0
  150.8942  141.1155  156.6715 N   0  0  0  0  0  0  0  0  0  0  0  0
  150.1610  141.7606  155.5979 C   0  0  0  0  0  0  0  0  0  0  0  0
  149.3124  140.7646  154.7841 C   0  0  2  0  0  0  0  0  0  0  0  0
  150.1887  140.0274  153.9560 O   0  0  0  0  0  0  0  0  0  0  0  0
  148.2440  141.4425  153.8977 C   0  0  0  0  0  0  0  0  0  0  0  0
  147.2757  142.2454  154.6875 N   0  3  1  0  0  0  0  0  0  0  0  0
  146.1592  142.7863  153.8677 C   0  0  0  0  0  0  0  0  0  0  0  0
  145.2553  143.7168  154.6994 C   0  0  0  0  0  0  0  0  0  0  0  0
  144.7163  143.0547  155.9853 C   0  0  1  0  0  0  0  0  0  0  0  0
  143.5648  142.0686  155.7117 C   0  0  0  0  0  0  0  0  0  0  0  0
  142.5107  142.5394  155.0406 N   0  0  0  0  0  0  0  0  0  0  0  0
  143.6172  140.9023  156.0959 O   0  0  0  0  0  0  0  0  0  0  0  0
  145.8858  142.4081  156.7580 C   0  0  0  0  0  0  0  0  0  0  0  0
  146.7761  141.5103  155.8771 C   0  0  0  0  0  0  0  0  0  0  0  0
  151.4425  141.6988  157.8091 C   0  0  0  0  0  0  0  0  0  0  0  0
  151.4884  143.0158  158.2998 C   0  0  0  0  0  0  0  0  0  0  0  0
  152.1314  143.2795  159.5272 C   0  0  0  0  0  0  0  0  0  0  0  0
  152.1759  144.7046  160.0493 C   0  0  0  0  0  0  0  0  0  0  0  0
  153.8135  141.5516  162.0091 H   0  0  0  0  0  0  0  0  0  0  0  0
  152.7325  142.9134  162.2971 H   0  0  0  0  0  0  0  0  0  0  0  0
  154.2619  143.1584  161.4405 H   0  0  0  0  0  0  0  0  0  0  0  0
  153.1243  140.0879  160.3048 H   0  0  0  0  0  0  0  0  0  0  0  0
  150.8798  139.0948  156.0225 H   0  0  0  0  0  0  0  0  0  0  0  0
  149.5317  142.5422  156.0257 H   0  0  0  0  0  0  0  0  0  0  0  0
  150.8813  142.2618  154.9493 H   0  0  0  0  0  0  0  0  0  0  0  0
  148.8449  140.0673  155.4788 H   0  0  0  0  0  0  0  0  0  0  0  0
  149.7501  139.8416  153.1394 H   0  0  0  0  0  0  0  0  0  0  0  0
  148.7015  142.0924  153.1511 H   0  0  0  0  0  0  0  0  0  0  0  0
  147.7193  140.6661  153.3386 H   0  0  0  0  0  0  0  0  0  0  0  0
  146.5518  143.3502  153.0226 H   0  0  0  0  0  0  0  0  0  0  0  0
  145.5828  141.9644  153.4418 H   0  0  0  0  0  0  0  0  0  0  0  0
  145.8237  144.6068  154.9729 H   0  0  0  0  0  0  0  0  0  0  0  0
  144.4287  144.0720  154.0824 H   0  0  0  0  0  0  0  0  0  0  0  0
  144.3090  143.8481  156.6148 H   0  0  0  0  0  0  0  0  0  0  0  0
  141.7287  141.9345  154.8346 H   0  0  0  0  0  0  0  0  0  0  0  0
  142.4988  143.5035  154.7395 H   0  0  0  0  0  0  0  0  0  0  0  0
  146.5009  143.1985  157.1903 H   0  0  0  0  0  0  0  0  0  0  0  0
  145.5075  141.8320  157.6039 H   0  0  0  0  0  0  0  0  0  0  0  0
  146.2402  140.6158  155.5587 H   0  0  0  0  0  0  0  0  0  0  0  0
  147.6223  141.1663  156.4732 H   0  0  0  0  0  0  0  0  0  0  0  0
  151.0323  143.8168  157.7375 H   0  0  0  0  0  0  0  0  0  0  0  0
  151.6790  145.3946  159.3667 H   0  0  0  0  0  0  0  0  0  0  0  0
  153.2077  145.0363  160.1675 H   0  0  0  0  0  0  0  0  0  0  0  0
  151.6768  144.7732  161.0162 H   0  0  0  0  0  0  0  0  0  0  0  0
  147.7920  143.0374  155.0438 H   0  0  0  0  0  0  0  0  0  0  0  0
  1  2  1  0  0  0  0
  1 25  1  0  0  0  0
  1 26  1  0  0  0  0
  1 27  1  0  0  0  0
  2 23  1  0  0  0  0
  2  3  2  0  0  0  0
  3  4  1  0  0  0  0
  3 28  1  0  0  0  0
  4 21  2  0  0  0  0
  4  5  1  0  0  0  0
  5  6  2  0  0  0  0
  6  7  1  0  0  0  0
  6 29  1  0  0  0  0
  7  8  1  0  0  0  0
  7 21  1  0  0  0  0
  8  9  1  0  0  0  0
  8 30  1  0  0  0  0
  8 31  1  0  0  0  0
  9 10  1  0  0  0  0
  9 11  1  0  0  0  0
  9 32  1  0  0  0  0
 10 33  1  0  0  0  0
 11 12  1  0  0  0  0
 11 34  1  0  0  0  0
 11 35  1  0  0  0  0
 12 20  1  0  0  0  0
 12 13  1  0  0  0  0
 12 51  1  0  0  0  0
 13 14  1  0  0  0  0
 13 36  1  0  0  0  0
 13 37  1  0  0  0  0
 14 15  1  0  0  0  0
 14 38  1  0  0  0  0
 14 39  1  0  0  0  0
 15 16  1  0  0  0  0
 15 19  1  0  0  0  0
 15 40  1  0  0  0  0
 16 17  1  0  0  0  0
 16 18  2  0  0  0  0
 17 41  1  0  0  0  0
 17 42  1  0  0  0  0
 19 20  1  0  0  0  0
 19 43  1  0  0  0  0
 19 44  1  0  0  0  0
 20 45  1  0  0  0  0
 20 46  1  0  0  0  0
 21 22  1  0  0  0  0
 22 23  2  0  0  0  0
 22 47  1  0  0  0  0
 23 24  1  0  0  0  0
 24 48  1  0  0  0  0
 24 49  1  0  0  0  0
 24 50  1  0  0  0  0
M  CHG  1  12   1
M  END
> <s_m_source_file>
AV-unprocessed.smi

> <i_m_source_file_index>
1695

> <i_lp_mmshare_version>
43012

> <i_f3d_flags>
0

> <s_epik_input>
W0NIM11jKFtjSF0xKWMoW0NIM10pW2NIXWMoYzEyKW4oW2NIXW4yKVtDSDJdW0NASF0oW09IXSlbQ0gyXU4zW0NIMl1bQ0gyXVtDSF0oQyg9TylbTkgyXSlbQ0gyXVtDSDJdMw==

> <s_epik_cmdline>
J2VwaWtfcHl0aG9uJywgJy1waCcsICc3LjAnLCAnLXRuJywgJzgnLCAnLW1hJywgJzIwMCcsICctbWV0YWxfYmluZGluZycsICctaW1hZScsICc8aW5maWxlLm1hZT4nLCAnLW9tYWUnLCAnPG91dGZpbGUubWFlPic=

> <r_epik_Ionization_Penalty>
0.113899

> <r_epik_Ionization_Penalty_Charging>
0.0258844

> <r_epik_Ionization_Penalty_Neutral>
0.0880147

> <r_epik_State_Penalty>
0.0974403

> <r_epik_Charging_Adjusted_Penalty>
0.123325

> <i_epik_Tot_Q>
1

> <i_epik_Tot_abs_Q>
1

> <r_epik_Metal_State_Penalty>
0.0851148

> <b_epik_Metal_Only>
0

> <s_lp_Force_Field>
OPLS_2005

> <r_lp_Energy>
17.7393

> <b_lp_Chiralities_Consistent>
1

> <s_lp_Variant>
AV-unprocessed.smi:1695-1

> <Gold.Version>
5.8.1

> <Gold.Id.Protein>
6NUR|6NUR_protein|mol2

> <Gold.PLP.Fitness>
61.8442

> <Gold.PLP.PLP>
-50.7393

> <Gold.PLP.part.hbond>
-3.9696

> <Gold.PLP.part.metal>
0.0000

> <Gold.PLP.part.buried>
-7.0922

> <Gold.PLP.part.nonpolar>
-39.0053

> <Gold.PLP.part.repulsive>
0.2360

> <Gold.PLP.ligand.clash>
0.0000

> <Gold.PLP.ligand.torsion>
0.4651

> <Gold.PLP.Chemscore.Hbond>
3.9600

> <Gold.PLP.Chemscore.CHOScore>
0.0000

> <Gold.PLP.Chemscore.Metal>
0.0000

> <Gold.Chemscore.Hbonds>
donor molecule, donor type, donor heavy atom, donor atom, acceptor molecule, acceptor atom, score
      L1  H    10    33       P1  7957  1.00
      L1  H    12    51       P1  8028  1.82
      P1  H  7989  7998       L1    10  0.94

> <Gold.PLP.Chemscore.Internal.Correction>
0.1552

> <Gold.Rescore>
     Score         DG    S(hbond)    S(metal)    S(lipo)     H(rot)  DE(clash)    DE(int)     intcor
     17.26     -19.10       1.92        0.00     123.84       2.85       0.37       1.48       ----

> <Gold.Chemscore.Fitness>
17.2587

> <Gold.Chemscore.DG>
-19.1011

> <Gold.Chemscore.ZeroCoef>
-5.4800

> <Gold.Chemscore.Hbond>
1.9218

> <Gold.Chemscore.Metal>
0.0000

> <Gold.Chemscore.Lipo>
123.8378

> <Gold.Chemscore.Internal_Hbond>
0.0000

> <Gold.Chemscore.DEClash>
0.3661

> <Gold.Chemscore.DEInternal>
1.4763

> <Gold.Chemscore.Rot>
2.8464

> <Gold.Chemscore.Internal.Correction>
   9.000000E+99

> <Gold.Chemscore.Hbonds>
donor molecule, donor type, donor heavy atom, donor atom, acceptor molecule, acceptor atom, score
      L1  H    10    33       P1  7957  0.91
      L1  H    12    51       P1  8028  0.66
      P1  H  7989  7998       L1    10  0.33

> <Gold.Chemscore.Hbond.Weighted>
-6.4188

> <Gold.Chemscore.Metal.Weighted>
-0.0000

> <Gold.Chemscore.Lipo.Weighted>
-14.4890

> <Gold.Chemscore.Internal_Hbond.Weighted>
0.0000

> <Gold.Chemscore.DEClash.Weighted>
0.3661

> <Gold.Chemscore.DEInternal.Weighted>
1.4763

> <Gold.Chemscore.Rot.Weighted>
7.2867

> <Gold.Chemscore.Internal.Correction.Weighted>
   9.000000E+99

> <Gold.Protein.RotatedTorsions>
[ 6907 6896 6895 6894 ] final -160.52 input  -60.11 | X-H torsion
[ 7974 7965 7964 7962 ] final  -80.11 input  175.53 | X-H torsion
[ 8008 7997 7996 7995 ] final -149.37 input   59.86 | X-H torsion
[ 10167 10162 10161 10158 ] final  155.84 input  -65.29 | X-H torsion
[ 10718 10713 10712 10709 ] final   57.75 input   66.30 | X-H torsion
[ 10763 10752 10751 10750 ] final  104.19 input  -60.55 | X-H torsion
[ 11005 11000 10999 10996 ] final -176.22 input  -57.11 | X-H torsion

> <Gold.Protein.ActiveResidues>
 VAL166  LYS551  ARG553  GLY616  TRP617  ASP618  TYR619  PRO620  LYS621  CYS622 
 ASP623  PHE694  ASN695  SER759  ASP760  ASP761  ALA762  ILE779  LEU786  VAL792 
 PHE793  MET794  SER795  GLU796  ALA797  LYS798  CYS799  TRP800  GLU811  SER814 

> <Gold.Protein.RotatedAtoms>
  151.3504  133.3927  159.2679 H   0  0  0  0  0  0  0  0  0  0  0  0  # atno 6907 bound_to 6896
  150.9806  134.9162  159.7852 H   0  0  0  0  0  0  0  0  0  0  0  0  # atno 6908 bound_to 6896
  152.5215  134.3468  159.9289 H   0  0  0  0  0  0  0  0  0  0  0  0  # atno 6909 bound_to 6896
  145.5642  140.9477  143.1430 H   0  0  0  0  0  0  0  0  0  0  0  0  # atno 7974 bound_to 7965
  155.6065  140.0667  157.2718 H   0  0  0  0  0  0  0  0  0  0  0  0  # atno 8008 bound_to 7997
  154.4265  140.1809  156.1275 H   0  0  0  0  0  0  0  0  0  0  0  0  # atno 8009 bound_to 7997
  156.0119  140.3326  155.6952 H   0  0  0  0  0  0  0  0  0  0  0  0  # atno 8010 bound_to 7997
  139.4821  144.5063  151.8093 H   0  0  0  0  0  0  0  0  0  0  0  0  # atno 10167 bound_to 10162
  157.5540  130.8786  149.9007 H   0  0  0  0  0  0  0  0  0  0  0  0  # atno 10718 bound_to 10713
  153.3626  135.3951  155.1729 H   0  0  0  0  0  0  0  0  0  0  0  0  # atno 10763 bound_to 10752
  154.8681  135.3683  154.5080 H   0  0  0  0  0  0  0  0  0  0  0  0  # atno 10764 bound_to 10752
  153.5541  135.7082  153.5638 H   0  0  0  0  0  0  0  0  0  0  0  0  # atno 10765 bound_to 10752
  140.4545  134.6312  157.4816 H   0  0  0  0  0  0  0  0  0  0  0  0  # atno 11005 bound_to 11000
  144.7468  139.7299  143.7289 LP  0  0  0  0  0  0  0  0  0  0  0  0  # atno 17320 bound_to 7965
  146.1829  139.5031  142.9854 LP  0  0  0  0  0  0  0  0  0  0  0  0  # atno 17321 bound_to 7965
  140.4561  144.1788  150.5901 LP  0  0  0  0  0  0  0  0  0  0  0  0  # atno 17342 bound_to 10162
  140.4534  143.2477  151.9317 LP  0  0  0  0  0  0  0  0  0  0  0  0  # atno 17343 bound_to 10162
  156.0602  130.3701  150.1000 LP  0  0  0  0  0  0  0  0  0  0  0  0  # atno 17370 bound_to 10713
  156.9170  130.9670  151.3554 LP  0  0  0  0  0  0  0  0  0  0  0  0  # atno 17371 bound_to 10713
  139.9985  134.6873  155.9569 LP  0  0  0  0  0  0  0  0  0  0  0  0  # atno 17394 bound_to 11000
  141.1649  133.6537  156.4445 LP  0  0  0  0  0  0  0  0  0  0  0  0  # atno 17395 bound_to 11000

$$$$
