AV-unprocessed.smi:102|AV-procd|sdf|951|dock1
  -GOLD-   2262017483D 1   1.00000     0.00000
 Structure written by MMmdl.
 44 45  0  0  0  0  0  0  0  0  1 V2000
  146.3482  143.1500  158.7339 C   0  0  0  0  0  0  0  0  0  0  0  0
  147.7749  143.3874  159.2117 C   0  0  0  0  0  0  0  0  0  0  0  0
  148.0067  143.9357  160.2895 O   0  0  0  0  0  0  0  0  0  0  0  0
  148.6919  142.9348  158.3369 O   0  0  0  0  0  0  0  0  0  0  0  0
  150.0491  143.3423  158.4414 C   0  0  0  0  0  0  0  0  0  0  0  0
  150.9782  142.3651  157.7050 C   0  0  2  0  0  0  0  0  0  0  0  0
  150.5500  142.1967  156.3617 O   0  0  0  0  0  0  0  0  0  0  0  0
  150.9622  140.9545  155.8818 C   0  0  2  0  0  0  0  0  0  0  0  0
  149.8873  140.4390  154.9443 N   0  0  0  0  0  0  0  0  0  0  0  0
  148.7658  141.2121  154.6784 C   0  0  0  0  0  0  0  0  0  0  0  0
  147.7522  140.7941  153.8838 C   0  0  0  0  0  0  0  0  0  0  0  0
  146.7020  141.6040  153.6671 F   0  0  0  0  0  0  0  0  0  0  0  0
  147.7876  139.4727  153.2643 C   0  0  0  0  0  0  0  0  0  0  0  0
  146.9212  139.0081  152.5261 O   0  0  0  0  0  0  0  0  0  0  0  0
  148.9228  138.7196  153.5766 N   0  0  0  0  0  0  0  0  0  0  0  0
  149.9724  139.1363  154.3967 C   0  0  0  0  0  0  0  0  0  0  0  0
  150.9183  138.3798  154.6121 O   0  0  0  0  0  0  0  0  0  0  0  0
  151.2720  140.0422  157.0929 C   0  0  2  0  0  0  0  0  0  0  0  0
  150.5087  138.8403  157.0885 O   0  0  0  0  0  0  0  0  0  0  0  0
  149.2261  138.8472  157.4835 C   0  0  0  0  0  0  0  0  0  0  0  0
  148.8043  137.5194  158.0974 C   0  0  0  0  0  0  0  0  0  0  0  0
  148.4401  139.7890  157.3826 O   0  0  0  0  0  0  0  0  0  0  0  0
  150.9139  140.9414  158.2766 C   0  0  1  0  0  0  0  0  0  0  0  0
  151.6922  140.7293  159.4594 O   0  0  0  0  0  0  0  0  0  0  0  0
  153.0263  140.5038  159.4520 C   0  0  0  0  0  0  0  0  0  0  0  0
  153.7046  141.0205  160.7139 C   0  0  0  0  0  0  0  0  0  0  0  0
  153.6737  139.9527  158.5621 O   0  0  0  0  0  0  0  0  0  0  0  0
  148.9859  137.7932  153.1801 H   0  0  0  0  0  0  0  0  0  0  0  0
  145.9921  142.1797  159.0803 H   0  0  0  0  0  0  0  0  0  0  0  0
  146.2982  143.1694  157.6451 H   0  0  0  0  0  0  0  0  0  0  0  0
  145.6835  143.9219  159.1224 H   0  0  0  0  0  0  0  0  0  0  0  0
  150.1229  144.3237  157.9726 H   0  0  0  0  0  0  0  0  0  0  0  0
  150.3559  143.4727  159.4805 H   0  0  0  0  0  0  0  0  0  0  0  0
  151.9996  142.7444  157.6889 H   0  0  0  0  0  0  0  0  0  0  0  0
  151.8501  141.1070  155.2671 H   0  0  0  0  0  0  0  0  0  0  0  0
  148.6879  142.1981  155.1133 H   0  0  0  0  0  0  0  0  0  0  0  0
  152.3381  139.8203  157.0485 H   0  0  0  0  0  0  0  0  0  0  0  0
  149.4590  137.2621  158.9301 H   0  0  0  0  0  0  0  0  0  0  0  0
  148.8607  136.7245  157.3535 H   0  0  0  0  0  0  0  0  0  0  0  0
  147.7804  137.5756  158.4672 H   0  0  0  0  0  0  0  0  0  0  0  0
  149.8749  140.7421  158.5415 H   0  0  0  0  0  0  0  0  0  0  0  0
  153.0155  140.9978  161.5583 H   0  0  0  0  0  0  0  0  0  0  0  0
  154.0407  142.0471  160.5675 H   0  0  0  0  0  0  0  0  0  0  0  0
  154.5698  140.4045  160.9598 H   0  0  0  0  0  0  0  0  0  0  0  0
  1  2  1  0  0  0  0
  1 29  1  0  0  0  0
  1 30  1  0  0  0  0
  1 31  1  0  0  0  0
  2  3  2  0  0  0  0
  2  4  1  0  0  0  0
  4  5  1  0  0  0  0
  5  6  1  0  0  0  0
  5 32  1  0  0  0  0
  5 33  1  0  0  0  0
  6 23  1  0  0  0  0
  6  7  1  0  0  0  0
  6 34  1  0  0  0  0
  7  8  1  0  0  0  0
  8  9  1  0  0  0  0
  8 18  1  0  0  0  0
  8 35  1  0  0  0  0
  9 16  1  0  0  0  0
  9 10  1  0  0  0  0
 10 11  2  0  0  0  0
 10 36  1  0  0  0  0
 11 12  1  0  0  0  0
 11 13  1  0  0  0  0
 13 14  2  0  0  0  0
 13 15  1  0  0  0  0
 15 28  1  0  0  0  0
 15 16  1  0  0  0  0
 16 17  2  0  0  0  0
 18 19  1  0  0  0  0
 18 23  1  0  0  0  0
 18 37  1  0  0  0  0
 19 20  1  0  0  0  0
 20 21  1  0  0  0  0
 20 22  2  0  0  0  0
 21 38  1  0  0  0  0
 21 39  1  0  0  0  0
 21 40  1  0  0  0  0
 23 24  1  0  0  0  0
 23 41  1  0  0  0  0
 24 25  1  0  0  0  0
 25 26  1  0  0  0  0
 25 27  2  0  0  0  0
 26 42  1  0  0  0  0
 26 43  1  0  0  0  0
 26 44  1  0  0  0  0
M  END
> <s_m_source_file>
AV-unprocessed.smi

> <i_m_source_file_index>
102

> <i_lp_mmshare_version>
43012

> <i_f3d_flags>
0

> <s_epik_input>
W0NIM11DKD1PKU9bQ0gyXVtDQEBIXTFPW0NASF0oW0NAQEhdKE9DKD1PKVtDSDNdKVtDQEhdMU9DKD1PKVtDSDNdKW4yW2NIXWMoRiljKD1PKVtuSF1jMj1P

> <s_epik_cmdline>
J2VwaWtfcHl0aG9uJywgJy1waCcsICc3LjAnLCAnLXRuJywgJzgnLCAnLW1hJywgJzIwMCcsICctbWV0YWxfYmluZGluZycsICctaW1hZScsICc8aW5maWxlLm1hZT4nLCAnLW9tYWUnLCAnPG91dGZpbGUubWFlPic=

> <r_lp_tautomer_probability>
0.999537

> <r_epik_Ionization_Penalty>
0.058267

> <r_epik_Ionization_Penalty_Charging>
0.058267

> <r_epik_Ionization_Penalty_Neutral>
6.57791e-16

> <r_epik_State_Penalty>
0.0503774

> <r_epik_Charging_Adjusted_Penalty>
0.108644

> <i_epik_Tot_Q>
0

> <i_epik_Tot_abs_Q>
0

> <r_epik_Metal_State_Penalty>
2.6644

> <b_epik_Metal_Only>
0

> <s_epik_Chemistry_Notes>
This compound has an ester and may undergo hydrolysis at high or low pH. This compound contains an acetal/aminal-like group ( X-CH(R)-Y where X, Y are N, S, or O) that may be acid/base labile, releasing an aldehyde.

> <s_lp_Force_Field>
OPLS_2005

> <r_lp_Energy>
7.12504

> <b_lp_Chiralities_Consistent>
1

> <s_lp_Variant>
AV-unprocessed.smi:102-7

> <Gold.Version>
5.8.1

> <Gold.Id.Protein>
6NUR|6NUR_protein|mol2

> <Gold.PLP.Fitness>
47.6351

> <Gold.PLP.PLP>
-38.4749

> <Gold.PLP.part.hbond>
-4.0000

> <Gold.PLP.part.metal>
0.0000

> <Gold.PLP.part.buried>
-3.3781

> <Gold.PLP.part.nonpolar>
-32.0402

> <Gold.PLP.part.repulsive>
1.2829

> <Gold.PLP.ligand.clash>
0.0000

> <Gold.PLP.ligand.torsion>
1.4835

> <Gold.PLP.Chemscore.Hbond>
2.9588

> <Gold.PLP.Chemscore.CHOScore>
0.9979

> <Gold.PLP.Chemscore.Metal>
0.0000

> <Gold.Chemscore.Hbonds>
donor molecule, donor type, donor heavy atom, donor atom, acceptor molecule, acceptor atom, score
      L1  H    15    28       P1  7948  1.00
      P1  H  6933  6944       L1     3  1.00
      P1  H  7997  8009       L1    27  0.94
      L1  C    10    36       P1  8028  0.89

> <Gold.PLP.Chemscore.Internal.Correction>
0.2573

> <Gold.Rescore>
     Score         DG    S(hbond)    S(metal)    S(lipo)     H(rot)  DE(clash)    DE(int)     intcor
      2.12     -10.23       2.82        0.00      48.84       4.05       0.35       7.76       ----

> <Gold.Chemscore.Fitness>
2.1197

> <Gold.Chemscore.DG>
-10.2272

> <Gold.Chemscore.ZeroCoef>
-5.4800

> <Gold.Chemscore.Hbond>
2.8162

> <Gold.Chemscore.Metal>
0.0000

> <Gold.Chemscore.Lipo>
48.8406

> <Gold.Chemscore.Internal_Hbond>
0.0000

> <Gold.Chemscore.DEClash>
0.3461

> <Gold.Chemscore.DEInternal>
7.7613

> <Gold.Chemscore.Rot>
4.0520

> <Gold.Chemscore.Internal.Correction>
   9.000000E+99

> <Gold.Chemscore.Hbonds>
donor molecule, donor type, donor heavy atom, donor atom, acceptor molecule, acceptor atom, score
      L1  H    15    28       P1  7948  0.94
      P1  H  6933  6944       L1     3  0.33
      P1  H  7997  8009       L1    27  0.91

> <Gold.Chemscore.Hbond.Weighted>
-9.4060

> <Gold.Chemscore.Metal.Weighted>
-0.0000

> <Gold.Chemscore.Lipo.Weighted>
-5.7143

> <Gold.Chemscore.Internal_Hbond.Weighted>
0.0000

> <Gold.Chemscore.DEClash.Weighted>
0.3461

> <Gold.Chemscore.DEInternal.Weighted>
7.7613

> <Gold.Chemscore.Rot.Weighted>
10.3732

> <Gold.Chemscore.Internal.Correction.Weighted>
   9.000000E+99

> <Gold.Protein.RotatedTorsions>
[ 6907 6896 6895 6894 ] final   33.25 input  -60.11 | X-H torsion
[ 7974 7965 7964 7962 ] final  148.31 input  175.53 | X-H torsion
[ 8008 7997 7996 7995 ] final  129.50 input   59.86 | X-H torsion
[ 10167 10162 10161 10158 ] final -152.10 input  -65.29 | X-H torsion
[ 10718 10713 10712 10709 ] final -142.44 input   66.30 | X-H torsion
[ 10763 10752 10751 10750 ] final  -41.52 input  -60.55 | X-H torsion
[ 11005 11000 10999 10996 ] final   13.64 input  -57.11 | X-H torsion

> <Gold.Protein.ActiveResidues>
 VAL166  LYS551  ARG553  GLY616  TRP617  ASP618  TYR619  PRO620  LYS621  CYS622 
 ASP623  PHE694  ASN695  SER759  ASP760  ASP761  ALA762  ILE779  LEU786  VAL792 
 PHE793  MET794  SER795  GLU796  ALA797  LYS798  CYS799  TRP800  GLU811  SER814 

> <Gold.Protein.RotatedAtoms>
  152.0858  134.9440  160.0572 H   0  0  0  0  0  0  0  0  0  0  0  0  # atno 6907 bound_to 6896
  152.0711  133.4102  159.4468 H   0  0  0  0  0  0  0  0  0  0  0  0  # atno 6908 bound_to 6896
  150.6836  134.3011  159.4750 H   0  0  0  0  0  0  0  0  0  0  0  0  # atno 6909 bound_to 6896
  144.8523  139.6138  143.5968 H   0  0  0  0  0  0  0  0  0  0  0  0  # atno 7974 bound_to 7965
  156.2937  140.2619  156.2609 H   0  0  0  0  0  0  0  0  0  0  0  0  # atno 8008 bound_to 7997
  154.9789  140.0390  157.2287 H   0  0  0  0  0  0  0  0  0  0  0  0  # atno 8009 bound_to 7997
  154.7790  140.2791  155.6083 H   0  0  0  0  0  0  0  0  0  0  0  0  # atno 8010 bound_to 7997
  139.7211  143.8956  152.2503 H   0  0  0  0  0  0  0  0  0  0  0  0  # atno 10167 bound_to 10162
  156.3460  130.7663  151.1807 H   0  0  0  0  0  0  0  0  0  0  0  0  # atno 10718 bound_to 10713
  153.9639  135.6736  153.4745 H   0  0  0  0  0  0  0  0  0  0  0  0  # atno 10763 bound_to 10752
  153.0825  135.4916  154.8528 H   0  0  0  0  0  0  0  0  0  0  0  0  # atno 10764 bound_to 10752
  154.7257  135.3127  154.8935 H   0  0  0  0  0  0  0  0  0  0  0  0  # atno 10765 bound_to 10752
  140.4784  134.0960  155.7746 H   0  0  0  0  0  0  0  0  0  0  0  0  # atno 11005 bound_to 11000
  146.2795  139.6840  142.9239 LP  0  0  0  0  0  0  0  0  0  0  0  0  # atno 17320 bound_to 7965
  145.4474  141.0426  143.2823 LP  0  0  0  0  0  0  0  0  0  0  0  0  # atno 17321 bound_to 7965
  139.8852  144.6996  150.8832 LP  0  0  0  0  0  0  0  0  0  0  0  0  # atno 17342 bound_to 10162
  140.7754  143.3629  151.1793 LP  0  0  0  0  0  0  0  0  0  0  0  0  # atno 17343 bound_to 10162
  157.7454  131.0441  150.4776 LP  0  0  0  0  0  0  0  0  0  0  0  0  # atno 17370 bound_to 10713
  156.4964  130.4107  149.6377 LP  0  0  0  0  0  0  0  0  0  0  0  0  # atno 17371 bound_to 10713
  141.1543  133.8911  157.2018 LP  0  0  0  0  0  0  0  0  0  0  0  0  # atno 17394 bound_to 11000
  139.9841  135.0088  156.9821 LP  0  0  0  0  0  0  0  0  0  0  0  0  # atno 17395 bound_to 11000

$$$$
