AV-unprocessed.smi:36|AV-procd|sdf|297|dock4
  -GOLD-   2262016 93D 1   1.00000     0.00000
 Structure written by MMmdl.
 63 66  0  0  0  0  0  0  0  0  2 V2000
  149.8180  133.3681  156.2037 C   0  0  0  0  0  0  0  0  0  0  0  0
  149.2359  134.4085  155.2328 C   0  0  0  0  0  0  0  0  0  0  0  0
  150.3421  135.3763  154.7812 C   0  0  0  0  0  0  0  0  0  0  0  0
  148.6332  133.7027  154.0063 C   0  0  0  0  0  0  0  0  0  0  0  0
  147.8616  135.4028  156.1124 Si  0  0  0  0  0  0  0  0  0  0  0  0
  146.3491  134.3111  156.4761 C   0  0  0  0  0  0  0  0  0  0  0  0
  148.4987  136.1776  157.7257 C   0  0  0  0  0  0  0  0  0  0  0  0
  147.3865  136.6511  155.0756 O   0  0  0  0  0  0  0  0  0  0  0  0
  146.2705  137.4825  155.3109 C   0  0  0  0  0  0  0  0  0  0  0  0
  146.3269  138.6724  154.3449 C   0  0  2  0  0  0  0  0  0  0  0  0
  147.6352  138.8151  153.7852 O   0  0  0  0  0  0  0  0  0  0  0  0
  148.0365  140.1547  153.8108 C   0  0  2  0  0  0  0  0  0  0  0  0
  149.0207  140.3344  154.9262 N   0  0  0  0  0  0  0  0  0  0  0  0
  148.8833  140.9911  156.0978 C   0  0  0  0  0  0  0  0  0  0  0  0
  149.9244  140.9903  156.9282 N   0  0  0  0  0  0  0  0  0  0  0  0
  150.8455  140.2308  156.2222 C   0  0  0  0  0  0  0  0  0  0  0  0
  152.1754  139.8207  156.5122 C   0  0  0  0  0  0  0  0  0  0  0  0
  152.8022  140.1487  157.6519 N   0  5  0  0  0  0  0  0  0  0  0  0
  152.1092  140.7354  158.6604 C   0  0  0  0  0  0  0  0  0  0  0  0
  151.4118  140.1894  159.5181 O   0  0  0  0  0  0  0  0  0  0  0  0
  152.1850  142.2384  158.6359 C   0  0  0  0  0  0  0  0  0  0  0  0
  151.8376  142.9379  157.4576 C   0  0  0  0  0  0  0  0  0  0  0  0
  151.8803  144.3452  157.4213 C   0  0  0  0  0  0  0  0  0  0  0  0
  152.2610  145.0689  158.5667 C   0  0  0  0  0  0  0  0  0  0  0  0
  152.5959  144.3841  159.7498 C   0  0  0  0  0  0  0  0  0  0  0  0
  152.5541  142.9766  159.7868 C   0  0  0  0  0  0  0  0  0  0  0  0
  152.7969  139.0478  155.5848 N   0  0  0  0  0  0  0  0  0  0  0  0
  152.1686  138.7142  154.4513 C   0  0  0  0  0  0  0  0  0  0  0  0
  150.9348  139.0342  154.0487 N   0  0  0  0  0  0  0  0  0  0  0  0
  150.2983  139.8055  154.9775 C   0  0  0  0  0  0  0  0  0  0  0  0
  146.7761  140.9730  154.0921 C   0  0  0  0  0  0  0  0  0  0  0  0
  145.9972  140.0270  154.9822 C   0  0  1  0  0  0  0  0  0  0  0  0
  144.6160  140.3214  154.9470 O   0  0  0  0  0  0  0  0  0  0  0  0
  150.6084  132.7846  155.7307 H   0  0  0  0  0  0  0  0  0  0  0  0
  149.0534  132.6696  156.5446 H   0  0  0  0  0  0  0  0  0  0  0  0
  150.2459  133.8445  157.0862 H   0  0  0  0  0  0  0  0  0  0  0  0
  150.7946  135.8879  155.6311 H   0  0  0  0  0  0  0  0  0  0  0  0
  149.9499  136.1399  154.1085 H   0  0  0  0  0  0  0  0  0  0  0  0
  151.1384  134.8502  154.2537 H   0  0  0  0  0  0  0  0  0  0  0  0
  149.3913  133.1414  153.4590 H   0  0  0  0  0  0  0  0  0  0  0  0
  148.1907  134.4203  153.3141 H   0  0  0  0  0  0  0  0  0  0  0  0
  147.8511  133.0003  154.2951 H   0  0  0  0  0  0  0  0  0  0  0  0
  146.6102  133.4628  157.1084 H   0  0  0  0  0  0  0  0  0  0  0  0
  145.9126  133.9132  155.5603 H   0  0  0  0  0  0  0  0  0  0  0  0
  145.5670  134.8691  156.9909 H   0  0  0  0  0  0  0  0  0  0  0  0
  148.8355  135.4171  158.4297 H   0  0  0  0  0  0  0  0  0  0  0  0
  147.7228  136.7586  158.2235 H   0  0  0  0  0  0  0  0  0  0  0  0
  149.3388  136.8476  157.5440 H   0  0  0  0  0  0  0  0  0  0  0  0
  145.3468  136.9170  155.1900 H   0  0  0  0  0  0  0  0  0  0  0  0
  146.3077  137.8344  156.3423 H   0  0  0  0  0  0  0  0  0  0  0  0
  145.6591  138.4896  153.5013 H   0  0  0  0  0  0  0  0  0  0  0  0
  148.5800  140.4476  152.9118 H   0  0  0  0  0  0  0  0  0  0  0  0
  147.9689  141.4984  156.3641 H   0  0  0  0  0  0  0  0  0  0  0  0
  151.5419  142.3969  156.5704 H   0  0  0  0  0  0  0  0  0  0  0  0
  151.6190  144.8690  156.5136 H   0  0  0  0  0  0  0  0  0  0  0  0
  152.2930  146.1480  158.5389 H   0  0  0  0  0  0  0  0  0  0  0  0
  152.8827  144.9377  160.6316 H   0  0  0  0  0  0  0  0  0  0  0  0
  152.8048  142.4702  160.7079 H   0  0  0  0  0  0  0  0  0  0  0  0
  152.7371  138.1011  153.7681 H   0  0  0  0  0  0  0  0  0  0  0  0
  146.9959  141.9374  154.5512 H   0  0  0  0  0  0  0  0  0  0  0  0
  146.2596  141.1415  153.1460 H   0  0  0  0  0  0  0  0  0  0  0  0
  146.3669  140.0810  156.0072 H   0  0  0  0  0  0  0  0  0  0  0  0
  144.2887  140.1202  154.0840 H   0  0  0  0  0  0  0  0  0  0  0  0
  1  2  1  0  0  0  0
  1 34  1  0  0  0  0
  1 35  1  0  0  0  0
  1 36  1  0  0  0  0
  2  3  1  0  0  0  0
  2  4  1  0  0  0  0
  2  5  1  0  0  0  0
  3 37  1  0  0  0  0
  3 38  1  0  0  0  0
  3 39  1  0  0  0  0
  4 40  1  0  0  0  0
  4 41  1  0  0  0  0
  4 42  1  0  0  0  0
  5  6  1  0  0  0  0
  5  7  1  0  0  0  0
  5  8  1  0  0  0  0
  6 43  1  0  0  0  0
  6 44  1  0  0  0  0
  6 45  1  0  0  0  0
  7 46  1  0  0  0  0
  7 47  1  0  0  0  0
  7 48  1  0  0  0  0
  8  9  1  0  0  0  0
  9 10  1  0  0  0  0
  9 49  1  0  0  0  0
  9 50  1  0  0  0  0
 10 32  1  0  0  0  0
 10 11  1  0  0  0  0
 10 51  1  0  0  0  0
 11 12  1  0  0  0  0
 12 13  1  0  0  0  0
 12 31  1  0  0  0  0
 12 52  1  0  0  0  0
 13 30  1  0  0  0  0
 13 14  1  0  0  0  0
 14 15  2  0  0  0  0
 14 53  1  0  0  0  0
 15 16  1  0  0  0  0
 16 30  2  0  0  0  0
 16 17  1  0  0  0  0
 17 18  1  0  0  0  0
 17 27  2  0  0  0  0
 18 19  1  0  0  0  0
 19 20  2  0  0  0  0
 19 21  1  0  0  0  0
 21 26  1  0  0  0  0
 21 22  2  0  0  0  0
 22 23  1  0  0  0  0
 22 54  1  0  0  0  0
 23 24  2  0  0  0  0
 23 55  1  0  0  0  0
 24 25  1  0  0  0  0
 24 56  1  0  0  0  0
 25 26  2  0  0  0  0
 25 57  1  0  0  0  0
 26 58  1  0  0  0  0
 27 28  1  0  0  0  0
 28 29  2  0  0  0  0
 28 59  1  0  0  0  0
 29 30  1  0  0  0  0
 31 32  1  0  0  0  0
 31 60  1  0  0  0  0
 31 61  1  0  0  0  0
 32 33  1  0  0  0  0
 32 62  1  0  0  0  0
 33 63  1  0  0  0  0
M  CHG  1  18  -1
M  END
> <s_m_source_file>
AV-unprocessed.smi

> <i_m_source_file_index>
36

> <i_lp_mmshare_version>
43012

> <i_f3d_flags>
0

> <s_epik_input>
W0NIM11DKFtDSDNdKShbQ0gzXSlbU2ldKFtDSDNdKShbQ0gzXSlPW0NIMl1bQ0BASF0xT1tDQEhdKFtDSDJdW0NASF0xW09IXSluKFtjSF1uMiljKGMyMyluW2NIXW5jM1tOSF1DKD1PKWM0W2NIXVtjSF1bY0hdW2NIXVtjSF00

> <s_epik_cmdline>
J2VwaWtfcHl0aG9uJywgJy1waCcsICc3LjAnLCAnLXRuJywgJzgnLCAnLW1hJywgJzIwMCcsICctbWV0YWxfYmluZGluZycsICctaW1hZScsICc8aW5maWxlLm1hZT4nLCAnLW9tYWUnLCAnPG91dGZpbGUubWFlPic=

> <r_lp_tautomer_probability>
1

> <r_epik_Ionization_Penalty>
4.75685

> <r_epik_Ionization_Penalty_Charging>
3.55822

> <r_epik_Ionization_Penalty_Neutral>
1.19863

> <r_epik_State_Penalty>
3.564

> <r_epik_Charging_Adjusted_Penalty>
7.12222

> <i_epik_Tot_Q>
-1

> <i_epik_Tot_abs_Q>
1

> <r_epik_Metal_State_Penalty>
0.523258

> <b_epik_Metal_Only>
1

> <s_epik_Chemistry_Notes>
This compound contains an acetal/aminal-like group ( X-CH(R)-Y where X, Y are N, S, or O) that may be acid/base labile, releasing an aldehyde.

> <s_lp_Force_Field>
OPLS_2005

> <r_lp_Energy>
31.8386

> <b_lp_Chiralities_Consistent>
1

> <s_lp_Variant>
AV-unprocessed.smi:36-19

> <Gold.Version>
5.8.1

> <Gold.Id.Protein>
6NUR|6NUR_protein|mol2

> <Gold.PLP.Fitness>
51.4614

> <Gold.PLP.PLP>
-48.2269

> <Gold.PLP.part.hbond>
-4.4357

> <Gold.PLP.part.metal>
0.0000

> <Gold.PLP.part.buried>
-0.3672

> <Gold.PLP.part.nonpolar>
-42.0038

> <Gold.PLP.part.repulsive>
0.5189

> <Gold.PLP.ligand.clash>
0.0000

> <Gold.PLP.ligand.torsion>
2.6513

> <Gold.PLP.Chemscore.Hbond>
2.6179

> <Gold.PLP.Chemscore.CHOScore>
0.0000

> <Gold.PLP.Chemscore.Metal>
0.0000

> <Gold.Chemscore.Hbonds>
donor molecule, donor type, donor heavy atom, donor atom, acceptor molecule, acceptor atom, score
      L1  H    33    63       P1 10175  1.00
      P1  H  7989  7998       L1    29  0.04
      P1  H  7997  8008       L1    18  1.60

> <Gold.PLP.Chemscore.Internal.Correction>
0.6833

> <Gold.Rescore>
     Score         DG    S(hbond)    S(metal)    S(lipo)     H(rot)  DE(clash)    DE(int)     intcor
      8.87     -15.38       1.18        0.00     109.42       2.67       0.34       6.17       ----

> <Gold.Chemscore.Fitness>
8.8723

> <Gold.Chemscore.DG>
-15.3794

> <Gold.Chemscore.ZeroCoef>
-5.4800

> <Gold.Chemscore.Hbond>
1.1776

> <Gold.Chemscore.Metal>
0.0000

> <Gold.Chemscore.Lipo>
109.4197

> <Gold.Chemscore.Internal_Hbond>
0.0000

> <Gold.Chemscore.DEClash>
0.3369

> <Gold.Chemscore.DEInternal>
6.1703

> <Gold.Chemscore.Rot>
2.6702

> <Gold.Chemscore.Internal.Correction>
   9.000000E+99

> <Gold.Chemscore.Hbonds>
donor molecule, donor type, donor heavy atom, donor atom, acceptor molecule, acceptor atom, score
      L1  H    33    63       P1 10175  0.99
      P1  H  7997  8008       L1    18  0.20

> <Gold.Chemscore.Hbond.Weighted>
-3.9331

> <Gold.Chemscore.Metal.Weighted>
-0.0000

> <Gold.Chemscore.Lipo.Weighted>
-12.8021

> <Gold.Chemscore.Internal_Hbond.Weighted>
0.0000

> <Gold.Chemscore.DEClash.Weighted>
0.3369

> <Gold.Chemscore.DEInternal.Weighted>
6.1703

> <Gold.Chemscore.Rot.Weighted>
6.8358

> <Gold.Chemscore.Internal.Correction.Weighted>
   9.000000E+99

> <Gold.Protein.RotatedTorsions>
[ 6907 6896 6895 6894 ] final -146.92 input  -60.11 | X-H torsion
[ 7974 7965 7964 7962 ] final  -10.92 input  175.53 | X-H torsion
[ 8008 7997 7996 7995 ] final  -90.16 input   59.86 | X-H torsion
[ 10167 10162 10161 10158 ] final   70.64 input  -65.29 | X-H torsion
[ 10718 10713 10712 10709 ] final -150.57 input   66.30 | X-H torsion
[ 10763 10752 10751 10750 ] final   98.04 input  -60.55 | X-H torsion
[ 11005 11000 10999 10996 ] final -113.03 input  -57.11 | X-H torsion

> <Gold.Protein.ActiveResidues>
 VAL166  LYS551  ARG553  GLY616  TRP617  ASP618  TYR619  PRO620  LYS621  CYS622 
 ASP623  PHE694  ASN695  SER759  ASP760  ASP761  ALA762  ILE779  LEU786  VAL792 
 PHE793  MET794  SER795  GLU796  ALA797  LYS798  CYS799  TRP800  GLU811  SER814 

> <Gold.Protein.RotatedAtoms>
  151.1484  133.4924  159.2595 H   0  0  0  0  0  0  0  0  0  0  0  0  # atno 6907 bound_to 6896
  151.1580  135.0259  159.8707 H   0  0  0  0  0  0  0  0  0  0  0  0  # atno 6908 bound_to 6896
  152.5463  134.1361  159.8512 H   0  0  0  0  0  0  0  0  0  0  0  0  # atno 6909 bound_to 6896
  146.2205  140.2834  142.8364 H   0  0  0  0  0  0  0  0  0  0  0  0  # atno 7974 bound_to 7965
  154.6952  140.0533  157.0403 H   0  0  0  0  0  0  0  0  0  0  0  0  # atno 8008 bound_to 7997
  155.0761  140.3204  155.4597 H   0  0  0  0  0  0  0  0  0  0  0  0  # atno 8009 bound_to 7997
  156.2742  140.2073  156.5888 H   0  0  0  0  0  0  0  0  0  0  0  0  # atno 8010 bound_to 7997
  140.0547  144.5282  150.7337 H   0  0  0  0  0  0  0  0  0  0  0  0  # atno 10167 bound_to 10162
  156.4478  130.8153  151.2384 H   0  0  0  0  0  0  0  0  0  0  0  0  # atno 10718 bound_to 10713
  153.2842  135.4162  155.1107 H   0  0  0  0  0  0  0  0  0  0  0  0  # atno 10763 bound_to 10752
  154.8499  135.3502  154.6070 H   0  0  0  0  0  0  0  0  0  0  0  0  # atno 10764 bound_to 10752
  153.6491  135.7053  153.5273 H   0  0  0  0  0  0  0  0  0  0  0  0  # atno 10765 bound_to 10752
  141.0639  133.9491  157.2615 H   0  0  0  0  0  0  0  0  0  0  0  0  # atno 11005 bound_to 11000
  144.9180  140.7835  143.5766 LP  0  0  0  0  0  0  0  0  0  0  0  0  # atno 17320 bound_to 7965
  145.2769  139.1933  143.4811 LP  0  0  0  0  0  0  0  0  0  0  0  0  # atno 17321 bound_to 7965
  140.7200  143.2580  151.4310 LP  0  0  0  0  0  0  0  0  0  0  0  0  # atno 17342 bound_to 10162
  139.5931  144.1456  152.2111 LP  0  0  0  0  0  0  0  0  0  0  0  0  # atno 17343 bound_to 10162
  157.7504  131.0147  150.3476 LP  0  0  0  0  0  0  0  0  0  0  0  0  # atno 17370 bound_to 10713
  156.3848  130.3887  149.7074 LP  0  0  0  0  0  0  0  0  0  0  0  0  # atno 17371 bound_to 10713
  139.9458  135.0184  156.8847 LP  0  0  0  0  0  0  0  0  0  0  0  0  # atno 17394 bound_to 11000
  140.5813  134.0349  155.7465 LP  0  0  0  0  0  0  0  0  0  0  0  0  # atno 17395 bound_to 11000

$$$$
