AV-unprocessed.smi:2906|AV-procd|sdf|11163|dock9
  -GOLD-   2272016 53D 1   1.00000     0.00000
 Structure written by MMmdl.
 40 41  0  0  0  0  0  0  0  0  1 V2000
  150.7475  140.8300  157.7322 C   0  0  0  0  0  0  0  0  0  0  0  0
  150.3563  141.6985  156.5258 C   0  0  0  0  0  0  0  0  0  0  0  0
  150.1468  140.8989  155.2287 C   0  0  0  0  0  0  0  0  0  0  0  0
  151.0613  140.2048  154.7815 O   0  0  0  0  0  0  0  0  0  0  0  0
  148.9494  140.9862  154.6128 N   0  0  0  0  0  0  0  0  0  0  0  0
  147.8386  141.7875  155.1197 C   0  0  0  0  0  0  0  0  0  0  0  0
  146.6260  141.4125  154.2676 C   0  0  0  0  0  0  0  0  0  0  0  0
  147.2190  140.8943  152.9604 C   0  0  2  0  0  0  0  0  0  0  0  0
  146.3563  139.8977  152.3339 N   0  0  0  0  0  0  0  0  0  0  0  0
  146.2604  138.6183  152.7224 C   0  0  0  0  0  0  0  0  0  0  0  0
  146.8976  138.1474  153.6652 O   0  0  0  0  0  0  0  0  0  0  0  0
  145.3891  137.9397  151.9555 N   0  0  0  0  0  0  0  0  0  0  0  0
  145.0118  136.5749  152.0549 C   0  0  0  0  0  0  0  0  0  0  0  0
  145.1703  135.6762  151.0769 N   0  0  0  0  0  0  0  0  0  0  0  0
  144.7149  134.4066  151.4458 C   0  0  0  0  0  0  0  0  0  0  0  0
  144.8161  133.2673  150.4777 C   0  0  0  0  0  0  0  0  0  0  0  0
  146.2594  132.7844  150.2954 C   0  0  0  0  0  0  0  0  0  0  0  0
  144.2076  134.3619  152.7216 C   0  0  0  0  0  0  0  0  0  0  0  0
  144.2836  135.9146  153.5109 S   0  0  0  0  0  0  0  0  0  0  0  0
  148.5796  140.3128  153.3696 C   0  0  0  0  0  0  0  0  0  0  0  0
  150.8962  141.4475  158.6181 H   0  0  0  0  0  0  0  0  0  0  0  0
  151.6765  140.2888  157.5490 H   0  0  0  0  0  0  0  0  0  0  0  0
  149.9713  140.1008  157.9677 H   0  0  0  0  0  0  0  0  0  0  0  0
  149.4382  142.2397  156.7571 H   0  0  0  0  0  0  0  0  0  0  0  0
  151.1340  142.4452  156.3620 H   0  0  0  0  0  0  0  0  0  0  0  0
  147.6507  141.6053  156.1791 H   0  0  0  0  0  0  0  0  0  0  0  0
  148.0800  142.8442  154.9956 H   0  0  0  0  0  0  0  0  0  0  0  0
  146.0718  140.6185  154.7707 H   0  0  0  0  0  0  0  0  0  0  0  0
  145.9424  142.2487  154.1180 H   0  0  0  0  0  0  0  0  0  0  0  0
  147.3741  141.7398  152.2872 H   0  0  0  0  0  0  0  0  0  0  0  0
  145.7976  140.2042  151.5510 H   0  0  0  0  0  0  0  0  0  0  0  0
  144.9426  138.4597  151.2147 H   0  0  0  0  0  0  0  0  0  0  0  0
  144.1999  132.4335  150.8158 H   0  0  0  0  0  0  0  0  0  0  0  0
  144.4117  133.5640  149.5094 H   0  0  0  0  0  0  0  0  0  0  0  0
  146.3053  131.9543  149.5903 H   0  0  0  0  0  0  0  0  0  0  0  0
  146.6819  132.4429  151.2407 H   0  0  0  0  0  0  0  0  0  0  0  0
  146.8966  133.5818  149.9121 H   0  0  0  0  0  0  0  0  0  0  0  0
  143.7967  133.5109  153.2445 H   0  0  0  0  0  0  0  0  0  0  0  0
  149.3189  140.4661  152.5822 H   0  0  0  0  0  0  0  0  0  0  0  0
  148.5076  139.2409  153.5625 H   0  0  0  0  0  0  0  0  0  0  0  0
  1  2  1  0  0  0  0
  1 21  1  0  0  0  0
  1 22  1  0  0  0  0
  1 23  1  0  0  0  0
  2  3  1  0  0  0  0
  2 24  1  0  0  0  0
  2 25  1  0  0  0  0
  3  4  2  0  0  0  0
  3  5  1  0  0  0  0
  5 20  1  0  0  0  0
  5  6  1  0  0  0  0
  6  7  1  0  0  0  0
  6 26  1  0  0  0  0
  6 27  1  0  0  0  0
  7  8  1  0  0  0  0
  7 28  1  0  0  0  0
  7 29  1  0  0  0  0
  8  9  1  0  0  0  0
  8 20  1  0  0  0  0
  8 30  1  0  0  0  0
  9 10  1  0  0  0  0
  9 31  1  0  0  0  0
 10 11  2  0  0  0  0
 10 12  1  0  0  0  0
 12 13  1  0  0  0  0
 12 32  1  0  0  0  0
 13 19  1  0  0  0  0
 13 14  2  0  0  0  0
 14 15  1  0  0  0  0
 15 16  1  0  0  0  0
 15 18  2  0  0  0  0
 16 17  1  0  0  0  0
 16 33  1  0  0  0  0
 16 34  1  0  0  0  0
 17 35  1  0  0  0  0
 17 36  1  0  0  0  0
 17 37  1  0  0  0  0
 18 19  1  0  0  0  0
 18 38  1  0  0  0  0
 20 39  1  0  0  0  0
 20 40  1  0  0  0  0
M  END
> <s_m_source_file>
AV-unprocessed.smi

> <i_m_source_file_index>
2906

> <i_lp_mmshare_version>
43012

> <i_f3d_flags>
0

> <s_epik_input>
W0NIM11bQ0gyXUMoPU8pTjFbQ0gyXVtDSDJdW0NASF0oW0NIMl0xKVtOSF1DKD1PKVtOSF1jMm5jKFtjSF1zMilbQ0gyXVtDSDNd

> <s_epik_cmdline>
J2VwaWtfcHl0aG9uJywgJy1waCcsICc3LjAnLCAnLXRuJywgJzgnLCAnLW1hJywgJzIwMCcsICctbWV0YWxfYmluZGluZycsICctaW1hZScsICc8aW5maWxlLm1hZT4nLCAnLW9tYWUnLCAnPG91dGZpbGUubWFlPic=

> <r_lp_tautomer_probability>
1

> <r_epik_Ionization_Penalty>
0.000174744

> <r_epik_Ionization_Penalty_Charging>
0

> <r_epik_Ionization_Penalty_Neutral>
0.000174744

> <r_epik_State_Penalty>
-0

> <r_epik_Charging_Adjusted_Penalty>
0

> <i_epik_Tot_Q>
0

> <i_epik_Tot_abs_Q>
0

> <r_epik_Metal_State_Penalty>
0.0273865

> <b_epik_Metal_Only>
0

> <s_lp_Force_Field>
OPLS_2005

> <r_lp_Energy>
21.1229

> <b_lp_Chiralities_Consistent>
1

> <s_lp_Variant>
AV-unprocessed.smi:2906-2

> <Gold.Version>
5.8.1

> <Gold.Id.Protein>
6NUR|6NUR_protein|mol2

> <Gold.PLP.Fitness>
40.5126

> <Gold.PLP.PLP>
-32.6550

> <Gold.PLP.part.hbond>
-3.9913

> <Gold.PLP.part.metal>
0.0000

> <Gold.PLP.part.buried>
-1.1080

> <Gold.PLP.part.nonpolar>
-28.2395

> <Gold.PLP.part.repulsive>
0.4932

> <Gold.PLP.ligand.clash>
0.0000

> <Gold.PLP.ligand.torsion>
0.9681

> <Gold.PLP.Chemscore.Hbond>
2.2608

> <Gold.PLP.Chemscore.CHOScore>
1.0000

> <Gold.PLP.Chemscore.Metal>
0.0000

> <Gold.Chemscore.Hbonds>
donor molecule, donor type, donor heavy atom, donor atom, acceptor molecule, acceptor atom, score
      L1  H     9    31       P1 10175  0.02
      L1  H    12    32       P1 10171  1.00
      P1  H  7989  7998       L1     4  1.00
      L1  C    18    38       P1 10957  0.87

> <Gold.PLP.Chemscore.Internal.Correction>
0.0115

> <Gold.Rescore>
     Score         DG    S(hbond)    S(metal)    S(lipo)     H(rot)  DE(clash)    DE(int)     intcor
     12.55     -16.10       2.03        0.00      63.83       1.41       1.39       2.16       ----

> <Gold.Chemscore.Fitness>
12.5519

> <Gold.Chemscore.DG>
-16.1024

> <Gold.Chemscore.ZeroCoef>
-5.4800

> <Gold.Chemscore.Hbond>
2.0254

> <Gold.Chemscore.Metal>
0.0000

> <Gold.Chemscore.Lipo>
63.8250

> <Gold.Chemscore.Internal_Hbond>
0.0000

> <Gold.Chemscore.DEClash>
1.3877

> <Gold.Chemscore.DEInternal>
2.1628

> <Gold.Chemscore.Rot>
1.4102

> <Gold.Chemscore.Internal.Correction>
   9.000000E+99

> <Gold.Chemscore.Hbonds>
donor molecule, donor type, donor heavy atom, donor atom, acceptor molecule, acceptor atom, score
      L1  H    12    32       P1 10171  0.97
      P1  H  7989  7998       L1     4  0.67

> <Gold.Chemscore.Hbond.Weighted>
-6.7650

> <Gold.Chemscore.Metal.Weighted>
-0.0000

> <Gold.Chemscore.Lipo.Weighted>
-7.4675

> <Gold.Chemscore.Internal_Hbond.Weighted>
0.0000

> <Gold.Chemscore.DEClash.Weighted>
1.3877

> <Gold.Chemscore.DEInternal.Weighted>
2.1628

> <Gold.Chemscore.Rot.Weighted>
3.6101

> <Gold.Chemscore.Internal.Correction.Weighted>
   9.000000E+99

> <Gold.Protein.RotatedTorsions>
[ 6907 6896 6895 6894 ] final -165.52 input  -60.11 | X-H torsion
[ 7974 7965 7964 7962 ] final  -95.36 input  175.53 | X-H torsion
[ 8008 7997 7996 7995 ] final  -16.79 input   59.86 | X-H torsion
[ 10167 10162 10161 10158 ] final  147.20 input  -65.29 | X-H torsion
[ 10718 10713 10712 10709 ] final  -36.27 input   66.30 | X-H torsion
[ 10763 10752 10751 10750 ] final  -34.71 input  -60.55 | X-H torsion
[ 11005 11000 10999 10996 ] final  -46.50 input  -57.11 | X-H torsion

> <Gold.Protein.ActiveResidues>
 VAL166  LYS551  ARG553  GLY616  TRP617  ASP618  TYR619  PRO620  LYS621  CYS622 
 ASP623  PHE694  ASN695  SER759  ASP760  ASP761  ALA762  ILE779  LEU786  VAL792 
 PHE793  MET794  SER795  GLU796  ALA797  LYS798  CYS799  TRP800  GLU811  SER814 

> <Gold.Protein.RotatedAtoms>
  151.4290  133.3676  159.2765 H   0  0  0  0  0  0  0  0  0  0  0  0  # atno 6907 bound_to 6896
  150.9239  134.8657  159.7517 H   0  0  0  0  0  0  0  0  0  0  0  0  # atno 6908 bound_to 6896
  152.4995  134.4230  159.9539 H   0  0  0  0  0  0  0  0  0  0  0  0  # atno 6909 bound_to 6896
  145.3611  140.9492  143.2500 H   0  0  0  0  0  0  0  0  0  0  0  0  # atno 7974 bound_to 7965
  154.5027  140.2160  155.9315 H   0  0  0  0  0  0  0  0  0  0  0  0  # atno 8008 bound_to 7997
  156.1454  140.3172  155.8529 H   0  0  0  0  0  0  0  0  0  0  0  0  # atno 8009 bound_to 7997
  155.4041  140.0486  157.3026 H   0  0  0  0  0  0  0  0  0  0  0  0  # atno 8010 bound_to 7997
  139.4894  144.5773  151.6940 H   0  0  0  0  0  0  0  0  0  0  0  0  # atno 10167 bound_to 10162
  156.3288  130.4276  149.7892 H   0  0  0  0  0  0  0  0  0  0  0  0  # atno 10718 bound_to 10713
  153.8512  135.6848  153.4792 H   0  0  0  0  0  0  0  0  0  0  0  0  # atno 10763 bound_to 10752
  153.1396  135.4663  154.9473 H   0  0  0  0  0  0  0  0  0  0  0  0  # atno 10764 bound_to 10752
  154.7801  135.3266  154.7956 H   0  0  0  0  0  0  0  0  0  0  0  0  # atno 10765 bound_to 10752
  141.0583  133.6718  156.3164 H   0  0  0  0  0  0  0  0  0  0  0  0  # atno 11005 bound_to 11000
  144.8646  139.5127  143.6796 LP  0  0  0  0  0  0  0  0  0  0  0  0  # atno 17320 bound_to 7965
  146.2927  139.7185  142.9149 LP  0  0  0  0  0  0  0  0  0  0  0  0  # atno 17321 bound_to 7965
  140.5372  144.0637  150.6075 LP  0  0  0  0  0  0  0  0  0  0  0  0  # atno 17342 bound_to 10162
  140.3647  143.2888  152.0345 LP  0  0  0  0  0  0  0  0  0  0  0  0  # atno 17343 bound_to 10162
  156.5172  130.8199  151.3190 LP  0  0  0  0  0  0  0  0  0  0  0  0  # atno 17370 bound_to 10713
  157.7426  130.9894  150.2531 LP  0  0  0  0  0  0  0  0  0  0  0  0  # atno 17371 bound_to 10713
  140.5920  134.5641  157.5501 LP  0  0  0  0  0  0  0  0  0  0  0  0  # atno 17394 bound_to 11000
  139.9409  134.7788  156.0680 LP  0  0  0  0  0  0  0  0  0  0  0  0  # atno 17395 bound_to 11000

$$$$
