AV-unprocessed.smi:508|AV-procd|sdf|2758|dock10
  -GOLD-   2262023223D 1   1.00000     0.00000
 Structure written by MMmdl.
 49 51  0  0  0  0  0  0  0  0  1 V2000
  153.1855  137.2230  161.7399 C   0  0  0  0  0  0  0  0  0  0  0  0
  152.6576  137.7957  160.4226 C   0  0  0  0  0  0  0  0  0  0  0  0
  152.5389  136.7437  159.4802 O   0  0  0  0  0  0  0  0  0  0  0  0
  151.9656  137.1652  158.2544 C   0  0  0  0  0  0  0  0  0  0  0  0
  152.7775  138.3579  157.7236 C   0  0  0  0  0  0  0  0  0  0  0  0
  151.9456  139.3465  157.0443 N   0  0  0  0  0  0  0  0  0  0  0  0
  151.7853  140.6815  157.2964 C   0  0  0  0  0  0  0  0  0  0  0  0
  152.4703  141.3859  158.3027 N   0  0  0  0  0  0  0  0  0  0  0  0
  153.3811  140.8403  159.3108 C   0  0  0  0  0  0  0  0  0  0  0  0
  152.9538  141.1005  160.7707 C   0  0  0  0  0  0  0  0  0  0  0  0
  153.2239  142.5401  161.2320 C   0  0  0  0  0  0  0  0  0  0  0  0
  152.1433  143.5606  160.8327 C   0  0  0  0  0  0  0  0  0  0  0  0
  151.5304  143.3914  159.4303 C   0  0  0  0  0  0  0  0  0  0  0  0
  152.4904  142.8502  158.3582 C   0  0  0  0  0  0  0  0  0  0  0  0
  150.8806  141.2725  156.5070 N   0  0  0  0  0  0  0  0  0  0  0  0
  150.4424  140.2522  155.6820 C   0  0  0  0  0  0  0  0  0  0  0  0
  151.0642  139.0882  155.9904 C   0  0  0  0  0  0  0  0  0  0  0  0
  150.7673  137.8313  155.2863 C   0  0  0  0  0  0  0  0  0  0  0  0
  151.2992  136.7574  155.5583 O   0  0  0  0  0  0  0  0  0  0  0  0
  149.8441  137.9753  154.3046 N   0  0  0  0  0  0  0  0  0  0  0  0
  149.1897  139.1196  153.9400 C   0  0  0  0  0  0  0  0  0  0  0  0
  148.3759  139.0956  153.0168 O   0  0  0  0  0  0  0  0  0  0  0  0
  149.4766  140.2656  154.6358 N   0  0  0  0  0  0  0  0  0  0  0  0
  148.8007  141.5193  154.2956 C   0  0  0  0  0  0  0  0  0  0  0  0
  149.6108  137.1420  153.7845 H   0  0  0  0  0  0  0  0  0  0  0  0
  153.2899  138.0057  162.4912 H   0  0  0  0  0  0  0  0  0  0  0  0
  154.1627  136.7597  161.6010 H   0  0  0  0  0  0  0  0  0  0  0  0
  152.5083  136.4664  162.1369 H   0  0  0  0  0  0  0  0  0  0  0  0
  151.6873  138.2670  160.5853 H   0  0  0  0  0  0  0  0  0  0  0  0
  153.3394  138.5608  160.0485 H   0  0  0  0  0  0  0  0  0  0  0  0
  151.9658  136.3420  157.5402 H   0  0  0  0  0  0  0  0  0  0  0  0
  150.9240  137.4471  158.4093 H   0  0  0  0  0  0  0  0  0  0  0  0
  153.3012  138.8469  158.5447 H   0  0  0  0  0  0  0  0  0  0  0  0
  153.5664  138.0230  157.0579 H   0  0  0  0  0  0  0  0  0  0  0  0
  153.4929  139.7722  159.1554 H   0  0  0  0  0  0  0  0  0  0  0  0
  154.3806  141.2430  159.1418 H   0  0  0  0  0  0  0  0  0  0  0  0
  151.9116  140.8339  160.9439 H   0  0  0  0  0  0  0  0  0  0  0  0
  153.5398  140.4343  161.4042 H   0  0  0  0  0  0  0  0  0  0  0  0
  153.3192  142.5555  162.3181 H   0  0  0  0  0  0  0  0  0  0  0  0
  154.1940  142.8641  160.8526 H   0  0  0  0  0  0  0  0  0  0  0  0
  151.3337  143.5314  161.5631 H   0  0  0  0  0  0  0  0  0  0  0  0
  152.5748  144.5587  160.9166 H   0  0  0  0  0  0  0  0  0  0  0  0
  150.6496  142.7496  159.4852 H   0  0  0  0  0  0  0  0  0  0  0  0
  151.1549  144.3640  159.1106 H   0  0  0  0  0  0  0  0  0  0  0  0
  153.5022  143.2278  158.5125 H   0  0  0  0  0  0  0  0  0  0  0  0
  152.1833  143.2512  157.3926 H   0  0  0  0  0  0  0  0  0  0  0  0
  149.1212  141.8661  153.3127 H   0  0  0  0  0  0  0  0  0  0  0  0
  149.0104  142.3149  155.0107 H   0  0  0  0  0  0  0  0  0  0  0  0
  147.7182  141.3852  154.2742 H   0  0  0  0  0  0  0  0  0  0  0  0
  1  2  1  0  0  0  0
  1 26  1  0  0  0  0
  1 27  1  0  0  0  0
  1 28  1  0  0  0  0
  2  3  1  0  0  0  0
  2 29  1  0  0  0  0
  2 30  1  0  0  0  0
  3  4  1  0  0  0  0
  4  5  1  0  0  0  0
  4 31  1  0  0  0  0
  4 32  1  0  0  0  0
  5  6  1  0  0  0  0
  5 33  1  0  0  0  0
  5 34  1  0  0  0  0
  6 17  1  0  0  0  0
  6  7  1  0  0  0  0
  7  8  1  0  0  0  0
  7 15  2  0  0  0  0
  8 14  1  0  0  0  0
  8  9  1  0  0  0  0
  9 10  1  0  0  0  0
  9 35  1  0  0  0  0
  9 36  1  0  0  0  0
 10 11  1  0  0  0  0
 10 37  1  0  0  0  0
 10 38  1  0  0  0  0
 11 12  1  0  0  0  0
 11 39  1  0  0  0  0
 11 40  1  0  0  0  0
 12 13  1  0  0  0  0
 12 41  1  0  0  0  0
 12 42  1  0  0  0  0
 13 14  1  0  0  0  0
 13 43  1  0  0  0  0
 13 44  1  0  0  0  0
 14 45  1  0  0  0  0
 14 46  1  0  0  0  0
 15 16  1  0  0  0  0
 16 23  1  0  0  0  0
 16 17  2  0  0  0  0
 17 18  1  0  0  0  0
 18 19  2  0  0  0  0
 18 20  1  0  0  0  0
 20 25  1  0  0  0  0
 20 21  1  0  0  0  0
 21 22  2  0  0  0  0
 21 23  1  0  0  0  0
 23 24  1  0  0  0  0
 24 47  1  0  0  0  0
 24 48  1  0  0  0  0
 24 49  1  0  0  0  0
M  END
> <s_m_source_file>
AV-unprocessed.smi

> <i_m_source_file_index>
508

> <i_lp_mmshare_version>
43012

> <i_f3d_flags>
0

> <s_epik_input>
W0NIM11uMWMoPU8pW25IXWMoPU8pYyhjMTIpbihbQ0gyXVtDSDJdT1tDSDJdW0NIM10pYyhuMilOM1tDSDJdW0NIMl1bQ0gyXVtDSDJdW0NIMl1bQ0gyXTM=

> <s_epik_cmdline>
J2VwaWtfcHl0aG9uJywgJy1waCcsICc3LjAnLCAnLXRuJywgJzgnLCAnLW1hJywgJzIwMCcsICctbWV0YWxfYmluZGluZycsICctaW1hZScsICc8aW5maWxlLm1hZT4nLCAnLW9tYWUnLCAnPG91dGZpbGUubWFlPic=

> <r_lp_tautomer_probability>
1

> <r_epik_Ionization_Penalty>
0.000193589

> <r_epik_Ionization_Penalty_Charging>
2.00901e-05

> <r_epik_Ionization_Penalty_Neutral>
0.000173499

> <r_epik_State_Penalty>
-0

> <r_epik_Charging_Adjusted_Penalty>
2.00901e-05

> <i_epik_Tot_Q>
0

> <i_epik_Tot_abs_Q>
0

> <r_epik_Metal_State_Penalty>
0.0191145

> <b_epik_Metal_Only>
0

> <s_lp_Force_Field>
OPLS_2005

> <r_lp_Energy>
44.1417

> <b_lp_Chiralities_Consistent>
1

> <s_lp_Variant>
AV-unprocessed.smi:508-1

> <Gold.Version>
5.8.1

> <Gold.Id.Protein>
6NUR|6NUR_protein|mol2

> <Gold.PLP.Fitness>
46.3469

> <Gold.PLP.PLP>
-38.9548

> <Gold.PLP.part.hbond>
-2.8413

> <Gold.PLP.part.metal>
0.0000

> <Gold.PLP.part.buried>
-5.8963

> <Gold.PLP.part.nonpolar>
-33.5742

> <Gold.PLP.part.repulsive>
3.7145

> <Gold.PLP.ligand.clash>
0.0000

> <Gold.PLP.ligand.torsion>
0.3302

> <Gold.PLP.Chemscore.Hbond>
2.6738

> <Gold.PLP.Chemscore.CHOScore>
0.0000

> <Gold.PLP.Chemscore.Metal>
0.0000

> <Gold.Chemscore.Hbonds>
donor molecule, donor type, donor heavy atom, donor atom, acceptor molecule, acceptor atom, score
      L1  H    20    25       P1  7948  0.56
      P1  H  6896  6908       L1     3  1.00
      P1  H 10752 10763       L1    19  0.52

> <Gold.PLP.Chemscore.Internal.Correction>
0.0313

> <Gold.Rescore>
     Score         DG    S(hbond)    S(metal)    S(lipo)     H(rot)  DE(clash)    DE(int)     intcor
     15.14     -19.54       2.08        0.00      95.48       1.58       1.79       2.61       ----

> <Gold.Chemscore.Fitness>
15.1372

> <Gold.Chemscore.DG>
-19.5389

> <Gold.Chemscore.ZeroCoef>
-5.4800

> <Gold.Chemscore.Hbond>
2.0762

> <Gold.Chemscore.Metal>
0.0000

> <Gold.Chemscore.Lipo>
95.4766

> <Gold.Chemscore.Internal_Hbond>
0.0000

> <Gold.Chemscore.DEClash>
1.7919

> <Gold.Chemscore.DEInternal>
2.6099

> <Gold.Chemscore.Rot>
1.5806

> <Gold.Chemscore.Internal.Correction>
   9.000000E+99

> <Gold.Chemscore.Hbonds>
donor molecule, donor type, donor heavy atom, donor atom, acceptor molecule, acceptor atom, score
      L1  H    20    25       P1  7948  0.46
      P1  H  6896  6908       L1     3  0.87
      P1  H 10752 10763       L1    19  0.52

> <Gold.Chemscore.Hbond.Weighted>
-6.9344

> <Gold.Chemscore.Metal.Weighted>
-0.0000

> <Gold.Chemscore.Lipo.Weighted>
-11.1708

> <Gold.Chemscore.Internal_Hbond.Weighted>
0.0000

> <Gold.Chemscore.DEClash.Weighted>
1.7919

> <Gold.Chemscore.DEInternal.Weighted>
2.6099

> <Gold.Chemscore.Rot.Weighted>
4.0463

> <Gold.Chemscore.Internal.Correction.Weighted>
   9.000000E+99

> <Gold.Protein.RotatedTorsions>
[ 6907 6896 6895 6894 ] final  -93.51 input  -60.11 | X-H torsion
[ 7974 7965 7964 7962 ] final   86.22 input  175.53 | X-H torsion
[ 8008 7997 7996 7995 ] final  -87.89 input   59.86 | X-H torsion
[ 10167 10162 10161 10158 ] final  -12.47 input  -65.29 | X-H torsion
[ 10718 10713 10712 10709 ] final  -16.60 input   66.30 | X-H torsion
[ 10763 10752 10751 10750 ] final   61.82 input  -60.55 | X-H torsion
[ 11005 11000 10999 10996 ] final -120.41 input  -57.11 | X-H torsion

> <Gold.Protein.ActiveResidues>
 VAL166  LYS551  ARG553  GLY616  TRP617  ASP618  TYR619  PRO620  LYS621  CYS622 
 ASP623  PHE694  ASN695  SER759  ASP760  ASP761  ALA762  ILE779  LEU786  VAL792 
 PHE793  MET794  SER795  GLU796  ALA797  LYS798  CYS799  TRP800  GLU811  SER814 

> <Gold.Protein.RotatedAtoms>
  150.6924  134.1957  159.4302 H   0  0  0  0  0  0  0  0  0  0  0  0  # atno 6907 bound_to 6896
  151.9925  134.9969  160.0571 H   0  0  0  0  0  0  0  0  0  0  0  0  # atno 6908 bound_to 6896
  152.1654  133.4574  159.4919 H   0  0  0  0  0  0  0  0  0  0  0  0  # atno 6909 bound_to 6896
  145.5752  139.2318  143.2384 H   0  0  0  0  0  0  0  0  0  0  0  0  # atno 7974 bound_to 7965
  154.6684  140.0560  157.0139 H   0  0  0  0  0  0  0  0  0  0  0  0  # atno 8008 bound_to 7997
  155.1124  140.3239  155.4499 H   0  0  0  0  0  0  0  0  0  0  0  0  # atno 8009 bound_to 7997
  156.2647  140.2012  156.6248 H   0  0  0  0  0  0  0  0  0  0  0  0  # atno 8010 bound_to 7997
  140.7162  143.5528  150.9281 H   0  0  0  0  0  0  0  0  0  0  0  0  # atno 10167 bound_to 10162
  156.5853  130.4785  149.6302 H   0  0  0  0  0  0  0  0  0  0  0  0  # atno 10718 bound_to 10713
  152.9962  135.5487  154.6095 H   0  0  0  0  0  0  0  0  0  0  0  0  # atno 10763 bound_to 10752
  154.5419  135.2820  155.1090 H   0  0  0  0  0  0  0  0  0  0  0  0  # atno 10764 bound_to 10752
  154.2364  135.6424  153.5245 H   0  0  0  0  0  0  0  0  0  0  0  0  # atno 10765 bound_to 10752
  141.0146  134.0215  157.3368 H   0  0  0  0  0  0  0  0  0  0  0  0  # atno 11005 bound_to 11000
  146.1756  140.6578  142.9213 LP  0  0  0  0  0  0  0  0  0  0  0  0  # atno 17320 bound_to 7965
  144.7419  140.4965  143.6863 LP  0  0  0  0  0  0  0  0  0  0  0  0  # atno 17321 bound_to 7965
  139.9253  143.6557  152.3088 LP  0  0  0  0  0  0  0  0  0  0  0  0  # atno 17342 bound_to 10162
  139.6989  144.7638  151.1308 LP  0  0  0  0  0  0  0  0  0  0  0  0  # atno 17343 bound_to 10162
  156.2596  130.6955  151.1719 LP  0  0  0  0  0  0  0  0  0  0  0  0  # atno 17370 bound_to 10713
  157.7317  131.0606  150.5666 LP  0  0  0  0  0  0  0  0  0  0  0  0  # atno 17371 bound_to 10713
  139.9109  135.0190  156.7688 LP  0  0  0  0  0  0  0  0  0  0  0  0  # atno 17394 bound_to 11000
  140.6677  133.9588  155.7839 LP  0  0  0  0  0  0  0  0  0  0  0  0  # atno 17395 bound_to 11000

$$$$
