AV-unprocessed.smi:1047|AV-procd|sdf|4569|dock8
  -GOLD-   22720 3 23D 1   1.00000     0.00000
 Structure written by MMmdl.
 56 58  0  0  0  0  0  0  0  0  2 V2000
  146.2680  133.8527  151.0373 C   0  0  0  0  0  0  0  0  0  0  0  0
  146.5564  132.4970  151.6980 C   0  0  0  0  0  0  0  0  0  0  0  0
  147.1356  132.5750  153.0384 N   0  0  0  0  0  0  0  0  0  0  0  0
  146.1519  133.0511  154.0043 C   0  0  0  0  0  0  0  0  0  0  0  0
  146.7394  133.1438  155.4219 C   0  0  0  0  0  0  0  0  0  0  0  0
  147.8857  133.9878  155.4045 O   0  0  0  0  0  0  0  0  0  0  0  0
  148.9014  133.5308  154.5144 C   0  0  2  0  0  0  0  0  0  0  0  0
  150.0764  134.5152  154.5841 C   0  0  0  0  0  0  0  0  0  0  0  0
  149.6175  135.9089  154.4208 N   0  3  0  0  0  0  0  0  0  0  0  0
  150.5853  136.9151  154.8997 C   0  0  0  0  0  0  0  0  0  0  0  0
  150.0432  138.3469  154.7328 C   0  0  2  0  0  0  0  0  0  0  0  0
  149.4862  138.4756  153.4388 O   0  0  0  0  0  0  0  0  0  0  0  0
  151.1163  139.4401  154.9331 C   0  0  0  0  0  0  0  0  0  0  0  0
  151.6912  139.4534  156.2690 N   0  0  0  0  0  0  0  0  0  0  0  0
  152.2489  138.4153  156.9223 C   0  0  0  0  0  0  0  0  0  0  0  0
  152.7042  138.6419  158.1507 N   0  0  0  0  0  0  0  0  0  0  0  0
  152.4197  139.9869  158.3106 C   0  0  0  0  0  0  0  0  0  0  0  0
  152.6469  140.8480  159.4066 C   0  0  0  0  0  0  0  0  0  0  0  0
  152.2646  142.2072  159.3519 C   0  0  0  0  0  0  0  0  0  0  0  0
  152.5212  143.0954  160.5565 C   0  0  0  0  0  0  0  0  0  0  0  0
  151.6491  142.7256  158.1844 C   0  0  0  0  0  0  0  0  0  0  0  0
  151.2300  144.1830  158.1030 C   0  0  0  0  0  0  0  0  0  0  0  0
  151.4176  141.8801  157.0795 C   0  0  0  0  0  0  0  0  0  0  0  0
  151.7943  140.5269  157.1488 C   0  0  0  0  0  0  0  0  0  0  0  0
  148.3107  133.4415  153.0923 C   0  0  0  0  0  0  0  0  0  0  0  0
  145.9465  133.7133  150.0050 H   0  0  0  0  0  0  0  0  0  0  0  0
  147.1589  134.4812  151.0237 H   0  0  0  0  0  0  0  0  0  0  0  0
  145.4763  134.3977  151.5508 H   0  0  0  0  0  0  0  0  0  0  0  0
  145.6420  131.9020  151.7219 H   0  0  0  0  0  0  0  0  0  0  0  0
  147.2471  131.9585  151.0479 H   0  0  0  0  0  0  0  0  0  0  0  0
  145.7821  134.0326  153.7030 H   0  0  0  0  0  0  0  0  0  0  0  0
  145.2893  132.3838  154.0155 H   0  0  0  0  0  0  0  0  0  0  0  0
  146.0030  133.5561  156.1116 H   0  0  0  0  0  0  0  0  0  0  0  0
  147.0114  132.1549  155.7941 H   0  0  0  0  0  0  0  0  0  0  0  0
  149.2392  132.5410  154.8273 H   0  0  0  0  0  0  0  0  0  0  0  0
  150.5767  134.4258  155.5493 H   0  0  0  0  0  0  0  0  0  0  0  0
  150.8134  134.2762  153.8161 H   0  0  0  0  0  0  0  0  0  0  0  0
  149.4462  136.0767  153.4392 H   0  0  0  0  0  0  0  0  0  0  0  0
  150.7834  136.7202  155.9542 H   0  0  0  0  0  0  0  0  0  0  0  0
  151.5298  136.7928  154.3671 H   0  0  0  0  0  0  0  0  0  0  0  0
  149.2457  138.5153  155.4577 H   0  0  0  0  0  0  0  0  0  0  0  0
  149.4919  137.6275  153.0210 H   0  0  0  0  0  0  0  0  0  0  0  0
  151.9240  139.3122  154.2107 H   0  0  0  0  0  0  0  0  0  0  0  0
  150.6861  140.4226  154.7366 H   0  0  0  0  0  0  0  0  0  0  0  0
  152.3156  137.4346  156.4735 H   0  0  0  0  0  0  0  0  0  0  0  0
  153.1170  140.4532  160.2952 H   0  0  0  0  0  0  0  0  0  0  0  0
  153.1521  143.9413  160.2824 H   0  0  0  0  0  0  0  0  0  0  0  0
  153.0246  142.5490  161.3544 H   0  0  0  0  0  0  0  0  0  0  0  0
  151.5810  143.4782  160.9547 H   0  0  0  0  0  0  0  0  0  0  0  0
  150.7813  144.4154  157.1368 H   0  0  0  0  0  0  0  0  0  0  0  0
  152.0919  144.8370  158.2362 H   0  0  0  0  0  0  0  0  0  0  0  0
  150.4970  144.4134  158.8767 H   0  0  0  0  0  0  0  0  0  0  0  0
  150.9504  142.2647  156.1855 H   0  0  0  0  0  0  0  0  0  0  0  0
  149.0814  133.0692  152.4177 H   0  0  0  0  0  0  0  0  0  0  0  0
  148.0472  134.4416  152.7438 H   0  0  0  0  0  0  0  0  0  0  0  0
  148.7495  136.0270  154.9235 H   0  0  0  0  0  0  0  0  0  0  0  0
  1  2  1  0  0  0  0
  1 26  1  0  0  0  0
  1 27  1  0  0  0  0
  1 28  1  0  0  0  0
  2  3  1  0  0  0  0
  2 29  1  0  0  0  0
  2 30  1  0  0  0  0
  3 25  1  0  0  0  0
  3  4  1  0  0  0  0
  4  5  1  0  0  0  0
  4 31  1  0  0  0  0
  4 32  1  0  0  0  0
  5  6  1  0  0  0  0
  5 33  1  0  0  0  0
  5 34  1  0  0  0  0
  6  7  1  0  0  0  0
  7  8  1  0  0  0  0
  7 25  1  0  0  0  0
  7 35  1  0  0  0  0
  8  9  1  0  0  0  0
  8 36  1  0  0  0  0
  8 37  1  0  0  0  0
  9 10  1  0  0  0  0
  9 38  1  0  0  0  0
  9 56  1  0  0  0  0
 10 11  1  0  0  0  0
 10 39  1  0  0  0  0
 10 40  1  0  0  0  0
 11 12  1  0  0  0  0
 11 13  1  0  0  0  0
 11 41  1  0  0  0  0
 12 42  1  0  0  0  0
 13 14  1  0  0  0  0
 13 43  1  0  0  0  0
 13 44  1  0  0  0  0
 14 24  1  0  0  0  0
 14 15  1  0  0  0  0
 15 16  2  0  0  0  0
 15 45  1  0  0  0  0
 16 17  1  0  0  0  0
 17 24  2  0  0  0  0
 17 18  1  0  0  0  0
 18 19  2  0  0  0  0
 18 46  1  0  0  0  0
 19 20  1  0  0  0  0
 19 21  1  0  0  0  0
 20 47  1  0  0  0  0
 20 48  1  0  0  0  0
 20 49  1  0  0  0  0
 21 22  1  0  0  0  0
 21 23  2  0  0  0  0
 22 50  1  0  0  0  0
 22 51  1  0  0  0  0
 22 52  1  0  0  0  0
 23 24  1  0  0  0  0
 23 53  1  0  0  0  0
 25 54  1  0  0  0  0
 25 55  1  0  0  0  0
M  CHG  1   9   1
M  END
> <s_m_source_file>
AV-unprocessed.smi

> <i_m_source_file_index>
1047

> <i_lp_mmshare_version>
43012

> <i_f3d_flags>
0

> <s_epik_input>
W0NIM11bQ0gyXU4xW0NIMl1bQ0gyXU9bQ0BIXShbQ0gyXTEpW0NIMl1bTkhdW0NIMl1bQ0BIXShbT0hdKVtDSDJdbihbY0hdbjIpYyhjMjMpW2NIXWMoW0NIM10pYyhbY0hdMylbQ0gzXQ==

> <s_epik_cmdline>
J2VwaWtfcHl0aG9uJywgJy1waCcsICc3LjAnLCAnLXRuJywgJzgnLCAnLW1hJywgJzIwMCcsICctbWV0YWxfYmluZGluZycsICctaW1hZScsICc8aW5maWxlLm1hZT4nLCAnLW9tYWUnLCAnPG91dGZpbGUubWFlPic=

> <r_epik_Ionization_Penalty>
0.692425

> <r_epik_Ionization_Penalty_Charging>
0.0243549

> <r_epik_Ionization_Penalty_Neutral>
0.66807

> <r_epik_State_Penalty>
0.592789

> <r_epik_Charging_Adjusted_Penalty>
0.617144

> <i_epik_Tot_Q>
1

> <i_epik_Tot_abs_Q>
1

> <r_epik_Metal_State_Penalty>
0.508021

> <b_epik_Metal_Only>
0

> <s_lp_Force_Field>
OPLS_2005

> <r_lp_Energy>
30.0257

> <b_lp_Chiralities_Consistent>
1

> <s_lp_Variant>
AV-unprocessed.smi:1047-10

> <Gold.Version>
5.8.1

> <Gold.Id.Protein>
6NUR|6NUR_protein|mol2

> <Gold.PLP.Fitness>
53.5856

> <Gold.PLP.PLP>
-45.1451

> <Gold.PLP.part.hbond>
-3.0000

> <Gold.PLP.part.metal>
0.0000

> <Gold.PLP.part.buried>
-4.6755

> <Gold.PLP.part.nonpolar>
-37.4587

> <Gold.PLP.part.repulsive>
0.1755

> <Gold.PLP.ligand.clash>
0.0000

> <Gold.PLP.ligand.torsion>
0.3115

> <Gold.PLP.Chemscore.Hbond>
3.0000

> <Gold.PLP.Chemscore.CHOScore>
0.0000

> <Gold.PLP.Chemscore.Metal>
0.0000

> <Gold.Chemscore.Hbonds>
donor molecule, donor type, donor heavy atom, donor atom, acceptor molecule, acceptor atom, score
      L1  H     9    38       P1  7948  2.00
      L1  H    12    42       P1  7948  1.00

> <Gold.PLP.Chemscore.Internal.Correction>
0.0636

> <Gold.Rescore>
     Score         DG    S(hbond)    S(metal)    S(lipo)     H(rot)  DE(clash)    DE(int)     intcor
     18.34     -18.58       1.94        0.00     113.60       2.60       0.01       0.24       ----

> <Gold.Chemscore.Fitness>
18.3389

> <Gold.Chemscore.DG>
-18.5830

> <Gold.Chemscore.ZeroCoef>
-5.4800

> <Gold.Chemscore.Hbond>
1.9401

> <Gold.Chemscore.Metal>
0.0000

> <Gold.Chemscore.Lipo>
113.6040

> <Gold.Chemscore.Internal_Hbond>
0.0000

> <Gold.Chemscore.DEClash>
0.0089

> <Gold.Chemscore.DEInternal>
0.2352

> <Gold.Chemscore.Rot>
2.6049

> <Gold.Chemscore.Internal.Correction>
   9.000000E+99

> <Gold.Chemscore.Hbonds>
donor molecule, donor type, donor heavy atom, donor atom, acceptor molecule, acceptor atom, score
      L1  H     9    38       P1  7948  0.50
      L1  H    12    42       P1  7948  0.85

> <Gold.Chemscore.Hbond.Weighted>
-6.4798

> <Gold.Chemscore.Metal.Weighted>
-0.0000

> <Gold.Chemscore.Lipo.Weighted>
-13.2917

> <Gold.Chemscore.Internal_Hbond.Weighted>
0.0000

> <Gold.Chemscore.DEClash.Weighted>
0.0089

> <Gold.Chemscore.DEInternal.Weighted>
0.2352

> <Gold.Chemscore.Rot.Weighted>
6.6685

> <Gold.Chemscore.Internal.Correction.Weighted>
   9.000000E+99

> <Gold.Protein.RotatedTorsions>
[ 6907 6896 6895 6894 ] final  -81.50 input  -60.11 | X-H torsion
[ 7974 7965 7964 7962 ] final   22.47 input  175.53 | X-H torsion
[ 8008 7997 7996 7995 ] final -112.79 input   59.86 | X-H torsion
[ 10167 10162 10161 10158 ] final  -86.78 input  -65.29 | X-H torsion
[ 10718 10713 10712 10709 ] final  -13.38 input   66.30 | X-H torsion
[ 10763 10752 10751 10750 ] final  -14.19 input  -60.55 | X-H torsion
[ 11005 11000 10999 10996 ] final   33.83 input  -57.11 | X-H torsion

> <Gold.Protein.ActiveResidues>
 VAL166  LYS551  ARG553  GLY616  TRP617  ASP618  TYR619  PRO620  LYS621  CYS622 
 ASP623  PHE694  ASN695  SER759  ASP760  ASP761  ALA762  ILE779  LEU786  VAL792 
 PHE793  MET794  SER795  GLU796  ALA797  LYS798  CYS799  TRP800  GLU811  SER814 

> <Gold.Protein.RotatedAtoms>
  150.6911  134.3809  159.5033 H   0  0  0  0  0  0  0  0  0  0  0  0  # atno 6907 bound_to 6896
  152.1611  134.8908  160.0550 H   0  0  0  0  0  0  0  0  0  0  0  0  # atno 6908 bound_to 6896
  151.9970  133.3776  159.4203 H   0  0  0  0  0  0  0  0  0  0  0  0  # atno 6909 bound_to 6896
  146.2027  139.7880  142.8749 H   0  0  0  0  0  0  0  0  0  0  0  0  # atno 7974 bound_to 7965
  155.0106  140.0393  157.2398 H   0  0  0  0  0  0  0  0  0  0  0  0  # atno 8008 bound_to 7997
  154.7463  140.2758  155.6307 H   0  0  0  0  0  0  0  0  0  0  0  0  # atno 8009 bound_to 7997
  156.2875  140.2655  156.2204 H   0  0  0  0  0  0  0  0  0  0  0  0  # atno 8010 bound_to 7997
  140.3908  143.2705  151.9266 H   0  0  0  0  0  0  0  0  0  0  0  0  # atno 10167 bound_to 10162
  156.6311  130.4901  149.6129 H   0  0  0  0  0  0  0  0  0  0  0  0  # atno 10718 bound_to 10713
  153.5246  135.7015  153.5714 H   0  0  0  0  0  0  0  0  0  0  0  0  # atno 10763 bound_to 10752
  153.3748  135.3935  155.1814 H   0  0  0  0  0  0  0  0  0  0  0  0  # atno 10764 bound_to 10752
  154.8691  135.3820  154.4738 H   0  0  0  0  0  0  0  0  0  0  0  0  # atno 10765 bound_to 10752
  140.2591  134.3213  155.7864 H   0  0  0  0  0  0  0  0  0  0  0  0  # atno 11005 bound_to 11000
  145.3428  141.0291  143.3383 LP  0  0  0  0  0  0  0  0  0  0  0  0  # atno 17320 bound_to 7965
  144.8720  139.5024  143.6763 LP  0  0  0  0  0  0  0  0  0  0  0  0  # atno 17321 bound_to 7965
  139.4789  144.5729  151.8059 LP  0  0  0  0  0  0  0  0  0  0  0  0  # atno 17342 bound_to 10162
  140.4841  144.1406  150.5938 LP  0  0  0  0  0  0  0  0  0  0  0  0  # atno 17343 bound_to 10162
  156.2234  130.6751  151.1391 LP  0  0  0  0  0  0  0  0  0  0  0  0  # atno 17370 bound_to 10713
  157.7200  131.0687  150.6176 LP  0  0  0  0  0  0  0  0  0  0  0  0  # atno 17371 bound_to 10713
  141.2192  133.7399  156.9158 LP  0  0  0  0  0  0  0  0  0  0  0  0  # atno 17394 bound_to 11000
  140.1482  134.9248  157.2558 LP  0  0  0  0  0  0  0  0  0  0  0  0  # atno 17395 bound_to 11000

$$$$
