AV-unprocessed.smi:1439|AV-procd|sdf|5871|dock1
  -GOLD-   22720 5543D 1   1.00000     0.00000
 Structure written by MMmdl.
 35 36  0  0  0  0  0  0  0  0  2 V2000
  147.7889  142.1994  156.0399 N   0  0  0  0  0  0  0  0  0  0  0  0
  147.9330  141.2146  155.1471 C   0  0  0  0  0  0  0  0  0  0  0  0
  147.2478  140.1949  155.1875 O   0  0  0  0  0  0  0  0  0  0  0  0
  148.9687  141.4044  154.0322 C   0  0  0  0  0  0  0  0  0  0  0  0
  150.1398  140.4764  154.1962 C   0  0  0  0  0  0  0  0  0  0  0  0
  150.4262  139.3723  153.4348 C   0  0  0  0  0  0  0  0  0  0  0  0
  151.8833  138.5832  153.9662 S   0  0  0  0  0  0  0  0  0  0  0  0
  152.0661  139.7987  155.2325 C   0  0  0  0  0  0  0  0  0  0  0  0
  153.0665  139.8328  156.1266 N   0  5  0  0  0  0  0  0  0  0  0  0
  152.8908  139.2711  157.3463 C   0  0  0  0  0  0  0  0  0  0  0  0
  152.7226  138.0826  157.6284 O   0  0  0  0  0  0  0  0  0  0  0  0
  152.9199  140.3340  158.4535 C   0  0  0  0  0  0  0  0  0  0  0  0
  151.9448  141.5032  158.2173 C   0  0  0  0  0  0  0  0  0  0  0  0
  152.3438  142.7694  158.9890 C   0  0  2  0  0  0  0  0  0  0  0  0
  152.0180  142.7166  160.4788 C   0  0  0  0  0  0  0  0  0  0  0  0
  151.9557  144.1838  160.8684 C   0  0  0  0  0  0  0  0  0  0  0  0
  151.7286  144.9123  159.5395 C   0  0  0  0  0  0  0  0  0  0  0  0
  151.5874  143.8906  158.5606 O   0  0  0  0  0  0  0  0  0  0  0  0
  151.0713  140.6926  155.2162 N   0  0  0  0  0  0  0  0  0  0  0  0
  147.1353  142.0935  156.8019 H   0  0  0  0  0  0  0  0  0  0  0  0
  148.3536  143.0330  155.9648 H   0  0  0  0  0  0  0  0  0  0  0  0
  148.4898  141.2411  153.0658 H   0  0  0  0  0  0  0  0  0  0  0  0
  149.2980  142.4440  154.0389 H   0  0  0  0  0  0  0  0  0  0  0  0
  149.8735  138.9780  152.5956 H   0  0  0  0  0  0  0  0  0  0  0  0
  152.6853  139.8540  159.4049 H   0  0  0  0  0  0  0  0  0  0  0  0
  153.9366  140.7210  158.5399 H   0  0  0  0  0  0  0  0  0  0  0  0
  151.8860  141.7302  157.1518 H   0  0  0  0  0  0  0  0  0  0  0  0
  150.9422  141.2049  158.5276 H   0  0  0  0  0  0  0  0  0  0  0  0
  153.4059  142.9812  158.8511 H   0  0  0  0  0  0  0  0  0  0  0  0
  151.0417  142.2549  160.6347 H   0  0  0  0  0  0  0  0  0  0  0  0
  152.7536  142.1536  161.0538 H   0  0  0  0  0  0  0  0  0  0  0  0
  151.1553  144.3728  161.5844 H   0  0  0  0  0  0  0  0  0  0  0  0
  152.8943  144.5070  161.3199 H   0  0  0  0  0  0  0  0  0  0  0  0
  150.8441  145.5495  159.5593 H   0  0  0  0  0  0  0  0  0  0  0  0
  152.5898  145.5341  159.2909 H   0  0  0  0  0  0  0  0  0  0  0  0
  1  2  1  0  0  0  0
  1 20  1  0  0  0  0
  1 21  1  0  0  0  0
  2  3  2  0  0  0  0
  2  4  1  0  0  0  0
  4  5  1  0  0  0  0
  4 22  1  0  0  0  0
  4 23  1  0  0  0  0
  5 19  1  0  0  0  0
  5  6  2  0  0  0  0
  6  7  1  0  0  0  0
  6 24  1  0  0  0  0
  7  8  1  0  0  0  0
  8  9  1  0  0  0  0
  8 19  2  0  0  0  0
  9 10  1  0  0  0  0
 10 11  2  0  0  0  0
 10 12  1  0  0  0  0
 12 13  1  0  0  0  0
 12 25  1  0  0  0  0
 12 26  1  0  0  0  0
 13 14  1  0  0  0  0
 13 27  1  0  0  0  0
 13 28  1  0  0  0  0
 14 18  1  0  0  0  0
 14 15  1  0  0  0  0
 14 29  1  0  0  0  0
 15 16  1  0  0  0  0
 15 30  1  0  0  0  0
 15 31  1  0  0  0  0
 16 17  1  0  0  0  0
 16 32  1  0  0  0  0
 16 33  1  0  0  0  0
 17 18  1  0  0  0  0
 17 34  1  0  0  0  0
 17 35  1  0  0  0  0
M  CHG  1   9  -1
M  END
> <s_m_source_file>
AV-unprocessed.smi

> <i_m_source_file_index>
1439

> <i_lp_mmshare_version>
43012

> <i_f3d_flags>
0

> <s_epik_input>
W05IMl1DKD1PKVtDSDJdYzFbY0hdc2MobjEpW05IXUMoPU8pW0NIMl1bQ0gyXVtDQEBIXTJbQ0gyXVtDSDJdW0NIMl1PMg==

> <s_epik_cmdline>
J2VwaWtfcHl0aG9uJywgJy1waCcsICc3LjAnLCAnLXRuJywgJzgnLCAnLW1hJywgJzIwMCcsICctbWV0YWxfYmluZGluZycsICctaW1hZScsICc8aW5maWxlLm1hZT4nLCAnLW9tYWUnLCAnPG91dGZpbGUubWFlPic=

> <r_lp_tautomer_probability>
1

> <r_epik_Ionization_Penalty>
4.85214

> <r_epik_Ionization_Penalty_Charging>
4.5239

> <r_epik_Ionization_Penalty_Neutral>
0.32824

> <r_epik_State_Penalty>
4.52362

> <r_epik_Charging_Adjusted_Penalty>
9.04752

> <i_epik_Tot_Q>
-1

> <i_epik_Tot_abs_Q>
1

> <r_epik_Metal_State_Penalty>
0.831335

> <b_epik_Metal_Only>
1

> <s_lp_Force_Field>
OPLS_2005

> <r_lp_Energy>
14.205

> <b_lp_Chiralities_Consistent>
1

> <s_lp_Variant>
AV-unprocessed.smi:1439-3

> <Gold.Version>
5.8.1

> <Gold.Id.Protein>
6NUR|6NUR_protein|mol2

> <Gold.PLP.Fitness>
49.0752

> <Gold.PLP.PLP>
-38.8820

> <Gold.PLP.part.hbond>
-2.8745

> <Gold.PLP.part.metal>
0.0000

> <Gold.PLP.part.buried>
-2.1932

> <Gold.PLP.part.nonpolar>
-34.1557

> <Gold.PLP.part.repulsive>
0.1822

> <Gold.PLP.ligand.clash>
0.0000

> <Gold.PLP.ligand.torsion>
1.8464

> <Gold.PLP.Chemscore.Hbond>
3.0000

> <Gold.PLP.Chemscore.CHOScore>
1.5188

> <Gold.PLP.Chemscore.Metal>
0.0000

> <Gold.Chemscore.Hbonds>
donor molecule, donor type, donor heavy atom, donor atom, acceptor molecule, acceptor atom, score
      L1  H     1    21       P1  8028  1.00
      P1  H  7997  8010       L1     9  0.61
      L1  C     6    24       P1  7957  0.31

> <Gold.PLP.Chemscore.Internal.Correction>
0.3296

> <Gold.Rescore>
     Score         DG    S(hbond)    S(metal)    S(lipo)     H(rot)  DE(clash)    DE(int)     intcor
     13.97     -15.86       1.79        0.00      92.52       2.51       0.03       1.86       ----

> <Gold.Chemscore.Fitness>
13.9676

> <Gold.Chemscore.DG>
-15.8561

> <Gold.Chemscore.ZeroCoef>
-5.4800

> <Gold.Chemscore.Hbond>
1.7897

> <Gold.Chemscore.Metal>
0.0000

> <Gold.Chemscore.Lipo>
92.5205

> <Gold.Chemscore.Internal_Hbond>
0.0000

> <Gold.Chemscore.DEClash>
0.0272

> <Gold.Chemscore.DEInternal>
1.8612

> <Gold.Chemscore.Rot>
2.5103

> <Gold.Chemscore.Internal.Correction>
   9.000000E+99

> <Gold.Chemscore.Hbonds>
donor molecule, donor type, donor heavy atom, donor atom, acceptor molecule, acceptor atom, score
      L1  H     1    21       P1  8028  0.92
      P1  H  7997  8010       L1     9  0.03

> <Gold.Chemscore.Hbond.Weighted>
-5.9776

> <Gold.Chemscore.Metal.Weighted>
-0.0000

> <Gold.Chemscore.Lipo.Weighted>
-10.8249

> <Gold.Chemscore.Internal_Hbond.Weighted>
0.0000

> <Gold.Chemscore.DEClash.Weighted>
0.0272

> <Gold.Chemscore.DEInternal.Weighted>
1.8612

> <Gold.Chemscore.Rot.Weighted>
6.4264

> <Gold.Chemscore.Internal.Correction.Weighted>
   9.000000E+99

> <Gold.Protein.RotatedTorsions>
[ 6907 6896 6895 6894 ] final  -39.97 input  -60.11 | X-H torsion
[ 7974 7965 7964 7962 ] final  110.12 input  175.53 | X-H torsion
[ 8008 7997 7996 7995 ] final   75.40 input   59.86 | X-H torsion
[ 10167 10162 10161 10158 ] final  150.68 input  -65.29 | X-H torsion
[ 10718 10713 10712 10709 ] final   -0.04 input   66.30 | X-H torsion
[ 10763 10752 10751 10750 ] final -162.33 input  -60.55 | X-H torsion
[ 11005 11000 10999 10996 ] final   48.30 input  -57.11 | X-H torsion

> <Gold.Protein.ActiveResidues>
 VAL166  LYS551  ARG553  GLY616  TRP617  ASP618  TYR619  PRO620  LYS621  CYS622 
 ASP623  PHE694  ASN695  SER759  ASP760  ASP761  ALA762  ILE779  LEU786  VAL792 
 PHE793  MET794  SER795  GLU796  ALA797  LYS798  CYS799  TRP800  GLU811  SER814 

> <Gold.Protein.RotatedAtoms>
  150.9840  134.9189  159.7860 H   0  0  0  0  0  0  0  0  0  0  0  0  # atno 6907 bound_to 6896
  152.5230  134.3372  159.9214 H   0  0  0  0  0  0  0  0  0  0  0  0  # atno 6908 bound_to 6896
  151.3379  133.3933  159.2703 H   0  0  0  0  0  0  0  0  0  0  0  0  # atno 6909 bound_to 6896
  145.2591  139.2709  143.4026 H   0  0  0  0  0  0  0  0  0  0  0  0  # atno 7974 bound_to 7965
  155.8123  140.3473  155.5465 H   0  0  0  0  0  0  0  0  0  0  0  0  # atno 8008 bound_to 7997
  155.8428  140.0944  157.1744 H   0  0  0  0  0  0  0  0  0  0  0  0  # atno 8009 bound_to 7997
  154.4005  140.1391  156.3736 H   0  0  0  0  0  0  0  0  0  0  0  0  # atno 8010 bound_to 7997
  139.4848  144.5503  151.7413 H   0  0  0  0  0  0  0  0  0  0  0  0  # atno 10167 bound_to 10162
  156.8263  130.5473  149.5691 H   0  0  0  0  0  0  0  0  0  0  0  0  # atno 10718 bound_to 10713
  154.7223  135.3028  154.9027 H   0  0  0  0  0  0  0  0  0  0  0  0  # atno 10763 bound_to 10752
  153.9894  135.6720  153.4757 H   0  0  0  0  0  0  0  0  0  0  0  0  # atno 10764 bound_to 10752
  153.0845  135.4991  154.8487 H   0  0  0  0  0  0  0  0  0  0  0  0  # atno 10765 bound_to 10752
  140.1203  134.4838  155.8603 H   0  0  0  0  0  0  0  0  0  0  0  0  # atno 11005 bound_to 11000
  146.3280  140.3003  142.8620 LP  0  0  0  0  0  0  0  0  0  0  0  0  # atno 17320 bound_to 7965
  144.9434  140.8103  143.5616 LP  0  0  0  0  0  0  0  0  0  0  0  0  # atno 17321 bound_to 7965
  140.5056  144.1103  150.5981 LP  0  0  0  0  0  0  0  0  0  0  0  0  # atno 17342 bound_to 10162
  140.4011  143.2703  151.9946 LP  0  0  0  0  0  0  0  0  0  0  0  0  # atno 17343 bound_to 10162
  156.0959  130.5932  150.9813 LP  0  0  0  0  0  0  0  0  0  0  0  0  # atno 17370 bound_to 10713
  157.6430  131.0908  150.8212 LP  0  0  0  0  0  0  0  0  0  0  0  0  # atno 17371 bound_to 10713
  141.2150  133.6758  156.6876 LP  0  0  0  0  0  0  0  0  0  0  0  0  # atno 17394 bound_to 11000
  140.2974  134.8191  157.4068 LP  0  0  0  0  0  0  0  0  0  0  0  0  # atno 17395 bound_to 11000

$$$$
