AV-unprocessed.smi:1011|AV-procd|sdf|4421|dock6
  -GOLD-   22720 2373D 1   1.00000     0.00000
 Structure written by MMmdl.
 44 46  0  0  0  0  0  0  0  0  2 V2000
  151.1677  142.9864  157.7420 C   0  0  0  0  0  0  0  0  0  0  0  0
  150.9213  141.7668  156.9016 C   0  0  0  0  0  0  0  0  0  0  0  0
  151.3022  140.4228  157.1781 C   0  0  0  0  0  0  0  0  0  0  0  0
  150.9359  139.5785  156.2275 N   0  0  0  0  0  0  0  0  0  0  0  0
  150.3073  140.3498  155.3152 N   0  0  0  0  0  0  0  0  0  0  0  0
  149.7715  139.7481  154.1096 C   0  0  0  0  0  0  0  0  0  0  0  0
  148.3749  139.1538  154.3423 C   0  0  0  0  0  0  0  0  0  0  0  0
  147.8422  138.6581  153.0837 N   0  0  0  0  0  0  0  0  0  0  0  0
  146.3893  138.6556  153.1319 C   0  0  0  0  0  0  0  0  0  0  0  0
  145.8147  137.3679  152.6371 C   0  0  0  0  0  0  0  0  0  0  0  0
  146.4810  136.4419  151.8907 N   0  3  0  0  0  0  0  0  0  0  0  0
  145.6443  135.3595  151.6198 C   0  0  0  0  0  0  0  0  0  0  0  0
  145.8723  134.1876  150.9052 C   0  0  0  0  0  0  0  0  0  0  0  0
  144.7991  133.2759  150.8224 C   0  0  0  0  0  0  0  0  0  0  0  0
  145.0089  131.7998  149.9548 Cl  0  0  0  0  0  0  0  0  0  0  0  0
  143.5592  133.5480  151.4370 C   0  0  0  0  0  0  0  0  0  0  0  0
  143.3391  134.7405  152.1577 C   0  0  0  0  0  0  0  0  0  0  0  0
  144.4054  135.6360  152.2324 C   0  0  0  0  0  0  0  0  0  0  0  0
  144.5537  136.8863  152.8436 N   0  0  0  0  0  0  0  0  0  0  0  0
  143.4168  137.4583  153.5828 C   0  0  0  0  0  0  0  0  0  0  0  0
  142.1517  137.5815  152.7174 C   0  0  0  0  0  0  0  0  0  0  0  0
  141.5041  138.8154  152.9480 O   0  0  0  0  0  0  0  0  0  0  0  0
  150.2846  141.6746  155.6964 C   0  0  0  0  0  0  0  0  0  0  0  0
  151.9602  142.8213  158.4723 H   0  0  0  0  0  0  0  0  0  0  0  0
  150.2758  143.2794  158.2957 H   0  0  0  0  0  0  0  0  0  0  0  0
  151.4656  143.8412  157.1345 H   0  0  0  0  0  0  0  0  0  0  0  0
  151.8335  140.0384  158.0363 H   0  0  0  0  0  0  0  0  0  0  0  0
  149.7372  140.5096  153.3289 H   0  0  0  0  0  0  0  0  0  0  0  0
  150.4656  138.9772  153.7711 H   0  0  0  0  0  0  0  0  0  0  0  0
  148.4297  138.3379  155.0644 H   0  0  0  0  0  0  0  0  0  0  0  0
  147.7072  139.9126  154.7528 H   0  0  0  0  0  0  0  0  0  0  0  0
  148.1455  139.2801  152.3477 H   0  0  0  0  0  0  0  0  0  0  0  0
  146.0552  138.8001  154.1603 H   0  0  0  0  0  0  0  0  0  0  0  0
  146.0024  139.4913  152.5494 H   0  0  0  0  0  0  0  0  0  0  0  0
  146.8224  133.9787  150.4357 H   0  0  0  0  0  0  0  0  0  0  0  0
  142.7586  132.8274  151.3548 H   0  0  0  0  0  0  0  0  0  0  0  0
  142.3854  134.9359  152.6247 H   0  0  0  0  0  0  0  0  0  0  0  0
  143.2237  136.8268  154.4500 H   0  0  0  0  0  0  0  0  0  0  0  0
  143.7090  138.4306  153.9802 H   0  0  0  0  0  0  0  0  0  0  0  0
  142.4093  137.5102  151.6604 H   0  0  0  0  0  0  0  0  0  0  0  0
  141.4560  136.7706  152.9344 H   0  0  0  0  0  0  0  0  0  0  0  0
  141.2833  139.2001  152.1134 H   0  0  0  0  0  0  0  0  0  0  0  0
  149.8234  142.4358  155.0838 H   0  0  0  0  0  0  0  0  0  0  0  0
  147.4417  136.5501  151.5913 H   0  0  0  0  0  0  0  0  0  0  0  0
  1  2  1  0  0  0  0
  1 24  1  0  0  0  0
  1 25  1  0  0  0  0
  1 26  1  0  0  0  0
  2 23  2  0  0  0  0
  2  3  1  0  0  0  0
  3  4  2  0  0  0  0
  3 27  1  0  0  0  0
  4  5  1  0  0  0  0
  5  6  1  0  0  0  0
  5 23  1  0  0  0  0
  6  7  1  0  0  0  0
  6 28  1  0  0  0  0
  6 29  1  0  0  0  0
  7  8  1  0  0  0  0
  7 30  1  0  0  0  0
  7 31  1  0  0  0  0
  8  9  1  0  0  0  0
  8 32  1  0  0  0  0
  9 10  1  0  0  0  0
  9 33  1  0  0  0  0
  9 34  1  0  0  0  0
 10 19  1  0  0  0  0
 10 11  2  0  0  0  0
 11 12  1  0  0  0  0
 11 44  1  0  0  0  0
 12 18  2  0  0  0  0
 12 13  1  0  0  0  0
 13 14  2  0  0  0  0
 13 35  1  0  0  0  0
 14 15  1  0  0  0  0
 14 16  1  0  0  0  0
 16 17  2  0  0  0  0
 16 36  1  0  0  0  0
 17 18  1  0  0  0  0
 17 37  1  0  0  0  0
 18 19  1  0  0  0  0
 19 20  1  0  0  0  0
 20 21  1  0  0  0  0
 20 38  1  0  0  0  0
 20 39  1  0  0  0  0
 21 22  1  0  0  0  0
 21 40  1  0  0  0  0
 21 41  1  0  0  0  0
 22 42  1  0  0  0  0
 23 43  1  0  0  0  0
M  CHG  1  11   1
M  END
> <s_m_source_file>
AV-unprocessed.smi

> <i_m_source_file_index>
1011

> <i_lp_mmshare_version>
43012

> <i_f3d_flags>
0

> <s_epik_input>
W0NIM11jMVtjSF1ubihbY0hdMSlbQ0gyXVtDSDJdW05IXVtDSDJdYyhuMiluKFtDSDJdW0NIMl1bT0hdKWMoYzIzKVtjSF1bY0hdYyhDbClbY0hdMw==

> <s_epik_cmdline>
J2VwaWtfcHl0aG9uJywgJy1waCcsICc3LjAnLCAnLXRuJywgJzgnLCAnLW1hJywgJzIwMCcsICctbWV0YWxfYmluZGluZycsICctaW1hZScsICc8aW5maWxlLm1hZT4nLCAnLW9tYWUnLCAnPG91dGZpbGUubWFlPic=

> <r_epik_Ionization_Penalty>
1.62414

> <r_epik_Ionization_Penalty_Charging>
1.50824

> <r_epik_Ionization_Penalty_Neutral>
0.115896

> <r_epik_State_Penalty>
2.25317

> <r_epik_Charging_Adjusted_Penalty>
3.76141

> <i_epik_Tot_Q>
1

> <i_epik_Tot_abs_Q>
1

> <r_epik_Metal_State_Penalty>
2.26539

> <b_epik_Metal_Only>
0

> <s_lp_Force_Field>
OPLS_2005

> <r_lp_Energy>
12.3838

> <b_lp_Chiralities_Consistent>
1

> <s_lp_Variant>
AV-unprocessed.smi:1011-3

> <Gold.Version>
5.8.1

> <Gold.Id.Protein>
6NUR|6NUR_protein|mol2

> <Gold.PLP.Fitness>
54.9329

> <Gold.PLP.PLP>
-42.6004

> <Gold.PLP.part.hbond>
-4.7521

> <Gold.PLP.part.metal>
0.0000

> <Gold.PLP.part.buried>
-3.4421

> <Gold.PLP.part.nonpolar>
-34.9691

> <Gold.PLP.part.repulsive>
0.0655

> <Gold.PLP.ligand.clash>
0.0000

> <Gold.PLP.ligand.torsion>
1.3679

> <Gold.PLP.Chemscore.Hbond>
3.9840

> <Gold.PLP.Chemscore.CHOScore>
1.0000

> <Gold.PLP.Chemscore.Metal>
0.0000

> <Gold.Chemscore.Hbonds>
donor molecule, donor type, donor heavy atom, donor atom, acceptor molecule, acceptor atom, score
      L1  H     8    32       P1  7957  1.00
      L1  H    11    44       P1  7948  1.95
      L1  H    22    42       P1 10160  1.00
      L1  C    23    43       P1  8028  1.00

> <Gold.PLP.Chemscore.Internal.Correction>
0.1163

> <Gold.Rescore>
     Score         DG    S(hbond)    S(metal)    S(lipo)     H(rot)  DE(clash)    DE(int)     intcor
     17.25     -18.87       2.77        0.00      99.39       2.93       0.44       1.17       ----

> <Gold.Chemscore.Fitness>
17.2509

> <Gold.Chemscore.DG>
-18.8650

> <Gold.Chemscore.ZeroCoef>
-5.4800

> <Gold.Chemscore.Hbond>
2.7746

> <Gold.Chemscore.Metal>
0.0000

> <Gold.Chemscore.Lipo>
99.3919

> <Gold.Chemscore.Internal_Hbond>
0.0000

> <Gold.Chemscore.DEClash>
0.4428

> <Gold.Chemscore.DEInternal>
1.1713

> <Gold.Chemscore.Rot>
2.9340

> <Gold.Chemscore.Internal.Correction>
   9.000000E+99

> <Gold.Chemscore.Hbonds>
donor molecule, donor type, donor heavy atom, donor atom, acceptor molecule, acceptor atom, score
      L1  H     8    32       P1  7957  0.91
      L1  H    11    44       P1  7948  0.87
      L1  H    22    42       P1 10160  0.97

> <Gold.Chemscore.Hbond.Weighted>
-9.2672

> <Gold.Chemscore.Metal.Weighted>
-0.0000

> <Gold.Chemscore.Lipo.Weighted>
-11.6289

> <Gold.Chemscore.Internal_Hbond.Weighted>
0.0000

> <Gold.Chemscore.DEClash.Weighted>
0.4428

> <Gold.Chemscore.DEInternal.Weighted>
1.1713

> <Gold.Chemscore.Rot.Weighted>
7.5111

> <Gold.Chemscore.Internal.Correction.Weighted>
   9.000000E+99

> <Gold.Protein.RotatedTorsions>
[ 6907 6896 6895 6894 ] final -117.89 input  -60.11 | X-H torsion
[ 7974 7965 7964 7962 ] final  168.46 input  175.53 | X-H torsion
[ 8008 7997 7996 7995 ] final    0.71 input   59.86 | X-H torsion
[ 10167 10162 10161 10158 ] final -130.68 input  -65.29 | X-H torsion
[ 10718 10713 10712 10709 ] final  -44.03 input   66.30 | X-H torsion
[ 10763 10752 10751 10750 ] final -133.84 input  -60.55 | X-H torsion
[ 11005 11000 10999 10996 ] final -156.98 input  -57.11 | X-H torsion

> <Gold.Protein.ActiveResidues>
 VAL166  LYS551  ARG553  GLY616  TRP617  ASP618  TYR619  PRO620  LYS621  CYS622 
 ASP623  PHE694  ASN695  SER759  ASP760  ASP761  ALA762  ILE779  LEU786  VAL792 
 PHE793  MET794  SER795  GLU796  ALA797  LYS798  CYS799  TRP800  GLU811  SER814 

> <Gold.Protein.RotatedAtoms>
  150.8174  133.8313  159.3154 H   0  0  0  0  0  0  0  0  0  0  0  0  # atno 6907 bound_to 6896
  151.6081  135.1040  160.0085 H   0  0  0  0  0  0  0  0  0  0  0  0  # atno 6908 bound_to 6896
  152.4264  133.7162  159.6564 H   0  0  0  0  0  0  0  0  0  0  0  0  # atno 6909 bound_to 6896
  144.7388  139.8911  143.6403 H   0  0  0  0  0  0  0  0  0  0  0  0  # atno 7974 bound_to 7965
  154.6712  140.2612  155.7005 H   0  0  0  0  0  0  0  0  0  0  0  0  # atno 8008 bound_to 7997
  156.2659  140.2829  156.1144 H   0  0  0  0  0  0  0  0  0  0  0  0  # atno 8009 bound_to 7997
  155.1165  140.0376  157.2728 H   0  0  0  0  0  0  0  0  0  0  0  0  # atno 8010 bound_to 7997
  139.9268  143.6318  152.2540 H   0  0  0  0  0  0  0  0  0  0  0  0  # atno 10167 bound_to 10162
  156.2428  130.4181  149.8741 H   0  0  0  0  0  0  0  0  0  0  0  0  # atno 10718 bound_to 10713
  154.8727  135.3753  154.4639 H   0  0  0  0  0  0  0  0  0  0  0  0  # atno 10763 bound_to 10752
  153.5305  135.7028  153.5691 H   0  0  0  0  0  0  0  0  0  0  0  0  # atno 10764 bound_to 10752
  153.3898  135.3975  155.1880 H   0  0  0  0  0  0  0  0  0  0  0  0  # atno 10765 bound_to 10752
  140.6697  134.4261  157.5232 H   0  0  0  0  0  0  0  0  0  0  0  0  # atno 11005 bound_to 11000
  146.1141  139.4150  143.0269 LP  0  0  0  0  0  0  0  0  0  0  0  0  # atno 17320 bound_to 7965
  145.7400  141.0011  143.1306 LP  0  0  0  0  0  0  0  0  0  0  0  0  # atno 17321 bound_to 7965
  139.6815  144.7655  151.1600 LP  0  0  0  0  0  0  0  0  0  0  0  0  # atno 17342 bound_to 10162
  140.7648  143.5718  150.8988 LP  0  0  0  0  0  0  0  0  0  0  0  0  # atno 17343 bound_to 10162
  156.6316  130.8668  151.3496 LP  0  0  0  0  0  0  0  0  0  0  0  0  # atno 17370 bound_to 10713
  157.7182  130.9524  150.1336 LP  0  0  0  0  0  0  0  0  0  0  0  0  # atno 17371 bound_to 10713
  139.8986  134.8611  156.1996 LP  0  0  0  0  0  0  0  0  0  0  0  0  # atno 17394 bound_to 11000
  141.0402  133.6942  156.1584 LP  0  0  0  0  0  0  0  0  0  0  0  0  # atno 17395 bound_to 11000

$$$$
