AV-unprocessed.smi:678|AV-procd|sdf|3315|dock2
  -GOLD-   22720 0283D 1   1.00000     0.00000
 Structure written by MMmdl.
 51 52  0  0  0  0  0  0  0  0  2 V2000
  153.6466  141.8632  160.7469 C   0  0  0  0  0  0  0  0  0  0  0  0
  152.7191  142.2769  159.6178 C   0  0  0  0  0  0  0  0  0  0  0  0
  152.0762  143.4648  159.6322 C   0  0  0  0  0  0  0  0  0  0  0  0
  151.1931  143.8479  158.5574 C   0  0  0  0  0  0  0  0  0  0  0  0
  151.0257  142.9922  157.5391 C   0  0  0  0  0  0  0  0  0  0  0  0
  151.6853  141.7496  157.4982 N   0  0  0  0  0  0  0  0  0  0  0  0
  151.4229  140.8898  156.3311 C   0  0  0  0  0  0  0  0  0  0  0  0
  150.5086  139.7014  156.6590 C   0  0  0  0  0  0  0  0  0  0  0  0
  150.9831  138.5836  156.8643 O   0  0  0  0  0  0  0  0  0  0  0  0
  149.1937  139.9625  156.7055 N   0  0  0  0  0  0  0  0  0  0  0  0
  148.1477  138.9672  156.9136 C   0  0  0  0  0  0  0  0  0  0  0  0
  147.3030  138.7721  155.6412 C   0  0  2  0  0  0  0  0  0  0  0  0
  147.8473  137.6268  154.7583 C   0  0  0  0  0  0  0  0  0  0  0  0
  147.0930  137.5066  153.4830 N   0  3  1  0  0  0  0  0  0  0  0  0
  145.7709  136.8325  153.5979 C   0  0  0  0  0  0  0  0  0  0  0  0
  144.9712  136.8423  152.2770 C   0  0  0  0  0  0  0  0  0  0  0  0
  143.4947  136.4722  152.4984 C   0  0  0  0  0  0  0  0  0  0  0  0
  145.6120  135.8957  151.2512 C   0  0  0  0  0  0  0  0  0  0  0  0
  147.0325  138.8170  152.7908 C   0  0  0  0  0  0  0  0  0  0  0  0
  146.5025  139.9160  153.7278 C   0  0  0  0  0  0  0  0  0  0  0  0
  147.3266  139.9784  154.8837 O   0  0  0  0  0  0  0  0  0  0  0  0
  152.5333  141.3405  158.4936 C   0  0  0  0  0  0  0  0  0  0  0  0
  153.1026  140.2477  158.4447 O   0  0  0  0  0  0  0  0  0  0  0  0
  153.7024  142.6320  161.5182 H   0  0  0  0  0  0  0  0  0  0  0  0
  154.6550  141.6916  160.3691 H   0  0  0  0  0  0  0  0  0  0  0  0
  153.2927  140.9435  161.2140 H   0  0  0  0  0  0  0  0  0  0  0  0
  152.2180  144.1440  160.4601 H   0  0  0  0  0  0  0  0  0  0  0  0
  150.6771  144.7968  158.5751 H   0  0  0  0  0  0  0  0  0  0  0  0
  150.3771  143.2005  156.7007 H   0  0  0  0  0  0  0  0  0  0  0  0
  150.9617  141.4576  155.5220 H   0  0  0  0  0  0  0  0  0  0  0  0
  152.3691  140.5272  155.9242 H   0  0  0  0  0  0  0  0  0  0  0  0
  148.8937  140.9127  156.5402 H   0  0  0  0  0  0  0  0  0  0  0  0
  148.5699  138.0186  157.2498 H   0  0  0  0  0  0  0  0  0  0  0  0
  147.5129  139.3257  157.7243 H   0  0  0  0  0  0  0  0  0  0  0  0
  146.2771  138.5558  155.9425 H   0  0  0  0  0  0  0  0  0  0  0  0
  148.8908  137.8279  154.5120 H   0  0  0  0  0  0  0  0  0  0  0  0
  147.8436  136.6852  155.3055 H   0  0  0  0  0  0  0  0  0  0  0  0
  145.9026  135.8112  153.9550 H   0  0  0  0  0  0  0  0  0  0  0  0
  145.1719  137.3370  154.3575 H   0  0  0  0  0  0  0  0  0  0  0  0
  145.0042  137.8414  151.8434 H   0  0  0  0  0  0  0  0  0  0  0  0
  143.3958  135.4760  152.9310 H   0  0  0  0  0  0  0  0  0  0  0  0
  142.9438  136.4803  151.5574 H   0  0  0  0  0  0  0  0  0  0  0  0
  143.0012  137.1770  153.1679 H   0  0  0  0  0  0  0  0  0  0  0  0
  145.6120  134.8649  151.6073 H   0  0  0  0  0  0  0  0  0  0  0  0
  146.6455  136.1773  151.0470 H   0  0  0  0  0  0  0  0  0  0  0  0
  145.0738  135.9195  150.3032 H   0  0  0  0  0  0  0  0  0  0  0  0
  148.0400  139.0789  152.4652 H   0  0  0  0  0  0  0  0  0  0  0  0
  146.4275  138.7505  151.8858 H   0  0  0  0  0  0  0  0  0  0  0  0
  146.5304  140.8829  153.2251 H   0  0  0  0  0  0  0  0  0  0  0  0
  145.4641  139.7351  154.0097 H   0  0  0  0  0  0  0  0  0  0  0  0
  147.6383  136.9060  152.8807 H   0  0  0  0  0  0  0  0  0  0  0  0
  1  2  1  0  0  0  0
  1 24  1  0  0  0  0
  1 25  1  0  0  0  0
  1 26  1  0  0  0  0
  2 22  1  0  0  0  0
  2  3  2  0  0  0  0
  3  4  1  0  0  0  0
  3 27  1  0  0  0  0
  4  5  2  0  0  0  0
  4 28  1  0  0  0  0
  5  6  1  0  0  0  0
  5 29  1  0  0  0  0
  6  7  1  0  0  0  0
  6 22  1  0  0  0  0
  7  8  1  0  0  0  0
  7 30  1  0  0  0  0
  7 31  1  0  0  0  0
  8  9  2  0  0  0  0
  8 10  1  0  0  0  0
 10 11  1  0  0  0  0
 10 32  1  0  0  0  0
 11 12  1  0  0  0  0
 11 33  1  0  0  0  0
 11 34  1  0  0  0  0
 12 21  1  0  0  0  0
 12 13  1  0  0  0  0
 12 35  1  0  0  0  0
 13 14  1  0  0  0  0
 13 36  1  0  0  0  0
 13 37  1  0  0  0  0
 14 15  1  0  0  0  0
 14 19  1  0  0  0  0
 14 51  1  0  0  0  0
 15 16  1  0  0  0  0
 15 38  1  0  0  0  0
 15 39  1  0  0  0  0
 16 17  1  0  0  0  0
 16 18  1  0  0  0  0
 16 40  1  0  0  0  0
 17 41  1  0  0  0  0
 17 42  1  0  0  0  0
 17 43  1  0  0  0  0
 18 44  1  0  0  0  0
 18 45  1  0  0  0  0
 18 46  1  0  0  0  0
 19 20  1  0  0  0  0
 19 47  1  0  0  0  0
 19 48  1  0  0  0  0
 20 21  1  0  0  0  0
 20 49  1  0  0  0  0
 20 50  1  0  0  0  0
 22 23  2  0  0  0  0
M  CHG  1  14   1
M  END
> <s_m_source_file>
AV-unprocessed.smi

> <i_m_source_file_index>
678

> <i_lp_mmshare_version>
43012

> <i_f3d_flags>
0

> <s_epik_input>
W0NIM11jMVtjSF1bY0hdW2NIXW4oYzE9TylbQ0gyXUMoPU8pW05IXVtDSDJdW0NAQEhdMltDSDJdTihbQ0gyXVtDSDJdTzIpW0NIMl1bQ0hdKFtDSDNdKVtDSDNd

> <s_epik_cmdline>
J2VwaWtfcHl0aG9uJywgJy1waCcsICc3LjAnLCAnLXRuJywgJzgnLCAnLW1hJywgJzIwMCcsICctbWV0YWxfYmluZGluZycsICctaW1hZScsICc8aW5maWxlLm1hZT4nLCAnLW9tYWUnLCAnPG91dGZpbGUubWFlPic=

> <r_lp_tautomer_probability>
1

> <r_epik_Ionization_Penalty>
0.0975937

> <r_epik_Ionization_Penalty_Charging>
0.0975937

> <r_epik_Ionization_Penalty_Neutral>
6.27044e-08

> <r_epik_State_Penalty>
0.0877056

> <r_epik_Charging_Adjusted_Penalty>
0.185299

> <i_epik_Tot_Q>
1

> <i_epik_Tot_abs_Q>
1

> <r_epik_Metal_State_Penalty>
0.0877109

> <b_epik_Metal_Only>
0

> <s_lp_Force_Field>
OPLS_2005

> <r_lp_Energy>
29.877

> <b_lp_Chiralities_Consistent>
1

> <s_lp_Variant>
AV-unprocessed.smi:678-3

> <Gold.Version>
5.8.1

> <Gold.Id.Protein>
6NUR|6NUR_protein|mol2

> <Gold.PLP.Fitness>
45.3697

> <Gold.PLP.PLP>
-35.3734

> <Gold.PLP.part.hbond>
-2.0000

> <Gold.PLP.part.metal>
0.0000

> <Gold.PLP.part.buried>
-3.1852

> <Gold.PLP.part.nonpolar>
-29.7351

> <Gold.PLP.part.repulsive>
0.0859

> <Gold.PLP.ligand.clash>
0.0000

> <Gold.PLP.ligand.torsion>
1.0590

> <Gold.PLP.Chemscore.Hbond>
2.9913

> <Gold.PLP.Chemscore.CHOScore>
1.0000

> <Gold.PLP.Chemscore.Metal>
0.0000

> <Gold.Chemscore.Hbonds>
donor molecule, donor type, donor heavy atom, donor atom, acceptor molecule, acceptor atom, score
      L1  H    14    51       P1  7948  2.00
      P1  H  7997  8009       L1    23  0.87
      L1  C     5    29       P1  8028  1.00

> <Gold.PLP.Chemscore.Internal.Correction>
0.1405

> <Gold.Rescore>
     Score         DG    S(hbond)    S(metal)    S(lipo)     H(rot)  DE(clash)    DE(int)     intcor
     16.63     -17.77       1.84        0.00      93.84       1.89       0.13       1.01       ----

> <Gold.Chemscore.Fitness>
16.6327

> <Gold.Chemscore.DG>
-17.7726

> <Gold.Chemscore.ZeroCoef>
-5.4800

> <Gold.Chemscore.Hbond>
1.8396

> <Gold.Chemscore.Metal>
0.0000

> <Gold.Chemscore.Lipo>
93.8409

> <Gold.Chemscore.Internal_Hbond>
0.0000

> <Gold.Chemscore.DEClash>
0.1326

> <Gold.Chemscore.DEInternal>
1.0074

> <Gold.Chemscore.Rot>
1.8871

> <Gold.Chemscore.Internal.Correction>
   9.000000E+99

> <Gold.Chemscore.Hbonds>
donor molecule, donor type, donor heavy atom, donor atom, acceptor molecule, acceptor atom, score
      L1  H    14    51       P1  7948  1.00
      P1  H  7997  8009       L1    23  0.75

> <Gold.Chemscore.Hbond.Weighted>
-6.1442

> <Gold.Chemscore.Metal.Weighted>
-0.0000

> <Gold.Chemscore.Lipo.Weighted>
-10.9794

> <Gold.Chemscore.Internal_Hbond.Weighted>
0.0000

> <Gold.Chemscore.DEClash.Weighted>
0.1326

> <Gold.Chemscore.DEInternal.Weighted>
1.0074

> <Gold.Chemscore.Rot.Weighted>
4.8309

> <Gold.Chemscore.Internal.Correction.Weighted>
   9.000000E+99

> <Gold.Protein.RotatedTorsions>
[ 6907 6896 6895 6894 ] final  -51.17 input  -60.11 | X-H torsion
[ 7974 7965 7964 7962 ] final   91.20 input  175.53 | X-H torsion
[ 8008 7997 7996 7995 ] final  153.38 input   59.86 | X-H torsion
[ 10167 10162 10161 10158 ] final   27.36 input  -65.29 | X-H torsion
[ 10718 10713 10712 10709 ] final  122.27 input   66.30 | X-H torsion
[ 10763 10752 10751 10750 ] final -118.87 input  -60.55 | X-H torsion
[ 11005 11000 10999 10996 ] final  127.00 input  -57.11 | X-H torsion

> <Gold.Protein.ActiveResidues>
 VAL166  LYS551  ARG553  GLY616  TRP617  ASP618  TYR619  PRO620  LYS621  CYS622 
 ASP623  PHE694  ASN695  SER759  ASP760  ASP761  ALA762  ILE779  LEU786  VAL792 
 PHE793  MET794  SER795  GLU796  ALA797  LYS798  CYS799  TRP800  GLU811  SER814 

> <Gold.Protein.RotatedAtoms>
  150.8637  134.7995  159.7101 H   0  0  0  0  0  0  0  0  0  0  0  0  # atno 6907 bound_to 6896
  152.4665  134.5059  159.9749 H   0  0  0  0  0  0  0  0  0  0  0  0  # atno 6908 bound_to 6896
  151.5158  133.3437  159.2928 H   0  0  0  0  0  0  0  0  0  0  0  0  # atno 6909 bound_to 6896
  145.5089  139.2276  143.2736 H   0  0  0  0  0  0  0  0  0  0  0  0  # atno 7974 bound_to 7965
  156.2584  140.1995  156.6481 H   0  0  0  0  0  0  0  0  0  0  0  0  # atno 8008 bound_to 7997
  154.6558  140.0566  157.0032 H   0  0  0  0  0  0  0  0  0  0  0  0  # atno 8009 bound_to 7997
  155.1350  140.3237  155.4468 H   0  0  0  0  0  0  0  0  0  0  0  0  # atno 8010 bound_to 7997
  140.4944  144.0415  150.6309 H   0  0  0  0  0  0  0  0  0  0  0  0  # atno 10167 bound_to 10162
  157.5755  131.1079  150.8288 H   0  0  0  0  0  0  0  0  0  0  0  0  # atno 10718 bound_to 10713
  154.8600  135.4258  154.2208 H   0  0  0  0  0  0  0  0  0  0  0  0  # atno 10763 bound_to 10752
  153.3213  135.6982  153.7034 H   0  0  0  0  0  0  0  0  0  0  0  0  # atno 10764 bound_to 10752
  153.6087  135.3523  155.2945 H   0  0  0  0  0  0  0  0  0  0  0  0  # atno 10765 bound_to 10752
  139.9485  134.9626  156.8790 H   0  0  0  0  0  0  0  0  0  0  0  0  # atno 11005 bound_to 11000
  146.2179  140.5894  142.9030 LP  0  0  0  0  0  0  0  0  0  0  0  0  # atno 17320 bound_to 7965
  144.7738  140.5696  143.6652 LP  0  0  0  0  0  0  0  0  0  0  0  0  # atno 17321 bound_to 7965
  140.3693  143.2863  152.0296 LP  0  0  0  0  0  0  0  0  0  0  0  0  # atno 17342 bound_to 10162
  139.4858  144.6242  151.7196 LP  0  0  0  0  0  0  0  0  0  0  0  0  # atno 17343 bound_to 10162
  156.8748  130.5158  149.5294 LP  0  0  0  0  0  0  0  0  0  0  0  0  # atno 17370 bound_to 10713
  156.0799  130.5812  150.9544 LP  0  0  0  0  0  0  0  0  0  0  0  0  # atno 17371 bound_to 10713
  140.5777  134.0382  155.7452 LP  0  0  0  0  0  0  0  0  0  0  0  0  # atno 17394 bound_to 11000
  141.1142  133.9568  157.2854 LP  0  0  0  0  0  0  0  0  0  0  0  0  # atno 17395 bound_to 11000

$$$$
