AV-unprocessed.smi:1047|AV-procd|sdf|4597|dock10
  -GOLD-   22720 3 83D 1   1.00000     0.00000
 Structure written by MMmdl.
 57 59  0  0  0  0  0  0  0  0  3 V2000
  146.0895  142.5303  154.9576 C   0  0  0  0  0  0  0  0  0  0  0  0
  145.8760  141.1446  155.5832 C   0  0  0  0  0  0  0  0  0  0  0  0
  145.9185  140.0534  154.5739 N   0  3  2  0  0  0  0  0  0  0  0  0
  145.5871  138.7180  155.1296 C   0  0  0  0  0  0  0  0  0  0  0  0
  146.7762  138.1259  155.9083 C   0  0  0  0  0  0  0  0  0  0  0  0
  147.9138  138.0494  155.0578 O   0  0  0  0  0  0  0  0  0  0  0  0
  148.3203  139.3259  154.5745 C   0  0  1  0  0  0  0  0  0  0  0  0
  149.6243  139.1670  153.7726 C   0  0  0  0  0  0  0  0  0  0  0  0
  150.2970  137.9007  154.0525 N   0  0  0  0  0  0  0  0  0  0  0  0
  151.7531  138.0131  154.0942 C   0  0  0  0  0  0  0  0  0  0  0  0
  152.2157  139.3376  154.7278 C   0  0  2  0  0  0  0  0  0  0  0  0
  153.6000  139.5144  154.4974 O   0  0  0  0  0  0  0  0  0  0  0  0
  151.8771  139.4692  156.2276 C   0  0  0  0  0  0  0  0  0  0  0  0
  151.3726  140.8020  156.5826 N   0  0  0  0  0  0  0  0  0  0  0  0
  150.4928  141.6074  155.9277 C   0  0  0  0  0  0  0  0  0  0  0  0
  150.3553  142.7465  156.6617 N   0  3  0  0  0  0  0  0  0  0  0  0
  151.1610  142.6679  157.7998 C   0  0  0  0  0  0  0  0  0  0  0  0
  151.3606  143.5689  158.8389 C   0  0  0  0  0  0  0  0  0  0  0  0
  152.2566  143.1851  159.8624 C   0  0  0  0  0  0  0  0  0  0  0  0
  152.4958  144.1466  161.0143 C   0  0  0  0  0  0  0  0  0  0  0  0
  152.9192  141.9307  159.8205 C   0  0  0  0  0  0  0  0  0  0  0  0
  153.8793  141.5278  160.9269 C   0  0  0  0  0  0  0  0  0  0  0  0
  152.7040  141.0289  158.7536 C   0  0  0  0  0  0  0  0  0  0  0  0
  151.8172  141.4228  157.7545 C   0  0  0  0  0  0  0  0  0  0  0  0
  147.1705  139.9871  153.7771 C   0  0  0  0  0  0  0  0  0  0  0  0
  145.9559  143.3117  155.7059 H   0  0  0  0  0  0  0  0  0  0  0  0
  145.3733  142.7159  154.1565 H   0  0  0  0  0  0  0  0  0  0  0  0
  147.0922  142.6461  154.5473 H   0  0  0  0  0  0  0  0  0  0  0  0
  146.5999  140.9712  156.3792 H   0  0  0  0  0  0  0  0  0  0  0  0
  144.8947  141.1472  156.0592 H   0  0  0  0  0  0  0  0  0  0  0  0
  144.6987  138.7720  155.7599 H   0  0  0  0  0  0  0  0  0  0  0  0
  145.3334  138.0540  154.3021 H   0  0  0  0  0  0  0  0  0  0  0  0
  147.0052  138.7194  156.7946 H   0  0  0  0  0  0  0  0  0  0  0  0
  146.5318  137.1222  156.2563 H   0  0  0  0  0  0  0  0  0  0  0  0
  148.5602  139.9480  155.4377 H   0  0  0  0  0  0  0  0  0  0  0  0
  149.3938  139.2316  152.7085 H   0  0  0  0  0  0  0  0  0  0  0  0
  150.2915  140.0008  153.9944 H   0  0  0  0  0  0  0  0  0  0  0  0
  150.0354  137.2112  153.3548 H   0  0  0  0  0  0  0  0  0  0  0  0
  152.1786  137.1769  154.6507 H   0  0  0  0  0  0  0  0  0  0  0  0
  152.1530  137.9433  153.0819 H   0  0  0  0  0  0  0  0  0  0  0  0
  151.7147  140.1432  154.1904 H   0  0  0  0  0  0  0  0  0  0  0  0
  153.7106  139.9768  153.6809 H   0  0  0  0  0  0  0  0  0  0  0  0
  151.1353  138.7275  156.5268 H   0  0  0  0  0  0  0  0  0  0  0  0
  152.7612  139.2870  156.8400 H   0  0  0  0  0  0  0  0  0  0  0  0
  149.9941  141.3835  154.9956 H   0  0  0  0  0  0  0  0  0  0  0  0
  150.8530  144.5221  158.8641 H   0  0  0  0  0  0  0  0  0  0  0  0
  153.5534  144.4011  161.0889 H   0  0  0  0  0  0  0  0  0  0  0  0
  152.1784  143.7007  161.9575 H   0  0  0  0  0  0  0  0  0  0  0  0
  151.9394  145.0750  160.8809 H   0  0  0  0  0  0  0  0  0  0  0  0
  154.2763  140.5249  160.7658 H   0  0  0  0  0  0  0  0  0  0  0  0
  153.3753  141.5335  161.8935 H   0  0  0  0  0  0  0  0  0  0  0  0
  154.7228  142.2175  160.9709 H   0  0  0  0  0  0  0  0  0  0  0  0
  153.2078  140.0741  158.7204 H   0  0  0  0  0  0  0  0  0  0  0  0
  146.9533  139.3986  152.8851 H   0  0  0  0  0  0  0  0  0  0  0  0
  147.4657  140.9735  153.4217 H   0  0  0  0  0  0  0  0  0  0  0  0
  145.1764  140.2712  153.9240 H   0  0  0  0  0  0  0  0  0  0  0  0
  149.7569  143.5198  156.4011 H   0  0  0  0  0  0  0  0  0  0  0  0
  1  2  1  0  0  0  0
  1 26  1  0  0  0  0
  1 27  1  0  0  0  0
  1 28  1  0  0  0  0
  2  3  1  0  0  0  0
  2 29  1  0  0  0  0
  2 30  1  0  0  0  0
  3 25  1  0  0  0  0
  3  4  1  0  0  0  0
  3 56  1  0  0  0  0
  4  5  1  0  0  0  0
  4 31  1  0  0  0  0
  4 32  1  0  0  0  0
  5  6  1  0  0  0  0
  5 33  1  0  0  0  0
  5 34  1  0  0  0  0
  6  7  1  0  0  0  0
  7  8  1  0  0  0  0
  7 25  1  0  0  0  0
  7 35  1  0  0  0  0
  8  9  1  0  0  0  0
  8 36  1  0  0  0  0
  8 37  1  0  0  0  0
  9 10  1  0  0  0  0
  9 38  1  0  0  0  0
 10 11  1  0  0  0  0
 10 39  1  0  0  0  0
 10 40  1  0  0  0  0
 11 12  1  0  0  0  0
 11 13  1  0  0  0  0
 11 41  1  0  0  0  0
 12 42  1  0  0  0  0
 13 14  1  0  0  0  0
 13 43  1  0  0  0  0
 13 44  1  0  0  0  0
 14 24  1  0  0  0  0
 14 15  1  0  0  0  0
 15 16  2  0  0  0  0
 15 45  1  0  0  0  0
 16 17  1  0  0  0  0
 16 57  1  0  0  0  0
 17 24  2  0  0  0  0
 17 18  1  0  0  0  0
 18 19  2  0  0  0  0
 18 46  1  0  0  0  0
 19 20  1  0  0  0  0
 19 21  1  0  0  0  0
 20 47  1  0  0  0  0
 20 48  1  0  0  0  0
 20 49  1  0  0  0  0
 21 22  1  0  0  0  0
 21 23  2  0  0  0  0
 22 50  1  0  0  0  0
 22 51  1  0  0  0  0
 22 52  1  0  0  0  0
 23 24  1  0  0  0  0
 23 53  1  0  0  0  0
 25 54  1  0  0  0  0
 25 55  1  0  0  0  0
M  CHG  1   3   1
M  CHG  1  16   1
M  END
> <s_m_source_file>
AV-unprocessed.smi

> <i_m_source_file_index>
1047

> <i_lp_mmshare_version>
43012

> <i_f3d_flags>
0

> <s_epik_input>
W0NIM11bQ0gyXU4xW0NIMl1bQ0gyXU9bQ0BIXShbQ0gyXTEpW0NIMl1bTkhdW0NIMl1bQ0BIXShbT0hdKVtDSDJdbihbY0hdbjIpYyhjMjMpW2NIXWMoW0NIM10pYyhbY0hdMylbQ0gzXQ==

> <s_epik_cmdline>
J2VwaWtfcHl0aG9uJywgJy1waCcsICc3LjAnLCAnLXRuJywgJzgnLCAnLW1hJywgJzIwMCcsICctbWV0YWxfYmluZGluZycsICctaW1hZScsICc8aW5maWxlLm1hZT4nLCAnLW9tYWUnLCAnPG91dGZpbGUubWFlPic=

> <r_epik_Ionization_Penalty>
2.03028

> <r_epik_Ionization_Penalty_Charging>
1.21256

> <r_epik_Ionization_Penalty_Neutral>
0.817715

> <r_epik_State_Penalty>
2.54959

> <r_epik_Charging_Adjusted_Penalty>
3.76215

> <i_epik_Tot_Q>
2

> <i_epik_Tot_abs_Q>
2

> <r_epik_Metal_State_Penalty>
6.52811

> <b_epik_Metal_Only>
0

> <s_lp_Force_Field>
OPLS_2005

> <r_lp_Energy>
43.5189

> <b_lp_Chiralities_Consistent>
1

> <s_lp_Variant>
AV-unprocessed.smi:1047-38

> <Gold.Version>
5.8.1

> <Gold.Id.Protein>
6NUR|6NUR_protein|mol2

> <Gold.PLP.Fitness>
65.4223

> <Gold.PLP.PLP>
-51.0764

> <Gold.PLP.part.hbond>
-4.0000

> <Gold.PLP.part.metal>
0.0000

> <Gold.PLP.part.buried>
-3.8102

> <Gold.PLP.part.nonpolar>
-44.3926

> <Gold.PLP.part.repulsive>
0.1675

> <Gold.PLP.ligand.clash>
0.0000

> <Gold.PLP.ligand.torsion>
1.8196

> <Gold.PLP.Chemscore.Hbond>
5.9588

> <Gold.PLP.Chemscore.CHOScore>
0.0000

> <Gold.PLP.Chemscore.Metal>
0.0000

> <Gold.Chemscore.Hbonds>
donor molecule, donor type, donor heavy atom, donor atom, acceptor molecule, acceptor atom, score
      L1  H     3    56       P1 10175  1.72
      L1  H     9    38       P1  7948  0.98
      L1  H    16    57       P1  8028  2.00
      P1  H  7997  8010       L1    12  1.00

> <Gold.PLP.Chemscore.Internal.Correction>
0.1089

> <Gold.Rescore>
     Score         DG    S(hbond)    S(metal)    S(lipo)     H(rot)  DE(clash)    DE(int)     intcor
     22.64     -24.78       3.50        0.00     124.31       2.71       0.37       1.77       ----

> <Gold.Chemscore.Fitness>
22.6391

> <Gold.Chemscore.DG>
-24.7769

> <Gold.Chemscore.ZeroCoef>
-5.4800

> <Gold.Chemscore.Hbond>
3.4991

> <Gold.Chemscore.Metal>
0.0000

> <Gold.Chemscore.Lipo>
124.3118

> <Gold.Chemscore.Internal_Hbond>
0.0000

> <Gold.Chemscore.DEClash>
0.3673

> <Gold.Chemscore.DEInternal>
1.7705

> <Gold.Chemscore.Rot>
2.7088

> <Gold.Chemscore.Internal.Correction>
   9.000000E+99

> <Gold.Chemscore.Hbonds>
donor molecule, donor type, donor heavy atom, donor atom, acceptor molecule, acceptor atom, score
      L1  H     3    56       P1 10175  0.84
      L1  H     9    38       P1  7948  0.23
      L1  H    16    57       P1  8028  1.00
      P1  H  7997  8010       L1    12  0.77

> <Gold.Chemscore.Hbond.Weighted>
-11.6870

> <Gold.Chemscore.Metal.Weighted>
-0.0000

> <Gold.Chemscore.Lipo.Weighted>
-14.5445

> <Gold.Chemscore.Internal_Hbond.Weighted>
0.0000

> <Gold.Chemscore.DEClash.Weighted>
0.3673

> <Gold.Chemscore.DEInternal.Weighted>
1.7705

> <Gold.Chemscore.Rot.Weighted>
6.9346

> <Gold.Chemscore.Internal.Correction.Weighted>
   9.000000E+99

> <Gold.Protein.RotatedTorsions>
[ 6907 6896 6895 6894 ] final  -54.93 input  -60.11 | X-H torsion
[ 7974 7965 7964 7962 ] final   23.88 input  175.53 | X-H torsion
[ 8008 7997 7996 7995 ] final  100.89 input   59.86 | X-H torsion
[ 10167 10162 10161 10158 ] final  -56.89 input  -65.29 | X-H torsion
[ 10718 10713 10712 10709 ] final  159.93 input   66.30 | X-H torsion
[ 10763 10752 10751 10750 ] final  162.89 input  -60.55 | X-H torsion
[ 11005 11000 10999 10996 ] final  122.49 input  -57.11 | X-H torsion

> <Gold.Protein.ActiveResidues>
 VAL166  LYS551  ARG553  GLY616  TRP617  ASP618  TYR619  PRO620  LYS621  CYS622 
 ASP623  PHE694  ASN695  SER759  ASP760  ASP761  ALA762  ILE779  LEU786  VAL792 
 PHE793  MET794  SER795  GLU796  ALA797  LYS798  CYS799  TRP800  GLU811  SER814 

> <Gold.Protein.RotatedAtoms>
  150.8296  134.7542  159.6841 H   0  0  0  0  0  0  0  0  0  0  0  0  # atno 6907 bound_to 6896
  152.4402  134.5603  159.9902 H   0  0  0  0  0  0  0  0  0  0  0  0  # atno 6908 bound_to 6896
  151.5767  133.3345  159.3036 H   0  0  0  0  0  0  0  0  0  0  0  0  # atno 6909 bound_to 6896
  146.1964  139.7682  142.8794 H   0  0  0  0  0  0  0  0  0  0  0  0  # atno 7974 bound_to 7965
  156.1247  140.3206  155.8259 H   0  0  0  0  0  0  0  0  0  0  0  0  # atno 8008 bound_to 7997
  155.4442  140.0527  157.3024 H   0  0  0  0  0  0  0  0  0  0  0  0  # atno 8009 bound_to 7997
  154.4853  140.2070  155.9683 H   0  0  0  0  0  0  0  0  0  0  0  0  # atno 8010 bound_to 7997
  140.6291  143.2451  151.5288 H   0  0  0  0  0  0  0  0  0  0  0  0  # atno 10167 bound_to 10162
  157.1574  131.0579  151.2250 H   0  0  0  0  0  0  0  0  0  0  0  0  # atno 10718 bound_to 10713
  154.2854  135.2762  155.2679 H   0  0  0  0  0  0  0  0  0  0  0  0  # atno 10763 bound_to 10752
  154.5181  135.5764  153.6662 H   0  0  0  0  0  0  0  0  0  0  0  0  # atno 10764 bound_to 10752
  152.9922  135.6197  154.3015 H   0  0  0  0  0  0  0  0  0  0  0  0  # atno 10765 bound_to 10752
  139.9270  134.9641  156.8116 H   0  0  0  0  0  0  0  0  0  0  0  0  # atno 11005 bound_to 11000
  145.3630  141.0329  143.3274 LP  0  0  0  0  0  0  0  0  0  0  0  0  # atno 17320 bound_to 7965
  144.8589  139.5208  143.6821 LP  0  0  0  0  0  0  0  0  0  0  0  0  # atno 17321 bound_to 7965
  139.5507  144.2403  152.1525 LP  0  0  0  0  0  0  0  0  0  0  0  0  # atno 17342 bound_to 10162
  140.1642  144.4997  150.6615 LP  0  0  0  0  0  0  0  0  0  0  0  0  # atno 17343 bound_to 10162
  157.4165  130.7413  149.6879 LP  0  0  0  0  0  0  0  0  0  0  0  0  # atno 17370 bound_to 10713
  155.9760  130.4082  150.3812 LP  0  0  0  0  0  0  0  0  0  0  0  0  # atno 17371 bound_to 10713
  140.6307  133.9908  155.7660 LP  0  0  0  0  0  0  0  0  0  0  0  0  # atno 17394 bound_to 11000
  141.0835  134.0026  157.3350 LP  0  0  0  0  0  0  0  0  0  0  0  0  # atno 17395 bound_to 11000

$$$$
