AV-unprocessed.smi:2772|AV-procd|sdf|10665|dock4
  -GOLD-   2272015113D 1   1.00000     0.00000
 Structure written by MMmdl.
 55 57  0  0  0  0  0  0  0  0  3 V2000
  150.9355  141.9986  156.7074 C   0  0  0  0  0  0  0  0  0  0  0  0
  150.0952  141.0220  155.9116 C   0  0  0  0  0  0  0  0  0  0  0  0
  148.6977  141.1822  155.8109 C   0  0  0  0  0  0  0  0  0  0  0  0
  147.9651  140.2441  155.0584 C   0  0  0  0  0  0  0  0  0  0  0  0
  148.6554  139.1740  154.4397 C   0  0  0  0  0  0  0  0  0  0  0  0
  148.0333  138.1786  153.6391 N   0  0  0  0  0  0  0  0  0  0  0  0
  146.7537  138.1119  153.2338 C   0  0  0  0  0  0  0  0  0  0  0  0
  145.8699  138.9143  153.5330 O   0  0  0  0  0  0  0  0  0  0  0  0
  146.5477  137.0326  152.4652 N   0  0  0  0  0  0  0  0  0  0  0  0
  145.2762  136.6455  151.8592 C   0  0  2  0  0  0  0  0  0  0  0  0
  144.3362  136.0668  152.9334 C   0  0  0  0  0  0  0  0  0  0  0  0
  143.0591  135.4805  152.3000 C   0  0  0  0  0  0  0  0  0  0  0  0
  143.3727  134.4408  151.2775 N   0  3  2  0  0  0  0  0  0  0  0  0
  143.8943  133.1390  151.8221 C   0  0  2  0  0  0  0  0  0  0  0  0
  145.2015  133.3225  152.6349 C   0  0  0  0  0  0  0  0  0  0  0  0
  145.7846  131.9864  153.1261 C   0  0  0  0  0  0  0  0  0  0  0  0
  146.0261  131.0603  151.9963 N   0  3  1  0  0  0  0  0  0  0  0  0
  146.7010  129.8149  152.4211 C   0  0  0  0  0  0  0  0  0  0  0  0
  144.7804  130.7989  151.2398 C   0  0  0  0  0  0  0  0  0  0  0  0
  144.1726  132.1053  150.7011 C   0  0  0  0  0  0  0  0  0  0  0  0
  144.1943  135.0576  150.1964 C   0  0  0  0  0  0  0  0  0  0  0  0
  145.5230  135.6195  150.7379 C   0  0  0  0  0  0  0  0  0  0  0  0
  150.0566  139.1188  154.5947 C   0  0  0  0  0  0  0  0  0  0  0  0
  150.7664  140.0135  155.3149 N   0  0  0  0  0  0  0  0  0  0  0  0
  150.3191  142.7773  157.1574 H   0  0  0  0  0  0  0  0  0  0  0  0
  151.6721  142.4784  156.0624 H   0  0  0  0  0  0  0  0  0  0  0  0
  151.4650  141.4798  157.5070 H   0  0  0  0  0  0  0  0  0  0  0  0
  148.1951  142.0074  156.2937 H   0  0  0  0  0  0  0  0  0  0  0  0
  146.8985  140.3727  154.9596 H   0  0  0  0  0  0  0  0  0  0  0  0
  148.6226  137.3988  153.3864 H   0  0  0  0  0  0  0  0  0  0  0  0
  147.3380  136.4313  152.2835 H   0  0  0  0  0  0  0  0  0  0  0  0
  144.7842  137.5124  151.4140 H   0  0  0  0  0  0  0  0  0  0  0  0
  144.8500  135.2996  153.5135 H   0  0  0  0  0  0  0  0  0  0  0  0
  144.0652  136.8496  153.6428 H   0  0  0  0  0  0  0  0  0  0  0  0
  142.3764  135.1158  153.0643 H   0  0  0  0  0  0  0  0  0  0  0  0
  142.5104  136.2844  151.8070 H   0  0  0  0  0  0  0  0  0  0  0  0
  143.1456  132.7129  152.4902 H   0  0  0  0  0  0  0  0  0  0  0  0
  145.9447  133.8439  152.0300 H   0  0  0  0  0  0  0  0  0  0  0  0
  145.0304  133.9341  153.5195 H   0  0  0  0  0  0  0  0  0  0  0  0
  146.7221  132.1709  153.6524 H   0  0  0  0  0  0  0  0  0  0  0  0
  145.1060  131.5206  153.8428 H   0  0  0  0  0  0  0  0  0  0  0  0
  146.0772  129.2457  153.1118 H   0  0  0  0  0  0  0  0  0  0  0  0
  147.6456  130.0391  152.9181 H   0  0  0  0  0  0  0  0  0  0  0  0
  146.9223  129.1837  151.5598 H   0  0  0  0  0  0  0  0  0  0  0  0
  144.9942  130.1274  150.4070 H   0  0  0  0  0  0  0  0  0  0  0  0
  144.0621  130.2867  151.8823 H   0  0  0  0  0  0  0  0  0  0  0  0
  143.2555  131.8343  150.1803 H   0  0  0  0  0  0  0  0  0  0  0  0
  144.8415  132.5379  149.9555 H   0  0  0  0  0  0  0  0  0  0  0  0
  144.3668  134.3748  149.3673 H   0  0  0  0  0  0  0  0  0  0  0  0
  143.6192  135.8750  149.7588 H   0  0  0  0  0  0  0  0  0  0  0  0
  146.0781  136.0909  149.9260 H   0  0  0  0  0  0  0  0  0  0  0  0
  146.1520  134.8054  151.0999 H   0  0  0  0  0  0  0  0  0  0  0  0
  150.6284  138.3287  154.1301 H   0  0  0  0  0  0  0  0  0  0  0  0
  142.4888  134.2106  150.8457 H   0  0  0  0  0  0  0  0  0  0  0  0
  146.6615  131.5268  151.3644 H   0  0  0  0  0  0  0  0  0  0  0  0
  1  2  1  0  0  0  0
  1 25  1  0  0  0  0
  1 26  1  0  0  0  0
  1 27  1  0  0  0  0
  2 24  1  0  0  0  0
  2  3  2  0  0  0  0
  3  4  1  0  0  0  0
  3 28  1  0  0  0  0
  4  5  2  0  0  0  0
  4 29  1  0  0  0  0
  5  6  1  0  0  0  0
  5 23  1  0  0  0  0
  6  7  1  0  0  0  0
  6 30  1  0  0  0  0
  7  8  2  0  0  0  0
  7  9  1  0  0  0  0
  9 10  1  0  0  0  0
  9 31  1  0  0  0  0
 10 22  1  0  0  0  0
 10 11  1  0  0  0  0
 10 32  1  0  0  0  0
 11 12  1  0  0  0  0
 11 33  1  0  0  0  0
 11 34  1  0  0  0  0
 12 13  1  0  0  0  0
 12 35  1  0  0  0  0
 12 36  1  0  0  0  0
 13 14  1  0  0  0  0
 13 21  1  0  0  0  0
 13 54  1  0  0  0  0
 14 20  1  0  0  0  0
 14 15  1  0  0  0  0
 14 37  1  0  0  0  0
 15 16  1  0  0  0  0
 15 38  1  0  0  0  0
 15 39  1  0  0  0  0
 16 17  1  0  0  0  0
 16 40  1  0  0  0  0
 16 41  1  0  0  0  0
 17 18  1  0  0  0  0
 17 19  1  0  0  0  0
 17 55  1  0  0  0  0
 18 42  1  0  0  0  0
 18 43  1  0  0  0  0
 18 44  1  0  0  0  0
 19 20  1  0  0  0  0
 19 45  1  0  0  0  0
 19 46  1  0  0  0  0
 20 47  1  0  0  0  0
 20 48  1  0  0  0  0
 21 22  1  0  0  0  0
 21 49  1  0  0  0  0
 21 50  1  0  0  0  0
 22 51  1  0  0  0  0
 22 52  1  0  0  0  0
 23 24  2  0  0  0  0
 23 53  1  0  0  0  0
M  CHG  1  13   1
M  CHG  1  17   1
M  END
> <s_m_source_file>
AV-unprocessed.smi

> <i_m_source_file_index>
2772

> <i_lp_mmshare_version>
43012

> <i_f3d_flags>
0

> <s_epik_input>
W0NIM11jMVtjSF1bY0hdYyhbY0hdbjEpW05IXUMoPU8pW05IXVtDSF0yW0NIMl1bQ0gyXU4oW0NIMl1bQ0gyXTIpW0NIXTNbQ0gyXVtDSDJdTihbQ0gzXSlbQ0gyXVtDSDJdMw==

> <s_epik_cmdline>
J2VwaWtfcHl0aG9uJywgJy1waCcsICc3LjAnLCAnLXRuJywgJzgnLCAnLW1hJywgJzIwMCcsICctbWV0YWxfYmluZGluZycsICctaW1hZScsICc8aW5maWxlLm1hZT4nLCAnLW9tYWUnLCAnPG91dGZpbGUubWFlPic=

> <r_epik_Ionization_Penalty>
0.196786

> <r_epik_Ionization_Penalty_Charging>
0.180787

> <r_epik_Ionization_Penalty_Neutral>
0.0159988

> <r_epik_State_Penalty>
0.163322

> <r_epik_Charging_Adjusted_Penalty>
0.344109

> <i_epik_Tot_Q>
2

> <i_epik_Tot_abs_Q>
2

> <r_epik_Metal_State_Penalty>
0.163596

> <b_epik_Metal_Only>
0

> <s_lp_Force_Field>
OPLS_2005

> <r_lp_Energy>
45.3322

> <b_lp_Chiralities_Consistent>
1

> <s_lp_Variant>
AV-unprocessed.smi:2772-2

> <Gold.Version>
5.8.1

> <Gold.Id.Protein>
6NUR|6NUR_protein|mol2

> <Gold.PLP.Fitness>
47.9559

> <Gold.PLP.PLP>
-38.3824

> <Gold.PLP.part.hbond>
-4.2318

> <Gold.PLP.part.metal>
0.0000

> <Gold.PLP.part.buried>
-5.2036

> <Gold.PLP.part.nonpolar>
-32.3786

> <Gold.PLP.part.repulsive>
2.2257

> <Gold.PLP.ligand.clash>
3.6243

> <Gold.PLP.ligand.torsion>
0.2445

> <Gold.PLP.Chemscore.Hbond>
4.5480

> <Gold.PLP.Chemscore.CHOScore>
0.0000

> <Gold.PLP.Chemscore.Metal>
0.0000

> <Gold.Chemscore.Hbonds>
donor molecule, donor type, donor heavy atom, donor atom, acceptor molecule, acceptor atom, score
      L1  H     6    30       P1  7948  0.78
      L1  H     9    31       P1  7948  1.00
      L1  H    13    54       P1 10186  2.00
      P1  H  7989  7998       L1    24  0.37

> <Gold.PLP.Chemscore.Internal.Correction>
0.0428

> <Gold.Rescore>
     Score         DG    S(hbond)    S(metal)    S(lipo)     H(rot)  DE(clash)    DE(int)     intcor
     18.00     -22.08       2.17        0.00     106.33       1.21       0.28       3.80       ----

> <Gold.Chemscore.Fitness>
18.0036

> <Gold.Chemscore.DG>
-22.0815

> <Gold.Chemscore.ZeroCoef>
-5.4800

> <Gold.Chemscore.Hbond>
2.1725

> <Gold.Chemscore.Metal>
0.0000

> <Gold.Chemscore.Lipo>
106.3319

> <Gold.Chemscore.Internal_Hbond>
0.0000

> <Gold.Chemscore.DEClash>
0.2800

> <Gold.Chemscore.DEInternal>
3.7980

> <Gold.Chemscore.Rot>
1.2092

> <Gold.Chemscore.Internal.Correction>
   9.000000E+99

> <Gold.Chemscore.Hbonds>
donor molecule, donor type, donor heavy atom, donor atom, acceptor molecule, acceptor atom, score
      L1  H     6    30       P1  7948  0.79
      L1  H     9    31       P1  7948  0.94
      L1  H    13    54       P1 10186  0.34
      P1  H  7989  7998       L1    24  0.01

> <Gold.Chemscore.Hbond.Weighted>
-7.2561

> <Gold.Chemscore.Metal.Weighted>
-0.0000

> <Gold.Chemscore.Lipo.Weighted>
-12.4408

> <Gold.Chemscore.Internal_Hbond.Weighted>
0.0000

> <Gold.Chemscore.DEClash.Weighted>
0.2800

> <Gold.Chemscore.DEInternal.Weighted>
3.7980

> <Gold.Chemscore.Rot.Weighted>
3.0955

> <Gold.Chemscore.Internal.Correction.Weighted>
   9.000000E+99

> <Gold.Protein.RotatedTorsions>
[ 6907 6896 6895 6894 ] final   68.61 input  -60.11 | X-H torsion
[ 7974 7965 7964 7962 ] final   -6.38 input  175.53 | X-H torsion
[ 8008 7997 7996 7995 ] final -102.94 input   59.86 | X-H torsion
[ 10167 10162 10161 10158 ] final   27.99 input  -65.29 | X-H torsion
[ 10718 10713 10712 10709 ] final  174.40 input   66.30 | X-H torsion
[ 10763 10752 10751 10750 ] final -123.45 input  -60.55 | X-H torsion
[ 11005 11000 10999 10996 ] final  168.91 input  -57.11 | X-H torsion

> <Gold.Protein.ActiveResidues>
 VAL166  LYS551  ARG553  GLY616  TRP617  ASP618  TYR619  PRO620  LYS621  CYS622 
 ASP623  PHE694  ASN695  SER759  ASP760  ASP761  ALA762  ILE779  LEU786  VAL792 
 PHE793  MET794  SER795  GLU796  ALA797  LYS798  CYS799  TRP800  GLU811  SER814 

> <Gold.Protein.RotatedAtoms>
  152.4632  134.5136  159.9761 H   0  0  0  0  0  0  0  0  0  0  0  0  # atno 6907 bound_to 6896
  151.5180  133.3466  159.2904 H   0  0  0  0  0  0  0  0  0  0  0  0  # atno 6908 bound_to 6896
  150.8604  134.7983  159.7140 H   0  0  0  0  0  0  0  0  0  0  0  0  # atno 6909 bound_to 6896
  146.2332  140.2162  142.8336 H   0  0  0  0  0  0  0  0  0  0  0  0  # atno 7974 bound_to 7965
  154.8638  140.0425  157.1682 H   0  0  0  0  0  0  0  0  0  0  0  0  # atno 8008 bound_to 7997
  154.8812  140.2973  155.5403 H   0  0  0  0  0  0  0  0  0  0  0  0  # atno 8009 bound_to 7997
  156.2999  140.2411  156.3814 H   0  0  0  0  0  0  0  0  0  0  0  0  # atno 8010 bound_to 7997
  140.4891  144.0495  150.6291 H   0  0  0  0  0  0  0  0  0  0  0  0  # atno 10167 bound_to 10162
  156.9502  131.0028  151.2950 H   0  0  0  0  0  0  0  0  0  0  0  0  # atno 10718 bound_to 10713
  154.8708  135.4097  154.2946 H   0  0  0  0  0  0  0  0  0  0  0  0  # atno 10763 bound_to 10752
  153.3816  135.7011  153.6566 H   0  0  0  0  0  0  0  0  0  0  0  0  # atno 10764 bound_to 10752
  153.5386  135.3652  155.2680 H   0  0  0  0  0  0  0  0  0  0  0  0  # atno 10765 bound_to 10752
  140.2922  134.7664  157.3847 H   0  0  0  0  0  0  0  0  0  0  0  0  # atno 11005 bound_to 11000
  144.9668  140.8329  143.5480 LP  0  0  0  0  0  0  0  0  0  0  0  0  # atno 17320 bound_to 7965
  145.2139  139.2191  143.5128 LP  0  0  0  0  0  0  0  0  0  0  0  0  # atno 17321 bound_to 7965
  140.3759  143.2829  152.0226 LP  0  0  0  0  0  0  0  0  0  0  0  0  # atno 17342 bound_to 10162
  139.4848  144.6193  151.7285 LP  0  0  0  0  0  0  0  0  0  0  0  0  # atno 17343 bound_to 10162
  157.5727  130.8321  149.8413 LP  0  0  0  0  0  0  0  0  0  0  0  0  # atno 17370 bound_to 10713
  156.0366  130.3750  150.1544 LP  0  0  0  0  0  0  0  0  0  0  0  0  # atno 17371 bound_to 10713
  140.1185  134.5251  155.8204 LP  0  0  0  0  0  0  0  0  0  0  0  0  # atno 17394 bound_to 11000
  141.2144  133.6748  156.6822 LP  0  0  0  0  0  0  0  0  0  0  0  0  # atno 17395 bound_to 11000

$$$$
