AV-unprocessed.smi:618|AV-procd|sdf|3076|dock3
  -GOLD-   22720 0 03D 1   1.00000     0.00000
 Structure written by MMmdl.
 41 43  0  0  0  0  0  0  0  0  2 V2000
  146.4949  138.9855  154.5628 O   0  0  0  0  0  0  0  0  0  0  0  0
  147.2400  138.3596  153.8094 C   0  0  0  0  0  0  0  0  0  0  0  0
  146.8014  137.4441  152.9344 N   0  0  0  0  0  0  0  0  0  0  0  0
  145.4035  137.0731  152.7419 C   0  0  0  0  0  0  0  0  0  0  0  0
  145.2594  135.6322  152.2206 C   0  0  2  0  0  0  0  0  0  0  0  0
  145.6953  135.5062  150.7485 C   0  0  0  0  0  0  0  0  0  0  0  0
  145.4354  134.1503  150.2106 N   0  3  1  0  0  0  0  0  0  0  0  0
  146.4249  133.1045  150.5522 C   0  0  0  0  0  0  0  0  0  0  0  0
  145.6499  131.7785  150.6074 C   0  0  0  0  0  0  0  0  0  0  0  0
  144.2126  132.1279  150.2070 C   0  0  0  0  0  0  0  0  0  0  0  0
  144.0903  133.6208  150.5158 C   0  0  1  0  0  0  0  0  0  0  0  0
  143.7013  133.8830  151.9886 C   0  0  0  0  0  0  0  0  0  0  0  0
  143.8907  135.2531  152.3121 O   0  0  0  0  0  0  0  0  0  0  0  0
  148.5770  138.4820  153.7549 N   0  0  0  0  0  0  0  0  0  0  0  0
  149.4181  139.3536  154.4980 C   0  0  0  0  0  0  0  0  0  0  0  0
  148.8446  140.5240  155.0363 C   0  0  0  0  0  0  0  0  0  0  0  0
  149.6484  141.3979  155.7924 C   0  0  0  0  0  0  0  0  0  0  0  0
  151.0012  141.0605  155.9901 C   0  0  0  0  0  0  0  0  0  0  0  0
  151.5635  139.9376  155.4956 N   0  0  0  0  0  0  0  0  0  0  0  0
  150.7869  139.1049  154.7692 C   0  0  0  0  0  0  0  0  0  0  0  0
  147.4815  136.9732  152.3553 H   0  0  0  0  0  0  0  0  0  0  0  0
  144.8847  137.1819  153.6947 H   0  0  0  0  0  0  0  0  0  0  0  0
  144.9331  137.7752  152.0513 H   0  0  0  0  0  0  0  0  0  0  0  0
  145.8662  134.9687  152.8390 H   0  0  0  0  0  0  0  0  0  0  0  0
  145.1324  136.2177  150.1429 H   0  0  0  0  0  0  0  0  0  0  0  0
  146.7496  135.7577  150.6276 H   0  0  0  0  0  0  0  0  0  0  0  0
  147.2136  133.0837  149.7997 H   0  0  0  0  0  0  0  0  0  0  0  0
  146.8937  133.3028  151.5170 H   0  0  0  0  0  0  0  0  0  0  0  0
  146.0800  131.0213  149.9512 H   0  0  0  0  0  0  0  0  0  0  0  0
  145.6702  131.3808  151.6229 H   0  0  0  0  0  0  0  0  0  0  0  0
  144.0863  131.9674  149.1353 H   0  0  0  0  0  0  0  0  0  0  0  0
  143.4677  131.5191  150.7208 H   0  0  0  0  0  0  0  0  0  0  0  0
  143.3582  134.0976  149.8628 H   0  0  0  0  0  0  0  0  0  0  0  0
  142.6545  133.6242  152.1487 H   0  0  0  0  0  0  0  0  0  0  0  0
  144.2819  133.2632  152.6741 H   0  0  0  0  0  0  0  0  0  0  0  0
  149.0564  137.8396  153.1412 H   0  0  0  0  0  0  0  0  0  0  0  0
  147.8021  140.7542  154.8702 H   0  0  0  0  0  0  0  0  0  0  0  0
  149.2380  142.3046  156.2116 H   0  0  0  0  0  0  0  0  0  0  0  0
  151.6475  141.7067  156.5654 H   0  0  0  0  0  0  0  0  0  0  0  0
  151.2866  138.2133  154.4244 H   0  0  0  0  0  0  0  0  0  0  0  0
  145.4779  134.2260  149.2041 H   0  0  0  0  0  0  0  0  0  0  0  0
  1  2  2  0  0  0  0
  2  3  1  0  0  0  0
  2 14  1  0  0  0  0
  3  4  1  0  0  0  0
  3 21  1  0  0  0  0
  4  5  1  0  0  0  0
  4 22  1  0  0  0  0
  4 23  1  0  0  0  0
  5 13  1  0  0  0  0
  5  6  1  0  0  0  0
  5 24  1  0  0  0  0
  6  7  1  0  0  0  0
  6 25  1  0  0  0  0
  6 26  1  0  0  0  0
  7 11  1  0  0  0  0
  7  8  1  0  0  0  0
  7 41  1  0  0  0  0
  8  9  1  0  0  0  0
  8 27  1  0  0  0  0
  8 28  1  0  0  0  0
  9 10  1  0  0  0  0
  9 29  1  0  0  0  0
  9 30  1  0  0  0  0
 10 11  1  0  0  0  0
 10 31  1  0  0  0  0
 10 32  1  0  0  0  0
 11 12  1  0  0  0  0
 11 33  1  0  0  0  0
 12 13  1  0  0  0  0
 12 34  1  0  0  0  0
 12 35  1  0  0  0  0
 14 15  1  0  0  0  0
 14 36  1  0  0  0  0
 15 20  1  0  0  0  0
 15 16  2  0  0  0  0
 16 17  1  0  0  0  0
 16 37  1  0  0  0  0
 17 18  2  0  0  0  0
 17 38  1  0  0  0  0
 18 19  1  0  0  0  0
 18 39  1  0  0  0  0
 19 20  2  0  0  0  0
 20 40  1  0  0  0  0
M  CHG  1   7   1
M  END
> <s_m_source_file>
AV-unprocessed.smi

> <i_m_source_file_index>
618

> <i_lp_mmshare_version>
43012

> <i_f3d_flags>
0

> <s_epik_input>
W2NIXTFuW2NIXVtjSF1bY0hdYzFbTkhdQyg9TylbTkhdW0NIMl1bQ0BIXShbQ0gyXTIpT1tDSDJdW0NAQEhdKE4yMylbQ0gyXVtDSDJdW0NIMl0z

> <s_epik_cmdline>
J2VwaWtfcHl0aG9uJywgJy1waCcsICc3LjAnLCAnLXRuJywgJzgnLCAnLW1hJywgJzIwMCcsICctbWV0YWxfYmluZGluZycsICctaW1hZScsICc8aW5maWxlLm1hZT4nLCAnLW9tYWUnLCAnPG91dGZpbGUubWFlPic=

> <r_epik_Ionization_Penalty>
0.111044

> <r_epik_Ionization_Penalty_Charging>
0.10673

> <r_epik_Ionization_Penalty_Neutral>
0.00431361

> <r_epik_State_Penalty>
0.0978747

> <r_epik_Charging_Adjusted_Penalty>
0.204605

> <i_epik_Tot_Q>
1

> <i_epik_Tot_abs_Q>
1

> <r_epik_Metal_State_Penalty>
0.0947591

> <b_epik_Metal_Only>
0

> <s_lp_Force_Field>
OPLS_2005

> <r_lp_Energy>
38.5016

> <b_lp_Chiralities_Consistent>
1

> <s_lp_Variant>
AV-unprocessed.smi:618-3

> <Gold.Version>
5.8.1

> <Gold.Id.Protein>
6NUR|6NUR_protein|mol2

> <Gold.PLP.Fitness>
46.4183

> <Gold.PLP.PLP>
-38.1919

> <Gold.PLP.part.hbond>
-4.7593

> <Gold.PLP.part.metal>
0.0000

> <Gold.PLP.part.buried>
-6.0694

> <Gold.PLP.part.nonpolar>
-29.1875

> <Gold.PLP.part.repulsive>
0.3914

> <Gold.PLP.ligand.clash>
0.0000

> <Gold.PLP.ligand.torsion>
0.3757

> <Gold.PLP.Chemscore.Hbond>
2.9920

> <Gold.PLP.Chemscore.CHOScore>
0.0000

> <Gold.PLP.Chemscore.Metal>
0.0000

> <Gold.Chemscore.Hbonds>
donor molecule, donor type, donor heavy atom, donor atom, acceptor molecule, acceptor atom, score
      L1  H     3    21       P1  7948  1.00
      L1  H     7    41       P1  7921  1.00
      L1  H    14    36       P1  7948  0.98

> <Gold.PLP.Chemscore.Internal.Correction>
0.0019

> <Gold.Rescore>
     Score         DG    S(hbond)    S(metal)    S(lipo)     H(rot)  DE(clash)    DE(int)     intcor
     20.93     -22.82       2.88        0.00      93.76       1.27       0.19       1.70       ----

> <Gold.Chemscore.Fitness>
20.9289

> <Gold.Chemscore.DG>
-22.8220

> <Gold.Chemscore.ZeroCoef>
-5.4800

> <Gold.Chemscore.Hbond>
2.8778

> <Gold.Chemscore.Metal>
0.0000

> <Gold.Chemscore.Lipo>
93.7612

> <Gold.Chemscore.Internal_Hbond>
0.0000

> <Gold.Chemscore.DEClash>
0.1895

> <Gold.Chemscore.DEInternal>
1.7036

> <Gold.Chemscore.Rot>
1.2656

> <Gold.Chemscore.Internal.Correction>
   9.000000E+99

> <Gold.Chemscore.Hbonds>
donor molecule, donor type, donor heavy atom, donor atom, acceptor molecule, acceptor atom, score
      L1  H     3    21       P1  7948  1.00
      L1  H     7    41       P1  7921  0.86
      L1  H    14    36       P1  7948  0.87

> <Gold.Chemscore.Hbond.Weighted>
-9.6118

> <Gold.Chemscore.Metal.Weighted>
-0.0000

> <Gold.Chemscore.Lipo.Weighted>
-10.9701

> <Gold.Chemscore.Internal_Hbond.Weighted>
0.0000

> <Gold.Chemscore.DEClash.Weighted>
0.1895

> <Gold.Chemscore.DEInternal.Weighted>
1.7036

> <Gold.Chemscore.Rot.Weighted>
3.2399

> <Gold.Chemscore.Internal.Correction.Weighted>
   9.000000E+99

> <Gold.Protein.RotatedTorsions>
[ 6907 6896 6895 6894 ] final   69.97 input  -60.11 | X-H torsion
[ 7974 7965 7964 7962 ] final   56.34 input  175.53 | X-H torsion
[ 8008 7997 7996 7995 ] final   96.39 input   59.86 | X-H torsion
[ 10167 10162 10161 10158 ] final  158.43 input  -65.29 | X-H torsion
[ 10718 10713 10712 10709 ] final  -20.58 input   66.30 | X-H torsion
[ 10763 10752 10751 10750 ] final -116.23 input  -60.55 | X-H torsion
[ 11005 11000 10999 10996 ] final  125.12 input  -57.11 | X-H torsion

> <Gold.Protein.ActiveResidues>
 VAL166  LYS551  ARG553  GLY616  TRP617  ASP618  TYR619  PRO620  LYS621  CYS622 
 ASP623  PHE694  ASN695  SER759  ASP760  ASP761  ALA762  ILE779  LEU786  VAL792 
 PHE793  MET794  SER795  GLU796  ALA797  LYS798  CYS799  TRP800  GLU811  SER814 

> <Gold.Protein.RotatedAtoms>
  152.4720  134.4937  159.9703 H   0  0  0  0  0  0  0  0  0  0  0  0  # atno 6907 bound_to 6896
  151.4962  133.3508  159.2869 H   0  0  0  0  0  0  0  0  0  0  0  0  # atno 6908 bound_to 6896
  150.8735  134.8141  159.7234 H   0  0  0  0  0  0  0  0  0  0  0  0  # atno 6909 bound_to 6896
  145.9408  139.3887  143.0364 H   0  0  0  0  0  0  0  0  0  0  0  0  # atno 7974 bound_to 7965
  156.0791  140.3273  155.7671 H   0  0  0  0  0  0  0  0  0  0  0  0  # atno 8008 bound_to 7997
  155.5182  140.0583  157.2929 H   0  0  0  0  0  0  0  0  0  0  0  0  # atno 8009 bound_to 7997
  154.4572  140.1948  156.0364 H   0  0  0  0  0  0  0  0  0  0  0  0  # atno 8010 bound_to 7997
  139.4827  144.4825  151.8424 H   0  0  0  0  0  0  0  0  0  0  0  0  # atno 10167 bound_to 10162
  156.5300  130.4653  149.6552 H   0  0  0  0  0  0  0  0  0  0  0  0  # atno 10718 bound_to 10713
  154.8511  135.4353  154.1788 H   0  0  0  0  0  0  0  0  0  0  0  0  # atno 10763 bound_to 10752
  153.2883  135.6959  153.7323 H   0  0  0  0  0  0  0  0  0  0  0  0  # atno 10764 bound_to 10752
  153.6500  135.3453  155.3072 H   0  0  0  0  0  0  0  0  0  0  0  0  # atno 10765 bound_to 10752
  139.9391  134.9637  156.8510 H   0  0  0  0  0  0  0  0  0  0  0  0  # atno 11005 bound_to 11000
  145.8302  140.9635  143.0853 LP  0  0  0  0  0  0  0  0  0  0  0  0  # atno 17320 bound_to 7965
  144.6779  140.0152  143.7484 LP  0  0  0  0  0  0  0  0  0  0  0  0  # atno 17321 bound_to 7965
  140.4302  144.2126  150.5888 LP  0  0  0  0  0  0  0  0  0  0  0  0  # atno 17342 bound_to 10162
  140.4787  143.2387  151.8986 LP  0  0  0  0  0  0  0  0  0  0  0  0  # atno 17343 bound_to 10162
  156.3069  130.7207  151.2092 LP  0  0  0  0  0  0  0  0  0  0  0  0  # atno 17370 bound_to 10713
  157.7423  131.0491  150.5032 LP  0  0  0  0  0  0  0  0  0  0  0  0  # atno 17371 bound_to 10713
  140.5999  134.0182  155.7533 LP  0  0  0  0  0  0  0  0  0  0  0  0  # atno 17394 bound_to 11000
  141.1018  133.9757  157.3066 LP  0  0  0  0  0  0  0  0  0  0  0  0  # atno 17395 bound_to 11000

$$$$
