AV-unprocessed.smi:809|AV-procd|sdf|3806|dock5
  -GOLD-   22720 1243D 1   1.00000     0.00000
 Structure written by MMmdl.
 40 41  0  0  0  0  0  0  0  0  2 V2000
  152.0352  143.0391  162.3550 C   0  0  0  0  0  0  0  0  0  0  0  0
  151.6198  143.7115  161.0845 C   0  0  0  0  0  0  0  0  0  0  0  0
  151.7246  145.0476  160.7833 C   0  0  0  0  0  0  0  0  0  0  0  0
  151.1203  145.4075  159.1879 S   0  0  0  0  0  0  0  0  0  0  0  0
  150.7413  143.7038  158.9898 C   0  0  0  0  0  0  0  0  0  0  0  0
  150.1584  143.1964  157.7990 N   0  0  0  0  0  0  0  0  0  0  0  0
  149.9254  141.9136  157.4716 C   0  0  0  0  0  0  0  0  0  0  0  0
  150.1739  140.9415  158.1856 O   0  0  0  0  0  0  0  0  0  0  0  0
  149.3873  141.8146  156.2473 N   0  0  0  0  0  0  0  0  0  0  0  0
  149.0205  140.5704  155.5730 C   0  0  0  0  0  0  0  0  0  0  0  0
  148.1604  140.7988  154.3013 C   0  0  1  0  0  0  0  0  0  0  0  0
  149.0412  141.2803  153.3038 O   0  0  0  0  0  0  0  0  0  0  0  0
  147.4454  139.5408  153.7549 C   0  0  0  0  0  0  0  0  0  0  0  0
  146.2782  139.1038  154.6577 C   0  0  0  0  0  0  0  0  0  0  0  0
  145.3006  140.2059  154.8324 N   0  3  1  0  0  0  0  0  0  0  0  0
  144.1073  139.7830  155.5964 C   0  0  0  0  0  0  0  0  0  0  0  0
  145.9281  141.4266  155.3965 C   0  0  0  0  0  0  0  0  0  0  0  0
  147.1045  141.9039  154.5231 C   0  0  0  0  0  0  0  0  0  0  0  0
  151.0571  142.9549  160.0527 N   0  0  0  0  0  0  0  0  0  0  0  0
  152.5873  143.7192  163.0040 H   0  0  0  0  0  0  0  0  0  0  0  0
  152.6776  142.1811  162.1556 H   0  0  0  0  0  0  0  0  0  0  0  0
  151.1687  142.6820  162.9118 H   0  0  0  0  0  0  0  0  0  0  0  0
  152.1204  145.8397  161.4015 H   0  0  0  0  0  0  0  0  0  0  0  0
  149.8966  143.8906  157.1144 H   0  0  0  0  0  0  0  0  0  0  0  0
  149.2197  142.6677  155.7336 H   0  0  0  0  0  0  0  0  0  0  0  0
  149.9201  140.0052  155.3296 H   0  0  0  0  0  0  0  0  0  0  0  0
  148.4764  139.9489  156.2857 H   0  0  0  0  0  0  0  0  0  0  0  0
  149.0569  140.6639  152.5878 H   0  0  0  0  0  0  0  0  0  0  0  0
  147.0474  139.7542  152.7615 H   0  0  0  0  0  0  0  0  0  0  0  0
  148.1433  138.7150  153.6163 H   0  0  0  0  0  0  0  0  0  0  0  0
  145.7792  138.2435  154.2101 H   0  0  0  0  0  0  0  0  0  0  0  0
  146.6431  138.7827  155.6331 H   0  0  0  0  0  0  0  0  0  0  0  0
  144.3734  139.5062  156.6175 H   0  0  0  0  0  0  0  0  0  0  0  0
  143.6299  138.9247  155.1225 H   0  0  0  0  0  0  0  0  0  0  0  0
  143.3733  140.5884  155.6404 H   0  0  0  0  0  0  0  0  0  0  0  0
  145.1817  142.2195  155.4587 H   0  0  0  0  0  0  0  0  0  0  0  0
  146.2579  141.2316  156.4174 H   0  0  0  0  0  0  0  0  0  0  0  0
  147.5649  142.7856  154.9711 H   0  0  0  0  0  0  0  0  0  0  0  0
  146.7058  142.2284  153.5605 H   0  0  0  0  0  0  0  0  0  0  0  0
  144.9759  140.4500  153.9077 H   0  0  0  0  0  0  0  0  0  0  0  0
  1  2  1  0  0  0  0
  1 20  1  0  0  0  0
  1 21  1  0  0  0  0
  1 22  1  0  0  0  0
  2 19  1  0  0  0  0
  2  3  2  0  0  0  0
  3  4  1  0  0  0  0
  3 23  1  0  0  0  0
  4  5  1  0  0  0  0
  5  6  1  0  0  0  0
  5 19  2  0  0  0  0
  6  7  1  0  0  0  0
  6 24  1  0  0  0  0
  7  8  2  0  0  0  0
  7  9  1  0  0  0  0
  9 10  1  0  0  0  0
  9 25  1  0  0  0  0
 10 11  1  0  0  0  0
 10 26  1  0  0  0  0
 10 27  1  0  0  0  0
 11 18  1  0  0  0  0
 11 12  1  0  0  0  0
 11 13  1  0  0  0  0
 12 28  1  0  0  0  0
 13 14  1  0  0  0  0
 13 29  1  0  0  0  0
 13 30  1  0  0  0  0
 14 15  1  0  0  0  0
 14 31  1  0  0  0  0
 14 32  1  0  0  0  0
 15 16  1  0  0  0  0
 15 17  1  0  0  0  0
 15 40  1  0  0  0  0
 16 33  1  0  0  0  0
 16 34  1  0  0  0  0
 16 35  1  0  0  0  0
 17 18  1  0  0  0  0
 17 36  1  0  0  0  0
 17 37  1  0  0  0  0
 18 38  1  0  0  0  0
 18 39  1  0  0  0  0
M  CHG  1  15   1
M  END
> <s_m_source_file>
AV-unprocessed.smi

> <i_m_source_file_index>
809

> <i_lp_mmshare_version>
43012

> <i_f3d_flags>
0

> <s_epik_input>
W0NIM11jMVtjSF1zYyhuMSlbTkhdQyg9TylbTkhdW0NIMl1DMihbT0hdKVtDSDJdW0NIMl1OKFtDSDNdKVtDSDJdW0NIMl0y

> <s_epik_cmdline>
J2VwaWtfcHl0aG9uJywgJy1waCcsICc3LjAnLCAnLXRuJywgJzgnLCAnLW1hJywgJzIwMCcsICctbWV0YWxfYmluZGluZycsICctaW1hZScsICc8aW5maWxlLm1hZT4nLCAnLW9tYWUnLCAnPG91dGZpbGUubWFlPic=

> <r_lp_tautomer_probability>
0.999

> <r_epik_Ionization_Penalty>
0.00116503

> <r_epik_Ionization_Penalty_Charging>
0.000767707

> <r_epik_Ionization_Penalty_Neutral>
0.00039732

> <r_epik_State_Penalty>
0.000177984

> <r_epik_Charging_Adjusted_Penalty>
0.00094569

> <i_epik_Tot_Q>
1

> <i_epik_Tot_abs_Q>
1

> <r_epik_Metal_State_Penalty>
0.00775393

> <b_epik_Metal_Only>
0

> <s_lp_Force_Field>
OPLS_2005

> <r_lp_Energy>
16.2661

> <b_lp_Chiralities_Consistent>
1

> <s_lp_Variant>
AV-unprocessed.smi:809-2

> <Gold.Version>
5.8.1

> <Gold.Id.Protein>
6NUR|6NUR_protein|mol2

> <Gold.PLP.Fitness>
52.7401

> <Gold.PLP.PLP>
-36.6561

> <Gold.PLP.part.hbond>
-5.0982

> <Gold.PLP.part.metal>
0.0000

> <Gold.PLP.part.buried>
-3.6743

> <Gold.PLP.part.nonpolar>
-27.4594

> <Gold.PLP.part.repulsive>
0.1251

> <Gold.PLP.ligand.clash>
0.0000

> <Gold.PLP.ligand.torsion>
0.2662

> <Gold.PLP.Chemscore.Hbond>
5.5365

> <Gold.PLP.Chemscore.CHOScore>
0.0000

> <Gold.PLP.Chemscore.Metal>
0.0000

> <Gold.Chemscore.Hbonds>
donor molecule, donor type, donor heavy atom, donor atom, acceptor molecule, acceptor atom, score
      L1  H     6    24       P1  8028  1.00
      L1  H     9    25       P1  8028  0.88
      L1  H    12    28       P1  7957  1.00
      L1  H    15    40       P1 10175  2.00
      P1  H  8011  8017       L1    12  0.45

> <Gold.PLP.Chemscore.Internal.Correction>
0.0068

> <Gold.Rescore>
     Score         DG    S(hbond)    S(metal)    S(lipo)     H(rot)  DE(clash)    DE(int)     intcor
     20.01     -23.37       3.90        0.00      82.06       1.85       1.84       1.52       ----

> <Gold.Chemscore.Fitness>
20.0099

> <Gold.Chemscore.DG>
-23.3720

> <Gold.Chemscore.ZeroCoef>
-5.4800

> <Gold.Chemscore.Hbond>
3.8979

> <Gold.Chemscore.Metal>
0.0000

> <Gold.Chemscore.Lipo>
82.0649

> <Gold.Chemscore.Internal_Hbond>
0.0000

> <Gold.Chemscore.DEClash>
1.8449

> <Gold.Chemscore.DEInternal>
1.5172

> <Gold.Chemscore.Rot>
1.8471

> <Gold.Chemscore.Internal.Correction>
   9.000000E+99

> <Gold.Chemscore.Hbonds>
donor molecule, donor type, donor heavy atom, donor atom, acceptor molecule, acceptor atom, score
      L1  H     6    24       P1  8028  0.89
      L1  H     9    25       P1  8028  0.82
      L1  H    12    28       P1  7957  0.97
      L1  H    15    40       P1 10175  0.97
      P1  H  8011  8017       L1    12  0.02

> <Gold.Chemscore.Hbond.Weighted>
-13.0191

> <Gold.Chemscore.Metal.Weighted>
-0.0000

> <Gold.Chemscore.Lipo.Weighted>
-9.6016

> <Gold.Chemscore.Internal_Hbond.Weighted>
0.0000

> <Gold.Chemscore.DEClash.Weighted>
1.8449

> <Gold.Chemscore.DEInternal.Weighted>
1.5172

> <Gold.Chemscore.Rot.Weighted>
4.7286

> <Gold.Chemscore.Internal.Correction.Weighted>
   9.000000E+99

> <Gold.Protein.RotatedTorsions>
[ 6907 6896 6895 6894 ] final -117.69 input  -60.11 | X-H torsion
[ 7974 7965 7964 7962 ] final  -35.79 input  175.53 | X-H torsion
[ 8008 7997 7996 7995 ] final   91.34 input   59.86 | X-H torsion
[ 10167 10162 10161 10158 ] final -173.59 input  -65.29 | X-H torsion
[ 10718 10713 10712 10709 ] final   59.98 input   66.30 | X-H torsion
[ 10763 10752 10751 10750 ] final  167.94 input  -60.55 | X-H torsion
[ 11005 11000 10999 10996 ] final -148.97 input  -57.11 | X-H torsion

> <Gold.Protein.ActiveResidues>
 VAL166  LYS551  ARG553  GLY616  TRP617  ASP618  TYR619  PRO620  LYS621  CYS622 
 ASP623  PHE694  ASN695  SER759  ASP760  ASP761  ALA762  ILE779  LEU786  VAL792 
 PHE793  MET794  SER795  GLU796  ALA797  LYS798  CYS799  TRP800  GLU811  SER814 

> <Gold.Protein.RotatedAtoms>
  150.8157  133.8341  159.3161 H   0  0  0  0  0  0  0  0  0  0  0  0  # atno 6907 bound_to 6896
  151.6114  135.1038  160.0091 H   0  0  0  0  0  0  0  0  0  0  0  0  # atno 6908 bound_to 6896
  152.4249  133.7137  159.6550 H   0  0  0  0  0  0  0  0  0  0  0  0  # atno 6909 bound_to 6896
  146.0717  140.6201  142.8949 H   0  0  0  0  0  0  0  0  0  0  0  0  # atno 7974 bound_to 7965
  156.0226  140.3339  155.7054 H   0  0  0  0  0  0  0  0  0  0  0  0  # atno 8008 bound_to 7997
  155.6001  140.0655  157.2753 H   0  0  0  0  0  0  0  0  0  0  0  0  # atno 8009 bound_to 7997
  154.4322  140.1812  156.1152 H   0  0  0  0  0  0  0  0  0  0  0  0  # atno 8010 bound_to 7997
  139.5680  144.1710  152.1341 H   0  0  0  0  0  0  0  0  0  0  0  0  # atno 10167 bound_to 10162
  157.5717  130.8913  149.9278 H   0  0  0  0  0  0  0  0  0  0  0  0  # atno 10718 bound_to 10713
  154.3613  135.2753  155.2318 H   0  0  0  0  0  0  0  0  0  0  0  0  # atno 10763 bound_to 10752
  154.4505  135.5932  153.6192 H   0  0  0  0  0  0  0  0  0  0  0  0  # atno 10764 bound_to 10752
  152.9843  135.6041  154.3833 H   0  0  0  0  0  0  0  0  0  0  0  0  # atno 10765 bound_to 10752
  140.7557  134.3356  157.5115 H   0  0  0  0  0  0  0  0  0  0  0  0  # atno 11005 bound_to 11000
  144.7236  140.4452  143.6990 LP  0  0  0  0  0  0  0  0  0  0  0  0  # atno 17320 bound_to 7965
  145.6379  139.1545  143.2932 LP  0  0  0  0  0  0  0  0  0  0  0  0  # atno 17321 bound_to 7965
  140.1236  144.5351  150.6847 LP  0  0  0  0  0  0  0  0  0  0  0  0  # atno 17342 bound_to 10162
  140.6964  143.2406  151.4989 LP  0  0  0  0  0  0  0  0  0  0  0  0  # atno 17343 bound_to 10162
  156.0763  130.3678  150.0672 LP  0  0  0  0  0  0  0  0  0  0  0  0  # atno 17370 bound_to 10713
  156.8824  130.9561  151.3598 LP  0  0  0  0  0  0  0  0  0  0  0  0  # atno 17371 bound_to 10713
  139.8779  134.9170  156.3168 LP  0  0  0  0  0  0  0  0  0  0  0  0  # atno 17394 bound_to 11000
  140.9710  133.7327  156.0534 LP  0  0  0  0  0  0  0  0  0  0  0  0  # atno 17395 bound_to 11000

$$$$
