AV-unprocessed.smi:623|AV-procd|sdf|3094|dock10
  -GOLD-   22720 0 13D 1   1.00000     0.00000
 Structure written by MMmdl.
 45 47  0  0  0  0  0  0  0  0  1 V2000
  151.6561  138.4218  157.0103 C   0  0  0  0  0  0  0  0  0  0  0  0
  150.4309  138.9267  156.1969 C   0  0  0  0  0  0  0  0  0  0  0  0
  149.8132  140.0713  157.0479 C   0  0  0  0  0  0  0  0  0  0  0  0
  150.7639  139.3207  154.7441 C   0  0  1  0  0  0  0  0  0  0  0  0
  151.2184  137.9915  154.0985 C   0  0  0  0  0  0  0  0  0  0  0  0
  150.3268  136.9521  154.8062 C   0  0  0  0  0  0  0  0  0  0  0  0
  149.4333  137.8357  155.7203 C   0  0  1  0  0  0  0  0  0  0  0  0
  148.7385  137.0351  156.8355 C   0  0  0  0  0  0  0  0  0  0  0  0
  148.4465  138.6416  154.8132 C   0  0  2  0  0  0  0  0  0  0  0  0
  147.7572  137.8325  153.8098 N   0  0  0  0  0  0  0  0  0  0  0  0
  146.4301  137.7834  153.6228 C   0  0  0  0  0  0  0  0  0  0  0  0
  145.6272  138.4769  154.2467 O   0  0  0  0  0  0  0  0  0  0  0  0
  145.9339  136.7799  152.5786 C   0  0  0  0  0  0  0  0  0  0  0  0
  144.6112  136.2552  152.9434 N   0  0  0  0  0  0  0  0  0  0  0  0
  143.4741  137.0160  152.7107 C   0  0  0  0  0  0  0  0  0  0  0  0
  142.2204  136.5924  152.9969 C   0  0  0  0  0  0  0  0  0  0  0  0
  142.0024  135.2742  153.5821 C   0  0  0  0  0  0  0  0  0  0  0  0
  140.9071  134.8021  153.8787 O   0  0  0  0  0  0  0  0  0  0  0  0
  143.1696  134.5375  153.7986 N   0  0  0  0  0  0  0  0  0  0  0  0
  144.4645  134.9672  153.5037 C   0  0  0  0  0  0  0  0  0  0  0  0
  145.4248  134.2327  153.7310 O   0  0  0  0  0  0  0  0  0  0  0  0
  149.3865  139.6669  154.1387 C   0  0  0  0  0  0  0  0  0  0  0  0
  143.0680  133.6167  154.1999 H   0  0  0  0  0  0  0  0  0  0  0  0
  152.3589  139.2368  157.1865 H   0  0  0  0  0  0  0  0  0  0  0  0
  152.2274  137.6245  156.5407 H   0  0  0  0  0  0  0  0  0  0  0  0
  151.3475  138.0504  157.9877 H   0  0  0  0  0  0  0  0  0  0  0  0
  148.9286  140.5402  156.6232 H   0  0  0  0  0  0  0  0  0  0  0  0
  150.5397  140.8697  157.2024 H   0  0  0  0  0  0  0  0  0  0  0  0
  149.5246  139.7067  158.0341 H   0  0  0  0  0  0  0  0  0  0  0  0
  151.4943  140.1236  154.6400 H   0  0  0  0  0  0  0  0  0  0  0  0
  151.0747  137.9868  153.0175 H   0  0  0  0  0  0  0  0  0  0  0  0
  152.2752  137.7951  154.2811 H   0  0  0  0  0  0  0  0  0  0  0  0
  149.7697  136.3342  154.1024 H   0  0  0  0  0  0  0  0  0  0  0  0
  150.9301  136.2578  155.3912 H   0  0  0  0  0  0  0  0  0  0  0  0
  148.1013  136.2547  156.4194 H   0  0  0  0  0  0  0  0  0  0  0  0
  148.1118  137.6773  157.4546 H   0  0  0  0  0  0  0  0  0  0  0  0
  149.4630  136.5483  157.4881 H   0  0  0  0  0  0  0  0  0  0  0  0
  147.7042  139.1680  155.4153 H   0  0  0  0  0  0  0  0  0  0  0  0
  148.3346  137.2266  153.2454 H   0  0  0  0  0  0  0  0  0  0  0  0
  145.9100  137.2559  151.5964 H   0  0  0  0  0  0  0  0  0  0  0  0
  146.6548  135.9661  152.4822 H   0  0  0  0  0  0  0  0  0  0  0  0
  143.5875  137.9977  152.2727 H   0  0  0  0  0  0  0  0  0  0  0  0
  141.3742  137.2318  152.7907 H   0  0  0  0  0  0  0  0  0  0  0  0
  149.0916  140.6884  154.3802 H   0  0  0  0  0  0  0  0  0  0  0  0
  149.3909  139.5942  153.0501 H   0  0  0  0  0  0  0  0  0  0  0  0
  1  2  1  0  0  0  0
  1 24  1  0  0  0  0
  1 25  1  0  0  0  0
  1 26  1  0  0  0  0
  2  7  1  0  0  0  0
  2  3  1  0  0  0  0
  2  4  1  0  0  0  0
  3 27  1  0  0  0  0
  3 28  1  0  0  0  0
  3 29  1  0  0  0  0
  4 22  1  0  0  0  0
  4  5  1  0  0  0  0
  4 30  1  0  0  0  0
  5  6  1  0  0  0  0
  5 31  1  0  0  0  0
  5 32  1  0  0  0  0
  6  7  1  0  0  0  0
  6 33  1  0  0  0  0
  6 34  1  0  0  0  0
  7  8  1  0  0  0  0
  7  9  1  0  0  0  0
  8 35  1  0  0  0  0
  8 36  1  0  0  0  0
  8 37  1  0  0  0  0
  9 10  1  0  0  0  0
  9 22  1  0  0  0  0
  9 38  1  0  0  0  0
 10 11  1  0  0  0  0
 10 39  1  0  0  0  0
 11 12  2  0  0  0  0
 11 13  1  0  0  0  0
 13 14  1  0  0  0  0
 13 40  1  0  0  0  0
 13 41  1  0  0  0  0
 14 20  1  0  0  0  0
 14 15  1  0  0  0  0
 15 16  2  0  0  0  0
 15 42  1  0  0  0  0
 16 17  1  0  0  0  0
 16 43  1  0  0  0  0
 17 18  2  0  0  0  0
 17 19  1  0  0  0  0
 19 23  1  0  0  0  0
 19 20  1  0  0  0  0
 20 21  2  0  0  0  0
 22 44  1  0  0  0  0
 22 45  1  0  0  0  0
M  END
> <s_m_source_file>
AV-unprocessed.smi

> <i_m_source_file_index>
623

> <i_lp_mmshare_version>
43012

> <i_f3d_flags>
0

> <s_epik_input>
W0NIM11bQ0BdMTJDKFtDSDNdKShbQ0gzXSlbQ0BIXShbQ0gyXVtDSDJdMSlbQ0gyXVtDQEBIXTJbTkhdQyg9TylbQ0gyXW4zW2NIXVtjSF1jKD1PKVtuSF1jMz1P

> <s_epik_cmdline>
J2VwaWtfcHl0aG9uJywgJy1waCcsICc3LjAnLCAnLXRuJywgJzgnLCAnLW1hJywgJzIwMCcsICctbWV0YWxfYmluZGluZycsICctaW1hZScsICc8aW5maWxlLm1hZT4nLCAnLW9tYWUnLCAnPG91dGZpbGUubWFlPic=

> <r_lp_tautomer_probability>
0.999537

> <r_epik_Ionization_Penalty>
0.00303563

> <r_epik_Ionization_Penalty_Charging>
0.00303561

> <r_epik_Ionization_Penalty_Neutral>
2.03238e-08

> <r_epik_State_Penalty>
0.00213308

> <r_epik_Charging_Adjusted_Penalty>
0.00516869

> <i_epik_Tot_Q>
0

> <i_epik_Tot_abs_Q>
0

> <r_epik_Metal_State_Penalty>
0.361714

> <b_epik_Metal_Only>
0

> <s_lp_Force_Field>
OPLS_2005

> <r_lp_Energy>
57.3757

> <b_lp_Chiralities_Consistent>
1

> <s_lp_Variant>
AV-unprocessed.smi:623-4

> <Gold.Version>
5.8.1

> <Gold.Id.Protein>
6NUR|6NUR_protein|mol2

> <Gold.PLP.Fitness>
39.8425

> <Gold.PLP.PLP>
-26.2158

> <Gold.PLP.part.hbond>
-3.7323

> <Gold.PLP.part.metal>
0.0000

> <Gold.PLP.part.buried>
-2.6108

> <Gold.PLP.part.nonpolar>
-19.5090

> <Gold.PLP.part.repulsive>
0.4033

> <Gold.PLP.ligand.clash>
0.0000

> <Gold.PLP.ligand.torsion>
0.6426

> <Gold.PLP.Chemscore.Hbond>
3.0000

> <Gold.PLP.Chemscore.CHOScore>
1.9652

> <Gold.PLP.Chemscore.Metal>
0.0000

> <Gold.Chemscore.Hbonds>
donor molecule, donor type, donor heavy atom, donor atom, acceptor molecule, acceptor atom, score
      L1  H    10    39       P1  7948  1.00
      L1  H    19    23       P1 10957  1.00
      P1  H 11000 11005       L1    18  1.00
      L1  C    15    42       P1 10171  0.97
      L1  C    15    42       P1 10175  1.00

> <Gold.PLP.Chemscore.Internal.Correction>
0.0164

> <Gold.Rescore>
     Score         DG    S(hbond)    S(metal)    S(lipo)     H(rot)  DE(clash)    DE(int)     intcor
     17.17     -18.10       2.98        0.00      59.22       1.66       0.16       0.77       ----

> <Gold.Chemscore.Fitness>
17.1706

> <Gold.Chemscore.DG>
-18.0991

> <Gold.Chemscore.ZeroCoef>
-5.4800

> <Gold.Chemscore.Hbond>
2.9795

> <Gold.Chemscore.Metal>
0.0000

> <Gold.Chemscore.Lipo>
59.2239

> <Gold.Chemscore.Internal_Hbond>
0.0000

> <Gold.Chemscore.DEClash>
0.1600

> <Gold.Chemscore.DEInternal>
0.7685

> <Gold.Chemscore.Rot>
1.6647

> <Gold.Chemscore.Internal.Correction>
   9.000000E+99

> <Gold.Chemscore.Hbonds>
donor molecule, donor type, donor heavy atom, donor atom, acceptor molecule, acceptor atom, score
      L1  H    10    39       P1  7948  1.00
      L1  H    19    23       P1 10957  0.97
      P1  H 11000 11005       L1    18  0.97

> <Gold.Chemscore.Hbond.Weighted>
-9.9516

> <Gold.Chemscore.Metal.Weighted>
-0.0000

> <Gold.Chemscore.Lipo.Weighted>
-6.9292

> <Gold.Chemscore.Internal_Hbond.Weighted>
0.0000

> <Gold.Chemscore.DEClash.Weighted>
0.1600

> <Gold.Chemscore.DEInternal.Weighted>
0.7685

> <Gold.Chemscore.Rot.Weighted>
4.2617

> <Gold.Chemscore.Internal.Correction.Weighted>
   9.000000E+99

> <Gold.Protein.RotatedTorsions>
[ 6907 6896 6895 6894 ] final  160.67 input  -60.11 | X-H torsion
[ 7974 7965 7964 7962 ] final   20.84 input  175.53 | X-H torsion
[ 8008 7997 7996 7995 ] final  -80.77 input   59.86 | X-H torsion
[ 10167 10162 10161 10158 ] final -153.88 input  -65.29 | X-H torsion
[ 10718 10713 10712 10709 ] final -115.11 input   66.30 | X-H torsion
[ 10763 10752 10751 10750 ] final  156.01 input  -60.55 | X-H torsion
[ 11005 11000 10999 10996 ] final   25.86 input  -57.11 | X-H torsion

> <Gold.Protein.ActiveResidues>
 VAL166  LYS551  ARG553  GLY616  TRP617  ASP618  TYR619  PRO620  LYS621  CYS622 
 ASP623  PHE694  ASN695  SER759  ASP760  ASP761  ALA762  ILE779  LEU786  VAL792 
 PHE793  MET794  SER795  GLU796  ALA797  LYS798  CYS799  TRP800  GLU811  SER814 

> <Gold.Protein.RotatedAtoms>
  151.9672  133.3714  159.4057 H   0  0  0  0  0  0  0  0  0  0  0  0  # atno 6907 bound_to 6896
  150.6954  134.4178  159.5200 H   0  0  0  0  0  0  0  0  0  0  0  0  # atno 6908 bound_to 6896
  152.1877  134.8699  160.0571 H   0  0  0  0  0  0  0  0  0  0  0  0  # atno 6909 bound_to 6896
  146.2095  139.8112  142.8699 H   0  0  0  0  0  0  0  0  0  0  0  0  # atno 7974 bound_to 7965
  154.5916  140.0658  156.9246 H   0  0  0  0  0  0  0  0  0  0  0  0  # atno 8008 bound_to 7997
  155.2286  140.3335  155.4288 H   0  0  0  0  0  0  0  0  0  0  0  0  # atno 8009 bound_to 7997
  156.2259  140.1819  156.7348 H   0  0  0  0  0  0  0  0  0  0  0  0  # atno 8010 bound_to 7997
  139.7059  143.9187  152.2448 H   0  0  0  0  0  0  0  0  0  0  0  0  # atno 10167 bound_to 10162
  156.0874  130.6063  150.8863 H   0  0  0  0  0  0  0  0  0  0  0  0  # atno 10718 bound_to 10713
  154.1775  135.2801  155.3062 H   0  0  0  0  0  0  0  0  0  0  0  0  # atno 10763 bound_to 10752
  154.6028  135.5524  153.7395 H   0  0  0  0  0  0  0  0  0  0  0  0  # atno 10764 bound_to 10752
  153.0147  135.6396  154.1914 H   0  0  0  0  0  0  0  0  0  0  0  0  # atno 10765 bound_to 10752
  140.3433  134.2309  155.7687 H   0  0  0  0  0  0  0  0  0  0  0  0  # atno 11005 bound_to 11000
  145.3194  141.0240  143.3509 LP  0  0  0  0  0  0  0  0  0  0  0  0  # atno 17320 bound_to 7965
  144.8878  139.4816  143.6692 LP  0  0  0  0  0  0  0  0  0  0  0  0  # atno 17321 bound_to 7965
  139.9042  144.6894  150.8632 LP  0  0  0  0  0  0  0  0  0  0  0  0  # atno 17342 bound_to 10162
  140.7721  143.3491  151.2051 LP  0  0  0  0  0  0  0  0  0  0  0  0  # atno 17343 bound_to 10162
  157.6013  131.0941  150.8956 LP  0  0  0  0  0  0  0  0  0  0  0  0  # atno 17370 bound_to 10713
  156.9113  130.5281  149.5280 LP  0  0  0  0  0  0  0  0  0  0  0  0  # atno 17371 bound_to 10713
  141.2032  133.7917  157.0349 LP  0  0  0  0  0  0  0  0  0  0  0  0  # atno 17394 bound_to 11000
  140.0763  134.9673  157.1551 LP  0  0  0  0  0  0  0  0  0  0  0  0  # atno 17395 bound_to 11000

$$$$
