AV-unprocessed.smi:260|AV-procd|sdf|1981|dock3
  -GOLD-   2262021153D 1   1.00000     0.00000
 Structure written by MMmdl.
 53 56  0  0  0  0  0  0  0  0  1 V2000
  145.9818  129.7152  153.0539 C   0  0  0  0  0  0  0  0  0  0  0  0
  145.4409  130.5708  152.0099 N   0  0  0  0  0  0  0  0  0  0  0  0
  145.7420  131.8706  151.8566 C   0  0  0  0  0  0  0  0  0  0  0  0
  146.5113  132.4575  152.6189 O   0  0  0  0  0  0  0  0  0  0  0  0
  145.0967  132.6447  150.6763 C   0  0  1  0  0  0  0  0  0  0  0  0
  145.5412  132.0023  149.3479 C   0  0  0  0  0  0  0  0  0  0  0  0
  143.5656  132.6499  150.8302 C   0  0  0  0  0  0  0  0  0  0  0  0
  143.2923  133.8099  151.7940 C   0  0  0  0  0  0  0  0  0  0  0  0
  144.3915  134.7483  151.6032 N   0  0  0  0  0  0  0  0  0  0  0  0
  144.7347  135.6119  152.5979 C   0  0  0  0  0  0  0  0  0  0  0  0
  144.2996  135.3676  153.8629 N   0  0  0  0  0  0  0  0  0  0  0  0
  144.6061  136.1967  154.8640 C   0  0  0  0  0  0  0  0  0  0  0  0
  145.3327  137.3137  154.8278 N   0  0  0  0  0  0  0  0  0  0  0  0
  145.7885  137.5621  153.5676 C   0  0  0  0  0  0  0  0  0  0  0  0
  145.5430  136.7732  152.4063 C   0  0  0  0  0  0  0  0  0  0  0  0
  146.1855  137.3470  151.3131 N   0  0  0  0  0  0  0  0  0  0  0  0
  146.7666  138.4101  151.7970 C   0  0  0  0  0  0  0  0  0  0  0  0
  146.5798  138.6143  153.1440 N   0  0  0  0  0  0  0  0  0  0  0  0
  147.1091  139.7049  153.9431 C   0  0  0  0  0  0  0  0  0  0  0  0
  148.2252  139.2418  154.8993 C   0  0  1  0  0  0  0  0  0  0  0  0
  149.1124  138.3582  154.2400 O   0  0  0  0  0  0  0  0  0  0  0  0
  149.0003  140.4173  155.5269 C   0  0  1  0  0  0  0  0  0  0  0  0
  148.3194  141.1364  156.6946 C   0  0  0  0  0  0  0  0  0  0  0  0
  149.5099  141.7516  157.3955 C   0  0  0  0  0  0  0  0  0  0  0  0
  150.5610  140.6547  157.2440 C   0  0  0  0  0  0  0  0  0  0  0  0
  150.2850  140.0175  155.9994 O   0  0  0  0  0  0  0  0  0  0  0  0
  145.3792  134.1633  150.6952 C   0  0  0  0  0  0  0  0  0  0  0  0
  145.5953  128.7025  152.9396 H   0  0  0  0  0  0  0  0  0  0  0  0
  145.6974  130.0804  154.0415 H   0  0  0  0  0  0  0  0  0  0  0  0
  147.0702  129.6736  152.9964 H   0  0  0  0  0  0  0  0  0  0  0  0
  144.8070  130.1459  151.3482 H   0  0  0  0  0  0  0  0  0  0  0  0
  145.1036  132.5168  148.4919 H   0  0  0  0  0  0  0  0  0  0  0  0
  145.2379  130.9564  149.2846 H   0  0  0  0  0  0  0  0  0  0  0  0
  146.6250  132.0424  149.2320 H   0  0  0  0  0  0  0  0  0  0  0  0
  143.0947  132.8597  149.8687 H   0  0  0  0  0  0  0  0  0  0  0  0
  143.1505  131.7079  151.1917 H   0  0  0  0  0  0  0  0  0  0  0  0
  142.3286  134.2777  151.5913 H   0  0  0  0  0  0  0  0  0  0  0  0
  143.2897  133.4469  152.8227 H   0  0  0  0  0  0  0  0  0  0  0  0
  144.2121  135.9261  155.8326 H   0  0  0  0  0  0  0  0  0  0  0  0
  147.3549  139.0753  151.1818 H   0  0  0  0  0  0  0  0  0  0  0  0
  147.4749  140.4829  153.2717 H   0  0  0  0  0  0  0  0  0  0  0  0
  146.2858  140.1423  154.5087 H   0  0  0  0  0  0  0  0  0  0  0  0
  147.7694  138.6741  155.7115 H   0  0  0  0  0  0  0  0  0  0  0  0
  149.3015  138.7113  153.3841 H   0  0  0  0  0  0  0  0  0  0  0  0
  149.1883  141.1575  154.7474 H   0  0  0  0  0  0  0  0  0  0  0  0
  147.5854  141.8741  156.3692 H   0  0  0  0  0  0  0  0  0  0  0  0
  147.8232  140.4356  157.3666 H   0  0  0  0  0  0  0  0  0  0  0  0
  149.8289  142.6539  156.8719 H   0  0  0  0  0  0  0  0  0  0  0  0
  149.3102  142.0108  158.4355 H   0  0  0  0  0  0  0  0  0  0  0  0
  151.5788  141.0439  157.2770 H   0  0  0  0  0  0  0  0  0  0  0  0
  150.4545  139.9164  158.0400 H   0  0  0  0  0  0  0  0  0  0  0  0
  146.4178  134.3812  150.9424 H   0  0  0  0  0  0  0  0  0  0  0  0
  145.2076  134.5917  149.7072 H   0  0  0  0  0  0  0  0  0  0  0  0
  1  2  1  0  0  0  0
  1 28  1  0  0  0  0
  1 29  1  0  0  0  0
  1 30  1  0  0  0  0
  2  3  1  0  0  0  0
  2 31  1  0  0  0  0
  3  4  2  0  0  0  0
  3  5  1  0  0  0  0
  5 27  1  0  0  0  0
  5  6  1  0  0  0  0
  5  7  1  0  0  0  0
  6 32  1  0  0  0  0
  6 33  1  0  0  0  0
  6 34  1  0  0  0  0
  7  8  1  0  0  0  0
  7 35  1  0  0  0  0
  7 36  1  0  0  0  0
  8  9  1  0  0  0  0
  8 37  1  0  0  0  0
  8 38  1  0  0  0  0
  9 10  1  0  0  0  0
  9 27  1  0  0  0  0
 10 15  1  0  0  0  0
 10 11  2  0  0  0  0
 11 12  1  0  0  0  0
 12 13  2  0  0  0  0
 12 39  1  0  0  0  0
 13 14  1  0  0  0  0
 14 18  1  0  0  0  0
 14 15  2  0  0  0  0
 15 16  1  0  0  0  0
 16 17  2  0  0  0  0
 17 18  1  0  0  0  0
 17 40  1  0  0  0  0
 18 19  1  0  0  0  0
 19 20  1  0  0  0  0
 19 41  1  0  0  0  0
 19 42  1  0  0  0  0
 20 21  1  0  0  0  0
 20 22  1  0  0  0  0
 20 43  1  0  0  0  0
 21 44  1  0  0  0  0
 22 26  1  0  0  0  0
 22 23  1  0  0  0  0
 22 45  1  0  0  0  0
 23 24  1  0  0  0  0
 23 46  1  0  0  0  0
 23 47  1  0  0  0  0
 24 25  1  0  0  0  0
 24 48  1  0  0  0  0
 24 49  1  0  0  0  0
 25 26  1  0  0  0  0
 25 50  1  0  0  0  0
 25 51  1  0  0  0  0
 27 52  1  0  0  0  0
 27 53  1  0  0  0  0
M  END
> <s_m_source_file>
AV-unprocessed.smi

> <i_m_source_file_index>
260

> <i_lp_mmshare_version>
43012

> <i_f3d_flags>
0

> <s_epik_input>
W0NIM11bTkhdQyg9TylbQ0BAXTEoW0NIM10pW0NIMl1bQ0gyXU4oW0NIMl0xKWMobltjSF1uMiljKGMyMyluW2NIXW4zW0NIMl1bQ0BIXShbT0hdKVtDQEBIXTRbQ0gyXVtDSDJdW0NIMl1PNA==

> <s_epik_cmdline>
J2VwaWtfcHl0aG9uJywgJy1waCcsICc3LjAnLCAnLXRuJywgJzgnLCAnLW1hJywgJzIwMCcsICctbWV0YWxfYmluZGluZycsICctaW1hZScsICc8aW5maWxlLm1hZT4nLCAnLW9tYWUnLCAnPG91dGZpbGUubWFlPic=

> <r_lp_tautomer_probability>
1

> <r_epik_Ionization_Penalty>
0.00115068

> <r_epik_Ionization_Penalty_Charging>
0

> <r_epik_Ionization_Penalty_Neutral>
0.00115068

> <r_epik_State_Penalty>
0.000668876

> <r_epik_Charging_Adjusted_Penalty>
0.000668876

> <i_epik_Tot_Q>
0

> <i_epik_Tot_abs_Q>
0

> <r_epik_Metal_State_Penalty>
-0

> <b_epik_Metal_Only>
0

> <s_lp_Force_Field>
OPLS_2005

> <r_lp_Energy>
50.9621

> <b_lp_Chiralities_Consistent>
1

> <s_lp_Variant>
AV-unprocessed.smi:260-7

> <Gold.Version>
5.8.1

> <Gold.Id.Protein>
6NUR|6NUR_protein|mol2

> <Gold.PLP.Fitness>
51.5801

> <Gold.PLP.PLP>
-45.2398

> <Gold.PLP.part.hbond>
-3.0838

> <Gold.PLP.part.metal>
0.0000

> <Gold.PLP.part.buried>
-3.3793

> <Gold.PLP.part.nonpolar>
-41.3378

> <Gold.PLP.part.repulsive>
2.8798

> <Gold.PLP.ligand.clash>
0.0000

> <Gold.PLP.ligand.torsion>
1.2426

> <Gold.PLP.Chemscore.Hbond>
2.0000

> <Gold.PLP.Chemscore.CHOScore>
0.7965

> <Gold.PLP.Chemscore.Metal>
0.0000

> <Gold.Chemscore.Hbonds>
donor molecule, donor type, donor heavy atom, donor atom, acceptor molecule, acceptor atom, score
      L1  C    17    40       P1  7957  1.00

> <Gold.PLP.Chemscore.Internal.Correction>
0.4359

> <Gold.Rescore>
     Score         DG    S(hbond)    S(metal)    S(lipo)     H(rot)  DE(clash)    DE(int)     intcor
     12.19     -15.69       1.78        0.00      91.60       2.53       1.83       1.67       ----

> <Gold.Chemscore.Fitness>
12.1947

> <Gold.Chemscore.DG>
-15.6921

> <Gold.Chemscore.ZeroCoef>
-5.4800

> <Gold.Chemscore.Hbond>
1.7846

> <Gold.Chemscore.Metal>
0.0000

> <Gold.Chemscore.Lipo>
91.6048

> <Gold.Chemscore.Internal_Hbond>
0.0000

> <Gold.Chemscore.DEClash>
1.8303

> <Gold.Chemscore.DEInternal>
1.6671

> <Gold.Chemscore.Rot>
2.5259

> <Gold.Chemscore.Internal.Correction>
   9.000000E+99

> <Gold.Chemscore.Hbond.Weighted>
-5.9607

> <Gold.Chemscore.Metal.Weighted>
-0.0000

> <Gold.Chemscore.Lipo.Weighted>
-10.7178

> <Gold.Chemscore.Internal_Hbond.Weighted>
0.0000

> <Gold.Chemscore.DEClash.Weighted>
1.8303

> <Gold.Chemscore.DEInternal.Weighted>
1.6671

> <Gold.Chemscore.Rot.Weighted>
6.4663

> <Gold.Chemscore.Internal.Correction.Weighted>
   9.000000E+99

> <Gold.Protein.RotatedTorsions>
[ 6907 6896 6895 6894 ] final  -57.44 input  -60.11 | X-H torsion
[ 7974 7965 7964 7962 ] final   62.41 input  175.53 | X-H torsion
[ 8008 7997 7996 7995 ] final -136.59 input   59.86 | X-H torsion
[ 10167 10162 10161 10158 ] final  176.62 input  -65.29 | X-H torsion
[ 10718 10713 10712 10709 ] final -161.08 input   66.30 | X-H torsion
[ 10763 10752 10751 10750 ] final   60.72 input  -60.55 | X-H torsion
[ 11005 11000 10999 10996 ] final   26.27 input  -57.11 | X-H torsion

> <Gold.Protein.ActiveResidues>
 VAL166  LYS551  ARG553  GLY616  TRP617  ASP618  TYR619  PRO620  LYS621  CYS622 
 ASP623  PHE694  ASN695  SER759  ASP760  ASP761  ALA762  ILE779  LEU786  VAL792 
 PHE793  MET794  SER795  GLU796  ALA797  LYS798  CYS799  TRP800  GLU811  SER814 

> <Gold.Protein.RotatedAtoms>
  150.8086  134.7226  159.6666 H   0  0  0  0  0  0  0  0  0  0  0  0  # atno 6907 bound_to 6896
  152.4206  134.5959  159.9997 H   0  0  0  0  0  0  0  0  0  0  0  0  # atno 6908 bound_to 6896
  151.6176  133.3304  159.3117 H   0  0  0  0  0  0  0  0  0  0  0  0  # atno 6909 bound_to 6896
  145.8737  139.3395  143.0747 H   0  0  0  0  0  0  0  0  0  0  0  0  # atno 7974 bound_to 7965
  155.3977  140.0504  157.3038 H   0  0  0  0  0  0  0  0  0  0  0  0  # atno 8008 bound_to 7997
  154.5006  140.2155  155.9316 H   0  0  0  0  0  0  0  0  0  0  0  0  # atno 8009 bound_to 7997
  156.1462  140.3145  155.8579 H   0  0  0  0  0  0  0  0  0  0  0  0  # atno 8010 bound_to 7997
  139.5221  144.2894  152.0477 H   0  0  0  0  0  0  0  0  0  0  0  0  # atno 10167 bound_to 10162
  156.5912  130.8771  151.2890 H   0  0  0  0  0  0  0  0  0  0  0  0  # atno 10718 bound_to 10713
  152.9929  135.5526  154.5919 H   0  0  0  0  0  0  0  0  0  0  0  0  # atno 10763 bound_to 10752
  154.5279  135.2811  155.1208 H   0  0  0  0  0  0  0  0  0  0  0  0  # atno 10764 bound_to 10752
  154.2535  135.6394  153.5301 H   0  0  0  0  0  0  0  0  0  0  0  0  # atno 10765 bound_to 10752
  140.3388  134.2356  155.7692 H   0  0  0  0  0  0  0  0  0  0  0  0  # atno 11005 bound_to 11000
  145.9106  140.9182  143.0456 LP  0  0  0  0  0  0  0  0  0  0  0  0  # atno 17320 bound_to 7965
  144.6726  140.1155  143.7453 LP  0  0  0  0  0  0  0  0  0  0  0  0  # atno 17321 bound_to 7965
  140.2346  144.4333  150.6285 LP  0  0  0  0  0  0  0  0  0  0  0  0  # atno 17342 bound_to 10162
  140.6332  143.2191  151.6450 LP  0  0  0  0  0  0  0  0  0  0  0  0  # atno 17343 bound_to 10162
  157.7303  130.9683  150.1827 LP  0  0  0  0  0  0  0  0  0  0  0  0  # atno 17370 bound_to 10713
  156.2548  130.3704  149.8193 LP  0  0  0  0  0  0  0  0  0  0  0  0  # atno 17371 bound_to 10713
  141.2044  133.7887  157.0289 LP  0  0  0  0  0  0  0  0  0  0  0  0  # atno 17394 bound_to 11000
  140.0798  134.9654  157.1606 LP  0  0  0  0  0  0  0  0  0  0  0  0  # atno 17395 bound_to 11000

$$$$
