AV-unprocessed.smi:1726|AV-procd|sdf|6964|dock1
  -GOLD-   22720 8173D 1   1.00000     0.00000
 Structure written by MMmdl.
 42 43  0  0  0  0  0  0  0  0  3 V2000
  145.9483  134.0377  150.8292 C   0  0  0  0  0  0  0  0  0  0  0  0
  145.9606  134.4766  152.3008 C   0  0  0  0  0  0  0  0  0  0  0  0
  147.2678  134.2299  152.9609 N   0  3  2  0  0  0  0  0  0  0  0  0
  147.6370  132.7904  152.9465 C   0  0  0  0  0  0  0  0  0  0  0  0
  149.0496  132.5700  153.5128 C   0  0  0  0  0  0  0  0  0  0  0  0
  149.1720  133.1484  154.9281 C   0  0  0  0  0  0  0  0  0  0  0  0
  148.7649  134.6298  154.9251 C   0  0  2  0  0  0  0  0  0  0  0  0
  148.8265  135.1657  156.2815 N   0  0  0  0  0  0  0  0  0  0  0  0
  148.0556  134.7662  157.3034 C   0  0  0  0  0  0  0  0  0  0  0  0
  147.2019  133.8856  157.1956 O   0  0  0  0  0  0  0  0  0  0  0  0
  148.3662  135.4343  158.4286 N   0  0  0  0  0  0  0  0  0  0  0  0
  147.7936  135.3358  159.7080 C   0  0  0  0  0  0  0  0  0  0  0  0
  146.7935  134.4759  160.0470 C   0  0  0  0  0  0  0  0  0  0  0  0
  146.2289  134.4270  161.3898 C   0  0  0  0  0  0  0  0  0  0  0  0
  145.0657  133.5341  161.7840 C   0  0  0  0  0  0  0  0  0  0  0  0
  144.0877  133.5946  160.8798 F   0  0  0  0  0  0  0  0  0  0  0  0
  145.4544  132.2642  161.8987 F   0  0  0  0  0  0  0  0  0  0  0  0
  144.5710  133.9252  162.9573 F   0  0  0  0  0  0  0  0  0  0  0  0
  146.7999  135.3603  162.2330 C   0  0  0  0  0  0  0  0  0  0  0  0
  147.7933  136.2404  161.9798 N   0  5  0  0  0  0  0  0  0  0  0  0
  148.3218  136.2698  160.7238 C   0  0  0  0  0  0  0  0  0  0  0  0
  149.2242  137.0517  160.4220 O   0  0  0  0  0  0  0  0  0  0  0  0
  147.3497  134.7997  154.3323 C   0  0  0  0  0  0  0  0  0  0  0  0
  144.9457  134.1316  150.4113 H   0  0  0  0  0  0  0  0  0  0  0  0
  146.2515  132.9953  150.7261 H   0  0  0  0  0  0  0  0  0  0  0  0
  146.6104  134.6450  150.2128 H   0  0  0  0  0  0  0  0  0  0  0  0
  145.6867  135.5287  152.3918 H   0  0  0  0  0  0  0  0  0  0  0  0
  145.1863  133.9106  152.8204 H   0  0  0  0  0  0  0  0  0  0  0  0
  146.9068  132.2211  153.5239 H   0  0  0  0  0  0  0  0  0  0  0  0
  147.5999  132.4096  151.9249 H   0  0  0  0  0  0  0  0  0  0  0  0
  149.2848  131.5054  153.5241 H   0  0  0  0  0  0  0  0  0  0  0  0
  149.7844  133.0419  152.8589 H   0  0  0  0  0  0  0  0  0  0  0  0
  148.5338  132.5851  155.6107 H   0  0  0  0  0  0  0  0  0  0  0  0
  150.1948  133.0355  155.2900 H   0  0  0  0  0  0  0  0  0  0  0  0
  149.4767  135.1752  154.3019 H   0  0  0  0  0  0  0  0  0  0  0  0
  149.5055  135.8923  156.4564 H   0  0  0  0  0  0  0  0  0  0  0  0
  149.1450  136.0747  158.3733 H   0  0  0  0  0  0  0  0  0  0  0  0
  146.3698  133.8059  159.3173 H   0  0  0  0  0  0  0  0  0  0  0  0
  146.3949  135.4092  163.2663 H   0  0  0  0  0  0  0  0  0  0  0  0
  147.0978  135.8593  154.3076 H   0  0  0  0  0  0  0  0  0  0  0  0
  146.6099  134.3154  154.9721 H   0  0  0  0  0  0  0  0  0  0  0  0
  147.9637  134.7053  152.4041 H   0  0  0  0  0  0  0  0  0  0  0  0
  1  2  1  0  0  0  0
  1 24  1  0  0  0  0
  1 25  1  0  0  0  0
  1 26  1  0  0  0  0
  2  3  1  0  0  0  0
  2 27  1  0  0  0  0
  2 28  1  0  0  0  0
  3 23  1  0  0  0  0
  3  4  1  0  0  0  0
  3 42  1  0  0  0  0
  4  5  1  0  0  0  0
  4 29  1  0  0  0  0
  4 30  1  0  0  0  0
  5  6  1  0  0  0  0
  5 31  1  0  0  0  0
  5 32  1  0  0  0  0
  6  7  1  0  0  0  0
  6 33  1  0  0  0  0
  6 34  1  0  0  0  0
  7  8  1  0  0  0  0
  7 23  1  0  0  0  0
  7 35  1  0  0  0  0
  8  9  1  0  0  0  0
  8 36  1  0  0  0  0
  9 10  2  0  0  0  0
  9 11  1  0  0  0  0
 11 12  1  0  0  0  0
 11 37  1  0  0  0  0
 12 21  1  0  0  0  0
 12 13  2  0  0  0  0
 13 14  1  0  0  0  0
 13 38  1  0  0  0  0
 14 15  1  0  0  0  0
 14 19  2  0  0  0  0
 15 16  1  0  0  0  0
 15 17  1  0  0  0  0
 15 18  1  0  0  0  0
 19 20  1  0  0  0  0
 19 39  1  0  0  0  0
 20 21  1  0  0  0  0
 21 22  2  0  0  0  0
 23 40  1  0  0  0  0
 23 41  1  0  0  0  0
M  CHG  1   3   1
M  CHG  1  20  -1
M  END
> <s_m_source_file>
AV-unprocessed.smi

> <i_m_source_file_index>
1726

> <i_lp_mmshare_version>
43012

> <i_f3d_flags>
0

> <s_epik_input>
W0NIM11bQ0gyXU4xW0NIMl1bQ0gyXVtDSDJdW0NASF0oW0NIMl0xKVtOSF1DKD1PKVtOSF1jMltjSF1jKEMoRikoRilGKVtjSF1bbkhdYzI9Tw==

> <s_epik_cmdline>
J2VwaWtfcHl0aG9uJywgJy1waCcsICc3LjAnLCAnLXRuJywgJzgnLCAnLW1hJywgJzIwMCcsICctbWV0YWxfYmluZGluZycsICctaW1hZScsICc8aW5maWxlLm1hZT4nLCAnLW9tYWUnLCAnPG91dGZpbGUubWFlPic=

> <r_lp_tautomer_probability>
1

> <r_epik_Ionization_Penalty>
3.01007

> <r_epik_Ionization_Penalty_Charging>
0.14897

> <r_epik_Ionization_Penalty_Neutral>
2.8611

> <r_epik_State_Penalty>
2.85632

> <r_epik_Charging_Adjusted_Penalty>
3.00529

> <i_epik_Tot_Q>
0

> <i_epik_Tot_abs_Q>
2

> <r_epik_Metal_State_Penalty>
0.443826

> <b_epik_Metal_Only>
1

> <s_lp_Force_Field>
OPLS_2005

> <r_lp_Energy>
27.5552

> <b_lp_Chiralities_Consistent>
1

> <s_lp_Variant>
AV-unprocessed.smi:1726-8

> <Gold.Version>
5.8.1

> <Gold.Id.Protein>
6NUR|6NUR_protein|mol2

> <Gold.PLP.Fitness>
40.5172

> <Gold.PLP.PLP>
-33.5994

> <Gold.PLP.part.hbond>
-2.0000

> <Gold.PLP.part.metal>
0.0000

> <Gold.PLP.part.buried>
-4.6673

> <Gold.PLP.part.nonpolar>
-26.7684

> <Gold.PLP.part.repulsive>
0.0880

> <Gold.PLP.ligand.clash>
0.0679

> <Gold.PLP.ligand.torsion>
0.4140

> <Gold.PLP.Chemscore.Hbond>
2.5760

> <Gold.PLP.Chemscore.CHOScore>
0.0000

> <Gold.PLP.Chemscore.Metal>
0.0000

> <Gold.Chemscore.Hbonds>
donor molecule, donor type, donor heavy atom, donor atom, acceptor molecule, acceptor atom, score
      L1  H     3    42       P1  7948  2.00
      P1  H  6931  6943       L1    22  0.55

> <Gold.PLP.Chemscore.Internal.Correction>
0.0858

> <Gold.Rescore>
     Score         DG    S(hbond)    S(metal)    S(lipo)     H(rot)  DE(clash)    DE(int)     intcor
     14.65     -18.26       2.67        0.00      61.00       1.28       0.88       2.73       ----

> <Gold.Chemscore.Fitness>
14.6540

> <Gold.Chemscore.DG>
-18.2589

> <Gold.Chemscore.ZeroCoef>
-5.4800

> <Gold.Chemscore.Hbond>
2.6701

> <Gold.Chemscore.Metal>
0.0000

> <Gold.Chemscore.Lipo>
60.9974

> <Gold.Chemscore.Internal_Hbond>
0.0000

> <Gold.Chemscore.DEClash>
0.8762

> <Gold.Chemscore.DEInternal>
2.7287

> <Gold.Chemscore.Rot>
1.2796

> <Gold.Chemscore.Internal.Correction>
   9.000000E+99

> <Gold.Chemscore.Hbonds>
donor molecule, donor type, donor heavy atom, donor atom, acceptor molecule, acceptor atom, score
      L1  H     3    42       P1  7948  0.59
      P1  H  6931  6943       L1    22  0.12

> <Gold.Chemscore.Hbond.Weighted>
-8.9181

> <Gold.Chemscore.Metal.Weighted>
-0.0000

> <Gold.Chemscore.Lipo.Weighted>
-7.1367

> <Gold.Chemscore.Internal_Hbond.Weighted>
0.0000

> <Gold.Chemscore.DEClash.Weighted>
0.8762

> <Gold.Chemscore.DEInternal.Weighted>
2.7287

> <Gold.Chemscore.Rot.Weighted>
3.2759

> <Gold.Chemscore.Internal.Correction.Weighted>
   9.000000E+99

> <Gold.Protein.RotatedTorsions>
[ 6907 6896 6895 6894 ] final   38.22 input  -60.11 | X-H torsion
[ 7974 7965 7964 7962 ] final    8.02 input  175.53 | X-H torsion
[ 8008 7997 7996 7995 ] final  151.58 input   59.86 | X-H torsion
[ 10167 10162 10161 10158 ] final -172.66 input  -65.29 | X-H torsion
[ 10718 10713 10712 10709 ] final  -85.06 input   66.30 | X-H torsion
[ 10763 10752 10751 10750 ] final  161.15 input  -60.55 | X-H torsion
[ 11005 11000 10999 10996 ] final  -82.18 input  -57.11 | X-H torsion

> <Gold.Protein.ActiveResidues>
 VAL166  LYS551  ARG553  GLY616  TRP617  ASP618  TYR619  PRO620  LYS621  CYS622 
 ASP623  PHE694  ASN695  SER759  ASP760  ASP761  ALA762  ILE779  LEU786  VAL792 
 PHE793  MET794  SER795  GLU796  ALA797  LYS798  CYS799  TRP800  GLU811  SER814 

> <Gold.Protein.RotatedAtoms>
  152.1536  134.8969  160.0546 H   0  0  0  0  0  0  0  0  0  0  0  0  # atno 6907 bound_to 6896
  151.9991  133.3814  159.4183 H   0  0  0  0  0  0  0  0  0  0  0  0  # atno 6908 bound_to 6896
  150.6878  134.3776  159.5063 H   0  0  0  0  0  0  0  0  0  0  0  0  # atno 6909 bound_to 6896
  146.2421  139.9995  142.8417 H   0  0  0  0  0  0  0  0  0  0  0  0  # atno 7974 bound_to 7965
  156.2668  140.2044  156.6197 H   0  0  0  0  0  0  0  0  0  0  0  0  # atno 8008 bound_to 7997
  154.6766  140.0544  157.0246 H   0  0  0  0  0  0  0  0  0  0  0  0  # atno 8009 bound_to 7997
  155.1060  140.3211  155.4537 H   0  0  0  0  0  0  0  0  0  0  0  0  # atno 8010 bound_to 7997
  139.5732  144.1593  152.1414 H   0  0  0  0  0  0  0  0  0  0  0  0  # atno 10167 bound_to 10162
  156.0000  130.4718  150.4504 H   0  0  0  0  0  0  0  0  0  0  0  0  # atno 10718 bound_to 10713
  154.2586  135.2769  155.2787 H   0  0  0  0  0  0  0  0  0  0  0  0  # atno 10763 bound_to 10752
  154.5404  135.5704  153.6837 H   0  0  0  0  0  0  0  0  0  0  0  0  # atno 10764 bound_to 10752
  152.9966  135.6249  154.2735 H   0  0  0  0  0  0  0  0  0  0  0  0  # atno 10765 bound_to 10752
  141.1664  133.7232  156.8533 H   0  0  0  0  0  0  0  0  0  0  0  0  # atno 11005 bound_to 11000
  145.1428  140.9580  143.4478 LP  0  0  0  0  0  0  0  0  0  0  0  0  # atno 17320 bound_to 7965
  145.0279  139.3366  143.6039 LP  0  0  0  0  0  0  0  0  0  0  0  0  # atno 17321 bound_to 7965
  140.1130  144.5440  150.6912 LP  0  0  0  0  0  0  0  0  0  0  0  0  # atno 17342 bound_to 10162
  140.7016  143.2438  151.4848 LP  0  0  0  0  0  0  0  0  0  0  0  0  # atno 17343 bound_to 10162
  157.2538  131.0552  151.2363 LP  0  0  0  0  0  0  0  0  0  0  0  0  # atno 17370 bound_to 10713
  157.3502  130.7078  149.6436 LP  0  0  0  0  0  0  0  0  0  0  0  0  # atno 17371 bound_to 10713
  140.1900  134.8972  157.3050 LP  0  0  0  0  0  0  0  0  0  0  0  0  # atno 17394 bound_to 11000
  140.2300  134.3920  155.7526 LP  0  0  0  0  0  0  0  0  0  0  0  0  # atno 17395 bound_to 11000

$$$$
