AV-unprocessed.smi:1204|AV-procd|sdf|5037|dock2
  -GOLD-   22720 4 63D 1   1.00000     0.00000
 Structure written by MMmdl.
 27 28  0  0  0  0  0  0  0  0  1 V2000
  152.6714  139.7879  157.7922 O   0  0  0  0  0  0  0  0  0  0  0  0
  151.8783  140.6377  157.3845 C   0  0  0  0  0  0  0  0  0  0  0  0
  151.5413  141.7490  158.0670 N   0  0  0  0  0  0  0  0  0  0  0  0
  152.0142  142.1873  159.3323 C   0  0  0  0  0  0  0  0  0  0  0  0
  151.6375  143.5020  159.6887 C   0  0  0  0  0  0  0  0  0  0  0  0
  152.0551  144.0315  160.9251 C   0  0  0  0  0  0  0  0  0  0  0  0
  152.8396  143.2315  161.7747 C   0  0  0  0  0  0  0  0  0  0  0  0
  153.1706  141.9334  161.3439 C   0  0  0  0  0  0  0  0  0  0  0  0
  152.7715  141.4239  160.1593 N   0  0  0  0  0  0  0  0  0  0  0  0
  151.1819  140.4473  156.0281 C   0  0  2  0  0  0  0  0  0  0  0  0
  150.2466  141.6233  155.6620 C   0  0  0  0  0  0  0  0  0  0  0  0
  149.6168  141.3540  154.4159 O   0  0  0  0  0  0  0  0  0  0  0  0
  148.8492  140.1599  154.4701 C   0  0  0  0  0  0  0  0  0  0  0  0
  149.7779  138.9863  154.8209 C   0  0  0  0  0  0  0  0  0  0  0  0
  150.4067  139.2506  156.0678 O   0  0  0  0  0  0  0  0  0  0  0  0
  150.8721  142.3570  157.6177 H   0  0  0  0  0  0  0  0  0  0  0  0
  151.0342  144.1030  159.0237 H   0  0  0  0  0  0  0  0  0  0  0  0
  151.7775  145.0339  161.2157 H   0  0  0  0  0  0  0  0  0  0  0  0
  153.1789  143.6022  162.7306 H   0  0  0  0  0  0  0  0  0  0  0  0
  153.7709  141.2867  161.9664 H   0  0  0  0  0  0  0  0  0  0  0  0
  151.9607  140.3461  155.2703 H   0  0  0  0  0  0  0  0  0  0  0  0
  149.4921  141.7849  156.4342 H   0  0  0  0  0  0  0  0  0  0  0  0
  150.8113  142.5512  155.5648 H   0  0  0  0  0  0  0  0  0  0  0  0
  148.0492  140.2576  155.2057 H   0  0  0  0  0  0  0  0  0  0  0  0
  148.3780  139.9946  153.5013 H   0  0  0  0  0  0  0  0  0  0  0  0
  149.2073  138.0609  154.8995 H   0  0  0  0  0  0  0  0  0  0  0  0
  150.5286  138.8371  154.0432 H   0  0  0  0  0  0  0  0  0  0  0  0
  1  2  2  0  0  0  0
  2  3  1  0  0  0  0
  2 10  1  0  0  0  0
  3  4  1  0  0  0  0
  3 16  1  0  0  0  0
  4  9  1  0  0  0  0
  4  5  2  0  0  0  0
  5  6  1  0  0  0  0
  5 17  1  0  0  0  0
  6  7  2  0  0  0  0
  6 18  1  0  0  0  0
  7  8  1  0  0  0  0
  7 19  1  0  0  0  0
  8  9  2  0  0  0  0
  8 20  1  0  0  0  0
 10 15  1  0  0  0  0
 10 11  1  0  0  0  0
 10 21  1  0  0  0  0
 11 12  1  0  0  0  0
 11 22  1  0  0  0  0
 11 23  1  0  0  0  0
 12 13  1  0  0  0  0
 13 14  1  0  0  0  0
 13 24  1  0  0  0  0
 13 25  1  0  0  0  0
 14 15  1  0  0  0  0
 14 26  1  0  0  0  0
 14 27  1  0  0  0  0
M  END
> <s_m_source_file>
AV-unprocessed.smi

> <i_m_source_file_index>
1204

> <i_lp_mmshare_version>
43012

> <i_f3d_flags>
0

> <s_epik_input>
TzFbQ0gyXVtDSDJdT1tDSDJdW0NASF0xQyg9TylbTkhdYzJbY0hdW2NIXVtjSF1bY0hdbjI=

> <s_epik_cmdline>
J2VwaWtfcHl0aG9uJywgJy1waCcsICc3LjAnLCAnLXRuJywgJzgnLCAnLW1hJywgJzIwMCcsICctbWV0YWxfYmluZGluZycsICctaW1hZScsICc8aW5maWxlLm1hZT4nLCAnLW9tYWUnLCAnPG91dGZpbGUubWFlPic=

> <r_epik_Ionization_Penalty>
0.0014012

> <r_epik_Ionization_Penalty_Charging>
0

> <r_epik_Ionization_Penalty_Neutral>
0.0014012

> <r_epik_State_Penalty>
0.00242437

> <r_epik_Charging_Adjusted_Penalty>
0.00242437

> <i_epik_Tot_Q>
0

> <i_epik_Tot_abs_Q>
0

> <r_epik_Metal_State_Penalty>
-0

> <b_epik_Metal_Only>
0

> <s_lp_Force_Field>
OPLS_2005

> <r_lp_Energy>
11.5524

> <b_lp_Chiralities_Consistent>
1

> <s_lp_Variant>
AV-unprocessed.smi:1204-1

> <Gold.Version>
5.8.1

> <Gold.Id.Protein>
6NUR|6NUR_protein|mol2

> <Gold.PLP.Fitness>
36.1049

> <Gold.PLP.PLP>
-32.3632

> <Gold.PLP.part.hbond>
-3.0000

> <Gold.PLP.part.metal>
0.0000

> <Gold.PLP.part.buried>
-2.7972

> <Gold.PLP.part.nonpolar>
-25.2172

> <Gold.PLP.part.repulsive>
0.2524

> <Gold.PLP.ligand.clash>
0.5713

> <Gold.PLP.ligand.torsion>
0.0286

> <Gold.PLP.Chemscore.Hbond>
1.4561

> <Gold.PLP.Chemscore.CHOScore>
0.0000

> <Gold.PLP.Chemscore.Metal>
0.0000

> <Gold.Chemscore.Hbonds>
donor molecule, donor type, donor heavy atom, donor atom, acceptor molecule, acceptor atom, score
      P1  H  7989  7998       L1    12  0.10
      P1  H  7997  8008       L1     1  0.94
      P1  H  8011  8017       L1    12  0.14

> <Gold.PLP.Chemscore.Internal.Correction>
0.0018

> <Gold.Rescore>
     Score         DG    S(hbond)    S(metal)    S(lipo)     H(rot)  DE(clash)    DE(int)     intcor
     14.81     -16.18       1.43        0.00      72.48       1.00       0.05       1.32       ----

> <Gold.Chemscore.Fitness>
14.8067

> <Gold.Chemscore.DG>
-16.1781

> <Gold.Chemscore.ZeroCoef>
-5.4800

> <Gold.Chemscore.Hbond>
1.4305

> <Gold.Chemscore.Metal>
0.0000

> <Gold.Chemscore.Lipo>
72.4804

> <Gold.Chemscore.Internal_Hbond>
0.0000

> <Gold.Chemscore.DEClash>
0.0544

> <Gold.Chemscore.DEInternal>
1.3170

> <Gold.Chemscore.Rot>
1.0000

> <Gold.Chemscore.Internal.Correction>
   9.000000E+99

> <Gold.Chemscore.Hbonds>
donor molecule, donor type, donor heavy atom, donor atom, acceptor molecule, acceptor atom, score
      P1  H  7997  8008       L1     1  0.49
      P1  H  8011  8017       L1    12  0.14

> <Gold.Chemscore.Hbond.Weighted>
-4.7779

> <Gold.Chemscore.Metal.Weighted>
-0.0000

> <Gold.Chemscore.Lipo.Weighted>
-8.4802

> <Gold.Chemscore.Internal_Hbond.Weighted>
0.0000

> <Gold.Chemscore.DEClash.Weighted>
0.0544

> <Gold.Chemscore.DEInternal.Weighted>
1.3170

> <Gold.Chemscore.Rot.Weighted>
2.5600

> <Gold.Chemscore.Internal.Correction.Weighted>
   9.000000E+99

> <Gold.Protein.RotatedTorsions>
[ 6907 6896 6895 6894 ] final   77.34 input  -60.11 | X-H torsion
[ 7974 7965 7964 7962 ] final  111.58 input  175.53 | X-H torsion
[ 8008 7997 7996 7995 ] final  -64.12 input   59.86 | X-H torsion
[ 10167 10162 10161 10158 ] final  -72.54 input  -65.29 | X-H torsion
[ 10718 10713 10712 10709 ] final  -73.85 input   66.30 | X-H torsion
[ 10763 10752 10751 10750 ] final  -17.07 input  -60.55 | X-H torsion
[ 11005 11000 10999 10996 ] final  111.49 input  -57.11 | X-H torsion

> <Gold.Protein.ActiveResidues>
 VAL166  LYS551  ARG553  GLY616  TRP617  ASP618  TYR619  PRO620  LYS621  CYS622 
 ASP623  PHE694  ASN695  SER759  ASP760  ASP761  ALA762  ILE779  LEU786  VAL792 
 PHE793  MET794  SER795  GLU796  ALA797  LYS798  CYS799  TRP800  GLU811  SER814 

> <Gold.Protein.RotatedAtoms>
  152.5113  134.3832  159.9358 H   0  0  0  0  0  0  0  0  0  0  0  0  # atno 6907 bound_to 6896
  151.3790  133.3822  159.2715 H   0  0  0  0  0  0  0  0  0  0  0  0  # atno 6908 bound_to 6896
  150.9519  134.8938  159.7736 H   0  0  0  0  0  0  0  0  0  0  0  0  # atno 6909 bound_to 6896
  145.2404  139.2781  143.4121 H   0  0  0  0  0  0  0  0  0  0  0  0  # atno 7974 bound_to 7965
  154.4593  140.0960  156.6848 H   0  0  0  0  0  0  0  0  0  0  0  0  # atno 8008 bound_to 7997
  155.5042  140.3474  155.4358 H   0  0  0  0  0  0  0  0  0  0  0  0  # atno 8009 bound_to 7997
  156.0840  140.1380  156.9666 H   0  0  0  0  0  0  0  0  0  0  0  0  # atno 8010 bound_to 7997
  140.5184  143.2335  151.7473 H   0  0  0  0  0  0  0  0  0  0  0  0  # atno 10167 bound_to 10162
  156.0264  130.4403  150.2805 H   0  0  0  0  0  0  0  0  0  0  0  0  # atno 10718 bound_to 10713
  153.5682  135.7008  153.5516 H   0  0  0  0  0  0  0  0  0  0  0  0  # atno 10763 bound_to 10752
  153.3368  135.4032  155.1539 H   0  0  0  0  0  0  0  0  0  0  0  0  # atno 10764 bound_to 10752
  154.8637  135.3732  154.5204 H   0  0  0  0  0  0  0  0  0  0  0  0  # atno 10765 bound_to 10752
  139.8905  134.9509  156.6440 H   0  0  0  0  0  0  0  0  0  0  0  0  # atno 11005 bound_to 11000
  146.3330  140.2765  142.8608 LP  0  0  0  0  0  0  0  0  0  0  0  0  # atno 17320 bound_to 7965
  144.9594  140.8260  143.5523 LP  0  0  0  0  0  0  0  0  0  0  0  0  # atno 17321 bound_to 7965
  139.4916  144.4291  151.9893 LP  0  0  0  0  0  0  0  0  0  0  0  0  # atno 17342 bound_to 10162
  140.3386  144.3230  150.5972 LP  0  0  0  0  0  0  0  0  0  0  0  0  # atno 17343 bound_to 10162
  157.0908  131.0169  151.3122 LP  0  0  0  0  0  0  0  0  0  0  0  0  # atno 17370 bound_to 10713
  157.4855  130.7791  149.7456 LP  0  0  0  0  0  0  0  0  0  0  0  0  # atno 17371 bound_to 10713
  140.7571  133.8848  155.8390 LP  0  0  0  0  0  0  0  0  0  0  0  0  # atno 17394 bound_to 11000
  140.9952  134.1224  157.4370 LP  0  0  0  0  0  0  0  0  0  0  0  0  # atno 17395 bound_to 11000

$$$$
