AV-unprocessed.smi:1965|AV-procd|sdf|7938|dock1
  -GOLD-   2272010103D 1   1.00000     0.00000
 Structure written by MMmdl.
 37 39  0  0  0  0  0  0  0  0  2 V2000
  145.3207  138.3008  153.4703 O   0  0  0  0  0  0  0  0  0  0  0  0
  146.2072  137.8217  152.7654 C   0  0  0  0  0  0  0  0  0  0  0  0
  147.4729  138.2874  152.8185 N   0  0  0  0  0  0  0  0  0  0  0  0
  148.0587  139.3251  153.6001 C   0  0  0  0  0  0  0  0  0  0  0  0
  147.5763  140.5694  153.7137 N   0  0  0  0  0  0  0  0  0  0  0  0
  148.3491  141.3592  154.5687 C   0  0  0  0  0  0  0  0  0  0  0  0
  149.4204  140.6942  155.1100 C   0  0  0  0  0  0  0  0  0  0  0  0
  149.4999  139.0402  154.5656 S   0  0  0  0  0  0  0  0  0  0  0  0
  145.9827  136.8150  151.9052 N   0  0  0  0  0  0  0  0  0  0  0  0
  144.6845  136.1983  151.6533 C   0  0  2  0  0  0  0  0  0  0  0  0
  143.9838  135.7298  152.9218 C   0  0  0  0  0  0  0  0  0  0  0  0
  142.9526  134.7262  152.3958 C   0  0  0  0  0  0  0  0  0  0  0  0
  143.4914  134.1826  151.1245 N   0  3  2  0  0  0  0  0  0  0  0  0
  143.5987  132.6991  151.0986 C   0  0  0  0  0  0  0  0  0  0  0  0
  144.5098  132.2331  149.9532 C   0  0  0  0  0  0  0  0  0  0  0  0
  145.9457  132.7650  150.1215 C   0  0  0  0  0  0  0  0  0  0  0  0
  146.0045  134.0408  150.9831 C   0  0  0  0  0  0  0  0  0  0  0  0
  144.7437  134.9210  150.7943 C   0  0  2  0  0  0  0  0  0  0  0  0
  148.1322  137.7729  152.2523 H   0  0  0  0  0  0  0  0  0  0  0  0
  148.0625  142.3866  154.7377 H   0  0  0  0  0  0  0  0  0  0  0  0
  150.1631  141.0744  155.7956 H   0  0  0  0  0  0  0  0  0  0  0  0
  146.7661  136.4749  151.3654 H   0  0  0  0  0  0  0  0  0  0  0  0
  144.0320  136.9239  151.1627 H   0  0  0  0  0  0  0  0  0  0  0  0
  144.6908  135.2225  153.5802 H   0  0  0  0  0  0  0  0  0  0  0  0
  143.5289  136.5468  153.4830 H   0  0  0  0  0  0  0  0  0  0  0  0
  142.7313  133.9549  153.1347 H   0  0  0  0  0  0  0  0  0  0  0  0
  142.0158  135.2368  152.1701 H   0  0  0  0  0  0  0  0  0  0  0  0
  143.9998  132.3335  152.0457 H   0  0  0  0  0  0  0  0  0  0  0  0
  142.6004  132.2730  150.9933 H   0  0  0  0  0  0  0  0  0  0  0  0
  144.5211  131.1443  149.8914 H   0  0  0  0  0  0  0  0  0  0  0  0
  144.0979  132.5875  149.0070 H   0  0  0  0  0  0  0  0  0  0  0  0
  146.5784  132.0023  150.5768 H   0  0  0  0  0  0  0  0  0  0  0  0
  146.3692  132.9601  149.1354 H   0  0  0  0  0  0  0  0  0  0  0  0
  146.0957  133.7630  152.0342 H   0  0  0  0  0  0  0  0  0  0  0  0
  146.9125  134.5916  150.7369 H   0  0  0  0  0  0  0  0  0  0  0  0
  144.6981  135.2056  149.7419 H   0  0  0  0  0  0  0  0  0  0  0  0
  142.8281  134.4358  150.4059 H   0  0  0  0  0  0  0  0  0  0  0  0
  1  2  2  0  0  0  0
  2  3  1  0  0  0  0
  2  9  1  0  0  0  0
  3  4  1  0  0  0  0
  3 19  1  0  0  0  0
  4  8  1  0  0  0  0
  4  5  2  0  0  0  0
  5  6  1  0  0  0  0
  6  7  2  0  0  0  0
  6 20  1  0  0  0  0
  7  8  1  0  0  0  0
  7 21  1  0  0  0  0
  9 10  1  0  0  0  0
  9 22  1  0  0  0  0
 10 18  1  0  0  0  0
 10 11  1  0  0  0  0
 10 23  1  0  0  0  0
 11 12  1  0  0  0  0
 11 24  1  0  0  0  0
 11 25  1  0  0  0  0
 12 13  1  0  0  0  0
 12 26  1  0  0  0  0
 12 27  1  0  0  0  0
 13 18  1  0  0  0  0
 13 14  1  0  0  0  0
 13 37  1  0  0  0  0
 14 15  1  0  0  0  0
 14 28  1  0  0  0  0
 14 29  1  0  0  0  0
 15 16  1  0  0  0  0
 15 30  1  0  0  0  0
 15 31  1  0  0  0  0
 16 17  1  0  0  0  0
 16 32  1  0  0  0  0
 16 33  1  0  0  0  0
 17 18  1  0  0  0  0
 17 34  1  0  0  0  0
 17 35  1  0  0  0  0
 18 36  1  0  0  0  0
M  CHG  1  13   1
M  END
> <s_m_source_file>
AV-unprocessed.smi

> <i_m_source_file_index>
1965

> <i_lp_mmshare_version>
43012

> <i_f3d_flags>
0

> <s_epik_input>
czFbY0hdW2NIXW5jMVtOSF1DKD1PKVtOSF1bQ0BIXShbQ0gyXVtDSDJdMilbQ0BASF0oTjIzKVtDSDJdW0NIMl1bQ0gyXVtDSDJdMw==

> <s_epik_cmdline>
J2VwaWtfcHl0aG9uJywgJy1waCcsICc3LjAnLCAnLXRuJywgJzgnLCAnLW1hJywgJzIwMCcsICctbWV0YWxfYmluZGluZycsICctaW1hZScsICc8aW5maWxlLm1hZT4nLCAnLW9tYWUnLCAnPG91dGZpbGUubWFlPic=

> <r_lp_tautomer_probability>
1

> <r_epik_Ionization_Penalty>
0.00125962

> <r_epik_Ionization_Penalty_Charging>
0.00107044

> <r_epik_Ionization_Penalty_Neutral>
0.000189176

> <r_epik_State_Penalty>
-0

> <r_epik_Charging_Adjusted_Penalty>
0.00107044

> <i_epik_Tot_Q>
1

> <i_epik_Tot_abs_Q>
1

> <r_epik_Metal_State_Penalty>
0.0179285

> <b_epik_Metal_Only>
0

> <s_lp_Force_Field>
OPLS_2005

> <r_lp_Energy>
41.6274

> <b_lp_Chiralities_Consistent>
1

> <s_lp_Variant>
AV-unprocessed.smi:1965-7

> <Gold.Version>
5.8.1

> <Gold.Id.Protein>
6NUR|6NUR_protein|mol2

> <Gold.PLP.Fitness>
44.2594

> <Gold.PLP.PLP>
-33.4543

> <Gold.PLP.part.hbond>
-3.8252

> <Gold.PLP.part.metal>
0.0000

> <Gold.PLP.part.buried>
-2.9618

> <Gold.PLP.part.nonpolar>
-29.8245

> <Gold.PLP.part.repulsive>
2.2596

> <Gold.PLP.ligand.clash>
0.0000

> <Gold.PLP.ligand.torsion>
0.5267

> <Gold.PLP.Chemscore.Hbond>
3.1316

> <Gold.PLP.Chemscore.CHOScore>
0.8202

> <Gold.PLP.Chemscore.Metal>
0.0000

> <Gold.Chemscore.Hbonds>
donor molecule, donor type, donor heavy atom, donor atom, acceptor molecule, acceptor atom, score
      L1  H     3    19       P1  7948  1.00
      L1  H     9    22       P1  7948  0.36
      L1  H    13    37       P1 10186  2.00
      L1  C     6    20       P1  8028  0.79

> <Gold.PLP.Chemscore.Internal.Correction>
0.0030

> <Gold.Rescore>
     Score         DG    S(hbond)    S(metal)    S(lipo)     H(rot)  DE(clash)    DE(int)     intcor
     16.67     -18.45       2.06        0.00      73.93       1.00       0.19       1.59       ----

> <Gold.Chemscore.Fitness>
16.6709

> <Gold.Chemscore.DG>
-18.4519

> <Gold.Chemscore.ZeroCoef>
-5.4800

> <Gold.Chemscore.Hbond>
2.0606

> <Gold.Chemscore.Metal>
0.0000

> <Gold.Chemscore.Lipo>
73.9284

> <Gold.Chemscore.Internal_Hbond>
0.0000

> <Gold.Chemscore.DEClash>
0.1862

> <Gold.Chemscore.DEInternal>
1.5948

> <Gold.Chemscore.Rot>
1.0000

> <Gold.Chemscore.Internal.Correction>
   9.000000E+99

> <Gold.Chemscore.Hbonds>
donor molecule, donor type, donor heavy atom, donor atom, acceptor molecule, acceptor atom, score
      L1  H     3    19       P1  7948  0.95
      L1  H     9    22       P1  7948  0.35
      L1  H    13    37       P1 10186  0.61

> <Gold.Chemscore.Hbond.Weighted>
-6.8823

> <Gold.Chemscore.Metal.Weighted>
-0.0000

> <Gold.Chemscore.Lipo.Weighted>
-8.6496

> <Gold.Chemscore.Internal_Hbond.Weighted>
0.0000

> <Gold.Chemscore.DEClash.Weighted>
0.1862

> <Gold.Chemscore.DEInternal.Weighted>
1.5948

> <Gold.Chemscore.Rot.Weighted>
2.5600

> <Gold.Chemscore.Internal.Correction.Weighted>
   9.000000E+99

> <Gold.Protein.RotatedTorsions>
[ 6907 6896 6895 6894 ] final    9.50 input  -60.11 | X-H torsion
[ 7974 7965 7964 7962 ] final  -48.85 input  175.53 | X-H torsion
[ 8008 7997 7996 7995 ] final   60.02 input   59.86 | X-H torsion
[ 10167 10162 10161 10158 ] final  -91.99 input  -65.29 | X-H torsion
[ 10718 10713 10712 10709 ] final  -16.27 input   66.30 | X-H torsion
[ 10763 10752 10751 10750 ] final   58.12 input  -60.55 | X-H torsion
[ 11005 11000 10999 10996 ] final  123.77 input  -57.11 | X-H torsion

> <Gold.Protein.ActiveResidues>
 VAL166  LYS551  ARG553  GLY616  TRP617  ASP618  TYR619  PRO620  LYS621  CYS622 
 ASP623  PHE694  ASN695  SER759  ASP760  ASP761  ALA762  ILE779  LEU786  VAL792 
 PHE793  MET794  SER795  GLU796  ALA797  LYS798  CYS799  TRP800  GLU811  SER814 

> <Gold.Protein.RotatedAtoms>
  151.7232  135.0890  160.0287 H   0  0  0  0  0  0  0  0  0  0  0  0  # atno 6907 bound_to 6896
  152.3589  133.6267  159.6008 H   0  0  0  0  0  0  0  0  0  0  0  0  # atno 6908 bound_to 6896
  150.7590  133.9372  159.3486 H   0  0  0  0  0  0  0  0  0  0  0  0  # atno 6909 bound_to 6896
  145.9468  140.7611  142.9525 H   0  0  0  0  0  0  0  0  0  0  0  0  # atno 7974 bound_to 7965
  155.5756  140.3490  155.4527 H   0  0  0  0  0  0  0  0  0  0  0  0  # atno 8008 bound_to 7997
  156.0411  140.1296  157.0179 H   0  0  0  0  0  0  0  0  0  0  0  0  # atno 8009 bound_to 7997
  154.4392  140.1024  156.6224 H   0  0  0  0  0  0  0  0  0  0  0  0  # atno 8010 bound_to 7997
  140.3393  143.2951  151.9854 H   0  0  0  0  0  0  0  0  0  0  0  0  # atno 10167 bound_to 10162
  156.5899  130.4796  149.6284 H   0  0  0  0  0  0  0  0  0  0  0  0  # atno 10718 bound_to 10713
  152.9864  135.5618  154.5501 H   0  0  0  0  0  0  0  0  0  0  0  0  # atno 10763 bound_to 10752
  154.4939  135.2794  155.1476 H   0  0  0  0  0  0  0  0  0  0  0  0  # atno 10764 bound_to 10752
  154.2934  135.6321  153.5448 H   0  0  0  0  0  0  0  0  0  0  0  0  # atno 10765 bound_to 10752
  139.9328  134.9641  156.8309 H   0  0  0  0  0  0  0  0  0  0  0  0  # atno 11005 bound_to 11000
  144.6788  140.2369  143.7348 LP  0  0  0  0  0  0  0  0  0  0  0  0  # atno 17320 bound_to 7965
  145.8226  139.2050  143.1929 LP  0  0  0  0  0  0  0  0  0  0  0  0  # atno 17321 bound_to 7965
  139.4843  144.6170  151.7327 LP  0  0  0  0  0  0  0  0  0  0  0  0  # atno 17342 bound_to 10162
  140.5324  144.0709  150.6058 LP  0  0  0  0  0  0  0  0  0  0  0  0  # atno 17343 bound_to 10162
  156.2558  130.6934  151.1687 LP  0  0  0  0  0  0  0  0  0  0  0  0  # atno 17370 bound_to 10713
  157.7306  131.0615  150.5718 LP  0  0  0  0  0  0  0  0  0  0  0  0  # atno 17371 bound_to 10713
  140.6157  134.0041  155.7596 LP  0  0  0  0  0  0  0  0  0  0  0  0  # atno 17394 bound_to 11000
  141.0925  133.9894  157.3213 LP  0  0  0  0  0  0  0  0  0  0  0  0  # atno 17395 bound_to 11000

$$$$
