AV-unprocessed.smi:209|AV-procd|sdf|1609|dock10
  -GOLD-   2262019533D 1   1.00000     0.00000
 Structure written by MMmdl.
 48 52  0  0  0  0  0  0  0  0  1 V2000
  151.1533  145.0052  160.2504 O   0  0  0  0  0  0  0  0  0  0  0  0
  151.0299  144.1985  159.3314 C   0  0  0  0  0  0  0  0  0  0  0  0
  150.0688  144.1862  158.3999 N   0  0  0  0  0  0  0  0  0  0  0  0
  150.1676  143.0338  157.5096 C   0  0  0  0  0  0  0  0  0  0  0  0
  151.0663  142.0881  158.3210 C   0  0  2  0  0  0  0  0  0  0  0  0
  151.9851  143.0514  159.0569 C   0  0  2  0  0  0  0  0  0  0  0  0
  152.6824  142.3120  160.2002 C   0  0  0  0  0  0  0  0  0  0  0  0
  153.4947  141.1652  159.5514 C   0  0  0  0  0  0  0  0  0  0  0  0
  152.6451  140.2909  158.5882 C   0  0  0  0  0  0  0  0  0  0  0  0
  151.8748  141.0929  157.6259 N   0  0  0  0  0  0  0  0  0  0  0  0
  151.1824  140.3445  156.7398 C   0  0  0  0  0  0  0  0  0  0  0  0
  151.1017  140.7241  155.4372 N   0  0  0  0  0  0  0  0  0  0  0  0
  150.4239  139.9708  154.5660 C   0  0  0  0  0  0  0  0  0  0  0  0
  149.7745  138.8244  154.7818 N   0  0  0  0  0  0  0  0  0  0  0  0
  149.8634  138.4392  156.0877 C   0  0  0  0  0  0  0  0  0  0  0  0
  150.5375  139.1413  157.1248 C   0  0  0  0  0  0  0  0  0  0  0  0
  150.4065  138.4616  158.3279 N   0  0  0  0  0  0  0  0  0  0  0  0
  149.6872  137.4168  158.0209 C   0  0  0  0  0  0  0  0  0  0  0  0
  149.3350  137.3110  156.6927 N   0  0  0  0  0  0  0  0  0  0  0  0
  148.5425  136.2544  156.0797 C   0  0  0  0  0  0  0  0  0  0  0  0
  149.2284  134.8720  156.0538 C   0  0  0  0  0  0  0  0  0  0  0  0
  149.2811  134.3231  157.4937 C   0  0  0  0  0  0  0  0  0  0  0  0
  150.0526  133.1432  157.6011 O   0  0  0  0  0  0  0  0  0  0  0  0
  148.6862  133.9285  154.9691 C   0  0  0  0  0  0  0  0  0  0  0  0
  149.9071  133.9984  154.2004 O   0  0  0  0  0  0  0  0  0  0  0  0
  150.5307  134.7777  155.2445 C   0  0  0  0  0  0  0  0  0  0  0  0
  150.4386  141.5686  159.0492 H   0  0  0  0  0  0  0  0  0  0  0  0
  152.7411  143.4441  158.3734 H   0  0  0  0  0  0  0  0  0  0  0  0
  149.3092  144.8503  158.3557 H   0  0  0  0  0  0  0  0  0  0  0  0
  149.1918  142.5978  157.2932 H   0  0  0  0  0  0  0  0  0  0  0  0
  150.6370  143.3367  156.5723 H   0  0  0  0  0  0  0  0  0  0  0  0
  153.3405  142.9820  160.7541 H   0  0  0  0  0  0  0  0  0  0  0  0
  151.9533  141.9146  160.9075 H   0  0  0  0  0  0  0  0  0  0  0  0
  154.3256  141.5953  158.9907 H   0  0  0  0  0  0  0  0  0  0  0  0
  153.9420  140.5400  160.3242 H   0  0  0  0  0  0  0  0  0  0  0  0
  153.2955  139.6014  158.0482 H   0  0  0  0  0  0  0  0  0  0  0  0
  151.9607  139.6786  159.1775 H   0  0  0  0  0  0  0  0  0  0  0  0
  150.3997  140.3378  153.5505 H   0  0  0  0  0  0  0  0  0  0  0  0
  149.3987  136.6842  158.7605 H   0  0  0  0  0  0  0  0  0  0  0  0
  147.5893  136.1992  156.6067 H   0  0  0  0  0  0  0  0  0  0  0  0
  148.2951  136.5732  155.0663 H   0  0  0  0  0  0  0  0  0  0  0  0
  149.7226  135.0508  158.1733 H   0  0  0  0  0  0  0  0  0  0  0  0
  148.2793  134.1055  157.8652 H   0  0  0  0  0  0  0  0  0  0  0  0
  149.8026  132.5549  156.9048 H   0  0  0  0  0  0  0  0  0  0  0  0
  148.4754  132.9134  155.3066 H   0  0  0  0  0  0  0  0  0  0  0  0
  147.8331  134.3290  154.4201 H   0  0  0  0  0  0  0  0  0  0  0  0
  150.9036  135.7306  154.8731 H   0  0  0  0  0  0  0  0  0  0  0  0
  151.3290  134.2250  155.7412 H   0  0  0  0  0  0  0  0  0  0  0  0
  1  2  2  0  0  0  0
  2  6  1  0  0  0  0
  2  3  1  0  0  0  0
  3  4  1  0  0  0  0
  3 29  1  0  0  0  0
  4  5  1  0  0  0  0
  4 30  1  0  0  0  0
  4 31  1  0  0  0  0
  5 27  1  0  0  0  0
  5 10  1  0  0  0  0
  5  6  1  0  0  0  0
  6 28  1  0  0  0  0
  6  7  1  0  0  0  0
  7  8  1  0  0  0  0
  7 32  1  0  0  0  0
  7 33  1  0  0  0  0
  8  9  1  0  0  0  0
  8 34  1  0  0  0  0
  8 35  1  0  0  0  0
  9 10  1  0  0  0  0
  9 36  1  0  0  0  0
  9 37  1  0  0  0  0
 10 11  1  0  0  0  0
 11 16  1  0  0  0  0
 11 12  2  0  0  0  0
 12 13  1  0  0  0  0
 13 14  2  0  0  0  0
 13 38  1  0  0  0  0
 14 15  1  0  0  0  0
 15 19  1  0  0  0  0
 15 16  2  0  0  0  0
 16 17  1  0  0  0  0
 17 18  2  0  0  0  0
 18 19  1  0  0  0  0
 18 39  1  0  0  0  0
 19 20  1  0  0  0  0
 20 21  1  0  0  0  0
 20 40  1  0  0  0  0
 20 41  1  0  0  0  0
 21 26  1  0  0  0  0
 21 22  1  0  0  0  0
 21 24  1  0  0  0  0
 22 23  1  0  0  0  0
 22 42  1  0  0  0  0
 22 43  1  0  0  0  0
 23 44  1  0  0  0  0
 24 25  1  0  0  0  0
 24 45  1  0  0  0  0
 24 46  1  0  0  0  0
 25 26  1  0  0  0  0
 26 47  1  0  0  0  0
 26 48  1  0  0  0  0
M  END
> <s_m_source_file>
AV-unprocessed.smi

> <i_m_source_file_index>
209

> <i_lp_mmshare_version>
43012

> <i_f3d_flags>
0

> <s_epik_input>
W0NIMl0xW05IXUMoPU8pW0NAQEhdKFtDQEBIXTEyKVtDSDJdW0NIMl1bQ0gyXU4yYyhuW2NIXW4zKWMoYzM0KW5bY0hdbjRbQ0gyXUM1KFtDSDJdW09IXSlbQ0gyXU9bQ0gyXTU=

> <s_epik_cmdline>
J2VwaWtfcHl0aG9uJywgJy1waCcsICc3LjAnLCAnLXRuJywgJzgnLCAnLW1hJywgJzIwMCcsICctbWV0YWxfYmluZGluZycsICctaW1hZScsICc8aW5maWxlLm1hZT4nLCAnLW9tYWUnLCAnPG91dGZpbGUubWFlPic=

> <r_lp_tautomer_probability>
1

> <r_epik_Ionization_Penalty>
0.00113306

> <r_epik_Ionization_Penalty_Charging>
0

> <r_epik_Ionization_Penalty_Neutral>
0.00113306

> <r_epik_State_Penalty>
0.000624042

> <r_epik_Charging_Adjusted_Penalty>
0.000624042

> <i_epik_Tot_Q>
0

> <i_epik_Tot_abs_Q>
0

> <r_epik_Metal_State_Penalty>
-0

> <b_epik_Metal_Only>
0

> <s_lp_Force_Field>
OPLS_2005

> <r_lp_Energy>
56.7924

> <b_lp_Chiralities_Consistent>
1

> <s_lp_Variant>
AV-unprocessed.smi:209-3

> <Gold.Version>
5.8.1

> <Gold.Id.Protein>
6NUR|6NUR_protein|mol2

> <Gold.PLP.Fitness>
38.2132

> <Gold.PLP.PLP>
-30.8355

> <Gold.PLP.part.hbond>
-4.0000

> <Gold.PLP.part.metal>
0.0000

> <Gold.PLP.part.buried>
-0.3821

> <Gold.PLP.part.nonpolar>
-27.3678

> <Gold.PLP.part.repulsive>
0.5889

> <Gold.PLP.ligand.clash>
0.0000

> <Gold.PLP.ligand.torsion>
0.9795

> <Gold.PLP.Chemscore.Hbond>
1.9913

> <Gold.PLP.Chemscore.CHOScore>
1.0000

> <Gold.PLP.Chemscore.Metal>
0.0000

> <Gold.Chemscore.Hbonds>
donor molecule, donor type, donor heavy atom, donor atom, acceptor molecule, acceptor atom, score
      L1  H     3    29       P1  8029  0.86
      P1  H  6896  6907       L1    23  1.00
      L1  C    13    38       P1  7957  1.00

> <Gold.PLP.Chemscore.Internal.Correction>
0.3630

> <Gold.Rescore>
     Score         DG    S(hbond)    S(metal)    S(lipo)     H(rot)  DE(clash)    DE(int)     intcor
      8.31     -11.70       1.48        0.00      69.02       2.66       1.32       2.06       ----

> <Gold.Chemscore.Fitness>
8.3117

> <Gold.Chemscore.DG>
-11.6984

> <Gold.Chemscore.ZeroCoef>
-5.4800

> <Gold.Chemscore.Hbond>
1.4842

> <Gold.Chemscore.Metal>
0.0000

> <Gold.Chemscore.Lipo>
69.0243

> <Gold.Chemscore.Internal_Hbond>
0.0000

> <Gold.Chemscore.DEClash>
1.3234

> <Gold.Chemscore.DEInternal>
2.0632

> <Gold.Chemscore.Rot>
2.6620

> <Gold.Chemscore.Internal.Correction>
   9.000000E+99

> <Gold.Chemscore.Hbonds>
donor molecule, donor type, donor heavy atom, donor atom, acceptor molecule, acceptor atom, score
      L1  H     3    29       P1  8029  0.40
      P1  H  6896  6907       L1    23  0.34

> <Gold.Chemscore.Hbond.Weighted>
-4.9573

> <Gold.Chemscore.Metal.Weighted>
-0.0000

> <Gold.Chemscore.Lipo.Weighted>
-8.0758

> <Gold.Chemscore.Internal_Hbond.Weighted>
0.0000

> <Gold.Chemscore.DEClash.Weighted>
1.3234

> <Gold.Chemscore.DEInternal.Weighted>
2.0632

> <Gold.Chemscore.Rot.Weighted>
6.8148

> <Gold.Chemscore.Internal.Correction.Weighted>
   9.000000E+99

> <Gold.Protein.RotatedTorsions>
[ 6907 6896 6895 6894 ] final -145.06 input  -60.11 | X-H torsion
[ 7974 7965 7964 7962 ] final   35.40 input  175.53 | X-H torsion
[ 8008 7997 7996 7995 ] final  -34.71 input   59.86 | X-H torsion
[ 10167 10162 10161 10158 ] final   95.38 input  -65.29 | X-H torsion
[ 10718 10713 10712 10709 ] final  169.92 input   66.30 | X-H torsion
[ 10763 10752 10751 10750 ] final -113.74 input  -60.55 | X-H torsion
[ 11005 11000 10999 10996 ] final -135.68 input  -57.11 | X-H torsion

> <Gold.Protein.ActiveResidues>
 VAL166  LYS551  ARG553  GLY616  TRP617  ASP618  TYR619  PRO620  LYS621  CYS622 
 ASP623  PHE694  ASN695  SER759  ASP760  ASP761  ALA762  ILE779  LEU786  VAL792 
 PHE793  MET794  SER795  GLU796  ALA797  LYS798  CYS799  TRP800  GLU811  SER814 

> <Gold.Protein.RotatedAtoms>
  151.1226  133.5093  159.2601 H   0  0  0  0  0  0  0  0  0  0  0  0  # atno 6907 bound_to 6896
  151.1845  135.0375  159.8816 H   0  0  0  0  0  0  0  0  0  0  0  0  # atno 6908 bound_to 6896
  152.5456  134.1074  159.8397 H   0  0  0  0  0  0  0  0  0  0  0  0  # atno 6909 bound_to 6896
  146.1286  139.6148  142.9242 H   0  0  0  0  0  0  0  0  0  0  0  0  # atno 7974 bound_to 7965
  154.4114  140.1676  156.2094 H   0  0  0  0  0  0  0  0  0  0  0  0  # atno 8008 bound_to 7997
  155.9457  140.3404  155.6342 H   0  0  0  0  0  0  0  0  0  0  0  0  # atno 8009 bound_to 7997
  155.6933  140.0736  157.2430 H   0  0  0  0  0  0  0  0  0  0  0  0  # atno 8010 bound_to 7997
  139.7994  144.6820  150.9785 H   0  0  0  0  0  0  0  0  0  0  0  0  # atno 10167 bound_to 10162
  157.0157  131.0217  151.2790 H   0  0  0  0  0  0  0  0  0  0  0  0  # atno 10718 bound_to 10713
  154.8409  135.4443  154.1396 H   0  0  0  0  0  0  0  0  0  0  0  0  # atno 10763 bound_to 10752
  153.2585  135.6934  153.7610 H   0  0  0  0  0  0  0  0  0  0  0  0  # atno 10764 bound_to 10752
  153.6895  135.3389  155.3174 H   0  0  0  0  0  0  0  0  0  0  0  0  # atno 10765 bound_to 10752
  140.8875  134.1853  157.4550 H   0  0  0  0  0  0  0  0  0  0  0  0  # atno 11005 bound_to 11000
  145.5311  141.0427  143.2382 LP  0  0  0  0  0  0  0  0  0  0  0  0  # atno 17320 bound_to 7965
  144.7667  139.6829  143.7212 LP  0  0  0  0  0  0  0  0  0  0  0  0  # atno 17321 bound_to 7965
  140.7820  143.4297  151.0713 LP  0  0  0  0  0  0  0  0  0  0  0  0  # atno 17342 bound_to 10162
  139.7970  143.8138  152.3158 LP  0  0  0  0  0  0  0  0  0  0  0  0  # atno 17343 bound_to 10162
  157.5287  130.8044  149.7892 LP  0  0  0  0  0  0  0  0  0  0  0  0  # atno 17370 bound_to 10713
  156.0120  130.3829  150.2233 LP  0  0  0  0  0  0  0  0  0  0  0  0  # atno 17371 bound_to 10713
  139.8726  134.9844  156.5239 LP  0  0  0  0  0  0  0  0  0  0  0  0  # atno 17394 bound_to 11000
  140.8387  133.8222  155.9053 LP  0  0  0  0  0  0  0  0  0  0  0  0  # atno 17395 bound_to 11000

$$$$
