AV-unprocessed.smi:1205|AV-procd|sdf|5039|dock1
  -GOLD-   22720 4 63D 1   1.00000     0.00000
 Structure written by MMmdl.
 49 50  0  0  0  0  0  0  0  0  2 V2000
  150.6647  142.1540  155.9463 C   0  0  0  0  0  0  0  0  0  0  0  0
  150.4369  140.7806  155.3870 C   0  0  0  0  0  0  0  0  0  0  0  0
  149.1944  140.1528  155.0810 C   0  0  0  0  0  0  0  0  0  0  0  0
  149.5836  138.9291  154.6087 C   0  0  0  0  0  0  0  0  0  0  0  0
  148.8141  137.8989  154.1669 N   0  0  0  0  0  0  0  0  0  0  0  0
  147.7226  137.3607  154.7386 C   0  0  0  0  0  0  0  0  0  0  0  0
  147.2164  137.7254  155.8001 O   0  0  0  0  0  0  0  0  0  0  0  0
  147.2366  136.3505  154.0030 N   0  0  0  0  0  0  0  0  0  0  0  0
  146.0615  135.5567  154.3496 C   0  0  0  0  0  0  0  0  0  0  0  0
  146.3643  134.0412  154.4223 C   0  0  2  0  0  0  0  0  0  0  0  0
  147.8698  133.7389  154.5874 C   0  0  0  0  0  0  0  0  0  0  0  0
  145.7482  133.3242  153.2674 N   0  3  1  0  0  0  0  0  0  0  0  0
  145.9162  133.9836  151.9433 C   0  0  0  0  0  0  0  0  0  0  0  0
  145.0468  133.2952  150.8796 C   0  0  0  0  0  0  0  0  0  0  0  0
  145.3732  131.7983  150.7908 C   0  0  0  0  0  0  0  0  0  0  0  0
  145.2354  131.1362  152.1730 C   0  0  1  0  0  0  0  0  0  0  0  0
  145.5838  129.6422  152.1177 C   0  0  0  0  0  0  0  0  0  0  0  0
  146.1001  131.8798  153.2110 C   0  0  0  0  0  0  0  0  0  0  0  0
  150.9585  138.8565  154.6408 N   0  0  0  0  0  0  0  0  0  0  0  0
  151.8338  137.7688  154.2491 C   0  0  0  0  0  0  0  0  0  0  0  0
  151.4818  140.0041  155.1238 N   0  0  0  0  0  0  0  0  0  0  0  0
  149.7204  142.6715  156.1162 H   0  0  0  0  0  0  0  0  0  0  0  0
  151.2577  142.7628  155.2633 H   0  0  0  0  0  0  0  0  0  0  0  0
  151.1932  142.1077  156.8987 H   0  0  0  0  0  0  0  0  0  0  0  0
  148.1984  140.5522  155.1978 H   0  0  0  0  0  0  0  0  0  0  0  0
  149.1056  137.4915  153.2907 H   0  0  0  0  0  0  0  0  0  0  0  0
  147.7088  136.1167  153.1415 H   0  0  0  0  0  0  0  0  0  0  0  0
  145.6524  135.9085  155.2985 H   0  0  0  0  0  0  0  0  0  0  0  0
  145.3032  135.7627  153.5949 H   0  0  0  0  0  0  0  0  0  0  0  0
  145.8650  133.6719  155.3191 H   0  0  0  0  0  0  0  0  0  0  0  0
  148.2543  134.1558  155.5185 H   0  0  0  0  0  0  0  0  0  0  0  0
  148.4609  134.1643  153.7762 H   0  0  0  0  0  0  0  0  0  0  0  0
  148.0644  132.6670  154.6185 H   0  0  0  0  0  0  0  0  0  0  0  0
  145.6388  135.0355  152.0010 H   0  0  0  0  0  0  0  0  0  0  0  0
  146.9623  133.9464  151.6364 H   0  0  0  0  0  0  0  0  0  0  0  0
  143.9921  133.4285  151.1242 H   0  0  0  0  0  0  0  0  0  0  0  0
  145.2015  133.7671  149.9088 H   0  0  0  0  0  0  0  0  0  0  0  0
  144.7104  131.3162  150.0713 H   0  0  0  0  0  0  0  0  0  0  0  0
  146.3891  131.6670  150.4149 H   0  0  0  0  0  0  0  0  0  0  0  0
  144.1926  131.2177  152.4835 H   0  0  0  0  0  0  0  0  0  0  0  0
  146.6171  129.4865  151.8063 H   0  0  0  0  0  0  0  0  0  0  0  0
  144.9409  129.1150  151.4124 H   0  0  0  0  0  0  0  0  0  0  0  0
  145.4559  129.1728  153.0934 H   0  0  0  0  0  0  0  0  0  0  0  0
  147.1581  131.7664  152.9707 H   0  0  0  0  0  0  0  0  0  0  0  0
  145.9475  131.4257  154.1910 H   0  0  0  0  0  0  0  0  0  0  0  0
  151.5604  137.4164  153.2541 H   0  0  0  0  0  0  0  0  0  0  0  0
  151.7353  136.9472  154.9588 H   0  0  0  0  0  0  0  0  0  0  0  0
  152.8729  138.1001  154.2308 H   0  0  0  0  0  0  0  0  0  0  0  0
  144.7559  133.3390  153.4563 H   0  0  0  0  0  0  0  0  0  0  0  0
  1  2  1  0  0  0  0
  1 22  1  0  0  0  0
  1 23  1  0  0  0  0
  1 24  1  0  0  0  0
  2 21  2  0  0  0  0
  2  3  1  0  0  0  0
  3  4  2  0  0  0  0
  3 25  1  0  0  0  0
  4  5  1  0  0  0  0
  4 19  1  0  0  0  0
  5  6  1  0  0  0  0
  5 26  1  0  0  0  0
  6  7  2  0  0  0  0
  6  8  1  0  0  0  0
  8  9  1  0  0  0  0
  8 27  1  0  0  0  0
  9 10  1  0  0  0  0
  9 28  1  0  0  0  0
  9 29  1  0  0  0  0
 10 11  1  0  0  0  0
 10 12  1  0  0  0  0
 10 30  1  0  0  0  0
 11 31  1  0  0  0  0
 11 32  1  0  0  0  0
 11 33  1  0  0  0  0
 12 18  1  0  0  0  0
 12 13  1  0  0  0  0
 12 49  1  0  0  0  0
 13 14  1  0  0  0  0
 13 34  1  0  0  0  0
 13 35  1  0  0  0  0
 14 15  1  0  0  0  0
 14 36  1  0  0  0  0
 14 37  1  0  0  0  0
 15 16  1  0  0  0  0
 15 38  1  0  0  0  0
 15 39  1  0  0  0  0
 16 17  1  0  0  0  0
 16 18  1  0  0  0  0
 16 40  1  0  0  0  0
 17 41  1  0  0  0  0
 17 42  1  0  0  0  0
 17 43  1  0  0  0  0
 18 44  1  0  0  0  0
 18 45  1  0  0  0  0
 19 20  1  0  0  0  0
 19 21  1  0  0  0  0
 20 46  1  0  0  0  0
 20 47  1  0  0  0  0
 20 48  1  0  0  0  0
M  CHG  1  12   1
M  END
> <s_m_source_file>
AV-unprocessed.smi

> <i_m_source_file_index>
1205

> <i_lp_mmshare_version>
43012

> <i_f3d_flags>
0

> <s_epik_input>
W0NIM11jMVtjSF1jKG4objEpW0NIM10pW05IXUMoPU8pW05IXVtDSDJdW0NASF0oW0NIM10pTjJbQ0gyXVtDSDJdW0NIMl1bQ0BASF0oW0NIM10pW0NIMl0y

> <s_epik_cmdline>
J2VwaWtfcHl0aG9uJywgJy1waCcsICc3LjAnLCAnLXRuJywgJzgnLCAnLW1hJywgJzIwMCcsICctbWV0YWxfYmluZGluZycsICctaW1hZScsICc8aW5maWxlLm1hZT4nLCAnLW9tYWUnLCAnPG91dGZpbGUubWFlPic=

> <r_lp_tautomer_probability>
1

> <r_epik_Ionization_Penalty>
0.0020309

> <r_epik_Ionization_Penalty_Charging>
0.00195276

> <r_epik_Ionization_Penalty_Neutral>
7.81448e-05

> <r_epik_State_Penalty>
0.00133177

> <r_epik_Charging_Adjusted_Penalty>
0.00328452

> <i_epik_Tot_Q>
1

> <i_epik_Tot_abs_Q>
1

> <r_epik_Metal_State_Penalty>
-0

> <b_epik_Metal_Only>
0

> <s_lp_Force_Field>
OPLS_2005

> <r_lp_Energy>
21.646

> <b_lp_Chiralities_Consistent>
1

> <s_lp_Variant>
AV-unprocessed.smi:1205-1

> <Gold.Version>
5.8.1

> <Gold.Id.Protein>
6NUR|6NUR_protein|mol2

> <Gold.PLP.Fitness>
39.9693

> <Gold.PLP.PLP>
-34.7779

> <Gold.PLP.part.hbond>
-3.0000

> <Gold.PLP.part.metal>
0.0000

> <Gold.PLP.part.buried>
-5.2572

> <Gold.PLP.part.nonpolar>
-27.2464

> <Gold.PLP.part.repulsive>
0.0539

> <Gold.PLP.ligand.clash>
0.0000

> <Gold.PLP.ligand.torsion>
1.2734

> <Gold.PLP.Chemscore.Hbond>
2.5250

> <Gold.PLP.Chemscore.CHOScore>
0.0000

> <Gold.PLP.Chemscore.Metal>
0.0000

> <Gold.Chemscore.Hbonds>
donor molecule, donor type, donor heavy atom, donor atom, acceptor molecule, acceptor atom, score
      L1  H     5    26       P1  7948  1.00
      L1  H     8    27       P1  7948  1.00
      P1  H  7989  7998       L1    21  0.34

> <Gold.PLP.Chemscore.Internal.Correction>
0.1633

> <Gold.Rescore>
     Score         DG    S(hbond)    S(metal)    S(lipo)     H(rot)  DE(clash)    DE(int)     intcor
     16.67     -17.93       1.97        0.00      82.27       1.47       0.00       1.27       ----

> <Gold.Chemscore.Fitness>
16.6660

> <Gold.Chemscore.DG>
-17.9349

> <Gold.Chemscore.ZeroCoef>
-5.4800

> <Gold.Chemscore.Hbond>
1.9705

> <Gold.Chemscore.Metal>
0.0000

> <Gold.Chemscore.Lipo>
82.2730

> <Gold.Chemscore.Internal_Hbond>
0.0000

> <Gold.Chemscore.DEClash>
0.0000

> <Gold.Chemscore.DEInternal>
1.2689

> <Gold.Chemscore.Rot>
1.4658

> <Gold.Chemscore.Internal.Correction>
   9.000000E+99

> <Gold.Chemscore.Hbonds>
donor molecule, donor type, donor heavy atom, donor atom, acceptor molecule, acceptor atom, score
      L1  H     5    26       P1  7948  0.98
      L1  H     8    27       P1  7948  0.99

> <Gold.Chemscore.Hbond.Weighted>
-6.5816

> <Gold.Chemscore.Metal.Weighted>
-0.0000

> <Gold.Chemscore.Lipo.Weighted>
-9.6259

> <Gold.Chemscore.Internal_Hbond.Weighted>
0.0000

> <Gold.Chemscore.DEClash.Weighted>
0.0000

> <Gold.Chemscore.DEInternal.Weighted>
1.2689

> <Gold.Chemscore.Rot.Weighted>
3.7526

> <Gold.Chemscore.Internal.Correction.Weighted>
   9.000000E+99

> <Gold.Protein.RotatedTorsions>
[ 6907 6896 6895 6894 ] final -108.75 input  -60.11 | X-H torsion
[ 7974 7965 7964 7962 ] final   75.54 input  175.53 | X-H torsion
[ 8008 7997 7996 7995 ] final  162.67 input   59.86 | X-H torsion
[ 10167 10162 10161 10158 ] final  -78.91 input  -65.29 | X-H torsion
[ 10718 10713 10712 10709 ] final  -84.86 input   66.30 | X-H torsion
[ 10763 10752 10751 10750 ] final   29.78 input  -60.55 | X-H torsion
[ 11005 11000 10999 10996 ] final -136.68 input  -57.11 | X-H torsion

> <Gold.Protein.ActiveResidues>
 VAL166  LYS551  ARG553  GLY616  TRP617  ASP618  TYR619  PRO620  LYS621  CYS622 
 ASP623  PHE694  ASN695  SER759  ASP760  ASP761  ALA762  ILE779  LEU786  VAL792 
 PHE793  MET794  SER795  GLU796  ALA797  LYS798  CYS799  TRP800  GLU811  SER814 

> <Gold.Protein.RotatedAtoms>
  150.7520  133.9631  159.3521 H   0  0  0  0  0  0  0  0  0  0  0  0  # atno 6907 bound_to 6896
  151.7558  135.0820  160.0347 H   0  0  0  0  0  0  0  0  0  0  0  0  # atno 6908 bound_to 6896
  152.3436  133.6058  159.5930 H   0  0  0  0  0  0  0  0  0  0  0  0  # atno 6909 bound_to 6896
  145.7143  139.2625  143.1633 H   0  0  0  0  0  0  0  0  0  0  0  0  # atno 7974 bound_to 7965
  156.2014  140.1744  156.7891 H   0  0  0  0  0  0  0  0  0  0  0  0  # atno 8008 bound_to 7997
  154.5597  140.0702  156.8830 H   0  0  0  0  0  0  0  0  0  0  0  0  # atno 8009 bound_to 7997
  155.2871  140.3353  155.4257 H   0  0  0  0  0  0  0  0  0  0  0  0  # atno 8010 bound_to 7997
  140.4640  143.2445  151.8306 H   0  0  0  0  0  0  0  0  0  0  0  0  # atno 10167 bound_to 10162
  156.0002  130.4712  150.4475 H   0  0  0  0  0  0  0  0  0  0  0  0  # atno 10718 bound_to 10713
  153.0410  135.6480  154.0943 H   0  0  0  0  0  0  0  0  0  0  0  0  # atno 10763 bound_to 10752
  154.0650  135.2885  155.3320 H   0  0  0  0  0  0  0  0  0  0  0  0  # atno 10764 bound_to 10752
  154.6632  135.5383  153.8109 H   0  0  0  0  0  0  0  0  0  0  0  0  # atno 10765 bound_to 10752
  140.8782  134.1965  157.4608 H   0  0  0  0  0  0  0  0  0  0  0  0  # atno 11005 bound_to 11000
  146.0684  140.7896  142.9700 LP  0  0  0  0  0  0  0  0  0  0  0  0  # atno 17320 bound_to 7965
  144.6933  140.3304  143.7217 LP  0  0  0  0  0  0  0  0  0  0  0  0  # atno 17321 bound_to 7965
  139.4809  144.4973  151.9106 LP  0  0  0  0  0  0  0  0  0  0  0  0  # atno 17342 bound_to 10162
  140.4059  144.2433  150.5891 LP  0  0  0  0  0  0  0  0  0  0  0  0  # atno 17343 bound_to 10162
  157.2511  131.0546  151.2379 LP  0  0  0  0  0  0  0  0  0  0  0  0  # atno 17370 bound_to 10713
  157.3527  130.7090  149.6451 LP  0  0  0  0  0  0  0  0  0  0  0  0  # atno 17371 bound_to 10713
  139.8717  134.9805  156.5079 LP  0  0  0  0  0  0  0  0  0  0  0  0  # atno 17394 bound_to 11000
  140.8493  133.8145  155.9152 LP  0  0  0  0  0  0  0  0  0  0  0  0  # atno 17395 bound_to 11000

$$$$
