AV-unprocessed.smi:2710|AV-procd|sdf|10471|dock9
  -GOLD-   2272014513D 1   1.00000     0.00000
 Structure written by MMmdl.
 53 54  0  0  0  0  0  0  0  0  2 V2000
  148.0197  133.0075  152.6455 C   0  0  0  0  0  0  0  0  0  0  0  0
  146.5499  132.5574  152.6060 C   0  0  0  0  0  0  0  0  0  0  0  0
  145.5789  133.6892  152.6577 N   0  3  1  0  0  0  0  0  0  0  0  0
  146.0071  134.7428  153.6227 C   0  0  0  0  0  0  0  0  0  0  0  0
  144.9557  135.8510  153.7760 C   0  0  0  0  0  0  0  0  0  0  0  0
  144.6412  136.4953  152.4232 C   0  0  2  0  0  0  0  0  0  0  0  0
  143.6022  137.5086  152.5852 N   0  0  0  0  0  0  0  0  0  0  0  0
  142.3624  137.2778  153.0404 C   0  0  0  0  0  0  0  0  0  0  0  0
  141.9700  136.1688  153.4001 O   0  0  0  0  0  0  0  0  0  0  0  0
  141.6354  138.4077  153.0598 N   0  0  0  0  0  0  0  0  0  0  0  0
  140.2821  138.5886  153.4547 C   0  0  0  0  0  0  0  0  0  0  0  0
  139.7255  139.7885  153.9593 C   0  0  0  0  0  0  0  0  0  0  0  0
  138.4292  139.8676  154.3276 N   0  0  0  0  0  0  0  0  0  0  0  0
  137.6665  138.7774  154.1740 C   0  0  0  0  0  0  0  0  0  0  0  0
  136.2347  138.8371  154.7346 C   0  0  0  0  0  0  0  0  0  0  0  0
  136.2416  139.1578  156.2480 C   0  0  0  0  0  0  0  0  0  0  0  0
  135.5237  137.4707  154.5904 C   0  0  0  0  0  0  0  0  0  0  0  0
  135.4345  139.9166  153.9831 C   0  0  0  0  0  0  0  0  0  0  0  0
  138.1077  137.5846  153.7536 N   0  0  0  0  0  0  0  0  0  0  0  0
  139.4016  137.4908  153.3822 C   0  0  0  0  0  0  0  0  0  0  0  0
  144.2000  135.3957  151.4453 C   0  0  0  0  0  0  0  0  0  0  0  0
  145.2556  134.2755  151.3154 C   0  0  2  0  0  0  0  0  0  0  0  0
  144.7443  133.2333  150.2989 C   0  0  0  0  0  0  0  0  0  0  0  0
  148.6766  132.1468  152.7737 H   0  0  0  0  0  0  0  0  0  0  0  0
  148.2035  133.6866  153.4785 H   0  0  0  0  0  0  0  0  0  0  0  0
  148.3288  133.5025  151.7255 H   0  0  0  0  0  0  0  0  0  0  0  0
  146.3623  131.9451  151.7227 H   0  0  0  0  0  0  0  0  0  0  0  0
  146.4197  131.9068  153.4675 H   0  0  0  0  0  0  0  0  0  0  0  0
  146.1786  134.3161  154.6093 H   0  0  0  0  0  0  0  0  0  0  0  0
  146.9561  135.1709  153.2956 H   0  0  0  0  0  0  0  0  0  0  0  0
  144.0474  135.4338  154.2139 H   0  0  0  0  0  0  0  0  0  0  0  0
  145.3181  136.6063  154.4747 H   0  0  0  0  0  0  0  0  0  0  0  0
  145.5472  136.9734  152.0451 H   0  0  0  0  0  0  0  0  0  0  0  0
  143.8396  138.4525  152.3169 H   0  0  0  0  0  0  0  0  0  0  0  0
  142.1184  139.2502  152.7836 H   0  0  0  0  0  0  0  0  0  0  0  0
  140.2999  140.6903  154.0993 H   0  0  0  0  0  0  0  0  0  0  0  0
  135.2315  139.1533  156.6593 H   0  0  0  0  0  0  0  0  0  0  0  0
  136.6602  140.1433  156.4554 H   0  0  0  0  0  0  0  0  0  0  0  0
  136.8260  138.4257  156.8065 H   0  0  0  0  0  0  0  0  0  0  0  0
  136.0796  136.6783  155.0930 H   0  0  0  0  0  0  0  0  0  0  0  0
  135.4041  137.1799  153.5461 H   0  0  0  0  0  0  0  0  0  0  0  0
  134.5239  137.4955  155.0252 H   0  0  0  0  0  0  0  0  0  0  0  0
  134.4120  139.9864  154.3557 H   0  0  0  0  0  0  0  0  0  0  0  0
  135.3818  139.6988  152.9157 H   0  0  0  0  0  0  0  0  0  0  0  0
  135.8935  140.8995  154.0953 H   0  0  0  0  0  0  0  0  0  0  0  0
  139.7362  136.5263  153.0293 H   0  0  0  0  0  0  0  0  0  0  0  0
  143.2521  134.9681  151.7763 H   0  0  0  0  0  0  0  0  0  0  0  0
  144.0111  135.8345  150.4645 H   0  0  0  0  0  0  0  0  0  0  0  0
  146.1698  134.7156  150.9133 H   0  0  0  0  0  0  0  0  0  0  0  0
  144.3715  133.7205  149.3973 H   0  0  0  0  0  0  0  0  0  0  0  0
  143.9282  132.6393  150.7115 H   0  0  0  0  0  0  0  0  0  0  0  0
  145.5301  132.5553  149.9677 H   0  0  0  0  0  0  0  0  0  0  0  0
  144.7148  133.3044  153.0122 H   0  0  0  0  0  0  0  0  0  0  0  0
  1  2  1  0  0  0  0
  1 24  1  0  0  0  0
  1 25  1  0  0  0  0
  1 26  1  0  0  0  0
  2  3  1  0  0  0  0
  2 27  1  0  0  0  0
  2 28  1  0  0  0  0
  3 22  1  0  0  0  0
  3  4  1  0  0  0  0
  3 53  1  0  0  0  0
  4  5  1  0  0  0  0
  4 29  1  0  0  0  0
  4 30  1  0  0  0  0
  5  6  1  0  0  0  0
  5 31  1  0  0  0  0
  5 32  1  0  0  0  0
  6  7  1  0  0  0  0
  6 21  1  0  0  0  0
  6 33  1  0  0  0  0
  7  8  1  0  0  0  0
  7 34  1  0  0  0  0
  8  9  2  0  0  0  0
  8 10  1  0  0  0  0
 10 11  1  0  0  0  0
 10 35  1  0  0  0  0
 11 20  1  0  0  0  0
 11 12  2  0  0  0  0
 12 13  1  0  0  0  0
 12 36  1  0  0  0  0
 13 14  2  0  0  0  0
 14 15  1  0  0  0  0
 14 19  1  0  0  0  0
 15 16  1  0  0  0  0
 15 17  1  0  0  0  0
 15 18  1  0  0  0  0
 16 37  1  0  0  0  0
 16 38  1  0  0  0  0
 16 39  1  0  0  0  0
 17 40  1  0  0  0  0
 17 41  1  0  0  0  0
 17 42  1  0  0  0  0
 18 43  1  0  0  0  0
 18 44  1  0  0  0  0
 18 45  1  0  0  0  0
 19 20  2  0  0  0  0
 20 46  1  0  0  0  0
 21 22  1  0  0  0  0
 21 47  1  0  0  0  0
 21 48  1  0  0  0  0
 22 23  1  0  0  0  0
 22 49  1  0  0  0  0
 23 50  1  0  0  0  0
 23 51  1  0  0  0  0
 23 52  1  0  0  0  0
M  CHG  1   3   1
M  END
> <s_m_source_file>
AV-unprocessed.smi

> <i_m_source_file_index>
2710

> <i_lp_mmshare_version>
43012

> <i_f3d_flags>
0

> <s_epik_input>
W0NIM11bQ0gyXU4xW0NIMl1bQ0gyXVtDQEhdKFtDSDJdW0NASF0xW0NIM10pW05IXUMoPU8pW05IXWMyW2NIXW5jKEMoW0NIM10pKFtDSDNdKVtDSDNdKW5bY0hdMg==

> <s_epik_cmdline>
J2VwaWtfcHl0aG9uJywgJy1waCcsICc3LjAnLCAnLXRuJywgJzgnLCAnLW1hJywgJzIwMCcsICctbWV0YWxfYmluZGluZycsICctaW1hZScsICc8aW5maWxlLm1hZT4nLCAnLW9tYWUnLCAnPG91dGZpbGUubWFlPic=

> <r_lp_tautomer_probability>
1

> <r_epik_Ionization_Penalty>
0.00396003

> <r_epik_Ionization_Penalty_Charging>
0.0039379

> <r_epik_Ionization_Penalty_Neutral>
2.21316e-05

> <r_epik_State_Penalty>
0.00281651

> <r_epik_Charging_Adjusted_Penalty>
0.00675441

> <i_epik_Tot_Q>
1

> <i_epik_Tot_abs_Q>
1

> <r_epik_Metal_State_Penalty>
-0

> <b_epik_Metal_Only>
0

> <s_lp_Force_Field>
OPLS_2005

> <r_lp_Energy>
20.1014

> <b_lp_Chiralities_Consistent>
1

> <s_lp_Variant>
AV-unprocessed.smi:2710-8

> <Gold.Version>
5.8.1

> <Gold.Id.Protein>
6NUR|6NUR_protein|mol2

> <Gold.PLP.Fitness>
42.0016

> <Gold.PLP.PLP>
-33.9027

> <Gold.PLP.part.hbond>
-3.4400

> <Gold.PLP.part.metal>
0.0000

> <Gold.PLP.part.buried>
-4.4463

> <Gold.PLP.part.nonpolar>
-26.9145

> <Gold.PLP.part.repulsive>
0.3702

> <Gold.PLP.ligand.clash>
0.0000

> <Gold.PLP.ligand.torsion>
0.4625

> <Gold.PLP.Chemscore.Hbond>
2.0000

> <Gold.PLP.Chemscore.CHOScore>
0.9524

> <Gold.PLP.Chemscore.Metal>
0.0000

> <Gold.Chemscore.Hbonds>
donor molecule, donor type, donor heavy atom, donor atom, acceptor molecule, acceptor atom, score
      L1  H     7    34       P1 10175  1.00
      L1  H    10    35       P1 10175  1.00
      L1  C    20    46       P1 10187  0.65

> <Gold.PLP.Chemscore.Internal.Correction>
0.1667

> <Gold.Rescore>
     Score         DG    S(hbond)    S(metal)    S(lipo)     H(rot)  DE(clash)    DE(int)     intcor
     14.96     -17.85       1.90        0.00      80.16       1.31       0.03       2.86       ----

> <Gold.Chemscore.Fitness>
14.9609

> <Gold.Chemscore.DG>
-17.8488

> <Gold.Chemscore.ZeroCoef>
-5.4800

> <Gold.Chemscore.Hbond>
1.8977

> <Gold.Chemscore.Metal>
0.0000

> <Gold.Chemscore.Lipo>
80.1639

> <Gold.Chemscore.Internal_Hbond>
0.0000

> <Gold.Chemscore.DEClash>
0.0300

> <Gold.Chemscore.DEInternal>
2.8578

> <Gold.Chemscore.Rot>
1.3081

> <Gold.Chemscore.Internal.Correction>
   9.000000E+99

> <Gold.Chemscore.Hbonds>
donor molecule, donor type, donor heavy atom, donor atom, acceptor molecule, acceptor atom, score
      L1  H     7    34       P1 10175  0.94
      L1  H    10    35       P1 10175  0.87

> <Gold.Chemscore.Hbond.Weighted>
-6.3384

> <Gold.Chemscore.Metal.Weighted>
-0.0000

> <Gold.Chemscore.Lipo.Weighted>
-9.3792

> <Gold.Chemscore.Internal_Hbond.Weighted>
0.0000

> <Gold.Chemscore.DEClash.Weighted>
0.0300

> <Gold.Chemscore.DEInternal.Weighted>
2.8578

> <Gold.Chemscore.Rot.Weighted>
3.3488

> <Gold.Chemscore.Internal.Correction.Weighted>
   9.000000E+99

> <Gold.Protein.RotatedTorsions>
[ 6907 6896 6895 6894 ] final -161.77 input  -60.11 | X-H torsion
[ 7974 7965 7964 7962 ] final -160.33 input  175.53 | X-H torsion
[ 8008 7997 7996 7995 ] final  -63.14 input   59.86 | X-H torsion
[ 10167 10162 10161 10158 ] final  162.95 input  -65.29 | X-H torsion
[ 10718 10713 10712 10709 ] final  130.29 input   66.30 | X-H torsion
[ 10763 10752 10751 10750 ] final  -62.49 input  -60.55 | X-H torsion
[ 11005 11000 10999 10996 ] final  128.91 input  -57.11 | X-H torsion

> <Gold.Protein.ActiveResidues>
 VAL166  LYS551  ARG553  GLY616  TRP617  ASP618  TYR619  PRO620  LYS621  CYS622 
 ASP623  PHE694  ASN695  SER759  ASP760  ASP761  ALA762  ILE779  LEU786  VAL792 
 PHE793  MET794  SER795  GLU796  ALA797  LYS798  CYS799  TRP800  GLU811  SER814 

> <Gold.Protein.RotatedAtoms>
  151.3698  133.3859  159.2698 H   0  0  0  0  0  0  0  0  0  0  0  0  # atno 6907 bound_to 6896
  150.9660  134.9041  159.7769 H   0  0  0  0  0  0  0  0  0  0  0  0  # atno 6908 bound_to 6896
  152.5167  134.3659  159.9353 H   0  0  0  0  0  0  0  0  0  0  0  0  # atno 6909 bound_to 6896
  144.7431  140.3557  143.6106 H   0  0  0  0  0  0  0  0  0  0  0  0  # atno 7974 bound_to 7965
  154.4538  140.0981  156.6696 H   0  0  0  0  0  0  0  0  0  0  0  0  # atno 8008 bound_to 7997
  155.5202  140.3479  155.4387 H   0  0  0  0  0  0  0  0  0  0  0  0  # atno 8009 bound_to 7997
  156.0735  140.1355  156.9788 H   0  0  0  0  0  0  0  0  0  0  0  0  # atno 8010 bound_to 7997
  139.4867  144.4386  151.8980 H   0  0  0  0  0  0  0  0  0  0  0  0  # atno 10167 bound_to 10162
  157.5075  131.1096  150.9340 H   0  0  0  0  0  0  0  0  0  0  0  0  # atno 10718 bound_to 10713
  154.3007  135.6235  153.5423 H   0  0  0  0  0  0  0  0  0  0  0  0  # atno 10763 bound_to 10752
  152.9841  135.5678  154.5287 H   0  0  0  0  0  0  0  0  0  0  0  0  # atno 10764 bound_to 10752
  154.4917  135.2867  155.1468 H   0  0  0  0  0  0  0  0  0  0  0  0  # atno 10765 bound_to 10752
  139.9586  134.9607  156.9071 H   0  0  0  0  0  0  0  0  0  0  0  0  # atno 11005 bound_to 11000
  145.7230  139.1715  143.2474 LP  0  0  0  0  0  0  0  0  0  0  0  0  # atno 17320 bound_to 7965
  146.1263  140.7244  142.9433 LP  0  0  0  0  0  0  0  0  0  0  0  0  # atno 17321 bound_to 7965
  140.3837  144.2704  150.5906 LP  0  0  0  0  0  0  0  0  0  0  0  0  # atno 17342 bound_to 10162
  140.5210  143.2266  151.8389 LP  0  0  0  0  0  0  0  0  0  0  0  0  # atno 17343 bound_to 10162
  156.9990  130.5592  149.5310 LP  0  0  0  0  0  0  0  0  0  0  0  0  # atno 17370 bound_to 10713
  156.0268  130.5361  150.8428 LP  0  0  0  0  0  0  0  0  0  0  0  0  # atno 17371 bound_to 10713
  140.5551  134.0589  155.7381 LP  0  0  0  0  0  0  0  0  0  0  0  0  # atno 17394 bound_to 11000
  141.1261  133.9381  157.2632 LP  0  0  0  0  0  0  0  0  0  0  0  0  # atno 17395 bound_to 11000

$$$$
