AV-unprocessed.smi:2190|AV-procd|sdf|8889|dock8
  -GOLD-   2272012 93D 1   1.00000     0.00000
 Structure written by MMmdl.
 46 48  0  0  0  0  0  0  0  0  1 V2000
  153.1012  142.9743  162.8543 C   0  0  0  0  0  0  0  0  0  0  0  0
  152.5293  142.8553  161.4565 C   0  0  0  0  0  0  0  0  0  0  0  0
  151.8625  143.9460  160.8656 C   0  0  0  0  0  0  0  0  0  0  0  0
  151.3326  143.8263  159.5683 C   0  0  0  0  0  0  0  0  0  0  0  0
  151.4640  142.6170  158.8548 C   0  0  0  0  0  0  0  0  0  0  0  0
  150.8872  142.5049  157.4558 C   0  0  0  0  0  0  0  0  0  0  0  0
  152.1289  141.5133  159.4372 C   0  0  0  0  0  0  0  0  0  0  0  0
  152.2170  140.3595  158.6865 O   0  0  0  0  0  0  0  0  0  0  0  0
  152.6557  139.1641  159.3195 C   0  0  0  0  0  0  0  0  0  0  0  0
  152.1962  137.9443  158.5034 C   0  0  1  0  0  0  0  0  0  0  0  0
  152.6544  136.7641  159.1329 O   0  0  0  0  0  0  0  0  0  0  0  0
  150.6740  137.9023  158.2552 C   0  0  0  0  0  0  0  0  0  0  0  0
  150.3032  138.4781  156.9694 N   0  0  0  0  0  0  0  0  0  0  0  0
  150.8565  138.2483  155.7512 C   0  0  0  0  0  0  0  0  0  0  0  0
  152.0033  137.2926  155.5770 C   0  0  0  0  0  0  0  0  0  0  0  0
  151.6786  136.1338  154.8355 O   0  0  0  0  0  0  0  0  0  0  0  0
  150.3066  138.9173  154.7344 N   0  0  0  0  0  0  0  0  0  0  0  0
  149.3096  139.6475  155.3501 C   0  0  0  0  0  0  0  0  0  0  0  0
  148.3702  140.5561  154.8121 C   0  0  0  0  0  0  0  0  0  0  0  0
  147.4296  141.1903  155.6504 C   0  0  0  0  0  0  0  0  0  0  0  0
  147.4149  140.9255  157.0353 C   0  0  0  0  0  0  0  0  0  0  0  0
  148.3424  140.0236  157.5914 C   0  0  0  0  0  0  0  0  0  0  0  0
  149.2793  139.3939  156.7501 C   0  0  0  0  0  0  0  0  0  0  0  0
  152.6615  141.6457  160.7451 C   0  0  0  0  0  0  0  0  0  0  0  0
  153.0789  144.0061  163.2063 H   0  0  0  0  0  0  0  0  0  0  0  0
  154.1365  142.6328  162.8723 H   0  0  0  0  0  0  0  0  0  0  0  0
  152.5252  142.3633  163.5497 H   0  0  0  0  0  0  0  0  0  0  0  0
  151.7542  144.8766  161.4033 H   0  0  0  0  0  0  0  0  0  0  0  0
  150.8236  144.6689  159.1235 H   0  0  0  0  0  0  0  0  0  0  0  0
  151.6632  142.2142  156.7470 H   0  0  0  0  0  0  0  0  0  0  0  0
  150.4616  143.4514  157.1216 H   0  0  0  0  0  0  0  0  0  0  0  0
  150.0999  141.7509  157.4317 H   0  0  0  0  0  0  0  0  0  0  0  0
  153.7461  139.1670  159.3638 H   0  0  0  0  0  0  0  0  0  0  0  0
  152.2812  139.0978  160.3425 H   0  0  0  0  0  0  0  0  0  0  0  0
  152.7034  137.9842  157.5388 H   0  0  0  0  0  0  0  0  0  0  0  0
  153.5992  136.7587  159.1112 H   0  0  0  0  0  0  0  0  0  0  0  0
  150.2963  136.8818  158.3173 H   0  0  0  0  0  0  0  0  0  0  0  0
  150.1574  138.4612  159.0365 H   0  0  0  0  0  0  0  0  0  0  0  0
  152.8257  137.7984  155.0716 H   0  0  0  0  0  0  0  0  0  0  0  0
  152.3621  136.9881  156.5605 H   0  0  0  0  0  0  0  0  0  0  0  0
  151.5167  136.3865  153.9398 H   0  0  0  0  0  0  0  0  0  0  0  0
  148.3733  140.7647  153.7525 H   0  0  0  0  0  0  0  0  0  0  0  0
  146.7158  141.8825  155.2284 H   0  0  0  0  0  0  0  0  0  0  0  0
  146.6909  141.4150  157.6701 H   0  0  0  0  0  0  0  0  0  0  0  0
  148.3342  139.8182  158.6514 H   0  0  0  0  0  0  0  0  0  0  0  0
  153.1762  140.8282  161.2268 H   0  0  0  0  0  0  0  0  0  0  0  0
  1  2  1  0  0  0  0
  1 25  1  0  0  0  0
  1 26  1  0  0  0  0
  1 27  1  0  0  0  0
  2 24  1  0  0  0  0
  2  3  2  0  0  0  0
  3  4  1  0  0  0  0
  3 28  1  0  0  0  0
  4  5  2  0  0  0  0
  4 29  1  0  0  0  0
  5  6  1  0  0  0  0
  5  7  1  0  0  0  0
  6 30  1  0  0  0  0
  6 31  1  0  0  0  0
  6 32  1  0  0  0  0
  7  8  1  0  0  0  0
  7 24  2  0  0  0  0
  8  9  1  0  0  0  0
  9 10  1  0  0  0  0
  9 33  1  0  0  0  0
  9 34  1  0  0  0  0
 10 11  1  0  0  0  0
 10 12  1  0  0  0  0
 10 35  1  0  0  0  0
 11 36  1  0  0  0  0
 12 13  1  0  0  0  0
 12 37  1  0  0  0  0
 12 38  1  0  0  0  0
 13 23  1  0  0  0  0
 13 14  1  0  0  0  0
 14 15  1  0  0  0  0
 14 17  2  0  0  0  0
 15 16  1  0  0  0  0
 15 39  1  0  0  0  0
 15 40  1  0  0  0  0
 16 41  1  0  0  0  0
 17 18  1  0  0  0  0
 18 23  2  0  0  0  0
 18 19  1  0  0  0  0
 19 20  2  0  0  0  0
 19 42  1  0  0  0  0
 20 21  1  0  0  0  0
 20 43  1  0  0  0  0
 21 22  2  0  0  0  0
 21 44  1  0  0  0  0
 22 23  1  0  0  0  0
 22 45  1  0  0  0  0
 24 46  1  0  0  0  0
M  END
> <s_m_source_file>
AV-unprocessed.smi

> <i_m_source_file_index>
2190

> <i_lp_mmshare_version>
43012

> <i_f3d_flags>
0

> <s_epik_input>
W0NIM11jMVtjSF1bY0hdYyhbQ0gzXSljKFtjSF0xKU9bQ0gyXVtDQEhdKFtPSF0pW0NIMl1uKGMobjIpW0NIMl1bT0hdKWMoYzIzKVtjSF1bY0hdW2NIXVtjSF0z

> <s_epik_cmdline>
J2VwaWtfcHl0aG9uJywgJy1waCcsICc3LjAnLCAnLXRuJywgJzgnLCAnLW1hJywgJzIwMCcsICctbWV0YWxfYmluZGluZycsICctaW1hZScsICc8aW5maWxlLm1hZT4nLCAnLW9tYWUnLCAnPG91dGZpbGUubWFlPic=

> <r_lp_tautomer_probability>
1

> <r_epik_Ionization_Penalty>
0.0555874

> <r_epik_Ionization_Penalty_Charging>
0

> <r_epik_Ionization_Penalty_Neutral>
0.0555874

> <r_epik_State_Penalty>
0.0478234

> <r_epik_Charging_Adjusted_Penalty>
0.0478234

> <i_epik_Tot_Q>
0

> <i_epik_Tot_abs_Q>
0

> <r_epik_Metal_State_Penalty>
4.98044e-05

> <b_epik_Metal_Only>
0

> <s_lp_Force_Field>
OPLS_2005

> <r_lp_Energy>
17.5395

> <b_lp_Chiralities_Consistent>
1

> <s_lp_Variant>
AV-unprocessed.smi:2190-2

> <Gold.Version>
5.8.1

> <Gold.Id.Protein>
6NUR|6NUR_protein|mol2

> <Gold.PLP.Fitness>
53.2437

> <Gold.PLP.PLP>
-46.9683

> <Gold.PLP.part.hbond>
-3.6516

> <Gold.PLP.part.metal>
0.0000

> <Gold.PLP.part.buried>
-5.4580

> <Gold.PLP.part.nonpolar>
-39.2070

> <Gold.PLP.part.repulsive>
0.1439

> <Gold.PLP.ligand.clash>
0.0000

> <Gold.PLP.ligand.torsion>
0.9284

> <Gold.PLP.Chemscore.Hbond>
2.6978

> <Gold.PLP.Chemscore.CHOScore>
0.0000

> <Gold.PLP.Chemscore.Metal>
0.0000

> <Gold.Chemscore.Hbonds>
donor molecule, donor type, donor heavy atom, donor atom, acceptor molecule, acceptor atom, score
      P1  H  6896  6907       L1    11  0.86
      P1  H 10752 10763       L1    16  0.60

> <Gold.PLP.Chemscore.Internal.Correction>
0.0388

> <Gold.Rescore>
     Score         DG    S(hbond)    S(metal)    S(lipo)     H(rot)  DE(clash)    DE(int)     intcor
     16.67     -19.25       1.71        0.00     133.48       2.96       0.02       2.56       ----

> <Gold.Chemscore.Fitness>
16.6696

> <Gold.Chemscore.DG>
-19.2483

> <Gold.Chemscore.ZeroCoef>
-5.4800

> <Gold.Chemscore.Hbond>
1.7123

> <Gold.Chemscore.Metal>
0.0000

> <Gold.Chemscore.Lipo>
133.4784

> <Gold.Chemscore.Internal_Hbond>
0.0000

> <Gold.Chemscore.DEClash>
0.0222

> <Gold.Chemscore.DEInternal>
2.5564

> <Gold.Chemscore.Rot>
2.9561

> <Gold.Chemscore.Internal.Correction>
   9.000000E+99

> <Gold.Chemscore.Hbonds>
donor molecule, donor type, donor heavy atom, donor atom, acceptor molecule, acceptor atom, score
      L1  H    16    41       P1  7949  0.01
      P1  H  6896  6907       L1    11  0.75
      P1  H 10752 10763       L1    16  0.04

> <Gold.Chemscore.Hbond.Weighted>
-5.7189

> <Gold.Chemscore.Metal.Weighted>
-0.0000

> <Gold.Chemscore.Lipo.Weighted>
-15.6170

> <Gold.Chemscore.Internal_Hbond.Weighted>
0.0000

> <Gold.Chemscore.DEClash.Weighted>
0.0222

> <Gold.Chemscore.DEInternal.Weighted>
2.5564

> <Gold.Chemscore.Rot.Weighted>
7.5677

> <Gold.Chemscore.Internal.Correction.Weighted>
   9.000000E+99

> <Gold.Protein.RotatedTorsions>
[ 6907 6896 6895 6894 ] final    8.13 input  -60.11 | X-H torsion
[ 7974 7965 7964 7962 ] final -146.77 input  175.53 | X-H torsion
[ 8008 7997 7996 7995 ] final   33.38 input   59.86 | X-H torsion
[ 10167 10162 10161 10158 ] final  -82.08 input  -65.29 | X-H torsion
[ 10718 10713 10712 10709 ] final  150.53 input   66.30 | X-H torsion
[ 10763 10752 10751 10750 ] final   63.89 input  -60.55 | X-H torsion
[ 11005 11000 10999 10996 ] final   62.49 input  -57.11 | X-H torsion

> <Gold.Protein.ActiveResidues>
 VAL166  LYS551  ARG553  GLY616  TRP617  ASP618  TYR619  PRO620  LYS621  CYS622 
 ASP623  PHE694  ASN695  SER759  ASP760  ASP761  ALA762  ILE779  LEU786  VAL792 
 PHE793  MET794  SER795  GLU796  ALA797  LYS798  CYS799  TRP800  GLU811  SER814 

> <Gold.Protein.RotatedAtoms>
  151.7011  135.0930  160.0250 H   0  0  0  0  0  0  0  0  0  0  0  0  # atno 6907 bound_to 6896
  152.3720  133.6427  159.6103 H   0  0  0  0  0  0  0  0  0  0  0  0  # atno 6908 bound_to 6896
  150.7680  133.9171  159.3428 H   0  0  0  0  0  0  0  0  0  0  0  0  # atno 6909 bound_to 6896
  144.8137  140.5413  143.5625 H   0  0  0  0  0  0  0  0  0  0  0  0  # atno 7974 bound_to 7965
  155.1376  140.3263  155.4459 H   0  0  0  0  0  0  0  0  0  0  0  0  # atno 8008 bound_to 7997
  156.2615  140.1999  156.6443 H   0  0  0  0  0  0  0  0  0  0  0  0  # atno 8009 bound_to 7997
  154.6566  140.0552  157.0002 H   0  0  0  0  0  0  0  0  0  0  0  0  # atno 8010 bound_to 7997
  140.4353  143.2534  151.8703 H   0  0  0  0  0  0  0  0  0  0  0  0  # atno 10167 bound_to 10162
  157.2822  131.0837  151.1523 H   0  0  0  0  0  0  0  0  0  0  0  0  # atno 10718 bound_to 10713
  153.0035  135.5413  154.6424 H   0  0  0  0  0  0  0  0  0  0  0  0  # atno 10763 bound_to 10752
  154.5676  135.2839  155.0861 H   0  0  0  0  0  0  0  0  0  0  0  0  # atno 10764 bound_to 10752
  154.2039  135.6479  153.5148 H   0  0  0  0  0  0  0  0  0  0  0  0  # atno 10765 bound_to 10752
  140.0088  134.6328  155.9812 H   0  0  0  0  0  0  0  0  0  0  0  0  # atno 11005 bound_to 11000
  145.5264  139.1476  143.3524 LP  0  0  0  0  0  0  0  0  0  0  0  0  # atno 17320 bound_to 7965
  146.2438  140.5404  142.8922 LP  0  0  0  0  0  0  0  0  0  0  0  0  # atno 17321 bound_to 7965
  139.4786  144.5290  151.8694 LP  0  0  0  0  0  0  0  0  0  0  0  0  # atno 17342 bound_to 10162
  140.4381  144.2024  150.5890 LP  0  0  0  0  0  0  0  0  0  0  0  0  # atno 17343 bound_to 10162
  157.2952  130.6816  149.6135 LP  0  0  0  0  0  0  0  0  0  0  0  0  # atno 17370 bound_to 10713
  155.9664  130.4408  150.5316 LP  0  0  0  0  0  0  0  0  0  0  0  0  # atno 17371 bound_to 10713
  141.1696  133.6537  156.4604 LP  0  0  0  0  0  0  0  0  0  0  0  0  # atno 17394 bound_to 11000
  140.4592  134.6857  157.5077 LP  0  0  0  0  0  0  0  0  0  0  0  0  # atno 17395 bound_to 11000

$$$$
