AV-unprocessed.smi:3113|AV-procd|sdf|11855|dock3
  -GOLD-   2272017233D 1   1.00000     0.00000
 Structure written by MMmdl.
 34 35  0  0  0  0  0  0  0  0  1 V2000
  147.2685  141.7594  153.8954 C   0  0  0  0  0  0  0  0  0  0  0  0
  147.0174  140.4248  153.4698 C   0  0  0  0  0  0  0  0  0  0  0  0
  147.9939  139.5929  153.7947 N   0  0  0  0  0  0  0  0  0  0  0  0
  148.8975  140.3660  154.4349 N   0  0  0  0  0  0  0  0  0  0  0  0
  150.1272  139.7764  154.9333 C   0  0  0  0  0  0  0  0  0  0  0  0
  151.0111  140.8023  155.6603 C   0  0  0  0  0  0  0  0  0  0  0  0
  150.5404  141.0435  157.0213 N   0  0  0  0  0  0  0  0  0  0  0  0
  151.6122  141.3214  157.9725 C   0  0  0  0  0  0  0  0  0  0  0  0
  151.2744  142.5146  158.8822 C   0  0  1  0  0  0  0  0  0  0  0  0
  152.2522  142.6951  160.0630 C   0  0  0  0  0  0  0  0  0  0  0  0
  151.8653  143.9237  160.8934 C   0  0  0  0  0  0  0  0  0  0  0  0
  151.7366  145.1454  159.9770 C   0  0  0  0  0  0  0  0  0  0  0  0
  150.7778  144.8446  158.8132 C   0  0  0  0  0  0  0  0  0  0  0  0
  151.2240  143.7005  158.0908 O   0  0  0  0  0  0  0  0  0  0  0  0
  148.4849  141.6798  154.5106 C   0  0  0  0  0  0  0  0  0  0  0  0
  146.6528  142.6371  153.7671 H   0  0  0  0  0  0  0  0  0  0  0  0
  146.1606  140.0386  152.9376 H   0  0  0  0  0  0  0  0  0  0  0  0
  149.8776  138.9454  155.5943 H   0  0  0  0  0  0  0  0  0  0  0  0
  150.6715  139.3501  154.0893 H   0  0  0  0  0  0  0  0  0  0  0  0
  152.0358  140.4307  155.6883 H   0  0  0  0  0  0  0  0  0  0  0  0
  151.0345  141.7360  155.0972 H   0  0  0  0  0  0  0  0  0  0  0  0
  149.9976  140.2490  157.3448 H   0  0  0  0  0  0  0  0  0  0  0  0
  151.8013  140.4413  158.5885 H   0  0  0  0  0  0  0  0  0  0  0  0
  152.5383  141.5284  157.4347 H   0  0  0  0  0  0  0  0  0  0  0  0
  150.2749  142.3394  159.2845 H   0  0  0  0  0  0  0  0  0  0  0  0
  152.2565  141.8042  160.6914 H   0  0  0  0  0  0  0  0  0  0  0  0
  153.2706  142.8220  159.6943 H   0  0  0  0  0  0  0  0  0  0  0  0
  150.9164  143.7421  161.3997 H   0  0  0  0  0  0  0  0  0  0  0  0
  152.6072  144.1065  161.6711 H   0  0  0  0  0  0  0  0  0  0  0  0
  151.3827  146.0062  160.5449 H   0  0  0  0  0  0  0  0  0  0  0  0
  152.7171  145.4125  159.5813 H   0  0  0  0  0  0  0  0  0  0  0  0
  149.7629  144.6822  159.1790 H   0  0  0  0  0  0  0  0  0  0  0  0
  150.7366  145.6949  158.1326 H   0  0  0  0  0  0  0  0  0  0  0  0
  149.0868  142.4400  154.9864 H   0  0  0  0  0  0  0  0  0  0  0  0
  1 15  2  0  0  0  0
  1  2  1  0  0  0  0
  1 16  1  0  0  0  0
  2  3  2  0  0  0  0
  2 17  1  0  0  0  0
  3  4  1  0  0  0  0
  4  5  1  0  0  0  0
  4 15  1  0  0  0  0
  5  6  1  0  0  0  0
  5 18  1  0  0  0  0
  5 19  1  0  0  0  0
  6  7  1  0  0  0  0
  6 20  1  0  0  0  0
  6 21  1  0  0  0  0
  7  8  1  0  0  0  0
  7 22  1  0  0  0  0
  8  9  1  0  0  0  0
  8 23  1  0  0  0  0
  8 24  1  0  0  0  0
  9 14  1  0  0  0  0
  9 10  1  0  0  0  0
  9 25  1  0  0  0  0
 10 11  1  0  0  0  0
 10 26  1  0  0  0  0
 10 27  1  0  0  0  0
 11 12  1  0  0  0  0
 11 28  1  0  0  0  0
 11 29  1  0  0  0  0
 12 13  1  0  0  0  0
 12 30  1  0  0  0  0
 12 31  1  0  0  0  0
 13 14  1  0  0  0  0
 13 32  1  0  0  0  0
 13 33  1  0  0  0  0
 15 34  1  0  0  0  0
M  END
> <s_m_source_file>
AV-unprocessed.smi

> <i_m_source_file_index>
3113

> <i_lp_mmshare_version>
43012

> <i_f3d_flags>
0

> <s_epik_input>
W2NIXTFbY0hdW2NIXW5uMVtDSDJdW0NIMl1bTkhdW0NIMl1bQ0BASF0yW0NIMl1bQ0gyXVtDSDJdW0NIMl1PMg==

> <s_epik_cmdline>
J2VwaWtfcHl0aG9uJywgJy1waCcsICc3LjAnLCAnLXRuJywgJzgnLCAnLW1hJywgJzIwMCcsICctbWV0YWxfYmluZGluZycsICctaW1hZScsICc8aW5maWxlLm1hZT4nLCAnLW9tYWUnLCAnPG91dGZpbGUubWFlPic=

> <r_lp_tautomer_probability>
1

> <r_epik_Ionization_Penalty>
2.521

> <r_epik_Ionization_Penalty_Charging>
0

> <r_epik_Ionization_Penalty_Neutral>
2.521

> <r_epik_State_Penalty>
2.68614

> <r_epik_Charging_Adjusted_Penalty>
2.68614

> <i_epik_Tot_Q>
0

> <i_epik_Tot_abs_Q>
0

> <r_epik_Metal_State_Penalty>
2.68493

> <b_epik_Metal_Only>
0

> <s_lp_Force_Field>
OPLS_2005

> <r_lp_Energy>
15.0278

> <b_lp_Chiralities_Consistent>
1

> <s_lp_Variant>
AV-unprocessed.smi:3113-4

> <Gold.Version>
5.8.1

> <Gold.Id.Protein>
6NUR|6NUR_protein|mol2

> <Gold.PLP.Fitness>
40.8167

> <Gold.PLP.PLP>
-36.3919

> <Gold.PLP.part.hbond>
0.0000

> <Gold.PLP.part.metal>
0.0000

> <Gold.PLP.part.buried>
-4.3283

> <Gold.PLP.part.nonpolar>
-32.2961

> <Gold.PLP.part.repulsive>
0.3304

> <Gold.PLP.ligand.clash>
0.0000

> <Gold.PLP.ligand.torsion>
0.6710

> <Gold.PLP.Chemscore.Hbond>
0.0000

> <Gold.PLP.Chemscore.CHOScore>
1.9141

> <Gold.PLP.Chemscore.Metal>
0.0000

> <Gold.Chemscore.Hbonds>
donor molecule, donor type, donor heavy atom, donor atom, acceptor molecule, acceptor atom, score
      L1  C     2    17       P1 10175  0.94
      L1  C    15    34       P1  8028  1.00

> <Gold.PLP.Chemscore.Internal.Correction>
0.0245

> <Gold.Rescore>
     Score         DG    S(hbond)    S(metal)    S(lipo)     H(rot)  DE(clash)    DE(int)     intcor
     12.73     -13.34       0.00        0.00     102.62       1.62       0.01       0.60       ----

> <Gold.Chemscore.Fitness>
12.7303

> <Gold.Chemscore.DG>
-13.3362

> <Gold.Chemscore.ZeroCoef>
-5.4800

> <Gold.Chemscore.Hbond>
0.0000

> <Gold.Chemscore.Metal>
0.0000

> <Gold.Chemscore.Lipo>
102.6212

> <Gold.Chemscore.Internal_Hbond>
0.0000

> <Gold.Chemscore.DEClash>
0.0073

> <Gold.Chemscore.DEInternal>
0.5985

> <Gold.Chemscore.Rot>
1.6213

> <Gold.Chemscore.Internal.Correction>
   9.000000E+99

> <Gold.Chemscore.Hbond.Weighted>
-0.0000

> <Gold.Chemscore.Metal.Weighted>
-0.0000

> <Gold.Chemscore.Lipo.Weighted>
-12.0067

> <Gold.Chemscore.Internal_Hbond.Weighted>
0.0000

> <Gold.Chemscore.DEClash.Weighted>
0.0073

> <Gold.Chemscore.DEInternal.Weighted>
0.5985

> <Gold.Chemscore.Rot.Weighted>
4.1505

> <Gold.Chemscore.Internal.Correction.Weighted>
   9.000000E+99

> <Gold.Protein.RotatedTorsions>
[ 6907 6896 6895 6894 ] final   51.83 input  -60.11 | X-H torsion
[ 7974 7965 7964 7962 ] final  -30.80 input  175.53 | X-H torsion
[ 8008 7997 7996 7995 ] final -119.95 input   59.86 | X-H torsion
[ 10167 10162 10161 10158 ] final -135.53 input  -65.29 | X-H torsion
[ 10718 10713 10712 10709 ] final -173.27 input   66.30 | X-H torsion
[ 10763 10752 10751 10750 ] final -178.29 input  -60.55 | X-H torsion
[ 11005 11000 10999 10996 ] final  -89.86 input  -57.11 | X-H torsion

> <Gold.Protein.ActiveResidues>
 VAL166  LYS551  ARG553  GLY616  TRP617  ASP618  TYR619  PRO620  LYS621  CYS622 
 ASP623  PHE694  ASN695  SER759  ASP760  ASP761  ALA762  ILE779  LEU786  VAL792 
 PHE793  MET794  SER795  GLU796  ALA797  LYS798  CYS799  TRP800  GLU811  SER814 

> <Gold.Protein.RotatedAtoms>
  152.3169  134.7429  160.0322 H   0  0  0  0  0  0  0  0  0  0  0  0  # atno 6907 bound_to 6896
  151.7890  133.3352  159.3502 H   0  0  0  0  0  0  0  0  0  0  0  0  # atno 6908 bound_to 6896
  150.7349  134.5790  159.5973 H   0  0  0  0  0  0  0  0  0  0  0  0  # atno 6909 bound_to 6896
  146.1116  140.5586  142.8775 H   0  0  0  0  0  0  0  0  0  0  0  0  # atno 7974 bound_to 7965
  155.1239  140.0399  157.2757 H   0  0  0  0  0  0  0  0  0  0  0  0  # atno 8008 bound_to 7997
  154.6593  140.2587  155.7101 H   0  0  0  0  0  0  0  0  0  0  0  0  # atno 8009 bound_to 7997
  156.2612  140.2820  156.1058 H   0  0  0  0  0  0  0  0  0  0  0  0  # atno 8010 bound_to 7997
  139.8769  143.6887  152.2632 H   0  0  0  0  0  0  0  0  0  0  0  0  # atno 10167 bound_to 10162
  156.7678  130.9437  151.3119 H   0  0  0  0  0  0  0  0  0  0  0  0  # atno 10718 bound_to 10713
  154.5496  135.2812  155.1021 H   0  0  0  0  0  0  0  0  0  0  0  0  # atno 10763 bound_to 10752
  154.2472  135.6346  153.5231 H   0  0  0  0  0  0  0  0  0  0  0  0  # atno 10764 bound_to 10752
  152.9999  135.5574  154.6058 H   0  0  0  0  0  0  0  0  0  0  0  0  # atno 10765 bound_to 10752
  141.1577  133.7656  156.9655 H   0  0  0  0  0  0  0  0  0  0  0  0  # atno 11005 bound_to 11000
  144.7516  140.5205  143.6798 LP  0  0  0  0  0  0  0  0  0  0  0  0  # atno 17320 bound_to 7965
  145.5652  139.1481  143.3319 LP  0  0  0  0  0  0  0  0  0  0  0  0  # atno 17321 bound_to 7965
  139.7231  144.7598  151.0922 LP  0  0  0  0  0  0  0  0  0  0  0  0  # atno 17342 bound_to 10162
  140.7751  143.5182  150.9569 LP  0  0  0  0  0  0  0  0  0  0  0  0  # atno 17343 bound_to 10162
  157.6705  130.9047  150.0029 LP  0  0  0  0  0  0  0  0  0  0  0  0  # atno 17370 bound_to 10713
  156.1297  130.3643  149.9751 LP  0  0  0  0  0  0  0  0  0  0  0  0  # atno 17371 bound_to 10713
  140.1164  134.9444  157.2141 LP  0  0  0  0  0  0  0  0  0  0  0  0  # atno 17394 bound_to 11000
  140.3127  134.3005  155.7263 LP  0  0  0  0  0  0  0  0  0  0  0  0  # atno 17395 bound_to 11000

$$$$
