AV-unprocessed.smi:1873|AV-procd|sdf|7608|dock6
  -GOLD-   22720 9323D 1   1.00000     0.00000
 Structure written by MMmdl.
 36 38  0  0  0  0  0  0  0  0  1 V2000
  155.9127  139.6585  159.6632 O   0  0  0  0  0  0  0  0  0  0  0  0
  155.2099  140.1372  160.7939 C   0  0  1  0  0  0  0  0  0  0  0  0
  153.7584  140.4772  160.4015 C   0  0  0  0  0  0  0  0  0  0  0  0
  153.3954  141.8417  160.7393 N   0  0  0  0  0  0  0  0  0  0  0  0
  153.6510  142.4901  161.8920 C   0  0  0  0  0  0  0  0  0  0  0  0
  153.2240  143.7458  161.9924 N   0  0  0  0  0  0  0  0  0  0  0  0
  152.6215  143.9350  160.7605 C   0  0  0  0  0  0  0  0  0  0  0  0
  151.9652  145.0661  160.2241 C   0  0  0  0  0  0  0  0  0  0  0  0
  151.4198  145.0258  158.9239 C   0  0  0  0  0  0  0  0  0  0  0  0
  151.5221  143.8572  158.1412 C   0  0  0  0  0  0  0  0  0  0  0  0
  152.1710  142.7175  158.6540 C   0  0  0  0  0  0  0  0  0  0  0  0
  152.7132  142.7620  159.9519 C   0  0  0  0  0  0  0  0  0  0  0  0
  155.2547  139.1532  161.9525 C   0  0  0  0  0  0  0  0  0  0  0  0
  154.5412  137.9389  161.8790 C   0  0  0  0  0  0  0  0  0  0  0  0
  154.5875  137.0231  162.9478 C   0  0  0  0  0  0  0  0  0  0  0  0
  155.3407  137.3061  164.1052 C   0  0  0  0  0  0  0  0  0  0  0  0
  155.3566  136.3635  165.1086 O   0  0  0  0  0  0  0  0  0  0  0  0
  156.0454  135.2052  164.9269 C   0  0  0  0  0  0  0  0  0  0  0  0
  157.3713  135.4304  165.0913 F   0  0  0  0  0  0  0  0  0  0  0  0
  155.6708  134.2816  165.8458 F   0  0  0  0  0  0  0  0  0  0  0  0
  156.0676  138.5189  164.1708 C   0  0  0  0  0  0  0  0  0  0  0  0
  156.0208  139.4359  163.1033 C   0  0  0  0  0  0  0  0  0  0  0  0
  155.9363  138.7146  159.7030 H   0  0  0  0  0  0  0  0  0  0  0  0
  155.7113  141.0547  161.1056 H   0  0  0  0  0  0  0  0  0  0  0  0
  153.6057  140.3310  159.3310 H   0  0  0  0  0  0  0  0  0  0  0  0
  153.0644  139.8066  160.9099 H   0  0  0  0  0  0  0  0  0  0  0  0
  154.1777  142.0117  162.7049 H   0  0  0  0  0  0  0  0  0  0  0  0
  151.8811  145.9666  160.8142 H   0  0  0  0  0  0  0  0  0  0  0  0
  150.9204  145.8963  158.5247 H   0  0  0  0  0  0  0  0  0  0  0  0
  151.1019  143.8366  157.1464 H   0  0  0  0  0  0  0  0  0  0  0  0
  152.2508  141.8205  158.0581 H   0  0  0  0  0  0  0  0  0  0  0  0
  153.9565  137.7029  161.0020 H   0  0  0  0  0  0  0  0  0  0  0  0
  154.0379  136.0955  162.8792 H   0  0  0  0  0  0  0  0  0  0  0  0
  155.8992  134.8012  163.9248 H   0  0  0  0  0  0  0  0  0  0  0  0
  156.6727  138.7572  165.0326 H   0  0  0  0  0  0  0  0  0  0  0  0
  156.5814  140.3570  163.1680 H   0  0  0  0  0  0  0  0  0  0  0  0
  1  2  1  0  0  0  0
  1 23  1  0  0  0  0
  2  3  1  0  0  0  0
  2 13  1  0  0  0  0
  2 24  1  0  0  0  0
  3  4  1  0  0  0  0
  3 25  1  0  0  0  0
  3 26  1  0  0  0  0
  4 12  1  0  0  0  0
  4  5  1  0  0  0  0
  5  6  2  0  0  0  0
  5 27  1  0  0  0  0
  6  7  1  0  0  0  0
  7 12  2  0  0  0  0
  7  8  1  0  0  0  0
  8  9  2  0  0  0  0
  8 28  1  0  0  0  0
  9 10  1  0  0  0  0
  9 29  1  0  0  0  0
 10 11  2  0  0  0  0
 10 30  1  0  0  0  0
 11 12  1  0  0  0  0
 11 31  1  0  0  0  0
 13 22  1  0  0  0  0
 13 14  2  0  0  0  0
 14 15  1  0  0  0  0
 14 32  1  0  0  0  0
 15 16  2  0  0  0  0
 15 33  1  0  0  0  0
 16 17  1  0  0  0  0
 16 21  1  0  0  0  0
 17 18  1  0  0  0  0
 18 19  1  0  0  0  0
 18 20  1  0  0  0  0
 18 34  1  0  0  0  0
 21 22  2  0  0  0  0
 21 35  1  0  0  0  0
 22 36  1  0  0  0  0
M  END
> <s_m_source_file>
AV-unprocessed.smi

> <i_m_source_file_index>
1873

> <i_lp_mmshare_version>
43012

> <i_f3d_flags>
0

> <s_epik_input>
RltDSF0oRilPYyhbY0hdW2NIXTEpW2NIXVtjSF1jMVtDQEhdKFtPSF0pW0NIMl1uKFtjSF1uMiljKGMyMylbY0hdW2NIXVtjSF1bY0hdMw==

> <s_epik_cmdline>
J2VwaWtfcHl0aG9uJywgJy1waCcsICc3LjAnLCAnLXRuJywgJzgnLCAnLW1hJywgJzIwMCcsICctbWV0YWxfYmluZGluZycsICctaW1hZScsICc8aW5maWxlLm1hZT4nLCAnLW9tYWUnLCAnPG91dGZpbGUubWFlPic=

> <r_lp_tautomer_probability>
1

> <r_epik_Ionization_Penalty>
0.0696507

> <r_epik_Ionization_Penalty_Charging>
0

> <r_epik_Ionization_Penalty_Neutral>
0.0696507

> <r_epik_State_Penalty>
0.0610247

> <r_epik_Charging_Adjusted_Penalty>
0.0610247

> <i_epik_Tot_Q>
0

> <i_epik_Tot_abs_Q>
0

> <r_epik_Metal_State_Penalty>
6.42746e-05

> <b_epik_Metal_Only>
0

> <s_lp_Force_Field>
OPLS_2005

> <r_lp_Energy>
11.6076

> <b_lp_Chiralities_Consistent>
1

> <s_lp_Variant>
AV-unprocessed.smi:1873-2

> <Gold.Version>
5.8.1

> <Gold.Id.Protein>
6NUR|6NUR_protein|mol2

> <Gold.PLP.Fitness>
54.6500

> <Gold.PLP.PLP>
-57.2407

> <Gold.PLP.part.hbond>
0.0000

> <Gold.PLP.part.metal>
0.0000

> <Gold.PLP.part.buried>
-6.7670

> <Gold.PLP.part.nonpolar>
-50.8477

> <Gold.PLP.part.repulsive>
0.2441

> <Gold.PLP.ligand.clash>
0.0000

> <Gold.PLP.ligand.torsion>
1.3385

> <Gold.PLP.Chemscore.Hbond>
0.0000

> <Gold.PLP.Chemscore.CHOScore>
0.0000

> <Gold.PLP.Chemscore.Metal>
0.0000

> <Gold.Chemscore.Hbonds>
donor molecule, donor type, donor heavy atom, donor atom, acceptor molecule, acceptor atom, score
      P1  H  7997  8010       L1     1  0.15

> <Gold.PLP.Chemscore.Internal.Correction>
0.0863

> <Gold.Rescore>
     Score         DG    S(hbond)    S(metal)    S(lipo)     H(rot)  DE(clash)    DE(int)     intcor
     14.16     -15.33       0.00        0.00     136.70       2.40       0.10       1.07       ----

> <Gold.Chemscore.Fitness>
14.1564

> <Gold.Chemscore.DG>
-15.3337

> <Gold.Chemscore.ZeroCoef>
-5.4800

> <Gold.Chemscore.Hbond>
0.0000

> <Gold.Chemscore.Metal>
0.0000

> <Gold.Chemscore.Lipo>
136.7024

> <Gold.Chemscore.Internal_Hbond>
0.0000

> <Gold.Chemscore.DEClash>
0.1036

> <Gold.Chemscore.DEInternal>
1.0737

> <Gold.Chemscore.Rot>
2.3986

> <Gold.Chemscore.Internal.Correction>
   9.000000E+99

> <Gold.Chemscore.Hbonds>
donor molecule, donor type, donor heavy atom, donor atom, acceptor molecule, acceptor atom, score
      P1  H  7997  8010       L1     1  0.06

> <Gold.Chemscore.Hbond.Weighted>
-0.0000

> <Gold.Chemscore.Metal.Weighted>
-0.0000

> <Gold.Chemscore.Lipo.Weighted>
-15.9942

> <Gold.Chemscore.Internal_Hbond.Weighted>
0.0000

> <Gold.Chemscore.DEClash.Weighted>
0.1036

> <Gold.Chemscore.DEInternal.Weighted>
1.0737

> <Gold.Chemscore.Rot.Weighted>
6.1405

> <Gold.Chemscore.Internal.Correction.Weighted>
   9.000000E+99

> <Gold.Protein.RotatedTorsions>
[ 6907 6896 6895 6894 ] final -177.43 input  -60.11 | X-H torsion
[ 7974 7965 7964 7962 ] final  -21.40 input  175.53 | X-H torsion
[ 8008 7997 7996 7995 ] final  -25.75 input   59.86 | X-H torsion
[ 10167 10162 10161 10158 ] final  -24.20 input  -65.29 | X-H torsion
[ 10718 10713 10712 10709 ] final   17.93 input   66.30 | X-H torsion
[ 10763 10752 10751 10750 ] final   82.42 input  -60.55 | X-H torsion
[ 11005 11000 10999 10996 ] final   76.78 input  -57.11 | X-H torsion

> <Gold.Protein.ActiveResidues>
 VAL166  LYS551  ARG553  GLY616  TRP617  ASP618  TYR619  PRO620  LYS621  CYS622 
 ASP623  PHE694  ASN695  SER759  ASP760  ASP761  ALA762  ILE779  LEU786  VAL792 
 PHE793  MET794  SER795  GLU796  ALA797  LYS798  CYS799  TRP800  GLU811  SER814 

> <Gold.Protein.RotatedAtoms>
  151.6208  133.3339  159.3087 H   0  0  0  0  0  0  0  0  0  0  0  0  # atno 6907 bound_to 6896
  150.8107  134.7263  159.6696 H   0  0  0  0  0  0  0  0  0  0  0  0  # atno 6908 bound_to 6896
  152.4203  134.5972  160.0041 H   0  0  0  0  0  0  0  0  0  0  0  0  # atno 6909 bound_to 6896
  146.1735  140.4335  142.8523 H   0  0  0  0  0  0  0  0  0  0  0  0  # atno 7974 bound_to 7965
  154.4460  140.1918  156.0668 H   0  0  0  0  0  0  0  0  0  0  0  0  # atno 8008 bound_to 7997
  156.0542  140.3305  155.7359 H   0  0  0  0  0  0  0  0  0  0  0  0  # atno 8009 bound_to 7997
  155.5511  140.0595  157.2840 H   0  0  0  0  0  0  0  0  0  0  0  0  # atno 8010 bound_to 7997
  140.7288  143.4374  151.0708 H   0  0  0  0  0  0  0  0  0  0  0  0  # atno 10167 bound_to 10162
  157.0891  130.6420  149.5844 H   0  0  0  0  0  0  0  0  0  0  0  0  # atno 10718 bound_to 10713
  153.1201  135.4729  154.9181 H   0  0  0  0  0  0  0  0  0  0  0  0  # atno 10763 bound_to 10752
  154.7567  135.3120  154.8459 H   0  0  0  0  0  0  0  0  0  0  0  0  # atno 10764 bound_to 10752
  153.9025  135.6873  153.4808 H   0  0  0  0  0  0  0  0  0  0  0  0  # atno 10765 bound_to 10752
  139.9283  134.7629  156.1438 H   0  0  0  0  0  0  0  0  0  0  0  0  # atno 11005 bound_to 11000
  144.8199  140.6533  143.6359 LP  0  0  0  0  0  0  0  0  0  0  0  0  # atno 17320 bound_to 7965
  145.4276  139.1554  143.4040 LP  0  0  0  0  0  0  0  0  0  0  0  0  # atno 17321 bound_to 7965
  139.8038  143.8047  152.3165 LP  0  0  0  0  0  0  0  0  0  0  0  0  # atno 17342 bound_to 10162
  139.8073  144.7350  150.9745 LP  0  0  0  0  0  0  0  0  0  0  0  0  # atno 17343 bound_to 10162
  155.9903  130.4953  150.7250 LP  0  0  0  0  0  0  0  0  0  0  0  0  # atno 17370 bound_to 10713
  157.4736  131.0895  151.0615 LP  0  0  0  0  0  0  0  0  0  0  0  0  # atno 17371 bound_to 10713
  141.0856  133.6736  156.2428 LP  0  0  0  0  0  0  0  0  0  0  0  0  # atno 17394 bound_to 11000
  140.6273  134.5300  157.5555 LP  0  0  0  0  0  0  0  0  0  0  0  0  # atno 17395 bound_to 11000

$$$$
