AV-unprocessed.smi:1346|AV-procd|sdf|5512|dock4
  -GOLD-   22720 5 93D 1   1.00000     0.00000
 Structure written by MMmdl.
 47 48  0  0  0  0  0  0  0  0  1 V2000
  147.8886  137.1747  154.7159 C   0  0  0  0  0  0  0  0  0  0  0  0
  147.8339  138.6592  154.4948 C   0  0  0  0  0  0  0  0  0  0  0  0
  146.7163  139.3141  154.7597 N   0  0  0  0  0  0  0  0  0  0  0  0
  146.9764  140.6540  154.4576 O   0  0  0  0  0  0  0  0  0  0  0  0
  148.2549  140.7545  154.0140 C   0  0  0  0  0  0  0  0  0  0  0  0
  148.7213  142.1218  153.6430 C   0  0  0  0  0  0  0  0  0  0  0  0
  148.8571  139.5256  154.0122 C   0  0  0  0  0  0  0  0  0  0  0  0
  150.2617  139.1605  153.6025 C   0  0  0  0  0  0  0  0  0  0  0  0
  151.2292  139.4114  154.7596 C   0  0  0  0  0  0  0  0  0  0  0  0
  151.5809  140.5600  155.0277 O   0  0  0  0  0  0  0  0  0  0  0  0
  151.6414  138.3310  155.4414 N   0  0  0  0  0  0  0  0  0  0  0  0
  152.5253  138.3522  156.6015 C   0  0  0  0  0  0  0  0  0  0  0  0
  151.9144  139.1673  157.7496 C   0  0  0  0  0  0  0  0  0  0  0  0
  152.8302  140.1772  158.1455 O   0  0  0  0  0  0  0  0  0  0  0  0
  152.2264  141.3187  158.7379 C   0  0  2  0  0  0  0  0  0  0  0  0
  151.6328  142.2030  157.6208 C   0  0  0  0  0  0  0  0  0  0  0  0
  151.0852  143.5251  158.1776 C   0  0  0  0  0  0  0  0  0  0  0  0
  152.1688  144.2845  158.9558 C   0  0  0  0  0  0  0  0  0  0  0  0
  152.7581  143.4118  160.0744 C   0  0  0  0  0  0  0  0  0  0  0  0
  153.3135  142.0800  159.5300 C   0  0  1  0  0  0  0  0  0  0  0  0
  153.8886  141.2258  160.6715 C   0  0  0  0  0  0  0  0  0  0  0  0
  148.9068  136.8415  154.9181 H   0  0  0  0  0  0  0  0  0  0  0  0
  147.5313  136.6367  153.8377 H   0  0  0  0  0  0  0  0  0  0  0  0
  147.2726  136.8757  155.5646 H   0  0  0  0  0  0  0  0  0  0  0  0
  149.6924  142.0871  153.1495 H   0  0  0  0  0  0  0  0  0  0  0  0
  148.8165  142.7493  154.5292 H   0  0  0  0  0  0  0  0  0  0  0  0
  148.0157  142.6001  152.9637 H   0  0  0  0  0  0  0  0  0  0  0  0
  150.3247  138.1126  153.3069 H   0  0  0  0  0  0  0  0  0  0  0  0
  150.5914  139.7349  152.7363 H   0  0  0  0  0  0  0  0  0  0  0  0
  151.3020  137.4279  155.1442 H   0  0  0  0  0  0  0  0  0  0  0  0
  152.6656  137.3205  156.9246 H   0  0  0  0  0  0  0  0  0  0  0  0
  153.5147  138.7307  156.3399 H   0  0  0  0  0  0  0  0  0  0  0  0
  150.9589  139.5902  157.4373 H   0  0  0  0  0  0  0  0  0  0  0  0
  151.7161  138.5168  158.6023 H   0  0  0  0  0  0  0  0  0  0  0  0
  151.4381  141.0165  159.4308 H   0  0  0  0  0  0  0  0  0  0  0  0
  152.4025  142.4147  156.8770 H   0  0  0  0  0  0  0  0  0  0  0  0
  150.8370  141.6761  157.0945 H   0  0  0  0  0  0  0  0  0  0  0  0
  150.7089  144.1445  157.3629 H   0  0  0  0  0  0  0  0  0  0  0  0
  150.2361  143.3232  158.8319 H   0  0  0  0  0  0  0  0  0  0  0  0
  152.9626  144.5923  158.2739 H   0  0  0  0  0  0  0  0  0  0  0  0
  151.7517  145.1992  159.3782 H   0  0  0  0  0  0  0  0  0  0  0  0
  153.5468  143.9632  160.5874 H   0  0  0  0  0  0  0  0  0  0  0  0
  151.9878  143.2121  160.8206 H   0  0  0  0  0  0  0  0  0  0  0  0
  154.1311  142.3133  158.8460 H   0  0  0  0  0  0  0  0  0  0  0  0
  153.1134  140.9439  161.3845 H   0  0  0  0  0  0  0  0  0  0  0  0
  154.6613  141.7689  161.2168 H   0  0  0  0  0  0  0  0  0  0  0  0
  154.3410  140.3089  160.2924 H   0  0  0  0  0  0  0  0  0  0  0  0
  1  2  1  0  0  0  0
  1 22  1  0  0  0  0
  1 23  1  0  0  0  0
  1 24  1  0  0  0  0
  2  7  1  0  0  0  0
  2  3  2  0  0  0  0
  3  4  1  0  0  0  0
  4  5  1  0  0  0  0
  5  6  1  0  0  0  0
  5  7  2  0  0  0  0
  6 25  1  0  0  0  0
  6 26  1  0  0  0  0
  6 27  1  0  0  0  0
  7  8  1  0  0  0  0
  8  9  1  0  0  0  0
  8 28  1  0  0  0  0
  8 29  1  0  0  0  0
  9 10  2  0  0  0  0
  9 11  1  0  0  0  0
 11 12  1  0  0  0  0
 11 30  1  0  0  0  0
 12 13  1  0  0  0  0
 12 31  1  0  0  0  0
 12 32  1  0  0  0  0
 13 14  1  0  0  0  0
 13 33  1  0  0  0  0
 13 34  1  0  0  0  0
 14 15  1  0  0  0  0
 15 20  1  0  0  0  0
 15 16  1  0  0  0  0
 15 35  1  0  0  0  0
 16 17  1  0  0  0  0
 16 36  1  0  0  0  0
 16 37  1  0  0  0  0
 17 18  1  0  0  0  0
 17 38  1  0  0  0  0
 17 39  1  0  0  0  0
 18 19  1  0  0  0  0
 18 40  1  0  0  0  0
 18 41  1  0  0  0  0
 19 20  1  0  0  0  0
 19 42  1  0  0  0  0
 19 43  1  0  0  0  0
 20 21  1  0  0  0  0
 20 44  1  0  0  0  0
 21 45  1  0  0  0  0
 21 46  1  0  0  0  0
 21 47  1  0  0  0  0
M  END
> <s_m_source_file>
AV-unprocessed.smi

> <i_m_source_file_index>
1346

> <i_lp_mmshare_version>
43012

> <i_f3d_flags>
0

> <s_epik_input>
W0NIM11jMW5vYyhbQ0gzXSljMVtDSDJdQyg9TylbTkhdW0NIMl1bQ0gyXU9bQ0BASF0yW0NIMl1bQ0gyXVtDSDJdW0NIMl1bQ0BIXTJbQ0gzXQ==

> <s_epik_cmdline>
J2VwaWtfcHl0aG9uJywgJy1waCcsICc3LjAnLCAnLXRuJywgJzgnLCAnLW1hJywgJzIwMCcsICctbWV0YWxfYmluZGluZycsICctaW1hZScsICc8aW5maWxlLm1hZT4nLCAnLW9tYWUnLCAnPG91dGZpbGUubWFlPic=

> <r_lp_tautomer_probability>
1

> <r_epik_Ionization_Penalty>
3.26154e-08

> <r_epik_Ionization_Penalty_Charging>
0

> <r_epik_Ionization_Penalty_Neutral>
3.26154e-08

> <r_epik_State_Penalty>
-0

> <r_epik_Charging_Adjusted_Penalty>
0

> <i_epik_Tot_Q>
0

> <i_epik_Tot_abs_Q>
0

> <r_epik_Metal_State_Penalty>
-0

> <b_epik_Metal_Only>
0

> <s_lp_Force_Field>
OPLS_2005

> <r_lp_Energy>
5.71646

> <b_lp_Chiralities_Consistent>
1

> <s_lp_Variant>
AV-unprocessed.smi:1346-1

> <Gold.Version>
5.8.1

> <Gold.Id.Protein>
6NUR|6NUR_protein|mol2

> <Gold.PLP.Fitness>
41.6382

> <Gold.PLP.PLP>
-38.1203

> <Gold.PLP.part.hbond>
-2.0000

> <Gold.PLP.part.metal>
0.0000

> <Gold.PLP.part.buried>
-4.4539

> <Gold.PLP.part.nonpolar>
-32.0688

> <Gold.PLP.part.repulsive>
0.2087

> <Gold.PLP.ligand.clash>
0.0000

> <Gold.PLP.ligand.torsion>
1.2350

> <Gold.PLP.Chemscore.Hbond>
1.9520

> <Gold.PLP.Chemscore.CHOScore>
0.0000

> <Gold.PLP.Chemscore.Metal>
0.0000

> <Gold.Chemscore.Hbonds>
donor molecule, donor type, donor heavy atom, donor atom, acceptor molecule, acceptor atom, score
      P1  H  7989  7998       L1    10  0.41
      P1  H  7997  8009       L1    14  0.84

> <Gold.PLP.Chemscore.Internal.Correction>
0.1319

> <Gold.Rescore>
     Score         DG    S(hbond)    S(metal)    S(lipo)     H(rot)  DE(clash)    DE(int)     intcor
     18.31     -19.72       1.78        0.00     108.88       1.74       0.12       1.29       ----

> <Gold.Chemscore.Fitness>
18.3062

> <Gold.Chemscore.DG>
-19.7209

> <Gold.Chemscore.ZeroCoef>
-5.4800

> <Gold.Chemscore.Hbond>
1.7797

> <Gold.Chemscore.Metal>
0.0000

> <Gold.Chemscore.Lipo>
108.8778

> <Gold.Chemscore.Internal_Hbond>
0.0000

> <Gold.Chemscore.DEClash>
0.1212

> <Gold.Chemscore.DEInternal>
1.2935

> <Gold.Chemscore.Rot>
1.7352

> <Gold.Chemscore.Internal.Correction>
   9.000000E+99

> <Gold.Chemscore.Hbonds>
donor molecule, donor type, donor heavy atom, donor atom, acceptor molecule, acceptor atom, score
      P1  H  7989  7998       L1    10  0.02
      P1  H  7997  8009       L1    14  0.61

> <Gold.Chemscore.Hbond.Weighted>
-5.9443

> <Gold.Chemscore.Metal.Weighted>
-0.0000

> <Gold.Chemscore.Lipo.Weighted>
-12.7387

> <Gold.Chemscore.Internal_Hbond.Weighted>
0.0000

> <Gold.Chemscore.DEClash.Weighted>
0.1212

> <Gold.Chemscore.DEInternal.Weighted>
1.2935

> <Gold.Chemscore.Rot.Weighted>
4.4420

> <Gold.Chemscore.Internal.Correction.Weighted>
   9.000000E+99

> <Gold.Protein.RotatedTorsions>
[ 6907 6896 6895 6894 ] final  179.97 input  -60.11 | X-H torsion
[ 7974 7965 7964 7962 ] final  -57.96 input  175.53 | X-H torsion
[ 8008 7997 7996 7995 ] final  154.83 input   59.86 | X-H torsion
[ 10167 10162 10161 10158 ] final  -74.48 input  -65.29 | X-H torsion
[ 10718 10713 10712 10709 ] final  -53.03 input   66.30 | X-H torsion
[ 10763 10752 10751 10750 ] final -166.72 input  -60.55 | X-H torsion
[ 11005 11000 10999 10996 ] final   99.94 input  -57.11 | X-H torsion

> <Gold.Protein.ActiveResidues>
 VAL166  LYS551  ARG553  GLY616  TRP617  ASP618  TYR619  PRO620  LYS621  CYS622 
 ASP623  PHE694  ASN695  SER759  ASP760  ASP761  ALA762  ILE779  LEU786  VAL792 
 PHE793  MET794  SER795  GLU796  ALA797  LYS798  CYS799  TRP800  GLU811  SER814 

> <Gold.Protein.RotatedAtoms>
  151.6631  133.3316  159.3178 H   0  0  0  0  0  0  0  0  0  0  0  0  # atno 6907 bound_to 6896
  150.7904  134.6926  159.6515 H   0  0  0  0  0  0  0  0  0  0  0  0  # atno 6908 bound_to 6896
  152.3982  134.6334  160.0133 H   0  0  0  0  0  0  0  0  0  0  0  0  # atno 6909 bound_to 6896
  145.8449  140.8392  143.0015 H   0  0  0  0  0  0  0  0  0  0  0  0  # atno 7974 bound_to 7965
  156.2511  140.1956  156.6706 H   0  0  0  0  0  0  0  0  0  0  0  0  # atno 8008 bound_to 7997
  154.6395  140.0585  156.9855 H   0  0  0  0  0  0  0  0  0  0  0  0  # atno 8009 bound_to 7997
  155.1584  140.3257  155.4419 H   0  0  0  0  0  0  0  0  0  0  0  0  # atno 8010 bound_to 7997
  140.5023  143.2359  151.7732 H   0  0  0  0  0  0  0  0  0  0  0  0  # atno 10167 bound_to 10162
  156.1570  130.4150  149.9853 H   0  0  0  0  0  0  0  0  0  0  0  0  # atno 10718 bound_to 10713
  154.6804  135.2953  154.9620 H   0  0  0  0  0  0  0  0  0  0  0  0  # atno 10763 bound_to 10752
  154.0617  135.6630  153.4816 H   0  0  0  0  0  0  0  0  0  0  0  0  # atno 10764 bound_to 10752
  153.0544  135.5154  154.7845 H   0  0  0  0  0  0  0  0  0  0  0  0  # atno 10765 bound_to 10752
  139.8770  134.9118  156.4681 H   0  0  0  0  0  0  0  0  0  0  0  0  # atno 11005 bound_to 11000
  144.6731  140.0867  143.7467 LP  0  0  0  0  0  0  0  0  0  0  0  0  # atno 17320 bound_to 7965
  145.9423  139.2677  143.1261 LP  0  0  0  0  0  0  0  0  0  0  0  0  # atno 17321 bound_to 7965
  139.4875  144.4505  151.9659 LP  0  0  0  0  0  0  0  0  0  0  0  0  # atno 17342 bound_to 10162
  140.3594  144.2991  150.5936 LP  0  0  0  0  0  0  0  0  0  0  0  0  # atno 17343 bound_to 10162
  156.7693  130.9180  151.3644 LP  0  0  0  0  0  0  0  0  0  0  0  0  # atno 17370 bound_to 10713
  157.6703  130.9045  150.0025 LP  0  0  0  0  0  0  0  0  0  0  0  0  # atno 17371 bound_to 10713
  140.8815  133.7914  155.9472 LP  0  0  0  0  0  0  0  0  0  0  0  0  # atno 17394 bound_to 11000
  140.8849  134.2566  157.5125 LP  0  0  0  0  0  0  0  0  0  0  0  0  # atno 17395 bound_to 11000

$$$$
