AV-unprocessed.smi:490|AV-procd|sdf|2705|dock6
  -GOLD-   2262023143D 1   1.00000     0.00000
 Structure written by MMmdl.
 50 52  0  0  0  0  0  0  0  0  2 V2000
  152.5883  143.5483  158.9809 C   0  0  0  0  0  0  0  0  0  0  0  0
  152.9247  142.1622  159.5039 C   0  0  0  0  0  0  0  0  0  0  0  0
  153.6488  142.0445  160.7078 C   0  0  0  0  0  0  0  0  0  0  0  0
  153.9796  140.7774  161.2188 C   0  0  0  0  0  0  0  0  0  0  0  0
  153.5799  139.6124  160.5364 C   0  0  0  0  0  0  0  0  0  0  0  0
  153.9458  138.2513  161.0985 C   0  0  0  0  0  0  0  0  0  0  0  0
  152.8376  139.7189  159.3380 C   0  0  0  0  0  0  0  0  0  0  0  0
  152.4408  138.5746  158.6941 O   0  0  0  0  0  0  0  0  0  0  0  0
  151.4006  137.8791  159.3663 C   0  0  0  0  0  0  0  0  0  0  0  0
  150.6173  137.0355  158.3492 C   0  0  2  0  0  0  0  0  0  0  0  0
  149.8437  136.0836  159.0526 O   0  0  0  0  0  0  0  0  0  0  0  0
  151.5573  136.3043  157.3698 C   0  0  0  0  0  0  0  0  0  0  0  0
  150.8736  135.8485  156.1482 N   0  0  0  0  0  0  0  0  0  0  0  0
  150.4222  136.5670  155.0796 C   0  0  0  0  0  0  0  0  0  0  0  0
  150.5154  138.0450  154.8884 C   0  0  0  0  0  0  0  0  0  0  0  0
  149.7076  138.5013  153.8264 O   0  0  0  0  0  0  0  0  0  0  0  0
  149.8729  135.6826  154.2005 N   0  3  0  0  0  0  0  0  0  0  0  0
  149.9687  134.3878  154.7107 C   0  0  0  0  0  0  0  0  0  0  0  0
  149.5531  133.1693  154.1828 C   0  0  0  0  0  0  0  0  0  0  0  0
  149.8013  132.0229  154.9654 C   0  0  0  0  0  0  0  0  0  0  0  0
  150.4396  132.1144  156.2191 C   0  0  0  0  0  0  0  0  0  0  0  0
  150.8585  133.3553  156.7431 C   0  0  0  0  0  0  0  0  0  0  0  0
  150.6099  134.4852  155.9632 C   0  0  0  0  0  0  0  0  0  0  0  0
  152.5248  140.9954  158.8052 C   0  0  0  0  0  0  0  0  0  0  0  0
  151.7640  141.1125  157.4912 C   0  0  0  0  0  0  0  0  0  0  0  0
  152.8494  144.3201  159.7056 H   0  0  0  0  0  0  0  0  0  0  0  0
  151.5213  143.6343  158.7747 H   0  0  0  0  0  0  0  0  0  0  0  0
  153.1379  143.7523  158.0618 H   0  0  0  0  0  0  0  0  0  0  0  0
  153.9596  142.9286  161.2453 H   0  0  0  0  0  0  0  0  0  0  0  0
  154.5402  140.7042  162.1391 H   0  0  0  0  0  0  0  0  0  0  0  0
  154.3205  137.5971  160.3107 H   0  0  0  0  0  0  0  0  0  0  0  0
  153.0724  137.7814  161.5506 H   0  0  0  0  0  0  0  0  0  0  0  0
  154.7211  138.3337  161.8608 H   0  0  0  0  0  0  0  0  0  0  0  0
  151.8547  137.2225  160.1104 H   0  0  0  0  0  0  0  0  0  0  0  0
  150.7405  138.5591  159.9074 H   0  0  0  0  0  0  0  0  0  0  0  0
  149.9469  137.6814  157.7811 H   0  0  0  0  0  0  0  0  0  0  0  0
  149.1988  135.7257  158.4621 H   0  0  0  0  0  0  0  0  0  0  0  0
  152.3564  136.9759  157.0539 H   0  0  0  0  0  0  0  0  0  0  0  0
  152.0500  135.4581  157.8487 H   0  0  0  0  0  0  0  0  0  0  0  0
  150.2121  138.5502  155.8059 H   0  0  0  0  0  0  0  0  0  0  0  0
  151.5514  138.3238  154.6962 H   0  0  0  0  0  0  0  0  0  0  0  0
  149.7407  137.8651  153.1280 H   0  0  0  0  0  0  0  0  0  0  0  0
  149.0638  133.0973  153.2225 H   0  0  0  0  0  0  0  0  0  0  0  0
  149.4957  131.0543  154.5965 H   0  0  0  0  0  0  0  0  0  0  0  0
  150.6115  131.2141  156.7914 H   0  0  0  0  0  0  0  0  0  0  0  0
  151.3434  133.4112  157.7059 H   0  0  0  0  0  0  0  0  0  0  0  0
  151.7632  140.1774  156.9315 H   0  0  0  0  0  0  0  0  0  0  0  0
  152.2133  141.8671  156.8458 H   0  0  0  0  0  0  0  0  0  0  0  0
  150.7283  141.3942  157.6809 H   0  0  0  0  0  0  0  0  0  0  0  0
  149.4650  135.9492  153.3137 H   0  0  0  0  0  0  0  0  0  0  0  0
  1  2  1  0  0  0  0
  1 26  1  0  0  0  0
  1 27  1  0  0  0  0
  1 28  1  0  0  0  0
  2 24  1  0  0  0  0
  2  3  2  0  0  0  0
  3  4  1  0  0  0  0
  3 29  1  0  0  0  0
  4  5  2  0  0  0  0
  4 30  1  0  0  0  0
  5  6  1  0  0  0  0
  5  7  1  0  0  0  0
  6 31  1  0  0  0  0
  6 32  1  0  0  0  0
  6 33  1  0  0  0  0
  7  8  1  0  0  0  0
  7 24  2  0  0  0  0
  8  9  1  0  0  0  0
  9 10  1  0  0  0  0
  9 34  1  0  0  0  0
  9 35  1  0  0  0  0
 10 11  1  0  0  0  0
 10 12  1  0  0  0  0
 10 36  1  0  0  0  0
 11 37  1  0  0  0  0
 12 13  1  0  0  0  0
 12 38  1  0  0  0  0
 12 39  1  0  0  0  0
 13 23  1  0  0  0  0
 13 14  1  0  0  0  0
 14 15  1  0  0  0  0
 14 17  2  0  0  0  0
 15 16  1  0  0  0  0
 15 40  1  0  0  0  0
 15 41  1  0  0  0  0
 16 42  1  0  0  0  0
 17 18  1  0  0  0  0
 17 50  1  0  0  0  0
 18 23  2  0  0  0  0
 18 19  1  0  0  0  0
 19 20  2  0  0  0  0
 19 43  1  0  0  0  0
 20 21  1  0  0  0  0
 20 44  1  0  0  0  0
 21 22  2  0  0  0  0
 21 45  1  0  0  0  0
 22 23  1  0  0  0  0
 22 46  1  0  0  0  0
 24 25  1  0  0  0  0
 25 47  1  0  0  0  0
 25 48  1  0  0  0  0
 25 49  1  0  0  0  0
M  CHG  1  17   1
M  END
> <s_m_source_file>
AV-unprocessed.smi

> <i_m_source_file_index>
490

> <i_lp_mmshare_version>
43012

> <i_f3d_flags>
0

> <s_epik_input>
W0NIM11jMVtjSF1bY0hdYyhbQ0gzXSljKGMxW0NIM10pT1tDSDJdW0NASF0oW09IXSlbQ0gyXW4oYyhuMilbQ0gyXVtPSF0pYyhjMjMpW2NIXVtjSF1bY0hdW2NIXTM=

> <s_epik_cmdline>
J2VwaWtfcHl0aG9uJywgJy1waCcsICc3LjAnLCAnLXRuJywgJzgnLCAnLW1hJywgJzIwMCcsICctbWV0YWxfYmluZGluZycsICctaW1hZScsICc8aW5maWxlLm1hZT4nLCAnLW9tYWUnLCAnPG91dGZpbGUubWFlPic=

> <r_lp_tautomer_probability>
1

> <r_epik_Ionization_Penalty>
1.43125

> <r_epik_Ionization_Penalty_Charging>
1.43039

> <r_epik_Ionization_Penalty_Neutral>
0.000858184

> <r_epik_State_Penalty>
1.51493

> <r_epik_Charging_Adjusted_Penalty>
2.94531

> <i_epik_Tot_Q>
1

> <i_epik_Tot_abs_Q>
1

> <r_epik_Metal_State_Penalty>
5.5599

> <b_epik_Metal_Only>
0

> <s_lp_Force_Field>
OPLS_2005

> <r_lp_Energy>
24.6054

> <b_lp_Chiralities_Consistent>
1

> <s_lp_Variant>
AV-unprocessed.smi:490-3

> <Gold.Version>
5.8.1

> <Gold.Id.Protein>
6NUR|6NUR_protein|mol2

> <Gold.PLP.Fitness>
57.6973

> <Gold.PLP.PLP>
-47.4013

> <Gold.PLP.part.hbond>
-4.1973

> <Gold.PLP.part.metal>
0.0000

> <Gold.PLP.part.buried>
-5.0248

> <Gold.PLP.part.nonpolar>
-40.4983

> <Gold.PLP.part.repulsive>
0.0376

> <Gold.PLP.ligand.clash>
0.0000

> <Gold.PLP.ligand.torsion>
0.8415

> <Gold.PLP.Chemscore.Hbond>
3.9500

> <Gold.PLP.Chemscore.CHOScore>
0.0000

> <Gold.PLP.Chemscore.Metal>
0.0000

> <Gold.Chemscore.Hbonds>
donor molecule, donor type, donor heavy atom, donor atom, acceptor molecule, acceptor atom, score
      L1  H    16    42       P1  7948  0.65
      L1  H    17    50       P1  7948  1.98
      P1  H  6896  6908       L1    11  1.00

> <Gold.PLP.Chemscore.Internal.Correction>
0.1290

> <Gold.Rescore>
     Score         DG    S(hbond)    S(metal)    S(lipo)     H(rot)  DE(clash)    DE(int)     intcor
     18.68     -20.24       2.56        0.00     119.13       3.02       0.00       1.55       ----

> <Gold.Chemscore.Fitness>
18.6845

> <Gold.Chemscore.DG>
-20.2400

> <Gold.Chemscore.ZeroCoef>
-5.4800

> <Gold.Chemscore.Hbond>
2.5591

> <Gold.Chemscore.Metal>
0.0000

> <Gold.Chemscore.Lipo>
119.1327

> <Gold.Chemscore.Internal_Hbond>
0.0000

> <Gold.Chemscore.DEClash>
0.0029

> <Gold.Chemscore.DEInternal>
1.5526

> <Gold.Chemscore.Rot>
3.0180

> <Gold.Chemscore.Internal.Correction>
   9.000000E+99

> <Gold.Chemscore.Hbonds>
donor molecule, donor type, donor heavy atom, donor atom, acceptor molecule, acceptor atom, score
      L1  H    16    42       P1  7948  0.42
      L1  H    17    50       P1  7948  0.32
      P1  H  6896  6908       L1    11  0.44

> <Gold.Chemscore.Hbond.Weighted>
-8.5475

> <Gold.Chemscore.Metal.Weighted>
-0.0000

> <Gold.Chemscore.Lipo.Weighted>
-13.9385

> <Gold.Chemscore.Internal_Hbond.Weighted>
0.0000

> <Gold.Chemscore.DEClash.Weighted>
0.0029

> <Gold.Chemscore.DEInternal.Weighted>
1.5526

> <Gold.Chemscore.Rot.Weighted>
7.7260

> <Gold.Chemscore.Internal.Correction.Weighted>
   9.000000E+99

> <Gold.Protein.RotatedTorsions>
[ 6907 6896 6895 6894 ] final  177.24 input  -60.11 | X-H torsion
[ 7974 7965 7964 7962 ] final -125.06 input  175.53 | X-H torsion
[ 8008 7997 7996 7995 ] final  161.48 input   59.86 | X-H torsion
[ 10167 10162 10161 10158 ] final  170.78 input  -65.29 | X-H torsion
[ 10718 10713 10712 10709 ] final  -57.44 input   66.30 | X-H torsion
[ 10763 10752 10751 10750 ] final  -77.71 input  -60.55 | X-H torsion
[ 11005 11000 10999 10996 ] final  -94.29 input  -57.11 | X-H torsion

> <Gold.Protein.ActiveResidues>
 VAL166  LYS551  ARG553  GLY616  TRP617  ASP618  TYR619  PRO620  LYS621  CYS622 
 ASP623  PHE694  ASN695  SER759  ASP760  ASP761  ALA762  ILE779  LEU786  VAL792 
 PHE793  MET794  SER795  GLU796  ALA797  LYS798  CYS799  TRP800  GLU811  SER814 

> <Gold.Protein.RotatedAtoms>
  151.7072  133.3312  159.3281 H   0  0  0  0  0  0  0  0  0  0  0  0  # atno 6907 bound_to 6896
  150.7710  134.6564  159.6325 H   0  0  0  0  0  0  0  0  0  0  0  0  # atno 6908 bound_to 6896
  152.3734  134.6703  160.0220 H   0  0  0  0  0  0  0  0  0  0  0  0  # atno 6909 bound_to 6896
  145.0016  140.7825  143.4493 H   0  0  0  0  0  0  0  0  0  0  0  0  # atno 7974 bound_to 7965
  156.2100  140.1776  156.7715 H   0  0  0  0  0  0  0  0  0  0  0  0  # atno 8008 bound_to 7997
  154.5709  140.0682  156.8993 H   0  0  0  0  0  0  0  0  0  0  0  0  # atno 8009 bound_to 7997
  155.2674  140.3340  155.4270 H   0  0  0  0  0  0  0  0  0  0  0  0  # atno 8010 bound_to 7997
  139.5028  144.3559  151.9875 H   0  0  0  0  0  0  0  0  0  0  0  0  # atno 10167 bound_to 10162
  156.1210  130.4166  150.0441 H   0  0  0  0  0  0  0  0  0  0  0  0  # atno 10718 bound_to 10713
  154.5164  135.5755  153.6646 H   0  0  0  0  0  0  0  0  0  0  0  0  # atno 10763 bound_to 10752
  152.9908  135.6171  154.2812 H   0  0  0  0  0  0  0  0  0  0  0  0  # atno 10764 bound_to 10752
  154.2730  135.2853  155.2710 H   0  0  0  0  0  0  0  0  0  0  0  0  # atno 10765 bound_to 10752
  141.1474  133.7946  157.0278 H   0  0  0  0  0  0  0  0  0  0  0  0  # atno 11005 bound_to 11000
  145.2145  139.2188  143.5125 LP  0  0  0  0  0  0  0  0  0  0  0  0  # atno 17320 bound_to 7965
  146.3453  140.1991  142.8589 LP  0  0  0  0  0  0  0  0  0  0  0  0  # atno 17321 bound_to 7965
  140.2995  144.3662  150.6064 LP  0  0  0  0  0  0  0  0  0  0  0  0  # atno 17342 bound_to 10162
  140.5884  143.2169  151.7299 LP  0  0  0  0  0  0  0  0  0  0  0  0  # atno 17343 bound_to 10162
  156.8380  130.9415  151.3633 LP  0  0  0  0  0  0  0  0  0  0  0  0  # atno 17370 bound_to 10713
  157.6393  130.8793  149.9419 LP  0  0  0  0  0  0  0  0  0  0  0  0  # atno 17371 bound_to 10713
  140.0774  134.9668  157.1568 LP  0  0  0  0  0  0  0  0  0  0  0  0  # atno 17394 bound_to 11000
  140.3625  134.2479  155.7185 LP  0  0  0  0  0  0  0  0  0  0  0  0  # atno 17395 bound_to 11000

$$$$
