AV-unprocessed.smi:699|AV-procd|sdf|3399|dock2
  -GOLD-   22720 0383D 1   1.00000     0.00000
 Structure written by MMmdl.
 34 35  0  0  0  0  0  0  0  0  1 V2000
  152.5410  140.6968  158.6478 N   0  0  0  0  0  0  0  0  0  0  0  0
  152.9244  141.8501  159.2009 C   0  0  0  0  0  0  0  0  0  0  0  0
  153.7791  141.8986  160.0838 O   0  0  0  0  0  0  0  0  0  0  0  0
  152.2466  143.1308  158.6889 C   0  0  2  0  0  0  0  0  0  0  0  0
  152.7064  144.3899  159.4437 C   0  0  0  0  0  0  0  0  0  0  0  0
  151.5143  145.3396  159.3758 C   0  0  0  0  0  0  0  0  0  0  0  0
  150.3008  144.4233  159.5094 C   0  0  0  0  0  0  0  0  0  0  0  0
  150.7011  143.0977  158.8394 C   0  0  1  0  0  0  0  0  0  0  0  0
  150.0323  142.9496  157.5478 N   0  0  0  0  0  0  0  0  0  0  0  0
  149.6910  141.7832  156.9814 C   0  0  0  0  0  0  0  0  0  0  0  0
  149.9122  140.6887  157.4989 O   0  0  0  0  0  0  0  0  0  0  0  0
  149.1074  141.9776  155.7858 N   0  0  0  0  0  0  0  0  0  0  0  0
  148.6064  141.0110  154.8716 C   0  0  0  0  0  0  0  0  0  0  0  0
  147.5478  141.3982  154.0238 C   0  0  0  0  0  0  0  0  0  0  0  0
  147.0229  140.4553  153.1175 C   0  0  0  0  0  0  0  0  0  0  0  0
  147.4755  139.1877  153.0213 N   0  0  0  0  0  0  0  0  0  0  0  0
  148.4785  138.8139  153.8435 C   0  0  0  0  0  0  0  0  0  0  0  0
  149.0743  139.6775  154.7845 C   0  0  0  0  0  0  0  0  0  0  0  0
  152.9511  139.8299  158.9640 H   0  0  0  0  0  0  0  0  0  0  0  0
  151.8348  140.6923  157.9264 H   0  0  0  0  0  0  0  0  0  0  0  0
  152.5026  143.2718  157.6364 H   0  0  0  0  0  0  0  0  0  0  0  0
  152.9312  144.1686  160.4887 H   0  0  0  0  0  0  0  0  0  0  0  0
  153.6011  144.8310  159.0029 H   0  0  0  0  0  0  0  0  0  0  0  0
  151.5458  146.1100  160.1466 H   0  0  0  0  0  0  0  0  0  0  0  0
  151.4945  145.8376  158.4055 H   0  0  0  0  0  0  0  0  0  0  0  0
  150.1064  144.2446  160.5679 H   0  0  0  0  0  0  0  0  0  0  0  0
  149.3978  144.8683  159.0891 H   0  0  0  0  0  0  0  0  0  0  0  0
  150.3739  142.2810  159.4871 H   0  0  0  0  0  0  0  0  0  0  0  0
  149.8163  143.8009  157.0501 H   0  0  0  0  0  0  0  0  0  0  0  0
  149.0646  142.9340  155.4660 H   0  0  0  0  0  0  0  0  0  0  0  0
  147.1450  142.4000  154.0593 H   0  0  0  0  0  0  0  0  0  0  0  0
  146.2163  140.7271  152.4528 H   0  0  0  0  0  0  0  0  0  0  0  0
  148.8139  137.7912  153.7537 H   0  0  0  0  0  0  0  0  0  0  0  0
  149.8594  139.2973  155.4194 H   0  0  0  0  0  0  0  0  0  0  0  0
  1  2  1  0  0  0  0
  1 19  1  0  0  0  0
  1 20  1  0  0  0  0
  2  3  2  0  0  0  0
  2  4  1  0  0  0  0
  4  8  1  0  0  0  0
  4  5  1  0  0  0  0
  4 21  1  0  0  0  0
  5  6  1  0  0  0  0
  5 22  1  0  0  0  0
  5 23  1  0  0  0  0
  6  7  1  0  0  0  0
  6 24  1  0  0  0  0
  6 25  1  0  0  0  0
  7  8  1  0  0  0  0
  7 26  1  0  0  0  0
  7 27  1  0  0  0  0
  8  9  1  0  0  0  0
  8 28  1  0  0  0  0
  9 10  1  0  0  0  0
  9 29  1  0  0  0  0
 10 11  2  0  0  0  0
 10 12  1  0  0  0  0
 12 13  1  0  0  0  0
 12 30  1  0  0  0  0
 13 18  1  0  0  0  0
 13 14  2  0  0  0  0
 14 15  1  0  0  0  0
 14 31  1  0  0  0  0
 15 16  2  0  0  0  0
 15 32  1  0  0  0  0
 16 17  1  0  0  0  0
 17 18  2  0  0  0  0
 17 33  1  0  0  0  0
 18 34  1  0  0  0  0
M  END
> <s_m_source_file>
AV-unprocessed.smi

> <i_m_source_file_index>
699

> <i_lp_mmshare_version>
43012

> <i_f3d_flags>
0

> <s_epik_input>
W05IMl1DKD1PKVtDQEBIXTFbQ0gyXVtDSDJdW0NIMl1bQ0BIXTFbTkhdQyg9TylbTkhdYzJbY0hdW2NIXW5bY0hdW2NIXTI=

> <s_epik_cmdline>
J2VwaWtfcHl0aG9uJywgJy1waCcsICc3LjAnLCAnLXRuJywgJzgnLCAnLW1hJywgJzIwMCcsICctbWV0YWxfYmluZGluZycsICctaW1hZScsICc8aW5maWxlLm1hZT4nLCAnLW9tYWUnLCAnPG91dGZpbGUubWFlPic=

> <r_epik_Ionization_Penalty>
0.113907

> <r_epik_Ionization_Penalty_Charging>
0

> <r_epik_Ionization_Penalty_Neutral>
0.113907

> <r_epik_State_Penalty>
0.103543

> <r_epik_Charging_Adjusted_Penalty>
0.103543

> <i_epik_Tot_Q>
0

> <i_epik_Tot_abs_Q>
0

> <r_epik_Metal_State_Penalty>
0.0867106

> <b_epik_Metal_Only>
0

> <s_lp_Force_Field>
OPLS_2005

> <r_lp_Energy>
19.5976

> <b_lp_Chiralities_Consistent>
1

> <s_lp_Variant>
AV-unprocessed.smi:699-1

> <Gold.Version>
5.8.1

> <Gold.Id.Protein>
6NUR|6NUR_protein|mol2

> <Gold.PLP.Fitness>
43.6653

> <Gold.PLP.PLP>
-32.7622

> <Gold.PLP.part.hbond>
-2.0000

> <Gold.PLP.part.metal>
0.0000

> <Gold.PLP.part.buried>
-6.1301

> <Gold.PLP.part.nonpolar>
-27.2239

> <Gold.PLP.part.repulsive>
1.6768

> <Gold.PLP.ligand.clash>
0.0000

> <Gold.PLP.ligand.torsion>
0.5458

> <Gold.PLP.Chemscore.Hbond>
2.0000

> <Gold.PLP.Chemscore.CHOScore>
1.9970

> <Gold.PLP.Chemscore.Metal>
0.0000

> <Gold.Chemscore.Hbonds>
donor molecule, donor type, donor heavy atom, donor atom, acceptor molecule, acceptor atom, score
      L1  H     9    29       P1  8028  1.00
      L1  H    12    30       P1  8028  1.00
      L1  C    15    32       P1 10175  1.00
      L1  C    17    33       P1  7948  1.00

> <Gold.PLP.Chemscore.Internal.Correction>
0.0035

> <Gold.Rescore>
     Score         DG    S(hbond)    S(metal)    S(lipo)     H(rot)  DE(clash)    DE(int)     intcor
     15.11     -17.99       1.89        0.00      85.46       1.49       0.04       2.84       ----

> <Gold.Chemscore.Fitness>
15.1140

> <Gold.Chemscore.DG>
-17.9911

> <Gold.Chemscore.ZeroCoef>
-5.4800

> <Gold.Chemscore.Hbond>
1.8937

> <Gold.Chemscore.Metal>
0.0000

> <Gold.Chemscore.Lipo>
85.4577

> <Gold.Chemscore.Internal_Hbond>
0.0000

> <Gold.Chemscore.DEClash>
0.0375

> <Gold.Chemscore.DEInternal>
2.8396

> <Gold.Chemscore.Rot>
1.4892

> <Gold.Chemscore.Internal.Correction>
   9.000000E+99

> <Gold.Chemscore.Hbonds>
donor molecule, donor type, donor heavy atom, donor atom, acceptor molecule, acceptor atom, score
      L1  H     9    29       P1  8028  0.89
      L1  H    12    30       P1  8028  0.99

> <Gold.Chemscore.Hbond.Weighted>
-6.3248

> <Gold.Chemscore.Metal.Weighted>
-0.0000

> <Gold.Chemscore.Lipo.Weighted>
-9.9986

> <Gold.Chemscore.Internal_Hbond.Weighted>
0.0000

> <Gold.Chemscore.DEClash.Weighted>
0.0375

> <Gold.Chemscore.DEInternal.Weighted>
2.8396

> <Gold.Chemscore.Rot.Weighted>
3.8123

> <Gold.Chemscore.Internal.Correction.Weighted>
   9.000000E+99

> <Gold.Protein.RotatedTorsions>
[ 6907 6896 6895 6894 ] final   82.53 input  -60.11 | X-H torsion
[ 7974 7965 7964 7962 ] final    1.73 input  175.53 | X-H torsion
[ 8008 7997 7996 7995 ] final   53.43 input   59.86 | X-H torsion
[ 10167 10162 10161 10158 ] final  147.59 input  -65.29 | X-H torsion
[ 10718 10713 10712 10709 ] final  102.95 input   66.30 | X-H torsion
[ 10763 10752 10751 10750 ] final  -24.12 input  -60.55 | X-H torsion
[ 11005 11000 10999 10996 ] final -134.61 input  -57.11 | X-H torsion

> <Gold.Protein.ActiveResidues>
 VAL166  LYS551  ARG553  GLY616  TRP617  ASP618  TYR619  PRO620  LYS621  CYS622 
 ASP623  PHE694  ASN695  SER759  ASP760  ASP761  ALA762  ILE779  LEU786  VAL792 
 PHE793  MET794  SER795  GLU796  ALA797  LYS798  CYS799  TRP800  GLU811  SER814 

> <Gold.Protein.RotatedAtoms>
  152.5302  134.3035  159.9087 H   0  0  0  0  0  0  0  0  0  0  0  0  # atno 6907 bound_to 6896
  151.2986  133.4126  159.2646 H   0  0  0  0  0  0  0  0  0  0  0  0  # atno 6908 bound_to 6896
  151.0139  134.9434  159.8079 H   0  0  0  0  0  0  0  0  0  0  0  0  # atno 6909 bound_to 6896
  146.2441  140.0942  142.8350 H   0  0  0  0  0  0  0  0  0  0  0  0  # atno 7974 bound_to 7965
  155.4681  140.3464  155.4322 H   0  0  0  0  0  0  0  0  0  0  0  0  # atno 8008 bound_to 7997
  156.1118  140.1463  156.9357 H   0  0  0  0  0  0  0  0  0  0  0  0  # atno 8009 bound_to 7997
  154.4761  140.0884  156.7245 H   0  0  0  0  0  0  0  0  0  0  0  0  # atno 8010 bound_to 7997
  139.4888  144.5744  151.6994 H   0  0  0  0  0  0  0  0  0  0  0  0  # atno 10167 bound_to 10162
  157.6787  131.0766  150.5481 H   0  0  0  0  0  0  0  0  0  0  0  0  # atno 10718 bound_to 10713
  153.6787  135.6968  153.5124 H   0  0  0  0  0  0  0  0  0  0  0  0  # atno 10763 bound_to 10752
  153.2501  135.4277  155.0788 H   0  0  0  0  0  0  0  0  0  0  0  0  # atno 10764 bound_to 10752
  154.8406  135.3529  154.6331 H   0  0  0  0  0  0  0  0  0  0  0  0  # atno 10765 bound_to 10752
  140.8974  134.1734  157.4485 H   0  0  0  0  0  0  0  0  0  0  0  0  # atno 11005 bound_to 11000
  145.0624  140.9097  143.4931 LP  0  0  0  0  0  0  0  0  0  0  0  0  # atno 17320 bound_to 7965
  145.1060  139.2789  143.5662 LP  0  0  0  0  0  0  0  0  0  0  0  0  # atno 17321 bound_to 7965
  140.5337  144.0690  150.6063 LP  0  0  0  0  0  0  0  0  0  0  0  0  # atno 17342 bound_to 10162
  140.3688  143.2866  152.0301 LP  0  0  0  0  0  0  0  0  0  0  0  0  # atno 17343 bound_to 10162
  156.5786  130.4298  149.5987 LP  0  0  0  0  0  0  0  0  0  0  0  0  # atno 17370 bound_to 10713
  156.2680  130.7000  151.1789 LP  0  0  0  0  0  0  0  0  0  0  0  0  # atno 17371 bound_to 10713
  139.8737  134.9884  156.5410 LP  0  0  0  0  0  0  0  0  0  0  0  0  # atno 17394 bound_to 11000
  140.8272  133.8307  155.8950 LP  0  0  0  0  0  0  0  0  0  0  0  0  # atno 17395 bound_to 11000

$$$$
