AV-unprocessed.smi:177|AV-procd|sdf|1439|dock3
  -GOLD-   2262019223D 1   1.00000     0.00000
 Structure written by MMmdl.
 61 65  0  0  0  0  0  0  0  0  1 V2000
  152.0187  145.5568  159.9420 C   0  0  0  0  0  0  0  0  0  0  0  0
  152.2481  144.6481  158.8759 O   0  0  0  0  0  0  0  0  0  0  0  0
  151.7413  143.3391  159.1032 C   0  0  2  0  0  0  0  0  0  0  0  0
  152.9418  142.4216  159.3833 C   0  0  0  0  0  0  0  0  0  0  0  0
  152.4923  140.9705  159.6124 C   0  0  0  0  0  0  0  0  0  0  0  0
  151.6615  140.4286  158.4364 C   0  0  2  0  0  0  0  0  0  0  0  0
  152.5035  140.2563  157.2991 O   0  0  0  0  0  0  0  0  0  0  0  0
  151.8167  139.6382  156.2160 C   0  0  0  0  0  0  0  0  0  0  0  0
  150.6457  140.5262  155.7667 C   0  0  0  0  0  0  0  0  0  0  0  0
  149.7815  140.8411  156.9046 N   0  0  0  0  0  0  0  0  0  0  0  0
  148.5552  141.3697  156.6468 C   0  0  0  0  0  0  0  0  0  0  0  0
  147.9908  141.1916  155.4217 N   0  0  0  0  0  0  0  0  0  0  0  0
  146.7945  141.7162  155.1432 C   0  0  0  0  0  0  0  0  0  0  0  0
  146.0006  142.4438  155.9293 N   0  0  0  0  0  0  0  0  0  0  0  0
  146.5555  142.6258  157.1613 C   0  0  0  0  0  0  0  0  0  0  0  0
  147.8118  142.1203  157.6029 C   0  0  0  0  0  0  0  0  0  0  0  0
  148.0215  142.4803  158.9291 N   0  0  0  0  0  0  0  0  0  0  0  0
  146.9603  143.1693  159.2464 C   0  0  0  0  0  0  0  0  0  0  0  0
  146.0366  143.3249  158.2379 N   0  0  0  0  0  0  0  0  0  0  0  0
  144.7698  144.0376  158.3213 C   0  0  0  0  0  0  0  0  0  0  0  0
  144.4135  144.6284  159.7198 C   0  0  0  0  0  0  0  0  0  0  0  0
  145.5142  145.6211  160.2014 C   0  0  0  0  0  0  0  0  0  0  0  0
  145.7862  146.6613  159.2838 O   0  0  0  0  0  0  0  0  0  0  0  0
  143.0095  145.2864  159.7092 C   0  0  0  0  0  0  0  0  0  0  0  0
  142.4862  145.5896  161.1232 C   0  0  0  0  0  0  0  0  0  0  0  0
  142.4366  144.3899  161.8840 O   0  0  0  0  0  0  0  0  0  0  0  0
  143.7167  143.8001  162.0683 C   0  0  0  0  0  0  0  0  0  0  0  0
  144.3369  143.4341  160.7052 C   0  0  0  0  0  0  0  0  0  0  0  0
  150.4848  141.3678  158.0783 C   0  0  2  0  0  0  0  0  0  0  0  0
  150.9587  142.8270  157.8785 C   0  0  0  0  0  0  0  0  0  0  0  0
  152.4749  146.5170  159.7023 H   0  0  0  0  0  0  0  0  0  0  0  0
  152.4665  145.1988  160.8696 H   0  0  0  0  0  0  0  0  0  0  0  0
  150.9560  145.7290  160.1101 H   0  0  0  0  0  0  0  0  0  0  0  0
  151.0955  143.3401  159.9835 H   0  0  0  0  0  0  0  0  0  0  0  0
  153.6404  142.4611  158.5463 H   0  0  0  0  0  0  0  0  0  0  0  0
  153.4869  142.7797  160.2571 H   0  0  0  0  0  0  0  0  0  0  0  0
  153.3597  140.3317  159.7813 H   0  0  0  0  0  0  0  0  0  0  0  0
  151.8952  140.9230  160.5238 H   0  0  0  0  0  0  0  0  0  0  0  0
  151.2699  139.4511  158.7246 H   0  0  0  0  0  0  0  0  0  0  0  0
  152.5130  139.4905  155.3907 H   0  0  0  0  0  0  0  0  0  0  0  0
  151.4621  138.6500  156.5131 H   0  0  0  0  0  0  0  0  0  0  0  0
  151.0228  141.4471  155.3210 H   0  0  0  0  0  0  0  0  0  0  0  0
  150.0765  140.0059  154.9952 H   0  0  0  0  0  0  0  0  0  0  0  0
  146.4212  141.5278  154.1474 H   0  0  0  0  0  0  0  0  0  0  0  0
  146.8257  143.5965  160.2295 H   0  0  0  0  0  0  0  0  0  0  0  0
  144.7983  144.8332  157.5754 H   0  0  0  0  0  0  0  0  0  0  0  0
  143.9815  143.3582  157.9940 H   0  0  0  0  0  0  0  0  0  0  0  0
  145.2351  146.1046  161.1355 H   0  0  0  0  0  0  0  0  0  0  0  0
  146.4427  145.0866  160.4052 H   0  0  0  0  0  0  0  0  0  0  0  0
  146.4671  146.3731  158.6950 H   0  0  0  0  0  0  0  0  0  0  0  0
  143.0043  146.1990  159.1129 H   0  0  0  0  0  0  0  0  0  0  0  0
  142.3003  144.6119  159.2278 H   0  0  0  0  0  0  0  0  0  0  0  0
  143.1023  146.3352  161.6272 H   0  0  0  0  0  0  0  0  0  0  0  0
  141.4794  146.0032  161.0636 H   0  0  0  0  0  0  0  0  0  0  0  0
  144.3588  144.4685  162.6421 H   0  0  0  0  0  0  0  0  0  0  0  0
  143.5974  142.8996  162.6709 H   0  0  0  0  0  0  0  0  0  0  0  0
  143.7271  142.6413  160.2694 H   0  0  0  0  0  0  0  0  0  0  0  0
  145.3269  143.0014  160.8543 H   0  0  0  0  0  0  0  0  0  0  0  0
  149.8126  141.3605  158.9342 H   0  0  0  0  0  0  0  0  0  0  0  0
  150.0948  143.4644  157.6916 H   0  0  0  0  0  0  0  0  0  0  0  0
  151.5938  142.9035  156.9956 H   0  0  0  0  0  0  0  0  0  0  0  0
  1  2  1  0  0  0  0
  1 31  1  0  0  0  0
  1 32  1  0  0  0  0
  1 33  1  0  0  0  0
  2  3  1  0  0  0  0
  3 30  1  0  0  0  0
  3  4  1  0  0  0  0
  3 34  1  0  0  0  0
  4  5  1  0  0  0  0
  4 35  1  0  0  0  0
  4 36  1  0  0  0  0
  5  6  1  0  0  0  0
  5 37  1  0  0  0  0
  5 38  1  0  0  0  0
  6 29  1  0  0  0  0
  6  7  1  0  0  0  0
  6 39  1  0  0  0  0
  7  8  1  0  0  0  0
  8  9  1  0  0  0  0
  8 40  1  0  0  0  0
  8 41  1  0  0  0  0
  9 10  1  0  0  0  0
  9 42  1  0  0  0  0
  9 43  1  0  0  0  0
 10 11  1  0  0  0  0
 10 29  1  0  0  0  0
 11 16  1  0  0  0  0
 11 12  2  0  0  0  0
 12 13  1  0  0  0  0
 13 14  2  0  0  0  0
 13 44  1  0  0  0  0
 14 15  1  0  0  0  0
 15 19  1  0  0  0  0
 15 16  2  0  0  0  0
 16 17  1  0  0  0  0
 17 18  2  0  0  0  0
 18 19  1  0  0  0  0
 18 45  1  0  0  0  0
 19 20  1  0  0  0  0
 20 21  1  0  0  0  0
 20 46  1  0  0  0  0
 20 47  1  0  0  0  0
 21 28  1  0  0  0  0
 21 22  1  0  0  0  0
 21 24  1  0  0  0  0
 22 23  1  0  0  0  0
 22 48  1  0  0  0  0
 22 49  1  0  0  0  0
 23 50  1  0  0  0  0
 24 25  1  0  0  0  0
 24 51  1  0  0  0  0
 24 52  1  0  0  0  0
 25 26  1  0  0  0  0
 25 53  1  0  0  0  0
 25 54  1  0  0  0  0
 26 27  1  0  0  0  0
 27 28  1  0  0  0  0
 27 55  1  0  0  0  0
 27 56  1  0  0  0  0
 28 57  1  0  0  0  0
 28 58  1  0  0  0  0
 29 30  1  0  0  0  0
 29 59  1  0  0  0  0
 30 60  1  0  0  0  0
 30 61  1  0  0  0  0
M  END
> <s_m_source_file>
AV-unprocessed.smi

> <i_m_source_file_index>
177

> <i_lp_mmshare_version>
43012

> <i_f3d_flags>
0

> <s_epik_input>
W0NIM11PW0NASF0oW0NIMl1bQ0gyXTEpW0NIMl1bQ0BIXShbQ0BASF0xMilOKFtDSDJdW0NIMl1PMiljKG5bY0hdbjMpYyhjMzQpbltjSF1uNFtDSDJdQzUoW0NIMl1bT0hdKVtDSDJdW0NIMl1PW0NIMl1bQ0gyXTU=

> <s_epik_cmdline>
J2VwaWtfcHl0aG9uJywgJy1waCcsICc3LjAnLCAnLXRuJywgJzgnLCAnLW1hJywgJzIwMCcsICctbWV0YWxfYmluZGluZycsICctaW1hZScsICc8aW5maWxlLm1hZT4nLCAnLW9tYWUnLCAnPG91dGZpbGUubWFlPic=

> <r_lp_tautomer_probability>
1

> <r_epik_Ionization_Penalty>
0.0065899

> <r_epik_Ionization_Penalty_Charging>
0

> <r_epik_Ionization_Penalty_Neutral>
0.0065899

> <r_epik_State_Penalty>
0.00470042

> <r_epik_Charging_Adjusted_Penalty>
0.00470042

> <i_epik_Tot_Q>
0

> <i_epik_Tot_abs_Q>
0

> <r_epik_Metal_State_Penalty>
-0

> <b_epik_Metal_Only>
0

> <s_lp_Force_Field>
OPLS_2005

> <r_lp_Energy>
44.7828

> <b_lp_Chiralities_Consistent>
1

> <s_lp_Variant>
AV-unprocessed.smi:177-3

> <Gold.Version>
5.8.1

> <Gold.Id.Protein>
6NUR|6NUR_protein|mol2

> <Gold.PLP.Fitness>
49.4192

> <Gold.PLP.PLP>
-45.6276

> <Gold.PLP.part.hbond>
-3.5198

> <Gold.PLP.part.metal>
0.0000

> <Gold.PLP.part.buried>
-7.6333

> <Gold.PLP.part.nonpolar>
-35.5281

> <Gold.PLP.part.repulsive>
0.4564

> <Gold.PLP.ligand.clash>
0.0000

> <Gold.PLP.ligand.torsion>
1.2478

> <Gold.PLP.Chemscore.Hbond>
1.9280

> <Gold.PLP.Chemscore.CHOScore>
0.0000

> <Gold.PLP.Chemscore.Metal>
0.0000

> <Gold.Chemscore.Hbonds>
donor molecule, donor type, donor heavy atom, donor atom, acceptor molecule, acceptor atom, score
      L1  H    23    50       P1  8029  1.00
      P1  H  7997  8010       L1     7  0.91

> <Gold.PLP.Chemscore.Internal.Correction>
0.5033

> <Gold.Rescore>
     Score         DG    S(hbond)    S(metal)    S(lipo)     H(rot)  DE(clash)    DE(int)     intcor
     12.98     -16.82       1.56        0.00     108.92       2.58       0.21       3.63       ----

> <Gold.Chemscore.Fitness>
12.9804

> <Gold.Chemscore.DG>
-16.8220

> <Gold.Chemscore.ZeroCoef>
-5.4800

> <Gold.Chemscore.Hbond>
1.5584

> <Gold.Chemscore.Metal>
0.0000

> <Gold.Chemscore.Lipo>
108.9170

> <Gold.Chemscore.Internal_Hbond>
0.0000

> <Gold.Chemscore.DEClash>
0.2071

> <Gold.Chemscore.DEInternal>
3.6344

> <Gold.Chemscore.Rot>
2.5806

> <Gold.Chemscore.Internal.Correction>
   9.000000E+99

> <Gold.Chemscore.Hbonds>
donor molecule, donor type, donor heavy atom, donor atom, acceptor molecule, acceptor atom, score
      L1  H    23    50       P1  8029  0.96
      P1  H  7997  8010       L1     7  0.42

> <Gold.Chemscore.Hbond.Weighted>
-5.2049

> <Gold.Chemscore.Metal.Weighted>
-0.0000

> <Gold.Chemscore.Lipo.Weighted>
-12.7433

> <Gold.Chemscore.Internal_Hbond.Weighted>
0.0000

> <Gold.Chemscore.DEClash.Weighted>
0.2071

> <Gold.Chemscore.DEInternal.Weighted>
3.6344

> <Gold.Chemscore.Rot.Weighted>
6.6062

> <Gold.Chemscore.Internal.Correction.Weighted>
   9.000000E+99

> <Gold.Protein.RotatedTorsions>
[ 6907 6896 6895 6894 ] final  145.96 input  -60.11 | X-H torsion
[ 7974 7965 7964 7962 ] final   94.44 input  175.53 | X-H torsion
[ 8008 7997 7996 7995 ] final   46.80 input   59.86 | X-H torsion
[ 10167 10162 10161 10158 ] final   52.13 input  -65.29 | X-H torsion
[ 10718 10713 10712 10709 ] final -165.21 input   66.30 | X-H torsion
[ 10763 10752 10751 10750 ] final  -64.91 input  -60.55 | X-H torsion
[ 11005 11000 10999 10996 ] final  -53.86 input  -57.11 | X-H torsion

> <Gold.Protein.ActiveResidues>
 VAL166  LYS551  ARG553  GLY616  TRP617  ASP618  TYR619  PRO620  LYS621  CYS622 
 ASP623  PHE694  ASN695  SER759  ASP760  ASP761  ALA762  ILE779  LEU786  VAL792 
 PHE793  MET794  SER795  GLU796  ALA797  LYS798  CYS799  TRP800  GLU811  SER814 

> <Gold.Protein.RotatedAtoms>
  152.1741  133.4663  159.4924 H   0  0  0  0  0  0  0  0  0  0  0  0  # atno 6907 bound_to 6896
  150.6924  134.1916  159.4296 H   0  0  0  0  0  0  0  0  0  0  0  0  # atno 6908 bound_to 6896
  151.9824  135.0021  160.0608 H   0  0  0  0  0  0  0  0  0  0  0  0  # atno 6909 bound_to 6896
  145.4655  139.2284  143.2964 H   0  0  0  0  0  0  0  0  0  0  0  0  # atno 7974 bound_to 7965
  155.3585  140.3417  155.4240 H   0  0  0  0  0  0  0  0  0  0  0  0  # atno 8008 bound_to 7997
  156.1726  140.1637  156.8454 H   0  0  0  0  0  0  0  0  0  0  0  0  # atno 8009 bound_to 7997
  154.5249  140.0758  156.8222 H   0  0  0  0  0  0  0  0  0  0  0  0  # atno 8010 bound_to 7997
  140.2546  144.3441  150.6337 H   0  0  0  0  0  0  0  0  0  0  0  0  # atno 10167 bound_to 10162
  156.6501  130.9004  151.3011 H   0  0  0  0  0  0  0  0  0  0  0  0  # atno 10718 bound_to 10713
  154.3371  135.6164  153.5579 H   0  0  0  0  0  0  0  0  0  0  0  0  # atno 10763 bound_to 10752
  152.9807  135.5760  154.4895 H   0  0  0  0  0  0  0  0  0  0  0  0  # atno 10764 bound_to 10752
  154.4592  135.2855  155.1702 H   0  0  0  0  0  0  0  0  0  0  0  0  # atno 10765 bound_to 10752
  141.0997  133.6619  156.4234 H   0  0  0  0  0  0  0  0  0  0  0  0  # atno 11005 bound_to 11000
  146.2426  140.5428  142.8927 LP  0  0  0  0  0  0  0  0  0  0  0  0  # atno 17320 bound_to 7965
  144.7977  140.6153  143.6499 LP  0  0  0  0  0  0  0  0  0  0  0  0  # atno 17321 bound_to 7965
  140.6014  143.2167  151.7065 LP  0  0  0  0  0  0  0  0  0  0  0  0  # atno 17342 bound_to 10162
  139.5035  144.3787  152.0397 LP  0  0  0  0  0  0  0  0  0  0  0  0  # atno 17343 bound_to 10162
  157.7144  130.9479  150.1201 LP  0  0  0  0  0  0  0  0  0  0  0  0  # atno 17370 bound_to 10713
  156.2091  130.3665  149.8692 LP  0  0  0  0  0  0  0  0  0  0  0  0  # atno 17371 bound_to 10713
  140.5053  134.6447  157.5264 LP  0  0  0  0  0  0  0  0  0  0  0  0  # atno 17394 bound_to 11000
  139.9844  134.7085  155.9800 LP  0  0  0  0  0  0  0  0  0  0  0  0  # atno 17395 bound_to 11000

$$$$
