AV-unprocessed.smi:3338|AV-procd|sdf|12870|dock6
  -GOLD-   2272019273D 1   1.00000     0.00000
 Structure written by MMmdl.
 44 45  0  0  0  0  0  0  0  0  2 V2000
  145.9669  136.0559  151.1871 C   0  0  0  0  0  0  0  0  0  0  0  0
  145.4284  134.9058  152.0557 C   0  0  1  0  0  0  0  0  0  0  0  0
  145.7548  133.5160  151.4779 C   0  0  0  0  0  0  0  0  0  0  0  0
  147.2359  133.1636  151.6752 C   0  0  0  0  0  0  0  0  0  0  0  0
  147.6467  133.3108  153.1487 C   0  0  0  0  0  0  0  0  0  0  0  0
  147.3512  134.6768  153.6525 N   0  3  2  0  0  0  0  0  0  0  0  0
  147.8760  134.8989  155.0230 C   0  0  0  0  0  0  0  0  0  0  0  0
  149.4109  134.8346  155.0744 C   0  0  0  0  0  0  0  0  0  0  0  0
  149.9860  136.0613  154.5412 N   0  0  0  0  0  0  0  0  0  0  0  0
  151.0034  136.7369  155.0966 C   0  0  0  0  0  0  0  0  0  0  0  0
  151.5745  136.3639  156.1221 O   0  0  0  0  0  0  0  0  0  0  0  0
  151.4308  138.0260  154.3756 C   0  0  2  0  0  0  0  0  0  0  0  0
  152.7507  138.6120  154.9130 C   0  0  0  0  0  0  0  0  0  0  0  0
  150.3567  139.0106  154.4259 N   0  0  0  0  0  0  0  0  0  0  0  0
  149.0300  138.8663  154.0681 C   0  0  0  0  0  0  0  0  0  0  0  0
  148.4210  140.0731  154.2590 C   0  0  0  0  0  0  0  0  0  0  0  0
  149.4689  140.9087  154.7352 C   0  0  0  0  0  0  0  0  0  0  0  0
  150.6257  140.2732  154.8273 N   0  0  0  0  0  0  0  0  0  0  0  0
  145.9066  135.0093  153.5185 C   0  0  0  0  0  0  0  0  0  0  0  0
  147.0560  136.0618  151.1470 H   0  0  0  0  0  0  0  0  0  0  0  0
  145.6478  137.0222  151.5782 H   0  0  0  0  0  0  0  0  0  0  0  0
  145.5977  135.9804  150.1637 H   0  0  0  0  0  0  0  0  0  0  0  0
  144.3424  135.0077  152.0589 H   0  0  0  0  0  0  0  0  0  0  0  0
  145.1418  132.7664  151.9802 H   0  0  0  0  0  0  0  0  0  0  0  0
  145.4903  133.4676  150.4211 H   0  0  0  0  0  0  0  0  0  0  0  0
  147.4219  132.1432  151.3386 H   0  0  0  0  0  0  0  0  0  0  0  0
  147.8587  133.8074  151.0534 H   0  0  0  0  0  0  0  0  0  0  0  0
  147.1271  132.5732  153.7626 H   0  0  0  0  0  0  0  0  0  0  0  0
  148.7139  133.1049  153.2401 H   0  0  0  0  0  0  0  0  0  0  0  0
  147.5101  135.8510  155.4111 H   0  0  0  0  0  0  0  0  0  0  0  0
  147.4870  134.1264  155.6880 H   0  0  0  0  0  0  0  0  0  0  0  0
  149.7356  134.6842  156.1055 H   0  0  0  0  0  0  0  0  0  0  0  0
  149.7940  133.9977  154.4909 H   0  0  0  0  0  0  0  0  0  0  0  0
  149.5751  136.4364  153.6978 H   0  0  0  0  0  0  0  0  0  0  0  0
  151.5983  137.7625  153.3294 H   0  0  0  0  0  0  0  0  0  0  0  0
  153.5652  137.8913  154.8304 H   0  0  0  0  0  0  0  0  0  0  0  0
  152.6705  138.9042  155.9607 H   0  0  0  0  0  0  0  0  0  0  0  0
  153.0411  139.4966  154.3455 H   0  0  0  0  0  0  0  0  0  0  0  0
  148.6344  137.9274  153.7097 H   0  0  0  0  0  0  0  0  0  0  0  0
  147.3850  140.3219  154.0830 H   0  0  0  0  0  0  0  0  0  0  0  0
  149.4249  141.9520  155.0108 H   0  0  0  0  0  0  0  0  0  0  0  0
  145.7069  136.0133  153.8918 H   0  0  0  0  0  0  0  0  0  0  0  0
  145.3269  134.3282  154.1434 H   0  0  0  0  0  0  0  0  0  0  0  0
  147.8560  135.3106  153.0494 H   0  0  0  0  0  0  0  0  0  0  0  0
  1  2  1  0  0  0  0
  1 20  1  0  0  0  0
  1 21  1  0  0  0  0
  1 22  1  0  0  0  0
  2 19  1  0  0  0  0
  2  3  1  0  0  0  0
  2 23  1  0  0  0  0
  3  4  1  0  0  0  0
  3 24  1  0  0  0  0
  3 25  1  0  0  0  0
  4  5  1  0  0  0  0
  4 26  1  0  0  0  0
  4 27  1  0  0  0  0
  5  6  1  0  0  0  0
  5 28  1  0  0  0  0
  5 29  1  0  0  0  0
  6  7  1  0  0  0  0
  6 19  1  0  0  0  0
  6 44  1  0  0  0  0
  7  8  1  0  0  0  0
  7 30  1  0  0  0  0
  7 31  1  0  0  0  0
  8  9  1  0  0  0  0
  8 32  1  0  0  0  0
  8 33  1  0  0  0  0
  9 10  1  0  0  0  0
  9 34  1  0  0  0  0
 10 11  2  0  0  0  0
 10 12  1  0  0  0  0
 12 13  1  0  0  0  0
 12 14  1  0  0  0  0
 12 35  1  0  0  0  0
 13 36  1  0  0  0  0
 13 37  1  0  0  0  0
 13 38  1  0  0  0  0
 14 18  1  0  0  0  0
 14 15  1  0  0  0  0
 15 16  2  0  0  0  0
 15 39  1  0  0  0  0
 16 17  1  0  0  0  0
 16 40  1  0  0  0  0
 17 18  2  0  0  0  0
 17 41  1  0  0  0  0
 19 42  1  0  0  0  0
 19 43  1  0  0  0  0
M  CHG  1   6   1
M  END
> <s_m_source_file>
AV-unprocessed.smi

> <i_m_source_file_index>
3338

> <i_lp_mmshare_version>
43012

> <i_f3d_flags>
0

> <s_epik_input>
W0NIM11bQ0BASF0xW0NIMl1bQ0gyXVtDSDJdTihbQ0gyXTEpW0NIMl1bQ0gyXVtOSF1DKD1PKVtDQEhdKFtDSDNdKW4yW2NIXVtjSF1bY0hdbjI=

> <s_epik_cmdline>
J2VwaWtfcHl0aG9uJywgJy1waCcsICc3LjAnLCAnLXRuJywgJzgnLCAnLW1hJywgJzIwMCcsICctbWV0YWxfYmluZGluZycsICctaW1hZScsICc8aW5maWxlLm1hZT4nLCAnLW9tYWUnLCAnPG91dGZpbGUubWFlPic=

> <r_lp_tautomer_probability>
1

> <r_epik_Ionization_Penalty>
0.00225707

> <r_epik_Ionization_Penalty_Charging>
0.00223709

> <r_epik_Ionization_Penalty_Neutral>
1.99775e-05

> <r_epik_State_Penalty>
0.00153978

> <r_epik_Charging_Adjusted_Penalty>
0.00377687

> <i_epik_Tot_Q>
1

> <i_epik_Tot_abs_Q>
1

> <r_epik_Metal_State_Penalty>
-0

> <b_epik_Metal_Only>
0

> <s_lp_Force_Field>
OPLS_2005

> <r_lp_Energy>
22.9717

> <b_lp_Chiralities_Consistent>
1

> <s_lp_Variant>
AV-unprocessed.smi:3338-2

> <Gold.Version>
5.8.1

> <Gold.Id.Protein>
6NUR|6NUR_protein|mol2

> <Gold.PLP.Fitness>
54.1876

> <Gold.PLP.PLP>
-36.2791

> <Gold.PLP.part.hbond>
-4.7610

> <Gold.PLP.part.metal>
0.0000

> <Gold.PLP.part.buried>
-2.1757

> <Gold.PLP.part.nonpolar>
-29.8145

> <Gold.PLP.part.repulsive>
0.1720

> <Gold.PLP.ligand.clash>
0.0000

> <Gold.PLP.ligand.torsion>
0.4197

> <Gold.PLP.Chemscore.Hbond>
4.8960

> <Gold.PLP.Chemscore.CHOScore>
1.3084

> <Gold.PLP.Chemscore.Metal>
0.0000

> <Gold.Chemscore.Hbonds>
donor molecule, donor type, donor heavy atom, donor atom, acceptor molecule, acceptor atom, score
      L1  H     6    44       P1  7948  2.00
      L1  H     9    34       P1  7948  1.00
      P1  H  7989  7998       L1    18  1.00
      P1  H 10752 10765       L1    11  0.51
      L1  C    15    39       P1  7948  1.00
      L1  C    17    41       P1  8028  0.11

> <Gold.PLP.Chemscore.Internal.Correction>
0.1346

> <Gold.Rescore>
     Score         DG    S(hbond)    S(metal)    S(lipo)     H(rot)  DE(clash)    DE(int)     intcor
     17.76     -19.82       3.11        0.00      72.27       1.76       0.21       1.85       ----

> <Gold.Chemscore.Fitness>
17.7612

> <Gold.Chemscore.DG>
-19.8190

> <Gold.Chemscore.ZeroCoef>
-5.4800

> <Gold.Chemscore.Hbond>
3.1080

> <Gold.Chemscore.Metal>
0.0000

> <Gold.Chemscore.Lipo>
72.2732

> <Gold.Chemscore.Internal_Hbond>
0.0000

> <Gold.Chemscore.DEClash>
0.2070

> <Gold.Chemscore.DEInternal>
1.8508

> <Gold.Chemscore.Rot>
1.7570

> <Gold.Chemscore.Internal.Correction>
   9.000000E+99

> <Gold.Chemscore.Hbonds>
donor molecule, donor type, donor heavy atom, donor atom, acceptor molecule, acceptor atom, score
      L1  H     6    44       P1  7948  1.00
      L1  H     9    34       P1  7948  0.62
      P1  H  7989  7998       L1    18  0.19
      P1  H 10752 10765       L1    11  0.04

> <Gold.Chemscore.Hbond.Weighted>
-10.3809

> <Gold.Chemscore.Metal.Weighted>
-0.0000

> <Gold.Chemscore.Lipo.Weighted>
-8.4560

> <Gold.Chemscore.Internal_Hbond.Weighted>
0.0000

> <Gold.Chemscore.DEClash.Weighted>
0.2070

> <Gold.Chemscore.DEInternal.Weighted>
1.8508

> <Gold.Chemscore.Rot.Weighted>
4.4979

> <Gold.Chemscore.Internal.Correction.Weighted>
   9.000000E+99

> <Gold.Protein.RotatedTorsions>
[ 6907 6896 6895 6894 ] final    5.08 input  -60.11 | X-H torsion
[ 7974 7965 7964 7962 ] final   70.78 input  175.53 | X-H torsion
[ 8008 7997 7996 7995 ] final  -26.93 input   59.86 | X-H torsion
[ 10167 10162 10161 10158 ] final  134.22 input  -65.29 | X-H torsion
[ 10718 10713 10712 10709 ] final  -87.15 input   66.30 | X-H torsion
[ 10763 10752 10751 10750 ] final -151.56 input  -60.55 | X-H torsion
[ 11005 11000 10999 10996 ] final -116.79 input  -57.11 | X-H torsion

> <Gold.Protein.ActiveResidues>
 VAL166  LYS551  ARG553  GLY616  TRP617  ASP618  TYR619  PRO620  LYS621  CYS622 
 ASP623  PHE694  ASN695  SER759  ASP760  ASP761  ALA762  ILE779  LEU786  VAL792 
 PHE793  MET794  SER795  GLU796  ALA797  LYS798  CYS799  TRP800  GLU811  SER814 

> <Gold.Protein.RotatedAtoms>
  151.6517  135.1000  160.0161 H   0  0  0  0  0  0  0  0  0  0  0  0  # atno 6907 bound_to 6896
  152.3997  133.6795  159.6314 H   0  0  0  0  0  0  0  0  0  0  0  0  # atno 6908 bound_to 6896
  150.7899  133.8729  159.3305 H   0  0  0  0  0  0  0  0  0  0  0  0  # atno 6909 bound_to 6896
  145.7740  139.2856  143.1304 H   0  0  0  0  0  0  0  0  0  0  0  0  # atno 7974 bound_to 7965
  154.4401  140.1886  156.0853 H   0  0  0  0  0  0  0  0  0  0  0  0  # atno 8008 bound_to 7997
  156.0407  140.3320  155.7215 H   0  0  0  0  0  0  0  0  0  0  0  0  # atno 8009 bound_to 7997
  155.5703  140.0612  157.2799 H   0  0  0  0  0  0  0  0  0  0  0  0  # atno 8010 bound_to 7997
  139.5265  144.6578  151.5109 H   0  0  0  0  0  0  0  0  0  0  0  0  # atno 10167 bound_to 10162
  155.9986  130.4790  150.4822 H   0  0  0  0  0  0  0  0  0  0  0  0  # atno 10718 bound_to 10713
  154.8050  135.3257  154.7455 H   0  0  0  0  0  0  0  0  0  0  0  0  # atno 10763 bound_to 10752
  153.8115  135.6895  153.4844 H   0  0  0  0  0  0  0  0  0  0  0  0  # atno 10764 bound_to 10752
  153.1789  135.4594  154.9946 H   0  0  0  0  0  0  0  0  0  0  0  0  # atno 10765 bound_to 10752
  141.0399  133.9852  157.3012 H   0  0  0  0  0  0  0  0  0  0  0  0  # atno 11005 bound_to 11000
  146.0141  140.8408  142.9956 LP  0  0  0  0  0  0  0  0  0  0  0  0  # atno 17320 bound_to 7965
  144.6807  140.2533  143.7328 LP  0  0  0  0  0  0  0  0  0  0  0  0  # atno 17321 bound_to 7965
  140.6411  143.8886  150.6693 LP  0  0  0  0  0  0  0  0  0  0  0  0  # atno 17342 bound_to 10162
  140.2221  143.3800  152.1634 LP  0  0  0  0  0  0  0  0  0  0  0  0  # atno 17343 bound_to 10162
  157.2826  131.0610  151.2187 LP  0  0  0  0  0  0  0  0  0  0  0  0  # atno 17370 bound_to 10713
  157.3228  130.6946  149.6279 LP  0  0  0  0  0  0  0  0  0  0  0  0  # atno 17371 bound_to 10713
  139.9268  135.0201  156.8261 LP  0  0  0  0  0  0  0  0  0  0  0  0  # atno 17394 bound_to 11000
  140.6254  133.9955  155.7637 LP  0  0  0  0  0  0  0  0  0  0  0  0  # atno 17395 bound_to 11000

$$$$
