AV-unprocessed.smi:910|AV-procd|sdf|4117|dock4
  -GOLD-   22720 2 13D 1   1.00000     0.00000
 Structure written by MMmdl.
 46 47  0  0  0  0  0  0  0  0  1 V2000
  141.9884  134.8860  153.1750 C   0  0  0  0  0  0  0  0  0  0  0  0
  143.3859  135.1226  152.6949 C   0  0  0  0  0  0  0  0  0  0  0  0
  144.1778  136.1452  153.1979 N   0  0  0  0  0  0  0  0  0  0  0  0
  145.3297  136.0340  152.5343 C   0  0  0  0  0  0  0  0  0  0  0  0
  146.4726  136.8585  152.6827 N   0  0  0  0  0  0  0  0  0  0  0  0
  146.5459  138.0531  153.2923 C   0  0  0  0  0  0  0  0  0  0  0  0
  145.6161  138.6117  153.8751 O   0  0  0  0  0  0  0  0  0  0  0  0
  147.7729  138.5807  153.1783 N   0  0  0  0  0  0  0  0  0  0  0  0
  148.1702  139.9053  153.6451 C   0  0  0  0  0  0  0  0  0  0  0  0
  148.2369  139.9712  155.1786 C   0  0  0  0  0  0  0  0  0  0  0  0
  149.4862  139.4443  155.5996 O   0  0  0  0  0  0  0  0  0  0  0  0
  150.6110  140.2545  155.2816 C   0  0  1  0  0  0  0  0  0  0  0  0
  150.6401  141.4999  156.1904 C   0  0  0  0  0  0  0  0  0  0  0  0
  150.8638  141.1241  157.6646 C   0  0  0  0  0  0  0  0  0  0  0  0
  152.1357  140.2800  157.8378 C   0  0  0  0  0  0  0  0  0  0  0  0
  152.1037  139.0310  156.9423 C   0  0  0  0  0  0  0  0  0  0  0  0
  151.8866  139.4023  155.4616 C   0  0  1  0  0  0  0  0  0  0  0  0
  151.8791  138.1604  154.5551 C   0  0  0  0  0  0  0  0  0  0  0  0
  145.3504  135.0153  151.6343 O   0  0  0  0  0  0  0  0  0  0  0  0
  144.1096  134.4465  151.7455 C   0  0  0  0  0  0  0  0  0  0  0  0
  143.7996  133.2774  150.8739 C   0  0  0  0  0  0  0  0  0  0  0  0
  141.2629  135.1065  152.3919 H   0  0  0  0  0  0  0  0  0  0  0  0
  141.7480  135.5122  154.0348 H   0  0  0  0  0  0  0  0  0  0  0  0
  141.8471  133.8474  153.4742 H   0  0  0  0  0  0  0  0  0  0  0  0
  147.3178  136.5152  152.2516 H   0  0  0  0  0  0  0  0  0  0  0  0
  148.4748  138.0476  152.6862 H   0  0  0  0  0  0  0  0  0  0  0  0
  149.1312  140.1827  153.2097 H   0  0  0  0  0  0  0  0  0  0  0  0
  147.4398  140.6266  153.2779 H   0  0  0  0  0  0  0  0  0  0  0  0
  148.1262  141.0038  155.5122 H   0  0  0  0  0  0  0  0  0  0  0  0
  147.4166  139.4003  155.6141 H   0  0  0  0  0  0  0  0  0  0  0  0
  150.5621  140.5711  154.2382 H   0  0  0  0  0  0  0  0  0  0  0  0
  151.4437  142.1616  155.8651 H   0  0  0  0  0  0  0  0  0  0  0  0
  149.7185  142.0724  156.0877 H   0  0  0  0  0  0  0  0  0  0  0  0
  150.9325  142.0274  158.2712 H   0  0  0  0  0  0  0  0  0  0  0  0
  150.0022  140.5677  158.0357 H   0  0  0  0  0  0  0  0  0  0  0  0
  153.0105  140.8832  157.5920 H   0  0  0  0  0  0  0  0  0  0  0  0
  152.2468  139.9858  158.8816 H   0  0  0  0  0  0  0  0  0  0  0  0
  153.0372  138.4788  157.0547 H   0  0  0  0  0  0  0  0  0  0  0  0
  151.3094  138.3624  157.2773 H   0  0  0  0  0  0  0  0  0  0  0  0
  152.7342  140.0156  155.1519 H   0  0  0  0  0  0  0  0  0  0  0  0
  151.0716  137.4767  154.8187 H   0  0  0  0  0  0  0  0  0  0  0  0
  152.8170  137.6107  154.6355 H   0  0  0  0  0  0  0  0  0  0  0  0
  151.7489  138.4381  153.5088 H   0  0  0  0  0  0  0  0  0  0  0  0
  143.8632  132.3479  151.4397 H   0  0  0  0  0  0  0  0  0  0  0  0
  144.4986  133.2142  150.0397 H   0  0  0  0  0  0  0  0  0  0  0  0
  142.7925  133.3565  150.4643 H   0  0  0  0  0  0  0  0  0  0  0  0
  1  2  1  0  0  0  0
  1 22  1  0  0  0  0
  1 23  1  0  0  0  0
  1 24  1  0  0  0  0
  2 20  2  0  0  0  0
  2  3  1  0  0  0  0
  3  4  2  0  0  0  0
  4  5  1  0  0  0  0
  4 19  1  0  0  0  0
  5  6  1  0  0  0  0
  5 25  1  0  0  0  0
  6  7  2  0  0  0  0
  6  8  1  0  0  0  0
  8  9  1  0  0  0  0
  8 26  1  0  0  0  0
  9 10  1  0  0  0  0
  9 27  1  0  0  0  0
  9 28  1  0  0  0  0
 10 11  1  0  0  0  0
 10 29  1  0  0  0  0
 10 30  1  0  0  0  0
 11 12  1  0  0  0  0
 12 17  1  0  0  0  0
 12 13  1  0  0  0  0
 12 31  1  0  0  0  0
 13 14  1  0  0  0  0
 13 32  1  0  0  0  0
 13 33  1  0  0  0  0
 14 15  1  0  0  0  0
 14 34  1  0  0  0  0
 14 35  1  0  0  0  0
 15 16  1  0  0  0  0
 15 36  1  0  0  0  0
 15 37  1  0  0  0  0
 16 17  1  0  0  0  0
 16 38  1  0  0  0  0
 16 39  1  0  0  0  0
 17 18  1  0  0  0  0
 17 40  1  0  0  0  0
 18 41  1  0  0  0  0
 18 42  1  0  0  0  0
 18 43  1  0  0  0  0
 19 20  1  0  0  0  0
 20 21  1  0  0  0  0
 21 44  1  0  0  0  0
 21 45  1  0  0  0  0
 21 46  1  0  0  0  0
M  END
> <s_m_source_file>
AV-unprocessed.smi

> <i_m_source_file_index>
910

> <i_lp_mmshare_version>
43012

> <i_f3d_flags>
0

> <s_epik_input>
W0NIM11jMW5jKG9jMVtDSDNdKVtOSF1DKD1PKVtOSF1bQ0gyXVtDSDJdT1tDQEBIXTJbQ0gyXVtDSDJdW0NIMl1bQ0gyXVtDQEhdMltDSDNd

> <s_epik_cmdline>
J2VwaWtfcHl0aG9uJywgJy1waCcsICc3LjAnLCAnLXRuJywgJzgnLCAnLW1hJywgJzIwMCcsICctbWV0YWxfYmluZGluZycsICctaW1hZScsICc8aW5maWxlLm1hZT4nLCAnLW9tYWUnLCAnPG91dGZpbGUubWFlPic=

> <r_lp_tautomer_probability>
0.785861

> <r_epik_Ionization_Penalty>
4.15957e-05

> <r_epik_Ionization_Penalty_Charging>
0

> <r_epik_Ionization_Penalty_Neutral>
4.15957e-05

> <r_epik_State_Penalty>
0.0240523

> <r_epik_Charging_Adjusted_Penalty>
0.0240523

> <i_epik_Tot_Q>
0

> <i_epik_Tot_abs_Q>
0

> <r_epik_Metal_State_Penalty>
0.057053

> <b_epik_Metal_Only>
0

> <s_lp_Force_Field>
OPLS_2005

> <r_lp_Energy>
9.72379

> <b_lp_Chiralities_Consistent>
1

> <s_lp_Variant>
AV-unprocessed.smi:910-2

> <Gold.Version>
5.8.1

> <Gold.Id.Protein>
6NUR|6NUR_protein|mol2

> <Gold.PLP.Fitness>
37.3856

> <Gold.PLP.PLP>
-32.1951

> <Gold.PLP.part.hbond>
-2.8432

> <Gold.PLP.part.metal>
0.0000

> <Gold.PLP.part.buried>
-3.0285

> <Gold.PLP.part.nonpolar>
-28.4528

> <Gold.PLP.part.repulsive>
1.0445

> <Gold.PLP.ligand.clash>
0.0000

> <Gold.PLP.ligand.torsion>
0.3363

> <Gold.PLP.Chemscore.Hbond>
1.9440

> <Gold.PLP.Chemscore.CHOScore>
0.0000

> <Gold.PLP.Chemscore.Metal>
0.0000

> <Gold.Chemscore.Hbonds>
donor molecule, donor type, donor heavy atom, donor atom, acceptor molecule, acceptor atom, score
      L1  H     5    25       P1  7948  1.00
      L1  H     8    26       P1  7948  0.94

> <Gold.PLP.Chemscore.Internal.Correction>
0.0312

> <Gold.Rescore>
     Score         DG    S(hbond)    S(metal)    S(lipo)     H(rot)  DE(clash)    DE(int)     intcor
     14.90     -16.64       1.92        0.00      76.81       1.66       0.17       1.58       ----

> <Gold.Chemscore.Fitness>
14.9001

> <Gold.Chemscore.DG>
-16.6449

> <Gold.Chemscore.ZeroCoef>
-5.4800

> <Gold.Chemscore.Hbond>
1.9225

> <Gold.Chemscore.Metal>
0.0000

> <Gold.Chemscore.Lipo>
76.8145

> <Gold.Chemscore.Internal_Hbond>
0.0000

> <Gold.Chemscore.DEClash>
0.1663

> <Gold.Chemscore.DEInternal>
1.5785

> <Gold.Chemscore.Rot>
1.6576

> <Gold.Chemscore.Internal.Correction>
   9.000000E+99

> <Gold.Chemscore.Hbonds>
donor molecule, donor type, donor heavy atom, donor atom, acceptor molecule, acceptor atom, score
      L1  H     5    25       P1  7948  1.00
      L1  H     8    26       P1  7948  0.85

> <Gold.Chemscore.Hbond.Weighted>
-6.4212

> <Gold.Chemscore.Metal.Weighted>
-0.0000

> <Gold.Chemscore.Lipo.Weighted>
-8.9873

> <Gold.Chemscore.Internal_Hbond.Weighted>
0.0000

> <Gold.Chemscore.DEClash.Weighted>
0.1663

> <Gold.Chemscore.DEInternal.Weighted>
1.5785

> <Gold.Chemscore.Rot.Weighted>
4.2436

> <Gold.Chemscore.Internal.Correction.Weighted>
   9.000000E+99

> <Gold.Protein.RotatedTorsions>
[ 6907 6896 6895 6894 ] final   -1.93 input  -60.11 | X-H torsion
[ 7974 7965 7964 7962 ] final   98.86 input  175.53 | X-H torsion
[ 8008 7997 7996 7995 ] final  125.79 input   59.86 | X-H torsion
[ 10167 10162 10161 10158 ] final   87.49 input  -65.29 | X-H torsion
[ 10718 10713 10712 10709 ] final  118.53 input   66.30 | X-H torsion
[ 10763 10752 10751 10750 ] final   24.37 input  -60.55 | X-H torsion
[ 11005 11000 10999 10996 ] final  -74.97 input  -57.11 | X-H torsion

> <Gold.Protein.ActiveResidues>
 VAL166  LYS551  ARG553  GLY616  TRP617  ASP618  TYR619  PRO620  LYS621  CYS622 
 ASP623  PHE694  ASN695  SER759  ASP760  ASP761  ALA762  ILE779  LEU786  VAL792 
 PHE793  MET794  SER795  GLU796  ALA797  LYS798  CYS799  TRP800  GLU811  SER814 

> <Gold.Protein.RotatedAtoms>
  151.5381  135.1068  159.9919 H   0  0  0  0  0  0  0  0  0  0  0  0  # atno 6907 bound_to 6896
  152.4548  133.7697  159.6802 H   0  0  0  0  0  0  0  0  0  0  0  0  # atno 6908 bound_to 6896
  150.8488  133.7754  159.3058 H   0  0  0  0  0  0  0  0  0  0  0  0  # atno 6909 bound_to 6896
  145.4065  139.2340  143.3271 H   0  0  0  0  0  0  0  0  0  0  0  0  # atno 7974 bound_to 7965
  156.2845  140.2708  156.2006 H   0  0  0  0  0  0  0  0  0  0  0  0  # atno 8008 bound_to 7997
  155.0365  140.0386  157.2511 H   0  0  0  0  0  0  0  0  0  0  0  0  # atno 8009 bound_to 7997
  154.7310  140.2706  155.6461 H   0  0  0  0  0  0  0  0  0  0  0  0  # atno 8010 bound_to 7997
  139.8769  144.6462  150.8887 H   0  0  0  0  0  0  0  0  0  0  0  0  # atno 10167 bound_to 10162
  157.6024  131.1049  150.7769 H   0  0  0  0  0  0  0  0  0  0  0  0  # atno 10718 bound_to 10713
  153.0769  135.6606  154.0127 H   0  0  0  0  0  0  0  0  0  0  0  0  # atno 10763 bound_to 10752
  153.9759  135.2960  155.3425 H   0  0  0  0  0  0  0  0  0  0  0  0  # atno 10764 bound_to 10752
  154.7159  135.5185  153.8807 H   0  0  0  0  0  0  0  0  0  0  0  0  # atno 10765 bound_to 10752
  141.1641  133.6930  156.7445 H   0  0  0  0  0  0  0  0  0  0  0  0  # atno 11005 bound_to 11000
  146.2726  140.4771  142.8808 LP  0  0  0  0  0  0  0  0  0  0  0  0  # atno 17320 bound_to 7965
  144.8338  140.6749  143.6274 LP  0  0  0  0  0  0  0  0  0  0  0  0  # atno 17321 bound_to 7965
  140.7751  143.3618  151.1814 LP  0  0  0  0  0  0  0  0  0  0  0  0  # atno 17342 bound_to 10162
  139.7232  143.9190  152.2993 LP  0  0  0  0  0  0  0  0  0  0  0  0  # atno 17343 bound_to 10162
  156.8165  130.4970  149.5349 LP  0  0  0  0  0  0  0  0  0  0  0  0  # atno 17370 bound_to 10713
  156.1100  130.6033  151.0032 LP  0  0  0  0  0  0  0  0  0  0  0  0  # atno 17371 bound_to 10713
  140.2649  134.8437  157.3794 LP  0  0  0  0  0  0  0  0  0  0  0  0  # atno 17394 bound_to 11000
  140.1575  134.4770  155.7917 LP  0  0  0  0  0  0  0  0  0  0  0  0  # atno 17395 bound_to 11000

$$$$
