AV-unprocessed.smi:1672|AV-procd|sdf|6702|dock4
  -GOLD-   22720 7443D 1   1.00000     0.00000
 Structure written by MMmdl.
 48 50  0  0  0  0  0  0  0  0  2 V2000
  144.8274  134.6921  151.1700 C   0  0  0  0  0  0  0  0  0  0  0  0
  145.1753  135.7767  152.1992 C   0  0  2  0  0  0  0  0  0  0  0  0
  145.6298  137.0807  151.5220 C   0  0  0  0  0  0  0  0  0  0  0  0
  146.0149  138.1476  152.5611 C   0  0  0  0  0  0  0  0  0  0  0  0
  147.0690  137.6457  153.4791 N   0  3  1  0  0  0  0  0  0  0  0  0
  147.5690  138.6993  154.3998 C   0  0  0  0  0  0  0  0  0  0  0  0
  149.0763  138.9652  154.2213 C   0  0  1  0  0  0  0  0  0  0  0  0
  149.4485  138.6089  152.9037 O   0  0  0  0  0  0  0  0  0  0  0  0
  149.4370  140.4420  154.4749 C   0  0  0  0  0  0  0  0  0  0  0  0
  150.6506  140.5879  155.2681 N   0  0  0  0  0  0  0  0  0  0  0  0
  151.9004  140.1282  155.0035 C   0  0  0  0  0  0  0  0  0  0  0  0
  152.2253  139.3534  153.7635 C   0  0  0  0  0  0  0  0  0  0  0  0
  152.3790  137.9724  154.0110 O   0  0  0  0  0  0  0  0  0  0  0  0
  152.8281  140.4122  155.9182 N   0  0  0  0  0  0  0  0  0  0  0  0
  152.1166  141.1233  156.8643 C   0  0  0  0  0  0  0  0  0  0  0  0
  152.5331  141.7042  158.0834 C   0  0  0  0  0  0  0  0  0  0  0  0
  151.6105  142.3939  158.8974 C   0  0  0  0  0  0  0  0  0  0  0  0
  150.2616  142.5133  158.5048 C   0  0  0  0  0  0  0  0  0  0  0  0
  149.8259  141.9424  157.2937 C   0  0  0  0  0  0  0  0  0  0  0  0
  150.7504  141.2535  156.4859 C   0  0  0  0  0  0  0  0  0  0  0  0
  146.6347  136.4079  154.1801 C   0  0  0  0  0  0  0  0  0  0  0  0
  146.2661  135.3041  153.1748 C   0  0  0  0  0  0  0  0  0  0  0  0
  145.6940  134.4270  150.5633 H   0  0  0  0  0  0  0  0  0  0  0  0
  144.0398  135.0283  150.4955 H   0  0  0  0  0  0  0  0  0  0  0  0
  144.4751  133.7844  151.6609 H   0  0  0  0  0  0  0  0  0  0  0  0
  144.2733  135.9895  152.7749 H   0  0  0  0  0  0  0  0  0  0  0  0
  146.4824  136.8828  150.8708 H   0  0  0  0  0  0  0  0  0  0  0  0
  144.8352  137.4648  150.8808 H   0  0  0  0  0  0  0  0  0  0  0  0
  146.3722  139.0370  152.0407 H   0  0  0  0  0  0  0  0  0  0  0  0
  145.1389  138.4475  153.1386 H   0  0  0  0  0  0  0  0  0  0  0  0
  147.0314  139.6332  154.2272 H   0  0  0  0  0  0  0  0  0  0  0  0
  147.3477  138.4098  155.4281 H   0  0  0  0  0  0  0  0  0  0  0  0
  149.6505  138.3465  154.9097 H   0  0  0  0  0  0  0  0  0  0  0  0
  148.9088  139.0900  152.2947 H   0  0  0  0  0  0  0  0  0  0  0  0
  149.5403  140.9828  153.5345 H   0  0  0  0  0  0  0  0  0  0  0  0
  148.6268  140.9324  155.0161 H   0  0  0  0  0  0  0  0  0  0  0  0
  151.4248  139.4881  153.0351 H   0  0  0  0  0  0  0  0  0  0  0  0
  153.1319  139.7461  153.3043 H   0  0  0  0  0  0  0  0  0  0  0  0
  151.5237  137.5720  154.0294 H   0  0  0  0  0  0  0  0  0  0  0  0
  153.5642  141.6189  158.3934 H   0  0  0  0  0  0  0  0  0  0  0  0
  151.9396  142.8338  159.8274 H   0  0  0  0  0  0  0  0  0  0  0  0
  149.5620  143.0436  159.1344 H   0  0  0  0  0  0  0  0  0  0  0  0
  148.7936  142.0327  156.9908 H   0  0  0  0  0  0  0  0  0  0  0  0
  147.4261  136.0397  154.8316 H   0  0  0  0  0  0  0  0  0  0  0  0
  145.7800  136.6306  154.8209 H   0  0  0  0  0  0  0  0  0  0  0  0
  145.9267  134.4180  153.7124 H   0  0  0  0  0  0  0  0  0  0  0  0
  147.1567  135.0055  152.6198 H   0  0  0  0  0  0  0  0  0  0  0  0
  147.8526  137.3931  152.8931 H   0  0  0  0  0  0  0  0  0  0  0  0
  1  2  1  0  0  0  0
  1 23  1  0  0  0  0
  1 24  1  0  0  0  0
  1 25  1  0  0  0  0
  2 22  1  0  0  0  0
  2  3  1  0  0  0  0
  2 26  1  0  0  0  0
  3  4  1  0  0  0  0
  3 27  1  0  0  0  0
  3 28  1  0  0  0  0
  4  5  1  0  0  0  0
  4 29  1  0  0  0  0
  4 30  1  0  0  0  0
  5  6  1  0  0  0  0
  5 21  1  0  0  0  0
  5 48  1  0  0  0  0
  6  7  1  0  0  0  0
  6 31  1  0  0  0  0
  6 32  1  0  0  0  0
  7  8  1  0  0  0  0
  7  9  1  0  0  0  0
  7 33  1  0  0  0  0
  8 34  1  0  0  0  0
  9 10  1  0  0  0  0
  9 35  1  0  0  0  0
  9 36  1  0  0  0  0
 10 20  1  0  0  0  0
 10 11  1  0  0  0  0
 11 12  1  0  0  0  0
 11 14  2  0  0  0  0
 12 13  1  0  0  0  0
 12 37  1  0  0  0  0
 12 38  1  0  0  0  0
 13 39  1  0  0  0  0
 14 15  1  0  0  0  0
 15 20  2  0  0  0  0
 15 16  1  0  0  0  0
 16 17  2  0  0  0  0
 16 40  1  0  0  0  0
 17 18  1  0  0  0  0
 17 41  1  0  0  0  0
 18 19  2  0  0  0  0
 18 42  1  0  0  0  0
 19 20  1  0  0  0  0
 19 43  1  0  0  0  0
 21 22  1  0  0  0  0
 21 44  1  0  0  0  0
 21 45  1  0  0  0  0
 22 46  1  0  0  0  0
 22 47  1  0  0  0  0
M  CHG  1   5   1
M  END
> <s_m_source_file>
AV-unprocessed.smi

> <i_m_source_file_index>
1672

> <i_lp_mmshare_version>
43012

> <i_f3d_flags>
0

> <s_epik_input>
W0NIM11bQ0hdMVtDSDJdW0NIMl1OKFtDSDJdW0NIMl0xKVtDSDJdW0NASF0oW09IXSlbQ0gyXW4oYyhuMilbQ0gyXVtPSF0pYyhjMjMpW2NIXVtjSF1bY0hdW2NIXTM=

> <s_epik_cmdline>
J2VwaWtfcHl0aG9uJywgJy1waCcsICc3LjAnLCAnLXRuJywgJzgnLCAnLW1hJywgJzIwMCcsICctbWV0YWxfYmluZGluZycsICctaW1hZScsICc8aW5maWxlLm1hZT4nLCAnLW9tYWUnLCAnPG91dGZpbGUubWFlPic=

> <r_epik_Ionization_Penalty>
0.0498263

> <r_epik_Ionization_Penalty_Charging>
0.00181365

> <r_epik_Ionization_Penalty_Neutral>
0.0480127

> <r_epik_State_Penalty>
0.0408546

> <r_epik_Charging_Adjusted_Penalty>
0.0426682

> <i_epik_Tot_Q>
1

> <i_epik_Tot_abs_Q>
1

> <r_epik_Metal_State_Penalty>
4.22946e-05

> <b_epik_Metal_Only>
0

> <s_lp_Force_Field>
OPLS_2005

> <r_lp_Energy>
23.0912

> <b_lp_Chiralities_Consistent>
1

> <s_lp_Variant>
AV-unprocessed.smi:1672-2

> <Gold.Version>
5.8.1

> <Gold.Id.Protein>
6NUR|6NUR_protein|mol2

> <Gold.PLP.Fitness>
52.4239

> <Gold.PLP.PLP>
-41.6206

> <Gold.PLP.part.hbond>
-5.5357

> <Gold.PLP.part.metal>
0.0000

> <Gold.PLP.part.buried>
1.1873

> <Gold.PLP.part.nonpolar>
-38.7482

> <Gold.PLP.part.repulsive>
0.0275

> <Gold.PLP.ligand.clash>
0.0000

> <Gold.PLP.ligand.torsion>
1.9992

> <Gold.PLP.Chemscore.Hbond>
4.9120

> <Gold.PLP.Chemscore.CHOScore>
0.0000

> <Gold.PLP.Chemscore.Metal>
0.0000

> <Gold.Chemscore.Hbonds>
donor molecule, donor type, donor heavy atom, donor atom, acceptor molecule, acceptor atom, score
      L1  H     5    48       P1  7948  2.00
      L1  H     8    34       P1  7957  0.40
      P1  H  7997  8009       L1    14  0.90

> <Gold.PLP.Chemscore.Internal.Correction>
0.0657

> <Gold.Rescore>
     Score         DG    S(hbond)    S(metal)    S(lipo)     H(rot)  DE(clash)    DE(int)     intcor
     17.24     -19.91       3.52        0.00      85.86       2.88       0.00       2.67       ----

> <Gold.Chemscore.Fitness>
17.2362

> <Gold.Chemscore.DG>
-19.9093

> <Gold.Chemscore.ZeroCoef>
-5.4800

> <Gold.Chemscore.Hbond>
3.5183

> <Gold.Chemscore.Metal>
0.0000

> <Gold.Chemscore.Lipo>
85.8577

> <Gold.Chemscore.Internal_Hbond>
0.0000

> <Gold.Chemscore.DEClash>
0.0021

> <Gold.Chemscore.DEInternal>
2.6710

> <Gold.Chemscore.Rot>
2.8778

> <Gold.Chemscore.Internal.Correction>
   9.000000E+99

> <Gold.Chemscore.Hbonds>
donor molecule, donor type, donor heavy atom, donor atom, acceptor molecule, acceptor atom, score
      L1  H     5    48       P1  7948  0.99
      L1  H     8    34       P1  7957  0.39
      P1  H  7997  8009       L1    14  0.71

> <Gold.Chemscore.Hbond.Weighted>
-11.7510

> <Gold.Chemscore.Metal.Weighted>
-0.0000

> <Gold.Chemscore.Lipo.Weighted>
-10.0454

> <Gold.Chemscore.Internal_Hbond.Weighted>
0.0000

> <Gold.Chemscore.DEClash.Weighted>
0.0021

> <Gold.Chemscore.DEInternal.Weighted>
2.6710

> <Gold.Chemscore.Rot.Weighted>
7.3671

> <Gold.Chemscore.Internal.Correction.Weighted>
   9.000000E+99

> <Gold.Protein.RotatedTorsions>
[ 6907 6896 6895 6894 ] final  146.50 input  -60.11 | X-H torsion
[ 7974 7965 7964 7962 ] final   -1.16 input  175.53 | X-H torsion
[ 8008 7997 7996 7995 ] final -165.64 input   59.86 | X-H torsion
[ 10167 10162 10161 10158 ] final  -97.46 input  -65.29 | X-H torsion
[ 10718 10713 10712 10709 ] final  111.84 input   66.30 | X-H torsion
[ 10763 10752 10751 10750 ] final -175.56 input  -60.55 | X-H torsion
[ 11005 11000 10999 10996 ] final -114.62 input  -57.11 | X-H torsion

> <Gold.Protein.ActiveResidues>
 VAL166  LYS551  ARG553  GLY616  TRP617  ASP618  TYR619  PRO620  LYS621  CYS622 
 ASP623  PHE694  ASN695  SER759  ASP760  ASP761  ALA762  ILE779  LEU786  VAL792 
 PHE793  MET794  SER795  GLU796  ALA797  LYS798  CYS799  TRP800  GLU811  SER814 

> <Gold.Protein.RotatedAtoms>
  152.1671  133.4619  159.4889 H   0  0  0  0  0  0  0  0  0  0  0  0  # atno 6907 bound_to 6896
  150.6914  134.1999  159.4327 H   0  0  0  0  0  0  0  0  0  0  0  0  # atno 6908 bound_to 6896
  151.9905  134.9981  160.0612 H   0  0  0  0  0  0  0  0  0  0  0  0  # atno 6909 bound_to 6896
  146.2420  140.1378  142.8336 H   0  0  0  0  0  0  0  0  0  0  0  0  # atno 7974 bound_to 7965
  155.8526  140.0965  157.1665 H   0  0  0  0  0  0  0  0  0  0  0  0  # atno 8008 bound_to 7997
  154.3986  140.1380  156.3925 H   0  0  0  0  0  0  0  0  0  0  0  0  # atno 8009 bound_to 7997
  155.7945  140.3455  155.5370 H   0  0  0  0  0  0  0  0  0  0  0  0  # atno 8010 bound_to 7997
  140.2832  143.3268  152.0420 H   0  0  0  0  0  0  0  0  0  0  0  0  # atno 10167 bound_to 10162
  157.6424  131.0957  150.6807 H   0  0  0  0  0  0  0  0  0  0  0  0  # atno 10718 bound_to 10713
  154.5830  135.2838  155.0714 H   0  0  0  0  0  0  0  0  0  0  0  0  # atno 10763 bound_to 10752
  154.2043  135.6419  153.5100 H   0  0  0  0  0  0  0  0  0  0  0  0  # atno 10764 bound_to 10752
  153.0094  135.5476  154.6490 H   0  0  0  0  0  0  0  0  0  0  0  0  # atno 10765 bound_to 10752
  141.0540  133.9642  157.2786 H   0  0  0  0  0  0  0  0  0  0  0  0  # atno 11005 bound_to 11000
  145.0272  140.8842  143.5131 LP  0  0  0  0  0  0  0  0  0  0  0  0  # atno 17320 bound_to 7965
  145.1436  139.2557  143.5477 LP  0  0  0  0  0  0  0  0  0  0  0  0  # atno 17321 bound_to 7965
  139.4957  144.6577  151.6535 LP  0  0  0  0  0  0  0  0  0  0  0  0  # atno 17342 bound_to 10162
  140.5794  143.9972  150.6260 LP  0  0  0  0  0  0  0  0  0  0  0  0  # atno 17343 bound_to 10162
  156.7129  130.4657  149.5542 LP  0  0  0  0  0  0  0  0  0  0  0  0  # atno 17370 bound_to 10713
  156.1718  130.6441  151.0846 LP  0  0  0  0  0  0  0  0  0  0  0  0  # atno 17371 bound_to 10713
  139.9374  135.0195  156.8600 LP  0  0  0  0  0  0  0  0  0  0  0  0  # atno 17394 bound_to 11000
  140.6000  134.0181  155.7533 LP  0  0  0  0  0  0  0  0  0  0  0  0  # atno 17395 bound_to 11000

$$$$
