AV-unprocessed.smi:2886|AV-procd|sdf|11088|dock7
  -GOLD-   2272015563D 1   1.00000     0.00000
 Structure written by MMmdl.
 28 30  0  0  0  0  0  0  0  0  1 V2000
  150.5487  141.0686  155.2641 O   0  0  0  0  0  0  0  0  0  0  0  0
  149.4450  140.9098  154.7461 C   0  0  0  0  0  0  0  0  0  0  0  0
  148.5368  141.9124  154.6966 N   0  0  0  0  0  0  0  0  0  0  0  0
  147.2761  141.8487  154.1549 N   0  0  0  0  0  0  0  0  0  0  0  0
  146.8916  140.7384  153.6245 C   0  0  0  0  0  0  0  0  0  0  0  0
  147.7394  139.5519  153.5703 C   0  0  0  0  0  0  0  0  0  0  0  0
  147.3238  138.3561  152.9991 N   0  0  0  0  0  0  0  0  0  0  0  0
  146.0464  138.0415  152.3735 C   0  0  1  0  0  0  0  0  0  0  0  0
  146.1964  137.3359  151.0252 C   0  0  0  0  0  0  0  0  0  0  0  0
  145.3281  136.0862  151.2325 C   0  0  1  0  0  0  0  0  0  0  0  0
  146.0266  135.0593  152.1330 C   0  0  0  0  0  0  0  0  0  0  0  0
  145.9276  135.7286  153.5026 C   0  0  0  0  0  0  0  0  0  0  0  0
  145.1922  137.0367  153.1655 C   0  0  2  0  0  0  0  0  0  0  0  0
  144.3430  136.5822  152.1250 O   0  0  0  0  0  0  0  0  0  0  0  0
  148.9754  139.6600  154.1322 C   0  0  0  0  0  0  0  0  0  0  0  0
  150.0593  138.3091  154.1383 Cl  0  0  0  0  0  0  0  0  0  0  0  0
  148.7722  142.8110  155.0930 H   0  0  0  0  0  0  0  0  0  0  0  0
  145.8969  140.6388  153.1917 H   0  0  0  0  0  0  0  0  0  0  0  0
  148.0342  137.6480  152.8767 H   0  0  0  0  0  0  0  0  0  0  0  0
  145.4736  138.9545  152.2115 H   0  0  0  0  0  0  0  0  0  0  0  0
  145.7991  137.9600  150.2244 H   0  0  0  0  0  0  0  0  0  0  0  0
  147.2272  137.0801  150.7753 H   0  0  0  0  0  0  0  0  0  0  0  0
  144.9292  135.6657  150.3089 H   0  0  0  0  0  0  0  0  0  0  0  0
  145.4879  134.1109  152.1316 H   0  0  0  0  0  0  0  0  0  0  0  0
  147.0557  134.8687  151.8267 H   0  0  0  0  0  0  0  0  0  0  0  0
  145.3296  135.1172  154.1792 H   0  0  0  0  0  0  0  0  0  0  0  0
  146.8996  135.8913  153.9687 H   0  0  0  0  0  0  0  0  0  0  0  0
  144.6668  137.4785  154.0127 H   0  0  0  0  0  0  0  0  0  0  0  0
  1  2  2  0  0  0  0
  2 15  1  0  0  0  0
  2  3  1  0  0  0  0
  3 17  1  0  0  0  0
  3  4  1  0  0  0  0
  4  5  2  0  0  0  0
  5  6  1  0  0  0  0
  5 18  1  0  0  0  0
  6  7  1  0  0  0  0
  6 15  2  0  0  0  0
  7  8  1  0  0  0  0
  7 19  1  0  0  0  0
  8 13  1  0  0  0  0
  8  9  1  0  0  0  0
  8 20  1  0  0  0  0
  9 10  1  0  0  0  0
  9 21  1  0  0  0  0
  9 22  1  0  0  0  0
 10 14  1  0  0  0  0
 10 11  1  0  0  0  0
 10 23  1  0  0  0  0
 11 12  1  0  0  0  0
 11 24  1  0  0  0  0
 11 25  1  0  0  0  0
 12 13  1  0  0  0  0
 12 26  1  0  0  0  0
 12 27  1  0  0  0  0
 13 14  1  0  0  0  0
 13 28  1  0  0  0  0
 15 16  1  0  0  0  0
M  END
> <s_m_source_file>
AV-unprocessed.smi

> <i_m_source_file_index>
2886

> <i_lp_mmshare_version>
43012

> <i_f3d_flags>
0

> <s_epik_input>
Tz1jMVtuSF1uW2NIXWMoYzFDbClbTkhdW0NASF0oW0NIMl1bQ0BASF0yMylbQ0BASF0oTzMpW0NIMl1bQ0gyXTI=

> <s_epik_cmdline>
J2VwaWtfcHl0aG9uJywgJy1waCcsICc3LjAnLCAnLXRuJywgJzgnLCAnLW1hJywgJzIwMCcsICctbWV0YWxfYmluZGluZycsICctaW1hZScsICc8aW5maWxlLm1hZT4nLCAnLW9tYWUnLCAnPG91dGZpbGUubWFlPic=

> <r_lp_tautomer_probability>
0.986175

> <r_epik_Ionization_Penalty>
0.000975594

> <r_epik_Ionization_Penalty_Charging>
0.000940184

> <r_epik_Ionization_Penalty_Neutral>
3.54099e-05

> <r_epik_State_Penalty>
0.00620319

> <r_epik_Charging_Adjusted_Penalty>
0.00714337

> <i_epik_Tot_Q>
0

> <i_epik_Tot_abs_Q>
0

> <r_epik_Metal_State_Penalty>
0.287699

> <b_epik_Metal_Only>
0

> <s_lp_Force_Field>
OPLS_2005

> <r_lp_Energy>
55.2825

> <b_lp_Chiralities_Consistent>
1

> <s_lp_Variant>
AV-unprocessed.smi:2886-2

> <Gold.Version>
5.8.1

> <Gold.Id.Protein>
6NUR|6NUR_protein|mol2

> <Gold.PLP.Fitness>
32.8206

> <Gold.PLP.PLP>
-22.3860

> <Gold.PLP.part.hbond>
-3.0000

> <Gold.PLP.part.metal>
0.0000

> <Gold.PLP.part.buried>
4.9024

> <Gold.PLP.part.nonpolar>
-24.7769

> <Gold.PLP.part.repulsive>
1.0076

> <Gold.PLP.ligand.clash>
0.0000

> <Gold.PLP.ligand.torsion>
0.1056

> <Gold.PLP.Chemscore.Hbond>
2.5456

> <Gold.PLP.Chemscore.CHOScore>
1.0000

> <Gold.PLP.Chemscore.Metal>
0.0000

> <Gold.Chemscore.Hbonds>
donor molecule, donor type, donor heavy atom, donor atom, acceptor molecule, acceptor atom, score
      L1  H     3    17       P1  8028  1.00
      L1  H     7    19       P1  7948  1.00
      P1  H  7989  7998       L1     1  0.50
      L1  C     5    18       P1 10175  1.00

> <Gold.PLP.Chemscore.Internal.Correction>
0.0090

> <Gold.Rescore>
     Score         DG    S(hbond)    S(metal)    S(lipo)     H(rot)  DE(clash)    DE(int)     intcor
     14.75     -16.32       2.01        0.00      57.19       1.00       1.42       0.15       ----

> <Gold.Chemscore.Fitness>
14.7513

> <Gold.Chemscore.DG>
-16.3175

> <Gold.Chemscore.ZeroCoef>
-5.4800

> <Gold.Chemscore.Hbond>
2.0078

> <Gold.Chemscore.Metal>
0.0000

> <Gold.Chemscore.Lipo>
57.1922

> <Gold.Chemscore.Internal_Hbond>
0.0000

> <Gold.Chemscore.DEClash>
1.4173

> <Gold.Chemscore.DEInternal>
0.1488

> <Gold.Chemscore.Rot>
1.0000

> <Gold.Chemscore.Internal.Correction>
   9.000000E+99

> <Gold.Chemscore.Hbonds>
donor molecule, donor type, donor heavy atom, donor atom, acceptor molecule, acceptor atom, score
      L1  H     3    17       P1  8028  0.97
      L1  H     7    19       P1  7948  0.96
      P1  H  7989  7998       L1     1  0.07

> <Gold.Chemscore.Hbond.Weighted>
-6.7060

> <Gold.Chemscore.Metal.Weighted>
-0.0000

> <Gold.Chemscore.Lipo.Weighted>
-6.6915

> <Gold.Chemscore.Internal_Hbond.Weighted>
0.0000

> <Gold.Chemscore.DEClash.Weighted>
1.4173

> <Gold.Chemscore.DEInternal.Weighted>
0.1488

> <Gold.Chemscore.Rot.Weighted>
2.5600

> <Gold.Chemscore.Internal.Correction.Weighted>
   9.000000E+99

> <Gold.Protein.RotatedTorsions>
[ 6907 6896 6895 6894 ] final  112.87 input  -60.11 | X-H torsion
[ 7974 7965 7964 7962 ] final   28.97 input  175.53 | X-H torsion
[ 8008 7997 7996 7995 ] final -174.94 input   59.86 | X-H torsion
[ 10167 10162 10161 10158 ] final  -77.22 input  -65.29 | X-H torsion
[ 10718 10713 10712 10709 ] final   31.51 input   66.30 | X-H torsion
[ 10763 10752 10751 10750 ] final    9.45 input  -60.55 | X-H torsion
[ 11005 11000 10999 10996 ] final   42.84 input  -57.11 | X-H torsion

> <Gold.Protein.ActiveResidues>
 VAL166  LYS551  ARG553  GLY616  TRP617  ASP618  TYR619  PRO620  LYS621  CYS622 
 ASP623  PHE694  ASN695  SER759  ASP760  ASP761  ALA762  ILE779  LEU786  VAL792 
 PHE793  MET794  SER795  GLU796  ALA797  LYS798  CYS799  TRP800  GLU811  SER814 

> <Gold.Protein.RotatedAtoms>
  152.4892  133.8455  159.7174 H   0  0  0  0  0  0  0  0  0  0  0  0  # atno 6907 bound_to 6896
  150.9006  133.7114  159.2886 H   0  0  0  0  0  0  0  0  0  0  0  0  # atno 6908 bound_to 6896
  151.4556  135.1038  159.9762 H   0  0  0  0  0  0  0  0  0  0  0  0  # atno 6909 bound_to 6896
  146.1698  139.6984  142.8975 H   0  0  0  0  0  0  0  0  0  0  0  0  # atno 7974 bound_to 7965
  155.9764  140.1173  157.0766 H   0  0  0  0  0  0  0  0  0  0  0  0  # atno 8008 bound_to 7997
  154.4170  140.1153  156.5443 H   0  0  0  0  0  0  0  0  0  0  0  0  # atno 8009 bound_to 7997
  155.6529  140.3473  155.4757 H   0  0  0  0  0  0  0  0  0  0  0  0  # atno 8010 bound_to 7997
  140.4789  143.2407  151.8089 H   0  0  0  0  0  0  0  0  0  0  0  0  # atno 10167 bound_to 10162
  157.2735  130.7219  149.6517 H   0  0  0  0  0  0  0  0  0  0  0  0  # atno 10718 bound_to 10713
  153.2139  135.6872  153.8081 H   0  0  0  0  0  0  0  0  0  0  0  0  # atno 10763 bound_to 10752
  153.7304  135.3253  155.3285 H   0  0  0  0  0  0  0  0  0  0  0  0  # atno 10764 bound_to 10752
  154.8236  135.4634  154.0958 H   0  0  0  0  0  0  0  0  0  0  0  0  # atno 10765 bound_to 10752
  140.1701  134.4233  155.8263 H   0  0  0  0  0  0  0  0  0  0  0  0  # atno 11005 bound_to 11000
  145.4370  141.0419  143.2879 LP  0  0  0  0  0  0  0  0  0  0  0  0  # atno 17320 bound_to 7965
  144.8146  139.5899  143.7014 LP  0  0  0  0  0  0  0  0  0  0  0  0  # atno 17321 bound_to 7965
  139.4830  144.4797  151.9322 LP  0  0  0  0  0  0  0  0  0  0  0  0  # atno 17342 bound_to 10162
  140.3883  144.2648  150.5902 LP  0  0  0  0  0  0  0  0  0  0  0  0  # atno 17343 bound_to 10162
  155.9663  130.4360  150.5116 LP  0  0  0  0  0  0  0  0  0  0  0  0  # atno 17370 bound_to 10713
  157.3045  131.0652  151.2044 LP  0  0  0  0  0  0  0  0  0  0  0  0  # atno 17371 bound_to 10713
  141.2216  133.6952  156.7747 LP  0  0  0  0  0  0  0  0  0  0  0  0  # atno 17394 bound_to 11000
  140.2388  134.8629  157.3552 LP  0  0  0  0  0  0  0  0  0  0  0  0  # atno 17395 bound_to 11000

$$$$
