AV-unprocessed.smi:460|AV-procd|sdf|2628|dock8
  -GOLD-   2262023 33D 1   1.00000     0.00000
 Structure written by MMmdl.
 47 49  0  0  0  0  0  0  0  0  2 V2000
  144.9817  137.0787  152.2589 C   0  0  0  0  0  0  0  0  0  0  0  0
  146.1291  137.5660  153.1580 C   0  0  0  0  0  0  0  0  0  0  0  0
  146.8470  138.8324  152.6444 C   0  0  2  0  0  0  0  0  0  0  0  0
  147.1434  138.6539  151.2763 O   0  0  0  0  0  0  0  0  0  0  0  0
  148.0801  139.1627  153.4321 C   0  0  0  0  0  0  0  0  0  0  0  0
  149.2103  138.4013  153.4995 N   0  3  0  0  0  0  0  0  0  0  0  0
  150.1526  139.0191  154.3204 C   0  0  0  0  0  0  0  0  0  0  0  0
  151.4301  138.6201  154.7002 C   0  0  0  0  0  0  0  0  0  0  0  0
  152.1349  139.4888  155.5589 C   0  0  0  0  0  0  0  0  0  0  0  0
  151.5663  140.6992  156.0060 C   0  0  0  0  0  0  0  0  0  0  0  0
  150.2705  141.0935  155.6119 C   0  0  0  0  0  0  0  0  0  0  0  0
  149.5809  140.2299  154.7604 C   0  0  0  0  0  0  0  0  0  0  0  0
  148.3129  140.2895  154.1690 N   0  0  0  0  0  0  0  0  0  0  0  0
  147.4724  141.4736  154.4070 C   0  0  0  0  0  0  0  0  0  0  0  0
  146.0911  141.1133  154.9709 C   0  0  0  0  0  0  0  0  0  0  0  0
  145.5657  142.2476  155.6444 O   0  0  0  0  0  0  0  0  0  0  0  0
  145.0572  143.2836  154.8914 C   0  0  0  0  0  0  0  0  0  0  0  0
  145.5282  143.6127  153.5961 C   0  0  0  0  0  0  0  0  0  0  0  0
  144.9700  144.6922  152.8877 C   0  0  0  0  0  0  0  0  0  0  0  0
  143.9396  145.4533  153.4652 C   0  0  0  0  0  0  0  0  0  0  0  0
  143.4643  145.1340  154.7503 C   0  0  0  0  0  0  0  0  0  0  0  0
  144.0178  144.0464  155.4722 C   0  0  0  0  0  0  0  0  0  0  0  0
  143.5916  143.6660  156.7281 O   0  0  0  0  0  0  0  0  0  0  0  0
  142.5499  144.4096  157.3418 C   0  0  0  0  0  0  0  0  0  0  0  0
  144.5824  136.1323  152.6240 H   0  0  0  0  0  0  0  0  0  0  0  0
  145.3158  136.9214  151.2350 H   0  0  0  0  0  0  0  0  0  0  0  0
  144.1575  137.7909  152.2311 H   0  0  0  0  0  0  0  0  0  0  0  0
  145.7378  137.7418  154.1610 H   0  0  0  0  0  0  0  0  0  0  0  0
  146.8591  136.7616  153.2570 H   0  0  0  0  0  0  0  0  0  0  0  0
  146.1522  139.6683  152.7114 H   0  0  0  0  0  0  0  0  0  0  0  0
  147.9594  139.0918  151.0875 H   0  0  0  0  0  0  0  0  0  0  0  0
  151.8662  137.6926  154.3596 H   0  0  0  0  0  0  0  0  0  0  0  0
  153.1305  139.2212  155.8818 H   0  0  0  0  0  0  0  0  0  0  0  0
  152.1356  141.3389  156.6647 H   0  0  0  0  0  0  0  0  0  0  0  0
  149.8458  142.0219  155.9634 H   0  0  0  0  0  0  0  0  0  0  0  0
  147.9984  142.1515  155.0790 H   0  0  0  0  0  0  0  0  0  0  0  0
  147.3685  142.0086  153.4626 H   0  0  0  0  0  0  0  0  0  0  0  0
  145.4265  140.7986  154.1651 H   0  0  0  0  0  0  0  0  0  0  0  0
  146.1939  140.2813  155.6692 H   0  0  0  0  0  0  0  0  0  0  0  0
  146.3232  143.0542  153.1263 H   0  0  0  0  0  0  0  0  0  0  0  0
  145.3351  144.9377  151.9013 H   0  0  0  0  0  0  0  0  0  0  0  0
  143.5118  146.2828  152.9214 H   0  0  0  0  0  0  0  0  0  0  0  0
  142.6690  145.7380  155.1597 H   0  0  0  0  0  0  0  0  0  0  0  0
  142.3589  144.0041  158.3350 H   0  0  0  0  0  0  0  0  0  0  0  0
  141.6217  144.3406  156.7729 H   0  0  0  0  0  0  0  0  0  0  0  0
  142.8251  145.4583  157.4618 H   0  0  0  0  0  0  0  0  0  0  0  0
  149.3186  137.5157  153.0223 H   0  0  0  0  0  0  0  0  0  0  0  0
  1  2  1  0  0  0  0
  1 25  1  0  0  0  0
  1 26  1  0  0  0  0
  1 27  1  0  0  0  0
  2  3  1  0  0  0  0
  2 28  1  0  0  0  0
  2 29  1  0  0  0  0
  3  4  1  0  0  0  0
  3  5  1  0  0  0  0
  3 30  1  0  0  0  0
  4 31  1  0  0  0  0
  5 13  1  0  0  0  0
  5  6  2  0  0  0  0
  6  7  1  0  0  0  0
  6 47  1  0  0  0  0
  7 12  2  0  0  0  0
  7  8  1  0  0  0  0
  8  9  2  0  0  0  0
  8 32  1  0  0  0  0
  9 10  1  0  0  0  0
  9 33  1  0  0  0  0
 10 11  2  0  0  0  0
 10 34  1  0  0  0  0
 11 12  1  0  0  0  0
 11 35  1  0  0  0  0
 12 13  1  0  0  0  0
 13 14  1  0  0  0  0
 14 15  1  0  0  0  0
 14 36  1  0  0  0  0
 14 37  1  0  0  0  0
 15 16  1  0  0  0  0
 15 38  1  0  0  0  0
 15 39  1  0  0  0  0
 16 17  1  0  0  0  0
 17 22  1  0  0  0  0
 17 18  2  0  0  0  0
 18 19  1  0  0  0  0
 18 40  1  0  0  0  0
 19 20  2  0  0  0  0
 19 41  1  0  0  0  0
 20 21  1  0  0  0  0
 20 42  1  0  0  0  0
 21 22  2  0  0  0  0
 21 43  1  0  0  0  0
 22 23  1  0  0  0  0
 23 24  1  0  0  0  0
 24 44  1  0  0  0  0
 24 45  1  0  0  0  0
 24 46  1  0  0  0  0
M  CHG  1   6   1
M  END
> <s_m_source_file>
AV-unprocessed.smi

> <i_m_source_file_index>
460

> <i_lp_mmshare_version>
43012

> <i_f3d_flags>
0

> <s_epik_input>
W2NIXTFbY0hdW2NIXVtjSF1jKGMxMiluKGMobjIpW0NAQEhdKFtPSF0pW0NIMl1bQ0gzXSlbQ0gyXVtDSDJdT2MzW2NIXVtjSF1bY0hdW2NIXWMzT1tDSDNd

> <s_epik_cmdline>
J2VwaWtfcHl0aG9uJywgJy1waCcsICc3LjAnLCAnLXRuJywgJzgnLCAnLW1hJywgJzIwMCcsICctbWV0YWxfYmluZGluZycsICctaW1hZScsICc8aW5maWxlLm1hZT4nLCAnLW9tYWUnLCAnPG91dGZpbGUubWFlPic=

> <r_lp_tautomer_probability>
1

> <r_epik_Ionization_Penalty>
1.48085

> <r_epik_Ionization_Penalty_Charging>
1.48083

> <r_epik_Ionization_Penalty_Neutral>
1.80167e-05

> <r_epik_State_Penalty>
1.56944

> <r_epik_Charging_Adjusted_Penalty>
3.05027

> <i_epik_Tot_Q>
1

> <i_epik_Tot_abs_Q>
1

> <r_epik_Metal_State_Penalty>
5.61877

> <b_epik_Metal_Only>
0

> <s_lp_Force_Field>
OPLS_2005

> <r_lp_Energy>
23.3046

> <b_lp_Chiralities_Consistent>
1

> <s_lp_Variant>
AV-unprocessed.smi:460-3

> <Gold.Version>
5.8.1

> <Gold.Id.Protein>
6NUR|6NUR_protein|mol2

> <Gold.PLP.Fitness>
59.5027

> <Gold.PLP.PLP>
-51.7363

> <Gold.PLP.part.hbond>
-4.7913

> <Gold.PLP.part.metal>
0.0000

> <Gold.PLP.part.buried>
-3.5058

> <Gold.PLP.part.nonpolar>
-44.9725

> <Gold.PLP.part.repulsive>
0.2166

> <Gold.PLP.ligand.clash>
0.0000

> <Gold.PLP.ligand.torsion>
0.6551

> <Gold.PLP.Chemscore.Hbond>
3.0000

> <Gold.PLP.Chemscore.CHOScore>
0.0000

> <Gold.PLP.Chemscore.Metal>
0.0000

> <Gold.Chemscore.Hbonds>
donor molecule, donor type, donor heavy atom, donor atom, acceptor molecule, acceptor atom, score
      L1  H     4    31       P1  7957  1.00
      L1  H     6    47       P1  7948  2.00

> <Gold.PLP.Chemscore.Internal.Correction>
0.0767

> <Gold.Rescore>
     Score         DG    S(hbond)    S(metal)    S(lipo)     H(rot)  DE(clash)    DE(int)     intcor
     16.72     -18.05       1.90        0.00     106.69       2.45       0.18       1.14       ----

> <Gold.Chemscore.Fitness>
16.7210

> <Gold.Chemscore.DG>
-18.0504

> <Gold.Chemscore.ZeroCoef>
-5.4800

> <Gold.Chemscore.Hbond>
1.9004

> <Gold.Chemscore.Metal>
0.0000

> <Gold.Chemscore.Lipo>
106.6860

> <Gold.Chemscore.Internal_Hbond>
0.0000

> <Gold.Chemscore.DEClash>
0.1849

> <Gold.Chemscore.DEInternal>
1.1445

> <Gold.Chemscore.Rot>
2.4450

> <Gold.Chemscore.Internal.Correction>
   9.000000E+99

> <Gold.Chemscore.Hbonds>
donor molecule, donor type, donor heavy atom, donor atom, acceptor molecule, acceptor atom, score
      L1  H     4    31       P1  7957  0.45
      L1  H     6    47       P1  7948  0.95

> <Gold.Chemscore.Hbond.Weighted>
-6.3474

> <Gold.Chemscore.Metal.Weighted>
-0.0000

> <Gold.Chemscore.Lipo.Weighted>
-12.4823

> <Gold.Chemscore.Internal_Hbond.Weighted>
0.0000

> <Gold.Chemscore.DEClash.Weighted>
0.1849

> <Gold.Chemscore.DEInternal.Weighted>
1.1445

> <Gold.Chemscore.Rot.Weighted>
6.2593

> <Gold.Chemscore.Internal.Correction.Weighted>
   9.000000E+99

> <Gold.Protein.RotatedTorsions>
[ 6907 6896 6895 6894 ] final  -71.46 input  -60.11 | X-H torsion
[ 7974 7965 7964 7962 ] final -112.01 input  175.53 | X-H torsion
[ 8008 7997 7996 7995 ] final -119.69 input   59.86 | X-H torsion
[ 10167 10162 10161 10158 ] final -132.44 input  -65.29 | X-H torsion
[ 10718 10713 10712 10709 ] final  138.59 input   66.30 | X-H torsion
[ 10763 10752 10751 10750 ] final   63.66 input  -60.55 | X-H torsion
[ 11005 11000 10999 10996 ] final  -93.07 input  -57.11 | X-H torsion

> <Gold.Protein.ActiveResidues>
 VAL166  LYS551  ARG553  GLY616  TRP617  ASP618  TYR619  PRO620  LYS621  CYS622 
 ASP623  PHE694  ASN695  SER759  ASP760  ASP761  ALA762  ILE779  LEU786  VAL792 
 PHE793  MET794  SER795  GLU796  ALA797  LYS798  CYS799  TRP800  GLU811  SER814 

> <Gold.Protein.RotatedAtoms>
  150.7211  134.5305  159.5697 H   0  0  0  0  0  0  0  0  0  0  0  0  # atno 6907 bound_to 6896
  152.2839  134.7795  160.0400 H   0  0  0  0  0  0  0  0  0  0  0  0  # atno 6908 bound_to 6896
  151.8431  133.3391  159.3686 H   0  0  0  0  0  0  0  0  0  0  0  0  # atno 6909 bound_to 6896
  145.1491  140.8819  143.3657 H   0  0  0  0  0  0  0  0  0  0  0  0  # atno 7974 bound_to 7965
  155.1198  140.0398  157.2747 H   0  0  0  0  0  0  0  0  0  0  0  0  # atno 8008 bound_to 7997
  154.6622  140.2593  155.7071 H   0  0  0  0  0  0  0  0  0  0  0  0  # atno 8009 bound_to 7997
  156.2624  140.2814  156.1098 H   0  0  0  0  0  0  0  0  0  0  0  0  # atno 8010 bound_to 7997
  139.9085  143.6522  152.2580 H   0  0  0  0  0  0  0  0  0  0  0  0  # atno 10167 bound_to 10162
  157.4236  131.1041  151.0326 H   0  0  0  0  0  0  0  0  0  0  0  0  # atno 10718 bound_to 10713
  153.0026  135.5421  154.6387 H   0  0  0  0  0  0  0  0  0  0  0  0  # atno 10763 bound_to 10752
  154.5648  135.2837  155.0887 H   0  0  0  0  0  0  0  0  0  0  0  0  # atno 10764 bound_to 10752
  154.2076  135.6473  153.5158 H   0  0  0  0  0  0  0  0  0  0  0  0  # atno 10765 bound_to 10752
  141.1506  133.7863  157.0108 H   0  0  0  0  0  0  0  0  0  0  0  0  # atno 11005 bound_to 11000
  145.0450  139.3228  143.5957 LP  0  0  0  0  0  0  0  0  0  0  0  0  # atno 17320 bound_to 7965
  146.3496  139.9837  142.8693 LP  0  0  0  0  0  0  0  0  0  0  0  0  # atno 17321 bound_to 7965
  139.6963  144.7641  151.1351 LP  0  0  0  0  0  0  0  0  0  0  0  0  # atno 17342 bound_to 10162
  140.7691  143.5519  150.9195 LP  0  0  0  0  0  0  0  0  0  0  0  0  # atno 17343 bound_to 10162
  157.1248  130.6077  149.5514 LP  0  0  0  0  0  0  0  0  0  0  0  0  # atno 17370 bound_to 10713
  155.9889  130.4934  150.7190 LP  0  0  0  0  0  0  0  0  0  0  0  0  # atno 17371 bound_to 10713
  140.0879  134.9610  157.1729 LP  0  0  0  0  0  0  0  0  0  0  0  0  # atno 17394 bound_to 11000
  140.3486  134.2623  155.7201 LP  0  0  0  0  0  0  0  0  0  0  0  0  # atno 17395 bound_to 11000

$$$$
