AV-unprocessed.smi:3085|AV-procd|sdf|11758|dock5
  -GOLD-   2272017143D 1   1.00000     0.00000
 Structure written by MMmdl.
 28 29  0  0  0  0  0  0  0  0  2 V2000
  149.6091  133.3901  155.2076 C   0  0  0  0  0  0  0  0  0  0  0  0
  148.6671  134.4880  154.7013 C   0  0  0  0  0  0  0  0  0  0  0  0
  147.5511  133.9480  153.8685 C   0  0  0  0  0  0  0  0  0  0  0  0
  147.4419  134.2233  152.5606 N   0  0  0  0  0  0  0  0  0  0  0  0
  146.3450  133.5404  152.2007 C   0  0  0  0  0  0  0  0  0  0  0  0
  145.8216  133.5615  150.7990 C   0  0  2  0  0  0  0  0  0  0  0  0
  144.4332  134.2230  150.7002 C   0  0  0  0  0  0  0  0  0  0  0  0
  143.9225  134.1215  149.3192 N   0  3  0  0  0  0  0  0  0  0  0  0
  143.9115  132.7222  148.8484 C   0  0  0  0  0  0  0  0  0  0  0  0
  145.3094  132.0987  149.0077 C   0  0  0  0  0  0  0  0  0  0  0  0
  145.7336  132.2071  150.3627 O   0  0  0  0  0  0  0  0  0  0  0  0
  145.7884  132.8728  153.2171 N   0  0  0  0  0  0  0  0  0  0  0  0
  146.5874  133.1377  154.3159 N   0  0  0  0  0  0  0  0  0  0  0  0
  148.0424  134.8003  151.9896 H   0  0  0  0  0  0  0  0  0  0  0  0
  150.4129  133.8148  155.8090 H   0  0  0  0  0  0  0  0  0  0  0  0
  150.0638  132.8481  154.3780 H   0  0  0  0  0  0  0  0  0  0  0  0
  149.0754  132.6690  155.8275 H   0  0  0  0  0  0  0  0  0  0  0  0
  148.2410  135.0282  155.5475 H   0  0  0  0  0  0  0  0  0  0  0  0
  149.2270  135.2190  154.1170 H   0  0  0  0  0  0  0  0  0  0  0  0
  146.5368  134.0955  150.1697 H   0  0  0  0  0  0  0  0  0  0  0  0
  143.7284  133.7346  151.3750 H   0  0  0  0  0  0  0  0  0  0  0  0
  144.4836  135.2725  150.9915 H   0  0  0  0  0  0  0  0  0  0  0  0
  142.9853  134.4966  149.2789 H   0  0  0  0  0  0  0  0  0  0  0  0
  143.1794  132.1549  149.4249 H   0  0  0  0  0  0  0  0  0  0  0  0
  143.5933  132.6926  147.8060 H   0  0  0  0  0  0  0  0  0  0  0  0
  145.2849  131.0453  148.7286 H   0  0  0  0  0  0  0  0  0  0  0  0
  146.0308  132.5856  148.3495 H   0  0  0  0  0  0  0  0  0  0  0  0
  144.5207  134.6629  148.7114 H   0  0  0  0  0  0  0  0  0  0  0  0
  1  2  1  0  0  0  0
  1 15  1  0  0  0  0
  1 16  1  0  0  0  0
  1 17  1  0  0  0  0
  2 18  1  0  0  0  0
  2 19  1  0  0  0  0
  2  3  1  0  0  0  0
  3  4  1  0  0  0  0
  3 13  2  0  0  0  0
  4 14  1  0  0  0  0
  4  5  1  0  0  0  0
  5 12  2  0  0  0  0
  5  6  1  0  0  0  0
  6 11  1  0  0  0  0
  6  7  1  0  0  0  0
  6 20  1  0  0  0  0
  7  8  1  0  0  0  0
  7 21  1  0  0  0  0
  7 22  1  0  0  0  0
  8  9  1  0  0  0  0
  8 23  1  0  0  0  0
  8 28  1  0  0  0  0
  9 10  1  0  0  0  0
  9 24  1  0  0  0  0
  9 25  1  0  0  0  0
 10 11  1  0  0  0  0
 10 26  1  0  0  0  0
 10 27  1  0  0  0  0
 12 13  1  0  0  0  0
M  CHG  1   8   1
M  END
> <s_m_source_file>
AV-unprocessed.smi

> <i_m_source_file_index>
3085

> <i_lp_mmshare_version>
43012

> <i_f3d_flags>
0

> <s_epik_input>
W0NIM11bQ0gyXWMxbmMobltuSF0xKVtDQEBIXTJbQ0gyXVtOSF1bQ0gyXVtDSDJdTzI=

> <s_epik_cmdline>
J2VwaWtfcHl0aG9uJywgJy1waCcsICc3LjAnLCAnLXRuJywgJzgnLCAnLW1hJywgJzIwMCcsICctbWV0YWxfYmluZGluZycsICctaW1hZScsICc8aW5maWxlLm1hZT4nLCAnLW9tYWUnLCAnPG91dGZpbGUubWFlPic=

> <r_lp_tautomer_probability>
0.0517155

> <r_epik_Ionization_Penalty>
0.290065

> <r_epik_Ionization_Penalty_Charging>
0.125708

> <r_epik_Ionization_Penalty_Neutral>
0.164357

> <r_epik_State_Penalty>
2.26879

> <r_epik_Charging_Adjusted_Penalty>
2.39449

> <i_epik_Tot_Q>
1

> <i_epik_Tot_abs_Q>
1

> <r_epik_Metal_State_Penalty>
2.49092

> <b_epik_Metal_Only>
0

> <s_lp_Force_Field>
OPLS_2005

> <r_lp_Energy>
12.4164

> <b_lp_Chiralities_Consistent>
1

> <s_lp_Variant>
AV-unprocessed.smi:3085-9

> <Gold.Version>
5.8.1

> <Gold.Id.Protein>
6NUR|6NUR_protein|mol2

> <Gold.PLP.Fitness>
33.9563

> <Gold.PLP.PLP>
-22.1228

> <Gold.PLP.part.hbond>
-3.0000

> <Gold.PLP.part.metal>
0.0000

> <Gold.PLP.part.buried>
-2.1063

> <Gold.PLP.part.nonpolar>
-16.6157

> <Gold.PLP.part.repulsive>
0.4398

> <Gold.PLP.ligand.clash>
0.0000

> <Gold.PLP.ligand.torsion>
0.0722

> <Gold.PLP.Chemscore.Hbond>
3.9920

> <Gold.PLP.Chemscore.CHOScore>
0.0000

> <Gold.PLP.Chemscore.Metal>
0.0000

> <Gold.Chemscore.Hbonds>
donor molecule, donor type, donor heavy atom, donor atom, acceptor molecule, acceptor atom, score
      L1  H     4    14       P1  7948  0.99
      L1  H     8    23       P1 10186  2.00
      L1  H     8    28       P1  7921  1.00

> <Gold.PLP.Chemscore.Internal.Correction>
0.0018

> <Gold.Rescore>
     Score         DG    S(hbond)    S(metal)    S(lipo)     H(rot)  DE(clash)    DE(int)     intcor
     16.94     -17.29       2.85        0.00      48.12       1.30       0.04       0.31       ----

> <Gold.Chemscore.Fitness>
16.9435

> <Gold.Chemscore.DG>
-17.2892

> <Gold.Chemscore.ZeroCoef>
-5.4800

> <Gold.Chemscore.Hbond>
2.8474

> <Gold.Chemscore.Metal>
0.0000

> <Gold.Chemscore.Lipo>
48.1165

> <Gold.Chemscore.Internal_Hbond>
0.0000

> <Gold.Chemscore.DEClash>
0.0398

> <Gold.Chemscore.DEInternal>
0.3060

> <Gold.Chemscore.Rot>
1.3011

> <Gold.Chemscore.Internal.Correction>
   9.000000E+99

> <Gold.Chemscore.Hbonds>
donor molecule, donor type, donor heavy atom, donor atom, acceptor molecule, acceptor atom, score
      L1  H     4    14       P1  7948  0.28
      L1  H     8    23       P1 10186  0.95
      L1  H     8    28       P1  7921  0.94

> <Gold.Chemscore.Hbond.Weighted>
-9.5104

> <Gold.Chemscore.Metal.Weighted>
-0.0000

> <Gold.Chemscore.Lipo.Weighted>
-5.6296

> <Gold.Chemscore.Internal_Hbond.Weighted>
0.0000

> <Gold.Chemscore.DEClash.Weighted>
0.0398

> <Gold.Chemscore.DEInternal.Weighted>
0.3060

> <Gold.Chemscore.Rot.Weighted>
3.3308

> <Gold.Chemscore.Internal.Correction.Weighted>
   9.000000E+99

> <Gold.Protein.RotatedTorsions>
[ 6907 6896 6895 6894 ] final   61.33 input  -60.11 | X-H torsion
[ 7974 7965 7964 7962 ] final  -41.79 input  175.53 | X-H torsion
[ 8008 7997 7996 7995 ] final   23.87 input   59.86 | X-H torsion
[ 10167 10162 10161 10158 ] final -131.65 input  -65.29 | X-H torsion
[ 10718 10713 10712 10709 ] final  141.25 input   66.30 | X-H torsion
[ 10763 10752 10751 10750 ] final   51.88 input  -60.55 | X-H torsion
[ 11005 11000 10999 10996 ] final  107.24 input  -57.11 | X-H torsion

> <Gold.Protein.ActiveResidues>
 VAL166  LYS551  ARG553  GLY616  TRP617  ASP618  TYR619  PRO620  LYS621  CYS622 
 ASP623  PHE694  ASN695  SER759  ASP760  ASP761  ALA762  ILE779  LEU786  VAL792 
 PHE793  MET794  SER795  GLU796  ALA797  LYS798  CYS799  TRP800  GLU811  SER814 

> <Gold.Protein.RotatedAtoms>
  152.4079  134.6175  160.0041 H   0  0  0  0  0  0  0  0  0  0  0  0  # atno 6907 bound_to 6896
  151.6360  133.3323  159.3127 H   0  0  0  0  0  0  0  0  0  0  0  0  # atno 6908 bound_to 6896
  150.7972  134.7082  159.6633 H   0  0  0  0  0  0  0  0  0  0  0  0  # atno 6909 bound_to 6896
  146.0177  140.6887  142.9193 H   0  0  0  0  0  0  0  0  0  0  0  0  # atno 7974 bound_to 7965
  154.9875  140.3109  155.4920 H   0  0  0  0  0  0  0  0  0  0  0  0  # atno 8008 bound_to 7997
  156.2944  140.2255  156.4918 H   0  0  0  0  0  0  0  0  0  0  0  0  # atno 8009 bound_to 7997
  154.7733  140.0451  157.1057 H   0  0  0  0  0  0  0  0  0  0  0  0  # atno 8010 bound_to 7997
  139.9167  143.6430  152.2563 H   0  0  0  0  0  0  0  0  0  0  0  0  # atno 10167 bound_to 10162
  157.3941  131.1008  151.0617 H   0  0  0  0  0  0  0  0  0  0  0  0  # atno 10718 bound_to 10713
  152.9786  135.5831  154.4488 H   0  0  0  0  0  0  0  0  0  0  0  0  # atno 10763 bound_to 10752
  154.4080  135.2769  155.2057 H   0  0  0  0  0  0  0  0  0  0  0  0  # atno 10764 bound_to 10752
  154.3859  135.6136  153.5870 H   0  0  0  0  0  0  0  0  0  0  0  0  # atno 10765 bound_to 10752
  139.8825  134.9395  156.5789 H   0  0  0  0  0  0  0  0  0  0  0  0  # atno 11005 bound_to 11000
  144.6977  140.3511  143.7181 LP  0  0  0  0  0  0  0  0  0  0  0  0  # atno 17320 bound_to 7965
  145.7242  139.1718  143.2467 LP  0  0  0  0  0  0  0  0  0  0  0  0  # atno 17321 bound_to 7965
  139.6896  144.7648  151.1462 LP  0  0  0  0  0  0  0  0  0  0  0  0  # atno 17342 bound_to 10162
  140.7672  143.5608  150.9101 LP  0  0  0  0  0  0  0  0  0  0  0  0  # atno 17343 bound_to 10162
  157.1640  130.6238  149.5620 LP  0  0  0  0  0  0  0  0  0  0  0  0  # atno 17370 bound_to 10713
  155.9806  130.4807  150.6780 LP  0  0  0  0  0  0  0  0  0  0  0  0  # atno 17371 bound_to 10713
  140.8042  133.8481  155.8753 LP  0  0  0  0  0  0  0  0  0  0  0  0  # atno 17394 bound_to 11000
  140.9565  134.1711  157.4687 LP  0  0  0  0  0  0  0  0  0  0  0  0  # atno 17395 bound_to 11000

$$$$
