AV-unprocessed.smi:179|AV-procd|sdf|1449|dock8
  -GOLD-   2262019243D 1   1.00000     0.00000
 Structure written by MMmdl.
 44 47  0  0  0  0  0  0  0  0  1 V2000
  147.1008  132.5588  150.3574 O   0  0  0  0  0  0  0  0  0  0  0  0
  145.7105  132.3115  150.2902 C   0  0  0  0  0  0  0  0  0  0  0  0
  144.8776  133.4245  150.9571 C   0  0  0  0  0  0  0  0  0  0  0  0
  143.4352  132.8993  151.0855 C   0  0  0  0  0  0  0  0  0  0  0  0
  142.9220  132.4777  149.8377 O   0  0  0  0  0  0  0  0  0  0  0  0
  145.4602  134.0759  152.2341 C   0  0  0  0  0  0  0  0  0  0  0  0
  144.9991  135.4463  151.7311 C   0  0  0  0  0  0  0  0  0  0  0  0
  145.7466  136.6383  152.0220 N   0  0  0  0  0  0  0  0  0  0  0  0
  146.2461  137.5342  151.1026 C   0  0  0  0  0  0  0  0  0  0  0  0
  146.8904  138.5515  151.6056 N   0  0  0  0  0  0  0  0  0  0  0  0
  146.8303  138.3450  152.9774 C   0  0  0  0  0  0  0  0  0  0  0  0
  147.3214  139.0718  154.0956 C   0  0  0  0  0  0  0  0  0  0  0  0
  148.0501  140.2840  153.9423 N   0  0  0  0  0  0  0  0  0  0  0  0
  147.5420  141.4269  154.6951 C   0  0  0  0  0  0  0  0  0  0  0  0
  148.8751  141.4855  155.4462 C   0  0  0  0  0  0  0  0  0  0  0  0
  149.6298  142.6629  155.2420 O   0  0  0  0  0  0  0  0  0  0  0  0
  148.8577  141.3349  156.9725 C   0  0  0  0  0  0  0  0  0  0  0  0
  150.0985  141.3765  157.4599 F   0  0  0  0  0  0  0  0  0  0  0  0
  148.1435  142.2974  157.5536 F   0  0  0  0  0  0  0  0  0  0  0  0
  149.3463  140.2902  154.6110 C   0  0  0  0  0  0  0  0  0  0  0  0
  147.0650  138.5461  155.3238 N   0  0  0  0  0  0  0  0  0  0  0  0
  146.3817  137.4053  155.4521 C   0  0  0  0  0  0  0  0  0  0  0  0
  145.8663  136.6320  154.4963 N   0  0  0  0  0  0  0  0  0  0  0  0
  146.1166  137.1451  153.2583 C   0  0  0  0  0  0  0  0  0  0  0  0
  144.9808  134.8341  150.3275 C   0  0  0  0  0  0  0  0  0  0  0  0
  147.5216  131.8077  150.7469 H   0  0  0  0  0  0  0  0  0  0  0  0
  145.4413  132.2031  149.2391 H   0  0  0  0  0  0  0  0  0  0  0  0
  145.5271  131.3465  150.7635 H   0  0  0  0  0  0  0  0  0  0  0  0
  143.3822  132.0523  151.7700 H   0  0  0  0  0  0  0  0  0  0  0  0
  142.7745  133.6638  151.4956 H   0  0  0  0  0  0  0  0  0  0  0  0
  142.6126  133.2369  149.3673 H   0  0  0  0  0  0  0  0  0  0  0  0
  144.9900  133.7633  153.1669 H   0  0  0  0  0  0  0  0  0  0  0  0
  146.5452  133.9952  152.3076 H   0  0  0  0  0  0  0  0  0  0  0  0
  143.9768  135.6345  152.0641 H   0  0  0  0  0  0  0  0  0  0  0  0
  146.1163  137.4119  150.0371 H   0  0  0  0  0  0  0  0  0  0  0  0
  147.3634  142.2915  154.0552 H   0  0  0  0  0  0  0  0  0  0  0  0
  146.6824  141.2167  155.3326 H   0  0  0  0  0  0  0  0  0  0  0  0
  149.0133  143.3763  155.1766 H   0  0  0  0  0  0  0  0  0  0  0  0
  148.4150  140.3888  157.2868 H   0  0  0  0  0  0  0  0  0  0  0  0
  149.5580  139.3931  155.1944 H   0  0  0  0  0  0  0  0  0  0  0  0
  150.1606  140.5259  153.9247 H   0  0  0  0  0  0  0  0  0  0  0  0
  146.2266  137.0632  156.4648 H   0  0  0  0  0  0  0  0  0  0  0  0
  145.9080  135.0048  149.7798 H   0  0  0  0  0  0  0  0  0  0  0  0
  144.1221  135.1279  149.7232 H   0  0  0  0  0  0  0  0  0  0  0  0
  1  2  1  0  0  0  0
  1 26  1  0  0  0  0
  2  3  1  0  0  0  0
  2 27  1  0  0  0  0
  2 28  1  0  0  0  0
  3 25  1  0  0  0  0
  3  4  1  0  0  0  0
  3  6  1  0  0  0  0
  4  5  1  0  0  0  0
  4 29  1  0  0  0  0
  4 30  1  0  0  0  0
  5 31  1  0  0  0  0
  6  7  1  0  0  0  0
  6 32  1  0  0  0  0
  6 33  1  0  0  0  0
  7  8  1  0  0  0  0
  7 25  1  0  0  0  0
  7 34  1  0  0  0  0
  8 24  1  0  0  0  0
  8  9  1  0  0  0  0
  9 10  2  0  0  0  0
  9 35  1  0  0  0  0
 10 11  1  0  0  0  0
 11 24  2  0  0  0  0
 11 12  1  0  0  0  0
 12 13  1  0  0  0  0
 12 21  2  0  0  0  0
 13 20  1  0  0  0  0
 13 14  1  0  0  0  0
 14 15  1  0  0  0  0
 14 36  1  0  0  0  0
 14 37  1  0  0  0  0
 15 16  1  0  0  0  0
 15 17  1  0  0  0  0
 15 20  1  0  0  0  0
 16 38  1  0  0  0  0
 17 18  1  0  0  0  0
 17 19  1  0  0  0  0
 17 39  1  0  0  0  0
 20 40  1  0  0  0  0
 20 41  1  0  0  0  0
 21 22  1  0  0  0  0
 22 23  2  0  0  0  0
 22 42  1  0  0  0  0
 23 24  1  0  0  0  0
 25 43  1  0  0  0  0
 25 44  1  0  0  0  0
M  END
> <s_m_source_file>
AV-unprocessed.smi

> <i_m_source_file_index>
179

> <i_lp_mmshare_version>
43012

> <i_f3d_flags>
0

> <s_epik_input>
W09IXVtDSDJdQzEoW0NIMl1bT0hdKVtDSDJdW0NIXShbQ0gyXTEpbihbY0hdbjIpYyhjMjMpbltjSF1uYzNOKFtDSDJdNClbQ0gyXUM0KFtPSF0pW0NIXShGKUY=

> <s_epik_cmdline>
J2VwaWtfcHl0aG9uJywgJy1waCcsICc3LjAnLCAnLXRuJywgJzgnLCAnLW1hJywgJzIwMCcsICctbWV0YWxfYmluZGluZycsICctaW1hZScsICc8aW5maWxlLm1hZT4nLCAnLW9tYWUnLCAnPG91dGZpbGUubWFlPic=

> <r_lp_tautomer_probability>
1

> <r_epik_Ionization_Penalty>
0.00851647

> <r_epik_Ionization_Penalty_Charging>
0

> <r_epik_Ionization_Penalty_Neutral>
0.00851647

> <r_epik_State_Penalty>
0.00617896

> <r_epik_Charging_Adjusted_Penalty>
0.00617896

> <i_epik_Tot_Q>
0

> <i_epik_Tot_abs_Q>
0

> <r_epik_Metal_State_Penalty>
0.00609441

> <b_epik_Metal_Only>
0

> <s_lp_Force_Field>
OPLS_2005

> <r_lp_Energy>
53.402

> <b_lp_Chiralities_Consistent>
1

> <s_lp_Variant>
AV-unprocessed.smi:179-1

> <Gold.Version>
5.8.1

> <Gold.Id.Protein>
6NUR|6NUR_protein|mol2

> <Gold.PLP.Fitness>
45.9503

> <Gold.PLP.PLP>
-35.6664

> <Gold.PLP.part.hbond>
-5.4938

> <Gold.PLP.part.metal>
0.0000

> <Gold.PLP.part.buried>
0.0471

> <Gold.PLP.part.nonpolar>
-31.3347

> <Gold.PLP.part.repulsive>
0.5732

> <Gold.PLP.ligand.clash>
0.0000

> <Gold.PLP.ligand.torsion>
0.6768

> <Gold.PLP.Chemscore.Hbond>
2.9516

> <Gold.PLP.Chemscore.CHOScore>
0.7017

> <Gold.PLP.Chemscore.Metal>
0.0000

> <Gold.Chemscore.Hbonds>
donor molecule, donor type, donor heavy atom, donor atom, acceptor molecule, acceptor atom, score
      L1  H     1    26       P1 10747  0.62
      L1  H     5    31       P1 10186  0.67
      L1  H    16    38       P1  8028  0.57
      L1  C     9    35       P1 10171  0.38

> <Gold.PLP.Chemscore.Internal.Correction>
0.6778

> <Gold.Rescore>
     Score         DG    S(hbond)    S(metal)    S(lipo)     H(rot)  DE(clash)    DE(int)     intcor
     10.20     -11.62       2.89        0.00      62.48       4.22       0.63       0.78       ----

> <Gold.Chemscore.Fitness>
10.1983

> <Gold.Chemscore.DG>
-11.6173

> <Gold.Chemscore.ZeroCoef>
-5.4800

> <Gold.Chemscore.Hbond>
2.8857

> <Gold.Chemscore.Metal>
0.0000

> <Gold.Chemscore.Lipo>
62.4792

> <Gold.Chemscore.Internal_Hbond>
0.0000

> <Gold.Chemscore.DEClash>
0.6344

> <Gold.Chemscore.DEInternal>
0.7846

> <Gold.Chemscore.Rot>
4.2230

> <Gold.Chemscore.Internal.Correction>
   9.000000E+99

> <Gold.Chemscore.Hbonds>
donor molecule, donor type, donor heavy atom, donor atom, acceptor molecule, acceptor atom, score
      L1  H     1    26       P1 10747  0.64
      L1  H     5    31       P1 10186  0.65
      L1  H    16    38       P1  8028  0.57

> <Gold.Chemscore.Hbond.Weighted>
-9.6382

> <Gold.Chemscore.Metal.Weighted>
-0.0000

> <Gold.Chemscore.Lipo.Weighted>
-7.3101

> <Gold.Chemscore.Internal_Hbond.Weighted>
0.0000

> <Gold.Chemscore.DEClash.Weighted>
0.6344

> <Gold.Chemscore.DEInternal.Weighted>
0.7846

> <Gold.Chemscore.Rot.Weighted>
10.8110

> <Gold.Chemscore.Internal.Correction.Weighted>
   9.000000E+99

> <Gold.Protein.RotatedTorsions>
[ 6907 6896 6895 6894 ] final -135.51 input  -60.11 | X-H torsion
[ 7974 7965 7964 7962 ] final   83.26 input  175.53 | X-H torsion
[ 8008 7997 7996 7995 ] final  147.07 input   59.86 | X-H torsion
[ 10167 10162 10161 10158 ] final   98.06 input  -65.29 | X-H torsion
[ 10718 10713 10712 10709 ] final  110.85 input   66.30 | X-H torsion
[ 10763 10752 10751 10750 ] final    6.77 input  -60.55 | X-H torsion
[ 11005 11000 10999 10996 ] final  -89.55 input  -57.11 | X-H torsion

> <Gold.Protein.ActiveResidues>
 VAL166  LYS551  ARG553  GLY616  TRP617  ASP618  TYR619  PRO620  LYS621  CYS622 
 ASP623  PHE694  ASN695  SER759  ASP760  ASP761  ALA762  ILE779  LEU786  VAL792 
 PHE793  MET794  SER795  GLU796  ALA797  LYS798  CYS799  TRP800  GLU811  SER814 

> <Gold.Protein.RotatedAtoms>
  150.9987  133.6077  159.2697 H   0  0  0  0  0  0  0  0  0  0  0  0  # atno 6907 bound_to 6896
  151.3271  135.0832  159.9335 H   0  0  0  0  0  0  0  0  0  0  0  0  # atno 6908 bound_to 6896
  152.5267  133.9624  159.7777 H   0  0  0  0  0  0  0  0  0  0  0  0  # atno 6909 bound_to 6896
  145.6142  139.2374  143.2175 H   0  0  0  0  0  0  0  0  0  0  0  0  # atno 7974 bound_to 7965
  156.2836  140.2165  156.5478 H   0  0  0  0  0  0  0  0  0  0  0  0  # atno 8008 bound_to 7997
  154.7316  140.0495  157.0754 H   0  0  0  0  0  0  0  0  0  0  0  0  # atno 8009 bound_to 7997
  155.0346  140.3139  155.4749 H   0  0  0  0  0  0  0  0  0  0  0  0  # atno 8010 bound_to 7997
  139.7744  144.6911  151.0111 H   0  0  0  0  0  0  0  0  0  0  0  0  # atno 10167 bound_to 10162
  157.6474  131.0940  150.6662 H   0  0  0  0  0  0  0  0  0  0  0  0  # atno 10718 bound_to 10713
  153.2439  135.6906  153.7753 H   0  0  0  0  0  0  0  0  0  0  0  0  # atno 10763 bound_to 10752
  153.6872  135.3318  155.3194 H   0  0  0  0  0  0  0  0  0  0  0  0  # atno 10764 bound_to 10752
  154.8367  135.4536  154.1371 H   0  0  0  0  0  0  0  0  0  0  0  0  # atno 10765 bound_to 10752
  141.1582  133.7637  156.9611 H   0  0  0  0  0  0  0  0  0  0  0  0  # atno 11005 bound_to 11000
  146.1481  140.6964  142.9335 LP  0  0  0  0  0  0  0  0  0  0  0  0  # atno 17320 bound_to 7965
  144.7257  140.4517  143.6975 LP  0  0  0  0  0  0  0  0  0  0  0  0  # atno 17321 bound_to 7965
  140.7815  143.4553  151.0355 LP  0  0  0  0  0  0  0  0  0  0  0  0  # atno 17342 bound_to 10162
  139.8235  143.7787  152.3178 LP  0  0  0  0  0  0  0  0  0  0  0  0  # atno 17343 bound_to 10162
  156.6977  130.4614  149.5581 LP  0  0  0  0  0  0  0  0  0  0  0  0  # atno 17370 bound_to 10713
  156.1817  130.6503  151.0959 LP  0  0  0  0  0  0  0  0  0  0  0  0  # atno 17371 bound_to 10713
  140.1192  134.9428  157.2179 LP  0  0  0  0  0  0  0  0  0  0  0  0  # atno 17394 bound_to 11000
  140.3093  134.3041  155.7270 LP  0  0  0  0  0  0  0  0  0  0  0  0  # atno 17395 bound_to 11000

$$$$
