AV-unprocessed.smi:234|AV-procd|sdf|1793|dock9
  -GOLD-   2262020353D 1   1.00000     0.00000
 Structure written by MMmdl.
 59 62  0  0  0  0  0  0  0  0  1 V2000
  151.0063  145.1372  159.8612 C   0  0  0  0  0  0  0  0  0  0  0  0
  152.0837  144.5802  158.9285 C   0  0  0  0  0  0  0  0  0  0  0  0
  152.0849  143.1651  159.0227 O   0  0  0  0  0  0  0  0  0  0  0  0
  151.6088  142.5273  157.8435 C   0  0  2  0  0  0  0  0  0  0  0  0
  150.0799  142.4391  157.8124 C   0  0  0  0  0  0  0  0  0  0  0  0
  150.2340  141.1050  158.5565 C   0  0  1  0  0  0  0  0  0  0  0  0
  149.2859  140.0674  158.1361 N   0  0  0  0  0  0  0  0  0  0  0  0
  148.7363  140.1523  156.7871 C   0  0  0  0  0  0  0  0  0  0  0  0
  149.5337  138.7866  158.5088 C   0  0  0  0  0  0  0  0  0  0  0  0
  150.8017  138.2962  158.4739 N   0  0  0  0  0  0  0  0  0  0  0  0
  151.0437  137.0314  158.8301 C   0  0  0  0  0  0  0  0  0  0  0  0
  150.1811  136.1013  159.2442 N   0  0  0  0  0  0  0  0  0  0  0  0
  148.9073  136.5875  159.2780 C   0  0  0  0  0  0  0  0  0  0  0  0
  148.4988  137.9036  158.9226 C   0  0  0  0  0  0  0  0  0  0  0  0
  147.1243  138.0331  159.0788 N   0  0  0  0  0  0  0  0  0  0  0  0
  146.7421  136.8605  159.5058 C   0  0  0  0  0  0  0  0  0  0  0  0
  147.7498  135.9356  159.6665 N   0  0  0  0  0  0  0  0  0  0  0  0
  147.6077  134.5672  160.1403 C   0  0  0  0  0  0  0  0  0  0  0  0
  146.9126  134.4600  161.5203 C   0  0  1  0  0  0  0  0  0  0  0  0
  145.5330  134.7380  161.3466 O   0  0  0  0  0  0  0  0  0  0  0  0
  147.0431  133.0578  162.1251 C   0  0  0  0  0  0  0  0  0  0  0  0
  147.9523  133.2561  163.3325 C   0  0  0  0  0  0  0  0  0  0  0  0
  147.6234  134.5642  163.7643 O   0  0  0  0  0  0  0  0  0  0  0  0
  147.5441  135.3756  162.6016 C   0  0  2  0  0  0  0  0  0  0  0  0
  146.8238  136.6984  162.9116 C   0  0  0  0  0  0  0  0  0  0  0  0
  151.6554  140.9807  157.9388 C   0  0  0  0  0  0  0  0  0  0  0  0
  151.7837  140.2754  156.5783 C   0  0  0  0  0  0  0  0  0  0  0  0
  152.7492  140.3991  158.8390 C   0  0  0  0  0  0  0  0  0  0  0  0
  150.9785  146.2260  159.8175 H   0  0  0  0  0  0  0  0  0  0  0  0
  151.1972  144.8481  160.8950 H   0  0  0  0  0  0  0  0  0  0  0  0
  150.0194  144.7650  159.5849 H   0  0  0  0  0  0  0  0  0  0  0  0
  151.8860  144.8970  157.9039 H   0  0  0  0  0  0  0  0  0  0  0  0
  153.0604  144.9748  159.2121 H   0  0  0  0  0  0  0  0  0  0  0  0
  152.0582  142.9198  156.9296 H   0  0  0  0  0  0  0  0  0  0  0  0
  149.5545  143.2113  158.3746 H   0  0  0  0  0  0  0  0  0  0  0  0
  149.6806  142.3387  156.8018 H   0  0  0  0  0  0  0  0  0  0  0  0
  150.2711  141.2502  159.6378 H   0  0  0  0  0  0  0  0  0  0  0  0
  149.0079  139.2868  156.1804 H   0  0  0  0  0  0  0  0  0  0  0  0
  149.0990  141.0388  156.2682 H   0  0  0  0  0  0  0  0  0  0  0  0
  147.6486  140.2094  156.8312 H   0  0  0  0  0  0  0  0  0  0  0  0
  152.0766  136.7204  158.7756 H   0  0  0  0  0  0  0  0  0  0  0  0
  145.7081  136.6383  159.7276 H   0  0  0  0  0  0  0  0  0  0  0  0
  147.0510  134.0036  159.3903 H   0  0  0  0  0  0  0  0  0  0  0  0
  148.5998  134.1159  160.1844 H   0  0  0  0  0  0  0  0  0  0  0  0
  145.1046  133.9465  161.0579 H   0  0  0  0  0  0  0  0  0  0  0  0
  146.0763  132.6859  162.4691 H   0  0  0  0  0  0  0  0  0  0  0  0
  147.4433  132.3196  161.4292 H   0  0  0  0  0  0  0  0  0  0  0  0
  147.7817  132.5169  164.1156 H   0  0  0  0  0  0  0  0  0  0  0  0
  149.0036  133.2168  163.0422 H   0  0  0  0  0  0  0  0  0  0  0  0
  148.5745  135.6010  162.3243 H   0  0  0  0  0  0  0  0  0  0  0  0
  146.7365  137.3195  162.0199 H   0  0  0  0  0  0  0  0  0  0  0  0
  147.3757  137.2703  163.6577 H   0  0  0  0  0  0  0  0  0  0  0  0
  145.8214  136.5288  163.3054 H   0  0  0  0  0  0  0  0  0  0  0  0
  151.7097  139.1920  156.6740 H   0  0  0  0  0  0  0  0  0  0  0  0
  152.7434  140.4939  156.1090 H   0  0  0  0  0  0  0  0  0  0  0  0
  151.0085  140.5879  155.8784 H   0  0  0  0  0  0  0  0  0  0  0  0
  152.7013  139.3111  158.8855 H   0  0  0  0  0  0  0  0  0  0  0  0
  152.6658  140.7646  159.8628 H   0  0  0  0  0  0  0  0  0  0  0  0
  153.7427  140.6679  158.4794 H   0  0  0  0  0  0  0  0  0  0  0  0
  1  2  1  0  0  0  0
  1 29  1  0  0  0  0
  1 30  1  0  0  0  0
  1 31  1  0  0  0  0
  2  3  1  0  0  0  0
  2 32  1  0  0  0  0
  2 33  1  0  0  0  0
  3  4  1  0  0  0  0
  4 26  1  0  0  0  0
  4  5  1  0  0  0  0
  4 34  1  0  0  0  0
  5  6  1  0  0  0  0
  5 35  1  0  0  0  0
  5 36  1  0  0  0  0
  6  7  1  0  0  0  0
  6 26  1  0  0  0  0
  6 37  1  0  0  0  0
  7  8  1  0  0  0  0
  7  9  1  0  0  0  0
  8 38  1  0  0  0  0
  8 39  1  0  0  0  0
  8 40  1  0  0  0  0
  9 14  1  0  0  0  0
  9 10  2  0  0  0  0
 10 11  1  0  0  0  0
 11 12  2  0  0  0  0
 11 41  1  0  0  0  0
 12 13  1  0  0  0  0
 13 17  1  0  0  0  0
 13 14  2  0  0  0  0
 14 15  1  0  0  0  0
 15 16  2  0  0  0  0
 16 17  1  0  0  0  0
 16 42  1  0  0  0  0
 17 18  1  0  0  0  0
 18 19  1  0  0  0  0
 18 43  1  0  0  0  0
 18 44  1  0  0  0  0
 19 24  1  0  0  0  0
 19 20  1  0  0  0  0
 19 21  1  0  0  0  0
 20 45  1  0  0  0  0
 21 22  1  0  0  0  0
 21 46  1  0  0  0  0
 21 47  1  0  0  0  0
 22 23  1  0  0  0  0
 22 48  1  0  0  0  0
 22 49  1  0  0  0  0
 23 24  1  0  0  0  0
 24 25  1  0  0  0  0
 24 50  1  0  0  0  0
 25 51  1  0  0  0  0
 25 52  1  0  0  0  0
 25 53  1  0  0  0  0
 26 27  1  0  0  0  0
 26 28  1  0  0  0  0
 27 54  1  0  0  0  0
 27 55  1  0  0  0  0
 27 56  1  0  0  0  0
 28 57  1  0  0  0  0
 28 58  1  0  0  0  0
 28 59  1  0  0  0  0
M  END
> <s_m_source_file>
AV-unprocessed.smi

> <i_m_source_file_index>
234

> <i_lp_mmshare_version>
43012

> <i_f3d_flags>
0

> <s_epik_input>
W0NIM11bQ0gyXU9bQ0BASF0oQzEoW0NIM10pW0NIM10pW0NIMl1bQ0BIXTFOKFtDSDNdKWMobltjSF1uMiljKGMyMyluW2NIXW4zW0NIMl1bQ0BAXTQoW09IXSlbQ0gyXVtDSDJdT1tDQEhdNFtDSDNd

> <s_epik_cmdline>
J2VwaWtfcHl0aG9uJywgJy1waCcsICc3LjAnLCAnLXRuJywgJzgnLCAnLW1hJywgJzIwMCcsICctbWV0YWxfYmluZGluZycsICctaW1hZScsICc8aW5maWxlLm1hZT4nLCAnLW9tYWUnLCAnPG91dGZpbGUubWFlPic=

> <r_lp_tautomer_probability>
1

> <r_epik_Ionization_Penalty>
0.00349132

> <r_epik_Ionization_Penalty_Charging>
0

> <r_epik_Ionization_Penalty_Neutral>
0.00349132

> <r_epik_State_Penalty>
0.00242418

> <r_epik_Charging_Adjusted_Penalty>
0.00242418

> <i_epik_Tot_Q>
0

> <i_epik_Tot_abs_Q>
0

> <r_epik_Metal_State_Penalty>
-0

> <b_epik_Metal_Only>
0

> <s_lp_Force_Field>
OPLS_2005

> <r_lp_Energy>
48.0221

> <b_lp_Chiralities_Consistent>
1

> <s_lp_Variant>
AV-unprocessed.smi:234-9

> <Gold.Version>
5.8.1

> <Gold.Id.Protein>
6NUR|6NUR_protein|mol2

> <Gold.PLP.Fitness>
43.4843

> <Gold.PLP.PLP>
-41.9981

> <Gold.PLP.part.hbond>
-2.9515

> <Gold.PLP.part.metal>
0.0000

> <Gold.PLP.part.buried>
-6.4245

> <Gold.PLP.part.nonpolar>
-32.0118

> <Gold.PLP.part.repulsive>
0.0194

> <Gold.PLP.ligand.clash>
0.0000

> <Gold.PLP.ligand.torsion>
1.4662

> <Gold.PLP.Chemscore.Hbond>
1.0674

> <Gold.PLP.Chemscore.CHOScore>
0.0000

> <Gold.PLP.Chemscore.Metal>
0.0000

> <Gold.Chemscore.Hbonds>
donor molecule, donor type, donor heavy atom, donor atom, acceptor molecule, acceptor atom, score
      P1  H  6888  6897       L1    23  0.02
      P1  H  6896  6909       L1    12  0.98
      P1  H  6934  6947       L1    15  0.41

> <Gold.PLP.Chemscore.Internal.Correction>
1.2164

> <Gold.Rescore>
     Score         DG    S(hbond)    S(metal)    S(lipo)     H(rot)  DE(clash)    DE(int)     intcor
      9.10     -14.89       0.88        0.00     112.55       2.62       0.22       5.56       ----

> <Gold.Chemscore.Fitness>
9.0999

> <Gold.Chemscore.DG>
-14.8857

> <Gold.Chemscore.ZeroCoef>
-5.4800

> <Gold.Chemscore.Hbond>
0.8830

> <Gold.Chemscore.Metal>
0.0000

> <Gold.Chemscore.Lipo>
112.5507

> <Gold.Chemscore.Internal_Hbond>
0.0000

> <Gold.Chemscore.DEClash>
0.2242

> <Gold.Chemscore.DEInternal>
5.5617

> <Gold.Chemscore.Rot>
2.6219

> <Gold.Chemscore.Internal.Correction>
   9.000000E+99

> <Gold.Chemscore.Hbonds>
donor molecule, donor type, donor heavy atom, donor atom, acceptor molecule, acceptor atom, score
      P1  H  6888  6897       L1    23  0.03
      P1  H  6896  6909       L1    12  0.83
      P1  H  6934  6947       L1    15  0.02

> <Gold.Chemscore.Hbond.Weighted>
-2.9494

> <Gold.Chemscore.Metal.Weighted>
-0.0000

> <Gold.Chemscore.Lipo.Weighted>
-13.1684

> <Gold.Chemscore.Internal_Hbond.Weighted>
0.0000

> <Gold.Chemscore.DEClash.Weighted>
0.2242

> <Gold.Chemscore.DEInternal.Weighted>
5.5617

> <Gold.Chemscore.Rot.Weighted>
6.7121

> <Gold.Chemscore.Internal.Correction.Weighted>
   9.000000E+99

> <Gold.Protein.RotatedTorsions>
[ 6907 6896 6895 6894 ] final   59.99 input  -60.11 | X-H torsion
[ 7974 7965 7964 7962 ] final  -79.72 input  175.53 | X-H torsion
[ 8008 7997 7996 7995 ] final  -54.97 input   59.86 | X-H torsion
[ 10167 10162 10161 10158 ] final    1.79 input  -65.29 | X-H torsion
[ 10718 10713 10712 10709 ] final -161.36 input   66.30 | X-H torsion
[ 10763 10752 10751 10750 ] final   22.66 input  -60.55 | X-H torsion
[ 11005 11000 10999 10996 ] final  -95.10 input  -57.11 | X-H torsion

> <Gold.Protein.ActiveResidues>
 VAL166  LYS551  ARG553  GLY616  TRP617  ASP618  TYR619  PRO620  LYS621  CYS622 
 ASP623  PHE694  ASN695  SER759  ASP760  ASP761  ALA762  ILE779  LEU786  VAL792 
 PHE793  MET794  SER795  GLU796  ALA797  LYS798  CYS799  TRP800  GLU811  SER814 

> <Gold.Protein.RotatedAtoms>
  152.3964  134.6359  160.0087 H   0  0  0  0  0  0  0  0  0  0  0  0  # atno 6907 bound_to 6896
  151.6577  133.3312  159.3175 H   0  0  0  0  0  0  0  0  0  0  0  0  # atno 6908 bound_to 6896
  150.7871  134.6907  159.6540 H   0  0  0  0  0  0  0  0  0  0  0  0  # atno 6909 bound_to 6896
  145.5695  140.9468  143.1403 H   0  0  0  0  0  0  0  0  0  0  0  0  # atno 7974 bound_to 7965
  154.4180  140.1164  156.5402 H   0  0  0  0  0  0  0  0  0  0  0  0  # atno 8008 bound_to 7997
  155.6516  140.3496  155.4731 H   0  0  0  0  0  0  0  0  0  0  0  0  # atno 8009 bound_to 7997
  155.9788  140.1156  157.0735 H   0  0  0  0  0  0  0  0  0  0  0  0  # atno 8010 bound_to 7997
  140.6666  143.7162  150.7839 H   0  0  0  0  0  0  0  0  0  0  0  0  # atno 10167 bound_to 10162
  156.5951  130.8787  151.2900 H   0  0  0  0  0  0  0  0  0  0  0  0  # atno 10718 bound_to 10713
  153.0898  135.6643  153.9876 H   0  0  0  0  0  0  0  0  0  0  0  0  # atno 10763 bound_to 10752
  153.9476  135.2987  155.3441 H   0  0  0  0  0  0  0  0  0  0  0  0  # atno 10764 bound_to 10752
  154.7311  135.5122  153.9038 H   0  0  0  0  0  0  0  0  0  0  0  0  # atno 10765 bound_to 10752
  141.1451  133.8002  157.0389 H   0  0  0  0  0  0  0  0  0  0  0  0  # atno 11005 bound_to 11000
  144.7445  139.7359  143.7298 LP  0  0  0  0  0  0  0  0  0  0  0  0  # atno 17320 bound_to 7965
  146.1795  139.4980  142.9876 LP  0  0  0  0  0  0  0  0  0  0  0  0  # atno 17321 bound_to 7965
  140.0841  143.4941  152.2514 LP  0  0  0  0  0  0  0  0  0  0  0  0  # atno 17342 bound_to 10162
  139.5917  144.7552  151.3384 LP  0  0  0  0  0  0  0  0  0  0  0  0  # atno 17343 bound_to 10162
  157.7294  130.9670  150.1784 LP  0  0  0  0  0  0  0  0  0  0  0  0  # atno 17370 bound_to 10713
  156.2516  130.3701  149.8226 LP  0  0  0  0  0  0  0  0  0  0  0  0  # atno 17371 bound_to 10713
  140.0706  134.9704  157.1460 LP  0  0  0  0  0  0  0  0  0  0  0  0  # atno 17394 bound_to 11000
  140.3717  134.2383  155.7177 LP  0  0  0  0  0  0  0  0  0  0  0  0  # atno 17395 bound_to 11000

$$$$
