AV-unprocessed.smi:819|AV-procd|sdf|3835|dock7
  -GOLD-   22720 1283D 1   1.00000     0.00000
 Structure written by MMmdl.
 40 41  0  0  0  0  0  0  0  0  1 V2000
  146.8039  139.4213  152.8836 C   0  0  0  0  0  0  0  0  0  0  0  0
  146.6609  138.1895  153.7930 C   0  0  1  0  0  0  0  0  0  0  0  0
  146.7797  136.9923  152.9618 N   0  0  0  0  0  0  0  0  0  0  0  0
  145.7603  136.1979  152.6009 C   0  0  0  0  0  0  0  0  0  0  0  0
  144.5932  136.4062  152.9307 O   0  0  0  0  0  0  0  0  0  0  0  0
  146.1934  135.1651  151.8574 N   0  0  0  0  0  0  0  0  0  0  0  0
  145.4544  134.1004  151.2707 C   0  0  0  0  0  0  0  0  0  0  0  0
  146.0047  133.0865  150.4478 C   0  0  0  0  0  0  0  0  0  0  0  0
  145.1536  132.0857  149.9407 C   0  0  0  0  0  0  0  0  0  0  0  0
  143.7868  132.1298  150.2759 C   0  0  0  0  0  0  0  0  0  0  0  0
  143.2493  133.0846  151.0633 N   0  0  0  0  0  0  0  0  0  0  0  0
  144.0710  134.0414  151.5447 C   0  0  0  0  0  0  0  0  0  0  0  0
  147.7801  138.2256  154.8455 C   0  0  0  0  0  0  0  0  0  0  0  0
  147.5563  138.6393  155.9844 O   0  0  0  0  0  0  0  0  0  0  0  0
  148.9819  137.7852  154.4447 N   0  0  0  0  0  0  0  0  0  0  0  0
  150.1869  137.7585  155.2688 C   0  0  0  0  0  0  0  0  0  0  0  0
  150.2769  139.0041  156.1735 C   0  0  0  0  0  0  0  0  0  0  0  0
  151.3770  139.8793  155.5731 C   0  0  0  0  0  0  0  0  0  0  0  0
  152.3486  138.8802  154.9531 C   0  0  0  0  0  0  0  0  0  0  0  0
  151.4513  137.7775  154.3877 C   0  0  0  0  0  0  0  0  0  0  0  0
  146.7286  140.3471  153.4557 H   0  0  0  0  0  0  0  0  0  0  0  0
  146.0157  139.4416  152.1306 H   0  0  0  0  0  0  0  0  0  0  0  0
  147.7607  139.4317  152.3588 H   0  0  0  0  0  0  0  0  0  0  0  0
  145.6824  138.2070  154.2778 H   0  0  0  0  0  0  0  0  0  0  0  0
  147.7089  136.7439  152.6561 H   0  0  0  0  0  0  0  0  0  0  0  0
  147.1914  135.1215  151.7107 H   0  0  0  0  0  0  0  0  0  0  0  0
  147.0521  133.0432  150.1979 H   0  0  0  0  0  0  0  0  0  0  0  0
  145.5412  131.2995  149.3097 H   0  0  0  0  0  0  0  0  0  0  0  0
  143.1085  131.3761  149.9044 H   0  0  0  0  0  0  0  0  0  0  0  0
  143.6050  134.7878  152.1717 H   0  0  0  0  0  0  0  0  0  0  0  0
  149.0748  137.4670  153.4910 H   0  0  0  0  0  0  0  0  0  0  0  0
  150.1863  136.8583  155.8863 H   0  0  0  0  0  0  0  0  0  0  0  0
  149.3335  139.5437  156.2705 H   0  0  0  0  0  0  0  0  0  0  0  0
  150.5717  138.6959  157.1775 H   0  0  0  0  0  0  0  0  0  0  0  0
  150.9558  140.5161  154.7937 H   0  0  0  0  0  0  0  0  0  0  0  0
  151.8511  140.5249  156.3127 H   0  0  0  0  0  0  0  0  0  0  0  0
  152.9884  139.3313  154.1942 H   0  0  0  0  0  0  0  0  0  0  0  0
  152.9933  138.4668  155.7299 H   0  0  0  0  0  0  0  0  0  0  0  0
  151.9570  136.8115  154.3735 H   0  0  0  0  0  0  0  0  0  0  0  0
  151.1985  138.0222  153.3547 H   0  0  0  0  0  0  0  0  0  0  0  0
  1  2  1  0  0  0  0
  1 21  1  0  0  0  0
  1 22  1  0  0  0  0
  1 23  1  0  0  0  0
  2  3  1  0  0  0  0
  2 13  1  0  0  0  0
  2 24  1  0  0  0  0
  3  4  1  0  0  0  0
  3 25  1  0  0  0  0
  4  5  2  0  0  0  0
  4  6  1  0  0  0  0
  6  7  1  0  0  0  0
  6 26  1  0  0  0  0
  7 12  1  0  0  0  0
  7  8  2  0  0  0  0
  8  9  1  0  0  0  0
  8 27  1  0  0  0  0
  9 10  2  0  0  0  0
  9 28  1  0  0  0  0
 10 11  1  0  0  0  0
 10 29  1  0  0  0  0
 11 12  2  0  0  0  0
 12 30  1  0  0  0  0
 13 14  2  0  0  0  0
 13 15  1  0  0  0  0
 15 16  1  0  0  0  0
 15 31  1  0  0  0  0
 16 20  1  0  0  0  0
 16 17  1  0  0  0  0
 16 32  1  0  0  0  0
 17 18  1  0  0  0  0
 17 33  1  0  0  0  0
 17 34  1  0  0  0  0
 18 19  1  0  0  0  0
 18 35  1  0  0  0  0
 18 36  1  0  0  0  0
 19 20  1  0  0  0  0
 19 37  1  0  0  0  0
 19 38  1  0  0  0  0
 20 39  1  0  0  0  0
 20 40  1  0  0  0  0
M  END
> <s_m_source_file>
AV-unprocessed.smi

> <i_m_source_file_index>
819

> <i_lp_mmshare_version>
43012

> <i_f3d_flags>
0

> <s_epik_input>
W0NIMl0xW0NIMl1bQ0gyXVtDSDJdW0NIXTFbTkhdQyg9TylbQ0BIXShbQ0gzXSlbTkhdQyg9TylbTkhdYzJbY0hdW2NIXVtjSF1uW2NIXTI=

> <s_epik_cmdline>
J2VwaWtfcHl0aG9uJywgJy1waCcsICc3LjAnLCAnLXRuJywgJzgnLCAnLW1hJywgJzIwMCcsICctbWV0YWxfYmluZGluZycsICctaW1hZScsICc8aW5maWxlLm1hZT4nLCAnLW9tYWUnLCAnPG91dGZpbGUubWFlPic=

> <r_epik_Ionization_Penalty>
0.00416979

> <r_epik_Ionization_Penalty_Charging>
0

> <r_epik_Ionization_Penalty_Neutral>
0.00416979

> <r_epik_State_Penalty>
0.00297037

> <r_epik_Charging_Adjusted_Penalty>
0.00297037

> <i_epik_Tot_Q>
0

> <i_epik_Tot_abs_Q>
0

> <r_epik_Metal_State_Penalty>
-0

> <b_epik_Metal_Only>
0

> <s_lp_Force_Field>
OPLS_2005

> <r_lp_Energy>
20.1385

> <b_lp_Chiralities_Consistent>
1

> <s_lp_Variant>
AV-unprocessed.smi:819-2

> <Gold.Version>
5.8.1

> <Gold.Id.Protein>
6NUR|6NUR_protein|mol2

> <Gold.PLP.Fitness>
42.3982

> <Gold.PLP.PLP>
-32.9873

> <Gold.PLP.part.hbond>
-2.9797

> <Gold.PLP.part.metal>
0.0000

> <Gold.PLP.part.buried>
-5.2948

> <Gold.PLP.part.nonpolar>
-26.8187

> <Gold.PLP.part.repulsive>
0.8510

> <Gold.PLP.ligand.clash>
0.0000

> <Gold.PLP.ligand.torsion>
1.1297

> <Gold.PLP.Chemscore.Hbond>
2.8882

> <Gold.PLP.Chemscore.CHOScore>
0.9963

> <Gold.PLP.Chemscore.Metal>
0.0000

> <Gold.Chemscore.Hbonds>
donor molecule, donor type, donor heavy atom, donor atom, acceptor molecule, acceptor atom, score
      L1  H     3    25       P1  7948  1.00
      L1  H     6    26       P1  7948  0.87
      L1  H    15    31       P1  7948  1.00
      L1  C    10    29       P1 10952  1.00

> <Gold.PLP.Chemscore.Internal.Correction>
0.0169

> <Gold.Rescore>
     Score         DG    S(hbond)    S(metal)    S(lipo)     H(rot)  DE(clash)    DE(int)     intcor
     16.15     -20.38       2.71        0.00      83.30       1.52       0.05       4.18       ----

> <Gold.Chemscore.Fitness>
16.1484

> <Gold.Chemscore.DG>
-20.3776

> <Gold.Chemscore.ZeroCoef>
-5.4800

> <Gold.Chemscore.Hbond>
2.7094

> <Gold.Chemscore.Metal>
0.0000

> <Gold.Chemscore.Lipo>
83.2998

> <Gold.Chemscore.Internal_Hbond>
0.0000

> <Gold.Chemscore.DEClash>
0.0524

> <Gold.Chemscore.DEInternal>
4.1769

> <Gold.Chemscore.Rot>
1.5225

> <Gold.Chemscore.Internal.Correction>
   9.000000E+99

> <Gold.Chemscore.Hbonds>
donor molecule, donor type, donor heavy atom, donor atom, acceptor molecule, acceptor atom, score
      L1  H     3    25       P1  7948  0.96
      L1  H     6    26       P1  7948  0.76
      L1  H    15    31       P1  7948  0.93

> <Gold.Chemscore.Hbond.Weighted>
-9.0493

> <Gold.Chemscore.Metal.Weighted>
-0.0000

> <Gold.Chemscore.Lipo.Weighted>
-9.7461

> <Gold.Chemscore.Internal_Hbond.Weighted>
0.0000

> <Gold.Chemscore.DEClash.Weighted>
0.0524

> <Gold.Chemscore.DEInternal.Weighted>
4.1769

> <Gold.Chemscore.Rot.Weighted>
3.8977

> <Gold.Chemscore.Internal.Correction.Weighted>
   9.000000E+99

> <Gold.Protein.RotatedTorsions>
[ 6907 6896 6895 6894 ] final -174.93 input  -60.11 | X-H torsion
[ 7974 7965 7964 7962 ] final  -40.61 input  175.53 | X-H torsion
[ 8008 7997 7996 7995 ] final  -69.04 input   59.86 | X-H torsion
[ 10167 10162 10161 10158 ] final   74.14 input  -65.29 | X-H torsion
[ 10718 10713 10712 10709 ] final  171.85 input   66.30 | X-H torsion
[ 10763 10752 10751 10750 ] final -111.59 input  -60.55 | X-H torsion
[ 11005 11000 10999 10996 ] final   91.49 input  -57.11 | X-H torsion

> <Gold.Protein.ActiveResidues>
 VAL166  LYS551  ARG553  GLY616  TRP617  ASP618  TYR619  PRO620  LYS621  CYS622 
 ASP623  PHE694  ASN695  SER759  ASP760  ASP761  ALA762  ILE779  LEU786  VAL792 
 PHE793  MET794  SER795  GLU796  ALA797  LYS798  CYS799  TRP800  GLU811  SER814 

> <Gold.Protein.RotatedAtoms>
  151.5803  133.3378  159.3006 H   0  0  0  0  0  0  0  0  0  0  0  0  # atno 6907 bound_to 6896
  150.8317  134.7576  159.6870 H   0  0  0  0  0  0  0  0  0  0  0  0  # atno 6908 bound_to 6896
  152.4400  134.5617  159.9947 H   0  0  0  0  0  0  0  0  0  0  0  0  # atno 6909 bound_to 6896
  146.0288  140.6757  142.9142 H   0  0  0  0  0  0  0  0  0  0  0  0  # atno 7974 bound_to 7965
  154.4910  140.0861  156.7594 H   0  0  0  0  0  0  0  0  0  0  0  0  # atno 8008 bound_to 7997
  155.4231  140.3446  155.4255 H   0  0  0  0  0  0  0  0  0  0  0  0  # atno 8009 bound_to 7997
  156.1329  140.1506  156.9026 H   0  0  0  0  0  0  0  0  0  0  0  0  # atno 8010 bound_to 7997
  140.0169  144.5571  150.7613 H   0  0  0  0  0  0  0  0  0  0  0  0  # atno 10167 bound_to 10162
  156.9875  131.0137  151.2865 H   0  0  0  0  0  0  0  0  0  0  0  0  # atno 10718 bound_to 10713
  154.8307  135.4522  154.1062 H   0  0  0  0  0  0  0  0  0  0  0  0  # atno 10763 bound_to 10752
  153.2337  135.6908  153.7867 H   0  0  0  0  0  0  0  0  0  0  0  0  # atno 10764 bound_to 10752
  153.7240  135.3337  155.3249 H   0  0  0  0  0  0  0  0  0  0  0  0  # atno 10765 bound_to 10752
  139.8838  134.8677  156.3435 H   0  0  0  0  0  0  0  0  0  0  0  0  # atno 11005 bound_to 11000
  144.7021  140.3698  143.7147 LP  0  0  0  0  0  0  0  0  0  0  0  0  # atno 17320 bound_to 7965
  145.7074  139.1676  143.2558 LP  0  0  0  0  0  0  0  0  0  0  0  0  # atno 17321 bound_to 7965
  140.7358  143.2746  151.3782 LP  0  0  0  0  0  0  0  0  0  0  0  0  # atno 17342 bound_to 10162
  139.6166  144.0990  152.2351 LP  0  0  0  0  0  0  0  0  0  0  0  0  # atno 17343 bound_to 10162
  157.5482  130.8165  149.8113 LP  0  0  0  0  0  0  0  0  0  0  0  0  # atno 17370 bound_to 10713
  156.0220  130.3792  150.1933 LP  0  0  0  0  0  0  0  0  0  0  0  0  # atno 17371 bound_to 10713
  140.9642  133.7369  156.0444 LP  0  0  0  0  0  0  0  0  0  0  0  0  # atno 17394 bound_to 11000
  140.7951  134.3572  157.5454 LP  0  0  0  0  0  0  0  0  0  0  0  0  # atno 17395 bound_to 11000

$$$$
