AV-unprocessed.smi:560|AV-procd|sdf|2933|dock8
  -GOLD-   2262023433D 1   1.00000     0.00000
 Structure written by MMmdl.
 41 42  0  0  0  0  0  0  0  0  3 V2000
  153.6089  140.2209  160.5858 C   0  0  0  0  0  0  0  0  0  0  0  0
  153.3838  141.3336  159.5421 C   0  0  1  0  0  0  0  0  0  0  0  0
  152.4784  140.8862  158.3836 C   0  0  0  0  0  0  0  0  0  0  0  0
  152.8083  139.9530  157.6505 O   0  0  0  0  0  0  0  0  0  0  0  0
  151.3317  141.5676  158.2292 N   0  0  0  0  0  0  0  0  0  0  0  0
  150.3277  141.3048  157.2030 C   0  0  2  0  0  0  0  0  0  0  0  0
  150.8706  141.6486  155.8032 C   0  0  0  0  0  0  0  0  0  0  0  0
  149.7845  141.4817  154.7285 C   0  0  0  0  0  0  0  0  0  0  0  0
  148.5901  142.3090  155.0451 N   0  3  1  0  0  0  0  0  0  0  0  0
  147.5682  142.3059  153.9670 C   0  0  0  0  0  0  0  0  0  0  0  0
  147.1086  140.8772  153.6536 C   0  0  0  0  0  0  0  0  0  0  0  0
  145.7974  140.6909  153.9076 N   0  5  0  0  0  0  0  0  0  0  0  0
  147.9176  140.0594  153.2221 O   0  0  0  0  0  0  0  0  0  0  0  0
  148.0200  141.9627  156.3709 C   0  0  0  0  0  0  0  0  0  0  0  0
  149.0654  142.1357  157.4856 C   0  0  0  0  0  0  0  0  0  0  0  0
  152.8697  142.5577  160.1451 N   0  0  0  0  0  0  0  0  0  0  0  0
  152.5963  142.7971  161.4766 C   0  0  0  0  0  0  0  0  0  0  0  0
  152.1663  144.0886  161.5825 C   0  0  0  0  0  0  0  0  0  0  0  0
  152.2218  144.5737  160.2465 C   0  0  0  0  0  0  0  0  0  0  0  0
  152.6492  143.6600  159.3910 N   0  0  0  0  0  0  0  0  0  0  0  0
  154.0454  139.3337  160.1259 H   0  0  0  0  0  0  0  0  0  0  0  0
  152.6808  139.9178  161.0720 H   0  0  0  0  0  0  0  0  0  0  0  0
  154.2944  140.5550  161.3652 H   0  0  0  0  0  0  0  0  0  0  0  0
  154.3600  141.5724  159.1166 H   0  0  0  0  0  0  0  0  0  0  0  0
  151.1386  142.3203  158.8741 H   0  0  0  0  0  0  0  0  0  0  0  0
  150.0565  140.2475  157.2323 H   0  0  0  0  0  0  0  0  0  0  0  0
  151.2376  142.6761  155.7885 H   0  0  0  0  0  0  0  0  0  0  0  0
  151.7232  141.0131  155.5608 H   0  0  0  0  0  0  0  0  0  0  0  0
  150.1961  141.7669  153.7600 H   0  0  0  0  0  0  0  0  0  0  0  0
  149.4924  140.4335  154.6502 H   0  0  0  0  0  0  0  0  0  0  0  0
  146.7192  142.9330  154.2447 H   0  0  0  0  0  0  0  0  0  0  0  0
  147.9813  142.7294  153.0500 H   0  0  0  0  0  0  0  0  0  0  0  0
  145.1296  140.7704  153.1309 H   0  0  0  0  0  0  0  0  0  0  0  0
  147.1645  142.6054  156.5818 H   0  0  0  0  0  0  0  0  0  0  0  0
  147.6504  140.9361  156.3528 H   0  0  0  0  0  0  0  0  0  0  0  0
  148.6328  141.8458  158.4439 H   0  0  0  0  0  0  0  0  0  0  0  0
  149.3269  143.1917  157.5712 H   0  0  0  0  0  0  0  0  0  0  0  0
  152.7279  142.0357  162.2313 H   0  0  0  0  0  0  0  0  0  0  0  0
  151.8622  144.6091  162.4782 H   0  0  0  0  0  0  0  0  0  0  0  0
  151.9701  145.5566  159.8763 H   0  0  0  0  0  0  0  0  0  0  0  0
  148.9027  143.2682  155.1087 H   0  0  0  0  0  0  0  0  0  0  0  0
  1  2  1  0  0  0  0
  1 21  1  0  0  0  0
  1 22  1  0  0  0  0
  1 23  1  0  0  0  0
  2  3  1  0  0  0  0
  2 16  1  0  0  0  0
  2 24  1  0  0  0  0
  3  4  2  0  0  0  0
  3  5  1  0  0  0  0
  5  6  1  0  0  0  0
  5 25  1  0  0  0  0
  6 15  1  0  0  0  0
  6  7  1  0  0  0  0
  6 26  1  0  0  0  0
  7  8  1  0  0  0  0
  7 27  1  0  0  0  0
  7 28  1  0  0  0  0
  8  9  1  0  0  0  0
  8 29  1  0  0  0  0
  8 30  1  0  0  0  0
  9 10  1  0  0  0  0
  9 14  1  0  0  0  0
  9 41  1  0  0  0  0
 10 11  1  0  0  0  0
 10 31  1  0  0  0  0
 10 32  1  0  0  0  0
 11 12  1  0  0  0  0
 11 13  2  0  0  0  0
 12 33  1  0  0  0  0
 14 15  1  0  0  0  0
 14 34  1  0  0  0  0
 14 35  1  0  0  0  0
 15 36  1  0  0  0  0
 15 37  1  0  0  0  0
 16 20  1  0  0  0  0
 16 17  1  0  0  0  0
 17 18  2  0  0  0  0
 17 38  1  0  0  0  0
 18 19  1  0  0  0  0
 18 39  1  0  0  0  0
 19 20  2  0  0  0  0
 19 40  1  0  0  0  0
M  CHG  1   9   1
M  CHG  1  12  -1
M  END
> <s_m_source_file>
AV-unprocessed.smi

> <i_m_source_file_index>
560

> <i_lp_mmshare_version>
43012

> <i_f3d_flags>
0

> <s_epik_input>
bjFbY0hdW2NIXVtjSF1uMVtDQEhdKFtDSDNdKUMoPU8pW05IXVtDSF0yW0NIMl1bQ0gyXU4oW0NIMl1bQ0gyXTIpW0NIMl1DKD1PKVtOSDJd

> <s_epik_cmdline>
J2VwaWtfcHl0aG9uJywgJy1waCcsICc3LjAnLCAnLXRuJywgJzgnLCAnLW1hJywgJzIwMCcsICctbWV0YWxfYmluZGluZycsICctaW1hZScsICc8aW5maWxlLm1hZT4nLCAnLW9tYWUnLCAnPG91dGZpbGUubWFlPic=

> <r_lp_tautomer_probability>
1

> <r_epik_Ionization_Penalty>
5.71084

> <r_epik_Ionization_Penalty_Charging>
5.71081

> <r_epik_Ionization_Penalty_Neutral>
3.04611e-05

> <r_epik_State_Penalty>
6.71277

> <r_epik_Charging_Adjusted_Penalty>
12.4236

> <i_epik_Tot_Q>
0

> <i_epik_Tot_abs_Q>
2

> <r_epik_Metal_State_Penalty>
2.67562

> <b_epik_Metal_Only>
1

> <s_lp_Force_Field>
OPLS_2005

> <r_lp_Energy>
10.2497

> <b_lp_Chiralities_Consistent>
1

> <s_lp_Variant>
AV-unprocessed.smi:560-8

> <Gold.Version>
5.8.1

> <Gold.Id.Protein>
6NUR|6NUR_protein|mol2

> <Gold.PLP.Fitness>
55.5808

> <Gold.PLP.PLP>
-43.8471

> <Gold.PLP.part.hbond>
-3.0000

> <Gold.PLP.part.metal>
0.0000

> <Gold.PLP.part.buried>
-7.4146

> <Gold.PLP.part.nonpolar>
-33.0716

> <Gold.PLP.part.repulsive>
0.7805

> <Gold.PLP.ligand.clash>
0.0000

> <Gold.PLP.ligand.torsion>
0.1994

> <Gold.PLP.Chemscore.Hbond>
4.0000

> <Gold.PLP.Chemscore.CHOScore>
0.0000

> <Gold.PLP.Chemscore.Metal>
0.0000

> <Gold.Chemscore.Hbonds>
donor molecule, donor type, donor heavy atom, donor atom, acceptor molecule, acceptor atom, score
      L1  H     9    41       P1  8028  2.00
      L1  H    12    33       P1 10175  1.00
      P1  H  7997  8008       L1     4  1.00

> <Gold.PLP.Chemscore.Internal.Correction>
0.1325

> <Gold.Rescore>
     Score         DG    S(hbond)    S(metal)    S(lipo)     H(rot)  DE(clash)    DE(int)     intcor
     17.53     -19.31       2.96        0.00      87.90       2.47       0.08       1.70       ----

> <Gold.Chemscore.Fitness>
17.5263

> <Gold.Chemscore.DG>
-19.3087

> <Gold.Chemscore.ZeroCoef>
-5.4800

> <Gold.Chemscore.Hbond>
2.9568

> <Gold.Chemscore.Metal>
0.0000

> <Gold.Chemscore.Lipo>
87.9040

> <Gold.Chemscore.Internal_Hbond>
0.0000

> <Gold.Chemscore.DEClash>
0.0838

> <Gold.Chemscore.DEInternal>
1.6986

> <Gold.Chemscore.Rot>
2.4734

> <Gold.Chemscore.Internal.Correction>
   9.000000E+99

> <Gold.Chemscore.Hbonds>
donor molecule, donor type, donor heavy atom, donor atom, acceptor molecule, acceptor atom, score
      L1  H     9    41       P1  8028  0.92
      L1  H    12    33       P1 10175  0.67
      P1  H  7997  8008       L1     4  0.93

> <Gold.Chemscore.Hbond.Weighted>
-9.8758

> <Gold.Chemscore.Metal.Weighted>
-0.0000

> <Gold.Chemscore.Lipo.Weighted>
-10.2848

> <Gold.Chemscore.Internal_Hbond.Weighted>
0.0000

> <Gold.Chemscore.DEClash.Weighted>
0.0838

> <Gold.Chemscore.DEInternal.Weighted>
1.6986

> <Gold.Chemscore.Rot.Weighted>
6.3318

> <Gold.Chemscore.Internal.Correction.Weighted>
   9.000000E+99

> <Gold.Protein.RotatedTorsions>
[ 6907 6896 6895 6894 ] final   -5.35 input  -60.11 | X-H torsion
[ 7974 7965 7964 7962 ] final  -54.72 input  175.53 | X-H torsion
[ 8008 7997 7996 7995 ] final  -59.68 input   59.86 | X-H torsion
[ 10167 10162 10161 10158 ] final   49.20 input  -65.29 | X-H torsion
[ 10718 10713 10712 10709 ] final  129.55 input   66.30 | X-H torsion
[ 10763 10752 10751 10750 ] final  -43.95 input  -60.55 | X-H torsion
[ 11005 11000 10999 10996 ] final   69.45 input  -57.11 | X-H torsion

> <Gold.Protein.ActiveResidues>
 VAL166  LYS551  ARG553  GLY616  TRP617  ASP618  TYR619  PRO620  LYS621  CYS622 
 ASP623  PHE694  ASN695  SER759  ASP760  ASP761  ALA762  ILE779  LEU786  VAL792 
 PHE793  MET794  SER795  GLU796  ALA797  LYS798  CYS799  TRP800  GLU811  SER814 

> <Gold.Protein.RotatedAtoms>
  151.4830  135.1053  159.9782 H   0  0  0  0  0  0  0  0  0  0  0  0  # atno 6907 bound_to 6896
  152.4772  133.8162  159.7040 H   0  0  0  0  0  0  0  0  0  0  0  0  # atno 6908 bound_to 6896
  150.8817  133.7301  159.2956 H   0  0  0  0  0  0  0  0  0  0  0  0  # atno 6909 bound_to 6896
  145.8823  140.8135  142.9833 H   0  0  0  0  0  0  0  0  0  0  0  0  # atno 7974 bound_to 7965
  154.4363  140.1056  156.6153 H   0  0  0  0  0  0  0  0  0  0  0  0  # atno 8008 bound_to 7997
  155.5765  140.3490  155.4510 H   0  0  0  0  0  0  0  0  0  0  0  0  # atno 8009 bound_to 7997
  156.0350  140.1269  157.0206 H   0  0  0  0  0  0  0  0  0  0  0  0  # atno 8010 bound_to 7997
  140.2853  144.3109  150.6254 H   0  0  0  0  0  0  0  0  0  0  0  0  # atno 10167 bound_to 10162
  157.5144  131.1097  150.9246 H   0  0  0  0  0  0  0  0  0  0  0  0  # atno 10718 bound_to 10713
  154.0041  135.6690  153.4761 H   0  0  0  0  0  0  0  0  0  0  0  0  # atno 10763 bound_to 10752
  153.0649  135.5006  154.8174 H   0  0  0  0  0  0  0  0  0  0  0  0  # atno 10764 bound_to 10752
  154.7035  135.3083  154.9269 H   0  0  0  0  0  0  0  0  0  0  0  0  # atno 10765 bound_to 10752
  139.9653  134.6991  156.0559 H   0  0  0  0  0  0  0  0  0  0  0  0  # atno 11005 bound_to 11000
  144.6727  140.1402  143.7437 LP  0  0  0  0  0  0  0  0  0  0  0  0  # atno 17320 bound_to 7965
  145.9009  139.2430  143.1494 LP  0  0  0  0  0  0  0  0  0  0  0  0  # atno 17321 bound_to 7965
  140.5777  143.2175  151.7485 LP  0  0  0  0  0  0  0  0  0  0  0  0  # atno 17342 bound_to 10162
  139.4952  144.4125  152.0065 LP  0  0  0  0  0  0  0  0  0  0  0  0  # atno 17343 bound_to 10162
  156.9876  130.5551  149.5301 LP  0  0  0  0  0  0  0  0  0  0  0  0  # atno 17370 bound_to 10713
  156.0310  130.5401  150.8534 LP  0  0  0  0  0  0  0  0  0  0  0  0  # atno 17371 bound_to 10713
  141.1332  133.6581  156.3522 LP  0  0  0  0  0  0  0  0  0  0  0  0  # atno 17394 bound_to 11000
  140.5410  134.6120  157.5380 LP  0  0  0  0  0  0  0  0  0  0  0  0  # atno 17395 bound_to 11000

$$$$
