AV-unprocessed.smi:2224|AV-procd|sdf|8992|dock9
  -GOLD-   2272012203D 1   1.00000     0.00000
 Structure written by MMmdl.
 44 46  0  0  0  0  0  0  0  0  1 V2000
  141.6998  134.7852  153.2226 C   0  0  0  0  0  0  0  0  0  0  0  0
  143.0672  134.5270  152.6253 C   0  0  0  0  0  0  0  0  0  0  0  0
  143.2798  133.4475  151.7468 C   0  0  0  0  0  0  0  0  0  0  0  0
  144.5746  133.2609  151.2244 C   0  0  0  0  0  0  0  0  0  0  0  0
  144.8742  132.1186  150.2764 C   0  0  0  0  0  0  0  0  0  0  0  0
  145.6150  134.0660  151.5287 N   0  0  0  0  0  0  0  0  0  0  0  0
  145.4221  135.1094  152.3733 C   0  0  0  0  0  0  0  0  0  0  0  0
  146.4491  136.0122  152.7574 N   0  0  0  0  0  0  0  0  0  0  0  0
  146.5110  136.7792  153.8603 C   0  0  0  0  0  0  0  0  0  0  0  0
  145.6664  136.8111  154.7559 O   0  0  0  0  0  0  0  0  0  0  0  0
  147.6220  137.5287  153.8697 N   0  0  0  0  0  0  0  0  0  0  0  0
  147.9739  138.4763  154.9329 C   0  0  1  0  0  0  0  0  0  0  0  0
  149.4678  138.4616  155.2681 C   0  0  1  0  0  0  0  0  0  0  0  0
  150.6037  137.5328  155.0332 C   0  0  0  0  0  0  0  0  0  0  0  0
  151.6610  138.6093  154.6649 C   0  0  0  0  0  0  0  0  0  0  0  0
  150.9288  139.8522  154.5094 O   0  0  0  0  0  0  0  0  0  0  0  0
  149.6338  139.4378  154.1221 C   0  0  2  0  0  0  0  0  0  0  0  0
  148.2227  139.9658  154.4651 C   0  0  0  0  0  0  0  0  0  0  0  0
  147.4051  140.4735  153.2720 C   0  0  0  0  0  0  0  0  0  0  0  0
  148.1262  141.0664  155.5371 C   0  0  0  0  0  0  0  0  0  0  0  0
  144.1539  135.3678  152.9405 C   0  0  0  0  0  0  0  0  0  0  0  0
  140.9917  134.0039  152.9446 H   0  0  0  0  0  0  0  0  0  0  0  0
  141.3091  135.7406  152.8717 H   0  0  0  0  0  0  0  0  0  0  0  0
  141.7618  134.8168  154.3105 H   0  0  0  0  0  0  0  0  0  0  0  0
  142.4727  132.7806  151.4806 H   0  0  0  0  0  0  0  0  0  0  0  0
  143.9568  131.6384  149.9349 H   0  0  0  0  0  0  0  0  0  0  0  0
  145.4885  131.3676  150.7736 H   0  0  0  0  0  0  0  0  0  0  0  0
  145.4138  132.4798  149.4003 H   0  0  0  0  0  0  0  0  0  0  0  0
  147.2208  136.0908  152.1118 H   0  0  0  0  0  0  0  0  0  0  0  0
  148.2670  137.4440  153.0981 H   0  0  0  0  0  0  0  0  0  0  0  0
  147.3418  138.4011  155.8195 H   0  0  0  0  0  0  0  0  0  0  0  0
  149.6027  138.9314  156.2455 H   0  0  0  0  0  0  0  0  0  0  0  0
  150.8766  136.9616  155.9209 H   0  0  0  0  0  0  0  0  0  0  0  0
  150.4133  136.8461  154.2074 H   0  0  0  0  0  0  0  0  0  0  0  0
  152.4139  138.7253  155.4450 H   0  0  0  0  0  0  0  0  0  0  0  0
  152.1725  138.3501  153.7370 H   0  0  0  0  0  0  0  0  0  0  0  0
  149.6660  138.9659  153.1346 H   0  0  0  0  0  0  0  0  0  0  0  0
  147.7214  141.4706  152.9646 H   0  0  0  0  0  0  0  0  0  0  0  0
  146.3423  140.5233  153.5101 H   0  0  0  0  0  0  0  0  0  0  0  0
  147.5106  139.8287  152.3994 H   0  0  0  0  0  0  0  0  0  0  0  0
  148.6296  141.9773  155.2124 H   0  0  0  0  0  0  0  0  0  0  0  0
  148.5689  140.7854  156.4910 H   0  0  0  0  0  0  0  0  0  0  0  0
  147.0876  141.3261  155.7451 H   0  0  0  0  0  0  0  0  0  0  0  0
  144.0129  136.2022  153.6125 H   0  0  0  0  0  0  0  0  0  0  0  0
  1  2  1  0  0  0  0
  1 22  1  0  0  0  0
  1 23  1  0  0  0  0
  1 24  1  0  0  0  0
  2 21  1  0  0  0  0
  2  3  2  0  0  0  0
  3  4  1  0  0  0  0
  3 25  1  0  0  0  0
  4  5  1  0  0  0  0
  4  6  2  0  0  0  0
  5 26  1  0  0  0  0
  5 27  1  0  0  0  0
  5 28  1  0  0  0  0
  6  7  1  0  0  0  0
  7  8  1  0  0  0  0
  7 21  2  0  0  0  0
  8  9  1  0  0  0  0
  8 29  1  0  0  0  0
  9 10  2  0  0  0  0
  9 11  1  0  0  0  0
 11 12  1  0  0  0  0
 11 30  1  0  0  0  0
 12 18  1  0  0  0  0
 12 13  1  0  0  0  0
 12 31  1  0  0  0  0
 13 17  1  0  0  0  0
 13 14  1  0  0  0  0
 13 32  1  0  0  0  0
 14 15  1  0  0  0  0
 14 33  1  0  0  0  0
 14 34  1  0  0  0  0
 15 16  1  0  0  0  0
 15 35  1  0  0  0  0
 15 36  1  0  0  0  0
 16 17  1  0  0  0  0
 17 18  1  0  0  0  0
 17 37  1  0  0  0  0
 18 19  1  0  0  0  0
 18 20  1  0  0  0  0
 19 38  1  0  0  0  0
 19 39  1  0  0  0  0
 19 40  1  0  0  0  0
 20 41  1  0  0  0  0
 20 42  1  0  0  0  0
 20 43  1  0  0  0  0
 21 44  1  0  0  0  0
M  END
> <s_m_source_file>
AV-unprocessed.smi

> <i_m_source_file_index>
2224

> <i_lp_mmshare_version>
43012

> <i_f3d_flags>
0

> <s_epik_input>
W0NIM11jMVtjSF1jKFtDSDNdKW5jKFtjSF0xKVtOSF1DKD1PKVtOSF1bQ0BIXTJDKFtDSDNdKShbQ0gzXSlbQ0BIXShbQ0BASF0yMylPW0NIMl1bQ0gyXTM=

> <s_epik_cmdline>
J2VwaWtfcHl0aG9uJywgJy1waCcsICc3LjAnLCAnLXRuJywgJzgnLCAnLW1hJywgJzIwMCcsICctbWV0YWxfYmluZGluZycsICctaW1hZScsICc8aW5maWxlLm1hZT4nLCAnLW9tYWUnLCAnPG91dGZpbGUubWFlPic=

> <r_lp_tautomer_probability>
1

> <r_epik_Ionization_Penalty>
0.000276544

> <r_epik_Ionization_Penalty_Charging>
0

> <r_epik_Ionization_Penalty_Neutral>
0.000276544

> <r_epik_State_Penalty>
-0

> <r_epik_Charging_Adjusted_Penalty>
0

> <i_epik_Tot_Q>
0

> <i_epik_Tot_abs_Q>
0

> <r_epik_Metal_State_Penalty>
-0

> <b_epik_Metal_Only>
0

> <s_lp_Force_Field>
OPLS_2005

> <r_lp_Energy>
64.3875

> <b_lp_Chiralities_Consistent>
1

> <s_lp_Variant>
AV-unprocessed.smi:2224-2

> <Gold.Version>
5.8.1

> <Gold.Id.Protein>
6NUR|6NUR_protein|mol2

> <Gold.PLP.Fitness>
41.3228

> <Gold.PLP.PLP>
-33.1772

> <Gold.PLP.part.hbond>
-3.0000

> <Gold.PLP.part.metal>
0.0000

> <Gold.PLP.part.buried>
-3.7990

> <Gold.PLP.part.nonpolar>
-26.6421

> <Gold.PLP.part.repulsive>
0.2682

> <Gold.PLP.ligand.clash>
0.0000

> <Gold.PLP.ligand.torsion>
0.2686

> <Gold.PLP.Chemscore.Hbond>
2.8080

> <Gold.PLP.Chemscore.CHOScore>
0.0000

> <Gold.PLP.Chemscore.Metal>
0.0000

> <Gold.Chemscore.Hbonds>
donor molecule, donor type, donor heavy atom, donor atom, acceptor molecule, acceptor atom, score
      L1  H     8    29       P1  7948  0.99
      L1  H    11    30       P1  7948  0.88
      P1  H  7989  7998       L1    16  1.00

> <Gold.PLP.Chemscore.Internal.Correction>
0.2588

> <Gold.Rescore>
     Score         DG    S(hbond)    S(metal)    S(lipo)     H(rot)  DE(clash)    DE(int)     intcor
     19.13     -20.96       2.54        0.00      81.63       1.00       0.14       1.69       ----

> <Gold.Chemscore.Fitness>
19.1305

> <Gold.Chemscore.DG>
-20.9625

> <Gold.Chemscore.ZeroCoef>
-5.4800

> <Gold.Chemscore.Hbond>
2.5424

> <Gold.Chemscore.Metal>
0.0000

> <Gold.Chemscore.Lipo>
81.6324

> <Gold.Chemscore.Internal_Hbond>
0.0000

> <Gold.Chemscore.DEClash>
0.1403

> <Gold.Chemscore.DEInternal>
1.6916

> <Gold.Chemscore.Rot>
1.0000

> <Gold.Chemscore.Internal.Correction>
   9.000000E+99

> <Gold.Chemscore.Hbonds>
donor molecule, donor type, donor heavy atom, donor atom, acceptor molecule, acceptor atom, score
      L1  H     8    29       P1  7948  0.94
      L1  H    11    30       P1  7948  0.86
      P1  H  7989  7998       L1    16  0.74

> <Gold.Chemscore.Hbond.Weighted>
-8.4915

> <Gold.Chemscore.Metal.Weighted>
-0.0000

> <Gold.Chemscore.Lipo.Weighted>
-9.5510

> <Gold.Chemscore.Internal_Hbond.Weighted>
0.0000

> <Gold.Chemscore.DEClash.Weighted>
0.1403

> <Gold.Chemscore.DEInternal.Weighted>
1.6916

> <Gold.Chemscore.Rot.Weighted>
2.5600

> <Gold.Chemscore.Internal.Correction.Weighted>
   9.000000E+99

> <Gold.Protein.RotatedTorsions>
[ 6907 6896 6895 6894 ] final -133.08 input  -60.11 | X-H torsion
[ 7974 7965 7964 7962 ] final -118.99 input  175.53 | X-H torsion
[ 8008 7997 7996 7995 ] final   96.12 input   59.86 | X-H torsion
[ 10167 10162 10161 10158 ] final   88.30 input  -65.29 | X-H torsion
[ 10718 10713 10712 10709 ] final -172.99 input   66.30 | X-H torsion
[ 10763 10752 10751 10750 ] final  -67.56 input  -60.55 | X-H torsion
[ 11005 11000 10999 10996 ] final   59.25 input  -57.11 | X-H torsion

> <Gold.Protein.ActiveResidues>
 VAL166  LYS551  ARG553  GLY616  TRP617  ASP618  TYR619  PRO620  LYS621  CYS622 
 ASP623  PHE694  ASN695  SER759  ASP760  ASP761  ALA762  ILE779  LEU786  VAL792 
 PHE793  MET794  SER795  GLU796  ALA797  LYS798  CYS799  TRP800  GLU811  SER814 

> <Gold.Protein.RotatedAtoms>
  150.9699  133.6355  159.2739 H   0  0  0  0  0  0  0  0  0  0  0  0  # atno 6907 bound_to 6896
  151.3648  135.0910  159.9456 H   0  0  0  0  0  0  0  0  0  0  0  0  # atno 6908 bound_to 6896
  152.5179  133.9265  159.7614 H   0  0  0  0  0  0  0  0  0  0  0  0  # atno 6909 bound_to 6896
  145.0676  140.8335  143.4115 H   0  0  0  0  0  0  0  0  0  0  0  0  # atno 7974 bound_to 7965
  156.0762  140.3277  155.7636 H   0  0  0  0  0  0  0  0  0  0  0  0  # atno 8008 bound_to 7997
  155.5227  140.0586  157.2921 H   0  0  0  0  0  0  0  0  0  0  0  0  # atno 8009 bound_to 7997
  154.4557  140.1941  156.0405 H   0  0  0  0  0  0  0  0  0  0  0  0  # atno 8010 bound_to 7997
  139.8687  144.6505  150.8975 H   0  0  0  0  0  0  0  0  0  0  0  0  # atno 10167 bound_to 10162
  156.7637  130.9423  151.3118 H   0  0  0  0  0  0  0  0  0  0  0  0  # atno 10718 bound_to 10713
  154.3763  135.6084  153.5766 H   0  0  0  0  0  0  0  0  0  0  0  0  # atno 10763 bound_to 10752
  152.9789  135.5850  154.4463 H   0  0  0  0  0  0  0  0  0  0  0  0  # atno 10764 bound_to 10752
  154.4225  135.2846  155.1944 H   0  0  0  0  0  0  0  0  0  0  0  0  # atno 10765 bound_to 10752
  140.0317  134.6002  155.9497 H   0  0  0  0  0  0  0  0  0  0  0  0  # atno 11005 bound_to 11000
  145.1332  139.2618  143.5528 LP  0  0  0  0  0  0  0  0  0  0  0  0  # atno 17320 bound_to 7965
  146.3527  140.0989  142.8609 LP  0  0  0  0  0  0  0  0  0  0  0  0  # atno 17321 bound_to 7965
  140.7764  143.3682  151.1698 LP  0  0  0  0  0  0  0  0  0  0  0  0  # atno 17342 bound_to 10162
  139.7305  143.9081  152.3017 LP  0  0  0  0  0  0  0  0  0  0  0  0  # atno 17343 bound_to 10162
  157.6723  130.9062  150.0069 LP  0  0  0  0  0  0  0  0  0  0  0  0  # atno 17370 bound_to 10713
  156.1323  130.3643  149.9713 LP  0  0  0  0  0  0  0  0  0  0  0  0  # atno 17371 bound_to 10713
  141.1835  133.6551  156.5118 LP  0  0  0  0  0  0  0  0  0  0  0  0  # atno 17394 bound_to 11000
  140.4214  134.7184  157.4892 LP  0  0  0  0  0  0  0  0  0  0  0  0  # atno 17395 bound_to 11000

$$$$
