AV-unprocessed.smi:2226|AV-procd|sdf|9002|dock6
  -GOLD-   2272012213D 1   1.00000     0.00000
 Structure written by MMmdl.
 40 42  0  0  0  0  0  0  0  0  2 V2000
  145.8874  143.1245  153.7984 C   0  0  0  0  0  0  0  0  0  0  0  0
  146.0136  141.6549  153.9472 N   0  3  2  0  0  0  0  0  0  0  0  0
  145.7588  141.1419  155.3153 C   0  0  1  0  0  0  0  0  0  0  0  0
  145.4891  139.6207  155.2364 C   0  0  0  0  0  0  0  0  0  0  0  0
  146.5866  138.8286  154.4959 C   0  0  0  0  0  0  0  0  0  0  0  0
  147.0849  139.5544  153.2291 C   0  0  0  0  0  0  0  0  0  0  0  0
  147.2715  141.0791  153.4125 C   0  0  2  0  0  0  0  0  0  0  0  0
  148.4901  141.4857  154.2788 C   0  0  0  0  0  0  0  0  0  0  0  0
  148.3181  141.2268  155.7934 C   0  0  1  0  0  0  0  0  0  0  0  0
  149.2858  142.0342  156.5361 N   0  0  0  0  0  0  0  0  0  0  0  0
  150.0994  141.5926  157.5082 C   0  0  0  0  0  0  0  0  0  0  0  0
  150.1266  140.4253  157.8984 O   0  0  0  0  0  0  0  0  0  0  0  0
  150.8681  142.5847  157.9893 N   0  0  0  0  0  0  0  0  0  0  0  0
  151.8430  142.5008  159.0161 C   0  0  0  0  0  0  0  0  0  0  0  0
  152.5014  143.5188  159.5725 N   0  0  0  0  0  0  0  0  0  0  0  0
  153.3316  142.9264  160.5134 C   0  0  0  0  0  0  0  0  0  0  0  0
  153.1259  141.5712  160.4718 C   0  0  0  0  0  0  0  0  0  0  0  0
  152.1808  141.2857  159.5231 O   0  0  0  0  0  0  0  0  0  0  0  0
  146.8907  141.5520  156.2907 C   0  0  0  0  0  0  0  0  0  0  0  0
  146.6364  143.6654  154.3761 H   0  0  0  0  0  0  0  0  0  0  0  0
  144.9023  143.4559  154.1280 H   0  0  0  0  0  0  0  0  0  0  0  0
  145.9966  143.4105  152.7519 H   0  0  0  0  0  0  0  0  0  0  0  0
  144.8372  141.6002  155.6768 H   0  0  0  0  0  0  0  0  0  0  0  0
  145.3386  139.2076  156.2344 H   0  0  0  0  0  0  0  0  0  0  0  0
  144.5467  139.4701  154.7075 H   0  0  0  0  0  0  0  0  0  0  0  0
  147.4173  138.6156  155.1635 H   0  0  0  0  0  0  0  0  0  0  0  0
  146.2013  137.8457  154.2221 H   0  0  0  0  0  0  0  0  0  0  0  0
  148.0094  139.0968  152.8752 H   0  0  0  0  0  0  0  0  0  0  0  0
  146.3524  139.3951  152.4365 H   0  0  0  0  0  0  0  0  0  0  0  0
  147.4299  141.4926  152.4155 H   0  0  0  0  0  0  0  0  0  0  0  0
  149.3882  140.9818  153.9189 H   0  0  0  0  0  0  0  0  0  0  0  0
  148.6759  142.5488  154.1202 H   0  0  0  0  0  0  0  0  0  0  0  0
  148.5165  140.1761  155.9858 H   0  0  0  0  0  0  0  0  0  0  0  0
  149.3405  143.0116  156.2890 H   0  0  0  0  0  0  0  0  0  0  0  0
  150.7451  143.4986  157.5793 H   0  0  0  0  0  0  0  0  0  0  0  0
  153.9973  143.5093  161.1329 H   0  0  0  0  0  0  0  0  0  0  0  0
  153.5413  140.7330  161.0116 H   0  0  0  0  0  0  0  0  0  0  0  0
  146.8124  142.6260  156.4643 H   0  0  0  0  0  0  0  0  0  0  0  0
  146.7270  141.0921  157.2661 H   0  0  0  0  0  0  0  0  0  0  0  0
  145.2747  141.2755  153.3722 H   0  0  0  0  0  0  0  0  0  0  0  0
  1  2  1  0  0  0  0
  1 20  1  0  0  0  0
  1 21  1  0  0  0  0
  1 22  1  0  0  0  0
  2  7  1  0  0  0  0
  2  3  1  0  0  0  0
  2 40  1  0  0  0  0
  3 19  1  0  0  0  0
  3  4  1  0  0  0  0
  3 23  1  0  0  0  0
  4  5  1  0  0  0  0
  4 24  1  0  0  0  0
  4 25  1  0  0  0  0
  5  6  1  0  0  0  0
  5 26  1  0  0  0  0
  5 27  1  0  0  0  0
  6  7  1  0  0  0  0
  6 28  1  0  0  0  0
  6 29  1  0  0  0  0
  7  8  1  0  0  0  0
  7 30  1  0  0  0  0
  8  9  1  0  0  0  0
  8 31  1  0  0  0  0
  8 32  1  0  0  0  0
  9 10  1  0  0  0  0
  9 19  1  0  0  0  0
  9 33  1  0  0  0  0
 10 11  1  0  0  0  0
 10 34  1  0  0  0  0
 11 12  2  0  0  0  0
 11 13  1  0  0  0  0
 13 14  1  0  0  0  0
 13 35  1  0  0  0  0
 14 18  1  0  0  0  0
 14 15  2  0  0  0  0
 15 16  1  0  0  0  0
 16 17  2  0  0  0  0
 16 36  1  0  0  0  0
 17 18  1  0  0  0  0
 17 37  1  0  0  0  0
 19 38  1  0  0  0  0
 19 39  1  0  0  0  0
M  CHG  1   2   1
M  END
> <s_m_source_file>
AV-unprocessed.smi

> <i_m_source_file_index>
2226

> <i_lp_mmshare_version>
43012

> <i_f3d_flags>
0

> <s_epik_input>
W0NIMl0xW0NIMl1bQ0gyXVtDQEhdKE4oW0NIM10pW0NIXTEyKVtDSDJdW0NASF0oW0NIMl0yKVtOSF1DKD1PKVtOSF1jM25bY0hdW2NIXW8z

> <s_epik_cmdline>
J2VwaWtfcHl0aG9uJywgJy1waCcsICc3LjAnLCAnLXRuJywgJzgnLCAnLW1hJywgJzIwMCcsICctbWV0YWxfYmluZGluZycsICctaW1hZScsICc8aW5maWxlLm1hZT4nLCAnLW9tYWUnLCAnPG91dGZpbGUubWFlPic=

> <r_lp_tautomer_probability>
0.785861

> <r_epik_Ionization_Penalty>
0.000929358

> <r_epik_Ionization_Penalty_Charging>
0.000890041

> <r_epik_Ionization_Penalty_Neutral>
3.93161e-05

> <r_epik_State_Penalty>
0.0312137

> <r_epik_Charging_Adjusted_Penalty>
0.0321037

> <i_epik_Tot_Q>
1

> <i_epik_Tot_abs_Q>
1

> <r_epik_Metal_State_Penalty>
0.0605703

> <b_epik_Metal_Only>
0

> <s_lp_Force_Field>
OPLS_2005

> <r_lp_Energy>
35.273

> <b_lp_Chiralities_Consistent>
1

> <s_lp_Variant>
AV-unprocessed.smi:2226-2

> <Gold.Version>
5.8.1

> <Gold.Id.Protein>
6NUR|6NUR_protein|mol2

> <Gold.PLP.Fitness>
39.6372

> <Gold.PLP.PLP>
-30.9511

> <Gold.PLP.part.hbond>
-2.0000

> <Gold.PLP.part.metal>
0.0000

> <Gold.PLP.part.buried>
-6.4731

> <Gold.PLP.part.nonpolar>
-22.5320

> <Gold.PLP.part.repulsive>
0.0981

> <Gold.PLP.ligand.clash>
0.0000

> <Gold.PLP.ligand.torsion>
0.1603

> <Gold.PLP.Chemscore.Hbond>
3.0000

> <Gold.PLP.Chemscore.CHOScore>
0.0000

> <Gold.PLP.Chemscore.Metal>
0.0000

> <Gold.Chemscore.Hbonds>
donor molecule, donor type, donor heavy atom, donor atom, acceptor molecule, acceptor atom, score
      L1  H     2    40       P1 10175  1.90
      L1  H    10    34       P1  8028  1.00

> <Gold.PLP.Chemscore.Internal.Correction>
0.0066

> <Gold.Rescore>
     Score         DG    S(hbond)    S(metal)    S(lipo)     H(rot)  DE(clash)    DE(int)     intcor
     15.59     -17.21       2.17        0.00      60.11       1.00       0.12       1.50       ----

> <Gold.Chemscore.Fitness>
15.5921

> <Gold.Chemscore.DG>
-17.2138

> <Gold.Chemscore.ZeroCoef>
-5.4800

> <Gold.Chemscore.Hbond>
2.1740

> <Gold.Chemscore.Metal>
0.0000

> <Gold.Chemscore.Lipo>
60.1066

> <Gold.Chemscore.Internal_Hbond>
0.0000

> <Gold.Chemscore.DEClash>
0.1249

> <Gold.Chemscore.DEInternal>
1.4968

> <Gold.Chemscore.Rot>
1.0000

> <Gold.Chemscore.Internal.Correction>
   9.000000E+99

> <Gold.Chemscore.Hbonds>
donor molecule, donor type, donor heavy atom, donor atom, acceptor molecule, acceptor atom, score
      L1  H     2    40       P1 10175  0.21
      L1  H    10    34       P1  8028  1.00

> <Gold.Chemscore.Hbond.Weighted>
-7.2613

> <Gold.Chemscore.Metal.Weighted>
-0.0000

> <Gold.Chemscore.Lipo.Weighted>
-7.0325

> <Gold.Chemscore.Internal_Hbond.Weighted>
0.0000

> <Gold.Chemscore.DEClash.Weighted>
0.1249

> <Gold.Chemscore.DEInternal.Weighted>
1.4968

> <Gold.Chemscore.Rot.Weighted>
2.5600

> <Gold.Chemscore.Internal.Correction.Weighted>
   9.000000E+99

> <Gold.Protein.RotatedTorsions>
[ 6907 6896 6895 6894 ] final -121.72 input  -60.11 | X-H torsion
[ 7974 7965 7964 7962 ] final  -79.67 input  175.53 | X-H torsion
[ 8008 7997 7996 7995 ] final -171.94 input   59.86 | X-H torsion
[ 10167 10162 10161 10158 ] final  -29.27 input  -65.29 | X-H torsion
[ 10718 10713 10712 10709 ] final   48.06 input   66.30 | X-H torsion
[ 10763 10752 10751 10750 ] final   71.94 input  -60.55 | X-H torsion
[ 11005 11000 10999 10996 ] final -123.68 input  -57.11 | X-H torsion

> <Gold.Protein.ActiveResidues>
 VAL166  LYS551  ARG553  GLY616  TRP617  ASP618  TYR619  PRO620  LYS621  CYS622 
 ASP623  PHE694  ASN695  SER759  ASP760  ASP761  ALA762  ILE779  LEU786  VAL792 
 PHE793  MET794  SER795  GLU796  ALA797  LYS798  CYS799  TRP800  GLU811  SER814 

> <Gold.Protein.RotatedAtoms>
  150.8509  133.7789  159.3025 H   0  0  0  0  0  0  0  0  0  0  0  0  # atno 6907 bound_to 6896
  151.5461  135.1066  159.9948 H   0  0  0  0  0  0  0  0  0  0  0  0  # atno 6908 bound_to 6896
  152.4552  133.7665  159.6831 H   0  0  0  0  0  0  0  0  0  0  0  0  # atno 6909 bound_to 6896
  145.5702  140.9467  143.1400 H   0  0  0  0  0  0  0  0  0  0  0  0  # atno 7974 bound_to 7965
  155.9381  140.1103  157.1078 H   0  0  0  0  0  0  0  0  0  0  0  0  # atno 8008 bound_to 7997
  154.4084  140.1224  156.4957 H   0  0  0  0  0  0  0  0  0  0  0  0  # atno 8009 bound_to 7997
  155.6996  140.3472  155.4930 H   0  0  0  0  0  0  0  0  0  0  0  0  # atno 8010 bound_to 7997
  140.7262  143.3942  151.1376 H   0  0  0  0  0  0  0  0  0  0  0  0  # atno 10167 bound_to 10162
  157.4648  130.8218  149.7924 H   0  0  0  0  0  0  0  0  0  0  0  0  # atno 10718 bound_to 10713
  153.0429  135.5118  154.7669 H   0  0  0  0  0  0  0  0  0  0  0  0  # atno 10763 bound_to 10752
  154.6593  135.2936  154.9890 H   0  0  0  0  0  0  0  0  0  0  0  0  # atno 10764 bound_to 10752
  154.0747  135.6672  153.4882 H   0  0  0  0  0  0  0  0  0  0  0  0  # atno 10765 bound_to 10752
  140.9900  134.0553  157.3666 H   0  0  0  0  0  0  0  0  0  0  0  0  # atno 11005 bound_to 11000
  144.7441  139.7367  143.7299 LP  0  0  0  0  0  0  0  0  0  0  0  0  # atno 17320 bound_to 7965
  146.1790  139.4973  142.9879 LP  0  0  0  0  0  0  0  0  0  0  0  0  # atno 17321 bound_to 7965
  139.7552  143.8718  152.3087 LP  0  0  0  0  0  0  0  0  0  0  0  0  # atno 17342 bound_to 10162
  139.8585  144.7129  150.9128 LP  0  0  0  0  0  0  0  0  0  0  0  0  # atno 17343 bound_to 10162
  156.0045  130.3862  150.2481 LP  0  0  0  0  0  0  0  0  0  0  0  0  # atno 17370 bound_to 10713
  157.0661  131.0103  151.3206 LP  0  0  0  0  0  0  0  0  0  0  0  0  # atno 17371 bound_to 10713
  139.8988  135.0156  156.7164 LP  0  0  0  0  0  0  0  0  0  0  0  0  # atno 17394 bound_to 11000
  140.7055  133.9269  155.8051 LP  0  0  0  0  0  0  0  0  0  0  0  0  # atno 17395 bound_to 11000

$$$$
