AV-unprocessed.smi:1313|AV-procd|sdf|5451|dock2
  -GOLD-   22720 5 23D 1   1.00000     0.00000
 Structure written by MMmdl.
 37 38  0  0  0  0  0  0  0  0  1 V2000
  147.4154  141.2170  153.2945 C   0  0  0  0  0  0  0  0  0  0  0  0
  148.2254  140.7816  154.4962 C   0  0  0  0  0  0  0  0  0  0  0  0
  149.4073  140.1395  154.1665 N   0  0  0  0  0  0  0  0  0  0  0  0
  150.2155  139.6997  155.1999 C   0  0  0  0  0  0  0  0  0  0  0  0
  151.4890  139.0042  154.7507 C   0  0  0  0  0  0  0  0  0  0  0  0
  149.8654  139.8940  156.4971 C   0  0  0  0  0  0  0  0  0  0  0  0
  150.7301  139.4246  157.6655 C   0  0  0  0  0  0  0  0  0  0  0  0
  151.8761  140.3641  158.0448 C   0  0  0  0  0  0  0  0  0  0  0  0
  153.0428  140.0104  157.8762 O   0  0  0  0  0  0  0  0  0  0  0  0
  151.5316  141.5524  158.5640 N   0  0  0  0  0  0  0  0  0  0  0  0
  152.4690  142.5746  159.0211 C   0  0  0  0  0  0  0  0  0  0  0  0
  152.2809  142.8552  160.5247 C   0  0  0  0  0  0  0  0  0  0  0  0
  152.2029  144.3764  160.6662 C   0  0  0  0  0  0  0  0  0  0  0  0
  151.6129  144.8491  159.3416 C   0  0  0  0  0  0  0  0  0  0  0  0
  152.2372  143.9185  158.3019 C   0  0  0  0  0  0  0  0  0  0  0  0
  148.5922  140.5954  156.7872 C   0  0  0  0  0  0  0  0  0  0  0  0
  148.2255  140.8153  157.9408 O   0  0  0  0  0  0  0  0  0  0  0  0
  147.8050  141.0143  155.7022 N   0  0  0  0  0  0  0  0  0  0  0  0
  149.7061  139.9759  153.2159 H   0  0  0  0  0  0  0  0  0  0  0  0
  146.4892  141.7031  153.6035 H   0  0  0  0  0  0  0  0  0  0  0  0
  147.1584  140.3561  152.6765 H   0  0  0  0  0  0  0  0  0  0  0  0
  147.9846  141.9223  152.6882 H   0  0  0  0  0  0  0  0  0  0  0  0
  151.5195  137.9817  155.1271 H   0  0  0  0  0  0  0  0  0  0  0  0
  152.3654  139.5361  155.1209 H   0  0  0  0  0  0  0  0  0  0  0  0
  151.5609  138.9616  153.6632 H   0  0  0  0  0  0  0  0  0  0  0  0
  151.1360  138.4423  157.4209 H   0  0  0  0  0  0  0  0  0  0  0  0
  150.1212  139.2542  158.5538 H   0  0  0  0  0  0  0  0  0  0  0  0
  150.5482  141.7590  158.6634 H   0  0  0  0  0  0  0  0  0  0  0  0
  153.4918  142.2379  158.8415 H   0  0  0  0  0  0  0  0  0  0  0  0
  151.3486  142.4178  160.8855 H   0  0  0  0  0  0  0  0  0  0  0  0
  153.0865  142.4323  161.1256 H   0  0  0  0  0  0  0  0  0  0  0  0
  151.6099  144.6885  161.5265 H   0  0  0  0  0  0  0  0  0  0  0  0
  153.2063  144.7866  160.7871 H   0  0  0  0  0  0  0  0  0  0  0  0
  150.5305  144.7149  159.3530 H   0  0  0  0  0  0  0  0  0  0  0  0
  151.8173  145.9011  159.1405 H   0  0  0  0  0  0  0  0  0  0  0  0
  153.1991  144.3259  157.9876 H   0  0  0  0  0  0  0  0  0  0  0  0
  151.6198  143.8341  157.4066 H   0  0  0  0  0  0  0  0  0  0  0  0
  1 20  1  0  0  0  0
  1 21  1  0  0  0  0
  1 22  1  0  0  0  0
  1  2  1  0  0  0  0
  2  3  1  0  0  0  0
  2 18  2  0  0  0  0
  3  4  1  0  0  0  0
  3 19  1  0  0  0  0
  4  6  2  0  0  0  0
  4  5  1  0  0  0  0
  5 23  1  0  0  0  0
  5 24  1  0  0  0  0
  5 25  1  0  0  0  0
  6 16  1  0  0  0  0
  6  7  1  0  0  0  0
  7  8  1  0  0  0  0
  7 26  1  0  0  0  0
  7 27  1  0  0  0  0
  8  9  2  0  0  0  0
  8 10  1  0  0  0  0
 10 11  1  0  0  0  0
 10 28  1  0  0  0  0
 11 15  1  0  0  0  0
 11 12  1  0  0  0  0
 11 29  1  0  0  0  0
 12 13  1  0  0  0  0
 12 30  1  0  0  0  0
 12 31  1  0  0  0  0
 13 14  1  0  0  0  0
 13 32  1  0  0  0  0
 13 33  1  0  0  0  0
 14 15  1  0  0  0  0
 14 34  1  0  0  0  0
 14 35  1  0  0  0  0
 15 36  1  0  0  0  0
 15 37  1  0  0  0  0
 16 17  2  0  0  0  0
 16 18  1  0  0  0  0
M  END
> <s_m_source_file>
AV-unprocessed.smi

> <i_m_source_file_index>
1313

> <i_lp_mmshare_version>
43012

> <i_f3d_flags>
0

> <s_epik_input>
W0NIM11jMW5jKFtDSDNdKWMoYyg9TylbbkhdMSlbQ0gyXUMoPU8pW05IXVtDSF0yW0NIMl1bQ0gyXVtDSDJdW0NIMl0y

> <s_epik_cmdline>
J2VwaWtfcHl0aG9uJywgJy1waCcsICc3LjAnLCAnLXRuJywgJzgnLCAnLW1hJywgJzIwMCcsICctbWV0YWxfYmluZGluZycsICctaW1hZScsICc8aW5maWxlLm1hZT4nLCAnLW9tYWUnLCAnPG91dGZpbGUubWFlPic=

> <r_lp_tautomer_probability>
0.156392

> <r_epik_Ionization_Penalty>
0.0140409

> <r_epik_Ionization_Penalty_Charging>
0.0139177

> <r_epik_Ionization_Penalty_Neutral>
0.000123229

> <r_epik_State_Penalty>
1.53066

> <r_epik_Charging_Adjusted_Penalty>
1.54458

> <i_epik_Tot_Q>
0

> <i_epik_Tot_abs_Q>
0

> <r_epik_Metal_State_Penalty>
1.70649

> <b_epik_Metal_Only>
0

> <s_lp_Force_Field>
OPLS_2005

> <r_lp_Energy>
23.2441

> <b_lp_Chiralities_Consistent>
1

> <s_lp_Variant>
AV-unprocessed.smi:1313-2

> <Gold.Version>
5.8.1

> <Gold.Id.Protein>
6NUR|6NUR_protein|mol2

> <Gold.PLP.Fitness>
41.4397

> <Gold.PLP.PLP>
-36.2194

> <Gold.PLP.part.hbond>
-2.2905

> <Gold.PLP.part.metal>
0.0000

> <Gold.PLP.part.buried>
-3.9418

> <Gold.PLP.part.nonpolar>
-29.3663

> <Gold.PLP.part.repulsive>
0.3308

> <Gold.PLP.ligand.clash>
0.0000

> <Gold.PLP.ligand.torsion>
0.3781

> <Gold.PLP.Chemscore.Hbond>
1.9913

> <Gold.PLP.Chemscore.CHOScore>
0.0000

> <Gold.PLP.Chemscore.Metal>
0.0000

> <Gold.Chemscore.Hbonds>
donor molecule, donor type, donor heavy atom, donor atom, acceptor molecule, acceptor atom, score
      L1  H     3    19       P1  7957  0.93
      P1  H  7997  8010       L1     9  1.00

> <Gold.PLP.Chemscore.Internal.Correction>
0.0028

> <Gold.Rescore>
     Score         DG    S(hbond)    S(metal)    S(lipo)     H(rot)  DE(clash)    DE(int)     intcor
     18.45     -18.94       1.97        0.00      91.93       1.51       0.12       0.37       ----

> <Gold.Chemscore.Fitness>
18.4498

> <Gold.Chemscore.DG>
-18.9372

> <Gold.Chemscore.ZeroCoef>
-5.4800

> <Gold.Chemscore.Hbond>
1.9682

> <Gold.Chemscore.Metal>
0.0000

> <Gold.Chemscore.Lipo>
91.9323

> <Gold.Chemscore.Internal_Hbond>
0.0000

> <Gold.Chemscore.DEClash>
0.1175

> <Gold.Chemscore.DEInternal>
0.3699

> <Gold.Chemscore.Rot>
1.5128

> <Gold.Chemscore.Internal.Correction>
   9.000000E+99

> <Gold.Chemscore.Hbonds>
donor molecule, donor type, donor heavy atom, donor atom, acceptor molecule, acceptor atom, score
      L1  H     3    19       P1  7957  0.88
      P1  H  7997  8010       L1     9  0.98

> <Gold.Chemscore.Hbond.Weighted>
-6.5738

> <Gold.Chemscore.Metal.Weighted>
-0.0000

> <Gold.Chemscore.Lipo.Weighted>
-10.7561

> <Gold.Chemscore.Internal_Hbond.Weighted>
0.0000

> <Gold.Chemscore.DEClash.Weighted>
0.1175

> <Gold.Chemscore.DEInternal.Weighted>
0.3699

> <Gold.Chemscore.Rot.Weighted>
3.8727

> <Gold.Chemscore.Internal.Correction.Weighted>
   9.000000E+99

> <Gold.Protein.RotatedTorsions>
[ 6907 6896 6895 6894 ] final -178.00 input  -60.11 | X-H torsion
[ 7974 7965 7964 7962 ] final -122.03 input  175.53 | X-H torsion
[ 8008 7997 7996 7995 ] final   39.06 input   59.86 | X-H torsion
[ 10167 10162 10161 10158 ] final -129.30 input  -65.29 | X-H torsion
[ 10718 10713 10712 10709 ] final  -70.09 input   66.30 | X-H torsion
[ 10763 10752 10751 10750 ] final -169.42 input  -60.55 | X-H torsion
[ 11005 11000 10999 10996 ] final -133.29 input  -57.11 | X-H torsion

> <Gold.Protein.ActiveResidues>
 VAL166  LYS551  ARG553  GLY616  TRP617  ASP618  TYR619  PRO620  LYS621  CYS622 
 ASP623  PHE694  ASN695  SER759  ASP760  ASP761  ALA762  ILE779  LEU786  VAL792 
 PHE793  MET794  SER795  GLU796  ALA797  LYS798  CYS799  TRP800  GLU811  SER814 

> <Gold.Protein.RotatedAtoms>
  151.6301  133.3332  159.3106 H   0  0  0  0  0  0  0  0  0  0  0  0  # atno 6907 bound_to 6896
  150.8061  134.7190  159.6657 H   0  0  0  0  0  0  0  0  0  0  0  0  # atno 6908 bound_to 6896
  152.4156  134.6052  160.0062 H   0  0  0  0  0  0  0  0  0  0  0  0  # atno 6909 bound_to 6896
  145.0339  140.8090  143.4307 H   0  0  0  0  0  0  0  0  0  0  0  0  # atno 7974 bound_to 7965
  155.2304  140.3338  155.4304 H   0  0  0  0  0  0  0  0  0  0  0  0  # atno 8008 bound_to 7997
  156.2297  140.1845  156.7320 H   0  0  0  0  0  0  0  0  0  0  0  0  # atno 8009 bound_to 7997
  154.5957  140.0631  156.9286 H   0  0  0  0  0  0  0  0  0  0  0  0  # atno 8010 bound_to 7997
  139.9412  143.6161  152.2503 H   0  0  0  0  0  0  0  0  0  0  0  0  # atno 10167 bound_to 10162
  156.0424  130.4325  150.2244 H   0  0  0  0  0  0  0  0  0  0  0  0  # atno 10718 bound_to 10713
  154.6524  135.2913  154.9970 H   0  0  0  0  0  0  0  0  0  0  0  0  # atno 10763 bound_to 10752
  154.1058  135.6570  153.4880 H   0  0  0  0  0  0  0  0  0  0  0  0  # atno 10764 bound_to 10752
  153.0384  135.5253  154.7438 H   0  0  0  0  0  0  0  0  0  0  0  0  # atno 10765 bound_to 10752
  140.9094  134.1587  157.4401 H   0  0  0  0  0  0  0  0  0  0  0  0  # atno 11005 bound_to 11000
  145.1735  139.2391  143.5330 LP  0  0  0  0  0  0  0  0  0  0  0  0  # atno 17320 bound_to 7965
  146.3502  140.1491  142.8593 LP  0  0  0  0  0  0  0  0  0  0  0  0  # atno 17321 bound_to 7965
  139.6703  144.7661  151.1795 LP  0  0  0  0  0  0  0  0  0  0  0  0  # atno 17342 bound_to 10162
  140.7610  143.5875  150.8830 LP  0  0  0  0  0  0  0  0  0  0  0  0  # atno 17343 bound_to 10162
  157.0338  131.0015  151.3304 LP  0  0  0  0  0  0  0  0  0  0  0  0  # atno 17370 bound_to 10713
  157.5258  130.8027  149.7861 LP  0  0  0  0  0  0  0  0  0  0  0  0  # atno 17371 bound_to 10713
  139.8755  134.9930  156.5622 LP  0  0  0  0  0  0  0  0  0  0  0  0  # atno 17394 bound_to 11000
  140.8129  133.8414  155.8826 LP  0  0  0  0  0  0  0  0  0  0  0  0  # atno 17395 bound_to 11000

$$$$
