AV-unprocessed.smi:2083|AV-procd|sdf|8504|dock6
  -GOLD-   2272011213D 1   1.00000     0.00000
 Structure written by MMmdl.
 44 45  0  0  0  0  0  0  0  0  3 V2000
  146.7145  136.2490  162.8585 C   0  0  0  0  0  0  0  0  0  0  0  0
  147.3738  136.1231  161.5275 C   0  0  0  0  0  0  0  0  0  0  0  0
  147.8789  135.0564  160.8396 C   0  0  0  0  0  0  0  0  0  0  0  0
  148.3537  135.6422  159.6344 C   0  0  0  0  0  0  0  0  0  0  0  0
  148.9595  134.9960  158.6263 N   0  5  0  0  0  0  0  0  0  0  0  0
  148.9893  135.5384  157.3879 C   0  0  0  0  0  0  0  0  0  0  0  0
  149.4331  136.6473  157.0820 O   0  0  0  0  0  0  0  0  0  0  0  0
  148.4714  134.7438  156.4425 N   0  0  0  0  0  0  0  0  0  0  0  0
  148.3830  135.0674  155.0236 C   0  0  0  0  0  0  0  0  0  0  0  0
  148.1261  133.8098  154.1598 C   0  0  2  0  0  0  0  0  0  0  0  0
  149.4602  133.0769  153.8736 C   0  0  0  0  0  0  0  0  0  0  0  0
  147.3590  134.1909  152.9280 N   0  3  2  0  0  0  0  0  0  0  0  0
  146.2084  135.0835  153.2470 C   0  0  0  0  0  0  0  0  0  0  0  0
  145.5510  135.6382  151.9752 C   0  0  0  0  0  0  0  0  0  0  0  0
  145.0835  134.4983  151.0663 C   0  0  0  0  0  0  0  0  0  0  0  0
  146.2620  133.5662  150.7491 C   0  0  2  0  0  0  0  0  0  0  0  0
  145.8249  132.3980  149.8535 C   0  0  0  0  0  0  0  0  0  0  0  0
  146.9242  133.0641  152.0497 C   0  0  0  0  0  0  0  0  0  0  0  0
  148.1681  136.9511  159.6010 N   0  0  0  0  0  0  0  0  0  0  0  0
  147.5340  137.2667  160.8086 O   0  0  0  0  0  0  0  0  0  0  0  0
  147.3667  135.8766  163.6484 H   0  0  0  0  0  0  0  0  0  0  0  0
  145.7886  135.6748  162.8849 H   0  0  0  0  0  0  0  0  0  0  0  0
  146.4735  137.2886  163.0819 H   0  0  0  0  0  0  0  0  0  0  0  0
  147.9025  134.0218  161.1473 H   0  0  0  0  0  0  0  0  0  0  0  0
  148.1171  133.8447  156.7349 H   0  0  0  0  0  0  0  0  0  0  0  0
  147.5918  135.8070  154.9065 H   0  0  0  0  0  0  0  0  0  0  0  0
  149.3089  135.5473  154.7009 H   0  0  0  0  0  0  0  0  0  0  0  0
  147.5095  133.1148  154.7329 H   0  0  0  0  0  0  0  0  0  0  0  0
  149.9866  132.8250  154.7943 H   0  0  0  0  0  0  0  0  0  0  0  0
  150.1336  133.6915  153.2754 H   0  0  0  0  0  0  0  0  0  0  0  0
  149.3053  132.1304  153.3554 H   0  0  0  0  0  0  0  0  0  0  0  0
  145.4724  134.5300  153.8325 H   0  0  0  0  0  0  0  0  0  0  0  0
  146.5246  135.9224  153.8649 H   0  0  0  0  0  0  0  0  0  0  0  0
  144.7039  136.2715  152.2408 H   0  0  0  0  0  0  0  0  0  0  0  0
  146.2582  136.2738  151.4408 H   0  0  0  0  0  0  0  0  0  0  0  0
  144.2847  133.9396  151.5560 H   0  0  0  0  0  0  0  0  0  0  0  0
  144.6622  134.9055  150.1465 H   0  0  0  0  0  0  0  0  0  0  0  0
  147.0051  134.1420  150.1950 H   0  0  0  0  0  0  0  0  0  0  0  0
  145.0833  131.7719  150.3509 H   0  0  0  0  0  0  0  0  0  0  0  0
  146.6728  131.7647  149.5910 H   0  0  0  0  0  0  0  0  0  0  0  0
  145.3853  132.7595  148.9235 H   0  0  0  0  0  0  0  0  0  0  0  0
  147.7802  132.4580  151.7549 H   0  0  0  0  0  0  0  0  0  0  0  0
  146.2405  132.4162  152.6008 H   0  0  0  0  0  0  0  0  0  0  0  0
  148.0007  134.7332  152.3673 H   0  0  0  0  0  0  0  0  0  0  0  0
  1  2  1  0  0  0  0
  1 21  1  0  0  0  0
  1 22  1  0  0  0  0
  1 23  1  0  0  0  0
  2 20  1  0  0  0  0
  2  3  2  0  0  0  0
  3  4  1  0  0  0  0
  3 24  1  0  0  0  0
  4  5  1  0  0  0  0
  4 19  2  0  0  0  0
  5  6  1  0  0  0  0
  6  7  2  0  0  0  0
  6  8  1  0  0  0  0
  8  9  1  0  0  0  0
  8 25  1  0  0  0  0
  9 10  1  0  0  0  0
  9 26  1  0  0  0  0
  9 27  1  0  0  0  0
 10 11  1  0  0  0  0
 10 12  1  0  0  0  0
 10 28  1  0  0  0  0
 11 29  1  0  0  0  0
 11 30  1  0  0  0  0
 11 31  1  0  0  0  0
 12 18  1  0  0  0  0
 12 13  1  0  0  0  0
 12 44  1  0  0  0  0
 13 14  1  0  0  0  0
 13 32  1  0  0  0  0
 13 33  1  0  0  0  0
 14 15  1  0  0  0  0
 14 34  1  0  0  0  0
 14 35  1  0  0  0  0
 15 16  1  0  0  0  0
 15 36  1  0  0  0  0
 15 37  1  0  0  0  0
 16 17  1  0  0  0  0
 16 18  1  0  0  0  0
 16 38  1  0  0  0  0
 17 39  1  0  0  0  0
 17 40  1  0  0  0  0
 17 41  1  0  0  0  0
 18 42  1  0  0  0  0
 18 43  1  0  0  0  0
 19 20  1  0  0  0  0
M  CHG  1   5  -1
M  CHG  1  12   1
M  END
> <s_m_source_file>
AV-unprocessed.smi

> <i_m_source_file_index>
2083

> <i_lp_mmshare_version>
43012

> <i_f3d_flags>
0

> <s_epik_input>
W0NIM11jMVtjSF1jKG5vMSlbTkhdQyg9TylbTkhdW0NIMl1bQ0BIXShbQ0gzXSlOMltDSDJdW0NIMl1bQ0gyXVtDQEBIXShbQ0gzXSlbQ0gyXTI=

> <s_epik_cmdline>
J2VwaWtfcHl0aG9uJywgJy1waCcsICc3LjAnLCAnLXRuJywgJzgnLCAnLW1hJywgJzIwMCcsICctbWV0YWxfYmluZGluZycsICctaW1hZScsICc8aW5maWxlLm1hZT4nLCAnLW9tYWUnLCAnPG91dGZpbGUubWFlPic=

> <r_epik_Ionization_Penalty>
6.22434

> <r_epik_Ionization_Penalty_Charging>
6.22425

> <r_epik_Ionization_Penalty_Neutral>
9.62407e-05

> <r_epik_State_Penalty>
6.22423

> <r_epik_Charging_Adjusted_Penalty>
12.4485

> <i_epik_Tot_Q>
0

> <i_epik_Tot_abs_Q>
2

> <r_epik_Metal_State_Penalty>
2.16764

> <b_epik_Metal_Only>
1

> <s_lp_Force_Field>
OPLS_2005

> <r_lp_Energy>
11.4066

> <b_lp_Chiralities_Consistent>
1

> <s_lp_Variant>
AV-unprocessed.smi:2083-15

> <Gold.Version>
5.8.1

> <Gold.Id.Protein>
6NUR|6NUR_protein|mol2

> <Gold.PLP.Fitness>
47.1389

> <Gold.PLP.PLP>
-32.0650

> <Gold.PLP.part.hbond>
-4.0000

> <Gold.PLP.part.metal>
0.0000

> <Gold.PLP.part.buried>
-4.0686

> <Gold.PLP.part.nonpolar>
-24.2050

> <Gold.PLP.part.repulsive>
0.0173

> <Gold.PLP.ligand.clash>
0.0000

> <Gold.PLP.ligand.torsion>
1.1081

> <Gold.PLP.Chemscore.Hbond>
5.7280

> <Gold.PLP.Chemscore.CHOScore>
0.0000

> <Gold.PLP.Chemscore.Metal>
0.0000

> <Gold.Chemscore.Hbonds>
donor molecule, donor type, donor heavy atom, donor atom, acceptor molecule, acceptor atom, score
      L1  H    12    44       P1  7948  2.00
      P1  H  6896  6907       L1     5  1.90
      P1  H  6931  6943       L1    20  0.65
      P1  H  6934  6947       L1    20  0.99

> <Gold.PLP.Chemscore.Internal.Correction>
0.1061

> <Gold.Rescore>
     Score         DG    S(hbond)    S(metal)    S(lipo)     H(rot)  DE(clash)    DE(int)     intcor
     14.86     -17.43       2.22        0.00      71.96       1.52       0.10       2.48       ----

> <Gold.Chemscore.Fitness>
14.8560

> <Gold.Chemscore.DG>
-17.4325

> <Gold.Chemscore.ZeroCoef>
-5.4800

> <Gold.Chemscore.Hbond>
2.2222

> <Gold.Chemscore.Metal>
0.0000

> <Gold.Chemscore.Lipo>
71.9573

> <Gold.Chemscore.Internal_Hbond>
0.0000

> <Gold.Chemscore.DEClash>
0.0995

> <Gold.Chemscore.DEInternal>
2.4770

> <Gold.Chemscore.Rot>
1.5190

> <Gold.Chemscore.Internal.Correction>
   9.000000E+99

> <Gold.Chemscore.Hbonds>
donor molecule, donor type, donor heavy atom, donor atom, acceptor molecule, acceptor atom, score
      L1  H    12    44       P1  7948  0.55
      P1  H  6896  6907       L1     5  0.21
      P1  H  6931  6943       L1    20  0.09
      P1  H  6934  6947       L1    20  0.74

> <Gold.Chemscore.Hbond.Weighted>
-7.4221

> <Gold.Chemscore.Metal.Weighted>
-0.0000

> <Gold.Chemscore.Lipo.Weighted>
-8.4190

> <Gold.Chemscore.Internal_Hbond.Weighted>
0.0000

> <Gold.Chemscore.DEClash.Weighted>
0.0995

> <Gold.Chemscore.DEInternal.Weighted>
2.4770

> <Gold.Chemscore.Rot.Weighted>
3.8886

> <Gold.Chemscore.Internal.Correction.Weighted>
   9.000000E+99

> <Gold.Protein.RotatedTorsions>
[ 6907 6896 6895 6894 ] final  -72.65 input  -60.11 | X-H torsion
[ 7974 7965 7964 7962 ] final -161.57 input  175.53 | X-H torsion
[ 8008 7997 7996 7995 ] final -172.01 input   59.86 | X-H torsion
[ 10167 10162 10161 10158 ] final  -12.35 input  -65.29 | X-H torsion
[ 10718 10713 10712 10709 ] final  -52.99 input   66.30 | X-H torsion
[ 10763 10752 10751 10750 ] final  131.03 input  -60.55 | X-H torsion
[ 11005 11000 10999 10996 ] final  -92.01 input  -57.11 | X-H torsion

> <Gold.Protein.ActiveResidues>
 VAL166  LYS551  ARG553  GLY616  TRP617  ASP618  TYR619  PRO620  LYS621  CYS622 
 ASP623  PHE694  ASN695  SER759  ASP760  ASP761  ALA762  ILE779  LEU786  VAL792 
 PHE793  MET794  SER795  GLU796  ALA797  LYS798  CYS799  TRP800  GLU811  SER814 

> <Gold.Protein.RotatedAtoms>
  150.7161  134.5131  159.5616 H   0  0  0  0  0  0  0  0  0  0  0  0  # atno 6907 bound_to 6896
  152.2703  134.7936  160.0424 H   0  0  0  0  0  0  0  0  0  0  0  0  # atno 6908 bound_to 6896
  151.8619  133.3423  159.3743 H   0  0  0  0  0  0  0  0  0  0  0  0  # atno 6909 bound_to 6896
  144.7386  140.3379  143.6140 H   0  0  0  0  0  0  0  0  0  0  0  0  # atno 7974 bound_to 7965
  155.9390  140.1105  157.1071 H   0  0  0  0  0  0  0  0  0  0  0  0  # atno 8008 bound_to 7997
  154.4085  140.1223  156.4968 H   0  0  0  0  0  0  0  0  0  0  0  0  # atno 8009 bound_to 7997
  155.6986  140.3472  155.4925 H   0  0  0  0  0  0  0  0  0  0  0  0  # atno 8010 bound_to 7997
  140.7159  143.5542  150.9267 H   0  0  0  0  0  0  0  0  0  0  0  0  # atno 10167 bound_to 10162
  156.1574  130.4150  149.9847 H   0  0  0  0  0  0  0  0  0  0  0  0  # atno 10718 bound_to 10713
  153.7677  135.3186  155.3347 H   0  0  0  0  0  0  0  0  0  0  0  0  # atno 10763 bound_to 10752
  154.8207  135.4605  154.0775 H   0  0  0  0  0  0  0  0  0  0  0  0  # atno 10764 bound_to 10752
  153.2025  135.6924  153.8298 H   0  0  0  0  0  0  0  0  0  0  0  0  # atno 10765 bound_to 10752
  141.1532  133.7793  156.9959 H   0  0  0  0  0  0  0  0  0  0  0  0  # atno 11005 bound_to 11000
  145.7405  139.1763  143.2379 LP  0  0  0  0  0  0  0  0  0  0  0  0  # atno 17320 bound_to 7965
  146.1138  140.7396  142.9490 LP  0  0  0  0  0  0  0  0  0  0  0  0  # atno 17321 bound_to 7965
  139.9266  143.6542  152.3085 LP  0  0  0  0  0  0  0  0  0  0  0  0  # atno 17342 bound_to 10162
  139.6978  144.7639  151.1326 LP  0  0  0  0  0  0  0  0  0  0  0  0  # atno 17343 bound_to 10162
  156.7687  130.9178  151.3643 LP  0  0  0  0  0  0  0  0  0  0  0  0  # atno 17370 bound_to 10713
  157.6706  130.9047  150.0031 LP  0  0  0  0  0  0  0  0  0  0  0  0  # atno 17371 bound_to 10713
  140.0972  134.9557  157.1867 LP  0  0  0  0  0  0  0  0  0  0  0  0  # atno 17394 bound_to 11000
  140.3367  134.2749  155.7219 LP  0  0  0  0  0  0  0  0  0  0  0  0  # atno 17395 bound_to 11000

$$$$
