AV-unprocessed.smi:2746|AV-procd|sdf|10571|dock4
  -GOLD-   2272015 23D 1   1.00000     0.00000
 Structure written by MMmdl.
 38 39  0  0  0  0  0  0  0  0  1 V2000
  153.4267  141.9070  160.8932 C   0  0  0  0  0  0  0  0  0  0  0  0
  152.6028  141.7465  159.8432 C   0  0  0  0  0  0  0  0  0  0  0  0
  152.3902  142.7221  158.6929 C   0  0  2  0  0  0  0  0  0  0  0  0
  151.9355  144.0929  159.2115 C   0  0  0  0  0  0  0  0  0  0  0  0
  151.4238  142.2259  157.7133 N   0  0  0  0  0  0  0  0  0  0  0  0
  151.5406  141.1101  156.9722 C   0  0  0  0  0  0  0  0  0  0  0  0
  152.5229  140.3680  157.0119 O   0  0  0  0  0  0  0  0  0  0  0  0
  150.3920  140.8222  156.0416 C   0  0  0  0  0  0  0  0  0  0  0  0
  149.1081  141.3446  156.3245 C   0  0  0  0  0  0  0  0  0  0  0  0
  148.0471  141.0850  155.4340 C   0  0  0  0  0  0  0  0  0  0  0  0
  146.7734  141.6009  155.7105 N   0  0  0  0  0  0  0  0  0  0  0  0
  145.7898  140.5710  156.0190 C   0  0  0  0  0  0  0  0  0  0  0  0
  144.4589  141.2227  156.4342 C   0  0  0  0  0  0  0  0  0  0  0  0
  144.0176  142.1058  155.4065 O   0  0  0  0  0  0  0  0  0  0  0  0
  144.9533  143.1527  155.1625 C   0  0  0  0  0  0  0  0  0  0  0  0
  146.2947  142.5486  154.7118 C   0  0  0  0  0  0  0  0  0  0  0  0
  148.3091  140.3059  154.2862 C   0  0  0  0  0  0  0  0  0  0  0  0
  149.6180  139.8297  154.0843 C   0  0  0  0  0  0  0  0  0  0  0  0
  150.6365  140.0799  154.9333 N   0  0  0  0  0  0  0  0  0  0  0  0
  154.0395  142.7879  161.0152 H   0  0  0  0  0  0  0  0  0  0  0  0
  153.4974  141.1453  161.6555 H   0  0  0  0  0  0  0  0  0  0  0  0
  152.0192  140.8390  159.7898 H   0  0  0  0  0  0  0  0  0  0  0  0
  153.3659  142.8532  158.2229 H   0  0  0  0  0  0  0  0  0  0  0  0
  152.6589  144.5066  159.9149 H   0  0  0  0  0  0  0  0  0  0  0  0
  150.9751  144.0250  159.7237 H   0  0  0  0  0  0  0  0  0  0  0  0
  151.8279  144.8068  158.3941 H   0  0  0  0  0  0  0  0  0  0  0  0
  150.5800  142.7685  157.5952 H   0  0  0  0  0  0  0  0  0  0  0  0
  148.9336  141.9386  157.2103 H   0  0  0  0  0  0  0  0  0  0  0  0
  145.6339  139.9364  155.1456 H   0  0  0  0  0  0  0  0  0  0  0  0
  146.1609  139.9320  156.8213 H   0  0  0  0  0  0  0  0  0  0  0  0
  143.6996  140.4576  156.5963 H   0  0  0  0  0  0  0  0  0  0  0  0
  144.5686  141.7676  157.3734 H   0  0  0  0  0  0  0  0  0  0  0  0
  144.5576  143.8109  154.3889 H   0  0  0  0  0  0  0  0  0  0  0  0
  145.0808  143.7575  156.0620 H   0  0  0  0  0  0  0  0  0  0  0  0
  147.0327  143.3386  154.5669 H   0  0  0  0  0  0  0  0  0  0  0  0
  146.1662  142.0451  153.7527 H   0  0  0  0  0  0  0  0  0  0  0  0
  147.5301  140.0753  153.5745 H   0  0  0  0  0  0  0  0  0  0  0  0
  149.8539  139.2320  153.2165 H   0  0  0  0  0  0  0  0  0  0  0  0
  1  2  2  0  0  0  0
  1 20  1  0  0  0  0
  1 21  1  0  0  0  0
  2  3  1  0  0  0  0
  2 22  1  0  0  0  0
  3  4  1  0  0  0  0
  3  5  1  0  0  0  0
  3 23  1  0  0  0  0
  4 24  1  0  0  0  0
  4 25  1  0  0  0  0
  4 26  1  0  0  0  0
  5  6  1  0  0  0  0
  5 27  1  0  0  0  0
  6  7  2  0  0  0  0
  6  8  1  0  0  0  0
  8 19  1  0  0  0  0
  8  9  2  0  0  0  0
  9 10  1  0  0  0  0
  9 28  1  0  0  0  0
 10 11  1  0  0  0  0
 10 17  2  0  0  0  0
 11 16  1  0  0  0  0
 11 12  1  0  0  0  0
 12 13  1  0  0  0  0
 12 29  1  0  0  0  0
 12 30  1  0  0  0  0
 13 14  1  0  0  0  0
 13 31  1  0  0  0  0
 13 32  1  0  0  0  0
 14 15  1  0  0  0  0
 15 16  1  0  0  0  0
 15 33  1  0  0  0  0
 15 34  1  0  0  0  0
 16 35  1  0  0  0  0
 16 36  1  0  0  0  0
 17 18  1  0  0  0  0
 17 37  1  0  0  0  0
 18 19  2  0  0  0  0
 18 38  1  0  0  0  0
M  END
> <s_m_source_file>
AV-unprocessed.smi

> <i_m_source_file_index>
2746

> <i_lp_mmshare_version>
43012

> <i_f3d_flags>
0

> <s_epik_input>
W0NIMl09W0NIXVtDQEhdKFtDSDNdKVtOSF1DKD1PKWMxW2NIXWMoW2NIXVtjSF1uMSlOMltDSDJdW0NIMl1PW0NIMl1bQ0gyXTI=

> <s_epik_cmdline>
J2VwaWtfcHl0aG9uJywgJy1waCcsICc3LjAnLCAnLXRuJywgJzgnLCAnLW1hJywgJzIwMCcsICctbWV0YWxfYmluZGluZycsICctaW1hZScsICc8aW5maWxlLm1hZT4nLCAnLW9tYWUnLCAnPG91dGZpbGUubWFlPic=

> <r_lp_tautomer_probability>
1

> <r_epik_Ionization_Penalty>
0.373275

> <r_epik_Ionization_Penalty_Charging>
0

> <r_epik_Ionization_Penalty_Neutral>
0.373275

> <r_epik_State_Penalty>
0.370855

> <r_epik_Charging_Adjusted_Penalty>
0.370855

> <i_epik_Tot_Q>
0

> <i_epik_Tot_abs_Q>
0

> <r_epik_Metal_State_Penalty>
0.225885

> <b_epik_Metal_Only>
0

> <s_lp_Force_Field>
OPLS_2005

> <r_lp_Energy>
24.2376

> <b_lp_Chiralities_Consistent>
1

> <s_lp_Variant>
AV-unprocessed.smi:2746-1

> <Gold.Version>
5.8.1

> <Gold.Id.Protein>
6NUR|6NUR_protein|mol2

> <Gold.PLP.Fitness>
40.1314

> <Gold.PLP.PLP>
-34.4270

> <Gold.PLP.part.hbond>
-2.0000

> <Gold.PLP.part.metal>
0.0000

> <Gold.PLP.part.buried>
-1.3715

> <Gold.PLP.part.nonpolar>
-31.0566

> <Gold.PLP.part.repulsive>
0.4108

> <Gold.PLP.ligand.clash>
0.0000

> <Gold.PLP.ligand.torsion>
0.3340

> <Gold.PLP.Chemscore.Hbond>
1.3920

> <Gold.PLP.Chemscore.CHOScore>
0.6910

> <Gold.PLP.Chemscore.Metal>
0.0000

> <Gold.Chemscore.Hbonds>
donor molecule, donor type, donor heavy atom, donor atom, acceptor molecule, acceptor atom, score
      P1  H  7989  7998       L1    19  0.50
      P1  H  7997  8010       L1     7  0.96
      L1  C    18    38       P1  7957  0.84

> <Gold.PLP.Chemscore.Internal.Correction>
0.1235

> <Gold.Rescore>
     Score         DG    S(hbond)    S(metal)    S(lipo)     H(rot)  DE(clash)    DE(int)     intcor
     15.46     -16.13       0.97        0.00      91.29       1.27       0.35       0.32       ----

> <Gold.Chemscore.Fitness>
15.4566

> <Gold.Chemscore.DG>
-16.1285

> <Gold.Chemscore.ZeroCoef>
-5.4800

> <Gold.Chemscore.Hbond>
0.9670

> <Gold.Chemscore.Metal>
0.0000

> <Gold.Chemscore.Lipo>
91.2885

> <Gold.Chemscore.Internal_Hbond>
0.0000

> <Gold.Chemscore.DEClash>
0.3549

> <Gold.Chemscore.DEInternal>
0.3170

> <Gold.Chemscore.Rot>
1.2742

> <Gold.Chemscore.Internal.Correction>
   9.000000E+99

> <Gold.Chemscore.Hbonds>
donor molecule, donor type, donor heavy atom, donor atom, acceptor molecule, acceptor atom, score
      P1  H  7989  7998       L1    19  0.02
      P1  H  7997  8010       L1     7  0.92

> <Gold.Chemscore.Hbond.Weighted>
-3.2297

> <Gold.Chemscore.Metal.Weighted>
-0.0000

> <Gold.Chemscore.Lipo.Weighted>
-10.6808

> <Gold.Chemscore.Internal_Hbond.Weighted>
0.0000

> <Gold.Chemscore.DEClash.Weighted>
0.3549

> <Gold.Chemscore.DEInternal.Weighted>
0.3170

> <Gold.Chemscore.Rot.Weighted>
3.2619

> <Gold.Chemscore.Internal.Correction.Weighted>
   9.000000E+99

> <Gold.Protein.RotatedTorsions>
[ 6907 6896 6895 6894 ] final  -40.74 input  -60.11 | X-H torsion
[ 7974 7965 7964 7962 ] final  -47.95 input  175.53 | X-H torsion
[ 8008 7997 7996 7995 ] final   63.51 input   59.86 | X-H torsion
[ 10167 10162 10161 10158 ] final -131.77 input  -65.29 | X-H torsion
[ 10718 10713 10712 10709 ] final  168.29 input   66.30 | X-H torsion
[ 10763 10752 10751 10750 ] final  153.26 input  -60.55 | X-H torsion
[ 11005 11000 10999 10996 ] final  124.14 input  -57.11 | X-H torsion

> <Gold.Protein.ActiveResidues>
 VAL166  LYS551  ARG553  GLY616  TRP617  ASP618  TYR619  PRO620  LYS621  CYS622 
 ASP623  PHE694  ASN695  SER759  ASP760  ASP761  ALA762  ILE779  LEU786  VAL792 
 PHE793  MET794  SER795  GLU796  ALA797  LYS798  CYS799  TRP800  GLU811  SER814 

> <Gold.Protein.RotatedAtoms>
  150.9749  134.9115  159.7809 H   0  0  0  0  0  0  0  0  0  0  0  0  # atno 6907 bound_to 6896
  152.5202  134.3490  159.9254 H   0  0  0  0  0  0  0  0  0  0  0  0  # atno 6908 bound_to 6896
  151.3498  133.3889  159.2713 H   0  0  0  0  0  0  0  0  0  0  0  0  # atno 6909 bound_to 6896
  145.9563  140.7524  142.9480 H   0  0  0  0  0  0  0  0  0  0  0  0  # atno 7974 bound_to 7965
  155.6314  140.3496  155.4684 H   0  0  0  0  0  0  0  0  0  0  0  0  # atno 8008 bound_to 7997
  156.0000  140.1211  157.0580 H   0  0  0  0  0  0  0  0  0  0  0  0  # atno 8009 bound_to 7997
  154.4246  140.1102  156.5670 H   0  0  0  0  0  0  0  0  0  0  0  0  # atno 8010 bound_to 7997
  139.9155  143.6444  152.2566 H   0  0  0  0  0  0  0  0  0  0  0  0  # atno 10167 bound_to 10162
  157.0392  131.0282  151.2719 H   0  0  0  0  0  0  0  0  0  0  0  0  # atno 10718 bound_to 10713
  154.1333  135.2825  155.3179 H   0  0  0  0  0  0  0  0  0  0  0  0  # atno 10763 bound_to 10752
  154.6340  135.5425  153.7716 H   0  0  0  0  0  0  0  0  0  0  0  0  # atno 10764 bound_to 10752
  153.0274  135.6469  154.1482 H   0  0  0  0  0  0  0  0  0  0  0  0  # atno 10765 bound_to 10752
  139.9345  134.9640  156.8365 H   0  0  0  0  0  0  0  0  0  0  0  0  # atno 11005 bound_to 11000
  144.6805  140.2516  143.7331 LP  0  0  0  0  0  0  0  0  0  0  0  0  # atno 17320 bound_to 7965
  145.8102  139.2000  143.1997 LP  0  0  0  0  0  0  0  0  0  0  0  0  # atno 17321 bound_to 7965
  139.6906  144.7647  151.1445 LP  0  0  0  0  0  0  0  0  0  0  0  0  # atno 17342 bound_to 10162
  140.7675  143.5595  150.9115 LP  0  0  0  0  0  0  0  0  0  0  0  0  # atno 17343 bound_to 10162
  157.5117  130.7943  149.7713 LP  0  0  0  0  0  0  0  0  0  0  0  0  # atno 17370 bound_to 10713
  156.0043  130.3863  150.2487 LP  0  0  0  0  0  0  0  0  0  0  0  0  # atno 17371 bound_to 10713
  140.6113  134.0080  155.7578 LP  0  0  0  0  0  0  0  0  0  0  0  0  # atno 17394 bound_to 11000
  141.0951  133.9855  157.3173 LP  0  0  0  0  0  0  0  0  0  0  0  0  # atno 17395 bound_to 11000

$$$$
