AV-unprocessed.smi:936|AV-procd|sdf|4208|dock9
  -GOLD-   22720 2113D 1   1.00000     0.00000
 Structure written by MMmdl.
 40 41  0  0  0  0  0  0  0  0  1 V2000
  148.6223  133.2862  153.6554 C   0  0  0  0  0  0  0  0  0  0  0  0
  149.9159  133.5497  154.4399 C   0  0  0  0  0  0  0  0  0  0  0  0
  150.1918  132.4939  155.5198 C   0  0  0  0  0  0  0  0  0  0  0  0
  149.9677  134.9406  154.9894 C   0  0  0  0  0  0  0  0  0  0  0  0
  150.8457  135.8649  154.5872 N   0  0  0  0  0  0  0  0  0  0  0  0
  150.6839  137.0874  155.2460 C   0  0  0  0  0  0  0  0  0  0  0  0
  151.5838  138.2397  154.9183 C   0  0  0  0  0  0  0  0  0  0  0  0
  152.5136  138.6022  156.0882 C   0  0  0  0  0  0  0  0  0  0  0  0
  151.9854  139.7168  156.8665 N   0  0  0  0  0  0  0  0  0  0  0  0
  152.4424  140.1076  158.0687 C   0  0  0  0  0  0  0  0  0  0  0  0
  153.3624  139.5209  158.6408 O   0  0  0  0  0  0  0  0  0  0  0  0
  151.7957  141.1741  158.6045 N   0  0  0  0  0  0  0  0  0  0  0  0
  150.7638  141.9838  157.9352 C   0  0  0  0  0  0  0  0  0  0  0  0
  151.4216  143.2303  157.3200 C   0  0  0  0  0  0  0  0  0  0  0  0
  152.1589  144.2812  158.6105 S   0  0  0  0  0  0  0  0  0  0  0  0
  153.1199  143.0262  159.5134 C   0  0  0  0  0  0  0  0  0  0  0  0
  152.2516  141.8022  159.8505 C   0  0  0  0  0  0  0  0  0  0  0  0
  149.6617  137.0771  156.1618 C   0  0  0  0  0  0  0  0  0  0  0  0
  148.8656  135.5292  156.2297 S   0  0  0  0  0  0  0  0  0  0  0  0
  148.4994  134.0081  152.8475 H   0  0  0  0  0  0  0  0  0  0  0  0
  147.7460  133.3562  154.3007 H   0  0  0  0  0  0  0  0  0  0  0  0
  148.6282  132.2908  153.2109 H   0  0  0  0  0  0  0  0  0  0  0  0
  150.7318  133.4734  153.7202 H   0  0  0  0  0  0  0  0  0  0  0  0
  151.1575  132.6649  155.9964 H   0  0  0  0  0  0  0  0  0  0  0  0
  150.2066  131.4904  155.0938 H   0  0  0  0  0  0  0  0  0  0  0  0
  149.4280  132.5138  156.2977 H   0  0  0  0  0  0  0  0  0  0  0  0
  152.1796  137.9996  154.0369 H   0  0  0  0  0  0  0  0  0  0  0  0
  150.9865  139.1107  154.6450 H   0  0  0  0  0  0  0  0  0  0  0  0
  152.6232  137.7465  156.7548 H   0  0  0  0  0  0  0  0  0  0  0  0
  153.5137  138.8408  155.7225 H   0  0  0  0  0  0  0  0  0  0  0  0
  151.2190  140.2339  156.4611 H   0  0  0  0  0  0  0  0  0  0  0  0
  150.2188  141.4345  157.1677 H   0  0  0  0  0  0  0  0  0  0  0  0
  150.0028  142.2842  158.6567 H   0  0  0  0  0  0  0  0  0  0  0  0
  152.1961  142.9420  156.6082 H   0  0  0  0  0  0  0  0  0  0  0  0
  150.6852  143.8176  156.7712 H   0  0  0  0  0  0  0  0  0  0  0  0
  153.9762  142.7297  158.9067 H   0  0  0  0  0  0  0  0  0  0  0  0
  153.5142  143.4756  160.4248 H   0  0  0  0  0  0  0  0  0  0  0  0
  151.3956  142.1022  160.4565 H   0  0  0  0  0  0  0  0  0  0  0  0
  152.8155  141.1064  160.4736 H   0  0  0  0  0  0  0  0  0  0  0  0
  149.3299  137.8842  156.7983 H   0  0  0  0  0  0  0  0  0  0  0  0
  1  2  1  0  0  0  0
  1 20  1  0  0  0  0
  1 21  1  0  0  0  0
  1 22  1  0  0  0  0
  2  3  1  0  0  0  0
  2  4  1  0  0  0  0
  2 23  1  0  0  0  0
  3 24  1  0  0  0  0
  3 25  1  0  0  0  0
  3 26  1  0  0  0  0
  4 19  1  0  0  0  0
  4  5  2  0  0  0  0
  5  6  1  0  0  0  0
  6  7  1  0  0  0  0
  6 18  2  0  0  0  0
  7  8  1  0  0  0  0
  7 27  1  0  0  0  0
  7 28  1  0  0  0  0
  8  9  1  0  0  0  0
  8 29  1  0  0  0  0
  8 30  1  0  0  0  0
  9 10  1  0  0  0  0
  9 31  1  0  0  0  0
 10 11  2  0  0  0  0
 10 12  1  0  0  0  0
 12 17  1  0  0  0  0
 12 13  1  0  0  0  0
 13 14  1  0  0  0  0
 13 32  1  0  0  0  0
 13 33  1  0  0  0  0
 14 15  1  0  0  0  0
 14 34  1  0  0  0  0
 14 35  1  0  0  0  0
 15 16  1  0  0  0  0
 16 17  1  0  0  0  0
 16 36  1  0  0  0  0
 16 37  1  0  0  0  0
 17 38  1  0  0  0  0
 17 39  1  0  0  0  0
 18 19  1  0  0  0  0
 18 40  1  0  0  0  0
M  END
> <s_m_source_file>
AV-unprocessed.smi

> <i_m_source_file_index>
936

> <i_lp_mmshare_version>
43012

> <i_f3d_flags>
0

> <s_epik_input>
W0NIM11bQ0hdKFtDSDNdKWMxbmMoW2NIXXMxKVtDSDJdW0NIMl1bTkhdQyg9TylOMltDSDJdW0NIMl1TW0NIMl1bQ0gyXTI=

> <s_epik_cmdline>
J2VwaWtfcHl0aG9uJywgJy1waCcsICc3LjAnLCAnLXRuJywgJzgnLCAnLW1hJywgJzIwMCcsICctbWV0YWxfYmluZGluZycsICctaW1hZScsICc8aW5maWxlLm1hZT4nLCAnLW9tYWUnLCAnPG91dGZpbGUubWFlPic=

> <r_epik_Ionization_Penalty>
0.00156596

> <r_epik_Ionization_Penalty_Charging>
0

> <r_epik_Ionization_Penalty_Neutral>
0.00156596

> <r_epik_State_Penalty>
0.00101864

> <r_epik_Charging_Adjusted_Penalty>
0.00101864

> <i_epik_Tot_Q>
0

> <i_epik_Tot_abs_Q>
0

> <r_epik_Metal_State_Penalty>
-0

> <b_epik_Metal_Only>
0

> <s_lp_Force_Field>
OPLS_2005

> <r_lp_Energy>
11.6004

> <b_lp_Chiralities_Consistent>
1

> <s_lp_Variant>
AV-unprocessed.smi:936-1

> <Gold.Version>
5.8.1

> <Gold.Id.Protein>
6NUR|6NUR_protein|mol2

> <Gold.PLP.Fitness>
42.0673

> <Gold.PLP.PLP>
-36.8429

> <Gold.PLP.part.hbond>
-2.0000

> <Gold.PLP.part.metal>
0.0000

> <Gold.PLP.part.buried>
-4.3393

> <Gold.PLP.part.nonpolar>
-30.9556

> <Gold.PLP.part.repulsive>
0.2976

> <Gold.PLP.ligand.clash>
0.0000

> <Gold.PLP.ligand.torsion>
0.4441

> <Gold.PLP.Chemscore.Hbond>
2.0000

> <Gold.PLP.Chemscore.CHOScore>
0.0000

> <Gold.PLP.Chemscore.Metal>
0.0000

> <Gold.Chemscore.Hbonds>
donor molecule, donor type, donor heavy atom, donor atom, acceptor molecule, acceptor atom, score
      P1  H  7997  8010       L1    11  0.64
      P1  H 10752 10764       L1     5  0.80

> <Gold.PLP.Chemscore.Internal.Correction>
0.1126

> <Gold.Rescore>
     Score         DG    S(hbond)    S(metal)    S(lipo)     H(rot)  DE(clash)    DE(int)     intcor
     17.86     -18.49       1.70        0.00      93.49       1.41       0.18       0.45       ----

> <Gold.Chemscore.Fitness>
17.8575

> <Gold.Chemscore.DG>
-18.4877

> <Gold.Chemscore.ZeroCoef>
-5.4800

> <Gold.Chemscore.Hbond>
1.6977

> <Gold.Chemscore.Metal>
0.0000

> <Gold.Chemscore.Lipo>
93.4941

> <Gold.Chemscore.Internal_Hbond>
0.0000

> <Gold.Chemscore.DEClash>
0.1844

> <Gold.Chemscore.DEInternal>
0.4458

> <Gold.Chemscore.Rot>
1.4068

> <Gold.Chemscore.Internal.Correction>
   9.000000E+99

> <Gold.Chemscore.Hbonds>
donor molecule, donor type, donor heavy atom, donor atom, acceptor molecule, acceptor atom, score
      P1  H  7997  8010       L1    11  0.09
      P1  H 10752 10764       L1     5  0.30

> <Gold.Chemscore.Hbond.Weighted>
-5.6703

> <Gold.Chemscore.Metal.Weighted>
-0.0000

> <Gold.Chemscore.Lipo.Weighted>
-10.9388

> <Gold.Chemscore.Internal_Hbond.Weighted>
0.0000

> <Gold.Chemscore.DEClash.Weighted>
0.1844

> <Gold.Chemscore.DEInternal.Weighted>
0.4458

> <Gold.Chemscore.Rot.Weighted>
3.6014

> <Gold.Chemscore.Internal.Correction.Weighted>
   9.000000E+99

> <Gold.Protein.RotatedTorsions>
[ 6907 6896 6895 6894 ] final  -55.39 input  -60.11 | X-H torsion
[ 7974 7965 7964 7962 ] final   18.53 input  175.53 | X-H torsion
[ 8008 7997 7996 7995 ] final   13.74 input   59.86 | X-H torsion
[ 10167 10162 10161 10158 ] final -153.81 input  -65.29 | X-H torsion
[ 10718 10713 10712 10709 ] final  -75.02 input   66.30 | X-H torsion
[ 10763 10752 10751 10750 ] final  -55.11 input  -60.55 | X-H torsion
[ 11005 11000 10999 10996 ] final  -33.88 input  -57.11 | X-H torsion

> <Gold.Protein.ActiveResidues>
 VAL166  LYS551  ARG553  GLY616  TRP617  ASP618  TYR619  PRO620  LYS621  CYS622 
 ASP623  PHE694  ASN695  SER759  ASP760  ASP761  ALA762  ILE779  LEU786  VAL792 
 PHE793  MET794  SER795  GLU796  ALA797  LYS798  CYS799  TRP800  GLU811  SER814 

> <Gold.Protein.RotatedAtoms>
  150.8255  134.7484  159.6809 H   0  0  0  0  0  0  0  0  0  0  0  0  # atno 6907 bound_to 6896
  152.4367  134.5670  159.9920 H   0  0  0  0  0  0  0  0  0  0  0  0  # atno 6908 bound_to 6896
  151.5843  133.3336  159.3050 H   0  0  0  0  0  0  0  0  0  0  0  0  # atno 6909 bound_to 6896
  146.2181  139.8443  142.8635 H   0  0  0  0  0  0  0  0  0  0  0  0  # atno 7974 bound_to 7965
  154.8387  140.2911  155.5673 H   0  0  0  0  0  0  0  0  0  0  0  0  # atno 8008 bound_to 7997
  156.3010  140.2518  156.3257 H   0  0  0  0  0  0  0  0  0  0  0  0  # atno 8009 bound_to 7997
  154.9149  140.0387  157.1956 H   0  0  0  0  0  0  0  0  0  0  0  0  # atno 8010 bound_to 7997
  139.7066  143.9177  152.2451 H   0  0  0  0  0  0  0  0  0  0  0  0  # atno 10167 bound_to 10162
  156.0222  130.4430  150.2979 H   0  0  0  0  0  0  0  0  0  0  0  0  # atno 10718 bound_to 10713
  154.1856  135.6436  153.5046 H   0  0  0  0  0  0  0  0  0  0  0  0  # atno 10763 bound_to 10752
  153.0048  135.5416  154.6468 H   0  0  0  0  0  0  0  0  0  0  0  0  # atno 10764 bound_to 10752
  154.5844  135.2928  155.0672 H   0  0  0  0  0  0  0  0  0  0  0  0  # atno 10765 bound_to 10752
  140.9671  133.7131  156.1463 H   0  0  0  0  0  0  0  0  0  0  0  0  # atno 11005 bound_to 11000
  145.2866  141.0155  143.3687 LP  0  0  0  0  0  0  0  0  0  0  0  0  # atno 17320 bound_to 7965
  144.9109  139.4530  143.6587 LP  0  0  0  0  0  0  0  0  0  0  0  0  # atno 17321 bound_to 7965
  139.9034  144.6898  150.8640 LP  0  0  0  0  0  0  0  0  0  0  0  0  # atno 17342 bound_to 10162
  140.7723  143.3497  151.2040 LP  0  0  0  0  0  0  0  0  0  0  0  0  # atno 17343 bound_to 10162
  157.1082  131.0214  151.3058 LP  0  0  0  0  0  0  0  0  0  0  0  0  # atno 17370 bound_to 10713
  157.4725  130.7717  149.7337 LP  0  0  0  0  0  0  0  0  0  0  0  0  # atno 17371 bound_to 10713
  140.7383  134.4178  157.5558 LP  0  0  0  0  0  0  0  0  0  0  0  0  # atno 17394 bound_to 11000
  139.8898  134.8820  156.2400 LP  0  0  0  0  0  0  0  0  0  0  0  0  # atno 17395 bound_to 11000

$$$$
