AV-unprocessed.smi:2978|AV-procd|sdf|11368|dock7
  -GOLD-   2272016283D 1   1.00000     0.00000
 Structure written by MMmdl.
 32 33  0  0  0  0  0  0  0  0  1 V2000
  150.8919  140.8014  155.3178 O   0  0  0  0  0  0  0  0  0  0  0  0
  151.5577  139.8761  155.7848 C   0  0  0  0  0  0  0  0  0  0  0  0
  151.7263  138.5609  155.0100 C   0  0  0  0  0  0  0  0  0  0  0  0
  150.5307  137.7056  155.0465 N   0  0  0  0  0  0  0  0  0  0  0  0
  149.3574  138.3616  154.7167 N   0  0  0  0  0  0  0  0  0  0  0  0
  148.2484  137.7061  154.6977 C   0  0  0  0  0  0  0  0  0  0  0  0
  148.1807  136.2968  155.0152 C   0  0  0  0  0  0  0  0  0  0  0  0
  146.6633  135.4704  154.9716 Cl  0  0  0  0  0  0  0  0  0  0  0  0
  149.3353  135.6650  155.3446 C   0  0  0  0  0  0  0  0  0  0  0  0
  149.3336  133.9805  155.7403 Cl  0  0  0  0  0  0  0  0  0  0  0  0
  150.6186  136.3803  155.3773 C   0  0  0  0  0  0  0  0  0  0  0  0
  151.6872  135.8440  155.6738 O   0  0  0  0  0  0  0  0  0  0  0  0
  152.1536  139.9307  156.9856 N   0  0  0  0  0  0  0  0  0  0  0  0
  152.1205  141.0694  157.8977 C   0  0  0  0  0  0  0  0  0  0  0  0
  152.7238  140.7211  159.2689 C   0  0  2  0  0  0  0  0  0  0  0  0
  152.9039  141.9058  160.2196 C   0  0  0  0  0  0  0  0  0  0  0  0
  154.0162  141.4118  161.1150 C   0  0  0  0  0  0  0  0  0  0  0  0
  154.9023  140.6635  160.1238 C   0  0  0  0  0  0  0  0  0  0  0  0
  154.0310  140.1769  159.1056 O   0  0  0  0  0  0  0  0  0  0  0  0
  151.9976  138.7769  153.9748 H   0  0  0  0  0  0  0  0  0  0  0  0
  152.5823  138.0309  155.4312 H   0  0  0  0  0  0  0  0  0  0  0  0
  147.3006  138.1799  154.4417 H   0  0  0  0  0  0  0  0  0  0  0  0
  152.6739  139.1211  157.2914 H   0  0  0  0  0  0  0  0  0  0  0  0
  152.6993  141.8732  157.4419 H   0  0  0  0  0  0  0  0  0  0  0  0
  151.1058  141.4546  158.0121 H   0  0  0  0  0  0  0  0  0  0  0  0
  152.1157  139.9587  159.7591 H   0  0  0  0  0  0  0  0  0  0  0  0
  153.2328  142.7918  159.6744 H   0  0  0  0  0  0  0  0  0  0  0  0
  151.9944  142.1575  160.7657 H   0  0  0  0  0  0  0  0  0  0  0  0
  154.5403  142.2151  161.6336 H   0  0  0  0  0  0  0  0  0  0  0  0
  153.6183  140.7226  161.8612 H   0  0  0  0  0  0  0  0  0  0  0  0
  155.6205  141.3448  159.6661 H   0  0  0  0  0  0  0  0  0  0  0  0
  155.4580  139.8520  160.5941 H   0  0  0  0  0  0  0  0  0  0  0  0
  1  2  2  0  0  0  0
  2  3  1  0  0  0  0
  2 13  1  0  0  0  0
  3  4  1  0  0  0  0
  3 20  1  0  0  0  0
  3 21  1  0  0  0  0
  4 11  1  0  0  0  0
  4  5  1  0  0  0  0
  5  6  2  0  0  0  0
  6  7  1  0  0  0  0
  6 22  1  0  0  0  0
  7  8  1  0  0  0  0
  7  9  2  0  0  0  0
  9 10  1  0  0  0  0
  9 11  1  0  0  0  0
 11 12  2  0  0  0  0
 13 14  1  0  0  0  0
 13 23  1  0  0  0  0
 14 15  1  0  0  0  0
 14 24  1  0  0  0  0
 14 25  1  0  0  0  0
 15 19  1  0  0  0  0
 15 16  1  0  0  0  0
 15 26  1  0  0  0  0
 16 17  1  0  0  0  0
 16 27  1  0  0  0  0
 16 28  1  0  0  0  0
 17 18  1  0  0  0  0
 17 29  1  0  0  0  0
 17 30  1  0  0  0  0
 18 19  1  0  0  0  0
 18 31  1  0  0  0  0
 18 32  1  0  0  0  0
M  END
> <s_m_source_file>
AV-unprocessed.smi

> <i_m_source_file_index>
2978

> <i_lp_mmshare_version>
43012

> <i_f3d_flags>
0

> <s_epik_input>
TzFbQ0gyXVtDSDJdW0NIMl1bQ0BIXTFbQ0gyXVtOSF1DKD1PKVtDSDJdbjJuW2NIXWMoQ2wpYyhDbCljMj1P

> <s_epik_cmdline>
J2VwaWtfcHl0aG9uJywgJy1waCcsICc3LjAnLCAnLXRuJywgJzgnLCAnLW1hJywgJzIwMCcsICctbWV0YWxfYmluZGluZycsICctaW1hZScsICc8aW5maWxlLm1hZT4nLCAnLW9tYWUnLCAnPG91dGZpbGUubWFlPic=

> <r_lp_tautomer_probability>
1

> <r_epik_Ionization_Penalty>
2.68881e-08

> <r_epik_Ionization_Penalty_Charging>
2.90862e-11

> <r_epik_Ionization_Penalty_Neutral>
2.6859e-08

> <r_epik_State_Penalty>
-0

> <r_epik_Charging_Adjusted_Penalty>
2.90862e-11

> <i_epik_Tot_Q>
0

> <i_epik_Tot_abs_Q>
0

> <r_epik_Metal_State_Penalty>
-0

> <b_epik_Metal_Only>
0

> <s_lp_Force_Field>
OPLS_2005

> <r_lp_Energy>
31.3125

> <b_lp_Chiralities_Consistent>
1

> <s_lp_Variant>
AV-unprocessed.smi:2978-1

> <Gold.Version>
5.8.1

> <Gold.Id.Protein>
6NUR|6NUR_protein|mol2

> <Gold.PLP.Fitness>
36.8706

> <Gold.PLP.PLP>
-29.4001

> <Gold.PLP.part.hbond>
-3.0000

> <Gold.PLP.part.metal>
0.0000

> <Gold.PLP.part.buried>
-2.3597

> <Gold.PLP.part.nonpolar>
-23.7703

> <Gold.PLP.part.repulsive>
0.4006

> <Gold.PLP.ligand.clash>
0.0000

> <Gold.PLP.ligand.torsion>
0.3724

> <Gold.PLP.Chemscore.Hbond>
2.7359

> <Gold.PLP.Chemscore.CHOScore>
0.0000

> <Gold.PLP.Chemscore.Metal>
0.0000

> <Gold.Chemscore.Hbonds>
donor molecule, donor type, donor heavy atom, donor atom, acceptor molecule, acceptor atom, score
      P1  H  7989  7998       L1     1  0.82
      P1  H  7997  8008       L1    19  0.92
      P1  H 10752 10765       L1    12  1.00

> <Gold.PLP.Chemscore.Internal.Correction>
0.0076

> <Gold.Rescore>
     Score         DG    S(hbond)    S(metal)    S(lipo)     H(rot)  DE(clash)    DE(int)     intcor
     14.76     -16.26       2.45        0.00      62.22       1.83       0.01       1.48       ----

> <Gold.Chemscore.Fitness>
14.7645

> <Gold.Chemscore.DG>
-16.2611

> <Gold.Chemscore.ZeroCoef>
-5.4800

> <Gold.Chemscore.Hbond>
2.4524

> <Gold.Chemscore.Metal>
0.0000

> <Gold.Chemscore.Lipo>
62.2230

> <Gold.Chemscore.Internal_Hbond>
0.0000

> <Gold.Chemscore.DEClash>
0.0126

> <Gold.Chemscore.DEInternal>
1.4840

> <Gold.Chemscore.Rot>
1.8320

> <Gold.Chemscore.Internal.Correction>
   9.000000E+99

> <Gold.Chemscore.Hbonds>
donor molecule, donor type, donor heavy atom, donor atom, acceptor molecule, acceptor atom, score
      P1  H  7989  7998       L1     1  0.21
      P1  H  7997  8008       L1    19  0.73
      P1  H 10752 10765       L1    12  0.95

> <Gold.Chemscore.Hbond.Weighted>
-8.1909

> <Gold.Chemscore.Metal.Weighted>
-0.0000

> <Gold.Chemscore.Lipo.Weighted>
-7.2801

> <Gold.Chemscore.Internal_Hbond.Weighted>
0.0000

> <Gold.Chemscore.DEClash.Weighted>
0.0126

> <Gold.Chemscore.DEInternal.Weighted>
1.4840

> <Gold.Chemscore.Rot.Weighted>
4.6900

> <Gold.Chemscore.Internal.Correction.Weighted>
   9.000000E+99

> <Gold.Protein.RotatedTorsions>
[ 6907 6896 6895 6894 ] final  101.38 input  -60.11 | X-H torsion
[ 7974 7965 7964 7962 ] final   54.83 input  175.53 | X-H torsion
[ 8008 7997 7996 7995 ] final -105.19 input   59.86 | X-H torsion
[ 10167 10162 10161 10158 ] final  -17.84 input  -65.29 | X-H torsion
[ 10718 10713 10712 10709 ] final -114.06 input   66.30 | X-H torsion
[ 10763 10752 10751 10750 ] final  178.97 input  -60.55 | X-H torsion
[ 11005 11000 10999 10996 ] final  170.86 input  -57.11 | X-H torsion

> <Gold.Protein.ActiveResidues>
 VAL166  LYS551  ARG553  GLY616  TRP617  ASP618  TYR619  PRO620  LYS621  CYS622 
 ASP623  PHE694  ASN695  SER759  ASP760  ASP761  ALA762  ILE779  LEU786  VAL792 
 PHE793  MET794  SER795  GLU796  ALA797  LYS798  CYS799  TRP800  GLU811  SER814 

> <Gold.Protein.RotatedAtoms>
  152.5350  134.0135  159.7948 H   0  0  0  0  0  0  0  0  0  0  0  0  # atno 6907 bound_to 6896
  151.0333  133.5763  159.2665 H   0  0  0  0  0  0  0  0  0  0  0  0  # atno 6908 bound_to 6896
  151.2760  135.0706  159.9205 H   0  0  0  0  0  0  0  0  0  0  0  0  # atno 6909 bound_to 6896
  145.9568  139.4022  143.0272 H   0  0  0  0  0  0  0  0  0  0  0  0  # atno 7974 bound_to 7965
  154.8962  140.0414  157.1867 H   0  0  0  0  0  0  0  0  0  0  0  0  # atno 8008 bound_to 7997
  154.8490  140.2926  155.5589 H   0  0  0  0  0  0  0  0  0  0  0  0  # atno 8009 bound_to 7997
  156.2995  140.2468  156.3445 H   0  0  0  0  0  0  0  0  0  0  0  0  # atno 8010 bound_to 7997
  140.7252  143.4975  150.9912 H   0  0  0  0  0  0  0  0  0  0  0  0  # atno 10167 bound_to 10162
  156.0806  130.6006  150.8725 H   0  0  0  0  0  0  0  0  0  0  0  0  # atno 10718 bound_to 10713
  154.5146  135.2790  155.1314 H   0  0  0  0  0  0  0  0  0  0  0  0  # atno 10763 bound_to 10752
  154.2895  135.6269  153.5383 H   0  0  0  0  0  0  0  0  0  0  0  0  # atno 10764 bound_to 10752
  152.9925  135.5670  154.5620 H   0  0  0  0  0  0  0  0  0  0  0  0  # atno 10765 bound_to 10752
  140.3129  134.7502  157.4005 H   0  0  0  0  0  0  0  0  0  0  0  0  # atno 11005 bound_to 11000
  145.8095  140.9732  143.0956 LP  0  0  0  0  0  0  0  0  0  0  0  0  # atno 17320 bound_to 7965
  144.6806  139.9903  143.7484 LP  0  0  0  0  0  0  0  0  0  0  0  0  # atno 17321 bound_to 7965
  139.8683  143.7226  152.3168 LP  0  0  0  0  0  0  0  0  0  0  0  0  # atno 17342 bound_to 10162
  139.7465  144.7546  151.0571 LP  0  0  0  0  0  0  0  0  0  0  0  0  # atno 17343 bound_to 10162
  157.5921  131.0944  150.9102 LP  0  0  0  0  0  0  0  0  0  0  0  0  # atno 17370 bound_to 10713
  156.9276  130.5338  149.5279 LP  0  0  0  0  0  0  0  0  0  0  0  0  # atno 17371 bound_to 10713
  140.1009  134.5474  155.8354 LP  0  0  0  0  0  0  0  0  0  0  0  0  # atno 17394 bound_to 11000
  141.2104  133.6694  156.6508 LP  0  0  0  0  0  0  0  0  0  0  0  0  # atno 17395 bound_to 11000

$$$$
