AV-unprocessed.smi:1985|AV-procd|sdf|8042|dock6
  -GOLD-   2272010233D 1   1.00000     0.00000
 Structure written by MMmdl.
 50 51  0  0  0  0  0  0  0  0  1 V2000
  151.5566  139.1858  155.1260 C   0  0  0  0  0  0  0  0  0  0  0  0
  151.9480  140.2185  156.1966 C   0  0  0  0  0  0  0  0  0  0  0  0
  150.9305  140.3780  157.3751 C   0  0  1  0  0  0  0  0  0  0  0  0
  149.5542  140.6884  156.7291 C   0  0  0  0  0  0  0  0  0  0  0  0
  150.8041  139.0073  158.1173 C   0  0  0  0  0  0  0  0  0  0  0  0
  149.9659  138.0533  157.4037 N   0  0  0  0  0  0  0  0  0  0  0  0
  150.0118  136.7167  157.5037 C   0  0  0  0  0  0  0  0  0  0  0  0
  150.8119  136.1264  158.2278 O   0  0  0  0  0  0  0  0  0  0  0  0
  149.0083  135.9072  156.6626 C   0  0  0  0  0  0  0  0  0  0  0  0
  149.5167  134.6031  156.2049 N   0  0  0  0  0  0  0  0  0  0  0  0
  149.6670  134.3700  154.8496 C   0  0  0  0  0  0  0  0  0  0  0  0
  150.0660  133.1859  154.3369 C   0  0  0  0  0  0  0  0  0  0  0  0
  150.3675  132.0586  155.2095 C   0  0  0  0  0  0  0  0  0  0  0  0
  150.7168  130.9533  154.7932 O   0  0  0  0  0  0  0  0  0  0  0  0
  150.2202  132.3255  156.5897 N   0  0  0  0  0  0  0  0  0  0  0  0
  150.4950  131.2259  157.4911 C   0  0  0  0  0  0  0  0  0  0  0  0
  149.8009  133.5667  157.1225 C   0  0  0  0  0  0  0  0  0  0  0  0
  149.6607  133.7535  158.3331 O   0  0  0  0  0  0  0  0  0  0  0  0
  151.3642  141.4467  158.3241 N   0  0  0  0  0  0  0  0  0  0  0  0
  152.6998  141.2630  158.9092 C   0  0  0  0  0  0  0  0  0  0  0  0
  153.0257  142.3314  159.9662 C   0  0  0  0  0  0  0  0  0  0  0  0
  152.9126  143.6257  159.3898 O   0  0  0  0  0  0  0  0  0  0  0  0
  151.6115  143.8715  158.8723 C   0  0  0  0  0  0  0  0  0  0  0  0
  151.2681  142.8179  157.8053 C   0  0  0  0  0  0  0  0  0  0  0  0
  152.3400  139.1010  154.3730 H   0  0  0  0  0  0  0  0  0  0  0  0
  150.6402  139.4682  154.6083 H   0  0  0  0  0  0  0  0  0  0  0  0
  151.4085  138.1960  155.5573 H   0  0  0  0  0  0  0  0  0  0  0  0
  152.9385  139.9723  156.5768 H   0  0  0  0  0  0  0  0  0  0  0  0
  152.1111  141.1743  155.6975 H   0  0  0  0  0  0  0  0  0  0  0  0
  149.2593  139.9131  156.0211 H   0  0  0  0  0  0  0  0  0  0  0  0
  149.5628  141.6237  156.1707 H   0  0  0  0  0  0  0  0  0  0  0  0
  148.7578  140.7524  157.4700 H   0  0  0  0  0  0  0  0  0  0  0  0
  151.7866  138.5589  158.2706 H   0  0  0  0  0  0  0  0  0  0  0  0
  150.3653  139.1453  159.1060 H   0  0  0  0  0  0  0  0  0  0  0  0
  149.2753  138.4474  156.7816 H   0  0  0  0  0  0  0  0  0  0  0  0
  148.1082  135.7589  157.2609 H   0  0  0  0  0  0  0  0  0  0  0  0
  148.6942  136.5126  155.8107 H   0  0  0  0  0  0  0  0  0  0  0  0
  149.4452  135.1730  154.1612 H   0  0  0  0  0  0  0  0  0  0  0  0
  150.1571  133.0689  153.2669 H   0  0  0  0  0  0  0  0  0  0  0  0
  150.4743  131.5503  158.5310 H   0  0  0  0  0  0  0  0  0  0  0  0
  151.4913  130.8475  157.2548 H   0  0  0  0  0  0  0  0  0  0  0  0
  149.7289  130.4690  157.3139 H   0  0  0  0  0  0  0  0  0  0  0  0
  152.7857  140.2946  159.3970 H   0  0  0  0  0  0  0  0  0  0  0  0
  153.4625  141.2970  158.1312 H   0  0  0  0  0  0  0  0  0  0  0  0
  152.3548  142.2448  160.8223 H   0  0  0  0  0  0  0  0  0  0  0  0
  154.0404  142.1958  160.3402 H   0  0  0  0  0  0  0  0  0  0  0  0
  150.8801  143.8530  159.6818 H   0  0  0  0  0  0  0  0  0  0  0  0
  151.5840  144.8714  158.4392 H   0  0  0  0  0  0  0  0  0  0  0  0
  151.9374  142.9480  156.9549 H   0  0  0  0  0  0  0  0  0  0  0  0
  150.2616  143.0350  157.4540 H   0  0  0  0  0  0  0  0  0  0  0  0
  1  2  1  0  0  0  0
  1 25  1  0  0  0  0
  1 26  1  0  0  0  0
  1 27  1  0  0  0  0
  2  3  1  0  0  0  0
  2 28  1  0  0  0  0
  2 29  1  0  0  0  0
  3  4  1  0  0  0  0
  3  5  1  0  0  0  0
  3 19  1  0  0  0  0
  4 30  1  0  0  0  0
  4 31  1  0  0  0  0
  4 32  1  0  0  0  0
  5  6  1  0  0  0  0
  5 33  1  0  0  0  0
  5 34  1  0  0  0  0
  6  7  1  0  0  0  0
  6 35  1  0  0  0  0
  7  8  2  0  0  0  0
  7  9  1  0  0  0  0
  9 10  1  0  0  0  0
  9 36  1  0  0  0  0
  9 37  1  0  0  0  0
 10 17  1  0  0  0  0
 10 11  1  0  0  0  0
 11 12  2  0  0  0  0
 11 38  1  0  0  0  0
 12 13  1  0  0  0  0
 12 39  1  0  0  0  0
 13 14  2  0  0  0  0
 13 15  1  0  0  0  0
 15 16  1  0  0  0  0
 15 17  1  0  0  0  0
 16 40  1  0  0  0  0
 16 41  1  0  0  0  0
 16 42  1  0  0  0  0
 17 18  2  0  0  0  0
 19 24  1  0  0  0  0
 19 20  1  0  0  0  0
 20 21  1  0  0  0  0
 20 43  1  0  0  0  0
 20 44  1  0  0  0  0
 21 22  1  0  0  0  0
 21 45  1  0  0  0  0
 21 46  1  0  0  0  0
 22 23  1  0  0  0  0
 23 24  1  0  0  0  0
 23 47  1  0  0  0  0
 23 48  1  0  0  0  0
 24 49  1  0  0  0  0
 24 50  1  0  0  0  0
M  END
> <s_m_source_file>
AV-unprocessed.smi

> <i_m_source_file_index>
1985

> <i_lp_mmshare_version>
43012

> <i_f3d_flags>
0

> <s_epik_input>
W0NIMl0xW0NIMl1PW0NIMl1bQ0gyXU4xW0NAQF0oW0NIM10pKFtDSDJdW0NIM10pW0NIMl1bTkhdQyg9TylbQ0gyXW4yW2NIXVtjSF1jKD1PKW4oW0NIM10pYzI9Tw==

> <s_epik_cmdline>
J2VwaWtfcHl0aG9uJywgJy1waCcsICc3LjAnLCAnLXRuJywgJzgnLCAnLW1hJywgJzIwMCcsICctbWV0YWxfYmluZGluZycsICctaW1hZScsICc8aW5maWxlLm1hZT4nLCAnLW9tYWUnLCAnPG91dGZpbGUubWFlPic=

> <r_lp_tautomer_probability>
1

> <r_epik_Ionization_Penalty>
0.318667

> <r_epik_Ionization_Penalty_Charging>
1.17294e-08

> <r_epik_Ionization_Penalty_Neutral>
0.318667

> <r_epik_State_Penalty>
0.313095

> <r_epik_Charging_Adjusted_Penalty>
0.313095

> <i_epik_Tot_Q>
0

> <i_epik_Tot_abs_Q>
0

> <r_epik_Metal_State_Penalty>
0.313065

> <b_epik_Metal_Only>
0

> <s_lp_Force_Field>
OPLS_2005

> <r_lp_Energy>
50.9195

> <b_lp_Chiralities_Consistent>
1

> <s_lp_Variant>
AV-unprocessed.smi:1985-1

> <Gold.Version>
5.8.1

> <Gold.Id.Protein>
6NUR|6NUR_protein|mol2

> <Gold.PLP.Fitness>
40.4877

> <Gold.PLP.PLP>
-35.2629

> <Gold.PLP.part.hbond>
-2.0000

> <Gold.PLP.part.metal>
0.0000

> <Gold.PLP.part.buried>
-5.4542

> <Gold.PLP.part.nonpolar>
-27.6692

> <Gold.PLP.part.repulsive>
0.0545

> <Gold.PLP.ligand.clash>
0.0000

> <Gold.PLP.ligand.torsion>
0.9623

> <Gold.PLP.Chemscore.Hbond>
1.3211

> <Gold.PLP.Chemscore.CHOScore>
1.0000

> <Gold.PLP.Chemscore.Metal>
0.0000

> <Gold.Chemscore.Hbonds>
donor molecule, donor type, donor heavy atom, donor atom, acceptor molecule, acceptor atom, score
      P1  H  6896  6907       L1    18  0.94
      P1  H  6896  6908       L1     8  0.46
      L1  C    11    38       P1  7948  0.97

> <Gold.PLP.Chemscore.Internal.Correction>
0.1859

> <Gold.Rescore>
     Score         DG    S(hbond)    S(metal)    S(lipo)     H(rot)  DE(clash)    DE(int)     intcor
      9.90     -13.74       1.19        0.00      84.66       2.20       0.02       3.82       ----

> <Gold.Chemscore.Fitness>
9.8986

> <Gold.Chemscore.DG>
-13.7392

> <Gold.Chemscore.ZeroCoef>
-5.4800

> <Gold.Chemscore.Hbond>
1.1897

> <Gold.Chemscore.Metal>
0.0000

> <Gold.Chemscore.Lipo>
84.6617

> <Gold.Chemscore.Internal_Hbond>
0.0000

> <Gold.Chemscore.DEClash>
0.0249

> <Gold.Chemscore.DEInternal>
3.8157

> <Gold.Chemscore.Rot>
2.1952

> <Gold.Chemscore.Internal.Correction>
   9.000000E+99

> <Gold.Chemscore.Hbonds>
donor molecule, donor type, donor heavy atom, donor atom, acceptor molecule, acceptor atom, score
      P1  H  6896  6907       L1    18  0.81
      P1  H  6896  6908       L1     8  0.43

> <Gold.Chemscore.Hbond.Weighted>
-3.9735

> <Gold.Chemscore.Metal.Weighted>
-0.0000

> <Gold.Chemscore.Lipo.Weighted>
-9.9054

> <Gold.Chemscore.Internal_Hbond.Weighted>
0.0000

> <Gold.Chemscore.DEClash.Weighted>
0.0249

> <Gold.Chemscore.DEInternal.Weighted>
3.8157

> <Gold.Chemscore.Rot.Weighted>
5.6197

> <Gold.Chemscore.Internal.Correction.Weighted>
   9.000000E+99

> <Gold.Protein.RotatedTorsions>
[ 6907 6896 6895 6894 ] final -131.89 input  -60.11 | X-H torsion
[ 7974 7965 7964 7962 ] final  114.47 input  175.53 | X-H torsion
[ 8008 7997 7996 7995 ] final   10.21 input   59.86 | X-H torsion
[ 10167 10162 10161 10158 ] final   65.03 input  -65.29 | X-H torsion
[ 10718 10713 10712 10709 ] final -125.71 input   66.30 | X-H torsion
[ 10763 10752 10751 10750 ] final   94.54 input  -60.55 | X-H torsion
[ 11005 11000 10999 10996 ] final -146.53 input  -57.11 | X-H torsion

> <Gold.Protein.ActiveResidues>
 VAL166  LYS551  ARG553  GLY616  TRP617  ASP618  TYR619  PRO620  LYS621  CYS622 
 ASP623  PHE694  ASN695  SER759  ASP760  ASP761  ALA762  ILE779  LEU786  VAL792 
 PHE793  MET794  SER795  GLU796  ALA797  LYS798  CYS799  TRP800  GLU811  SER814 

> <Gold.Protein.RotatedAtoms>
  150.9562  133.6495  159.2762 H   0  0  0  0  0  0  0  0  0  0  0  0  # atno 6907 bound_to 6896
  151.3834  135.0942  159.9513 H   0  0  0  0  0  0  0  0  0  0  0  0  # atno 6908 bound_to 6896
  152.5129  133.9091  159.7534 H   0  0  0  0  0  0  0  0  0  0  0  0  # atno 6909 bound_to 6896
  145.2041  139.2938  143.4303 H   0  0  0  0  0  0  0  0  0  0  0  0  # atno 7974 bound_to 7965
  154.7903  140.2834  155.5997 H   0  0  0  0  0  0  0  0  0  0  0  0  # atno 8008 bound_to 7997
  156.2963  140.2606  156.2677 H   0  0  0  0  0  0  0  0  0  0  0  0  # atno 8009 bound_to 7997
  154.9678  140.0376  157.2210 H   0  0  0  0  0  0  0  0  0  0  0  0  # atno 8010 bound_to 7997
  140.1157  144.4777  150.6950 H   0  0  0  0  0  0  0  0  0  0  0  0  # atno 10167 bound_to 10162
  156.1699  130.6660  151.0166 H   0  0  0  0  0  0  0  0  0  0  0  0  # atno 10718 bound_to 10713
  153.2428  135.4286  155.0715 H   0  0  0  0  0  0  0  0  0  0  0  0  # atno 10763 bound_to 10752
  154.8348  135.3407  154.6625 H   0  0  0  0  0  0  0  0  0  0  0  0  # atno 10764 bound_to 10752
  153.7048  135.7026  153.5110 H   0  0  0  0  0  0  0  0  0  0  0  0  # atno 10765 bound_to 10752
  140.7811  134.3078  157.5045 H   0  0  0  0  0  0  0  0  0  0  0  0  # atno 11005 bound_to 11000
  146.3411  140.2295  142.8593 LP  0  0  0  0  0  0  0  0  0  0  0  0  # atno 17320 bound_to 7965
  144.9919  140.8555  143.5334 LP  0  0  0  0  0  0  0  0  0  0  0  0  # atno 17321 bound_to 7965
  140.6900  143.2371  151.5156 LP  0  0  0  0  0  0  0  0  0  0  0  0  # atno 17342 bound_to 10162
  139.5595  144.2191  152.1668 LP  0  0  0  0  0  0  0  0  0  0  0  0  # atno 17343 bound_to 10162
  157.6795  131.0842  150.7407 LP  0  0  0  0  0  0  0  0  0  0  0  0  # atno 17370 bound_to 10713
  156.7466  130.4755  149.5466 LP  0  0  0  0  0  0  0  0  0  0  0  0  # atno 17371 bound_to 10713
  139.8742  134.9318  156.3539 LP  0  0  0  0  0  0  0  0  0  0  0  0  # atno 17394 bound_to 11000
  140.9482  133.7469  156.0236 LP  0  0  0  0  0  0  0  0  0  0  0  0  # atno 17395 bound_to 11000

$$$$
