AV-unprocessed.smi:2047|AV-procd|sdf|8320|dock8
  -GOLD-   2272010583D 1   1.00000     0.00000
 Structure written by MMmdl.
 42 44  0  0  0  0  0  0  0  0  3 V2000
  153.8756  139.8070  158.9909 O   0  0  0  0  0  0  0  0  0  0  0  0
  152.7894  139.3534  158.6127 C   0  0  0  0  0  0  0  0  0  0  0  0
  151.7990  140.1864  158.2514 N   0  0  0  0  0  0  0  0  0  0  0  0
  151.8082  141.6084  158.2241 C   0  0  0  0  0  0  0  0  0  0  0  0
  152.8010  142.3688  158.8906 C   0  0  0  0  0  0  0  0  0  0  0  0
  152.7779  143.7749  158.8030 C   0  0  0  0  0  0  0  0  0  0  0  0
  151.7698  144.3967  158.0425 C   0  0  0  0  0  0  0  0  0  0  0  0
  150.8487  143.6425  157.4064 N   0  3  0  0  0  0  0  0  0  0  0  0
  150.8272  142.2875  157.4591 C   0  0  0  0  0  0  0  0  0  0  0  0
  149.8244  141.5926  156.7616 N   0  0  0  0  0  0  0  0  0  0  0  0
  148.4617  141.8786  157.1773 C   0  0  0  0  0  0  0  0  0  0  0  0
  147.5710  141.3305  156.0591 C   0  0  0  0  0  0  0  0  0  0  0  0
  148.4874  141.2408  154.8322 C   0  0  0  0  0  0  0  0  0  0  0  0
  149.8470  141.7501  155.3177 C   0  0  0  0  0  0  0  0  0  0  0  0
  152.4202  138.0481  158.5178 N   0  5  0  0  0  0  0  0  0  0  0  0
  151.1942  137.5682  157.8733 C   0  0  1  0  0  0  0  0  0  0  0  0
  151.4719  136.2927  157.0534 C   0  0  0  0  0  0  0  0  0  0  0  0
  150.1306  135.6404  156.6900 C   0  0  0  0  0  0  0  0  0  0  0  0
  149.0034  136.0092  158.0895 S   0  0  0  0  0  0  0  0  0  0  0  0
  147.8063  136.6911  157.5727 O   0  0  0  0  0  0  0  0  0  0  0  0
  148.8802  134.8203  158.9475 O   0  0  0  0  0  0  0  0  0  0  0  0
  150.1080  137.2273  158.9070 C   0  0  0  0  0  0  0  0  0  0  0  0
  150.9085  139.7475  158.0679 H   0  0  0  0  0  0  0  0  0  0  0  0
  153.5866  141.8905  159.4562 H   0  0  0  0  0  0  0  0  0  0  0  0
  153.5274  144.3661  159.3083 H   0  0  0  0  0  0  0  0  0  0  0  0
  151.6762  145.4658  157.9194 H   0  0  0  0  0  0  0  0  0  0  0  0
  148.2373  141.4099  158.1357 H   0  0  0  0  0  0  0  0  0  0  0  0
  148.3097  142.9537  157.2837 H   0  0  0  0  0  0  0  0  0  0  0  0
  147.2023  140.3378  156.3204 H   0  0  0  0  0  0  0  0  0  0  0  0
  146.7058  141.9709  155.8856 H   0  0  0  0  0  0  0  0  0  0  0  0
  148.5669  140.2034  154.5045 H   0  0  0  0  0  0  0  0  0  0  0  0
  148.1157  141.8272  153.9915 H   0  0  0  0  0  0  0  0  0  0  0  0
  149.9729  142.7999  155.0490 H   0  0  0  0  0  0  0  0  0  0  0  0
  150.6687  141.1868  154.8744 H   0  0  0  0  0  0  0  0  0  0  0  0
  150.7826  138.3094  157.1862 H   0  0  0  0  0  0  0  0  0  0  0  0
  152.0651  136.5043  156.1632 H   0  0  0  0  0  0  0  0  0  0  0  0
  152.0466  135.5897  157.6588 H   0  0  0  0  0  0  0  0  0  0  0  0
  149.7072  136.0805  155.7856 H   0  0  0  0  0  0  0  0  0  0  0  0
  150.2104  134.5631  156.5453 H   0  0  0  0  0  0  0  0  0  0  0  0
  150.5340  136.7490  159.7896 H   0  0  0  0  0  0  0  0  0  0  0  0
  149.5366  138.0995  159.2244 H   0  0  0  0  0  0  0  0  0  0  0  0
  150.1314  144.1165  156.8578 H   0  0  0  0  0  0  0  0  0  0  0  0
  1  2  2  0  0  0  0
  2  3  1  0  0  0  0
  2 15  1  0  0  0  0
  3  4  1  0  0  0  0
  3 23  1  0  0  0  0
  4  9  1  0  0  0  0
  4  5  2  0  0  0  0
  5  6  1  0  0  0  0
  5 24  1  0  0  0  0
  6  7  2  0  0  0  0
  6 25  1  0  0  0  0
  7  8  1  0  0  0  0
  7 26  1  0  0  0  0
  8  9  2  0  0  0  0
  8 42  1  0  0  0  0
  9 10  1  0  0  0  0
 10 14  1  0  0  0  0
 10 11  1  0  0  0  0
 11 12  1  0  0  0  0
 11 27  1  0  0  0  0
 11 28  1  0  0  0  0
 12 13  1  0  0  0  0
 12 29  1  0  0  0  0
 12 30  1  0  0  0  0
 13 14  1  0  0  0  0
 13 31  1  0  0  0  0
 13 32  1  0  0  0  0
 14 33  1  0  0  0  0
 14 34  1  0  0  0  0
 15 16  1  0  0  0  0
 16 22  1  0  0  0  0
 16 17  1  0  0  0  0
 16 35  1  0  0  0  0
 17 18  1  0  0  0  0
 17 36  1  0  0  0  0
 17 37  1  0  0  0  0
 18 19  1  0  0  0  0
 18 38  1  0  0  0  0
 18 39  1  0  0  0  0
 19 20  2  0  0  0  0
 19 21  2  0  0  0  0
 19 22  1  0  0  0  0
 22 40  1  0  0  0  0
 22 41  1  0  0  0  0
M  CHG  1   8   1
M  CHG  1  15  -1
M  END
> <s_m_source_file>
AV-unprocessed.smi

> <i_m_source_file_index>
2047

> <i_lp_mmshare_version>
43012

> <i_f3d_flags>
0

> <s_epik_input>
Tz1TMSg9TylbQ0gyXVtDSDJdW0NASF0oW0NIMl0xKVtOSF1DKD1PKVtOSF1jMltjSF1bY0hdW2NIXW5jMk4zW0NIMl1bQ0gyXVtDSDJdW0NIMl0z

> <s_epik_cmdline>
J2VwaWtfcHl0aG9uJywgJy1waCcsICc3LjAnLCAnLXRuJywgJzgnLCAnLW1hJywgJzIwMCcsICctbWV0YWxfYmluZGluZycsICctaW1hZScsICc8aW5maWxlLm1hZT4nLCAnLW9tYWUnLCAnPG91dGZpbGUubWFlPic=

> <r_lp_tautomer_probability>
0.999994

> <r_epik_Ionization_Penalty>
8.27033

> <r_epik_Ionization_Penalty_Charging>
8.27033

> <r_epik_Ionization_Penalty_Neutral>
3.23223e-06

> <r_epik_State_Penalty>
7.90314

> <r_epik_Charging_Adjusted_Penalty>
16.1735

> <i_epik_Tot_Q>
0

> <i_epik_Tot_abs_Q>
2

> <r_epik_Metal_State_Penalty>
3.89381

> <b_epik_Metal_Only>
1

> <s_lp_Force_Field>
OPLS_2005

> <r_lp_Energy>
40.3449

> <b_lp_Chiralities_Consistent>
1

> <s_lp_Variant>
AV-unprocessed.smi:2047-6

> <Gold.Version>
5.8.1

> <Gold.Id.Protein>
6NUR|6NUR_protein|mol2

> <Gold.PLP.Fitness>
43.6277

> <Gold.PLP.PLP>
-33.6114

> <Gold.PLP.part.hbond>
-3.0000

> <Gold.PLP.part.metal>
0.0000

> <Gold.PLP.part.buried>
-4.4218

> <Gold.PLP.part.nonpolar>
-25.9340

> <Gold.PLP.part.repulsive>
0.1917

> <Gold.PLP.ligand.clash>
1.3148

> <Gold.PLP.ligand.torsion>
0.3612

> <Gold.PLP.Chemscore.Hbond>
4.0000

> <Gold.PLP.Chemscore.CHOScore>
0.0000

> <Gold.PLP.Chemscore.Metal>
0.0000

> <Gold.Chemscore.Hbonds>
donor molecule, donor type, donor heavy atom, donor atom, acceptor molecule, acceptor atom, score
      L1  H     8    42       P1  8028  2.00
      P1  H  6896  6907       L1    21  1.00
      P1  H  7997  8009       L1     1  1.00

> <Gold.PLP.Chemscore.Internal.Correction>
0.0535

> <Gold.Rescore>
     Score         DG    S(hbond)    S(metal)    S(lipo)     H(rot)  DE(clash)    DE(int)     intcor
     19.26     -20.99       2.84        0.00      78.80       1.25       0.00       1.72       ----

> <Gold.Chemscore.Fitness>
19.2625

> <Gold.Chemscore.DG>
-20.9878

> <Gold.Chemscore.ZeroCoef>
-5.4800

> <Gold.Chemscore.Hbond>
2.8393

> <Gold.Chemscore.Metal>
0.0000

> <Gold.Chemscore.Lipo>
78.7976

> <Gold.Chemscore.Internal_Hbond>
0.0000

> <Gold.Chemscore.DEClash>
0.0008

> <Gold.Chemscore.DEInternal>
1.7244

> <Gold.Chemscore.Rot>
1.2480

> <Gold.Chemscore.Internal.Correction>
   9.000000E+99

> <Gold.Chemscore.Hbonds>
donor molecule, donor type, donor heavy atom, donor atom, acceptor molecule, acceptor atom, score
      L1  H     8    42       P1  8028  0.97
      P1  H  6896  6907       L1    21  0.70
      P1  H  7997  8009       L1     1  0.24

> <Gold.Chemscore.Hbond.Weighted>
-9.4833

> <Gold.Chemscore.Metal.Weighted>
-0.0000

> <Gold.Chemscore.Lipo.Weighted>
-9.2193

> <Gold.Chemscore.Internal_Hbond.Weighted>
0.0000

> <Gold.Chemscore.DEClash.Weighted>
0.0008

> <Gold.Chemscore.DEInternal.Weighted>
1.7244

> <Gold.Chemscore.Rot.Weighted>
3.1948

> <Gold.Chemscore.Internal.Correction.Weighted>
   9.000000E+99

> <Gold.Protein.RotatedTorsions>
[ 6907 6896 6895 6894 ] final -100.31 input  -60.11 | X-H torsion
[ 7974 7965 7964 7962 ] final  -97.17 input  175.53 | X-H torsion
[ 8008 7997 7996 7995 ] final  139.89 input   59.86 | X-H torsion
[ 10167 10162 10161 10158 ] final    8.20 input  -65.29 | X-H torsion
[ 10718 10713 10712 10709 ] final  153.88 input   66.30 | X-H torsion
[ 10763 10752 10751 10750 ] final -103.91 input  -60.55 | X-H torsion
[ 11005 11000 10999 10996 ] final  -63.52 input  -57.11 | X-H torsion

> <Gold.Protein.ActiveResidues>
 VAL166  LYS551  ARG553  GLY616  TRP617  ASP618  TYR619  PRO620  LYS621  CYS622 
 ASP623  PHE694  ASN695  SER759  ASP760  ASP761  ALA762  ILE779  LEU786  VAL792 
 PHE793  MET794  SER795  GLU796  ALA797  LYS798  CYS799  TRP800  GLU811  SER814 

> <Gold.Protein.RotatedAtoms>
  150.7111  134.0906  159.3930 H   0  0  0  0  0  0  0  0  0  0  0  0  # atno 6907 bound_to 6896
  151.8892  135.0421  160.0505 H   0  0  0  0  0  0  0  0  0  0  0  0  # atno 6908 bound_to 6896
  152.2506  133.5176  159.5359 H   0  0  0  0  0  0  0  0  0  0  0  0  # atno 6909 bound_to 6896
  145.3372  140.9453  143.2628 H   0  0  0  0  0  0  0  0  0  0  0  0  # atno 7974 bound_to 7965
  156.2985  140.2356  156.4311 H   0  0  0  0  0  0  0  0  0  0  0  0  # atno 8008 bound_to 7997
  154.8269  140.0435  157.1470 H   0  0  0  0  0  0  0  0  0  0  0  0  # atno 8009 bound_to 7997
  154.9251  140.3009  155.5199 H   0  0  0  0  0  0  0  0  0  0  0  0  # atno 8010 bound_to 7997
  140.6328  143.7954  150.7318 H   0  0  0  0  0  0  0  0  0  0  0  0  # atno 10167 bound_to 10162
  157.2389  131.0755  151.1805 H   0  0  0  0  0  0  0  0  0  0  0  0  # atno 10718 bound_to 10713
  154.7841  135.4806  153.9908 H   0  0  0  0  0  0  0  0  0  0  0  0  # atno 10763 bound_to 10752
  153.1535  135.6795  153.8854 H   0  0  0  0  0  0  0  0  0  0  0  0  # atno 10764 bound_to 10752
  153.8491  135.3169  155.3409 H   0  0  0  0  0  0  0  0  0  0  0  0  # atno 10765 bound_to 10752
  141.1396  133.6653  156.5692 H   0  0  0  0  0  0  0  0  0  0  0  0  # atno 11005 bound_to 11000
  144.8818  139.4893  143.6719 LP  0  0  0  0  0  0  0  0  0  0  0  0  # atno 17320 bound_to 7965
  146.3022  139.7463  142.9083 LP  0  0  0  0  0  0  0  0  0  0  0  0  # atno 17321 bound_to 7965
  140.1569  143.4309  152.2093 LP  0  0  0  0  0  0  0  0  0  0  0  0  # atno 17342 bound_to 10162
  139.5541  144.7359  151.4347 LP  0  0  0  0  0  0  0  0  0  0  0  0  # atno 17343 bound_to 10162
  157.3399  130.7028  149.6375 LP  0  0  0  0  0  0  0  0  0  0  0  0  # atno 17370 bound_to 10713
  155.9671  130.4283  150.4781 LP  0  0  0  0  0  0  0  0  0  0  0  0  # atno 17371 bound_to 10713
  140.3926  134.7427  157.4731 LP  0  0  0  0  0  0  0  0  0  0  0  0  # atno 17394 bound_to 11000
  140.0555  134.6070  155.8810 LP  0  0  0  0  0  0  0  0  0  0  0  0  # atno 17395 bound_to 11000

$$$$
