AV-unprocessed.smi:1512|AV-procd|sdf|6102|dock1
  -GOLD-   22720 6233D 1   1.00000     0.00000
 Structure written by MMmdl.
 44 46  0  0  0  0  0  0  0  0  3 V2000
  152.1979  139.8911  158.5152 C   0  0  0  0  0  0  0  0  0  0  0  0
  151.0860  140.9409  158.3445 C   0  0  2  0  0  0  0  0  0  0  0  0
  150.1609  140.5146  157.2965 N   0  0  0  0  0  0  0  0  0  0  0  0
  150.4763  140.3175  156.0073 C   0  0  0  0  0  0  0  0  0  0  0  0
  151.6077  140.4973  155.5542 O   0  0  0  0  0  0  0  0  0  0  0  0
  149.3230  139.8592  155.1023 C   0  0  0  0  0  0  0  0  0  0  0  0
  148.2301  140.8414  154.9953 N   0  0  0  0  0  0  0  0  0  0  0  0
  148.0045  141.4032  153.7248 C   0  0  0  0  0  0  0  0  0  0  0  0
  147.0322  142.3002  153.5091 C   0  0  0  0  0  0  0  0  0  0  0  0
  146.2050  142.6915  154.6240 C   0  0  0  0  0  0  0  0  0  0  0  0
  146.4009  142.1636  155.8544 C   0  0  0  0  0  0  0  0  0  0  0  0
  145.5380  142.6026  156.9272 N   0  3  0  0  0  0  0  0  0  0  0  0
  144.6532  143.4168  156.6814 O   0  0  0  0  0  0  0  0  0  0  0  0
  145.7121  142.1338  158.0484 O   0  5  0  0  0  0  0  0  0  0  0  0
  147.4677  141.1670  156.0855 C   0  0  0  0  0  0  0  0  0  0  0  0
  147.6677  140.6428  157.1829 O   0  0  0  0  0  0  0  0  0  0  0  0
  151.6453  142.3392  157.9905 C   0  0  1  0  0  0  0  0  0  0  0  0
  150.5908  143.4697  157.9581 C   0  0  0  0  0  0  0  0  0  0  0  0
  151.2400  144.5750  158.8117 C   0  0  1  0  0  0  0  0  0  0  0  0
  151.1704  144.1710  160.2956 C   0  0  0  0  0  0  0  0  0  0  0  0
  152.2163  143.0452  160.3879 C   0  0  0  0  0  0  0  0  0  0  0  0
  152.7230  142.9275  158.9354 C   0  0  2  0  0  0  0  0  0  0  0  0
  152.7219  144.3914  158.5052 C   0  0  0  0  0  0  0  0  0  0  0  0
  152.8757  140.1595  159.3254 H   0  0  0  0  0  0  0  0  0  0  0  0
  152.7897  139.7883  157.6052 H   0  0  0  0  0  0  0  0  0  0  0  0
  151.7840  138.9110  158.7552 H   0  0  0  0  0  0  0  0  0  0  0  0
  150.5267  141.0105  159.2781 H   0  0  0  0  0  0  0  0  0  0  0  0
  149.2062  140.3454  157.5789 H   0  0  0  0  0  0  0  0  0  0  0  0
  149.7190  139.6256  154.1121 H   0  0  0  0  0  0  0  0  0  0  0  0
  148.9454  138.9107  155.4869 H   0  0  0  0  0  0  0  0  0  0  0  0
  148.6621  141.0530  152.9422 H   0  0  0  0  0  0  0  0  0  0  0  0
  146.8702  142.7171  152.5259 H   0  0  0  0  0  0  0  0  0  0  0  0
  145.4269  143.4234  154.4618 H   0  0  0  0  0  0  0  0  0  0  0  0
  152.0920  142.2712  156.9965 H   0  0  0  0  0  0  0  0  0  0  0  0
  150.4274  143.8096  156.9347 H   0  0  0  0  0  0  0  0  0  0  0  0
  149.6243  143.1653  158.3622 H   0  0  0  0  0  0  0  0  0  0  0  0
  150.8454  145.5716  158.6112 H   0  0  0  0  0  0  0  0  0  0  0  0
  151.4483  145.0055  160.9404 H   0  0  0  0  0  0  0  0  0  0  0  0
  150.1738  143.8389  160.5888 H   0  0  0  0  0  0  0  0  0  0  0  0
  153.0310  143.3433  161.0493 H   0  0  0  0  0  0  0  0  0  0  0  0
  151.8068  142.1167  160.7833 H   0  0  0  0  0  0  0  0  0  0  0  0
  153.6931  142.4372  158.8509 H   0  0  0  0  0  0  0  0  0  0  0  0
  152.9678  144.5368  157.4518 H   0  0  0  0  0  0  0  0  0  0  0  0
  153.3710  145.0239  159.1137 H   0  0  0  0  0  0  0  0  0  0  0  0
  1  2  1  0  0  0  0
  1 24  1  0  0  0  0
  1 25  1  0  0  0  0
  1 26  1  0  0  0  0
  2  3  1  0  0  0  0
  2 17  1  0  0  0  0
  2 27  1  0  0  0  0
  3  4  1  0  0  0  0
  3 28  1  0  0  0  0
  4  5  2  0  0  0  0
  4  6  1  0  0  0  0
  6  7  1  0  0  0  0
  6 29  1  0  0  0  0
  6 30  1  0  0  0  0
  7 15  1  0  0  0  0
  7  8  1  0  0  0  0
  8  9  2  0  0  0  0
  8 31  1  0  0  0  0
  9 10  1  0  0  0  0
  9 32  1  0  0  0  0
 10 11  2  0  0  0  0
 10 33  1  0  0  0  0
 11 12  1  0  0  0  0
 11 15  1  0  0  0  0
 12 13  2  0  0  0  0
 12 14  1  0  0  0  0
 15 16  2  0  0  0  0
 17 22  1  0  0  0  0
 17 18  1  0  0  0  0
 17 34  1  0  0  0  0
 18 19  1  0  0  0  0
 18 35  1  0  0  0  0
 18 36  1  0  0  0  0
 19 23  1  0  0  0  0
 19 20  1  0  0  0  0
 19 37  1  0  0  0  0
 20 21  1  0  0  0  0
 20 38  1  0  0  0  0
 20 39  1  0  0  0  0
 21 22  1  0  0  0  0
 21 40  1  0  0  0  0
 21 41  1  0  0  0  0
 22 23  1  0  0  0  0
 22 42  1  0  0  0  0
 23 43  1  0  0  0  0
 23 44  1  0  0  0  0
M  CHG  1  12   1
M  CHG  1  14  -1
M  END
> <s_m_source_file>
AV-unprocessed.smi

> <i_m_source_file_index>
1512

> <i_lp_mmshare_version>
43012

> <i_f3d_flags>
0

> <s_epik_input>
W0NIMl0xW0NIMl1bQ0BIXShbQ0gyXTIpW0NAQEhdKFtDSDJdW0NAQEhdMTIpW0NASF0oW0NIM10pW05IXUMoPU8pW0NIMl1uM1tjSF1bY0hdW2NIXWMoW04rXSg9TylbTy1dKWMzPU8=

> <s_epik_cmdline>
J2VwaWtfcHl0aG9uJywgJy1waCcsICc3LjAnLCAnLXRuJywgJzgnLCAnLW1hJywgJzIwMCcsICctbWV0YWxfYmluZGluZycsICctaW1hZScsICc8aW5maWxlLm1hZT4nLCAnLW9tYWUnLCAnPG91dGZpbGUubWFlPic=

> <r_lp_tautomer_probability>
1

> <r_epik_Ionization_Penalty>
2.17697e-08

> <r_epik_Ionization_Penalty_Charging>
1.42735e-10

> <r_epik_Ionization_Penalty_Neutral>
2.16269e-08

> <r_epik_State_Penalty>
-0

> <r_epik_Charging_Adjusted_Penalty>
1.42735e-10

> <i_epik_Tot_Q>
0

> <i_epik_Tot_abs_Q>
2

> <r_epik_Metal_State_Penalty>
-0

> <b_epik_Metal_Only>
0

> <s_lp_Force_Field>
OPLS_2005

> <r_lp_Energy>
64.3295

> <b_lp_Chiralities_Consistent>
1

> <s_lp_Variant>
AV-unprocessed.smi:1512-3

> <Gold.Version>
5.8.1

> <Gold.Id.Protein>
6NUR|6NUR_protein|mol2

> <Gold.PLP.Fitness>
48.3664

> <Gold.PLP.PLP>
-43.2087

> <Gold.PLP.part.hbond>
-1.0000

> <Gold.PLP.part.metal>
0.0000

> <Gold.PLP.part.buried>
-6.1898

> <Gold.PLP.part.nonpolar>
-36.2991

> <Gold.PLP.part.repulsive>
0.1684

> <Gold.PLP.ligand.clash>
0.0365

> <Gold.PLP.ligand.torsion>
0.0672

> <Gold.PLP.Chemscore.Hbond>
0.7680

> <Gold.PLP.Chemscore.CHOScore>
1.0000

> <Gold.PLP.Chemscore.Metal>
0.0000

> <Gold.Chemscore.Hbonds>
donor molecule, donor type, donor heavy atom, donor atom, acceptor molecule, acceptor atom, score
      P1  H  7989  7998       L1     5  0.69
      L1  C     8    31       P1  7957  1.00

> <Gold.PLP.Chemscore.Internal.Correction>
0.0247

> <Gold.Rescore>
     Score         DG    S(hbond)    S(metal)    S(lipo)     H(rot)  DE(clash)    DE(int)     intcor
     15.62     -20.06       1.53        0.00     119.33       1.75       0.16       4.29       ----

> <Gold.Chemscore.Fitness>
15.6150

> <Gold.Chemscore.DG>
-20.0648

> <Gold.Chemscore.ZeroCoef>
-5.4800

> <Gold.Chemscore.Hbond>
1.5258

> <Gold.Chemscore.Metal>
0.0000

> <Gold.Chemscore.Lipo>
119.3334

> <Gold.Chemscore.Internal_Hbond>
0.0000

> <Gold.Chemscore.DEClash>
0.1626

> <Gold.Chemscore.DEInternal>
4.2872

> <Gold.Chemscore.Rot>
1.7474

> <Gold.Chemscore.Internal.Correction>
   9.000000E+99

> <Gold.Chemscore.Hbonds>
donor molecule, donor type, donor heavy atom, donor atom, acceptor molecule, acceptor atom, score
      P1  H  7989  7998       L1     5  0.59

> <Gold.Chemscore.Hbond.Weighted>
-5.0961

> <Gold.Chemscore.Metal.Weighted>
-0.0000

> <Gold.Chemscore.Lipo.Weighted>
-13.9620

> <Gold.Chemscore.Internal_Hbond.Weighted>
0.0000

> <Gold.Chemscore.DEClash.Weighted>
0.1626

> <Gold.Chemscore.DEInternal.Weighted>
4.2872

> <Gold.Chemscore.Rot.Weighted>
4.4733

> <Gold.Chemscore.Internal.Correction.Weighted>
   9.000000E+99

> <Gold.Protein.RotatedTorsions>
[ 6907 6896 6895 6894 ] final  -87.08 input  -60.11 | X-H torsion
[ 7974 7965 7964 7962 ] final   62.67 input  175.53 | X-H torsion
[ 8008 7997 7996 7995 ] final  -12.80 input   59.86 | X-H torsion
[ 10167 10162 10161 10158 ] final   77.23 input  -65.29 | X-H torsion
[ 10718 10713 10712 10709 ] final  151.66 input   66.30 | X-H torsion
[ 10763 10752 10751 10750 ] final   34.08 input  -60.55 | X-H torsion
[ 11005 11000 10999 10996 ] final    3.09 input  -57.11 | X-H torsion

> <Gold.Protein.ActiveResidues>
 VAL166  LYS551  ARG553  GLY616  TRP617  ASP618  TYR619  PRO620  LYS621  CYS622 
 ASP623  PHE694  ASN695  SER759  ASP760  ASP761  ALA762  ILE779  LEU786  VAL792 
 PHE793  MET794  SER795  GLU796  ALA797  LYS798  CYS799  TRP800  GLU811  SER814 

> <Gold.Protein.RotatedAtoms>
  150.6866  134.2952  159.4682 H   0  0  0  0  0  0  0  0  0  0  0  0  # atno 6907 bound_to 6896
  152.0853  134.9441  160.0582 H   0  0  0  0  0  0  0  0  0  0  0  0  # atno 6908 bound_to 6896
  152.0778  133.4103  159.4525 H   0  0  0  0  0  0  0  0  0  0  0  0  # atno 6909 bound_to 6896
  145.8707  139.3376  143.0764 H   0  0  0  0  0  0  0  0  0  0  0  0  # atno 7974 bound_to 7965
  154.5346  140.2266  155.8745 H   0  0  0  0  0  0  0  0  0  0  0  0  # atno 8008 bound_to 7997
  156.1798  140.3103  155.9091 H   0  0  0  0  0  0  0  0  0  0  0  0  # atno 8009 bound_to 7997
  155.3381  140.0449  157.3035 H   0  0  0  0  0  0  0  0  0  0  0  0  # atno 8010 bound_to 7997
  139.9838  144.5807  150.7877 H   0  0  0  0  0  0  0  0  0  0  0  0  # atno 10167 bound_to 10162
  157.2678  131.0811  151.1621 H   0  0  0  0  0  0  0  0  0  0  0  0  # atno 10718 bound_to 10713
  153.0181  135.6370  154.1612 H   0  0  0  0  0  0  0  0  0  0  0  0  # atno 10763 bound_to 10752
  154.1350  135.2838  155.3177 H   0  0  0  0  0  0  0  0  0  0  0  0  # atno 10764 bound_to 10752
  154.6167  135.5538  153.7592 H   0  0  0  0  0  0  0  0  0  0  0  0  # atno 10765 bound_to 10752
  140.5970  133.9871  155.8114 H   0  0  0  0  0  0  0  0  0  0  0  0  # atno 11005 bound_to 11000
  145.9140  140.9161  143.0439 LP  0  0  0  0  0  0  0  0  0  0  0  0  # atno 17320 bound_to 7965
  144.6726  140.1198  143.7450 LP  0  0  0  0  0  0  0  0  0  0  0  0  # atno 17321 bound_to 7965
  140.7479  143.2914  151.3320 LP  0  0  0  0  0  0  0  0  0  0  0  0  # atno 17342 bound_to 10162
  139.6390  144.0576  152.2539 LP  0  0  0  0  0  0  0  0  0  0  0  0  # atno 17343 bound_to 10162
  157.3104  130.6887  149.6213 LP  0  0  0  0  0  0  0  0  0  0  0  0  # atno 17370 bound_to 10713
  155.9663  130.4365  150.5137 LP  0  0  0  0  0  0  0  0  0  0  0  0  # atno 17371 bound_to 10713
  141.0897  133.9935  157.3256 LP  0  0  0  0  0  0  0  0  0  0  0  0  # atno 17394 bound_to 11000
  139.9249  135.0201  156.8198 LP  0  0  0  0  0  0  0  0  0  0  0  0  # atno 17395 bound_to 11000

$$$$
