AV-unprocessed.smi:3258|AV-procd|sdf|12468|dock3
  -GOLD-   2272018363D 1   1.00000     0.00000
 Structure written by MMmdl.
 38 39  0  0  0  0  0  0  0  0  1 V2000
  154.1812  140.6725  161.5328 C   0  0  0  0  0  0  0  0  0  0  0  0
  153.3341  141.4420  160.5060 C   0  0  2  0  0  0  0  0  0  0  0  0
  152.5890  142.6507  161.1136 C   0  0  0  0  0  0  0  0  0  0  0  0
  151.7755  143.3557  160.1400 N   0  0  0  0  0  0  0  0  0  0  0  0
  152.1794  143.9541  158.9654 C   0  0  0  0  0  0  0  0  0  0  0  0
  151.0682  144.4894  158.3796 C   0  0  0  0  0  0  0  0  0  0  0  0
  150.0184  144.1602  159.2822 C   0  0  0  0  0  0  0  0  0  0  0  0
  150.4445  143.4798  160.3342 N   0  0  0  0  0  0  0  0  0  0  0  0
  152.3814  140.5241  159.8877 N   0  0  0  0  0  0  0  0  0  0  0  0
  152.6945  139.5567  159.0141 C   0  0  0  0  0  0  0  0  0  0  0  0
  153.8386  139.3219  158.6250 O   0  0  0  0  0  0  0  0  0  0  0  0
  151.6086  138.8828  158.6100 N   0  0  0  0  0  0  0  0  0  0  0  0
  151.6045  137.7803  157.6538 C   0  0  0  0  0  0  0  0  0  0  0  0
  150.9386  138.1777  156.3230 C   0  0  2  0  0  0  0  0  0  0  0  0
  151.3655  137.3240  155.1463 C   0  0  0  0  0  0  0  0  0  0  0  0
  150.9607  138.1893  153.9551 C   0  0  0  0  0  0  0  0  0  0  0  0
  151.0210  139.5390  154.4086 O   0  0  0  0  0  0  0  0  0  0  0  0
  151.2956  139.5717  155.8051 C   0  0  0  0  0  0  0  0  0  0  0  0
  154.9666  141.2998  161.9546 H   0  0  0  0  0  0  0  0  0  0  0  0
  154.6682  139.8117  161.0732 H   0  0  0  0  0  0  0  0  0  0  0  0
  153.5679  140.3078  162.3575 H   0  0  0  0  0  0  0  0  0  0  0  0
  154.0134  141.8061  159.7327 H   0  0  0  0  0  0  0  0  0  0  0  0
  151.9324  142.3256  161.9217 H   0  0  0  0  0  0  0  0  0  0  0  0
  153.2997  143.3511  161.5559 H   0  0  0  0  0  0  0  0  0  0  0  0
  153.2123  143.9497  158.6495 H   0  0  0  0  0  0  0  0  0  0  0  0
  151.0137  145.0328  157.4480 H   0  0  0  0  0  0  0  0  0  0  0  0
  148.9667  144.3926  159.2043 H   0  0  0  0  0  0  0  0  0  0  0  0
  151.4112  140.6384  160.1421 H   0  0  0  0  0  0  0  0  0  0  0  0
  150.7137  139.1555  158.9898 H   0  0  0  0  0  0  0  0  0  0  0  0
  152.6164  137.4080  157.4840 H   0  0  0  0  0  0  0  0  0  0  0  0
  151.0504  136.9571  158.1053 H   0  0  0  0  0  0  0  0  0  0  0  0
  149.8541  138.1077  156.4237 H   0  0  0  0  0  0  0  0  0  0  0  0
  152.4474  137.1822  155.1527 H   0  0  0  0  0  0  0  0  0  0  0  0
  150.8937  136.3410  155.1350 H   0  0  0  0  0  0  0  0  0  0  0  0
  151.6069  138.0312  153.0912 H   0  0  0  0  0  0  0  0  0  0  0  0
  149.9355  137.9709  153.6546 H   0  0  0  0  0  0  0  0  0  0  0  0
  150.7342  140.3631  156.3023 H   0  0  0  0  0  0  0  0  0  0  0  0
  152.3588  139.7737  155.9423 H   0  0  0  0  0  0  0  0  0  0  0  0
  1  2  1  0  0  0  0
  1 19  1  0  0  0  0
  1 20  1  0  0  0  0
  1 21  1  0  0  0  0
  2  3  1  0  0  0  0
  2  9  1  0  0  0  0
  2 22  1  0  0  0  0
  3  4  1  0  0  0  0
  3 23  1  0  0  0  0
  3 24  1  0  0  0  0
  4  8  1  0  0  0  0
  4  5  1  0  0  0  0
  5  6  2  0  0  0  0
  5 25  1  0  0  0  0
  6  7  1  0  0  0  0
  6 26  1  0  0  0  0
  7  8  2  0  0  0  0
  7 27  1  0  0  0  0
  9 10  1  0  0  0  0
  9 28  1  0  0  0  0
 10 11  2  0  0  0  0
 10 12  1  0  0  0  0
 12 13  1  0  0  0  0
 12 29  1  0  0  0  0
 13 14  1  0  0  0  0
 13 30  1  0  0  0  0
 13 31  1  0  0  0  0
 14 18  1  0  0  0  0
 14 15  1  0  0  0  0
 14 32  1  0  0  0  0
 15 16  1  0  0  0  0
 15 33  1  0  0  0  0
 15 34  1  0  0  0  0
 16 17  1  0  0  0  0
 16 35  1  0  0  0  0
 16 36  1  0  0  0  0
 17 18  1  0  0  0  0
 18 37  1  0  0  0  0
 18 38  1  0  0  0  0
M  END
> <s_m_source_file>
AV-unprocessed.smi

> <i_m_source_file_index>
3258

> <i_lp_mmshare_version>
43012

> <i_f3d_flags>
0

> <s_epik_input>
bjFbY0hdW2NIXVtjSF1uMVtDSDJdW0NAQEhdKFtDSDNdKVtOSF1DKD1PKVtOSF1bQ0gyXVtDQEBIXTJbQ0gyXVtDSDJdT1tDSDJdMg==

> <s_epik_cmdline>
J2VwaWtfcHl0aG9uJywgJy1waCcsICc3LjAnLCAnLXRuJywgJzgnLCAnLW1hJywgJzIwMCcsICctbWV0YWxfYmluZGluZycsICctaW1hZScsICc8aW5maWxlLm1hZT4nLCAnLW9tYWUnLCAnPG91dGZpbGUubWFlPic=

> <r_lp_tautomer_probability>
1

> <r_epik_Ionization_Penalty>
6.85079e-05

> <r_epik_Ionization_Penalty_Charging>
0

> <r_epik_Ionization_Penalty_Neutral>
6.85079e-05

> <r_epik_State_Penalty>
-0

> <r_epik_Charging_Adjusted_Penalty>
0

> <i_epik_Tot_Q>
0

> <i_epik_Tot_abs_Q>
0

> <r_epik_Metal_State_Penalty>
-0

> <b_epik_Metal_Only>
0

> <s_lp_Force_Field>
OPLS_2005

> <r_lp_Energy>
16.0555

> <b_lp_Chiralities_Consistent>
1

> <s_lp_Variant>
AV-unprocessed.smi:3258-1

> <Gold.Version>
5.8.1

> <Gold.Id.Protein>
6NUR|6NUR_protein|mol2

> <Gold.PLP.Fitness>
47.1230

> <Gold.PLP.PLP>
-38.9083

> <Gold.PLP.part.hbond>
-2.0000

> <Gold.PLP.part.metal>
0.0000

> <Gold.PLP.part.buried>
-5.1715

> <Gold.PLP.part.nonpolar>
-31.3399

> <Gold.PLP.part.repulsive>
0.4457

> <Gold.PLP.ligand.clash>
0.0000

> <Gold.PLP.ligand.torsion>
0.4127

> <Gold.PLP.Chemscore.Hbond>
2.0000

> <Gold.PLP.Chemscore.CHOScore>
0.9970

> <Gold.PLP.Chemscore.Metal>
0.0000

> <Gold.Chemscore.Hbonds>
donor molecule, donor type, donor heavy atom, donor atom, acceptor molecule, acceptor atom, score
      P1  H  7989  7998       L1    17  1.00
      P1  H  7997  8008       L1    11  1.00
      L1  C     7    27       P1  8029  0.51

> <Gold.PLP.Chemscore.Internal.Correction>
0.0492

> <Gold.Rescore>
     Score         DG    S(hbond)    S(metal)    S(lipo)     H(rot)  DE(clash)    DE(int)     intcor
     18.40     -19.07       1.95        0.00     101.47       1.87       0.10       0.57       ----

> <Gold.Chemscore.Fitness>
18.3986

> <Gold.Chemscore.DG>
-19.0707

> <Gold.Chemscore.ZeroCoef>
-5.4800

> <Gold.Chemscore.Hbond>
1.9498

> <Gold.Chemscore.Metal>
0.0000

> <Gold.Chemscore.Lipo>
101.4669

> <Gold.Chemscore.Internal_Hbond>
0.0000

> <Gold.Chemscore.DEClash>
0.1031

> <Gold.Chemscore.DEInternal>
0.5690

> <Gold.Chemscore.Rot>
1.8724

> <Gold.Chemscore.Internal.Correction>
   9.000000E+99

> <Gold.Chemscore.Hbonds>
donor molecule, donor type, donor heavy atom, donor atom, acceptor molecule, acceptor atom, score
      P1  H  7989  7998       L1    17  0.92
      P1  H  7997  8008       L1    11  1.00

> <Gold.Chemscore.Hbond.Weighted>
-6.5123

> <Gold.Chemscore.Metal.Weighted>
-0.0000

> <Gold.Chemscore.Lipo.Weighted>
-11.8716

> <Gold.Chemscore.Internal_Hbond.Weighted>
0.0000

> <Gold.Chemscore.DEClash.Weighted>
0.1031

> <Gold.Chemscore.DEInternal.Weighted>
0.5690

> <Gold.Chemscore.Rot.Weighted>
4.7933

> <Gold.Chemscore.Internal.Correction.Weighted>
   9.000000E+99

> <Gold.Protein.RotatedTorsions>
[ 6907 6896 6895 6894 ] final   28.36 input  -60.11 | X-H torsion
[ 7974 7965 7964 7962 ] final  154.69 input  175.53 | X-H torsion
[ 8008 7997 7996 7995 ] final -100.76 input   59.86 | X-H torsion
[ 10167 10162 10161 10158 ] final  158.77 input  -65.29 | X-H torsion
[ 10718 10713 10712 10709 ] final   59.76 input   66.30 | X-H torsion
[ 10763 10752 10751 10750 ] final  -50.22 input  -60.55 | X-H torsion
[ 11005 11000 10999 10996 ] final -120.49 input  -57.11 | X-H torsion

> <Gold.Protein.ActiveResidues>
 VAL166  LYS551  ARG553  GLY616  TRP617  ASP618  TYR619  PRO620  LYS621  CYS622 
 ASP623  PHE694  ASN695  SER759  ASP760  ASP761  ALA762  ILE779  LEU786  VAL792 
 PHE793  MET794  SER795  GLU796  ALA797  LYS798  CYS799  TRP800  GLU811  SER814 

> <Gold.Protein.RotatedAtoms>
  152.0158  134.9850  160.0569 H   0  0  0  0  0  0  0  0  0  0  0  0  # atno 6907 bound_to 6896
  152.1385  133.4445  159.4763 H   0  0  0  0  0  0  0  0  0  0  0  0  # atno 6908 bound_to 6896
  150.6863  134.2253  159.4456 H   0  0  0  0  0  0  0  0  0  0  0  0  # atno 6909 bound_to 6896
  144.8072  139.6968  143.6157 H   0  0  0  0  0  0  0  0  0  0  0  0  # atno 7974 bound_to 7965
  154.8331  140.0439  157.1490 H   0  0  0  0  0  0  0  0  0  0  0  0  # atno 8008 bound_to 7997
  154.9130  140.3016  155.5236 H   0  0  0  0  0  0  0  0  0  0  0  0  # atno 8009 bound_to 7997
  156.2988  140.2354  156.4172 H   0  0  0  0  0  0  0  0  0  0  0  0  # atno 8010 bound_to 7997
  139.4828  144.4793  151.8467 H   0  0  0  0  0  0  0  0  0  0  0  0  # atno 10167 bound_to 10162
  157.5700  130.8900  149.9251 H   0  0  0  0  0  0  0  0  0  0  0  0  # atno 10718 bound_to 10713
  154.1069  135.6555  153.4878 H   0  0  0  0  0  0  0  0  0  0  0  0  # atno 10763 bound_to 10752
  153.0270  135.5238  154.7231 H   0  0  0  0  0  0  0  0  0  0  0  0  # atno 10764 bound_to 10752
  154.6399  135.2987  155.0085 H   0  0  0  0  0  0  0  0  0  0  0  0  # atno 10765 bound_to 10752
  141.0140  134.0223  157.3375 H   0  0  0  0  0  0  0  0  0  0  0  0  # atno 11005 bound_to 11000
  146.2365  139.5916  142.9520 LP  0  0  0  0  0  0  0  0  0  0  0  0  # atno 17320 bound_to 7965
  145.5409  141.0421  143.2331 LP  0  0  0  0  0  0  0  0  0  0  0  0  # atno 17321 bound_to 7965
  140.4268  144.2170  150.5887 LP  0  0  0  0  0  0  0  0  0  0  0  0  # atno 17342 bound_to 10162
  140.4819  143.2376  151.8942 LP  0  0  0  0  0  0  0  0  0  0  0  0  # atno 17343 bound_to 10162
  156.0746  130.3680  150.0704 LP  0  0  0  0  0  0  0  0  0  0  0  0  # atno 17370 bound_to 10713
  156.8858  130.9572  151.3594 LP  0  0  0  0  0  0  0  0  0  0  0  0  # atno 17371 bound_to 10713
  139.9106  135.0189  156.7675 LP  0  0  0  0  0  0  0  0  0  0  0  0  # atno 17394 bound_to 11000
  140.6686  133.9580  155.7844 LP  0  0  0  0  0  0  0  0  0  0  0  0  # atno 17395 bound_to 11000

$$$$
