AV-unprocessed.smi:3243|AV-procd|sdf|12396|dock7
  -GOLD-   2272018263D 1   1.00000     0.00000
 Structure written by MMmdl.
 37 38  0  0  0  0  0  0  0  0  1 V2000
  152.4448  144.1106  161.4520 C   0  0  0  0  0  0  0  0  0  0  0  0
  152.7724  144.1144  159.9518 C   0  0  0  0  0  0  0  0  0  0  0  0
  151.8921  145.0799  159.1451 C   0  0  0  0  0  0  0  0  0  0  0  0
  152.7721  142.7346  159.3722 C   0  0  0  0  0  0  0  0  0  0  0  0
  152.1229  142.4001  158.2528 N   0  0  0  0  0  0  0  0  0  0  0  0
  152.2743  141.0503  157.9218 C   0  0  0  0  0  0  0  0  0  0  0  0
  151.6023  140.5009  156.7004 C   0  0  0  0  0  0  0  0  0  0  0  0
  150.1700  140.0239  156.9934 C   0  0  0  0  0  0  0  0  0  0  0  0
  149.2243  140.5159  155.9984 N   0  0  0  0  0  0  0  0  0  0  0  0
  149.4403  140.5406  154.6743 C   0  0  0  0  0  0  0  0  0  0  0  0
  150.4925  140.1707  154.1540 O   0  0  0  0  0  0  0  0  0  0  0  0
  148.3180  141.1200  153.8810 C   0  0  2  0  0  0  0  0  0  0  0  0
  147.1135  141.6567  154.6274 C   0  0  0  0  0  0  0  0  0  0  0  0
  146.9873  140.3795  153.8339 C   0  0  2  0  0  0  0  0  0  0  0  0
  146.7130  139.0688  154.5503 C   0  0  0  0  0  0  0  0  0  0  0  0
  153.0577  140.3597  158.8126 C   0  0  0  0  0  0  0  0  0  0  0  0
  153.6318  141.3821  160.1009 S   0  0  0  0  0  0  0  0  0  0  0  0
  153.1407  143.4778  162.0036 H   0  0  0  0  0  0  0  0  0  0  0  0
  151.4367  143.7377  161.6369 H   0  0  0  0  0  0  0  0  0  0  0  0
  152.5090  145.1153  161.8704 H   0  0  0  0  0  0  0  0  0  0  0  0
  153.7947  144.4839  159.8627 H   0  0  0  0  0  0  0  0  0  0  0  0
  152.2091  145.1208  158.1025 H   0  0  0  0  0  0  0  0  0  0  0  0
  151.9481  146.0918  159.5472 H   0  0  0  0  0  0  0  0  0  0  0  0
  150.8459  144.7727  159.1636 H   0  0  0  0  0  0  0  0  0  0  0  0
  151.5853  141.2604  155.9176 H   0  0  0  0  0  0  0  0  0  0  0  0
  152.1854  139.6715  156.2976 H   0  0  0  0  0  0  0  0  0  0  0  0
  150.1335  138.9343  156.9822 H   0  0  0  0  0  0  0  0  0  0  0  0
  149.8581  140.3347  157.9921 H   0  0  0  0  0  0  0  0  0  0  0  0
  148.3390  140.8605  156.3406 H   0  0  0  0  0  0  0  0  0  0  0  0
  148.6099  141.6149  152.9569 H   0  0  0  0  0  0  0  0  0  0  0  0
  147.1031  141.5779  155.7134 H   0  0  0  0  0  0  0  0  0  0  0  0
  146.6444  142.5537  154.2286 H   0  0  0  0  0  0  0  0  0  0  0  0
  146.4670  140.4508  152.8806 H   0  0  0  0  0  0  0  0  0  0  0  0
  147.1466  139.0644  155.5510 H   0  0  0  0  0  0  0  0  0  0  0  0
  147.1327  138.2375  153.9837 H   0  0  0  0  0  0  0  0  0  0  0  0
  145.6379  138.9150  154.6441 H   0  0  0  0  0  0  0  0  0  0  0  0
  153.3290  139.3146  158.7909 H   0  0  0  0  0  0  0  0  0  0  0  0
  1  2  1  0  0  0  0
  1 18  1  0  0  0  0
  1 19  1  0  0  0  0
  1 20  1  0  0  0  0
  2  3  1  0  0  0  0
  2  4  1  0  0  0  0
  2 21  1  0  0  0  0
  3 22  1  0  0  0  0
  3 23  1  0  0  0  0
  3 24  1  0  0  0  0
  4 17  1  0  0  0  0
  4  5  2  0  0  0  0
  5  6  1  0  0  0  0
  6  7  1  0  0  0  0
  6 16  2  0  0  0  0
  7  8  1  0  0  0  0
  7 25  1  0  0  0  0
  7 26  1  0  0  0  0
  8  9  1  0  0  0  0
  8 27  1  0  0  0  0
  8 28  1  0  0  0  0
  9 10  1  0  0  0  0
  9 29  1  0  0  0  0
 10 11  2  0  0  0  0
 10 12  1  0  0  0  0
 12 14  1  0  0  0  0
 12 13  1  0  0  0  0
 12 30  1  0  0  0  0
 13 14  1  0  0  0  0
 13 31  1  0  0  0  0
 13 32  1  0  0  0  0
 14 15  1  0  0  0  0
 14 33  1  0  0  0  0
 15 34  1  0  0  0  0
 15 35  1  0  0  0  0
 15 36  1  0  0  0  0
 16 17  1  0  0  0  0
 16 37  1  0  0  0  0
M  END
> <s_m_source_file>
AV-unprocessed.smi

> <i_m_source_file_index>
3243

> <i_lp_mmshare_version>
43012

> <i_f3d_flags>
0

> <s_epik_input>
W0NIM11bQ0hdKFtDSDNdKWMxbmMoW2NIXXMxKVtDSDJdW0NIMl1bTkhdQyg9TylbQ0BASF0yW0NIMl1bQ0BIXTJbQ0gzXQ==

> <s_epik_cmdline>
J2VwaWtfcHl0aG9uJywgJy1waCcsICc3LjAnLCAnLXRuJywgJzgnLCAnLW1hJywgJzIwMCcsICctbWV0YWxfYmluZGluZycsICctaW1hZScsICc8aW5maWxlLm1hZT4nLCAnLW9tYWUnLCAnPG91dGZpbGUubWFlPic=

> <r_epik_Ionization_Penalty>
0.00084212

> <r_epik_Ionization_Penalty_Charging>
0

> <r_epik_Ionization_Penalty_Neutral>
0.00084212

> <r_epik_State_Penalty>
0.000542609

> <r_epik_Charging_Adjusted_Penalty>
0.000542609

> <i_epik_Tot_Q>
0

> <i_epik_Tot_abs_Q>
0

> <r_epik_Metal_State_Penalty>
-0

> <b_epik_Metal_Only>
0

> <s_lp_Force_Field>
OPLS_2005

> <r_lp_Energy>
-0.500157

> <b_lp_Chiralities_Consistent>
1

> <s_lp_Variant>
AV-unprocessed.smi:3243-3

> <Gold.Version>
5.8.1

> <Gold.Id.Protein>
6NUR|6NUR_protein|mol2

> <Gold.PLP.Fitness>
40.8595

> <Gold.PLP.PLP>
-39.6559

> <Gold.PLP.part.hbond>
-0.8181

> <Gold.PLP.part.metal>
0.0000

> <Gold.PLP.part.buried>
-4.3281

> <Gold.PLP.part.nonpolar>
-33.9747

> <Gold.PLP.part.repulsive>
0.1792

> <Gold.PLP.ligand.clash>
0.0000

> <Gold.PLP.ligand.torsion>
0.9814

> <Gold.PLP.Chemscore.Hbond>
1.0000

> <Gold.PLP.Chemscore.CHOScore>
0.0000

> <Gold.PLP.Chemscore.Metal>
0.0000

> <Gold.Chemscore.Hbonds>
donor molecule, donor type, donor heavy atom, donor atom, acceptor molecule, acceptor atom, score
      P1  H  7989  7998       L1    11  0.88

> <Gold.PLP.Chemscore.Internal.Correction>
0.1665

> <Gold.Rescore>
     Score         DG    S(hbond)    S(metal)    S(lipo)     H(rot)  DE(clash)    DE(int)     intcor
     15.25     -17.51       0.97        0.00     107.79       1.49       0.27       1.99       ----

> <Gold.Chemscore.Fitness>
15.2530

> <Gold.Chemscore.DG>
-17.5115

> <Gold.Chemscore.ZeroCoef>
-5.4800

> <Gold.Chemscore.Hbond>
0.9660

> <Gold.Chemscore.Metal>
0.0000

> <Gold.Chemscore.Lipo>
107.7923

> <Gold.Chemscore.Internal_Hbond>
0.0000

> <Gold.Chemscore.DEClash>
0.2720

> <Gold.Chemscore.DEInternal>
1.9865

> <Gold.Chemscore.Rot>
1.4870

> <Gold.Chemscore.Internal.Correction>
   9.000000E+99

> <Gold.Chemscore.Hbonds>
donor molecule, donor type, donor heavy atom, donor atom, acceptor molecule, acceptor atom, score
      P1  H  7989  7998       L1    11  0.84

> <Gold.Chemscore.Hbond.Weighted>
-3.2265

> <Gold.Chemscore.Metal.Weighted>
-0.0000

> <Gold.Chemscore.Lipo.Weighted>
-12.6117

> <Gold.Chemscore.Internal_Hbond.Weighted>
0.0000

> <Gold.Chemscore.DEClash.Weighted>
0.2720

> <Gold.Chemscore.DEInternal.Weighted>
1.9865

> <Gold.Chemscore.Rot.Weighted>
3.8067

> <Gold.Chemscore.Internal.Correction.Weighted>
   9.000000E+99

> <Gold.Protein.RotatedTorsions>
[ 6907 6896 6895 6894 ] final  121.95 input  -60.11 | X-H torsion
[ 7974 7965 7964 7962 ] final -133.52 input  175.53 | X-H torsion
[ 8008 7997 7996 7995 ] final  171.36 input   59.86 | X-H torsion
[ 10167 10162 10161 10158 ] final  129.33 input  -65.29 | X-H torsion
[ 10718 10713 10712 10709 ] final -115.35 input   66.30 | X-H torsion
[ 10763 10752 10751 10750 ] final   82.51 input  -60.55 | X-H torsion
[ 11005 11000 10999 10996 ] final  -82.00 input  -57.11 | X-H torsion

> <Gold.Protein.ActiveResidues>
 VAL166  LYS551  ARG553  GLY616  TRP617  ASP618  TYR619  PRO620  LYS621  CYS622 
 ASP623  PHE694  ASN695  SER759  ASP760  ASP761  ALA762  ILE779  LEU786  VAL792 
 PHE793  MET794  SER795  GLU796  ALA797  LYS798  CYS799  TRP800  GLU811  SER814 

> <Gold.Protein.RotatedAtoms>
  152.4282  133.7231  159.6544 H   0  0  0  0  0  0  0  0  0  0  0  0  # atno 6907 bound_to 6896
  150.8159  133.8327  159.3166 H   0  0  0  0  0  0  0  0  0  0  0  0  # atno 6908 bound_to 6896
  151.6024  135.1048  160.0114 H   0  0  0  0  0  0  0  0  0  0  0  0  # atno 6909 bound_to 6896
  144.9185  140.6985  143.4980 H   0  0  0  0  0  0  0  0  0  0  0  0  # atno 7974 bound_to 7965
  156.1278  140.1514  156.9110 H   0  0  0  0  0  0  0  0  0  0  0  0  # atno 8008 bound_to 7997
  154.4885  140.0858  156.7582 H   0  0  0  0  0  0  0  0  0  0  0  0  # atno 8009 bound_to 7997
  155.4311  140.3427  155.4282 H   0  0  0  0  0  0  0  0  0  0  0  0  # atno 8010 bound_to 7997
  139.5483  144.6792  151.4404 H   0  0  0  0  0  0  0  0  0  0  0  0  # atno 10167 bound_to 10162
  156.0890  130.6076  150.8894 H   0  0  0  0  0  0  0  0  0  0  0  0  # atno 10718 bound_to 10713
  153.1209  135.4725  154.9194 H   0  0  0  0  0  0  0  0  0  0  0  0  # atno 10763 bound_to 10752
  154.7574  135.3122  154.8445 H   0  0  0  0  0  0  0  0  0  0  0  0  # atno 10764 bound_to 10752
  153.9010  135.6875  153.4809 H   0  0  0  0  0  0  0  0  0  0  0  0  # atno 10765 bound_to 10752
  141.1665  133.7223  156.8507 H   0  0  0  0  0  0  0  0  0  0  0  0  # atno 11005 bound_to 11000
  145.3335  139.1753  143.4524 LP  0  0  0  0  0  0  0  0  0  0  0  0  # atno 17320 bound_to 7965
  146.3193  140.3367  142.8644 LP  0  0  0  0  0  0  0  0  0  0  0  0  # atno 17321 bound_to 7965
  140.6738  143.8236  150.7032 LP  0  0  0  0  0  0  0  0  0  0  0  0  # atno 17342 bound_to 10162
  140.1668  143.4228  152.2029 LP  0  0  0  0  0  0  0  0  0  0  0  0  # atno 17343 bound_to 10162
  157.6033  131.0940  150.8922 LP  0  0  0  0  0  0  0  0  0  0  0  0  # atno 17370 bound_to 10713
  156.9075  130.5269  149.5281 LP  0  0  0  0  0  0  0  0  0  0  0  0  # atno 17371 bound_to 10713
  140.1918  134.8960  157.3069 LP  0  0  0  0  0  0  0  0  0  0  0  0  # atno 17394 bound_to 11000
  140.2282  134.3941  155.7534 LP  0  0  0  0  0  0  0  0  0  0  0  0  # atno 17395 bound_to 11000

$$$$
