AV-unprocessed.smi:1643|AV-procd|sdf|6576|dock7
  -GOLD-   22720 7263D 1   1.00000     0.00000
 Structure written by MMmdl.
 53 55  0  0  0  0  0  0  0  0  1 V2000
  151.2737  137.4269  159.3855 C   0  0  0  0  0  0  0  0  0  0  0  0
  149.9373  137.3467  158.6436 C   0  0  0  0  0  0  0  0  0  0  0  0
  148.9561  137.8908  159.1508 O   0  0  0  0  0  0  0  0  0  0  0  0
  149.8775  136.6822  157.4645 N   0  0  0  0  0  0  0  0  0  0  0  0
  151.0635  136.0837  156.8416 C   0  0  0  0  0  0  0  0  0  0  0  0
  151.7267  137.0827  155.8793 C   0  0  0  0  0  0  0  0  0  0  0  0
  150.7915  137.6419  154.7861 C   0  0  0  0  0  0  0  0  0  0  0  0
  149.7373  138.5262  155.3026 N   0  0  0  0  0  0  0  0  0  0  0  0
  149.3946  139.5977  154.3644 C   0  0  0  0  0  0  0  0  0  0  0  0
  148.8760  140.8981  155.0128 C   0  0  2  0  0  0  0  0  0  0  0  0
  147.9572  141.5081  154.1270 O   0  0  0  0  0  0  0  0  0  0  0  0
  150.0250  141.8835  155.2968 C   0  0  0  0  0  0  0  0  0  0  0  0
  150.9641  141.3686  156.2768 N   0  0  0  0  0  0  0  0  0  0  0  0
  151.6947  140.2400  156.1942 C   0  0  0  0  0  0  0  0  0  0  0  0
  152.5005  139.9615  157.2153 N   0  0  0  0  0  0  0  0  0  0  0  0
  152.2615  141.0322  158.0601 C   0  0  0  0  0  0  0  0  0  0  0  0
  152.8030  141.3408  159.3272 C   0  0  0  0  0  0  0  0  0  0  0  0
  152.4046  142.5053  160.0218 C   0  0  0  0  0  0  0  0  0  0  0  0
  153.0086  142.7957  161.3846 C   0  0  0  0  0  0  0  0  0  0  0  0
  151.4522  143.3849  159.4470 C   0  0  0  0  0  0  0  0  0  0  0  0
  151.0061  144.6401  160.1759 C   0  0  0  0  0  0  0  0  0  0  0  0
  150.9036  143.0933  158.1807 C   0  0  0  0  0  0  0  0  0  0  0  0
  151.3053  141.9297  157.5017 C   0  0  0  0  0  0  0  0  0  0  0  0
  148.5204  137.7840  155.6654 C   0  0  0  0  0  0  0  0  0  0  0  0
  148.6760  136.5850  156.6281 C   0  0  0  0  0  0  0  0  0  0  0  0
  151.6699  136.4316  159.5858 H   0  0  0  0  0  0  0  0  0  0  0  0
  151.1504  137.9328  160.3435 H   0  0  0  0  0  0  0  0  0  0  0  0
  152.0048  137.9889  158.8044 H   0  0  0  0  0  0  0  0  0  0  0  0
  151.7845  135.7632  157.5953 H   0  0  0  0  0  0  0  0  0  0  0  0
  150.8003  135.1725  156.3035 H   0  0  0  0  0  0  0  0  0  0  0  0
  152.1476  137.9131  156.4480 H   0  0  0  0  0  0  0  0  0  0  0  0
  152.5741  136.5916  155.4005 H   0  0  0  0  0  0  0  0  0  0  0  0
  151.4249  138.1799  154.0832 H   0  0  0  0  0  0  0  0  0  0  0  0
  150.3541  136.8300  154.2033 H   0  0  0  0  0  0  0  0  0  0  0  0
  150.2687  139.8205  153.7505 H   0  0  0  0  0  0  0  0  0  0  0  0
  148.6296  139.2483  153.6690 H   0  0  0  0  0  0  0  0  0  0  0  0
  148.3556  140.6924  155.9472 H   0  0  0  0  0  0  0  0  0  0  0  0
  148.2162  141.3061  153.2410 H   0  0  0  0  0  0  0  0  0  0  0  0
  150.5761  142.0938  154.3793 H   0  0  0  0  0  0  0  0  0  0  0  0
  149.6342  142.8387  155.6512 H   0  0  0  0  0  0  0  0  0  0  0  0
  151.6350  139.5890  155.3340 H   0  0  0  0  0  0  0  0  0  0  0  0
  153.5291  140.6709  159.7642 H   0  0  0  0  0  0  0  0  0  0  0  0
  152.2280  142.8613  162.1427 H   0  0  0  0  0  0  0  0  0  0  0  0
  153.5553  143.7388  161.3665 H   0  0  0  0  0  0  0  0  0  0  0  0
  153.7033  142.0121  161.6876 H   0  0  0  0  0  0  0  0  0  0  0  0
  150.3041  145.2202  159.5757 H   0  0  0  0  0  0  0  0  0  0  0  0
  151.8610  145.2788  160.3996 H   0  0  0  0  0  0  0  0  0  0  0  0
  150.5115  144.3807  161.1123 H   0  0  0  0  0  0  0  0  0  0  0  0
  150.1776  143.7540  157.7304 H   0  0  0  0  0  0  0  0  0  0  0  0
  147.8236  138.4843  156.1273 H   0  0  0  0  0  0  0  0  0  0  0  0
  148.0199  137.4349  154.7609 H   0  0  0  0  0  0  0  0  0  0  0  0
  148.7166  135.6720  156.0334 H   0  0  0  0  0  0  0  0  0  0  0  0
  147.7747  136.4650  157.2296 H   0  0  0  0  0  0  0  0  0  0  0  0
  1  2  1  0  0  0  0
  1 26  1  0  0  0  0
  1 27  1  0  0  0  0
  1 28  1  0  0  0  0
  2  3  2  0  0  0  0
  2  4  1  0  0  0  0
  4 25  1  0  0  0  0
  4  5  1  0  0  0  0
  5  6  1  0  0  0  0
  5 29  1  0  0  0  0
  5 30  1  0  0  0  0
  6  7  1  0  0  0  0
  6 31  1  0  0  0  0
  6 32  1  0  0  0  0
  7  8  1  0  0  0  0
  7 33  1  0  0  0  0
  7 34  1  0  0  0  0
  8  9  1  0  0  0  0
  8 24  1  0  0  0  0
  9 10  1  0  0  0  0
  9 35  1  0  0  0  0
  9 36  1  0  0  0  0
 10 11  1  0  0  0  0
 10 12  1  0  0  0  0
 10 37  1  0  0  0  0
 11 38  1  0  0  0  0
 12 13  1  0  0  0  0
 12 39  1  0  0  0  0
 12 40  1  0  0  0  0
 13 23  1  0  0  0  0
 13 14  1  0  0  0  0
 14 15  2  0  0  0  0
 14 41  1  0  0  0  0
 15 16  1  0  0  0  0
 16 23  2  0  0  0  0
 16 17  1  0  0  0  0
 17 18  2  0  0  0  0
 17 42  1  0  0  0  0
 18 19  1  0  0  0  0
 18 20  1  0  0  0  0
 19 43  1  0  0  0  0
 19 44  1  0  0  0  0
 19 45  1  0  0  0  0
 20 21  1  0  0  0  0
 20 22  2  0  0  0  0
 21 46  1  0  0  0  0
 21 47  1  0  0  0  0
 21 48  1  0  0  0  0
 22 23  1  0  0  0  0
 22 49  1  0  0  0  0
 24 25  1  0  0  0  0
 24 50  1  0  0  0  0
 24 51  1  0  0  0  0
 25 52  1  0  0  0  0
 25 53  1  0  0  0  0
M  END
> <s_m_source_file>
AV-unprocessed.smi

> <i_m_source_file_index>
1643

> <i_lp_mmshare_version>
43012

> <i_f3d_flags>
0

> <s_epik_input>
W0NIM11DKD1PKU4xW0NIMl1bQ0gyXVtDSDJdTihbQ0gyXVtDSDJdMSlbQ0gyXVtDQEhdKFtPSF0pW0NIMl1uKFtjSF1uMiljKGMyMylbY0hdYyhbQ0gzXSljKFtjSF0zKVtDSDNd

> <s_epik_cmdline>
J2VwaWtfcHl0aG9uJywgJy1waCcsICc3LjAnLCAnLXRuJywgJzgnLCAnLW1hJywgJzIwMCcsICctbWV0YWxfYmluZGluZycsICctaW1hZScsICc8aW5maWxlLm1hZT4nLCAnLW9tYWUnLCAnPG91dGZpbGUubWFlPic=

> <r_epik_Ionization_Penalty>
1.17666

> <r_epik_Ionization_Penalty_Charging>
0

> <r_epik_Ionization_Penalty_Neutral>
1.17666

> <r_epik_State_Penalty>
1.20405

> <r_epik_Charging_Adjusted_Penalty>
1.20405

> <i_epik_Tot_Q>
0

> <i_epik_Tot_abs_Q>
0

> <r_epik_Metal_State_Penalty>
1.13307

> <b_epik_Metal_Only>
0

> <s_lp_Force_Field>
OPLS_2005

> <r_lp_Energy>
48.9616

> <b_lp_Chiralities_Consistent>
1

> <s_lp_Variant>
AV-unprocessed.smi:1643-5

> <Gold.Version>
5.8.1

> <Gold.Id.Protein>
6NUR|6NUR_protein|mol2

> <Gold.PLP.Fitness>
44.9763

> <Gold.PLP.PLP>
-43.3850

> <Gold.PLP.part.hbond>
-2.8807

> <Gold.PLP.part.metal>
0.0000

> <Gold.PLP.part.buried>
-4.5684

> <Gold.PLP.part.nonpolar>
-36.3297

> <Gold.PLP.part.repulsive>
0.0698

> <Gold.PLP.ligand.clash>
0.0000

> <Gold.PLP.ligand.torsion>
0.7168

> <Gold.PLP.Chemscore.Hbond>
1.0000

> <Gold.PLP.Chemscore.CHOScore>
0.0000

> <Gold.PLP.Chemscore.Metal>
0.0000

> <Gold.Chemscore.Hbonds>
donor molecule, donor type, donor heavy atom, donor atom, acceptor molecule, acceptor atom, score
      P1  H  7997  8008       L1    15  1.00

> <Gold.PLP.Chemscore.Internal.Correction>
0.0250

> <Gold.Rescore>
     Score         DG    S(hbond)    S(metal)    S(lipo)     H(rot)  DE(clash)    DE(int)     intcor
     13.84     -16.93       0.78        0.00     120.83       2.07       0.15       2.94       ----

> <Gold.Chemscore.Fitness>
13.8409

> <Gold.Chemscore.DG>
-16.9283

> <Gold.Chemscore.ZeroCoef>
-5.4800

> <Gold.Chemscore.Hbond>
0.7776

> <Gold.Chemscore.Metal>
0.0000

> <Gold.Chemscore.Lipo>
120.8333

> <Gold.Chemscore.Internal_Hbond>
0.0000

> <Gold.Chemscore.DEClash>
0.1463

> <Gold.Chemscore.DEInternal>
2.9410

> <Gold.Chemscore.Rot>
2.0650

> <Gold.Chemscore.Internal.Correction>
   9.000000E+99

> <Gold.Chemscore.Hbonds>
donor molecule, donor type, donor heavy atom, donor atom, acceptor molecule, acceptor atom, score
      P1  H  7997  8008       L1    15  0.38

> <Gold.Chemscore.Hbond.Weighted>
-2.5972

> <Gold.Chemscore.Metal.Weighted>
-0.0000

> <Gold.Chemscore.Lipo.Weighted>
-14.1375

> <Gold.Chemscore.Internal_Hbond.Weighted>
0.0000

> <Gold.Chemscore.DEClash.Weighted>
0.1463

> <Gold.Chemscore.DEInternal.Weighted>
2.9410

> <Gold.Chemscore.Rot.Weighted>
5.2865

> <Gold.Chemscore.Internal.Correction.Weighted>
   9.000000E+99

> <Gold.Protein.RotatedTorsions>
[ 6907 6896 6895 6894 ] final   37.44 input  -60.11 | X-H torsion
[ 7974 7965 7964 7962 ] final  122.55 input  175.53 | X-H torsion
[ 8008 7997 7996 7995 ] final  -73.89 input   59.86 | X-H torsion
[ 10167 10162 10161 10158 ] final -161.82 input  -65.29 | X-H torsion
[ 10718 10713 10712 10709 ] final  -63.60 input   66.30 | X-H torsion
[ 10763 10752 10751 10750 ] final -166.39 input  -60.55 | X-H torsion
[ 11005 11000 10999 10996 ] final   77.94 input  -57.11 | X-H torsion

> <Gold.Protein.ActiveResidues>
 VAL166  LYS551  ARG553  GLY616  TRP617  ASP618  TYR619  PRO620  LYS621  CYS622 
 ASP623  PHE694  ASN695  SER759  ASP760  ASP761  ALA762  ILE779  LEU786  VAL792 
 PHE793  MET794  SER795  GLU796  ALA797  LYS798  CYS799  TRP800  GLU811  SER814 

> <Gold.Protein.RotatedAtoms>
  152.1432  134.9046  160.0552 H   0  0  0  0  0  0  0  0  0  0  0  0  # atno 6907 bound_to 6896
  152.0106  133.3855  159.4226 H   0  0  0  0  0  0  0  0  0  0  0  0  # atno 6908 bound_to 6896
  150.6867  134.3656  159.5013 H   0  0  0  0  0  0  0  0  0  0  0  0  # atno 6909 bound_to 6896
  145.1062  139.3484  143.4786 H   0  0  0  0  0  0  0  0  0  0  0  0  # atno 7974 bound_to 7965
  154.5285  140.0771  156.8301 H   0  0  0  0  0  0  0  0  0  0  0  0  # atno 8008 bound_to 7997
  155.3426  140.3408  155.4221 H   0  0  0  0  0  0  0  0  0  0  0  0  # atno 8009 bound_to 7997
  156.1756  140.1634  156.8355 H   0  0  0  0  0  0  0  0  0  0  0  0  # atno 8010 bound_to 7997
  139.6437  144.0212  152.2111 H   0  0  0  0  0  0  0  0  0  0  0  0  # atno 10167 bound_to 10162
  156.0781  130.4223  150.1301 H   0  0  0  0  0  0  0  0  0  0  0  0  # atno 10718 bound_to 10713
  154.6837  135.2959  154.9577 H   0  0  0  0  0  0  0  0  0  0  0  0  # atno 10763 bound_to 10752
  154.0563  135.6637  153.4810 H   0  0  0  0  0  0  0  0  0  0  0  0  # atno 10764 bound_to 10752
  153.0565  135.5142  154.7894 H   0  0  0  0  0  0  0  0  0  0  0  0  # atno 10765 bound_to 10752
  139.9233  134.7723  156.1586 H   0  0  0  0  0  0  0  0  0  0  0  0  # atno 11005 bound_to 11000
  146.3528  140.0962  142.8610 LP  0  0  0  0  0  0  0  0  0  0  0  0  # atno 17320 bound_to 7965
  145.0898  140.9277  143.4775 LP  0  0  0  0  0  0  0  0  0  0  0  0  # atno 17321 bound_to 7965
  139.9908  144.6363  150.7816 LP  0  0  0  0  0  0  0  0  0  0  0  0  # atno 17342 bound_to 10162
  140.7504  143.2954  151.3218 LP  0  0  0  0  0  0  0  0  0  0  0  0  # atno 17343 bound_to 10162
  156.9338  130.9722  151.3528 LP  0  0  0  0  0  0  0  0  0  0  0  0  # atno 17370 bound_to 10713
  157.5885  130.8427  149.8625 LP  0  0  0  0  0  0  0  0  0  0  0  0  # atno 17371 bound_to 10713
  141.0772  133.6770  156.2260 LP  0  0  0  0  0  0  0  0  0  0  0  0  # atno 17394 bound_to 11000
  140.6409  134.5167  157.5569 LP  0  0  0  0  0  0  0  0  0  0  0  0  # atno 17395 bound_to 11000

$$$$
