AV-unprocessed.smi:242|AV-procd|sdf|1844|dock3
  -GOLD-   2262020463D 1   1.00000     0.00000
 Structure written by MMmdl.
 58 61  0  0  0  0  0  0  0  0  2 V2000
  146.3836  128.9146  151.6536 C   0  0  0  0  0  0  0  0  0  0  0  0
  146.6911  130.2607  152.3386 C   0  0  0  0  0  0  0  0  0  0  0  0
  146.2588  131.4135  151.4117 C   0  0  0  0  0  0  0  0  0  0  0  0
  148.1307  130.3797  152.7064 N   0  3  2  0  0  0  0  0  0  0  0  0
  148.6813  129.2698  153.5239 C   0  0  0  0  0  0  0  0  0  0  0  0
  149.8436  129.8702  154.3112 C   0  0  0  0  0  0  0  0  0  0  0  0
  149.2934  131.2542  154.6391 C   0  0  1  0  0  0  0  0  0  0  0  0
  150.2852  132.2416  155.0799 N   0  0  0  0  0  0  0  0  0  0  0  0
  151.5207  131.8100  155.7290 C   0  0  0  0  0  0  0  0  0  0  0  0
  149.8885  133.5175  155.3360 C   0  0  0  0  0  0  0  0  0  0  0  0
  148.6636  133.9358  154.9179 N   0  0  0  0  0  0  0  0  0  0  0  0
  148.2516  135.1828  155.1624 C   0  0  0  0  0  0  0  0  0  0  0  0
  148.8962  136.1646  155.7940 N   0  0  0  0  0  0  0  0  0  0  0  0
  150.1280  135.7577  156.2135 C   0  0  0  0  0  0  0  0  0  0  0  0
  150.6979  134.4656  156.0281 C   0  0  0  0  0  0  0  0  0  0  0  0
  151.9766  134.4346  156.5734 N   0  0  0  0  0  0  0  0  0  0  0  0
  152.1506  135.6349  157.0538 C   0  0  0  0  0  0  0  0  0  0  0  0
  151.0866  136.4921  156.8899 N   0  0  0  0  0  0  0  0  0  0  0  0
  151.0130  137.8809  157.3172 C   0  0  0  0  0  0  0  0  0  0  0  0
  151.8405  138.8642  156.4446 C   0  0  0  0  0  0  0  0  0  0  0  0
  153.1271  138.9719  157.0237 O   0  0  0  0  0  0  0  0  0  0  0  0
  152.0280  138.4113  154.9810 C   0  0  0  0  0  0  0  0  0  0  0  0
  150.7180  138.5409  154.1853 C   0  0  0  0  0  0  0  0  0  0  0  0
  150.2545  139.8860  154.2361 O   0  0  0  0  0  0  0  0  0  0  0  0
  149.9535  140.3278  155.5557 C   0  0  0  0  0  0  0  0  0  0  0  0
  151.2166  140.2738  156.4353 C   0  0  0  0  0  0  0  0  0  0  0  0
  148.5116  131.6496  153.3787 C   0  0  0  0  0  0  0  0  0  0  0  0
  145.3370  128.8616  151.3521 H   0  0  0  0  0  0  0  0  0  0  0  0
  146.5616  128.0658  152.3137 H   0  0  0  0  0  0  0  0  0  0  0  0
  146.9913  128.7761  150.7585 H   0  0  0  0  0  0  0  0  0  0  0  0
  146.1023  130.3151  153.2557 H   0  0  0  0  0  0  0  0  0  0  0  0
  145.2105  131.3134  151.1281 H   0  0  0  0  0  0  0  0  0  0  0  0
  146.8473  131.4245  150.4937 H   0  0  0  0  0  0  0  0  0  0  0  0
  146.3646  132.3895  151.8840 H   0  0  0  0  0  0  0  0  0  0  0  0
  147.9226  128.9150  154.2241 H   0  0  0  0  0  0  0  0  0  0  0  0
  148.9922  128.4274  152.9053 H   0  0  0  0  0  0  0  0  0  0  0  0
  150.0973  129.2902  155.1988 H   0  0  0  0  0  0  0  0  0  0  0  0
  150.7304  129.9333  153.6800 H   0  0  0  0  0  0  0  0  0  0  0  0
  148.5462  131.1336  155.4255 H   0  0  0  0  0  0  0  0  0  0  0  0
  151.6785  132.3343  156.6726 H   0  0  0  0  0  0  0  0  0  0  0  0
  152.3741  132.0061  155.0798 H   0  0  0  0  0  0  0  0  0  0  0  0
  151.5084  130.7429  155.9489 H   0  0  0  0  0  0  0  0  0  0  0  0
  147.2650  135.4300  154.7994 H   0  0  0  0  0  0  0  0  0  0  0  0
  153.0655  135.9289  157.5472 H   0  0  0  0  0  0  0  0  0  0  0  0
  149.9608  138.1638  157.3290 H   0  0  0  0  0  0  0  0  0  0  0  0
  151.3438  137.9337  158.3556 H   0  0  0  0  0  0  0  0  0  0  0  0
  153.1791  138.3765  157.7555 H   0  0  0  0  0  0  0  0  0  0  0  0
  152.7792  139.0391  154.4994 H   0  0  0  0  0  0  0  0  0  0  0  0
  152.4138  137.3941  154.9222 H   0  0  0  0  0  0  0  0  0  0  0  0
  150.8874  138.2703  153.1432 H   0  0  0  0  0  0  0  0  0  0  0  0
  149.9524  137.8635  154.5652 H   0  0  0  0  0  0  0  0  0  0  0  0
  149.5823  141.3512  155.5036 H   0  0  0  0  0  0  0  0  0  0  0  0
  149.1475  139.7260  155.9768 H   0  0  0  0  0  0  0  0  0  0  0  0
  150.9848  140.5998  157.4499 H   0  0  0  0  0  0  0  0  0  0  0  0
  151.9373  140.9921  156.0412 H   0  0  0  0  0  0  0  0  0  0  0  0
  149.1132  132.2276  152.6777 H   0  0  0  0  0  0  0  0  0  0  0  0
  147.6524  132.2620  153.6546 H   0  0  0  0  0  0  0  0  0  0  0  0
  148.6508  130.3641  151.8408 H   0  0  0  0  0  0  0  0  0  0  0  0
  1  2  1  0  0  0  0
  1 28  1  0  0  0  0
  1 29  1  0  0  0  0
  1 30  1  0  0  0  0
  2  3  1  0  0  0  0
  2  4  1  0  0  0  0
  2 31  1  0  0  0  0
  3 32  1  0  0  0  0
  3 33  1  0  0  0  0
  3 34  1  0  0  0  0
  4 27  1  0  0  0  0
  4  5  1  0  0  0  0
  4 58  1  0  0  0  0
  5  6  1  0  0  0  0
  5 35  1  0  0  0  0
  5 36  1  0  0  0  0
  6  7  1  0  0  0  0
  6 37  1  0  0  0  0
  6 38  1  0  0  0  0
  7  8  1  0  0  0  0
  7 27  1  0  0  0  0
  7 39  1  0  0  0  0
  8  9  1  0  0  0  0
  8 10  1  0  0  0  0
  9 40  1  0  0  0  0
  9 41  1  0  0  0  0
  9 42  1  0  0  0  0
 10 15  1  0  0  0  0
 10 11  2  0  0  0  0
 11 12  1  0  0  0  0
 12 13  2  0  0  0  0
 12 43  1  0  0  0  0
 13 14  1  0  0  0  0
 14 18  1  0  0  0  0
 14 15  2  0  0  0  0
 15 16  1  0  0  0  0
 16 17  2  0  0  0  0
 17 18  1  0  0  0  0
 17 44  1  0  0  0  0
 18 19  1  0  0  0  0
 19 20  1  0  0  0  0
 19 45  1  0  0  0  0
 19 46  1  0  0  0  0
 20 26  1  0  0  0  0
 20 21  1  0  0  0  0
 20 22  1  0  0  0  0
 21 47  1  0  0  0  0
 22 23  1  0  0  0  0
 22 48  1  0  0  0  0
 22 49  1  0  0  0  0
 23 24  1  0  0  0  0
 23 50  1  0  0  0  0
 23 51  1  0  0  0  0
 24 25  1  0  0  0  0
 25 26  1  0  0  0  0
 25 52  1  0  0  0  0
 25 53  1  0  0  0  0
 26 54  1  0  0  0  0
 26 55  1  0  0  0  0
 27 56  1  0  0  0  0
 27 57  1  0  0  0  0
M  CHG  1   4   1
M  END
> <s_m_source_file>
AV-unprocessed.smi

> <i_m_source_file_index>
242

> <i_lp_mmshare_version>
43012

> <i_f3d_flags>
0

> <s_epik_input>
W0NIM11bQ0hdKFtDSDNdKU4xW0NIMl1bQ0gyXVtDQEhdKFtDSDJdMSlOKFtDSDNdKWMobltjSF1uMiljKGMyMyluW2NIXW4zW0NIMl1DNChbT0hdKVtDSDJdW0NIMl1PW0NIMl1bQ0gyXTQ=

> <s_epik_cmdline>
J2VwaWtfcHl0aG9uJywgJy1waCcsICc3LjAnLCAnLXRuJywgJzgnLCAnLW1hJywgJzIwMCcsICctbWV0YWxfYmluZGluZycsICctaW1hZScsICc8aW5maWxlLm1hZT4nLCAnLW9tYWUnLCAnPG91dGZpbGUubWFlPic=

> <r_lp_tautomer_probability>
1

> <r_epik_Ionization_Penalty>
0.000825961

> <r_epik_Ionization_Penalty_Charging>
0.00034898

> <r_epik_Ionization_Penalty_Neutral>
0.000476981

> <r_epik_State_Penalty>
-0

> <r_epik_Charging_Adjusted_Penalty>
0.00034898

> <i_epik_Tot_Q>
1

> <i_epik_Tot_abs_Q>
1

> <r_epik_Metal_State_Penalty>
-0

> <b_epik_Metal_Only>
0

> <s_lp_Force_Field>
OPLS_2005

> <r_lp_Energy>
46.8911

> <b_lp_Chiralities_Consistent>
1

> <s_lp_Variant>
AV-unprocessed.smi:242-1

> <Gold.Version>
5.8.1

> <Gold.Id.Protein>
6NUR|6NUR_protein|mol2

> <Gold.PLP.Fitness>
49.8987

> <Gold.PLP.PLP>
-42.6469

> <Gold.PLP.part.hbond>
-3.9457

> <Gold.PLP.part.metal>
0.0000

> <Gold.PLP.part.buried>
-5.3352

> <Gold.PLP.part.nonpolar>
-34.4751

> <Gold.PLP.part.repulsive>
0.2476

> <Gold.PLP.ligand.clash>
0.0000

> <Gold.PLP.ligand.torsion>
1.2307

> <Gold.PLP.Chemscore.Hbond>
2.9913

> <Gold.PLP.Chemscore.CHOScore>
0.0000

> <Gold.PLP.Chemscore.Metal>
0.0000

> <Gold.Chemscore.Hbonds>
donor molecule, donor type, donor heavy atom, donor atom, acceptor molecule, acceptor atom, score
      L1  H     4    58       P1 10747  1.00
      P1  H  7989  7998       L1    24  1.00
      P1  H  7997  8008       L1    21  0.86

> <Gold.PLP.Chemscore.Internal.Correction>
0.7396

> <Gold.Rescore>
     Score         DG    S(hbond)    S(metal)    S(lipo)     H(rot)  DE(clash)    DE(int)     intcor
     15.45     -19.76       2.73        0.00      92.67       2.22       0.03       4.28       ----

> <Gold.Chemscore.Fitness>
15.4498

> <Gold.Chemscore.DG>
-19.7555

> <Gold.Chemscore.ZeroCoef>
-5.4800

> <Gold.Chemscore.Hbond>
2.7322

> <Gold.Chemscore.Metal>
0.0000

> <Gold.Chemscore.Lipo>
92.6651

> <Gold.Chemscore.Internal_Hbond>
0.0000

> <Gold.Chemscore.DEClash>
0.0288

> <Gold.Chemscore.DEInternal>
4.2769

> <Gold.Chemscore.Rot>
2.2234

> <Gold.Chemscore.Internal.Correction>
   9.000000E+99

> <Gold.Chemscore.Hbonds>
donor molecule, donor type, donor heavy atom, donor atom, acceptor molecule, acceptor atom, score
      L1  H     4    58       P1 10747  0.59
      P1  H  7989  7998       L1    24  0.36
      P1  H  7997  8008       L1    21  0.55

> <Gold.Chemscore.Hbond.Weighted>
-9.1256

> <Gold.Chemscore.Metal.Weighted>
-0.0000

> <Gold.Chemscore.Lipo.Weighted>
-10.8418

> <Gold.Chemscore.Internal_Hbond.Weighted>
0.0000

> <Gold.Chemscore.DEClash.Weighted>
0.0288

> <Gold.Chemscore.DEInternal.Weighted>
4.2769

> <Gold.Chemscore.Rot.Weighted>
5.6919

> <Gold.Chemscore.Internal.Correction.Weighted>
   9.000000E+99

> <Gold.Protein.RotatedTorsions>
[ 6907 6896 6895 6894 ] final   70.87 input  -60.11 | X-H torsion
[ 7974 7965 7964 7962 ] final  170.55 input  175.53 | X-H torsion
[ 8008 7997 7996 7995 ] final  -88.76 input   59.86 | X-H torsion
[ 10167 10162 10161 10158 ] final  103.02 input  -65.29 | X-H torsion
[ 10718 10713 10712 10709 ] final  104.69 input   66.30 | X-H torsion
[ 10763 10752 10751 10750 ] final  176.59 input  -60.55 | X-H torsion
[ 11005 11000 10999 10996 ] final  126.39 input  -57.11 | X-H torsion

> <Gold.Protein.ActiveResidues>
 VAL166  LYS551  ARG553  GLY616  TRP617  ASP618  TYR619  PRO620  LYS621  CYS622 
 ASP623  PHE694  ASN695  SER759  ASP760  ASP761  ALA762  ILE779  LEU786  VAL792 
 PHE793  MET794  SER795  GLU796  ALA797  LYS798  CYS799  TRP800  GLU811  SER814 

> <Gold.Protein.RotatedAtoms>
  152.4776  134.4804  159.9663 H   0  0  0  0  0  0  0  0  0  0  0  0  # atno 6907 bound_to 6896
  151.4817  133.3539  159.2847 H   0  0  0  0  0  0  0  0  0  0  0  0  # atno 6908 bound_to 6896
  150.8825  134.8245  159.7296 H   0  0  0  0  0  0  0  0  0  0  0  0  # atno 6909 bound_to 6896
  144.7320  139.9218  143.6420 H   0  0  0  0  0  0  0  0  0  0  0  0  # atno 7974 bound_to 7965
  154.6786  140.0550  157.0242 H   0  0  0  0  0  0  0  0  0  0  0  0  # atno 8008 bound_to 7997
  155.0984  140.3226  155.4535 H   0  0  0  0  0  0  0  0  0  0  0  0  # atno 8009 bound_to 7997
  156.2685  140.2035  156.6111 H   0  0  0  0  0  0  0  0  0  0  0  0  # atno 8010 bound_to 7997
  139.7299  144.7038  151.0738 H   0  0  0  0  0  0  0  0  0  0  0  0  # atno 10167 bound_to 10162
  157.6731  131.0810  150.5745 H   0  0  0  0  0  0  0  0  0  0  0  0  # atno 10718 bound_to 10713
  154.4832  135.2776  155.1555 H   0  0  0  0  0  0  0  0  0  0  0  0  # atno 10763 bound_to 10752
  154.3256  135.6200  153.5531 H   0  0  0  0  0  0  0  0  0  0  0  0  # atno 10764 bound_to 10752
  152.9878  135.5753  154.5237 H   0  0  0  0  0  0  0  0  0  0  0  0  # atno 10765 bound_to 10752
  139.9453  134.9630  156.8699 H   0  0  0  0  0  0  0  0  0  0  0  0  # atno 11005 bound_to 11000
  146.0923  139.3914  143.0398 LP  0  0  0  0  0  0  0  0  0  0  0  0  # atno 17320 bound_to 7965
  145.7693  140.9903  143.1158 LP  0  0  0  0  0  0  0  0  0  0  0  0  # atno 17321 bound_to 7965
  140.7769  143.5056  150.9716 LP  0  0  0  0  0  0  0  0  0  0  0  0  # atno 17342 bound_to 10162
  139.8744  143.7151  152.3163 LP  0  0  0  0  0  0  0  0  0  0  0  0  # atno 17343 bound_to 10162
  156.6046  130.4363  149.5883 LP  0  0  0  0  0  0  0  0  0  0  0  0  # atno 17370 bound_to 10713
  156.2479  130.6890  151.1617 LP  0  0  0  0  0  0  0  0  0  0  0  0  # atno 17371 bound_to 10713
  140.5849  134.0317  155.7478 LP  0  0  0  0  0  0  0  0  0  0  0  0  # atno 17394 bound_to 11000
  141.1102  133.9629  157.2924 LP  0  0  0  0  0  0  0  0  0  0  0  0  # atno 17395 bound_to 11000

$$$$
