AV-unprocessed.smi:2997|AV-procd|sdf|11415|dock6
  -GOLD-   2272016333D 1   1.00000     0.00000
 Structure written by MMmdl.
 39 41  0  0  0  0  0  0  0  0  2 V2000
  152.3542  143.3558  161.5127 C   0  0  0  0  0  0  0  0  0  0  0  0
  152.1988  142.6777  160.1621 C   0  0  0  0  0  0  0  0  0  0  0  0
  151.3187  143.2516  159.2166 C   0  0  0  0  0  0  0  0  0  0  0  0
  151.1959  142.6067  157.9916 C   0  0  0  0  0  0  0  0  0  0  0  0
  150.4235  142.9123  156.8687 N   0  3  0  0  0  0  0  0  0  0  0  0
  150.6369  141.9767  155.9021 C   0  0  0  0  0  0  0  0  0  0  0  0
  151.5351  141.0795  156.3916 N   0  0  0  0  0  0  0  0  0  0  0  0
  152.1059  139.8762  155.7726 C   0  0  0  0  0  0  0  0  0  0  0  0
  151.0268  138.9113  155.2456 C   0  0  1  0  0  0  0  0  0  0  0  0
  150.3120  139.5317  154.1925 O   0  0  0  0  0  0  0  0  0  0  0  0
  151.6302  137.5796  154.7600 C   0  0  0  0  0  0  0  0  0  0  0  0
  150.9398  136.4231  155.3026 N   0  0  0  0  0  0  0  0  0  0  0  0
  149.6538  135.9942  155.0498 C   0  0  0  0  0  0  0  0  0  0  0  0
  149.4509  134.8628  155.7871 C   0  0  0  0  0  0  0  0  0  0  0  0
  150.6878  134.6753  156.4654 C   0  0  0  0  0  0  0  0  0  0  0  0
  151.5783  135.6085  156.1705 N   0  0  0  0  0  0  0  0  0  0  0  0
  151.9118  141.4319  157.6915 C   0  0  0  0  0  0  0  0  0  0  0  0
  152.7831  140.8530  158.6107 C   0  0  0  0  0  0  0  0  0  0  0  0
  152.9216  141.4936  159.8627 C   0  0  0  0  0  0  0  0  0  0  0  0
  153.8635  140.8842  160.8874 C   0  0  0  0  0  0  0  0  0  0  0  0
  151.7574  144.2664  161.5729 H   0  0  0  0  0  0  0  0  0  0  0  0
  153.3950  143.6285  161.6883 H   0  0  0  0  0  0  0  0  0  0  0  0
  152.0297  142.6903  162.3130 H   0  0  0  0  0  0  0  0  0  0  0  0
  150.7643  144.1518  159.4380 H   0  0  0  0  0  0  0  0  0  0  0  0
  150.1735  141.9488  154.9265 H   0  0  0  0  0  0  0  0  0  0  0  0
  152.7575  140.2004  154.9600 H   0  0  0  0  0  0  0  0  0  0  0  0
  152.7463  139.3839  156.5057 H   0  0  0  0  0  0  0  0  0  0  0  0
  150.3156  138.7037  156.0460 H   0  0  0  0  0  0  0  0  0  0  0  0
  149.9003  138.8597  153.6713 H   0  0  0  0  0  0  0  0  0  0  0  0
  151.6031  137.5223  153.6710 H   0  0  0  0  0  0  0  0  0  0  0  0
  152.6803  137.5150  155.0488 H   0  0  0  0  0  0  0  0  0  0  0  0
  148.9968  136.5243  154.3762 H   0  0  0  0  0  0  0  0  0  0  0  0
  148.5556  134.2610  155.8348 H   0  0  0  0  0  0  0  0  0  0  0  0
  150.9634  133.8932  157.1576 H   0  0  0  0  0  0  0  0  0  0  0  0
  153.3306  139.9504  158.3827 H   0  0  0  0  0  0  0  0  0  0  0  0
  154.3393  139.9808  160.5047 H   0  0  0  0  0  0  0  0  0  0  0  0
  153.3207  140.6157  161.7940 H   0  0  0  0  0  0  0  0  0  0  0  0
  154.6523  141.5893  161.1506 H   0  0  0  0  0  0  0  0  0  0  0  0
  149.7942  143.6983  156.7678 H   0  0  0  0  0  0  0  0  0  0  0  0
  1  2  1  0  0  0  0
  1 21  1  0  0  0  0
  1 22  1  0  0  0  0
  1 23  1  0  0  0  0
  2 19  1  0  0  0  0
  2  3  2  0  0  0  0
  3  4  1  0  0  0  0
  3 24  1  0  0  0  0
  4 17  2  0  0  0  0
  4  5  1  0  0  0  0
  5  6  2  0  0  0  0
  5 39  1  0  0  0  0
  6  7  1  0  0  0  0
  6 25  1  0  0  0  0
  7  8  1  0  0  0  0
  7 17  1  0  0  0  0
  8  9  1  0  0  0  0
  8 26  1  0  0  0  0
  8 27  1  0  0  0  0
  9 10  1  0  0  0  0
  9 11  1  0  0  0  0
  9 28  1  0  0  0  0
 10 29  1  0  0  0  0
 11 12  1  0  0  0  0
 11 30  1  0  0  0  0
 11 31  1  0  0  0  0
 12 16  1  0  0  0  0
 12 13  1  0  0  0  0
 13 14  2  0  0  0  0
 13 32  1  0  0  0  0
 14 15  1  0  0  0  0
 14 33  1  0  0  0  0
 15 16  2  0  0  0  0
 15 34  1  0  0  0  0
 17 18  1  0  0  0  0
 18 19  2  0  0  0  0
 18 35  1  0  0  0  0
 19 20  1  0  0  0  0
 20 36  1  0  0  0  0
 20 37  1  0  0  0  0
 20 38  1  0  0  0  0
M  CHG  1   5   1
M  END
> <s_m_source_file>
AV-unprocessed.smi

> <i_m_source_file_index>
2997

> <i_lp_mmshare_version>
43012

> <i_f3d_flags>
0

> <s_epik_input>
W0NIM11jKFtjSF0xKWMoW0NIM10pW2NIXWMoYzEyKW4oW2NIXW4yKVtDSDJdW0NASF0oW09IXSlbQ0gyXW4zW2NIXVtjSF1bY0hdbjM=

> <s_epik_cmdline>
J2VwaWtfcHl0aG9uJywgJy1waCcsICc3LjAnLCAnLXRuJywgJzgnLCAnLW1hJywgJzIwMCcsICctbWV0YWxfYmluZGluZycsICctaW1hZScsICc8aW5maWxlLm1hZT4nLCAnLW9tYWUnLCAnPG91dGZpbGUubWFlPic=

> <r_lp_tautomer_probability>
1

> <r_epik_Ionization_Penalty>
1.09215

> <r_epik_Ionization_Penalty_Charging>
1.09214

> <r_epik_Ionization_Penalty_Neutral>
1.42327e-05

> <r_epik_State_Penalty>
1.14852

> <r_epik_Charging_Adjusted_Penalty>
2.24066

> <i_epik_Tot_Q>
1

> <i_epik_Tot_abs_Q>
1

> <r_epik_Metal_State_Penalty>
1.23686

> <b_epik_Metal_Only>
0

> <s_lp_Force_Field>
OPLS_2005

> <r_lp_Energy>
12.1799

> <b_lp_Chiralities_Consistent>
1

> <s_lp_Variant>
AV-unprocessed.smi:2997-4

> <Gold.Version>
5.8.1

> <Gold.Id.Protein>
6NUR|6NUR_protein|mol2

> <Gold.PLP.Fitness>
55.0133

> <Gold.PLP.PLP>
-42.1338

> <Gold.PLP.part.hbond>
-3.6566

> <Gold.PLP.part.metal>
0.0000

> <Gold.PLP.part.buried>
-4.2114

> <Gold.PLP.part.nonpolar>
-32.7043

> <Gold.PLP.part.repulsive>
0.0458

> <Gold.PLP.ligand.clash>
0.0000

> <Gold.PLP.ligand.torsion>
0.7884

> <Gold.PLP.Chemscore.Hbond>
3.9200

> <Gold.PLP.Chemscore.CHOScore>
0.8922

> <Gold.PLP.Chemscore.Metal>
0.0000

> <Gold.Chemscore.Hbonds>
donor molecule, donor type, donor heavy atom, donor atom, acceptor molecule, acceptor atom, score
      L1  H     5    39       P1  8028  1.89
      P1  H  7989  7998       L1    10  1.00
      P1  H 10752 10764       L1    16  0.95
      L1  C    13    32       P1  7948  0.88

> <Gold.PLP.Chemscore.Internal.Correction>
0.0196

> <Gold.Rescore>
     Score         DG    S(hbond)    S(metal)    S(lipo)     H(rot)  DE(clash)    DE(int)     intcor
     18.47     -20.84       2.48        0.00     108.99       2.21       0.30       2.07       ----

> <Gold.Chemscore.Fitness>
18.4722

> <Gold.Chemscore.DG>
-20.8415

> <Gold.Chemscore.ZeroCoef>
-5.4800

> <Gold.Chemscore.Hbond>
2.4773

> <Gold.Chemscore.Metal>
0.0000

> <Gold.Chemscore.Lipo>
108.9927

> <Gold.Chemscore.Internal_Hbond>
0.0000

> <Gold.Chemscore.DEClash>
0.2953

> <Gold.Chemscore.DEInternal>
2.0740

> <Gold.Chemscore.Rot>
2.2129

> <Gold.Chemscore.Internal.Correction>
   9.000000E+99

> <Gold.Chemscore.Hbonds>
donor molecule, donor type, donor heavy atom, donor atom, acceptor molecule, acceptor atom, score
      L1  H     5    39       P1  8028  0.91
      P1  H  7989  7998       L1    10  0.38
      P1  H 10752 10764       L1    16  0.20

> <Gold.Chemscore.Hbond.Weighted>
-8.2742

> <Gold.Chemscore.Metal.Weighted>
-0.0000

> <Gold.Chemscore.Lipo.Weighted>
-12.7521

> <Gold.Chemscore.Internal_Hbond.Weighted>
0.0000

> <Gold.Chemscore.DEClash.Weighted>
0.2953

> <Gold.Chemscore.DEInternal.Weighted>
2.0740

> <Gold.Chemscore.Rot.Weighted>
5.6649

> <Gold.Chemscore.Internal.Correction.Weighted>
   9.000000E+99

> <Gold.Protein.RotatedTorsions>
[ 6907 6896 6895 6894 ] final  -56.47 input  -60.11 | X-H torsion
[ 7974 7965 7964 7962 ] final  -27.12 input  175.53 | X-H torsion
[ 8008 7997 7996 7995 ] final  -37.81 input   59.86 | X-H torsion
[ 10167 10162 10161 10158 ] final   82.50 input  -65.29 | X-H torsion
[ 10718 10713 10712 10709 ] final  164.30 input   66.30 | X-H torsion
[ 10763 10752 10751 10750 ] final  -15.02 input  -60.55 | X-H torsion
[ 11005 11000 10999 10996 ] final  -85.21 input  -57.11 | X-H torsion

> <Gold.Protein.ActiveResidues>
 VAL166  LYS551  ARG553  GLY616  TRP617  ASP618  TYR619  PRO620  LYS621  CYS622 
 ASP623  PHE694  ASN695  SER759  ASP760  ASP761  ALA762  ILE779  LEU786  VAL792 
 PHE793  MET794  SER795  GLU796  ALA797  LYS798  CYS799  TRP800  GLU811  SER814 

> <Gold.Protein.RotatedAtoms>
  150.8165  134.7350  159.6734 H   0  0  0  0  0  0  0  0  0  0  0  0  # atno 6907 bound_to 6896
  152.4283  134.5822  159.9961 H   0  0  0  0  0  0  0  0  0  0  0  0  # atno 6908 bound_to 6896
  151.6017  133.3318  159.3085 H   0  0  0  0  0  0  0  0  0  0  0  0  # atno 6909 bound_to 6896
  146.1379  140.5110  142.8664 H   0  0  0  0  0  0  0  0  0  0  0  0  # atno 7974 bound_to 7965
  154.4047  140.1594  156.2597 H   0  0  0  0  0  0  0  0  0  0  0  0  # atno 8008 bound_to 7997
  155.9047  140.3431  155.6031 H   0  0  0  0  0  0  0  0  0  0  0  0  # atno 8009 bound_to 7997
  155.7406  140.0792  157.2238 H   0  0  0  0  0  0  0  0  0  0  0  0  # atno 8010 bound_to 7997
  139.9282  144.6169  150.8372 H   0  0  0  0  0  0  0  0  0  0  0  0  # atno 10167 bound_to 10162
  157.0962  131.0431  151.2517 H   0  0  0  0  0  0  0  0  0  0  0  0  # atno 10718 bound_to 10713
  153.5370  135.7014  153.5655 H   0  0  0  0  0  0  0  0  0  0  0  0  # atno 10763 bound_to 10752
  153.3638  135.3963  155.1738 H   0  0  0  0  0  0  0  0  0  0  0  0  # atno 10764 bound_to 10752
  154.8678  135.3795  154.4871 H   0  0  0  0  0  0  0  0  0  0  0  0  # atno 10765 bound_to 10752
  141.1643  133.7387  156.8982 H   0  0  0  0  0  0  0  0  0  0  0  0  # atno 11005 bound_to 11000
  144.7760  140.5741  143.6637 LP  0  0  0  0  0  0  0  0  0  0  0  0  # atno 17320 bound_to 7965
  145.5113  139.1479  143.3603 LP  0  0  0  0  0  0  0  0  0  0  0  0  # atno 17321 bound_to 7965
  140.7644  143.3249  151.2539 LP  0  0  0  0  0  0  0  0  0  0  0  0  # atno 17342 bound_to 10162
  139.6804  143.9864  152.2805 LP  0  0  0  0  0  0  0  0  0  0  0  0  # atno 17343 bound_to 10162
  157.4679  130.7691  149.7296 LP  0  0  0  0  0  0  0  0  0  0  0  0  # atno 17370 bound_to 10713
  155.9885  130.3959  150.3115 LP  0  0  0  0  0  0  0  0  0  0  0  0  # atno 17371 bound_to 10713
  140.1601  134.9171  157.2704 LP  0  0  0  0  0  0  0  0  0  0  0  0  # atno 17394 bound_to 11000
  140.2621  134.3559  155.7403 LP  0  0  0  0  0  0  0  0  0  0  0  0  # atno 17395 bound_to 11000

$$$$
