AV-unprocessed.smi:3345|AV-procd|sdf|12905|dock7
  -GOLD-   2272019323D 1   1.00000     0.00000
 Structure written by MMmdl.
 41 42  0  0  0  0  0  0  0  0  2 V2000
  151.6542  135.4470  156.8931 C   0  0  0  0  0  0  0  0  0  0  0  0
  150.1745  135.3575  156.4957 C   0  0  2  0  0  0  0  0  0  0  0  0
  149.9605  135.7840  155.0247 C   0  0  0  0  0  0  0  0  0  0  0  0
  148.9385  134.9645  154.3256 N   0  3  0  0  0  0  0  0  0  0  0  0
  149.2759  133.5230  154.2783 C   0  0  0  0  0  0  0  0  0  0  0  0
  148.2185  132.7590  153.4626 C   0  0  0  0  0  0  0  0  0  0  0  0
  146.9309  132.9725  154.0281 O   0  0  0  0  0  0  0  0  0  0  0  0
  146.5615  134.3463  154.0135 C   0  0  0  0  0  0  0  0  0  0  0  0
  147.5650  135.1568  154.8502 C   0  0  0  0  0  0  0  0  0  0  0  0
  149.3857  136.1835  157.4109 N   0  0  0  0  0  0  0  0  0  0  0  0
  148.6897  135.7447  158.4729 C   0  0  0  0  0  0  0  0  0  0  0  0
  148.6170  134.5556  158.7847 O   0  0  0  0  0  0  0  0  0  0  0  0
  147.9588  136.8134  159.2985 C   0  0  1  0  0  0  0  0  0  0  0  0
  146.6837  137.3217  158.5960 C   0  0  0  0  0  0  0  0  0  0  0  0
  147.6927  136.3139  160.6416 N   0  0  0  0  0  0  0  0  0  0  0  0
  147.0456  135.2140  161.0337 C   0  0  0  0  0  0  0  0  0  0  0  0
  146.9437  135.0885  162.3491 N   0  0  0  0  0  0  0  0  0  0  0  0
  147.5842  136.2308  162.7377 C   0  0  0  0  0  0  0  0  0  0  0  0
  148.0408  137.0068  161.7548 N   0  0  0  0  0  0  0  0  0  0  0  0
  152.2724  134.8245  156.2455 H   0  0  0  0  0  0  0  0  0  0  0  0
  151.8070  135.1064  157.9178 H   0  0  0  0  0  0  0  0  0  0  0  0
  152.0252  136.4702  156.8231 H   0  0  0  0  0  0  0  0  0  0  0  0
  149.8808  134.3134  156.6127 H   0  0  0  0  0  0  0  0  0  0  0  0
  149.6463  136.8290  155.0182 H   0  0  0  0  0  0  0  0  0  0  0  0
  150.8997  135.7475  154.4704 H   0  0  0  0  0  0  0  0  0  0  0  0
  150.2572  133.3846  153.8228 H   0  0  0  0  0  0  0  0  0  0  0  0
  149.3310  133.1248  155.2929 H   0  0  0  0  0  0  0  0  0  0  0  0
  148.2274  133.0776  152.4187 H   0  0  0  0  0  0  0  0  0  0  0  0
  148.4363  131.6908  153.4716 H   0  0  0  0  0  0  0  0  0  0  0  0
  146.5221  134.7157  152.9872 H   0  0  0  0  0  0  0  0  0  0  0  0
  145.5584  134.4475  154.4281 H   0  0  0  0  0  0  0  0  0  0  0  0
  147.5215  134.8403  155.8935 H   0  0  0  0  0  0  0  0  0  0  0  0
  147.2911  136.2111  154.8251 H   0  0  0  0  0  0  0  0  0  0  0  0
  149.3865  137.1777  157.2323 H   0  0  0  0  0  0  0  0  0  0  0  0
  148.6288  137.6686  159.4044 H   0  0  0  0  0  0  0  0  0  0  0  0
  146.9165  137.7387  157.6157 H   0  0  0  0  0  0  0  0  0  0  0  0
  146.2067  138.1094  159.1798 H   0  0  0  0  0  0  0  0  0  0  0  0
  145.9487  136.5289  158.4501 H   0  0  0  0  0  0  0  0  0  0  0  0
  146.6371  134.4915  160.3423 H   0  0  0  0  0  0  0  0  0  0  0  0
  147.7116  136.5020  163.7753 H   0  0  0  0  0  0  0  0  0  0  0  0
  148.9316  135.2821  153.3663 H   0  0  0  0  0  0  0  0  0  0  0  0
  1  2  1  0  0  0  0
  1 20  1  0  0  0  0
  1 21  1  0  0  0  0
  1 22  1  0  0  0  0
  2  3  1  0  0  0  0
  2 10  1  0  0  0  0
  2 23  1  0  0  0  0
  3  4  1  0  0  0  0
  3 24  1  0  0  0  0
  3 25  1  0  0  0  0
  4  9  1  0  0  0  0
  4  5  1  0  0  0  0
  4 41  1  0  0  0  0
  5  6  1  0  0  0  0
  5 26  1  0  0  0  0
  5 27  1  0  0  0  0
  6  7  1  0  0  0  0
  6 28  1  0  0  0  0
  6 29  1  0  0  0  0
  7  8  1  0  0  0  0
  8  9  1  0  0  0  0
  8 30  1  0  0  0  0
  8 31  1  0  0  0  0
  9 32  1  0  0  0  0
  9 33  1  0  0  0  0
 10 11  1  0  0  0  0
 10 34  1  0  0  0  0
 11 12  2  0  0  0  0
 11 13  1  0  0  0  0
 13 14  1  0  0  0  0
 13 15  1  0  0  0  0
 13 35  1  0  0  0  0
 14 36  1  0  0  0  0
 14 37  1  0  0  0  0
 14 38  1  0  0  0  0
 15 19  1  0  0  0  0
 15 16  1  0  0  0  0
 16 17  2  0  0  0  0
 16 39  1  0  0  0  0
 17 18  1  0  0  0  0
 18 19  2  0  0  0  0
 18 40  1  0  0  0  0
M  CHG  1   4   1
M  END
> <s_m_source_file>
AV-unprocessed.smi

> <i_m_source_file_index>
3345

> <i_lp_mmshare_version>
43012

> <i_f3d_flags>
0

> <s_epik_input>
W0NIMl0xW0NIMl1PW0NIMl1bQ0gyXU4xW0NIMl1bQ0BASF0oW0NIM10pW05IXUMoPU8pW0NASF0oW0NIM10pbjJbY0hdbltjSF1uMg==

> <s_epik_cmdline>
J2VwaWtfcHl0aG9uJywgJy1waCcsICc3LjAnLCAnLXRuJywgJzgnLCAnLW1hJywgJzIwMCcsICctbWV0YWxfYmluZGluZycsICctaW1hZScsICc8aW5maWxlLm1hZT4nLCAnLW9tYWUnLCAnPG91dGZpbGUubWFlPic=

> <r_lp_tautomer_probability>
1

> <r_epik_Ionization_Penalty>
0.71326

> <r_epik_Ionization_Penalty_Charging>
0.713252

> <r_epik_Ionization_Penalty_Neutral>
8.27671e-06

> <r_epik_State_Penalty>
0.737017

> <r_epik_Charging_Adjusted_Penalty>
1.45027

> <i_epik_Tot_Q>
1

> <i_epik_Tot_abs_Q>
1

> <r_epik_Metal_State_Penalty>
0.73702

> <b_epik_Metal_Only>
0

> <s_lp_Force_Field>
OPLS_2005

> <r_lp_Energy>
28.0971

> <b_lp_Chiralities_Consistent>
1

> <s_lp_Variant>
AV-unprocessed.smi:3345-7

> <Gold.Version>
5.8.1

> <Gold.Id.Protein>
6NUR|6NUR_protein|mol2

> <Gold.PLP.Fitness>
38.2691

> <Gold.PLP.PLP>
-27.3357

> <Gold.PLP.part.hbond>
-4.0000

> <Gold.PLP.part.metal>
0.0000

> <Gold.PLP.part.buried>
-4.6019

> <Gold.PLP.part.nonpolar>
-18.2489

> <Gold.PLP.part.repulsive>
0.1121

> <Gold.PLP.ligand.clash>
0.0000

> <Gold.PLP.ligand.torsion>
1.4737

> <Gold.PLP.Chemscore.Hbond>
4.5650

> <Gold.PLP.Chemscore.CHOScore>
0.0000

> <Gold.PLP.Chemscore.Metal>
0.0000

> <Gold.Chemscore.Hbonds>
donor molecule, donor type, donor heavy atom, donor atom, acceptor molecule, acceptor atom, score
      L1  H     4    41       P1  7948  2.00
      P1  H  6896  6909       L1    12  0.54
      P1  H  6931  6943       L1    19  1.00
      P1  H  6934  6947       L1    19  0.10

> <Gold.PLP.Chemscore.Internal.Correction>
0.1859

> <Gold.Rescore>
     Score         DG    S(hbond)    S(metal)    S(lipo)     H(rot)  DE(clash)    DE(int)     intcor
     10.10     -12.52       2.97        0.00      32.49       2.61       0.00       2.42       ----

> <Gold.Chemscore.Fitness>
10.0992

> <Gold.Chemscore.DG>
-12.5216

> <Gold.Chemscore.ZeroCoef>
-5.4800

> <Gold.Chemscore.Hbond>
2.9736

> <Gold.Chemscore.Metal>
0.0000

> <Gold.Chemscore.Lipo>
32.4887

> <Gold.Chemscore.Internal_Hbond>
0.0000

> <Gold.Chemscore.DEClash>
0.0015

> <Gold.Chemscore.DEInternal>
2.4210

> <Gold.Chemscore.Rot>
2.6138

> <Gold.Chemscore.Internal.Correction>
   9.000000E+99

> <Gold.Chemscore.Hbonds>
donor molecule, donor type, donor heavy atom, donor atom, acceptor molecule, acceptor atom, score
      L1  H     4    41       P1  7948  0.60
      P1  H  6896  6909       L1    12  0.07
      P1  H  6931  6943       L1    19  0.98
      P1  H  6934  6947       L1    19  0.01

> <Gold.Chemscore.Hbond.Weighted>
-9.9317

> <Gold.Chemscore.Metal.Weighted>
-0.0000

> <Gold.Chemscore.Lipo.Weighted>
-3.8012

> <Gold.Chemscore.Internal_Hbond.Weighted>
0.0000

> <Gold.Chemscore.DEClash.Weighted>
0.0015

> <Gold.Chemscore.DEInternal.Weighted>
2.4210

> <Gold.Chemscore.Rot.Weighted>
6.6912

> <Gold.Chemscore.Internal.Correction.Weighted>
   9.000000E+99

> <Gold.Protein.RotatedTorsions>
[ 6907 6896 6895 6894 ] final   42.47 input  -60.11 | X-H torsion
[ 7974 7965 7964 7962 ] final  -91.43 input  175.53 | X-H torsion
[ 8008 7997 7996 7995 ] final -123.46 input   59.86 | X-H torsion
[ 10167 10162 10161 10158 ] final   -3.55 input  -65.29 | X-H torsion
[ 10718 10713 10712 10709 ] final   57.27 input   66.30 | X-H torsion
[ 10763 10752 10751 10750 ] final   55.62 input  -60.55 | X-H torsion
[ 11005 11000 10999 10996 ] final  -39.60 input  -57.11 | X-H torsion

> <Gold.Protein.ActiveResidues>
 VAL166  LYS551  ARG553  GLY616  TRP617  ASP618  TYR619  PRO620  LYS621  CYS622 
 ASP623  PHE694  ASN695  SER759  ASP760  ASP761  ALA762  ILE779  LEU786  VAL792 
 PHE793  MET794  SER795  GLU796  ALA797  LYS798  CYS799  TRP800  GLU811  SER814 

> <Gold.Protein.RotatedAtoms>
  152.2083  134.8525  160.0500 H   0  0  0  0  0  0  0  0  0  0  0  0  # atno 6907 bound_to 6896
  151.9353  133.3617  159.3953 H   0  0  0  0  0  0  0  0  0  0  0  0  # atno 6908 bound_to 6896
  150.6970  134.4420  159.5340 H   0  0  0  0  0  0  0  0  0  0  0  0  # atno 6909 bound_to 6896
  145.4133  140.9546  143.2222 H   0  0  0  0  0  0  0  0  0  0  0  0  # atno 7974 bound_to 7965
  155.1809  140.0410  157.2882 H   0  0  0  0  0  0  0  0  0  0  0  0  # atno 8008 bound_to 7997
  154.6204  140.2499  155.7529 H   0  0  0  0  0  0  0  0  0  0  0  0  # atno 8009 bound_to 7997
  156.2430  140.2896  156.0509 H   0  0  0  0  0  0  0  0  0  0  0  0  # atno 8010 bound_to 7997
  140.6894  143.6526  150.8336 H   0  0  0  0  0  0  0  0  0  0  0  0  # atno 10167 bound_to 10162
  157.5500  130.8759  149.8949 H   0  0  0  0  0  0  0  0  0  0  0  0  # atno 10718 bound_to 10713
  152.9819  135.5704  154.5096 H   0  0  0  0  0  0  0  0  0  0  0  0  # atno 10763 bound_to 10752
  154.4602  135.2781  155.1720 H   0  0  0  0  0  0  0  0  0  0  0  0  # atno 10764 bound_to 10752
  154.3311  135.6249  153.5605 H   0  0  0  0  0  0  0  0  0  0  0  0  # atno 10765 bound_to 10752
  141.0114  133.6906  156.2209 H   0  0  0  0  0  0  0  0  0  0  0  0  # atno 11005 bound_to 11000
  144.8294  139.5654  143.6950 LP  0  0  0  0  0  0  0  0  0  0  0  0  # atno 17320 bound_to 7965
  146.2694  139.6598  142.9307 LP  0  0  0  0  0  0  0  0  0  0  0  0  # atno 17321 bound_to 7965
  140.0237  143.5515  152.2789 LP  0  0  0  0  0  0  0  0  0  0  0  0  # atno 17342 bound_to 10162
  139.6283  144.7640  151.2591 LP  0  0  0  0  0  0  0  0  0  0  0  0  # atno 17343 bound_to 10162
  156.0568  130.3707  150.1072 LP  0  0  0  0  0  0  0  0  0  0  0  0  # atno 17370 bound_to 10713
  156.9245  130.9694  151.3543 LP  0  0  0  0  0  0  0  0  0  0  0  0  # atno 17371 bound_to 10713
  140.6727  134.4850  157.5587 LP  0  0  0  0  0  0  0  0  0  0  0  0  # atno 17394 bound_to 11000
  139.9092  134.8382  156.1591 LP  0  0  0  0  0  0  0  0  0  0  0  0  # atno 17395 bound_to 11000

$$$$
