AV-unprocessed.smi:290|AV-procd|sdf|2216|dock3
  -GOLD-   2262022 53D 1   1.00000     0.00000
 Structure written by MMmdl.
 59 62  0  0  0  0  0  0  0  0  2 V2000
  153.7224  138.8863  154.5282 C   0  0  0  0  0  0  0  0  0  0  0  0
  152.3227  138.8395  155.1622 C   0  0  1  0  0  0  0  0  0  0  0  0
  151.5371  139.9385  154.7240 O   0  0  0  0  0  0  0  0  0  0  0  0
  150.1877  139.6259  155.0178 C   0  0  0  0  0  0  0  0  0  0  0  0
  150.0753  138.1730  154.5719 C   0  0  0  0  0  0  0  0  0  0  0  0
  151.4569  137.5841  154.8740 C   0  0  1  0  0  0  0  0  0  0  0  0
  151.9018  136.8913  153.7190 O   0  0  0  0  0  0  0  0  0  0  0  0
  151.4184  136.5838  156.0559 C   0  0  0  0  0  0  0  0  0  0  0  0
  150.7668  135.3239  155.7297 N   0  0  0  0  0  0  0  0  0  0  0  0
  149.6992  135.1449  154.8784 C   0  0  0  0  0  0  0  0  0  0  0  0
  149.2953  133.9116  154.7411 N   0  0  0  0  0  0  0  0  0  0  0  0
  150.1435  133.1856  155.5680 C   0  0  0  0  0  0  0  0  0  0  0  0
  150.2721  131.8068  155.8958 C   0  0  0  0  0  0  0  0  0  0  0  0
  149.4933  130.8220  155.4002 N   0  0  0  0  0  0  0  0  0  0  0  0
  150.1864  129.8562  154.5494 C   0  0  0  0  0  0  0  0  0  0  0  0
  149.1681  129.4014  153.5014 C   0  0  0  0  0  0  0  0  0  0  0  0
  148.3264  130.6693  153.3396 C   0  0  1  0  0  0  0  0  0  0  0  0
  147.0385  130.5657  152.5850 N   0  3  1  0  0  0  0  0  0  0  0  0
  146.2388  129.3978  153.0315 C   0  0  0  0  0  0  0  0  0  0  0  0
  146.2291  131.8153  152.5185 C   0  0  0  0  0  0  0  0  0  0  0  0
  145.3053  131.8688  151.2882 C   0  0  0  0  0  0  0  0  0  0  0  0
  146.0722  131.9283  150.1046 O   0  0  0  0  0  0  0  0  0  0  0  0
  148.2430  131.2430  154.7685 C   0  0  1  0  0  0  0  0  0  0  0  0
  147.0564  130.7777  155.6282 C   0  0  0  0  0  0  0  0  0  0  0  0
  151.2458  131.4454  156.7654 N   0  0  0  0  0  0  0  0  0  0  0  0
  152.0468  132.3763  157.2932 C   0  0  0  0  0  0  0  0  0  0  0  0
  152.0446  133.6952  157.0856 N   0  0  0  0  0  0  0  0  0  0  0  0
  151.0697  134.0590  156.2037 C   0  0  0  0  0  0  0  0  0  0  0  0
  148.9566  131.3759  152.7967 H   0  0  0  0  0  0  0  0  0  0  0  0
  148.1862  132.3309  154.7027 H   0  0  0  0  0  0  0  0  0  0  0  0
  154.3262  138.0349  154.8432 H   0  0  0  0  0  0  0  0  0  0  0  0
  154.2497  139.7926  154.8261 H   0  0  0  0  0  0  0  0  0  0  0  0
  153.6704  138.8807  153.4391 H   0  0  0  0  0  0  0  0  0  0  0  0
  152.4289  138.9633  156.2403 H   0  0  0  0  0  0  0  0  0  0  0  0
  150.0100  139.7225  156.0902 H   0  0  0  0  0  0  0  0  0  0  0  0
  149.4962  140.2838  154.4914 H   0  0  0  0  0  0  0  0  0  0  0  0
  149.2595  137.6500  155.0723 H   0  0  0  0  0  0  0  0  0  0  0  0
  149.8652  138.1517  153.5011 H   0  0  0  0  0  0  0  0  0  0  0  0
  151.1621  136.7554  153.1470 H   0  0  0  0  0  0  0  0  0  0  0  0
  152.4322  136.3673  156.3957 H   0  0  0  0  0  0  0  0  0  0  0  0
  150.9003  137.0236  156.9092 H   0  0  0  0  0  0  0  0  0  0  0  0
  149.2309  135.9639  154.3521 H   0  0  0  0  0  0  0  0  0  0  0  0
  151.0455  130.3191  154.0611 H   0  0  0  0  0  0  0  0  0  0  0  0
  150.5540  129.0151  155.1378 H   0  0  0  0  0  0  0  0  0  0  0  0
  149.6360  129.0750  152.5723 H   0  0  0  0  0  0  0  0  0  0  0  0
  148.5930  128.5692  153.9060 H   0  0  0  0  0  0  0  0  0  0  0  0
  145.9199  129.5198  154.0673 H   0  0  0  0  0  0  0  0  0  0  0  0
  146.8211  128.4781  152.9613 H   0  0  0  0  0  0  0  0  0  0  0  0
  145.3523  129.2508  152.4172 H   0  0  0  0  0  0  0  0  0  0  0  0
  145.6394  131.9126  153.4313 H   0  0  0  0  0  0  0  0  0  0  0  0
  146.8729  132.6915  152.4801 H   0  0  0  0  0  0  0  0  0  0  0  0
  144.6219  131.0226  151.2412 H   0  0  0  0  0  0  0  0  0  0  0  0
  144.6858  132.7645  151.3352 H   0  0  0  0  0  0  0  0  0  0  0  0
  146.7805  131.3054  150.1711 H   0  0  0  0  0  0  0  0  0  0  0  0
  146.1036  131.0613  155.1832 H   0  0  0  0  0  0  0  0  0  0  0  0
  147.0968  131.2378  156.6158 H   0  0  0  0  0  0  0  0  0  0  0  0
  147.0616  129.6978  155.7768 H   0  0  0  0  0  0  0  0  0  0  0  0
  152.7970  132.0126  157.9796 H   0  0  0  0  0  0  0  0  0  0  0  0
  147.3076  130.3616  151.6326 H   0  0  0  0  0  0  0  0  0  0  0  0
  1  2  1  0  0  0  0
  1 31  1  0  0  0  0
  1 32  1  0  0  0  0
  1 33  1  0  0  0  0
  2  6  1  0  0  0  0
  2  3  1  0  0  0  0
  2 34  1  0  0  0  0
  3  4  1  0  0  0  0
  4  5  1  0  0  0  0
  4 35  1  0  0  0  0
  4 36  1  0  0  0  0
  5  6  1  0  0  0  0
  5 37  1  0  0  0  0
  5 38  1  0  0  0  0
  6  7  1  0  0  0  0
  6  8  1  0  0  0  0
  7 39  1  0  0  0  0
  8  9  1  0  0  0  0
  8 40  1  0  0  0  0
  8 41  1  0  0  0  0
  9 28  1  0  0  0  0
  9 10  1  0  0  0  0
 10 11  2  0  0  0  0
 10 42  1  0  0  0  0
 11 12  1  0  0  0  0
 12 28  2  0  0  0  0
 12 13  1  0  0  0  0
 13 14  1  0  0  0  0
 13 25  2  0  0  0  0
 14 23  1  0  0  0  0
 14 15  1  0  0  0  0
 15 16  1  0  0  0  0
 15 43  1  0  0  0  0
 15 44  1  0  0  0  0
 16 17  1  0  0  0  0
 16 45  1  0  0  0  0
 16 46  1  0  0  0  0
 17 29  1  0  0  0  0
 17 18  1  0  0  0  0
 17 23  1  0  0  0  0
 18 19  1  0  0  0  0
 18 20  1  0  0  0  0
 18 59  1  0  0  0  0
 19 47  1  0  0  0  0
 19 48  1  0  0  0  0
 19 49  1  0  0  0  0
 20 21  1  0  0  0  0
 20 50  1  0  0  0  0
 20 51  1  0  0  0  0
 21 22  1  0  0  0  0
 21 52  1  0  0  0  0
 21 53  1  0  0  0  0
 22 54  1  0  0  0  0
 23 30  1  0  0  0  0
 23 24  1  0  0  0  0
 24 55  1  0  0  0  0
 24 56  1  0  0  0  0
 24 57  1  0  0  0  0
 25 26  1  0  0  0  0
 26 27  2  0  0  0  0
 26 58  1  0  0  0  0
 27 28  1  0  0  0  0
M  CHG  1  18   1
M  END
> <s_m_source_file>
AV-unprocessed.smi

> <i_m_source_file_index>
290

> <i_lp_mmshare_version>
43012

> <i_f3d_flags>
0

> <s_epik_input>
W0NIMl0xW0NIMl1PW0NAQEhdKFtDSDNdKVtDQEBdMShbT0hdKVtDSDJdbihbY0hdbjIpYyhjMjMpbltjSF1uYzNONFtDSDJdW0NIMl1bQ0BIXShbQ0BIXTRbQ0gzXSlOKFtDSDNdKVtDSDJdW0NIMl1bT0hd

> <s_epik_cmdline>
J2VwaWtfcHl0aG9uJywgJy1waCcsICc3LjAnLCAnLXRuJywgJzgnLCAnLW1hJywgJzIwMCcsICctbWV0YWxfYmluZGluZycsICctaW1hZScsICc8aW5maWxlLm1hZT4nLCAnLW9tYWUnLCAnPG91dGZpbGUubWFlPic=

> <r_lp_tautomer_probability>
1

> <r_epik_Ionization_Penalty>
0.0036983

> <r_epik_Ionization_Penalty_Charging>
0.0032725

> <r_epik_Ionization_Penalty_Neutral>
0.000425798

> <r_epik_State_Penalty>
-0

> <r_epik_Charging_Adjusted_Penalty>
0.0032725

> <i_epik_Tot_Q>
1

> <i_epik_Tot_abs_Q>
1

> <r_epik_Metal_State_Penalty>
-0

> <b_epik_Metal_Only>
0

> <s_lp_Force_Field>
OPLS_2005

> <r_lp_Energy>
65.8888

> <b_lp_Chiralities_Consistent>
1

> <s_lp_Variant>
AV-unprocessed.smi:290-2

> <Gold.Version>
5.8.1

> <Gold.Id.Protein>
6NUR|6NUR_protein|mol2

> <Gold.PLP.Fitness>
57.1664

> <Gold.PLP.PLP>
-42.7015

> <Gold.PLP.part.hbond>
-5.9809

> <Gold.PLP.part.metal>
0.0000

> <Gold.PLP.part.buried>
-2.3105

> <Gold.PLP.part.nonpolar>
-35.8081

> <Gold.PLP.part.repulsive>
0.1973

> <Gold.PLP.ligand.clash>
0.0000

> <Gold.PLP.ligand.torsion>
1.0440

> <Gold.PLP.Chemscore.Hbond>
4.4240

> <Gold.PLP.Chemscore.CHOScore>
1.0000

> <Gold.PLP.Chemscore.Metal>
0.0000

> <Gold.Chemscore.Hbonds>
donor molecule, donor type, donor heavy atom, donor atom, acceptor molecule, acceptor atom, score
      L1  H     7    39       P1  7949  0.54
      L1  H    18    59       P1 10747  0.44
      L1  H    22    54       P1 10747  0.49
      P1  H  7989  7998       L1     3  1.00
      P1  H 10752 10765       L1     7  1.00
      L1  C    10    42       P1  7948  0.93

> <Gold.PLP.Chemscore.Internal.Correction>
0.2809

> <Gold.Rescore>
     Score         DG    S(hbond)    S(metal)    S(lipo)     H(rot)  DE(clash)    DE(int)     intcor
     13.75     -20.23       4.06        0.00      90.33       3.67       2.95       3.53       ----

> <Gold.Chemscore.Fitness>
13.7512

> <Gold.Chemscore.DG>
-20.2327

> <Gold.Chemscore.ZeroCoef>
-5.4800

> <Gold.Chemscore.Hbond>
4.0625

> <Gold.Chemscore.Metal>
0.0000

> <Gold.Chemscore.Lipo>
90.3291

> <Gold.Chemscore.Internal_Hbond>
0.0000

> <Gold.Chemscore.DEClash>
2.9532

> <Gold.Chemscore.DEInternal>
3.5283

> <Gold.Chemscore.Rot>
3.6658

> <Gold.Chemscore.Internal.Correction>
   9.000000E+99

> <Gold.Chemscore.Hbonds>
donor molecule, donor type, donor heavy atom, donor atom, acceptor molecule, acceptor atom, score
      L1  H     7    39       P1  7949  0.27
      L1  H    18    59       P1 10747  0.44
      L1  H    22    54       P1 10747  0.48
      P1  H  7989  7998       L1     3  0.76
      P1  H 10752 10765       L1     7  0.53

> <Gold.Chemscore.Hbond.Weighted>
-13.5686

> <Gold.Chemscore.Metal.Weighted>
-0.0000

> <Gold.Chemscore.Lipo.Weighted>
-10.5685

> <Gold.Chemscore.Internal_Hbond.Weighted>
0.0000

> <Gold.Chemscore.DEClash.Weighted>
2.9532

> <Gold.Chemscore.DEInternal.Weighted>
3.5283

> <Gold.Chemscore.Rot.Weighted>
9.3844

> <Gold.Chemscore.Internal.Correction.Weighted>
   9.000000E+99

> <Gold.Protein.RotatedTorsions>
[ 6907 6896 6895 6894 ] final  160.03 input  -60.11 | X-H torsion
[ 7974 7965 7964 7962 ] final  -87.08 input  175.53 | X-H torsion
[ 8008 7997 7996 7995 ] final -110.35 input   59.86 | X-H torsion
[ 10167 10162 10161 10158 ] final  -38.66 input  -65.29 | X-H torsion
[ 10718 10713 10712 10709 ] final  -43.22 input   66.30 | X-H torsion
[ 10763 10752 10751 10750 ] final  163.84 input  -60.55 | X-H torsion
[ 11005 11000 10999 10996 ] final  157.44 input  -57.11 | X-H torsion

> <Gold.Protein.ActiveResidues>
 VAL166  LYS551  ARG553  GLY616  TRP617  ASP618  TYR619  PRO620  LYS621  CYS622 
 ASP623  PHE694  ASN695  SER759  ASP760  ASP761  ALA762  ILE779  LEU786  VAL792 
 PHE793  MET794  SER795  GLU796  ALA797  LYS798  CYS799  TRP800  GLU811  SER814 

> <Gold.Protein.RotatedAtoms>
  151.9768  133.3744  159.4091 H   0  0  0  0  0  0  0  0  0  0  0  0  # atno 6907 bound_to 6896
  150.6940  134.4081  159.5159 H   0  0  0  0  0  0  0  0  0  0  0  0  # atno 6908 bound_to 6896
  152.1794  134.8767  160.0578 H   0  0  0  0  0  0  0  0  0  0  0  0  # atno 6909 bound_to 6896
  145.4713  140.9559  143.1915 H   0  0  0  0  0  0  0  0  0  0  0  0  # atno 7974 bound_to 7965
  154.9731  140.0397  157.2243 H   0  0  0  0  0  0  0  0  0  0  0  0  # atno 8008 bound_to 7997
  154.7783  140.2814  155.6061 H   0  0  0  0  0  0  0  0  0  0  0  0  # atno 8009 bound_to 7997
  156.2932  140.2596  156.2602 H   0  0  0  0  0  0  0  0  0  0  0  0  # atno 8010 bound_to 7997
  140.7086  143.3263  151.2673 H   0  0  0  0  0  0  0  0  0  0  0  0  # atno 10167 bound_to 10162
  156.2512  130.4188  149.8647 H   0  0  0  0  0  0  0  0  0  0  0  0  # atno 10718 bound_to 10713
  154.2998  135.2759  155.2616 H   0  0  0  0  0  0  0  0  0  0  0  0  # atno 10763 bound_to 10752
  154.5058  135.5796  153.6569 H   0  0  0  0  0  0  0  0  0  0  0  0  # atno 10764 bound_to 10752
  152.9902  135.6169  154.3168 H   0  0  0  0  0  0  0  0  0  0  0  0  # atno 10765 bound_to 10752
  140.1769  134.8503  157.2757 H   0  0  0  0  0  0  0  0  0  0  0  0  # atno 11005 bound_to 11000
  144.7944  139.6264  143.7099 LP  0  0  0  0  0  0  0  0  0  0  0  0  # atno 17320 bound_to 7965
  146.2395  139.5973  142.9501 LP  0  0  0  0  0  0  0  0  0  0  0  0  # atno 17321 bound_to 7965
  139.6732  143.9984  152.2765 LP  0  0  0  0  0  0  0  0  0  0  0  0  # atno 17342 bound_to 10162
  139.9589  144.6571  150.8098 LP  0  0  0  0  0  0  0  0  0  0  0  0  # atno 17343 bound_to 10162
  156.6195  130.8620  151.3472 LP  0  0  0  0  0  0  0  0  0  0  0  0  # atno 17370 bound_to 10713
  157.7215  130.9565  150.1458 LP  0  0  0  0  0  0  0  0  0  0  0  0  # atno 17371 bound_to 10713
  140.2312  134.3907  155.7521 LP  0  0  0  0  0  0  0  0  0  0  0  0  # atno 17394 bound_to 11000
  141.2221  133.7216  156.8643 LP  0  0  0  0  0  0  0  0  0  0  0  0  # atno 17395 bound_to 11000

$$$$
