AV-unprocessed.smi:2780|AV-procd|sdf|10716|dock2
  -GOLD-   2272015153D 1   1.00000     0.00000
 Structure written by MMmdl.
 47 49  0  0  0  0  0  0  0  0  2 V2000
  147.6140  133.3120  152.4897 C   0  0  0  0  0  0  0  0  0  0  0  0
  146.2292  133.2324  151.8697 C   0  0  0  0  0  0  0  0  0  0  0  0
  145.9038  132.2460  151.0113 C   0  0  0  0  0  0  0  0  0  0  0  0
  144.5355  132.0670  150.3801 C   0  0  0  0  0  0  0  0  0  0  0  0
  143.5967  133.2557  150.6398 C   0  0  0  0  0  0  0  0  0  0  0  0
  143.7693  133.8106  152.0653 C   0  0  2  0  0  0  0  0  0  0  0  0
  142.6663  134.8226  152.4189 C   0  0  0  0  0  0  0  0  0  0  0  0
  145.2283  134.3047  152.3097 C   0  0  2  0  0  0  0  0  0  0  0  0
  145.5728  135.6593  151.6388 C   0  0  0  0  0  0  0  0  0  0  0  0
  146.3609  136.5407  152.5235 N   0  3  0  0  0  0  0  0  0  0  0  0
  145.8721  137.9312  152.5804 C   0  0  0  0  0  0  0  0  0  0  0  0
  146.9527  138.9118  152.1056 C   0  0  0  0  0  0  0  0  0  0  0  0
  147.3497  139.8234  153.1628 N   0  0  0  0  0  0  0  0  0  0  0  0
  146.6456  140.8285  153.7056 C   0  0  0  0  0  0  0  0  0  0  0  0
  147.2654  141.4869  154.6837 N   0  0  0  0  0  0  0  0  0  0  0  0
  148.4914  140.8628  154.8002 N   0  0  0  0  0  0  0  0  0  0  0  0
  148.4958  139.9003  153.8707 C   0  0  0  0  0  0  0  0  0  0  0  0
  149.6344  138.9510  153.6680 C   0  0  0  0  0  0  0  0  0  0  0  0
  149.9882  137.9210  154.7181 C   0  0  0  0  0  0  0  0  0  0  0  0
  150.9155  139.0800  154.4630 C   0  0  0  0  0  0  0  0  0  0  0  0
  147.5436  133.2796  153.5772 H   0  0  0  0  0  0  0  0  0  0  0  0
  148.1249  134.2314  152.2064 H   0  0  0  0  0  0  0  0  0  0  0  0
  148.2387  132.4767  152.1716 H   0  0  0  0  0  0  0  0  0  0  0  0
  146.6395  131.4981  150.7529 H   0  0  0  0  0  0  0  0  0  0  0  0
  144.6478  131.9041  149.3078 H   0  0  0  0  0  0  0  0  0  0  0  0
  144.1012  131.1563  150.7936 H   0  0  0  0  0  0  0  0  0  0  0  0
  143.7899  134.0412  149.9091 H   0  0  0  0  0  0  0  0  0  0  0  0
  142.5658  132.9404  150.4745 H   0  0  0  0  0  0  0  0  0  0  0  0
  143.6157  132.9688  152.7432 H   0  0  0  0  0  0  0  0  0  0  0  0
  142.6401  135.6559  151.7166 H   0  0  0  0  0  0  0  0  0  0  0  0
  142.8028  135.2227  153.4238 H   0  0  0  0  0  0  0  0  0  0  0  0
  141.6846  134.3488  152.3898 H   0  0  0  0  0  0  0  0  0  0  0  0
  145.3574  134.4183  153.3874 H   0  0  0  0  0  0  0  0  0  0  0  0
  146.1673  135.5056  150.7391 H   0  0  0  0  0  0  0  0  0  0  0  0
  144.6650  136.1709  151.3191 H   0  0  0  0  0  0  0  0  0  0  0  0
  146.3327  136.1563  153.4572 H   0  0  0  0  0  0  0  0  0  0  0  0
  144.9790  138.0269  151.9615 H   0  0  0  0  0  0  0  0  0  0  0  0
  145.5806  138.1616  153.6057 H   0  0  0  0  0  0  0  0  0  0  0  0
  147.8337  138.3747  151.7546 H   0  0  0  0  0  0  0  0  0  0  0  0
  146.5873  139.4981  151.2614 H   0  0  0  0  0  0  0  0  0  0  0  0
  145.6465  141.0818  153.3823 H   0  0  0  0  0  0  0  0  0  0  0  0
  149.7063  138.6530  152.6239 H   0  0  0  0  0  0  0  0  0  0  0  0
  149.4234  137.9276  155.6486 H   0  0  0  0  0  0  0  0  0  0  0  0
  150.3034  136.9391  154.3712 H   0  0  0  0  0  0  0  0  0  0  0  0
  151.8497  138.8739  153.9447 H   0  0  0  0  0  0  0  0  0  0  0  0
  150.9661  139.8538  155.2269 H   0  0  0  0  0  0  0  0  0  0  0  0
  147.3193  136.5439  152.2047 H   0  0  0  0  0  0  0  0  0  0  0  0
  1  2  1  0  0  0  0
  1 21  1  0  0  0  0
  1 22  1  0  0  0  0
  1 23  1  0  0  0  0
  2  8  1  0  0  0  0
  2  3  2  0  0  0  0
  3  4  1  0  0  0  0
  3 24  1  0  0  0  0
  4  5  1  0  0  0  0
  4 25  1  0  0  0  0
  4 26  1  0  0  0  0
  5  6  1  0  0  0  0
  5 27  1  0  0  0  0
  5 28  1  0  0  0  0
  6  7  1  0  0  0  0
  6  8  1  0  0  0  0
  6 29  1  0  0  0  0
  7 30  1  0  0  0  0
  7 31  1  0  0  0  0
  7 32  1  0  0  0  0
  8  9  1  0  0  0  0
  8 33  1  0  0  0  0
  9 10  1  0  0  0  0
  9 34  1  0  0  0  0
  9 35  1  0  0  0  0
 10 11  1  0  0  0  0
 10 36  1  0  0  0  0
 10 47  1  0  0  0  0
 11 12  1  0  0  0  0
 11 37  1  0  0  0  0
 11 38  1  0  0  0  0
 12 13  1  0  0  0  0
 12 39  1  0  0  0  0
 12 40  1  0  0  0  0
 13 17  1  0  0  0  0
 13 14  1  0  0  0  0
 14 15  2  0  0  0  0
 14 41  1  0  0  0  0
 15 16  1  0  0  0  0
 16 17  2  0  0  0  0
 17 18  1  0  0  0  0
 18 20  1  0  0  0  0
 18 19  1  0  0  0  0
 18 42  1  0  0  0  0
 19 20  1  0  0  0  0
 19 43  1  0  0  0  0
 19 44  1  0  0  0  0
 20 45  1  0  0  0  0
 20 46  1  0  0  0  0
M  CHG  1  10   1
M  END
> <s_m_source_file>
AV-unprocessed.smi

> <i_m_source_file_index>
2780

> <i_lp_mmshare_version>
43012

> <i_f3d_flags>
0

> <s_epik_input>
W0NIM11DMT1bQ0hdW0NIMl1bQ0gyXVtDQEBIXShbQ0gzXSlbQ0BIXTFbQ0gyXVtOSF1bQ0gyXVtDSDJdbjJbY0hdbm5jMltDSF0zW0NIMl1bQ0gyXTM=

> <s_epik_cmdline>
J2VwaWtfcHl0aG9uJywgJy1waCcsICc3LjAnLCAnLXRuJywgJzgnLCAnLW1hJywgJzIwMCcsICctbWV0YWxfYmluZGluZycsICctaW1hZScsICc8aW5maWxlLm1hZT4nLCAnLW9tYWUnLCAnPG91dGZpbGUubWFlPic=

> <r_lp_tautomer_probability>
1

> <r_epik_Ionization_Penalty>
0.00176214

> <r_epik_Ionization_Penalty_Charging>
0.00175191

> <r_epik_Ionization_Penalty_Neutral>
1.02377e-05

> <r_epik_State_Penalty>
-0

> <r_epik_Charging_Adjusted_Penalty>
0.00175191

> <i_epik_Tot_Q>
1

> <i_epik_Tot_abs_Q>
1

> <r_epik_Metal_State_Penalty>
-0

> <b_epik_Metal_Only>
0

> <s_lp_Force_Field>
OPLS_2005

> <r_lp_Energy>
23.8201

> <b_lp_Chiralities_Consistent>
1

> <s_lp_Variant>
AV-unprocessed.smi:2780-4

> <Gold.Version>
5.8.1

> <Gold.Id.Protein>
6NUR|6NUR_protein|mol2

> <Gold.PLP.Fitness>
41.8393

> <Gold.PLP.PLP>
-36.1183

> <Gold.PLP.part.hbond>
-1.0000

> <Gold.PLP.part.metal>
0.0000

> <Gold.PLP.part.buried>
0.6926

> <Gold.PLP.part.nonpolar>
-35.8104

> <Gold.PLP.part.repulsive>
0.2099

> <Gold.PLP.ligand.clash>
0.0000

> <Gold.PLP.ligand.torsion>
1.8213

> <Gold.PLP.Chemscore.Hbond>
2.0000

> <Gold.PLP.Chemscore.CHOScore>
1.0000

> <Gold.PLP.Chemscore.Metal>
0.0000

> <Gold.Chemscore.Hbonds>
donor molecule, donor type, donor heavy atom, donor atom, acceptor molecule, acceptor atom, score
      L1  H    10    47       P1  7948  2.00
      L1  C    14    41       P1 10175  1.00

> <Gold.PLP.Chemscore.Internal.Correction>
0.3635

> <Gold.Rescore>
     Score         DG    S(hbond)    S(metal)    S(lipo)     H(rot)  DE(clash)    DE(int)     intcor
     12.95     -14.94       0.98        0.00      96.22       1.98       0.10       1.89       ----

> <Gold.Chemscore.Fitness>
12.9524

> <Gold.Chemscore.DG>
-14.9366

> <Gold.Chemscore.ZeroCoef>
-5.4800

> <Gold.Chemscore.Hbond>
0.9783

> <Gold.Chemscore.Metal>
0.0000

> <Gold.Chemscore.Lipo>
96.2191

> <Gold.Chemscore.Internal_Hbond>
0.0000

> <Gold.Chemscore.DEClash>
0.0977

> <Gold.Chemscore.DEInternal>
1.8865

> <Gold.Chemscore.Rot>
1.9799

> <Gold.Chemscore.Internal.Correction>
   9.000000E+99

> <Gold.Chemscore.Hbonds>
donor molecule, donor type, donor heavy atom, donor atom, acceptor molecule, acceptor atom, score
      L1  H    10    47       P1  7948  1.00

> <Gold.Chemscore.Hbond.Weighted>
-3.2675

> <Gold.Chemscore.Metal.Weighted>
-0.0000

> <Gold.Chemscore.Lipo.Weighted>
-11.2576

> <Gold.Chemscore.Internal_Hbond.Weighted>
0.0000

> <Gold.Chemscore.DEClash.Weighted>
0.0977

> <Gold.Chemscore.DEInternal.Weighted>
1.8865

> <Gold.Chemscore.Rot.Weighted>
5.0685

> <Gold.Chemscore.Internal.Correction.Weighted>
   9.000000E+99

> <Gold.Protein.RotatedTorsions>
[ 6907 6896 6895 6894 ] final   33.17 input  -60.11 | X-H torsion
[ 7974 7965 7964 7962 ] final -162.42 input  175.53 | X-H torsion
[ 8008 7997 7996 7995 ] final  -99.76 input   59.86 | X-H torsion
[ 10167 10162 10161 10158 ] final  124.52 input  -65.29 | X-H torsion
[ 10718 10713 10712 10709 ] final  -71.15 input   66.30 | X-H torsion
[ 10763 10752 10751 10750 ] final  -78.37 input  -60.55 | X-H torsion
[ 11005 11000 10999 10996 ] final  -39.44 input  -57.11 | X-H torsion

> <Gold.Protein.ActiveResidues>
 VAL166  LYS551  ARG553  GLY616  TRP617  ASP618  TYR619  PRO620  LYS621  CYS622 
 ASP623  PHE694  ASN695  SER759  ASP760  ASP761  ALA762  ILE779  LEU786  VAL792 
 PHE793  MET794  SER795  GLU796  ALA797  LYS798  CYS799  TRP800  GLU811  SER814 

> <Gold.Protein.RotatedAtoms>
  152.0847  134.9447  160.0572 H   0  0  0  0  0  0  0  0  0  0  0  0  # atno 6907 bound_to 6896
  152.0722  133.4107  159.4472 H   0  0  0  0  0  0  0  0  0  0  0  0  # atno 6908 bound_to 6896
  150.6836  134.2998  159.4745 H   0  0  0  0  0  0  0  0  0  0  0  0  # atno 6909 bound_to 6896
  144.7358  140.3255  143.6163 H   0  0  0  0  0  0  0  0  0  0  0  0  # atno 7974 bound_to 7965
  154.8193  140.0445  157.1399 H   0  0  0  0  0  0  0  0  0  0  0  0  # atno 8008 bound_to 7997
  154.9278  140.3035  155.5163 H   0  0  0  0  0  0  0  0  0  0  0  0  # atno 8009 bound_to 7997
  156.2979  140.2328  156.4335 H   0  0  0  0  0  0  0  0  0  0  0  0  # atno 8010 bound_to 7997
  139.5737  144.6952  151.3711 H   0  0  0  0  0  0  0  0  0  0  0  0  # atno 10167 bound_to 10162
  156.0376  130.4345  150.2401 H   0  0  0  0  0  0  0  0  0  0  0  0  # atno 10718 bound_to 10713
  154.5250  135.5732  153.6712 H   0  0  0  0  0  0  0  0  0  0  0  0  # atno 10763 bound_to 10752
  152.9926  135.6191  154.2704 H   0  0  0  0  0  0  0  0  0  0  0  0  # atno 10764 bound_to 10752
  154.2627  135.2855  155.2751 H   0  0  0  0  0  0  0  0  0  0  0  0  # atno 10765 bound_to 10752
  141.0102  133.6912  156.2187 H   0  0  0  0  0  0  0  0  0  0  0  0  # atno 11005 bound_to 11000
  145.7525  139.1798  143.2313 LP  0  0  0  0  0  0  0  0  0  0  0  0  # atno 17320 bound_to 7965
  146.1050  140.7498  142.9531 LP  0  0  0  0  0  0  0  0  0  0  0  0  # atno 17321 bound_to 7965
  140.7020  143.7607  150.7419 LP  0  0  0  0  0  0  0  0  0  0  0  0  # atno 17342 bound_to 10162
  140.1121  143.4690  152.2364 LP  0  0  0  0  0  0  0  0  0  0  0  0  # atno 17343 bound_to 10162
  157.0499  131.0059  151.3257 LP  0  0  0  0  0  0  0  0  0  0  0  0  # atno 17370 bound_to 10713
  157.5148  130.7961  149.7744 LP  0  0  0  0  0  0  0  0  0  0  0  0  # atno 17371 bound_to 10713
  140.6746  134.4831  157.5588 LP  0  0  0  0  0  0  0  0  0  0  0  0  # atno 17394 bound_to 11000
  139.9085  134.8395  156.1613 LP  0  0  0  0  0  0  0  0  0  0  0  0  # atno 17395 bound_to 11000

$$$$
