AV-unprocessed.smi:643|AV-procd|sdf|3153|dock5
  -GOLD-   22720 0 73D 1   1.00000     0.00000
 Structure written by MMmdl.
 40 41  0  0  0  0  0  0  0  0  1 V2000
  145.3257  136.0231  150.4929 C   0  0  0  0  0  0  0  0  0  0  0  0
  145.2212  134.9066  151.5551 C   0  0  0  0  0  0  0  0  0  0  0  0
  143.7775  134.3583  151.5418 C   0  0  0  0  0  0  0  0  0  0  0  0
  146.2145  133.7671  151.2770 C   0  0  0  0  0  0  0  0  0  0  0  0
  146.3954  133.0393  152.6118 C   0  0  0  0  0  0  0  0  0  0  0  0
  146.0979  134.0750  153.7045 C   0  0  0  0  0  0  0  0  0  0  0  0
  145.6033  135.3487  152.9920 C   0  0  1  0  0  0  0  0  0  0  0  0
  146.6693  136.3538  153.0028 N   0  0  0  0  0  0  0  0  0  0  0  0
  146.6141  137.5555  153.5956 C   0  0  0  0  0  0  0  0  0  0  0  0
  145.6370  137.9628  154.2236 O   0  0  0  0  0  0  0  0  0  0  0  0
  147.7542  138.2402  153.4038 N   0  0  0  0  0  0  0  0  0  0  0  0
  148.0873  139.5439  153.8549 C   0  0  0  0  0  0  0  0  0  0  0  0
  147.4128  140.7527  153.5067 C   0  0  0  0  0  0  0  0  0  0  0  0
  148.1087  141.7076  154.1916 C   0  0  0  0  0  0  0  0  0  0  0  0
  149.1145  141.0690  154.8876 N   0  0  0  0  0  0  0  0  0  0  0  0
  150.1185  141.6518  155.7565 C   0  0  0  0  0  0  0  0  0  0  0  0
  150.9323  140.5790  156.4925 C   0  0  0  0  0  0  0  0  0  0  0  0
  151.6972  139.9149  155.6270 F   0  0  0  0  0  0  0  0  0  0  0  0
  151.7083  141.1338  157.4236 F   0  0  0  0  0  0  0  0  0  0  0  0
  149.1009  139.7340  154.6825 N   0  0  0  0  0  0  0  0  0  0  0  0
  145.0121  135.6623  149.5129 H   0  0  0  0  0  0  0  0  0  0  0  0
  146.3446  136.3952  150.3816 H   0  0  0  0  0  0  0  0  0  0  0  0
  144.6901  136.8709  150.7505 H   0  0  0  0  0  0  0  0  0  0  0  0
  143.6323  133.5639  152.2741 H   0  0  0  0  0  0  0  0  0  0  0  0
  143.5166  133.9515  150.5643 H   0  0  0  0  0  0  0  0  0  0  0  0
  143.0571  135.1446  151.7700 H   0  0  0  0  0  0  0  0  0  0  0  0
  145.8847  133.0990  150.4806 H   0  0  0  0  0  0  0  0  0  0  0  0
  147.1759  134.1814  150.9696 H   0  0  0  0  0  0  0  0  0  0  0  0
  145.6867  132.2136  152.6853 H   0  0  0  0  0  0  0  0  0  0  0  0
  147.3959  132.6170  152.7079 H   0  0  0  0  0  0  0  0  0  0  0  0
  145.3236  133.6924  154.3704 H   0  0  0  0  0  0  0  0  0  0  0  0
  146.9764  134.2634  154.3235 H   0  0  0  0  0  0  0  0  0  0  0  0
  144.7245  135.7389  153.5083 H   0  0  0  0  0  0  0  0  0  0  0  0
  147.5166  136.1115  152.5105 H   0  0  0  0  0  0  0  0  0  0  0  0
  148.4648  137.7807  152.8537 H   0  0  0  0  0  0  0  0  0  0  0  0
  146.5598  140.9121  152.8646 H   0  0  0  0  0  0  0  0  0  0  0  0
  147.9721  142.7778  154.2425 H   0  0  0  0  0  0  0  0  0  0  0  0
  150.7774  142.2761  155.1512 H   0  0  0  0  0  0  0  0  0  0  0  0
  149.6257  142.3126  156.4708 H   0  0  0  0  0  0  0  0  0  0  0  0
  150.2904  139.8485  156.9859 H   0  0  0  0  0  0  0  0  0  0  0  0
  1  2  1  0  0  0  0
  1 21  1  0  0  0  0
  1 22  1  0  0  0  0
  1 23  1  0  0  0  0
  2  7  1  0  0  0  0
  2  3  1  0  0  0  0
  2  4  1  0  0  0  0
  3 24  1  0  0  0  0
  3 25  1  0  0  0  0
  3 26  1  0  0  0  0
  4  5  1  0  0  0  0
  4 27  1  0  0  0  0
  4 28  1  0  0  0  0
  5  6  1  0  0  0  0
  5 29  1  0  0  0  0
  5 30  1  0  0  0  0
  6  7  1  0  0  0  0
  6 31  1  0  0  0  0
  6 32  1  0  0  0  0
  7  8  1  0  0  0  0
  7 33  1  0  0  0  0
  8  9  1  0  0  0  0
  8 34  1  0  0  0  0
  9 10  2  0  0  0  0
  9 11  1  0  0  0  0
 11 12  1  0  0  0  0
 11 35  1  0  0  0  0
 12 20  2  0  0  0  0
 12 13  1  0  0  0  0
 13 14  2  0  0  0  0
 13 36  1  0  0  0  0
 14 15  1  0  0  0  0
 14 37  1  0  0  0  0
 15 16  1  0  0  0  0
 15 20  1  0  0  0  0
 16 17  1  0  0  0  0
 16 38  1  0  0  0  0
 16 39  1  0  0  0  0
 17 18  1  0  0  0  0
 17 19  1  0  0  0  0
 17 40  1  0  0  0  0
M  END
> <s_m_source_file>
AV-unprocessed.smi

> <i_m_source_file_index>
643

> <i_lp_mmshare_version>
43012

> <i_f3d_flags>
0

> <s_epik_input>
W0NIM11DMShbQ0gzXSlbQ0gyXVtDSDJdW0NIMl1bQ0BIXTFbTkhdQyg9TylbTkhdYzJbY0hdW2NIXW4objIpW0NIMl1bQ0hdKEYpRg==

> <s_epik_cmdline>
J2VwaWtfcHl0aG9uJywgJy1waCcsICc3LjAnLCAnLXRuJywgJzgnLCAnLW1hJywgJzIwMCcsICctbWV0YWxfYmluZGluZycsICctaW1hZScsICc8aW5maWxlLm1hZT4nLCAnLW9tYWUnLCAnPG91dGZpbGUubWFlPic=

> <r_lp_tautomer_probability>
1

> <r_epik_Ionization_Penalty>
3.99908e-05

> <r_epik_Ionization_Penalty_Charging>
0

> <r_epik_Ionization_Penalty_Neutral>
3.99908e-05

> <r_epik_State_Penalty>
-0

> <r_epik_Charging_Adjusted_Penalty>
0

> <i_epik_Tot_Q>
0

> <i_epik_Tot_abs_Q>
0

> <r_epik_Metal_State_Penalty>
-0

> <b_epik_Metal_Only>
0

> <s_lp_Force_Field>
OPLS_2005

> <r_lp_Energy>
26.1954

> <b_lp_Chiralities_Consistent>
1

> <s_lp_Variant>
AV-unprocessed.smi:643-1

> <Gold.Version>
5.8.1

> <Gold.Id.Protein>
6NUR|6NUR_protein|mol2

> <Gold.PLP.Fitness>
41.1501

> <Gold.PLP.PLP>
-33.7611

> <Gold.PLP.part.hbond>
-2.0000

> <Gold.PLP.part.metal>
0.0000

> <Gold.PLP.part.buried>
-0.7678

> <Gold.PLP.part.nonpolar>
-30.4140

> <Gold.PLP.part.repulsive>
0.2492

> <Gold.PLP.ligand.clash>
0.0000

> <Gold.PLP.ligand.torsion>
0.6996

> <Gold.PLP.Chemscore.Hbond>
1.9600

> <Gold.PLP.Chemscore.CHOScore>
0.9638

> <Gold.PLP.Chemscore.Metal>
0.0000

> <Gold.Chemscore.Hbonds>
donor molecule, donor type, donor heavy atom, donor atom, acceptor molecule, acceptor atom, score
      L1  H     8    34       P1  7948  1.00
      L1  H    11    35       P1  7948  0.96
      L1  C    14    37       P1  8028  0.99

> <Gold.PLP.Chemscore.Internal.Correction>
0.0168

> <Gold.Rescore>
     Score         DG    S(hbond)    S(metal)    S(lipo)     H(rot)  DE(clash)    DE(int)     intcor
     13.78     -15.82       1.94        0.00      60.94       1.28       0.10       1.93       ----

> <Gold.Chemscore.Fitness>
13.7842

> <Gold.Chemscore.DG>
-15.8217

> <Gold.Chemscore.ZeroCoef>
-5.4800

> <Gold.Chemscore.Hbond>
1.9406

> <Gold.Chemscore.Metal>
0.0000

> <Gold.Chemscore.Lipo>
60.9357

> <Gold.Chemscore.Internal_Hbond>
0.0000

> <Gold.Chemscore.DEClash>
0.1043

> <Gold.Chemscore.DEInternal>
1.9331

> <Gold.Chemscore.Rot>
1.2771

> <Gold.Chemscore.Internal.Correction>
   9.000000E+99

> <Gold.Chemscore.Hbonds>
donor molecule, donor type, donor heavy atom, donor atom, acceptor molecule, acceptor atom, score
      L1  H     8    34       P1  7948  0.97
      L1  H    11    35       P1  7948  0.92

> <Gold.Chemscore.Hbond.Weighted>
-6.4816

> <Gold.Chemscore.Metal.Weighted>
-0.0000

> <Gold.Chemscore.Lipo.Weighted>
-7.1295

> <Gold.Chemscore.Internal_Hbond.Weighted>
0.0000

> <Gold.Chemscore.DEClash.Weighted>
0.1043

> <Gold.Chemscore.DEInternal.Weighted>
1.9331

> <Gold.Chemscore.Rot.Weighted>
3.2694

> <Gold.Chemscore.Internal.Correction.Weighted>
   9.000000E+99

> <Gold.Protein.RotatedTorsions>
[ 6907 6896 6895 6894 ] final   19.53 input  -60.11 | X-H torsion
[ 7974 7965 7964 7962 ] final -173.46 input  175.53 | X-H torsion
[ 8008 7997 7996 7995 ] final  -93.59 input   59.86 | X-H torsion
[ 10167 10162 10161 10158 ] final   23.47 input  -65.29 | X-H torsion
[ 10718 10713 10712 10709 ] final -162.47 input   66.30 | X-H torsion
[ 10763 10752 10751 10750 ] final  -11.94 input  -60.55 | X-H torsion
[ 11005 11000 10999 10996 ] final -156.28 input  -57.11 | X-H torsion

> <Gold.Protein.ActiveResidues>
 VAL166  LYS551  ARG553  GLY616  TRP617  ASP618  TYR619  PRO620  LYS621  CYS622 
 ASP623  PHE694  ASN695  SER759  ASP760  ASP761  ALA762  ILE779  LEU786  VAL792 
 PHE793  MET794  SER795  GLU796  ALA797  LYS798  CYS799  TRP800  GLU811  SER814 

> <Gold.Protein.RotatedAtoms>
  151.8823  135.0449  160.0489 H   0  0  0  0  0  0  0  0  0  0  0  0  # atno 6907 bound_to 6896
  152.2503  133.5205  159.5329 H   0  0  0  0  0  0  0  0  0  0  0  0  # atno 6908 bound_to 6896
  150.7081  134.0886  159.3966 H   0  0  0  0  0  0  0  0  0  0  0  0  # atno 6909 bound_to 6896
  144.7138  140.1619  143.6375 H   0  0  0  0  0  0  0  0  0  0  0  0  # atno 7974 bound_to 7965
  154.7375  140.0497  157.0782 H   0  0  0  0  0  0  0  0  0  0  0  0  # atno 8008 bound_to 7997
  155.0221  140.3148  155.4770 H   0  0  0  0  0  0  0  0  0  0  0  0  # atno 8009 bound_to 7997
  156.2856  140.2165  156.5339 H   0  0  0  0  0  0  0  0  0  0  0  0  # atno 8010 bound_to 7997
  140.5267  143.9912  150.6444 H   0  0  0  0  0  0  0  0  0  0  0  0  # atno 10167 bound_to 10162
  156.6109  130.8850  151.2936 H   0  0  0  0  0  0  0  0  0  0  0  0  # atno 10718 bound_to 10713
  153.4912  135.7017  153.5883 H   0  0  0  0  0  0  0  0  0  0  0  0  # atno 10763 bound_to 10752
  153.4055  135.3861  155.2016 H   0  0  0  0  0  0  0  0  0  0  0  0  # atno 10764 bound_to 10752
  154.8716  135.3892  154.4372 H   0  0  0  0  0  0  0  0  0  0  0  0  # atno 10765 bound_to 10752
  140.6773  134.4182  157.5228 H   0  0  0  0  0  0  0  0  0  0  0  0  # atno 11005 bound_to 11000
  145.9022  139.2437  143.1487 LP  0  0  0  0  0  0  0  0  0  0  0  0  # atno 17320 bound_to 7965
  145.9799  140.8691  143.0120 LP  0  0  0  0  0  0  0  0  0  0  0  0  # atno 17321 bound_to 7965
  140.3275  143.3098  152.0721 LP  0  0  0  0  0  0  0  0  0  0  0  0  # atno 17342 bound_to 10162
  139.4940  144.6532  151.6631 LP  0  0  0  0  0  0  0  0  0  0  0  0  # atno 17343 bound_to 10162
  157.7254  130.9616  150.1614 LP  0  0  0  0  0  0  0  0  0  0  0  0  # atno 17370 bound_to 10713
  156.2391  130.3689  149.8358 LP  0  0  0  0  0  0  0  0  0  0  0  0  # atno 17371 bound_to 10713
  139.8962  134.8664  156.2096 LP  0  0  0  0  0  0  0  0  0  0  0  0  # atno 17394 bound_to 11000
  141.0345  133.6971  156.1488 LP  0  0  0  0  0  0  0  0  0  0  0  0  # atno 17395 bound_to 11000

$$$$
