AV-unprocessed.smi:308|AV-procd|sdf|2286|dock6
  -GOLD-   2262022183D 1   1.00000     0.00000
 Structure written by MMmdl.
 51 52  0  0  0  0  0  0  0  0  3 V2000
  143.6425  132.8986  151.4003 C   0  0  0  0  0  0  0  0  0  0  0  0
  145.1399  133.2042  151.2182 C   0  0  2  0  0  0  0  0  0  0  0  0
  145.8466  133.5382  152.5442 C   0  0  0  0  0  0  0  0  0  0  0  0
  145.4788  134.9400  153.0629 C   0  0  0  0  0  0  0  0  0  0  0  0
  145.7598  135.9850  152.0452 N   0  3  2  0  0  0  0  0  0  0  0  0
  145.5258  137.3542  152.5729 C   0  0  0  0  0  0  0  0  0  0  0  0
  146.3649  138.4403  151.8654 C   0  0  0  0  0  0  0  0  0  0  0  0
  147.6437  138.7024  152.5222 N   0  0  0  0  0  0  0  0  0  0  0  0
  147.8233  139.5602  153.5371 C   0  0  0  0  0  0  0  0  0  0  0  0
  146.9026  140.1847  154.0622 O   0  0  0  0  0  0  0  0  0  0  0  0
  149.1204  139.6471  153.8804 N   0  0  0  0  0  0  0  0  0  0  0  0
  149.7247  140.4658  154.8743 C   0  0  0  0  0  0  0  0  0  0  0  0
  150.7372  139.8906  155.6707 C   0  0  0  0  0  0  0  0  0  0  0  0
  151.3630  140.6572  156.6749 C   0  0  0  0  0  0  0  0  0  0  0  0
  150.9675  142.0007  156.8857 C   0  0  0  0  0  0  0  0  0  0  0  0
  151.5471  142.8326  157.8683 N   0  0  0  0  0  0  0  0  0  0  0  0
  152.4654  142.2648  158.8468 C   0  0  0  0  0  0  0  0  0  0  0  0
  151.3156  144.2722  157.8261 C   0  0  0  0  0  0  0  0  0  0  0  0
  149.9814  142.5053  156.1045 N   0  3  0  0  0  0  0  0  0  0  0  0
  149.3565  141.8081  155.1311 C   0  0  0  0  0  0  0  0  0  0  0  0
  145.0410  135.7196  150.7710 C   0  0  0  0  0  0  0  0  0  0  0  0
  145.3984  134.3334  150.2048 C   0  0  0  0  0  0  0  0  0  0  0  0
  143.0916  133.7524  151.7941 H   0  0  0  0  0  0  0  0  0  0  0  0
  143.4955  132.0665  152.0892 H   0  0  0  0  0  0  0  0  0  0  0  0
  143.1833  132.6201  150.4514 H   0  0  0  0  0  0  0  0  0  0  0  0
  145.5937  132.2945  150.8224 H   0  0  0  0  0  0  0  0  0  0  0  0
  145.6116  132.7860  153.2980 H   0  0  0  0  0  0  0  0  0  0  0  0
  146.9263  133.4887  152.3955 H   0  0  0  0  0  0  0  0  0  0  0  0
  144.4268  134.9794  153.3482 H   0  0  0  0  0  0  0  0  0  0  0  0
  146.0553  135.1449  153.9661 H   0  0  0  0  0  0  0  0  0  0  0  0
  144.4638  137.5978  152.5160 H   0  0  0  0  0  0  0  0  0  0  0  0
  145.7801  137.3697  153.6337 H   0  0  0  0  0  0  0  0  0  0  0  0
  146.5726  138.1451  150.8373 H   0  0  0  0  0  0  0  0  0  0  0  0
  145.7911  139.3660  151.7965 H   0  0  0  0  0  0  0  0  0  0  0  0
  148.4547  138.2349  152.1434 H   0  0  0  0  0  0  0  0  0  0  0  0
  149.7627  139.1095  153.3167 H   0  0  0  0  0  0  0  0  0  0  0  0
  151.0415  138.8662  155.5131 H   0  0  0  0  0  0  0  0  0  0  0  0
  152.1393  140.1982  157.2687 H   0  0  0  0  0  0  0  0  0  0  0  0
  151.9589  141.5194  159.4606 H   0  0  0  0  0  0  0  0  0  0  0  0
  152.8588  143.0324  159.5135 H   0  0  0  0  0  0  0  0  0  0  0  0
  153.3119  141.7907  158.3490 H   0  0  0  0  0  0  0  0  0  0  0  0
  150.2497  144.4922  157.8964 H   0  0  0  0  0  0  0  0  0  0  0  0
  151.6970  144.6941  156.8956 H   0  0  0  0  0  0  0  0  0  0  0  0
  151.8142  144.7789  158.6527 H   0  0  0  0  0  0  0  0  0  0  0  0
  148.5864  142.3565  154.6107 H   0  0  0  0  0  0  0  0  0  0  0  0
  143.9653  135.8007  150.9326 H   0  0  0  0  0  0  0  0  0  0  0  0
  145.3021  136.4742  150.0297 H   0  0  0  0  0  0  0  0  0  0  0  0
  146.4529  134.3278  149.9247 H   0  0  0  0  0  0  0  0  0  0  0  0
  144.8415  134.1503  149.2852 H   0  0  0  0  0  0  0  0  0  0  0  0
  146.7475  135.9228  151.8444 H   0  0  0  0  0  0  0  0  0  0  0  0
  149.6921  143.4711  156.2606 H   0  0  0  0  0  0  0  0  0  0  0  0
  1  2  1  0  0  0  0
  1 23  1  0  0  0  0
  1 24  1  0  0  0  0
  1 25  1  0  0  0  0
  2 22  1  0  0  0  0
  2  3  1  0  0  0  0
  2 26  1  0  0  0  0
  3  4  1  0  0  0  0
  3 27  1  0  0  0  0
  3 28  1  0  0  0  0
  4  5  1  0  0  0  0
  4 29  1  0  0  0  0
  4 30  1  0  0  0  0
  5  6  1  0  0  0  0
  5 21  1  0  0  0  0
  5 50  1  0  0  0  0
  6  7  1  0  0  0  0
  6 31  1  0  0  0  0
  6 32  1  0  0  0  0
  7  8  1  0  0  0  0
  7 33  1  0  0  0  0
  7 34  1  0  0  0  0
  8  9  1  0  0  0  0
  8 35  1  0  0  0  0
  9 10  2  0  0  0  0
  9 11  1  0  0  0  0
 11 12  1  0  0  0  0
 11 36  1  0  0  0  0
 12 20  1  0  0  0  0
 12 13  2  0  0  0  0
 13 14  1  0  0  0  0
 13 37  1  0  0  0  0
 14 15  2  0  0  0  0
 14 38  1  0  0  0  0
 15 16  1  0  0  0  0
 15 19  1  0  0  0  0
 16 17  1  0  0  0  0
 16 18  1  0  0  0  0
 17 39  1  0  0  0  0
 17 40  1  0  0  0  0
 17 41  1  0  0  0  0
 18 42  1  0  0  0  0
 18 43  1  0  0  0  0
 18 44  1  0  0  0  0
 19 20  2  0  0  0  0
 19 51  1  0  0  0  0
 20 45  1  0  0  0  0
 21 22  1  0  0  0  0
 21 46  1  0  0  0  0
 21 47  1  0  0  0  0
 22 48  1  0  0  0  0
 22 49  1  0  0  0  0
M  CHG  1   5   1
M  CHG  1  19   1
M  END
> <s_m_source_file>
AV-unprocessed.smi

> <i_m_source_file_index>
308

> <i_lp_mmshare_version>
43012

> <i_f3d_flags>
0

> <s_epik_input>
W0NIM11bQ0hdMVtDSDJdW0NIMl1OKFtDSDJdW0NIMl0xKVtDSDJdW0NIMl1bTkhdQyg9TylbTkhdYzJbY0hdW2NIXWMoTihbQ0gzXSlbQ0gzXSluW2NIXTI=

> <s_epik_cmdline>
J2VwaWtfcHl0aG9uJywgJy1waCcsICc3LjAnLCAnLXRuJywgJzgnLCAnLW1hJywgJzIwMCcsICctbWV0YWxfYmluZGluZycsICctaW1hZScsICc8aW5maWxlLm1hZT4nLCAnLW9tYWUnLCAnPG91dGZpbGUubWFlPic=

> <r_lp_tautomer_probability>
0.999994

> <r_epik_Ionization_Penalty>
0.309846

> <r_epik_Ionization_Penalty_Charging>
0.309826

> <r_epik_Ionization_Penalty_Neutral>
1.97883e-05

> <r_epik_State_Penalty>
0.302329

> <r_epik_Charging_Adjusted_Penalty>
0.612155

> <i_epik_Tot_Q>
2

> <i_epik_Tot_abs_Q>
2

> <r_epik_Metal_State_Penalty>
0.577265

> <b_epik_Metal_Only>
0

> <s_lp_Force_Field>
OPLS_2005

> <r_lp_Energy>
37.2755

> <b_lp_Chiralities_Consistent>
1

> <s_lp_Variant>
AV-unprocessed.smi:308-2

> <Gold.Version>
5.8.1

> <Gold.Id.Protein>
6NUR|6NUR_protein|mol2

> <Gold.PLP.Fitness>
54.0617

> <Gold.PLP.PLP>
-42.4171

> <Gold.PLP.part.hbond>
-4.9001

> <Gold.PLP.part.metal>
0.0000

> <Gold.PLP.part.buried>
0.6049

> <Gold.PLP.part.nonpolar>
-38.8878

> <Gold.PLP.part.repulsive>
0.4690

> <Gold.PLP.ligand.clash>
0.0000

> <Gold.PLP.ligand.torsion>
1.0026

> <Gold.PLP.Chemscore.Hbond>
4.5290

> <Gold.PLP.Chemscore.CHOScore>
0.0000

> <Gold.PLP.Chemscore.Metal>
0.0000

> <Gold.Chemscore.Hbonds>
donor molecule, donor type, donor heavy atom, donor atom, acceptor molecule, acceptor atom, score
      L1  H     5    50       P1  7948  1.17
      L1  H     8    35       P1  7948  0.67
      L1  H    11    36       P1  7957  0.02
      L1  H    19    51       P1  8028  1.82

> <Gold.PLP.Chemscore.Internal.Correction>
0.0626

> <Gold.Rescore>
     Score         DG    S(hbond)    S(metal)    S(lipo)     H(rot)  DE(clash)    DE(int)     intcor
     18.43     -21.46       2.43        0.00      98.97       1.45       1.99       1.05       ----

> <Gold.Chemscore.Fitness>
18.4276

> <Gold.Chemscore.DG>
-21.4631

> <Gold.Chemscore.ZeroCoef>
-5.4800

> <Gold.Chemscore.Hbond>
2.4282

> <Gold.Chemscore.Metal>
0.0000

> <Gold.Chemscore.Lipo>
98.9699

> <Gold.Chemscore.Internal_Hbond>
0.0000

> <Gold.Chemscore.DEClash>
1.9889

> <Gold.Chemscore.DEInternal>
1.0466

> <Gold.Chemscore.Rot>
1.4479

> <Gold.Chemscore.Internal.Correction>
   9.000000E+99

> <Gold.Chemscore.Hbonds>
donor molecule, donor type, donor heavy atom, donor atom, acceptor molecule, acceptor atom, score
      L1  H     5    50       P1  7948  0.58
      L1  H     8    35       P1  7948  0.64
      L1  H    11    36       P1  7957  0.03
      L1  H    19    51       P1  8028  0.88

> <Gold.Chemscore.Hbond.Weighted>
-8.1101

> <Gold.Chemscore.Metal.Weighted>
-0.0000

> <Gold.Chemscore.Lipo.Weighted>
-11.5795

> <Gold.Chemscore.Internal_Hbond.Weighted>
0.0000

> <Gold.Chemscore.DEClash.Weighted>
1.9889

> <Gold.Chemscore.DEInternal.Weighted>
1.0466

> <Gold.Chemscore.Rot.Weighted>
3.7065

> <Gold.Chemscore.Internal.Correction.Weighted>
   9.000000E+99

> <Gold.Protein.RotatedTorsions>
[ 6907 6896 6895 6894 ] final  -56.59 input  -60.11 | X-H torsion
[ 7974 7965 7964 7962 ] final   -3.89 input  175.53 | X-H torsion
[ 8008 7997 7996 7995 ] final   30.97 input   59.86 | X-H torsion
[ 10167 10162 10161 10158 ] final  122.11 input  -65.29 | X-H torsion
[ 10718 10713 10712 10709 ] final    0.56 input   66.30 | X-H torsion
[ 10763 10752 10751 10750 ] final  -41.62 input  -60.55 | X-H torsion
[ 11005 11000 10999 10996 ] final   40.87 input  -57.11 | X-H torsion

> <Gold.Protein.ActiveResidues>
 VAL166  LYS551  ARG553  GLY616  TRP617  ASP618  TYR619  PRO620  LYS621  CYS622 
 ASP623  PHE694  ASN695  SER759  ASP760  ASP761  ALA762  ILE779  LEU786  VAL792 
 PHE793  MET794  SER795  GLU796  ALA797  LYS798  CYS799  TRP800  GLU811  SER814 

> <Gold.Protein.RotatedAtoms>
  150.8155  134.7334  159.6725 H   0  0  0  0  0  0  0  0  0  0  0  0  # atno 6907 bound_to 6896
  152.4273  134.5840  159.9965 H   0  0  0  0  0  0  0  0  0  0  0  0  # atno 6908 bound_to 6896
  151.6038  133.3316  159.3089 H   0  0  0  0  0  0  0  0  0  0  0  0  # atno 6909 bound_to 6896
  146.2382  140.1789  142.8332 H   0  0  0  0  0  0  0  0  0  0  0  0  # atno 7974 bound_to 7965
  155.0989  140.3227  155.4552 H   0  0  0  0  0  0  0  0  0  0  0  0  # atno 8008 bound_to 7997
  156.2722  140.2064  156.6062 H   0  0  0  0  0  0  0  0  0  0  0  0  # atno 8009 bound_to 7997
  154.6845  140.0523  157.0287 H   0  0  0  0  0  0  0  0  0  0  0  0  # atno 8010 bound_to 7997
  139.5878  144.7013  151.3365 H   0  0  0  0  0  0  0  0  0  0  0  0  # atno 10167 bound_to 10162
  156.8352  130.5502  149.5683 H   0  0  0  0  0  0  0  0  0  0  0  0  # atno 10718 bound_to 10713
  153.9656  135.6734  153.4746 H   0  0  0  0  0  0  0  0  0  0  0  0  # atno 10763 bound_to 10752
  153.0817  135.4920  154.8513 H   0  0  0  0  0  0  0  0  0  0  0  0  # atno 10764 bound_to 10752
  154.7248  135.3125  154.8949 H   0  0  0  0  0  0  0  0  0  0  0  0  # atno 10765 bound_to 10752
  140.1889  134.4011  155.8158 H   0  0  0  0  0  0  0  0  0  0  0  0  # atno 11005 bound_to 11000
  144.9951  140.8582  143.5316 LP  0  0  0  0  0  0  0  0  0  0  0  0  # atno 17320 bound_to 7965
  145.1800  139.2357  143.5297 LP  0  0  0  0  0  0  0  0  0  0  0  0  # atno 17321 bound_to 7965
  140.7147  143.7298  150.7632 LP  0  0  0  0  0  0  0  0  0  0  0  0  # atno 17342 bound_to 10162
  140.0847  143.4935  152.2511 LP  0  0  0  0  0  0  0  0  0  0  0  0  # atno 17343 bound_to 10162
  156.0911  130.5897  150.9735 LP  0  0  0  0  0  0  0  0  0  0  0  0  # atno 17370 bound_to 10713
  157.6385  131.0913  150.8299 LP  0  0  0  0  0  0  0  0  0  0  0  0  # atno 17371 bound_to 10713
  141.2225  133.7036  156.8060 LP  0  0  0  0  0  0  0  0  0  0  0  0  # atno 17394 bound_to 11000
  140.2182  134.8776  157.3349 LP  0  0  0  0  0  0  0  0  0  0  0  0  # atno 17395 bound_to 11000

$$$$
