AV-unprocessed.smi:2127|AV-procd|sdf|8679|dock3
  -GOLD-   2272011433D 1   1.00000     0.00000
 Structure written by MMmdl.
 34 35  0  0  0  0  0  0  0  0  1 V2000
  149.9815  140.5631  156.7634 O   0  0  0  0  0  0  0  0  0  0  0  0
  149.7360  141.6651  156.2729 C   0  0  0  0  0  0  0  0  0  0  0  0
  150.2883  142.8278  156.6591 N   0  0  0  0  0  0  0  0  0  0  0  0
  151.2490  143.0489  157.6820 C   0  0  0  0  0  0  0  0  0  0  0  0
  151.7564  144.3232  158.0333 C   0  0  0  0  0  0  0  0  0  0  0  0
  152.7194  144.4121  159.0570 C   0  0  0  0  0  0  0  0  0  0  0  0
  153.1453  143.2255  159.6851 C   0  0  0  0  0  0  0  0  0  0  0  0
  152.6815  142.0032  159.3497 N   0  0  0  0  0  0  0  0  0  0  0  0
  151.7590  141.9257  158.3669 C   0  0  0  0  0  0  0  0  0  0  0  0
  148.8867  141.8484  155.2519 N   0  0  0  0  0  0  0  0  0  0  0  0
  148.1254  140.7981  154.5756 C   0  0  2  0  0  0  0  0  0  0  0  0
  146.9802  140.2841  155.4858 C   0  0  0  0  0  0  0  0  0  0  0  0
  146.4848  138.8494  155.2094 C   0  0  0  0  0  0  0  0  0  0  0  0
  146.0641  138.5617  153.7540 C   0  0  0  0  0  0  0  0  0  0  0  0
  147.1138  138.8573  152.6559 C   0  0  0  0  0  0  0  0  0  0  0  0
  148.4996  138.8343  153.1227 N   0  0  0  0  0  0  0  0  0  0  0  0
  149.0426  139.7084  153.9878 C   0  0  0  0  0  0  0  0  0  0  0  0
  150.2251  139.6336  154.3194 O   0  0  0  0  0  0  0  0  0  0  0  0
  150.0493  143.6384  156.1066 H   0  0  0  0  0  0  0  0  0  0  0  0
  151.4395  145.2249  157.5333 H   0  0  0  0  0  0  0  0  0  0  0  0
  153.1255  145.3684  159.3511 H   0  0  0  0  0  0  0  0  0  0  0  0
  153.8826  143.2586  160.4735 H   0  0  0  0  0  0  0  0  0  0  0  0
  151.4115  140.9319  158.1245 H   0  0  0  0  0  0  0  0  0  0  0  0
  148.7455  142.7896  154.9145 H   0  0  0  0  0  0  0  0  0  0  0  0
  147.6637  141.2738  153.7093 H   0  0  0  0  0  0  0  0  0  0  0  0
  147.3023  140.3222  156.5275 H   0  0  0  0  0  0  0  0  0  0  0  0
  146.1381  140.9737  155.4150 H   0  0  0  0  0  0  0  0  0  0  0  0
  147.2540  138.1362  155.5091 H   0  0  0  0  0  0  0  0  0  0  0  0
  145.6386  138.6412  155.8647 H   0  0  0  0  0  0  0  0  0  0  0  0
  145.7927  137.5073  153.6943 H   0  0  0  0  0  0  0  0  0  0  0  0
  145.1499  139.1100  153.5239 H   0  0  0  0  0  0  0  0  0  0  0  0
  147.0105  138.1302  151.8505 H   0  0  0  0  0  0  0  0  0  0  0  0
  146.9098  139.8244  152.1950 H   0  0  0  0  0  0  0  0  0  0  0  0
  149.0957  138.1110  152.7470 H   0  0  0  0  0  0  0  0  0  0  0  0
  1  2  2  0  0  0  0
  2  3  1  0  0  0  0
  2 10  1  0  0  0  0
  3  4  1  0  0  0  0
  3 19  1  0  0  0  0
  4  9  1  0  0  0  0
  4  5  2  0  0  0  0
  5  6  1  0  0  0  0
  5 20  1  0  0  0  0
  6  7  2  0  0  0  0
  6 21  1  0  0  0  0
  7  8  1  0  0  0  0
  7 22  1  0  0  0  0
  8  9  2  0  0  0  0
  9 23  1  0  0  0  0
 10 11  1  0  0  0  0
 10 24  1  0  0  0  0
 11 17  1  0  0  0  0
 11 12  1  0  0  0  0
 11 25  1  0  0  0  0
 12 13  1  0  0  0  0
 12 26  1  0  0  0  0
 12 27  1  0  0  0  0
 13 14  1  0  0  0  0
 13 28  1  0  0  0  0
 13 29  1  0  0  0  0
 14 15  1  0  0  0  0
 14 30  1  0  0  0  0
 14 31  1  0  0  0  0
 15 16  1  0  0  0  0
 15 32  1  0  0  0  0
 15 33  1  0  0  0  0
 16 17  1  0  0  0  0
 16 34  1  0  0  0  0
 17 18  2  0  0  0  0
M  END
> <s_m_source_file>
AV-unprocessed.smi

> <i_m_source_file_index>
2127

> <i_lp_mmshare_version>
43012

> <i_f3d_flags>
0

> <s_epik_input>
W2NIXTFuW2NIXVtjSF1bY0hdYzFbTkhdQyg9TylbTkhdW0NAQEhdMltDSDJdW0NIMl1bQ0gyXVtDSDJdW05IXUMyPU8=

> <s_epik_cmdline>
J2VwaWtfcHl0aG9uJywgJy1waCcsICc3LjAnLCAnLXRuJywgJzgnLCAnLW1hJywgJzIwMCcsICctbWV0YWxfYmluZGluZycsICctaW1hZScsICc8aW5maWxlLm1hZT4nLCAnLW9tYWUnLCAnPG91dGZpbGUubWFlPic=

> <r_epik_Ionization_Penalty>
0.00420494

> <r_epik_Ionization_Penalty_Charging>
0

> <r_epik_Ionization_Penalty_Neutral>
0.00420494

> <r_epik_State_Penalty>
0.0029968

> <r_epik_Charging_Adjusted_Penalty>
0.0029968

> <i_epik_Tot_Q>
0

> <i_epik_Tot_abs_Q>
0

> <r_epik_Metal_State_Penalty>
-0

> <b_epik_Metal_Only>
0

> <s_lp_Force_Field>
OPLS_2005

> <r_lp_Energy>
16.7417

> <b_lp_Chiralities_Consistent>
1

> <s_lp_Variant>
AV-unprocessed.smi:2127-1

> <Gold.Version>
5.8.1

> <Gold.Id.Protein>
6NUR|6NUR_protein|mol2

> <Gold.PLP.Fitness>
42.7817

> <Gold.PLP.PLP>
-32.2925

> <Gold.PLP.part.hbond>
-5.0000

> <Gold.PLP.part.metal>
0.0000

> <Gold.PLP.part.buried>
-3.1131

> <Gold.PLP.part.nonpolar>
-25.2810

> <Gold.PLP.part.repulsive>
0.4577

> <Gold.PLP.ligand.clash>
0.0000

> <Gold.PLP.ligand.torsion>
0.0737

> <Gold.PLP.Chemscore.Hbond>
3.5279

> <Gold.PLP.Chemscore.CHOScore>
0.0000

> <Gold.PLP.Chemscore.Metal>
0.0000

> <Gold.Chemscore.Hbonds>
donor molecule, donor type, donor heavy atom, donor atom, acceptor molecule, acceptor atom, score
      L1  H     3    19       P1  8028  0.96
      L1  H    10    24       P1  8028  0.71
      L1  H    16    34       P1  7948  0.78
      P1  H  7989  7998       L1    18  0.98

> <Gold.PLP.Chemscore.Internal.Correction>
0.0527

> <Gold.Rescore>
     Score         DG    S(hbond)    S(metal)    S(lipo)     H(rot)  DE(clash)    DE(int)     intcor
     18.39     -22.53       3.30        0.00      73.28       1.00       0.12       4.02       ----

> <Gold.Chemscore.Fitness>
18.3915

> <Gold.Chemscore.DG>
-22.5281

> <Gold.Chemscore.ZeroCoef>
-5.4800

> <Gold.Chemscore.Hbond>
3.3036

> <Gold.Chemscore.Metal>
0.0000

> <Gold.Chemscore.Lipo>
73.2832

> <Gold.Chemscore.Internal_Hbond>
0.0000

> <Gold.Chemscore.DEClash>
0.1214

> <Gold.Chemscore.DEInternal>
4.0151

> <Gold.Chemscore.Rot>
1.0000

> <Gold.Chemscore.Internal.Correction>
   9.000000E+99

> <Gold.Chemscore.Hbonds>
donor molecule, donor type, donor heavy atom, donor atom, acceptor molecule, acceptor atom, score
      L1  H     3    19       P1  8028  0.92
      L1  H    10    24       P1  8028  0.69
      L1  H    16    34       P1  7948  0.73
      P1  H  7989  7998       L1    18  0.91

> <Gold.Chemscore.Hbond.Weighted>
-11.0339

> <Gold.Chemscore.Metal.Weighted>
-0.0000

> <Gold.Chemscore.Lipo.Weighted>
-8.5741

> <Gold.Chemscore.Internal_Hbond.Weighted>
0.0000

> <Gold.Chemscore.DEClash.Weighted>
0.1214

> <Gold.Chemscore.DEInternal.Weighted>
4.0151

> <Gold.Chemscore.Rot.Weighted>
2.5600

> <Gold.Chemscore.Internal.Correction.Weighted>
   9.000000E+99

> <Gold.Protein.RotatedTorsions>
[ 6907 6896 6895 6894 ] final  -53.97 input  -60.11 | X-H torsion
[ 7974 7965 7964 7962 ] final -110.72 input  175.53 | X-H torsion
[ 8008 7997 7996 7995 ] final -149.66 input   59.86 | X-H torsion
[ 10167 10162 10161 10158 ] final  141.48 input  -65.29 | X-H torsion
[ 10718 10713 10712 10709 ] final  106.40 input   66.30 | X-H torsion
[ 10763 10752 10751 10750 ] final   55.67 input  -60.55 | X-H torsion
[ 11005 11000 10999 10996 ] final  102.97 input  -57.11 | X-H torsion

> <Gold.Protein.ActiveResidues>
 VAL166  LYS551  ARG553  GLY616  TRP617  ASP618  TYR619  PRO620  LYS621  CYS622 
 ASP623  PHE694  ASN695  SER759  ASP760  ASP761  ALA762  ILE779  LEU786  VAL792 
 PHE793  MET794  SER795  GLU796  ALA797  LYS798  CYS799  TRP800  GLU811  SER814 

> <Gold.Protein.RotatedAtoms>
  150.8379  134.7659  159.6907 H   0  0  0  0  0  0  0  0  0  0  0  0  # atno 6907 bound_to 6896
  152.4472  134.5466  159.9864 H   0  0  0  0  0  0  0  0  0  0  0  0  # atno 6908 bound_to 6896
  151.5612  133.3365  159.3007 H   0  0  0  0  0  0  0  0  0  0  0  0  # atno 6909 bound_to 6896
  145.1648  140.8896  143.3570 H   0  0  0  0  0  0  0  0  0  0  0  0  # atno 7974 bound_to 7965
  155.6111  140.0672  157.2706 H   0  0  0  0  0  0  0  0  0  0  0  0  # atno 8008 bound_to 7997
  154.4253  140.1801  156.1321 H   0  0  0  0  0  0  0  0  0  0  0  0  # atno 8009 bound_to 7997
  156.0084  140.3329  155.6919 H   0  0  0  0  0  0  0  0  0  0  0  0  # atno 8010 bound_to 7997
  139.5019  144.6169  151.6143 H   0  0  0  0  0  0  0  0  0  0  0  0  # atno 10167 bound_to 10162
  157.6669  131.0850  150.6001 H   0  0  0  0  0  0  0  0  0  0  0  0  # atno 10718 bound_to 10713
  152.9820  135.5703  154.5104 H   0  0  0  0  0  0  0  0  0  0  0  0  # atno 10763 bound_to 10752
  154.4609  135.2781  155.1715 H   0  0  0  0  0  0  0  0  0  0  0  0  # atno 10764 bound_to 10752
  154.3304  135.6250  153.5602 H   0  0  0  0  0  0  0  0  0  0  0  0  # atno 10765 bound_to 10752
  139.8780  134.9245  156.5139 H   0  0  0  0  0  0  0  0  0  0  0  0  # atno 11005 bound_to 11000
  145.0293  139.3354  143.6032 LP  0  0  0  0  0  0  0  0  0  0  0  0  # atno 17320 bound_to 7965
  146.3477  139.9625  142.8715 LP  0  0  0  0  0  0  0  0  0  0  0  0  # atno 17321 bound_to 7965
  140.5859  143.9865  150.6295 LP  0  0  0  0  0  0  0  0  0  0  0  0  # atno 17342 bound_to 10162
  140.3029  143.3248  152.0954 LP  0  0  0  0  0  0  0  0  0  0  0  0  # atno 17343 bound_to 10162
  156.6302  130.4430  149.5789 LP  0  0  0  0  0  0  0  0  0  0  0  0  # atno 17370 bound_to 10713
  156.2288  130.6782  151.1442 LP  0  0  0  0  0  0  0  0  0  0  0  0  # atno 17371 bound_to 10713
  140.8500  133.8139  155.9159 LP  0  0  0  0  0  0  0  0  0  0  0  0  # atno 17394 bound_to 11000
  140.9153  134.2209  157.4960 LP  0  0  0  0  0  0  0  0  0  0  0  0  # atno 17395 bound_to 11000

$$$$
