AV-unprocessed.smi:2032|AV-procd|sdf|8252|dock4
  -GOLD-   2272010523D 1   1.00000     0.00000
 Structure written by MMmdl.
 42 43  0  0  0  0  0  0  0  0  3 V2000
  148.6162  141.4337  154.6378 C   0  0  0  0  0  0  0  0  0  0  0  0
  149.2295  140.0515  154.8874 C   0  0  1  0  0  0  0  0  0  0  0  0
  148.8684  139.0495  153.7699 C   0  0  0  0  0  0  0  0  0  0  0  0
  149.5253  137.7317  153.9923 N   0  3  2  0  0  0  0  0  0  0  0  0
  148.9435  136.8925  155.0962 C   0  0  2  0  0  0  0  0  0  0  0  0
  149.8545  135.6890  155.4416 C   0  0  0  0  0  0  0  0  0  0  0  0
  147.5122  136.3901  154.7551 C   0  0  0  0  0  0  0  0  0  0  0  0
  147.4982  135.3926  153.6890 N   0  0  0  0  0  0  0  0  0  0  0  0
  146.6003  134.4056  153.5565 C   0  0  0  0  0  0  0  0  0  0  0  0
  145.6773  134.3025  154.3682 O   0  0  0  0  0  0  0  0  0  0  0  0
  146.8333  133.5964  152.4995 N   0  5  0  0  0  0  0  0  0  0  0  0
  145.8148  133.2084  151.7149 C   0  0  0  0  0  0  0  0  0  0  0  0
  144.5342  133.4736  151.9965 N   0  0  0  0  0  0  0  0  0  0  0  0
  143.6424  132.9807  151.0420 C   0  0  0  0  0  0  0  0  0  0  0  0
  144.2595  132.3322  150.0052 C   0  0  0  0  0  0  0  0  0  0  0  0
  145.9893  132.3222  150.1974 S   0  0  0  0  0  0  0  0  0  0  0  0
  150.9933  137.9669  154.0729 C   0  0  0  0  0  0  0  0  0  0  0  0
  151.3360  138.9805  155.1865 C   0  0  1  0  0  0  0  0  0  0  0  0
  152.8364  139.2885  155.2403 C   0  0  0  0  0  0  0  0  0  0  0  0
  150.6461  140.2008  154.9306 O   0  0  0  0  0  0  0  0  0  0  0  0
  147.5278  141.3791  154.6028 H   0  0  0  0  0  0  0  0  0  0  0  0
  148.9611  141.8549  153.6930 H   0  0  0  0  0  0  0  0  0  0  0  0
  148.8874  142.1299  155.4318 H   0  0  0  0  0  0  0  0  0  0  0  0
  148.8730  139.6919  155.8534 H   0  0  0  0  0  0  0  0  0  0  0  0
  147.7919  138.9692  153.6430 H   0  0  0  0  0  0  0  0  0  0  0  0
  149.2251  139.4432  152.8167 H   0  0  0  0  0  0  0  0  0  0  0  0
  148.8756  137.5072  155.9927 H   0  0  0  0  0  0  0  0  0  0  0  0
  149.3964  135.0238  156.1729 H   0  0  0  0  0  0  0  0  0  0  0  0
  150.7960  135.9989  155.8930 H   0  0  0  0  0  0  0  0  0  0  0  0
  150.0781  135.0942  154.5557 H   0  0  0  0  0  0  0  0  0  0  0  0
  147.0167  135.9325  155.6093 H   0  0  0  0  0  0  0  0  0  0  0  0
  146.8866  137.2275  154.4453 H   0  0  0  0  0  0  0  0  0  0  0  0
  148.2345  135.4450  153.0001 H   0  0  0  0  0  0  0  0  0  0  0  0
  142.5832  133.1387  151.1800 H   0  0  0  0  0  0  0  0  0  0  0  0
  143.8060  131.8645  149.1446 H   0  0  0  0  0  0  0  0  0  0  0  0
  151.5585  137.0444  154.1869 H   0  0  0  0  0  0  0  0  0  0  0  0
  151.3208  138.3715  153.1139 H   0  0  0  0  0  0  0  0  0  0  0  0
  151.0336  138.5930  156.1602 H   0  0  0  0  0  0  0  0  0  0  0  0
  153.4142  138.3883  155.4519 H   0  0  0  0  0  0  0  0  0  0  0  0
  153.0573  140.0154  156.0224 H   0  0  0  0  0  0  0  0  0  0  0  0
  153.1906  139.6993  154.2944 H   0  0  0  0  0  0  0  0  0  0  0  0
  149.3733  137.1961  153.1497 H   0  0  0  0  0  0  0  0  0  0  0  0
  1  2  1  0  0  0  0
  1 21  1  0  0  0  0
  1 22  1  0  0  0  0
  1 23  1  0  0  0  0
  2 20  1  0  0  0  0
  2  3  1  0  0  0  0
  2 24  1  0  0  0  0
  3  4  1  0  0  0  0
  3 25  1  0  0  0  0
  3 26  1  0  0  0  0
  4  5  1  0  0  0  0
  4 17  1  0  0  0  0
  4 42  1  0  0  0  0
  5  6  1  0  0  0  0
  5  7  1  0  0  0  0
  5 27  1  0  0  0  0
  6 28  1  0  0  0  0
  6 29  1  0  0  0  0
  6 30  1  0  0  0  0
  7  8  1  0  0  0  0
  7 31  1  0  0  0  0
  7 32  1  0  0  0  0
  8  9  1  0  0  0  0
  8 33  1  0  0  0  0
  9 10  2  0  0  0  0
  9 11  1  0  0  0  0
 11 12  1  0  0  0  0
 12 16  1  0  0  0  0
 12 13  2  0  0  0  0
 13 14  1  0  0  0  0
 14 15  2  0  0  0  0
 14 34  1  0  0  0  0
 15 16  1  0  0  0  0
 15 35  1  0  0  0  0
 17 18  1  0  0  0  0
 17 36  1  0  0  0  0
 17 37  1  0  0  0  0
 18 19  1  0  0  0  0
 18 20  1  0  0  0  0
 18 38  1  0  0  0  0
 19 39  1  0  0  0  0
 19 40  1  0  0  0  0
 19 41  1  0  0  0  0
M  CHG  1   4   1
M  CHG  1  11  -1
M  END
> <s_m_source_file>
AV-unprocessed.smi

> <i_m_source_file_index>
2032

> <i_lp_mmshare_version>
43012

> <i_f3d_flags>
0

> <s_epik_input>
W0NIM11bQ0BASF0xW0NIMl1OKFtDSDJdW0NASF0oTzEpW0NIM10pW0NASF0oW0NIM10pW0NIMl1bTkhdQyg9TylbTkhdYzJuW2NIXVtjSF1zMg==

> <s_epik_cmdline>
J2VwaWtfcHl0aG9uJywgJy1waCcsICc3LjAnLCAnLXRuJywgJzgnLCAnLW1hJywgJzIwMCcsICctbWV0YWxfYmluZGluZycsICctaW1hZScsICc8aW5maWxlLm1hZT4nLCAnLW9tYWUnLCAnPG91dGZpbGUubWFlPic=

> <r_lp_tautomer_probability>
0.999

> <r_epik_Ionization_Penalty>
6.71699

> <r_epik_Ionization_Penalty_Charging>
5.88592

> <r_epik_Ionization_Penalty_Neutral>
0.831074

> <r_epik_State_Penalty>
6.08365

> <r_epik_Charging_Adjusted_Penalty>
11.9696

> <i_epik_Tot_Q>
0

> <i_epik_Tot_abs_Q>
2

> <r_epik_Metal_State_Penalty>
2.0947

> <b_epik_Metal_Only>
1

> <s_lp_Force_Field>
OPLS_2005

> <r_lp_Energy>
10.9101

> <b_lp_Chiralities_Consistent>
1

> <s_lp_Variant>
AV-unprocessed.smi:2032-22

> <Gold.Version>
5.8.1

> <Gold.Id.Protein>
6NUR|6NUR_protein|mol2

> <Gold.PLP.Fitness>
45.0828

> <Gold.PLP.PLP>
-31.5624

> <Gold.PLP.part.hbond>
-2.7689

> <Gold.PLP.part.metal>
0.0000

> <Gold.PLP.part.buried>
-0.7082

> <Gold.PLP.part.nonpolar>
-28.8263

> <Gold.PLP.part.repulsive>
0.3834

> <Gold.PLP.ligand.clash>
0.0000

> <Gold.PLP.ligand.torsion>
0.7679

> <Gold.PLP.Chemscore.Hbond>
4.0000

> <Gold.PLP.Chemscore.CHOScore>
0.9951

> <Gold.PLP.Chemscore.Metal>
0.0000

> <Gold.Chemscore.Hbonds>
donor molecule, donor type, donor heavy atom, donor atom, acceptor molecule, acceptor atom, score
      L1  H     4    42       P1  7948  2.00
      L1  H     8    33       P1  7948  1.00
      P1  H  7989  7998       L1    20  1.00
      L1  C    14    34       P1 10186  0.78

> <Gold.PLP.Chemscore.Internal.Correction>
0.0708

> <Gold.Rescore>
     Score         DG    S(hbond)    S(metal)    S(lipo)     H(rot)  DE(clash)    DE(int)     intcor
     17.20     -20.01       2.68        0.00      82.30       1.58       0.43       2.38       ----

> <Gold.Chemscore.Fitness>
17.1961

> <Gold.Chemscore.DG>
-20.0083

> <Gold.Chemscore.ZeroCoef>
-5.4800

> <Gold.Chemscore.Hbond>
2.6772

> <Gold.Chemscore.Metal>
0.0000

> <Gold.Chemscore.Lipo>
82.2991

> <Gold.Chemscore.Internal_Hbond>
0.0000

> <Gold.Chemscore.DEClash>
0.4293

> <Gold.Chemscore.DEInternal>
2.3829

> <Gold.Chemscore.Rot>
1.5791

> <Gold.Chemscore.Internal.Correction>
   9.000000E+99

> <Gold.Chemscore.Hbonds>
donor molecule, donor type, donor heavy atom, donor atom, acceptor molecule, acceptor atom, score
      L1  H     4    42       P1  7948  0.94
      L1  H     8    33       P1  7948  0.90
      P1  H  7989  7998       L1    20  0.30

> <Gold.Chemscore.Hbond.Weighted>
-8.9418

> <Gold.Chemscore.Metal.Weighted>
-0.0000

> <Gold.Chemscore.Lipo.Weighted>
-9.6290

> <Gold.Chemscore.Internal_Hbond.Weighted>
0.0000

> <Gold.Chemscore.DEClash.Weighted>
0.4293

> <Gold.Chemscore.DEInternal.Weighted>
2.3829

> <Gold.Chemscore.Rot.Weighted>
4.0425

> <Gold.Chemscore.Internal.Correction.Weighted>
   9.000000E+99

> <Gold.Protein.RotatedTorsions>
[ 6907 6896 6895 6894 ] final  -26.85 input  -60.11 | X-H torsion
[ 7974 7965 7964 7962 ] final   33.57 input  175.53 | X-H torsion
[ 8008 7997 7996 7995 ] final -133.58 input   59.86 | X-H torsion
[ 10167 10162 10161 10158 ] final  178.94 input  -65.29 | X-H torsion
[ 10718 10713 10712 10709 ] final -146.60 input   66.30 | X-H torsion
[ 10763 10752 10751 10750 ] final   65.56 input  -60.55 | X-H torsion
[ 11005 11000 10999 10996 ] final   54.82 input  -57.11 | X-H torsion

> <Gold.Protein.ActiveResidues>
 VAL166  LYS551  ARG553  GLY616  TRP617  ASP618  TYR619  PRO620  LYS621  CYS622 
 ASP623  PHE694  ASN695  SER759  ASP760  ASP761  ALA762  ILE779  LEU786  VAL792 
 PHE793  MET794  SER795  GLU796  ALA797  LYS798  CYS799  TRP800  GLU811  SER814 

> <Gold.Protein.RotatedAtoms>
  151.1551  135.0246  159.8685 H   0  0  0  0  0  0  0  0  0  0  0  0  # atno 6907 bound_to 6896
  152.5452  134.1344  159.8462 H   0  0  0  0  0  0  0  0  0  0  0  0  # atno 6908 bound_to 6896
  151.1433  133.4911  159.2629 H   0  0  0  0  0  0  0  0  0  0  0  0  # atno 6909 bound_to 6896
  146.1411  139.6379  142.9162 H   0  0  0  0  0  0  0  0  0  0  0  0  # atno 7974 bound_to 7965
  155.3478  140.0475  157.3046 H   0  0  0  0  0  0  0  0  0  0  0  0  # atno 8008 bound_to 7997
  154.5243  140.2235  155.8883 H   0  0  0  0  0  0  0  0  0  0  0  0  # atno 8009 bound_to 7997
  156.1723  140.3093  155.9001 H   0  0  0  0  0  0  0  0  0  0  0  0  # atno 8010 bound_to 7997
  139.5315  144.2620  152.0699 H   0  0  0  0  0  0  0  0  0  0  0  0  # atno 10167 bound_to 10162
  156.3970  130.7914  151.2122 H   0  0  0  0  0  0  0  0  0  0  0  0  # atno 10718 bound_to 10713
  153.0101  135.5352  154.6686 H   0  0  0  0  0  0  0  0  0  0  0  0  # atno 10763 bound_to 10752
  154.5876  135.2856  155.0671 H   0  0  0  0  0  0  0  0  0  0  0  0  # atno 10764 bound_to 10752
  154.1776  135.6521  153.5078 H   0  0  0  0  0  0  0  0  0  0  0  0  # atno 10765 bound_to 10752
  140.0656  134.5541  155.9103 H   0  0  0  0  0  0  0  0  0  0  0  0  # atno 11005 bound_to 11000
  145.5044  141.0437  143.2523 LP  0  0  0  0  0  0  0  0  0  0  0  0  # atno 17320 bound_to 7965
  144.7794  139.6559  143.7161 LP  0  0  0  0  0  0  0  0  0  0  0  0  # atno 17321 bound_to 7965
  140.2084  144.4587  150.6397 LP  0  0  0  0  0  0  0  0  0  0  0  0  # atno 17342 bound_to 10162
  140.6496  143.2221  151.6107 LP  0  0  0  0  0  0  0  0  0  0  0  0  # atno 17343 bound_to 10162
  157.7502  131.0298  150.4110 LP  0  0  0  0  0  0  0  0  0  0  0  0  # atno 17370 bound_to 10713
  156.4382  130.3986  149.6715 LP  0  0  0  0  0  0  0  0  0  0  0  0  # atno 17371 bound_to 10713
  141.1991  133.6605  156.5827 LP  0  0  0  0  0  0  0  0  0  0  0  0  # atno 17394 bound_to 11000
  140.3704  134.7611  157.4595 LP  0  0  0  0  0  0  0  0  0  0  0  0  # atno 17395 bound_to 11000

$$$$
