AV-unprocessed.smi:2896|AV-procd|sdf|11139|dock4
  -GOLD-   2272016 13D 1   1.00000     0.00000
 Structure written by MMmdl.
 49 50  0  0  0  0  0  0  0  0  1 V2000
  145.0893  136.0807  155.0620 C   0  0  0  0  0  0  0  0  0  0  0  0
  144.7391  136.4465  153.6058 C   0  0  1  0  0  0  0  0  0  0  0  0
  145.8756  137.1835  152.8602 C   0  0  0  0  0  0  0  0  0  0  0  0
  146.0905  138.5345  153.3669 N   0  0  0  0  0  0  0  0  0  0  0  0
  147.0451  138.8954  154.2413 C   0  0  0  0  0  0  0  0  0  0  0  0
  147.8309  138.0780  154.7239 O   0  0  0  0  0  0  0  0  0  0  0  0
  147.1167  140.3892  154.6501 C   0  0  0  0  0  0  0  0  0  0  0  0
  147.0085  141.2737  153.3797 C   0  0  0  0  0  0  0  0  0  0  0  0
  145.9116  140.7811  155.5449 C   0  0  0  0  0  0  0  0  0  0  0  0
  148.4460  140.5986  155.4044 C   0  0  0  0  0  0  0  0  0  0  0  0
  148.5011  141.1307  156.7167 C   0  0  0  0  0  0  0  0  0  0  0  0
  149.7497  141.3032  157.3440 C   0  0  0  0  0  0  0  0  0  0  0  0
  150.9116  140.9419  156.6385 C   0  0  0  0  0  0  0  0  0  0  0  0
  150.8869  140.4401  155.3877 N   0  0  0  0  0  0  0  0  0  0  0  0
  149.6851  140.2779  154.7951 C   0  0  0  0  0  0  0  0  0  0  0  0
  144.1484  135.2626  152.8003 C   0  0  0  0  0  0  0  0  0  0  0  0
  144.9924  134.0783  152.6101 N   0  0  0  0  0  0  0  0  0  0  0  0
  146.1206  134.3879  151.7368 C   0  0  0  0  0  0  0  0  0  0  0  0
  147.0370  133.1721  151.5195 C   0  0  0  0  0  0  0  0  0  0  0  0
  146.2752  132.0961  150.9840 O   0  0  0  0  0  0  0  0  0  0  0  0
  145.1913  131.7236  151.8276 C   0  0  0  0  0  0  0  0  0  0  0  0
  144.2696  132.9342  152.0600 C   0  0  0  0  0  0  0  0  0  0  0  0
  145.9856  135.4686  155.1372 H   0  0  0  0  0  0  0  0  0  0  0  0
  144.2730  135.5357  155.5364 H   0  0  0  0  0  0  0  0  0  0  0  0
  145.2631  136.9760  155.6595 H   0  0  0  0  0  0  0  0  0  0  0  0
  143.9148  137.1558  153.6928 H   0  0  0  0  0  0  0  0  0  0  0  0
  146.8149  136.6419  152.9693 H   0  0  0  0  0  0  0  0  0  0  0  0
  145.6668  137.2189  151.7895 H   0  0  0  0  0  0  0  0  0  0  0  0
  145.4736  139.2540  153.0187 H   0  0  0  0  0  0  0  0  0  0  0  0
  147.7767  141.0498  152.6386 H   0  0  0  0  0  0  0  0  0  0  0  0
  147.0913  142.3327  153.6270 H   0  0  0  0  0  0  0  0  0  0  0  0
  146.0469  141.1358  152.8834 H   0  0  0  0  0  0  0  0  0  0  0  0
  145.8487  140.2068  156.4687 H   0  0  0  0  0  0  0  0  0  0  0  0
  144.9659  140.6383  155.0198 H   0  0  0  0  0  0  0  0  0  0  0  0
  145.9661  141.8322  155.8302 H   0  0  0  0  0  0  0  0  0  0  0  0
  147.6131  141.4129  157.2596 H   0  0  0  0  0  0  0  0  0  0  0  0
  149.8145  141.7058  158.3440 H   0  0  0  0  0  0  0  0  0  0  0  0
  151.8857  141.0615  157.0892 H   0  0  0  0  0  0  0  0  0  0  0  0
  149.7262  139.8858  153.7905 H   0  0  0  0  0  0  0  0  0  0  0  0
  143.1852  134.9704  153.2212 H   0  0  0  0  0  0  0  0  0  0  0  0
  143.9149  135.6597  151.8112 H   0  0  0  0  0  0  0  0  0  0  0  0
  145.7547  134.7388  150.7705 H   0  0  0  0  0  0  0  0  0  0  0  0
  146.7054  135.2039  152.1626 H   0  0  0  0  0  0  0  0  0  0  0  0
  147.8399  133.4210  150.8256 H   0  0  0  0  0  0  0  0  0  0  0  0
  147.5052  132.8671  152.4567 H   0  0  0  0  0  0  0  0  0  0  0  0
  144.6377  130.9103  151.3586 H   0  0  0  0  0  0  0  0  0  0  0  0
  145.5748  131.3443  152.7760 H   0  0  0  0  0  0  0  0  0  0  0  0
  143.4812  132.6249  152.7415 H   0  0  0  0  0  0  0  0  0  0  0  0
  143.7898  133.2134  151.1208 H   0  0  0  0  0  0  0  0  0  0  0  0
  1  2  1  0  0  0  0
  1 23  1  0  0  0  0
  1 24  1  0  0  0  0
  1 25  1  0  0  0  0
  2  3  1  0  0  0  0
  2 16  1  0  0  0  0
  2 26  1  0  0  0  0
  3  4  1  0  0  0  0
  3 27  1  0  0  0  0
  3 28  1  0  0  0  0
  4  5  1  0  0  0  0
  4 29  1  0  0  0  0
  5  6  2  0  0  0  0
  5  7  1  0  0  0  0
  7  8  1  0  0  0  0
  7  9  1  0  0  0  0
  7 10  1  0  0  0  0
  8 30  1  0  0  0  0
  8 31  1  0  0  0  0
  8 32  1  0  0  0  0
  9 33  1  0  0  0  0
  9 34  1  0  0  0  0
  9 35  1  0  0  0  0
 10 15  1  0  0  0  0
 10 11  2  0  0  0  0
 11 12  1  0  0  0  0
 11 36  1  0  0  0  0
 12 13  2  0  0  0  0
 12 37  1  0  0  0  0
 13 14  1  0  0  0  0
 13 38  1  0  0  0  0
 14 15  2  0  0  0  0
 15 39  1  0  0  0  0
 16 17  1  0  0  0  0
 16 40  1  0  0  0  0
 16 41  1  0  0  0  0
 17 22  1  0  0  0  0
 17 18  1  0  0  0  0
 18 19  1  0  0  0  0
 18 42  1  0  0  0  0
 18 43  1  0  0  0  0
 19 20  1  0  0  0  0
 19 44  1  0  0  0  0
 19 45  1  0  0  0  0
 20 21  1  0  0  0  0
 21 22  1  0  0  0  0
 21 46  1  0  0  0  0
 21 47  1  0  0  0  0
 22 48  1  0  0  0  0
 22 49  1  0  0  0  0
M  END
> <s_m_source_file>
AV-unprocessed.smi

> <i_m_source_file_index>
2896

> <i_lp_mmshare_version>
43012

> <i_f3d_flags>
0

> <s_epik_input>
W0NIMl0xW0NIMl1PW0NIMl1bQ0gyXU4xW0NIMl1bQ0BIXShbQ0gzXSlbQ0gyXVtOSF1DKD1PKUMoW0NIM10pKFtDSDNdKWMyW2NIXVtjSF1bY0hdbltjSF0y

> <s_epik_cmdline>
J2VwaWtfcHl0aG9uJywgJy1waCcsICc3LjAnLCAnLXRuJywgJzgnLCAnLW1hJywgJzIwMCcsICctbWV0YWxfYmluZGluZycsICctaW1hZScsICc8aW5maWxlLm1hZT4nLCAnLW9tYWUnLCAnPG91dGZpbGUubWFlPic=

> <r_epik_Ionization_Penalty>
0.458454

> <r_epik_Ionization_Penalty_Charging>
0

> <r_epik_Ionization_Penalty_Neutral>
0.458454

> <r_epik_State_Penalty>
0.453234

> <r_epik_Charging_Adjusted_Penalty>
0.453234

> <i_epik_Tot_Q>
0

> <i_epik_Tot_abs_Q>
0

> <r_epik_Metal_State_Penalty>
0.448418

> <b_epik_Metal_Only>
0

> <s_lp_Force_Field>
OPLS_2005

> <r_lp_Energy>
37.0423

> <b_lp_Chiralities_Consistent>
1

> <s_lp_Variant>
AV-unprocessed.smi:2896-4

> <Gold.Version>
5.8.1

> <Gold.Id.Protein>
6NUR|6NUR_protein|mol2

> <Gold.PLP.Fitness>
38.6841

> <Gold.PLP.PLP>
-30.8757

> <Gold.PLP.part.hbond>
-2.0000

> <Gold.PLP.part.metal>
0.0000

> <Gold.PLP.part.buried>
-6.6506

> <Gold.PLP.part.nonpolar>
-23.1568

> <Gold.PLP.part.repulsive>
0.4388

> <Gold.PLP.ligand.clash>
0.0000

> <Gold.PLP.ligand.torsion>
0.7925

> <Gold.PLP.Chemscore.Hbond>
2.0000

> <Gold.PLP.Chemscore.CHOScore>
1.0000

> <Gold.PLP.Chemscore.Metal>
0.0000

> <Gold.Chemscore.Hbonds>
donor molecule, donor type, donor heavy atom, donor atom, acceptor molecule, acceptor atom, score
      L1  H     4    29       P1 10175  0.49
      P1  H  7989  7998       L1    14  0.31
      L1  C    15    39       P1  7957  0.74

> <Gold.PLP.Chemscore.Internal.Correction>
0.3935

> <Gold.Rescore>
     Score         DG    S(hbond)    S(metal)    S(lipo)     H(rot)  DE(clash)    DE(int)     intcor
     13.91     -16.45       1.84        0.00      78.07       1.68       0.44       2.10       ----

> <Gold.Chemscore.Fitness>
13.9065

> <Gold.Chemscore.DG>
-16.4491

> <Gold.Chemscore.ZeroCoef>
-5.4800

> <Gold.Chemscore.Hbond>
1.8394

> <Gold.Chemscore.Metal>
0.0000

> <Gold.Chemscore.Lipo>
78.0717

> <Gold.Chemscore.Internal_Hbond>
0.0000

> <Gold.Chemscore.DEClash>
0.4414

> <Gold.Chemscore.DEInternal>
2.1012

> <Gold.Chemscore.Rot>
1.6832

> <Gold.Chemscore.Internal.Correction>
   9.000000E+99

> <Gold.Chemscore.Hbonds>
donor molecule, donor type, donor heavy atom, donor atom, acceptor molecule, acceptor atom, score
      L1  H     4    29       P1 10175  0.50
      P1  H  7989  7998       L1    14  0.01

> <Gold.Chemscore.Hbond.Weighted>
-6.1437

> <Gold.Chemscore.Metal.Weighted>
-0.0000

> <Gold.Chemscore.Lipo.Weighted>
-9.1344

> <Gold.Chemscore.Internal_Hbond.Weighted>
0.0000

> <Gold.Chemscore.DEClash.Weighted>
0.4414

> <Gold.Chemscore.DEInternal.Weighted>
2.1012

> <Gold.Chemscore.Rot.Weighted>
4.3090

> <Gold.Chemscore.Internal.Correction.Weighted>
   9.000000E+99

> <Gold.Protein.RotatedTorsions>
[ 6907 6896 6895 6894 ] final  139.16 input  -60.11 | X-H torsion
[ 7974 7965 7964 7962 ] final   -2.46 input  175.53 | X-H torsion
[ 8008 7997 7996 7995 ] final  104.11 input   59.86 | X-H torsion
[ 10167 10162 10161 10158 ] final -155.47 input  -65.29 | X-H torsion
[ 10718 10713 10712 10709 ] final  116.13 input   66.30 | X-H torsion
[ 10763 10752 10751 10750 ] final   35.55 input  -60.55 | X-H torsion
[ 11005 11000 10999 10996 ] final   26.19 input  -57.11 | X-H torsion

> <Gold.Protein.ActiveResidues>
 VAL166  LYS551  ARG553  GLY616  TRP617  ASP618  TYR619  PRO620  LYS621  CYS622 
 ASP623  PHE694  ASN695  SER759  ASP760  ASP761  ALA762  ILE779  LEU786  VAL792 
 PHE793  MET794  SER795  GLU796  ALA797  LYS798  CYS799  TRP800  GLU811  SER814 

> <Gold.Protein.RotatedAtoms>
  152.2582  133.5274  159.5365 H   0  0  0  0  0  0  0  0  0  0  0  0  # atno 6907 bound_to 6896
  150.7116  134.0866  159.3926 H   0  0  0  0  0  0  0  0  0  0  0  0  # atno 6908 bound_to 6896
  151.8784  135.0463  160.0537 H   0  0  0  0  0  0  0  0  0  0  0  0  # atno 6909 bound_to 6896
  146.2404  140.1574  142.8333 H   0  0  0  0  0  0  0  0  0  0  0  0  # atno 7974 bound_to 7965
  156.1544  140.3153  155.8701 H   0  0  0  0  0  0  0  0  0  0  0  0  # atno 8008 bound_to 7997
  155.3907  140.0493  157.3058 H   0  0  0  0  0  0  0  0  0  0  0  0  # atno 8009 bound_to 7997
  154.5088  140.2157  155.9209 H   0  0  0  0  0  0  0  0  0  0  0  0  # atno 8010 bound_to 7997
  139.6929  143.9391  152.2393 H   0  0  0  0  0  0  0  0  0  0  0  0  # atno 10167 bound_to 10162
  157.6180  131.1021  150.7428 H   0  0  0  0  0  0  0  0  0  0  0  0  # atno 10718 bound_to 10713
  153.0114  135.6330  154.1844 H   0  0  0  0  0  0  0  0  0  0  0  0  # atno 10763 bound_to 10752
  154.1586  135.2825  155.3117 H   0  0  0  0  0  0  0  0  0  0  0  0  # atno 10764 bound_to 10752
  154.5999  135.5591  153.7424 H   0  0  0  0  0  0  0  0  0  0  0  0  # atno 10765 bound_to 10752
  140.3397  134.2347  155.7691 H   0  0  0  0  0  0  0  0  0  0  0  0  # atno 11005 bound_to 11000
  145.0117  140.8720  143.5220 LP  0  0  0  0  0  0  0  0  0  0  0  0  # atno 17320 bound_to 7965
  145.1608  139.2459  143.5392 LP  0  0  0  0  0  0  0  0  0  0  0  0  # atno 17321 bound_to 7965
  139.9212  144.6798  150.8459 LP  0  0  0  0  0  0  0  0  0  0  0  0  # atno 17342 bound_to 10162
  140.7688  143.3374  151.2281 LP  0  0  0  0  0  0  0  0  0  0  0  0  # atno 17343 bound_to 10162
  156.7792  130.4853  149.5404 LP  0  0  0  0  0  0  0  0  0  0  0  0  # atno 17370 bound_to 10713
  156.1311  130.6178  151.0334 LP  0  0  0  0  0  0  0  0  0  0  0  0  # atno 17371 bound_to 10713
  141.2042  133.7893  157.0301 LP  0  0  0  0  0  0  0  0  0  0  0  0  # atno 17394 bound_to 11000
  140.0791  134.9658  157.1595 LP  0  0  0  0  0  0  0  0  0  0  0  0  # atno 17395 bound_to 11000

$$$$
