AV-unprocessed.smi:2391|AV-procd|sdf|9482|dock8
  -GOLD-   2272013113D 1   1.00000     0.00000
 Structure written by MMmdl.
 35 36  0  0  0  0  0  0  0  0  1 V2000
  148.0669  138.5418  158.5367 O   0  0  0  0  0  0  0  0  0  0  0  0
  148.8959  137.6394  158.4186 C   0  0  0  0  0  0  0  0  0  0  0  0
  148.9940  136.5660  159.2221 N   0  0  0  0  0  0  0  0  0  0  0  0
  148.1977  136.2432  160.3523 C   0  0  0  0  0  0  0  0  0  0  0  0
  147.9642  134.8659  160.5529 C   0  0  0  0  0  0  0  0  0  0  0  0
  147.1853  134.4753  161.6554 C   0  0  0  0  0  0  0  0  0  0  0  0
  146.6896  135.4945  162.4864 C   0  0  0  0  0  0  0  0  0  0  0  0
  146.9376  136.8019  162.2560 N   0  0  0  0  0  0  0  0  0  0  0  0
  147.6803  137.1662  161.2050 N   0  0  0  0  0  0  0  0  0  0  0  0
  149.8305  137.6094  157.4573 N   0  0  0  0  0  0  0  0  0  0  0  0
  150.0105  138.6057  156.3988 C   0  0  1  0  0  0  0  0  0  0  0  0
  150.7294  139.8536  156.9749 C   0  0  0  0  0  0  0  0  0  0  0  0
  150.0377  140.4761  158.1948 C   0  0  0  0  0  0  0  0  0  0  0  0
  150.6444  141.8743  158.3135 C   0  0  0  0  0  0  0  0  0  0  0  0
  151.0077  142.2926  156.8833 C   0  0  0  0  0  0  0  0  0  0  0  0
  150.8421  141.0416  156.0089 C   0  0  0  0  0  0  0  0  0  0  0  0
  150.7568  137.9420  155.2191 C   0  0  0  0  0  0  0  0  0  0  0  0
  152.0486  137.8064  155.5221 F   0  0  0  0  0  0  0  0  0  0  0  0
  150.2706  136.7277  154.9657 F   0  0  0  0  0  0  0  0  0  0  0  0
  150.6530  138.6879  154.1185 F   0  0  0  0  0  0  0  0  0  0  0  0
  149.7238  135.9046  159.0020 H   0  0  0  0  0  0  0  0  0  0  0  0
  148.3712  134.1246  159.8806 H   0  0  0  0  0  0  0  0  0  0  0  0
  146.9763  133.4352  161.8566 H   0  0  0  0  0  0  0  0  0  0  0  0
  146.0851  135.2594  163.3497 H   0  0  0  0  0  0  0  0  0  0  0  0
  150.4658  136.8251  157.4426 H   0  0  0  0  0  0  0  0  0  0  0  0
  149.0341  138.9210  156.0261 H   0  0  0  0  0  0  0  0  0  0  0  0
  151.7389  139.5709  157.2780 H   0  0  0  0  0  0  0  0  0  0  0  0
  148.9649  140.5575  158.0135 H   0  0  0  0  0  0  0  0  0  0  0  0
  150.1762  139.8911  159.1046 H   0  0  0  0  0  0  0  0  0  0  0  0
  149.9628  142.5778  158.7924 H   0  0  0  0  0  0  0  0  0  0  0  0
  151.5494  141.8293  158.9208 H   0  0  0  0  0  0  0  0  0  0  0  0
  150.3595  143.0949  156.5288 H   0  0  0  0  0  0  0  0  0  0  0  0
  152.0330  142.6629  156.8466 H   0  0  0  0  0  0  0  0  0  0  0  0
  151.6695  140.9271  155.3082 H   0  0  0  0  0  0  0  0  0  0  0  0
  149.9263  141.1330  155.4233 H   0  0  0  0  0  0  0  0  0  0  0  0
  1  2  2  0  0  0  0
  2  3  1  0  0  0  0
  2 10  1  0  0  0  0
  3  4  1  0  0  0  0
  3 21  1  0  0  0  0
  4  9  1  0  0  0  0
  4  5  2  0  0  0  0
  5  6  1  0  0  0  0
  5 22  1  0  0  0  0
  6  7  2  0  0  0  0
  6 23  1  0  0  0  0
  7  8  1  0  0  0  0
  7 24  1  0  0  0  0
  8  9  2  0  0  0  0
 10 11  1  0  0  0  0
 10 25  1  0  0  0  0
 11 12  1  0  0  0  0
 11 17  1  0  0  0  0
 11 26  1  0  0  0  0
 12 16  1  0  0  0  0
 12 13  1  0  0  0  0
 12 27  1  0  0  0  0
 13 14  1  0  0  0  0
 13 28  1  0  0  0  0
 13 29  1  0  0  0  0
 14 15  1  0  0  0  0
 14 30  1  0  0  0  0
 14 31  1  0  0  0  0
 15 16  1  0  0  0  0
 15 32  1  0  0  0  0
 15 33  1  0  0  0  0
 16 34  1  0  0  0  0
 16 35  1  0  0  0  0
 17 18  1  0  0  0  0
 17 19  1  0  0  0  0
 17 20  1  0  0  0  0
M  END
> <s_m_source_file>
AV-unprocessed.smi

> <i_m_source_file_index>
2391

> <i_lp_mmshare_version>
43012

> <i_f3d_flags>
0

> <s_epik_input>
W0NIMl0xW0NIMl1bQ0gyXVtDSDJdW0NIXTFbQ0BIXShDKEYpKEYpRilbTkhdQyg9TylbTkhdYzJbY0hdW2NIXVtjSF1ubjI=

> <s_epik_cmdline>
J2VwaWtfcHl0aG9uJywgJy1waCcsICc3LjAnLCAnLXRuJywgJzgnLCAnLW1hJywgJzIwMCcsICctbWV0YWxfYmluZGluZycsICctaW1hZScsICc8aW5maWxlLm1hZT4nLCAnLW9tYWUnLCAnPG91dGZpbGUubWFlPic=

> <r_lp_tautomer_probability>
1

> <r_epik_Ionization_Penalty>
0.00359591

> <r_epik_Ionization_Penalty_Charging>
0

> <r_epik_Ionization_Penalty_Neutral>
0.00359591

> <r_epik_State_Penalty>
0.0123658

> <r_epik_Charging_Adjusted_Penalty>
0.0123658

> <i_epik_Tot_Q>
0

> <i_epik_Tot_abs_Q>
0

> <r_epik_Metal_State_Penalty>
0.0410426

> <b_epik_Metal_Only>
0

> <s_lp_Force_Field>
OPLS_2005

> <r_lp_Energy>
31.4034

> <b_lp_Chiralities_Consistent>
1

> <s_lp_Variant>
AV-unprocessed.smi:2391-2

> <Gold.Version>
5.8.1

> <Gold.Id.Protein>
6NUR|6NUR_protein|mol2

> <Gold.PLP.Fitness>
37.2859

> <Gold.PLP.PLP>
-33.2965

> <Gold.PLP.part.hbond>
-3.0000

> <Gold.PLP.part.metal>
0.0000

> <Gold.PLP.part.buried>
-5.7894

> <Gold.PLP.part.nonpolar>
-24.7986

> <Gold.PLP.part.repulsive>
0.2188

> <Gold.PLP.ligand.clash>
0.0000

> <Gold.PLP.ligand.torsion>
0.8699

> <Gold.PLP.Chemscore.Hbond>
1.8080

> <Gold.PLP.Chemscore.CHOScore>
0.0000

> <Gold.PLP.Chemscore.Metal>
0.0000

> <Gold.Chemscore.Hbonds>
donor molecule, donor type, donor heavy atom, donor atom, acceptor molecule, acceptor atom, score
      P1  H  6931  6943       L1     9  0.96
      P1  H  6934  6947       L1     9  0.86

> <Gold.PLP.Chemscore.Internal.Correction>
0.3051

> <Gold.Rescore>
     Score         DG    S(hbond)    S(metal)    S(lipo)     H(rot)  DE(clash)    DE(int)     intcor
     10.32     -12.27       0.93        0.00      60.53       1.33       0.00       1.95       ----

> <Gold.Chemscore.Fitness>
10.3221

> <Gold.Chemscore.DG>
-12.2727

> <Gold.Chemscore.ZeroCoef>
-5.4800

> <Gold.Chemscore.Hbond>
0.9331

> <Gold.Chemscore.Metal>
0.0000

> <Gold.Chemscore.Lipo>
60.5284

> <Gold.Chemscore.Internal_Hbond>
0.0000

> <Gold.Chemscore.DEClash>
0.0000

> <Gold.Chemscore.DEInternal>
1.9507

> <Gold.Chemscore.Rot>
1.3304

> <Gold.Chemscore.Internal.Correction>
   9.000000E+99

> <Gold.Chemscore.Hbonds>
donor molecule, donor type, donor heavy atom, donor atom, acceptor molecule, acceptor atom, score
      P1  H  6931  6943       L1     9  0.36
      P1  H  6934  6947       L1     9  0.33

> <Gold.Chemscore.Hbond.Weighted>
-3.1166

> <Gold.Chemscore.Metal.Weighted>
-0.0000

> <Gold.Chemscore.Lipo.Weighted>
-7.0818

> <Gold.Chemscore.Internal_Hbond.Weighted>
0.0000

> <Gold.Chemscore.DEClash.Weighted>
0.0000

> <Gold.Chemscore.DEInternal.Weighted>
1.9507

> <Gold.Chemscore.Rot.Weighted>
3.4057

> <Gold.Chemscore.Internal.Correction.Weighted>
   9.000000E+99

> <Gold.Protein.RotatedTorsions>
[ 6907 6896 6895 6894 ] final  145.26 input  -60.11 | X-H torsion
[ 7974 7965 7964 7962 ] final  -66.18 input  175.53 | X-H torsion
[ 8008 7997 7996 7995 ] final  110.51 input   59.86 | X-H torsion
[ 10167 10162 10161 10158 ] final  -42.82 input  -65.29 | X-H torsion
[ 10718 10713 10712 10709 ] final   40.12 input   66.30 | X-H torsion
[ 10763 10752 10751 10750 ] final  -95.04 input  -60.55 | X-H torsion
[ 11005 11000 10999 10996 ] final  133.56 input  -57.11 | X-H torsion

> <Gold.Protein.ActiveResidues>
 VAL166  LYS551  ARG553  GLY616  TRP617  ASP618  TYR619  PRO620  LYS621  CYS622 
 ASP623  PHE694  ASN695  SER759  ASP760  ASP761  ALA762  ILE779  LEU786  VAL792 
 PHE793  MET794  SER795  GLU796  ALA797  LYS798  CYS799  TRP800  GLU811  SER814 

> <Gold.Protein.RotatedAtoms>
  152.1832  133.4721  159.4968 H   0  0  0  0  0  0  0  0  0  0  0  0  # atno 6907 bound_to 6896
  150.6938  134.1807  159.4256 H   0  0  0  0  0  0  0  0  0  0  0  0  # atno 6908 bound_to 6896
  151.9719  135.0072  160.0604 H   0  0  0  0  0  0  0  0  0  0  0  0  # atno 6909 bound_to 6896
  145.7450  140.8936  143.0510 H   0  0  0  0  0  0  0  0  0  0  0  0  # atno 7974 bound_to 7965
  156.2058  140.3037  155.9624 H   0  0  0  0  0  0  0  0  0  0  0  0  # atno 8008 bound_to 7997
  155.2845  140.0439  157.3035 H   0  0  0  0  0  0  0  0  0  0  0  0  # atno 8009 bound_to 7997
  154.5631  140.2326  155.8313 H   0  0  0  0  0  0  0  0  0  0  0  0  # atno 8010 bound_to 7997
  140.6956  143.3016  151.3264 H   0  0  0  0  0  0  0  0  0  0  0  0  # atno 10167 bound_to 10162
  157.3785  130.7740  149.7174 H   0  0  0  0  0  0  0  0  0  0  0  0  # atno 10718 bound_to 10713
  154.7111  135.5135  153.8668 H   0  0  0  0  0  0  0  0  0  0  0  0  # atno 10763 bound_to 10752
  153.0781  135.6623  154.0111 H   0  0  0  0  0  0  0  0  0  0  0  0  # atno 10764 bound_to 10752
  153.9952  135.3016  155.3387 H   0  0  0  0  0  0  0  0  0  0  0  0  # atno 10765 bound_to 10752
  139.9860  134.9532  156.9743 H   0  0  0  0  0  0  0  0  0  0  0  0  # atno 11005 bound_to 11000
  144.6862  139.9512  143.7478 LP  0  0  0  0  0  0  0  0  0  0  0  0  # atno 17320 bound_to 7965
  146.0412  139.3423  143.0696 LP  0  0  0  0  0  0  0  0  0  0  0  0  # atno 17321 bound_to 7965
  139.6406  144.0546  152.2551 LP  0  0  0  0  0  0  0  0  0  0  0  0  # atno 17342 bound_to 10162
  140.0050  144.6266  150.7697 LP  0  0  0  0  0  0  0  0  0  0  0  0  # atno 17343 bound_to 10162
  155.9770  130.4068  150.3738 LP  0  0  0  0  0  0  0  0  0  0  0  0  # atno 17370 bound_to 10713
  157.1839  131.0399  151.2735 LP  0  0  0  0  0  0  0  0  0  0  0  0  # atno 17371 bound_to 10713
  140.5002  134.1105  155.7249 LP  0  0  0  0  0  0  0  0  0  0  0  0  # atno 17394 bound_to 11000
  141.1524  133.8944  157.2063 LP  0  0  0  0  0  0  0  0  0  0  0  0  # atno 17395 bound_to 11000

$$$$
