AV-unprocessed.smi:1695|AV-procd|sdf|6798|dock6
  -GOLD-   22720 7563D 1   1.00000     0.00000
 Structure written by MMmdl.
 50 52  0  0  0  0  0  0  0  0  1 V2000
  153.0681  142.9676  161.4267 C   0  0  0  0  0  0  0  0  0  0  0  0
  152.4557  142.6082  160.0845 C   0  0  0  0  0  0  0  0  0  0  0  0
  152.8255  141.3936  159.4637 C   0  0  0  0  0  0  0  0  0  0  0  0
  152.2805  141.0231  158.2148 C   0  0  0  0  0  0  0  0  0  0  0  0
  152.4969  139.8979  157.4377 N   0  0  0  0  0  0  0  0  0  0  0  0
  151.7042  140.1353  156.3963 C   0  0  0  0  0  0  0  0  0  0  0  0
  150.9986  141.2826  156.4079 N   0  0  0  0  0  0  0  0  0  0  0  0
  150.0734  141.7546  155.3934 C   0  0  0  0  0  0  0  0  0  0  0  0
  148.6878  141.0911  155.5049 C   0  0  1  0  0  0  0  0  0  0  0  0
  147.9246  141.7742  156.4804 O   0  0  0  0  0  0  0  0  0  0  0  0
  147.9280  141.1445  154.1643 C   0  0  0  0  0  0  0  0  0  0  0  0
  147.6360  139.8481  153.5475 N   0  0  0  0  0  0  0  0  0  0  0  0
  147.0799  139.9819  152.1968 C   0  0  0  0  0  0  0  0  0  0  0  0
  146.8102  138.6220  151.5302 C   0  0  0  0  0  0  0  0  0  0  0  0
  145.8564  137.7718  152.3926 C   0  0  0  0  0  0  0  0  0  0  0  0
  145.6441  136.3789  151.7845 C   0  0  0  0  0  0  0  0  0  0  0  0
  145.1486  136.3247  150.5455 N   0  0  0  0  0  0  0  0  0  0  0  0
  145.9227  135.3643  152.4210 O   0  0  0  0  0  0  0  0  0  0  0  0
  146.4244  137.6786  153.8224 C   0  0  0  0  0  0  0  0  0  0  0  0
  146.7100  139.0822  154.3826 C   0  0  0  0  0  0  0  0  0  0  0  0
  151.3481  141.9082  157.5991 C   0  0  0  0  0  0  0  0  0  0  0  0
  150.9724  143.1195  158.2062 C   0  0  0  0  0  0  0  0  0  0  0  0
  151.5266  143.4745  159.4541 C   0  0  0  0  0  0  0  0  0  0  0  0
  151.1143  144.7843  160.1022 C   0  0  0  0  0  0  0  0  0  0  0  0
  153.7138  142.1706  161.7962 H   0  0  0  0  0  0  0  0  0  0  0  0
  152.2898  143.1373  162.1707 H   0  0  0  0  0  0  0  0  0  0  0  0
  153.6690  143.8729  161.3403 H   0  0  0  0  0  0  0  0  0  0  0  0
  153.5340  140.7343  159.9430 H   0  0  0  0  0  0  0  0  0  0  0  0
  151.6326  139.4359  155.5761 H   0  0  0  0  0  0  0  0  0  0  0  0
  149.9869  142.8393  155.4740 H   0  0  0  0  0  0  0  0  0  0  0  0
  150.5116  141.5488  154.4160 H   0  0  0  0  0  0  0  0  0  0  0  0
  148.8267  140.0627  155.8344 H   0  0  0  0  0  0  0  0  0  0  0  0
  147.3657  142.3950  156.0379 H   0  0  0  0  0  0  0  0  0  0  0  0
  146.9947  141.6845  154.3318 H   0  0  0  0  0  0  0  0  0  0  0  0
  148.4934  141.7521  153.4558 H   0  0  0  0  0  0  0  0  0  0  0  0
  146.1546  140.5590  152.2330 H   0  0  0  0  0  0  0  0  0  0  0  0
  147.7630  140.5370  151.5564 H   0  0  0  0  0  0  0  0  0  0  0  0
  146.3837  138.7772  150.5383 H   0  0  0  0  0  0  0  0  0  0  0  0
  147.7580  138.1014  151.3825 H   0  0  0  0  0  0  0  0  0  0  0  0
  144.8926  138.2823  152.4409 H   0  0  0  0  0  0  0  0  0  0  0  0
  144.9899  135.4311  150.1034 H   0  0  0  0  0  0  0  0  0  0  0  0
  144.9327  137.1807  150.0549 H   0  0  0  0  0  0  0  0  0  0  0  0
  145.7205  137.1602  154.4744 H   0  0  0  0  0  0  0  0  0  0  0  0
  147.3454  137.0932  153.8312 H   0  0  0  0  0  0  0  0  0  0  0  0
  147.1230  138.9781  155.3866 H   0  0  0  0  0  0  0  0  0  0  0  0
  145.7717  139.6281  154.4913 H   0  0  0  0  0  0  0  0  0  0  0  0
  150.2639  143.7693  157.7141 H   0  0  0  0  0  0  0  0  0  0  0  0
  150.4277  145.3439  159.4664 H   0  0  0  0  0  0  0  0  0  0  0  0
  151.9860  145.4125  160.2864 H   0  0  0  0  0  0  0  0  0  0  0  0
  150.6135  144.5977  161.0526 H   0  0  0  0  0  0  0  0  0  0  0  0
  1  2  1  0  0  0  0
  1 25  1  0  0  0  0
  1 26  1  0  0  0  0
  1 27  1  0  0  0  0
  2 23  1  0  0  0  0
  2  3  2  0  0  0  0
  3  4  1  0  0  0  0
  3 28  1  0  0  0  0
  4 21  2  0  0  0  0
  4  5  1  0  0  0  0
  5  6  2  0  0  0  0
  6  7  1  0  0  0  0
  6 29  1  0  0  0  0
  7  8  1  0  0  0  0
  7 21  1  0  0  0  0
  8  9  1  0  0  0  0
  8 30  1  0  0  0  0
  8 31  1  0  0  0  0
  9 10  1  0  0  0  0
  9 11  1  0  0  0  0
  9 32  1  0  0  0  0
 10 33  1  0  0  0  0
 11 12  1  0  0  0  0
 11 34  1  0  0  0  0
 11 35  1  0  0  0  0
 12 20  1  0  0  0  0
 12 13  1  0  0  0  0
 13 14  1  0  0  0  0
 13 36  1  0  0  0  0
 13 37  1  0  0  0  0
 14 15  1  0  0  0  0
 14 38  1  0  0  0  0
 14 39  1  0  0  0  0
 15 16  1  0  0  0  0
 15 19  1  0  0  0  0
 15 40  1  0  0  0  0
 16 17  1  0  0  0  0
 16 18  2  0  0  0  0
 17 41  1  0  0  0  0
 17 42  1  0  0  0  0
 19 20  1  0  0  0  0
 19 43  1  0  0  0  0
 19 44  1  0  0  0  0
 20 45  1  0  0  0  0
 20 46  1  0  0  0  0
 21 22  1  0  0  0  0
 22 23  2  0  0  0  0
 22 47  1  0  0  0  0
 23 24  1  0  0  0  0
 24 48  1  0  0  0  0
 24 49  1  0  0  0  0
 24 50  1  0  0  0  0
M  END
> <s_m_source_file>
AV-unprocessed.smi

> <i_m_source_file_index>
1695

> <i_lp_mmshare_version>
43012

> <i_f3d_flags>
0

> <s_epik_input>
W0NIM11jKFtjSF0xKWMoW0NIM10pW2NIXWMoYzEyKW4oW2NIXW4yKVtDSDJdW0NASF0oW09IXSlbQ0gyXU4zW0NIMl1bQ0gyXVtDSF0oQyg9TylbTkgyXSlbQ0gyXVtDSDJdMw==

> <s_epik_cmdline>
J2VwaWtfcHl0aG9uJywgJy1waCcsICc3LjAnLCAnLXRuJywgJzgnLCAnLW1hJywgJzIwMCcsICctbWV0YWxfYmluZGluZycsICctaW1hZScsICc8aW5maWxlLm1hZT4nLCAnLW9tYWUnLCAnPG91dGZpbGUubWFlPic=

> <r_epik_Ionization_Penalty>
1.9508

> <r_epik_Ionization_Penalty_Charging>
0

> <r_epik_Ionization_Penalty_Neutral>
1.9508

> <r_epik_State_Penalty>
2.03746

> <r_epik_Charging_Adjusted_Penalty>
2.03746

> <i_epik_Tot_Q>
0

> <i_epik_Tot_abs_Q>
0

> <r_epik_Metal_State_Penalty>
2.03012

> <b_epik_Metal_Only>
0

> <s_lp_Force_Field>
OPLS_2005

> <r_lp_Energy>
30.7191

> <b_lp_Chiralities_Consistent>
1

> <s_lp_Variant>
AV-unprocessed.smi:1695-10

> <Gold.Version>
5.8.1

> <Gold.Id.Protein>
6NUR|6NUR_protein|mol2

> <Gold.PLP.Fitness>
49.7208

> <Gold.PLP.PLP>
-46.2804

> <Gold.PLP.part.hbond>
-2.3979

> <Gold.PLP.part.metal>
0.0000

> <Gold.PLP.part.buried>
-1.6663

> <Gold.PLP.part.nonpolar>
-42.8320

> <Gold.PLP.part.repulsive>
0.5993

> <Gold.PLP.ligand.clash>
0.0000

> <Gold.PLP.ligand.torsion>
1.2911

> <Gold.PLP.Chemscore.Hbond>
2.0000

> <Gold.PLP.Chemscore.CHOScore>
0.0000

> <Gold.PLP.Chemscore.Metal>
0.0000

> <Gold.Chemscore.Hbonds>
donor molecule, donor type, donor heavy atom, donor atom, acceptor molecule, acceptor atom, score
      L1  H    17    42       P1 10171  1.00
      P1  H  7997  8008       L1     5  0.94

> <Gold.PLP.Chemscore.Internal.Correction>
0.0225

> <Gold.Rescore>
     Score         DG    S(hbond)    S(metal)    S(lipo)     H(rot)  DE(clash)    DE(int)     intcor
     16.94     -18.95       1.69        0.00     127.90       2.78       0.67       1.34       ----

> <Gold.Chemscore.Fitness>
16.9383

> <Gold.Chemscore.DG>
-18.9471

> <Gold.Chemscore.ZeroCoef>
-5.4800

> <Gold.Chemscore.Hbond>
1.6864

> <Gold.Chemscore.Metal>
0.0000

> <Gold.Chemscore.Lipo>
127.8972

> <Gold.Chemscore.Internal_Hbond>
0.0000

> <Gold.Chemscore.DEClash>
0.6707

> <Gold.Chemscore.DEInternal>
1.3380

> <Gold.Chemscore.Rot>
2.7849

> <Gold.Chemscore.Internal.Correction>
   9.000000E+99

> <Gold.Chemscore.Hbonds>
donor molecule, donor type, donor heavy atom, donor atom, acceptor molecule, acceptor atom, score
      L1  H    17    42       P1 10171  0.95
      P1  H  7997  8008       L1     5  0.19

> <Gold.Chemscore.Hbond.Weighted>
-5.6326

> <Gold.Chemscore.Metal.Weighted>
-0.0000

> <Gold.Chemscore.Lipo.Weighted>
-14.9640

> <Gold.Chemscore.Internal_Hbond.Weighted>
0.0000

> <Gold.Chemscore.DEClash.Weighted>
0.6707

> <Gold.Chemscore.DEInternal.Weighted>
1.3380

> <Gold.Chemscore.Rot.Weighted>
7.1294

> <Gold.Chemscore.Internal.Correction.Weighted>
   9.000000E+99

> <Gold.Protein.RotatedTorsions>
[ 6907 6896 6895 6894 ] final  124.62 input  -60.11 | X-H torsion
[ 7974 7965 7964 7962 ] final  151.31 input  175.53 | X-H torsion
[ 8008 7997 7996 7995 ] final  -56.63 input   59.86 | X-H torsion
[ 10167 10162 10161 10158 ] final   26.84 input  -65.29 | X-H torsion
[ 10718 10713 10712 10709 ] final  108.57 input   66.30 | X-H torsion
[ 10763 10752 10751 10750 ] final   87.19 input  -60.55 | X-H torsion
[ 11005 11000 10999 10996 ] final  -90.61 input  -57.11 | X-H torsion

> <Gold.Protein.ActiveResidues>
 VAL166  LYS551  ARG553  GLY616  TRP617  ASP618  TYR619  PRO620  LYS621  CYS622 
 ASP623  PHE694  ASN695  SER759  ASP760  ASP761  ALA762  ILE779  LEU786  VAL792 
 PHE793  MET794  SER795  GLU796  ALA797  LYS798  CYS799  TRP800  GLU811  SER814 

> <Gold.Protein.RotatedAtoms>
  152.4062  133.6893  159.6358 H   0  0  0  0  0  0  0  0  0  0  0  0  # atno 6907 bound_to 6896
  150.7947  133.8704  159.3266 H   0  0  0  0  0  0  0  0  0  0  0  0  # atno 6908 bound_to 6896
  151.6458  135.1009  160.0202 H   0  0  0  0  0  0  0  0  0  0  0  0  # atno 6909 bound_to 6896
  144.8302  139.6521  143.6062 H   0  0  0  0  0  0  0  0  0  0  0  0  # atno 7974 bound_to 7965
  154.4237  140.1125  156.5668 H   0  0  0  0  0  0  0  0  0  0  0  0  # atno 8008 bound_to 7997
  155.6254  140.3495  155.4646 H   0  0  0  0  0  0  0  0  0  0  0  0  # atno 8009 bound_to 7997
  155.9990  140.1195  157.0555 H   0  0  0  0  0  0  0  0  0  0  0  0  # atno 8010 bound_to 7997
  140.4989  144.0347  150.6325 H   0  0  0  0  0  0  0  0  0  0  0  0  # atno 10167 bound_to 10162
  157.6580  131.0896  150.6325 H   0  0  0  0  0  0  0  0  0  0  0  0  # atno 10718 bound_to 10713
  153.1643  135.4553  154.9816 H   0  0  0  0  0  0  0  0  0  0  0  0  # atno 10763 bound_to 10752
  154.7921  135.3224  154.7756 H   0  0  0  0  0  0  0  0  0  0  0  0  # atno 10764 bound_to 10752
  153.8241  135.6944  153.4878 H   0  0  0  0  0  0  0  0  0  0  0  0  # atno 10765 bound_to 10752
  141.1562  133.7703  156.9761 H   0  0  0  0  0  0  0  0  0  0  0  0  # atno 11005 bound_to 11000
  146.2605  139.6400  142.9365 LP  0  0  0  0  0  0  0  0  0  0  0  0  # atno 17320 bound_to 7965
  145.4913  141.0438  143.2592 LP  0  0  0  0  0  0  0  0  0  0  0  0  # atno 17321 bound_to 7965
  140.3637  143.2893  152.0355 LP  0  0  0  0  0  0  0  0  0  0  0  0  # atno 17342 bound_to 10162
  139.4867  144.6283  151.7120 LP  0  0  0  0  0  0  0  0  0  0  0  0  # atno 17343 bound_to 10162
  156.6630  130.4517  149.5681 LP  0  0  0  0  0  0  0  0  0  0  0  0  # atno 17370 bound_to 10713
  156.2053  130.6645  151.1211 LP  0  0  0  0  0  0  0  0  0  0  0  0  # atno 17371 bound_to 10713
  140.1097  134.9485  157.2046 LP  0  0  0  0  0  0  0  0  0  0  0  0  # atno 17394 bound_to 11000
  140.3210  134.2916  155.7246 LP  0  0  0  0  0  0  0  0  0  0  0  0  # atno 17395 bound_to 11000

$$$$
