AV-unprocessed.smi:2871|AV-procd|sdf|11032|dock1
  -GOLD-   2272015493D 1   1.00000     0.00000
 Structure written by MMmdl.
 38 40  0  0  0  0  0  0  0  0  1 V2000
  152.2836  144.0851  161.4509 C   0  0  0  0  0  0  0  0  0  0  0  0
  152.2396  143.6915  160.0487 N   0  0  0  0  0  0  0  0  0  0  0  0
  151.7360  144.6199  159.0420 C   0  0  0  0  0  0  0  0  0  0  0  0
  152.7007  142.4159  159.6556 C   0  0  0  0  0  0  0  0  0  0  0  0
  153.8467  141.8182  160.2349 C   0  0  0  0  0  0  0  0  0  0  0  0
  154.2147  140.5401  159.7570 C   0  0  0  0  0  0  0  0  0  0  0  0
  155.4260  139.7936  160.2951 C   0  0  0  0  0  0  0  0  0  0  0  0
  155.5294  138.5751  159.7630 F   0  0  0  0  0  0  0  0  0  0  0  0
  156.5361  140.4746  160.0106 F   0  0  0  0  0  0  0  0  0  0  0  0
  155.3254  139.6682  161.6187 F   0  0  0  0  0  0  0  0  0  0  0  0
  153.5036  139.9149  158.7918 N   0  0  0  0  0  0  0  0  0  0  0  0
  152.4415  140.5582  158.3089 C   0  0  0  0  0  0  0  0  0  0  0  0
  151.7421  139.8939  157.3184 N   0  0  0  0  0  0  0  0  0  0  0  0
  152.2226  138.7058  156.6216 C   0  0  2  0  0  0  0  0  0  0  0  0
  152.5449  138.9599  155.1473 C   0  0  0  0  0  0  0  0  0  0  0  0
  151.7214  137.8658  154.4526 C   0  0  2  0  0  0  0  0  0  0  0  0
  150.2256  138.2057  154.4445 C   0  0  0  0  0  0  0  0  0  0  0  0
  149.8495  137.9856  155.9084 C   0  0  0  0  0  0  0  0  0  0  0  0
  151.1945  137.5612  156.5225 C   0  0  1  0  0  0  0  0  0  0  0  0
  151.7469  136.8417  155.4330 O   0  0  0  0  0  0  0  0  0  0  0  0
  152.0094  141.7637  158.6905 N   0  0  0  0  0  0  0  0  0  0  0  0
  151.6746  143.4125  162.0556 H   0  0  0  0  0  0  0  0  0  0  0  0
  151.9012  145.0963  161.5912 H   0  0  0  0  0  0  0  0  0  0  0  0
  153.3071  144.0619  161.8256 H   0  0  0  0  0  0  0  0  0  0  0  0
  150.8844  144.1901  158.5140 H   0  0  0  0  0  0  0  0  0  0  0  0
  152.5138  144.8504  158.3133 H   0  0  0  0  0  0  0  0  0  0  0  0
  151.4106  145.5577  159.4919 H   0  0  0  0  0  0  0  0  0  0  0  0
  154.4238  142.3055  161.0059 H   0  0  0  0  0  0  0  0  0  0  0  0
  150.7965  140.1997  157.1402 H   0  0  0  0  0  0  0  0  0  0  0  0
  153.1222  138.3423  157.1203 H   0  0  0  0  0  0  0  0  0  0  0  0
  152.2708  139.9577  154.8017 H   0  0  0  0  0  0  0  0  0  0  0  0
  153.6111  138.8203  154.9652 H   0  0  0  0  0  0  0  0  0  0  0  0
  152.1121  137.5682  153.4791 H   0  0  0  0  0  0  0  0  0  0  0  0
  150.0314  139.2234  154.1046 H   0  0  0  0  0  0  0  0  0  0  0  0
  149.6744  137.5187  153.8014 H   0  0  0  0  0  0  0  0  0  0  0  0
  149.4256  138.8735  156.3780 H   0  0  0  0  0  0  0  0  0  0  0  0
  149.1191  137.1805  155.9943 H   0  0  0  0  0  0  0  0  0  0  0  0
  151.0954  136.9737  157.4357 H   0  0  0  0  0  0  0  0  0  0  0  0
  1  2  1  0  0  0  0
  1 22  1  0  0  0  0
  1 23  1  0  0  0  0
  1 24  1  0  0  0  0
  2  3  1  0  0  0  0
  2  4  1  0  0  0  0
  3 25  1  0  0  0  0
  3 26  1  0  0  0  0
  3 27  1  0  0  0  0
  4 21  1  0  0  0  0
  4  5  2  0  0  0  0
  5  6  1  0  0  0  0
  5 28  1  0  0  0  0
  6  7  1  0  0  0  0
  6 11  2  0  0  0  0
  7  8  1  0  0  0  0
  7  9  1  0  0  0  0
  7 10  1  0  0  0  0
 11 12  1  0  0  0  0
 12 13  1  0  0  0  0
 12 21  2  0  0  0  0
 13 14  1  0  0  0  0
 13 29  1  0  0  0  0
 14 19  1  0  0  0  0
 14 15  1  0  0  0  0
 14 30  1  0  0  0  0
 15 16  1  0  0  0  0
 15 31  1  0  0  0  0
 15 32  1  0  0  0  0
 16 20  1  0  0  0  0
 16 17  1  0  0  0  0
 16 33  1  0  0  0  0
 17 18  1  0  0  0  0
 17 34  1  0  0  0  0
 17 35  1  0  0  0  0
 18 19  1  0  0  0  0
 18 36  1  0  0  0  0
 18 37  1  0  0  0  0
 19 20  1  0  0  0  0
 19 38  1  0  0  0  0
M  END
> <s_m_source_file>
AV-unprocessed.smi

> <i_m_source_file_index>
2871

> <i_lp_mmshare_version>
43012

> <i_f3d_flags>
0

> <s_epik_input>
W0NIM11OKFtDSDNdKWMxW2NIXWMoQyhGKShGKUYpbmMobjEpW05IXVtDQEhdKFtDSDJdW0NAQEhdMjMpW0NAQEhdKE8zKVtDSDJdW0NIMl0y

> <s_epik_cmdline>
J2VwaWtfcHl0aG9uJywgJy1waCcsICc3LjAnLCAnLXRuJywgJzgnLCAnLW1hJywgJzIwMCcsICctbWV0YWxfYmluZGluZycsICctaW1hZScsICc8aW5maWxlLm1hZT4nLCAnLW9tYWUnLCAnPG91dGZpbGUubWFlPic=

> <r_lp_tautomer_probability>
1

> <r_epik_Ionization_Penalty>
0.00695968

> <r_epik_Ionization_Penalty_Charging>
0

> <r_epik_Ionization_Penalty_Neutral>
0.00695968

> <r_epik_State_Penalty>
0.0050343

> <r_epik_Charging_Adjusted_Penalty>
0.0050343

> <i_epik_Tot_Q>
0

> <i_epik_Tot_abs_Q>
0

> <r_epik_Metal_State_Penalty>
-0

> <b_epik_Metal_Only>
0

> <s_lp_Force_Field>
OPLS_2005

> <r_lp_Energy>
33.2945

> <b_lp_Chiralities_Consistent>
1

> <s_lp_Variant>
AV-unprocessed.smi:2871-3

> <Gold.Version>
5.8.1

> <Gold.Id.Protein>
6NUR|6NUR_protein|mol2

> <Gold.PLP.Fitness>
47.9110

> <Gold.PLP.PLP>
-43.4051

> <Gold.PLP.part.hbond>
-2.0000

> <Gold.PLP.part.metal>
0.0000

> <Gold.PLP.part.buried>
-5.5480

> <Gold.PLP.part.nonpolar>
-36.9817

> <Gold.PLP.part.repulsive>
0.1821

> <Gold.PLP.ligand.clash>
0.0000

> <Gold.PLP.ligand.torsion>
0.7836

> <Gold.PLP.Chemscore.Hbond>
2.0000

> <Gold.PLP.Chemscore.CHOScore>
0.0000

> <Gold.PLP.Chemscore.Metal>
0.0000

> <Gold.Chemscore.Hbonds>
donor molecule, donor type, donor heavy atom, donor atom, acceptor molecule, acceptor atom, score
      P1  H  7997  8010       L1    11  0.96
      P1  H 10752 10765       L1    20  1.00

> <Gold.PLP.Chemscore.Internal.Correction>
0.0731

> <Gold.Rescore>
     Score         DG    S(hbond)    S(metal)    S(lipo)     H(rot)  DE(clash)    DE(int)     intcor
     16.25     -16.96       1.02        0.00      90.92       1.00       0.02       0.69       ----

> <Gold.Chemscore.Fitness>
16.2499

> <Gold.Chemscore.DG>
-16.9620

> <Gold.Chemscore.ZeroCoef>
-5.4800

> <Gold.Chemscore.Hbond>
1.0192

> <Gold.Chemscore.Metal>
0.0000

> <Gold.Chemscore.Lipo>
90.9231

> <Gold.Chemscore.Internal_Hbond>
0.0000

> <Gold.Chemscore.DEClash>
0.0208

> <Gold.Chemscore.DEInternal>
0.6913

> <Gold.Chemscore.Rot>
1.0000

> <Gold.Chemscore.Internal.Correction>
   9.000000E+99

> <Gold.Chemscore.Hbonds>
donor molecule, donor type, donor heavy atom, donor atom, acceptor molecule, acceptor atom, score
      P1  H  7997  8010       L1    11  0.08
      P1  H 10752 10765       L1    20  0.50

> <Gold.Chemscore.Hbond.Weighted>
-3.4040

> <Gold.Chemscore.Metal.Weighted>
-0.0000

> <Gold.Chemscore.Lipo.Weighted>
-10.6380

> <Gold.Chemscore.Internal_Hbond.Weighted>
0.0000

> <Gold.Chemscore.DEClash.Weighted>
0.0208

> <Gold.Chemscore.DEInternal.Weighted>
0.6913

> <Gold.Chemscore.Rot.Weighted>
2.5600

> <Gold.Chemscore.Internal.Correction.Weighted>
   9.000000E+99

> <Gold.Protein.RotatedTorsions>
[ 6907 6896 6895 6894 ] final  -16.08 input  -60.11 | X-H torsion
[ 7974 7965 7964 7962 ] final  -93.86 input  175.53 | X-H torsion
[ 8008 7997 7996 7995 ] final   19.66 input   59.86 | X-H torsion
[ 10167 10162 10161 10158 ] final -100.98 input  -65.29 | X-H torsion
[ 10718 10713 10712 10709 ] final   68.48 input   66.30 | X-H torsion
[ 10763 10752 10751 10750 ] final -168.77 input  -60.55 | X-H torsion
[ 11005 11000 10999 10996 ] final  -10.96 input  -57.11 | X-H torsion

> <Gold.Protein.ActiveResidues>
 VAL166  LYS551  ARG553  GLY616  TRP617  ASP618  TYR619  PRO620  LYS621  CYS622 
 ASP623  PHE694  ASN695  SER759  ASP760  ASP761  ALA762  ILE779  LEU786  VAL792 
 PHE793  MET794  SER795  GLU796  ALA797  LYS798  CYS799  TRP800  GLU811  SER814 

> <Gold.Protein.RotatedAtoms>
  151.3141  135.0802  159.9282 H   0  0  0  0  0  0  0  0  0  0  0  0  # atno 6907 bound_to 6896
  152.5271  133.9705  159.7770 H   0  0  0  0  0  0  0  0  0  0  0  0  # atno 6908 bound_to 6896
  151.0014  133.6000  159.2724 H   0  0  0  0  0  0  0  0  0  0  0  0  # atno 6909 bound_to 6896
  145.3810  140.9517  143.2394 H   0  0  0  0  0  0  0  0  0  0  0  0  # atno 7974 bound_to 7965
  154.9241  140.3031  155.5201 H   0  0  0  0  0  0  0  0  0  0  0  0  # atno 8008 bound_to 7997
  156.3008  140.2366  156.4230 H   0  0  0  0  0  0  0  0  0  0  0  0  # atno 8009 bound_to 7997
  154.8302  140.0419  157.1460 H   0  0  0  0  0  0  0  0  0  0  0  0  # atno 8010 bound_to 7997
  140.2461  143.3505  152.0757 H   0  0  0  0  0  0  0  0  0  0  0  0  # atno 10167 bound_to 10162
  157.6292  130.9376  150.0383 H   0  0  0  0  0  0  0  0  0  0  0  0  # atno 10718 bound_to 10713
  154.6593  135.2922  154.9887 H   0  0  0  0  0  0  0  0  0  0  0  0  # atno 10763 bound_to 10752
  154.0952  135.6585  153.4863 H   0  0  0  0  0  0  0  0  0  0  0  0  # atno 10764 bound_to 10752
  153.0420  135.5229  154.7537 H   0  0  0  0  0  0  0  0  0  0  0  0  # atno 10765 bound_to 10752
  140.7502  133.8598  155.9039 H   0  0  0  0  0  0  0  0  0  0  0  0  # atno 11005 bound_to 11000
  144.8508  139.5325  143.6857 LP  0  0  0  0  0  0  0  0  0  0  0  0  # atno 17320 bound_to 7965
  146.2842  139.6959  142.9207 LP  0  0  0  0  0  0  0  0  0  0  0  0  # atno 17321 bound_to 7965
  139.5061  144.6808  151.6014 LP  0  0  0  0  0  0  0  0  0  0  0  0  # atno 17342 bound_to 10162
  140.6076  143.9495  150.6430 LP  0  0  0  0  0  0  0  0  0  0  0  0  # atno 17343 bound_to 10162
  156.1483  130.3642  149.9476 LP  0  0  0  0  0  0  0  0  0  0  0  0  # atno 17370 bound_to 10713
  156.7502  130.9112  151.3637 LP  0  0  0  0  0  0  0  0  0  0  0  0  # atno 17371 bound_to 10713
  140.9757  134.1472  157.4538 LP  0  0  0  0  0  0  0  0  0  0  0  0  # atno 17394 bound_to 11000
  139.8789  134.9994  156.5951 LP  0  0  0  0  0  0  0  0  0  0  0  0  # atno 17395 bound_to 11000

$$$$
