AV-unprocessed.smi:1321|AV-procd|sdf|5462|dock10
  -GOLD-   22720 5 33D 1   1.00000     0.00000
 Structure written by MMmdl.
 43 44  0  0  0  0  0  0  0  0  1 V2000
  152.9292  141.8864  159.9937 C   0  0  0  0  0  0  0  0  0  0  0  0
  152.2570  143.1645  159.4383 C   0  0  0  0  0  0  0  0  0  0  0  0
  151.7996  144.0376  160.6260 C   0  0  0  0  0  0  0  0  0  0  0  0
  153.2816  143.9532  158.5983 C   0  0  0  0  0  0  0  0  0  0  0  0
  151.0351  142.8481  158.5428 C   0  0  0  0  0  0  0  0  0  0  0  0
  149.9371  143.3321  158.8208 O   0  0  0  0  0  0  0  0  0  0  0  0
  151.2238  142.0602  157.4704 N   0  0  0  0  0  0  0  0  0  0  0  0
  150.2269  141.7354  156.4562 C   0  0  0  0  0  0  0  0  0  0  0  0
  150.5533  140.4320  155.7387 C   0  0  0  0  0  0  0  0  0  0  0  0
  151.7747  139.7809  156.0145 C   0  0  0  0  0  0  0  0  0  0  0  0
  152.0929  138.5947  155.3290 C   0  0  0  0  0  0  0  0  0  0  0  0
  151.1723  138.1032  154.3861 C   0  0  0  0  0  0  0  0  0  0  0  0
  150.0015  138.7135  154.1101 N   0  0  0  0  0  0  0  0  0  0  0  0
  149.6902  139.8574  154.7675 C   0  0  0  0  0  0  0  0  0  0  0  0
  148.4547  140.4567  154.4680 N   0  0  0  0  0  0  0  0  0  0  0  0
  147.4574  140.4403  155.5326 C   0  0  0  0  0  0  0  0  0  0  0  0
  146.1148  140.9689  154.9999 C   0  0  0  0  0  0  0  0  0  0  0  0
  146.2996  142.2705  154.4499 O   0  0  0  0  0  0  0  0  0  0  0  0
  147.2195  142.2670  153.3616 C   0  0  0  0  0  0  0  0  0  0  0  0
  148.5923  141.7660  153.8438 C   0  0  0  0  0  0  0  0  0  0  0  0
  153.7633  142.1362  160.6501 H   0  0  0  0  0  0  0  0  0  0  0  0
  153.3296  141.2573  159.1973 H   0  0  0  0  0  0  0  0  0  0  0  0
  152.2308  141.2851  160.5778 H   0  0  0  0  0  0  0  0  0  0  0  0
  151.0383  143.5329  161.2223 H   0  0  0  0  0  0  0  0  0  0  0  0
  151.3822  144.9897  160.2950 H   0  0  0  0  0  0  0  0  0  0  0  0
  152.6333  144.2682  161.2898 H   0  0  0  0  0  0  0  0  0  0  0  0
  154.1607  144.2116  159.1897 H   0  0  0  0  0  0  0  0  0  0  0  0
  152.8626  144.8858  158.2179 H   0  0  0  0  0  0  0  0  0  0  0  0
  153.6244  143.3731  157.7401 H   0  0  0  0  0  0  0  0  0  0  0  0
  152.1532  141.6963  157.3193 H   0  0  0  0  0  0  0  0  0  0  0  0
  149.2623  141.6415  156.9555 H   0  0  0  0  0  0  0  0  0  0  0  0
  150.1029  142.5407  155.7316 H   0  0  0  0  0  0  0  0  0  0  0  0
  152.4654  140.1875  156.7385 H   0  0  0  0  0  0  0  0  0  0  0  0
  153.0208  138.0763  155.5189 H   0  0  0  0  0  0  0  0  0  0  0  0
  151.3811  137.1960  153.8386 H   0  0  0  0  0  0  0  0  0  0  0  0
  147.3382  139.4244  155.9111 H   0  0  0  0  0  0  0  0  0  0  0  0
  147.7910  141.0619  156.3647 H   0  0  0  0  0  0  0  0  0  0  0  0
  145.7030  140.2986  154.2444 H   0  0  0  0  0  0  0  0  0  0  0  0
  145.3855  141.0243  155.8079 H   0  0  0  0  0  0  0  0  0  0  0  0
  146.8387  141.6428  152.5518 H   0  0  0  0  0  0  0  0  0  0  0  0
  147.3066  143.2792  152.9667 H   0  0  0  0  0  0  0  0  0  0  0  0
  149.0125  142.4671  154.5663 H   0  0  0  0  0  0  0  0  0  0  0  0
  149.2873  141.7159  153.0051 H   0  0  0  0  0  0  0  0  0  0  0  0
  1  2  1  0  0  0  0
  1 21  1  0  0  0  0
  1 22  1  0  0  0  0
  1 23  1  0  0  0  0
  2  3  1  0  0  0  0
  2  4  1  0  0  0  0
  2  5  1  0  0  0  0
  3 24  1  0  0  0  0
  3 25  1  0  0  0  0
  3 26  1  0  0  0  0
  4 27  1  0  0  0  0
  4 28  1  0  0  0  0
  4 29  1  0  0  0  0
  5  6  2  0  0  0  0
  5  7  1  0  0  0  0
  7  8  1  0  0  0  0
  7 30  1  0  0  0  0
  8  9  1  0  0  0  0
  8 31  1  0  0  0  0
  8 32  1  0  0  0  0
  9 14  1  0  0  0  0
  9 10  2  0  0  0  0
 10 11  1  0  0  0  0
 10 33  1  0  0  0  0
 11 12  2  0  0  0  0
 11 34  1  0  0  0  0
 12 13  1  0  0  0  0
 12 35  1  0  0  0  0
 13 14  2  0  0  0  0
 14 15  1  0  0  0  0
 15 20  1  0  0  0  0
 15 16  1  0  0  0  0
 16 17  1  0  0  0  0
 16 36  1  0  0  0  0
 16 37  1  0  0  0  0
 17 18  1  0  0  0  0
 17 38  1  0  0  0  0
 17 39  1  0  0  0  0
 18 19  1  0  0  0  0
 19 20  1  0  0  0  0
 19 40  1  0  0  0  0
 19 41  1  0  0  0  0
 20 42  1  0  0  0  0
 20 43  1  0  0  0  0
M  END
> <s_m_source_file>
AV-unprocessed.smi

> <i_m_source_file_index>
1321

> <i_lp_mmshare_version>
43012

> <i_f3d_flags>
0

> <s_epik_input>
W0NIM11DKFtDSDNdKShbQ0gzXSlDKD1PKVtOSF1bQ0gyXWMxW2NIXVtjSF1bY0hdbmMxTjJbQ0gyXVtDSDJdT1tDSDJdW0NIMl0y

> <s_epik_cmdline>
J2VwaWtfcHl0aG9uJywgJy1waCcsICc3LjAnLCAnLXRuJywgJzgnLCAnLW1hJywgJzIwMCcsICctbWV0YWxfYmluZGluZycsICctaW1hZScsICc8aW5maWxlLm1hZT4nLCAnLW9tYWUnLCAnPG91dGZpbGUubWFlPic=

> <r_lp_tautomer_probability>
1

> <r_epik_Ionization_Penalty>
0.0052234

> <r_epik_Ionization_Penalty_Charging>
0

> <r_epik_Ionization_Penalty_Neutral>
0.0052234

> <r_epik_State_Penalty>
0.0038086

> <r_epik_Charging_Adjusted_Penalty>
0.0038086

> <i_epik_Tot_Q>
0

> <i_epik_Tot_abs_Q>
0

> <r_epik_Metal_State_Penalty>
-0

> <b_epik_Metal_Only>
0

> <s_lp_Force_Field>
OPLS_2005

> <r_lp_Energy>
23.2048

> <b_lp_Chiralities_Consistent>
1

> <s_lp_Variant>
AV-unprocessed.smi:1321-1

> <Gold.Version>
5.8.1

> <Gold.Id.Protein>
6NUR|6NUR_protein|mol2

> <Gold.PLP.Fitness>
44.6414

> <Gold.PLP.PLP>
-42.0766

> <Gold.PLP.part.hbond>
-0.6726

> <Gold.PLP.part.metal>
0.0000

> <Gold.PLP.part.buried>
-6.2547

> <Gold.PLP.part.nonpolar>
-34.9533

> <Gold.PLP.part.repulsive>
0.7750

> <Gold.PLP.ligand.clash>
0.0000

> <Gold.PLP.ligand.torsion>
0.3046

> <Gold.PLP.Chemscore.Hbond>
0.0000

> <Gold.PLP.Chemscore.CHOScore>
0.9990

> <Gold.PLP.Chemscore.Metal>
0.0000

> <Gold.Chemscore.Hbonds>
donor molecule, donor type, donor heavy atom, donor atom, acceptor molecule, acceptor atom, score
      L1  C    12    35       P1  7949  0.71

> <Gold.PLP.Chemscore.Internal.Correction>
0.1770

> <Gold.Rescore>
     Score         DG    S(hbond)    S(metal)    S(lipo)     H(rot)  DE(clash)    DE(int)     intcor
     13.98     -14.28       0.00        0.00     108.40       1.52       0.04       0.26       ----

> <Gold.Chemscore.Fitness>
13.9801

> <Gold.Chemscore.DG>
-14.2782

> <Gold.Chemscore.ZeroCoef>
-5.4800

> <Gold.Chemscore.Hbond>
0.0000

> <Gold.Chemscore.Metal>
0.0000

> <Gold.Chemscore.Lipo>
108.3974

> <Gold.Chemscore.Internal_Hbond>
0.0000

> <Gold.Chemscore.DEClash>
0.0415

> <Gold.Chemscore.DEInternal>
0.2566

> <Gold.Chemscore.Rot>
1.5173

> <Gold.Chemscore.Internal.Correction>
   9.000000E+99

> <Gold.Chemscore.Hbond.Weighted>
-0.0000

> <Gold.Chemscore.Metal.Weighted>
-0.0000

> <Gold.Chemscore.Lipo.Weighted>
-12.6825

> <Gold.Chemscore.Internal_Hbond.Weighted>
0.0000

> <Gold.Chemscore.DEClash.Weighted>
0.0415

> <Gold.Chemscore.DEInternal.Weighted>
0.2566

> <Gold.Chemscore.Rot.Weighted>
3.8843

> <Gold.Chemscore.Internal.Correction.Weighted>
   9.000000E+99

> <Gold.Protein.RotatedTorsions>
[ 6907 6896 6895 6894 ] final  -58.40 input  -60.11 | X-H torsion
[ 7974 7965 7964 7962 ] final  -54.70 input  175.53 | X-H torsion
[ 8008 7997 7996 7995 ] final  -95.59 input   59.86 | X-H torsion
[ 10167 10162 10161 10158 ] final  -31.40 input  -65.29 | X-H torsion
[ 10718 10713 10712 10709 ] final  138.84 input   66.30 | X-H torsion
[ 10763 10752 10751 10750 ] final   84.60 input  -60.55 | X-H torsion
[ 11005 11000 10999 10996 ] final -141.96 input  -57.11 | X-H torsion

> <Gold.Protein.ActiveResidues>
 VAL166  LYS551  ARG553  GLY616  TRP617  ASP618  TYR619  PRO620  LYS621  CYS622 
 ASP623  PHE694  ASN695  SER759  ASP760  ASP761  ALA762  ILE779  LEU786  VAL792 
 PHE793  MET794  SER795  GLU796  ALA797  LYS798  CYS799  TRP800  GLU811  SER814 

> <Gold.Protein.RotatedAtoms>
  150.8010  134.7103  159.6599 H   0  0  0  0  0  0  0  0  0  0  0  0  # atno 6907 bound_to 6896
  152.4127  134.6093  160.0031 H   0  0  0  0  0  0  0  0  0  0  0  0  # atno 6908 bound_to 6896
  151.6332  133.3293  159.3149 H   0  0  0  0  0  0  0  0  0  0  0  0  # atno 6909 bound_to 6896
  145.8825  140.8133  142.9832 H   0  0  0  0  0  0  0  0  0  0  0  0  # atno 7974 bound_to 7965
  154.7634  140.0478  157.0992 H   0  0  0  0  0  0  0  0  0  0  0  0  # atno 8008 bound_to 7997
  154.9910  140.3113  155.4887 H   0  0  0  0  0  0  0  0  0  0  0  0  # atno 8009 bound_to 7997
  156.2908  140.2219  156.5014 H   0  0  0  0  0  0  0  0  0  0  0  0  # atno 8010 bound_to 7997
  140.7237  143.3774  151.1664 H   0  0  0  0  0  0  0  0  0  0  0  0  # atno 10167 bound_to 10162
  157.4209  131.1038  151.0355 H   0  0  0  0  0  0  0  0  0  0  0  0  # atno 10718 bound_to 10713
  153.1397  135.4648  154.9476 H   0  0  0  0  0  0  0  0  0  0  0  0  # atno 10763 bound_to 10752
  154.7736  135.3166  154.8141 H   0  0  0  0  0  0  0  0  0  0  0  0  # atno 10764 bound_to 10752
  153.8666  135.6907  153.4832 H   0  0  0  0  0  0  0  0  0  0  0  0  # atno 10765 bound_to 10752
  140.8272  134.2560  157.4873 H   0  0  0  0  0  0  0  0  0  0  0  0  # atno 11005 bound_to 11000
  144.6727  140.1406  143.7437 LP  0  0  0  0  0  0  0  0  0  0  0  0  # atno 17320 bound_to 7965
  145.9006  139.2428  143.1496 LP  0  0  0  0  0  0  0  0  0  0  0  0  # atno 17321 bound_to 7965
  139.7357  143.9003  152.3034 LP  0  0  0  0  0  0  0  0  0  0  0  0  # atno 17342 bound_to 10162
  139.8807  144.7019  150.8881 LP  0  0  0  0  0  0  0  0  0  0  0  0  # atno 17343 bound_to 10162
  157.1285  130.6092  149.5523 LP  0  0  0  0  0  0  0  0  0  0  0  0  # atno 17370 bound_to 10713
  155.9880  130.4922  150.7151 LP  0  0  0  0  0  0  0  0  0  0  0  0  # atno 17371 bound_to 10713
  139.8706  134.9567  156.4245 LP  0  0  0  0  0  0  0  0  0  0  0  0  # atno 17394 bound_to 11000
  140.9036  133.7762  155.9709 LP  0  0  0  0  0  0  0  0  0  0  0  0  # atno 17395 bound_to 11000

$$$$
