AV-unprocessed.smi:2774|AV-procd|sdf|10680|dock10
  -GOLD-   2272015123D 1   1.00000     0.00000
 Structure written by MMmdl.
 35 36  0  0  0  0  0  0  0  0  2 V2000
  147.1658  138.6022  151.0742 O   0  0  0  0  0  0  0  0  0  0  0  0
  146.3042  138.4049  152.1780 C   0  0  2  0  0  0  0  0  0  0  0  0
  147.1425  138.4280  153.4682 C   0  0  0  0  0  0  0  0  0  0  0  0
  148.5875  138.5390  153.1726 N   0  3  0  0  0  0  0  0  0  0  0  0
  149.4421  138.8969  154.3264 C   0  0  2  0  0  0  0  0  0  0  0  0
  149.5528  140.4312  154.4227 C   0  0  0  0  0  0  0  0  0  0  0  0
  150.3535  140.8971  155.6503 C   0  0  0  0  0  0  0  0  0  0  0  0
  151.8005  140.3868  155.6343 C   0  0  0  0  0  0  0  0  0  0  0  0
  151.8538  138.5757  155.6701 S   0  0  0  0  0  0  0  0  0  0  0  0
  150.8347  138.2437  154.2071 C   0  0  0  0  0  0  0  0  0  0  0  0
  145.5240  137.1062  152.0512 C   0  0  0  0  0  0  0  0  0  0  0  0
  145.6941  136.2610  150.9333 C   0  0  0  0  0  0  0  0  0  0  0  0
  144.9500  135.0658  150.8723 C   0  0  0  0  0  0  0  0  0  0  0  0
  144.0800  134.6851  151.8318 N   0  0  0  0  0  0  0  0  0  0  0  0
  143.9207  135.4971  152.8987 C   0  0  0  0  0  0  0  0  0  0  0  0
  144.6159  136.7130  153.0566 C   0  0  0  0  0  0  0  0  0  0  0  0
  147.7507  139.3178  151.2749 H   0  0  0  0  0  0  0  0  0  0  0  0
  145.5965  139.2353  152.1931 H   0  0  0  0  0  0  0  0  0  0  0  0
  146.8483  139.2830  154.0786 H   0  0  0  0  0  0  0  0  0  0  0  0
  146.9451  137.5331  154.0584 H   0  0  0  0  0  0  0  0  0  0  0  0
  148.9122  137.6657  152.7821 H   0  0  0  0  0  0  0  0  0  0  0  0
  148.9529  138.5367  155.2328 H   0  0  0  0  0  0  0  0  0  0  0  0
  150.0124  140.8292  153.5166 H   0  0  0  0  0  0  0  0  0  0  0  0
  148.5532  140.8651  154.4724 H   0  0  0  0  0  0  0  0  0  0  0  0
  150.3585  141.9871  155.6834 H   0  0  0  0  0  0  0  0  0  0  0  0
  149.8568  140.5672  156.5635 H   0  0  0  0  0  0  0  0  0  0  0  0
  152.3205  140.7410  154.7436 H   0  0  0  0  0  0  0  0  0  0  0  0
  152.3463  140.7701  156.4969 H   0  0  0  0  0  0  0  0  0  0  0  0
  150.7572  137.1621  154.1027 H   0  0  0  0  0  0  0  0  0  0  0  0
  151.3565  138.6111  153.3226 H   0  0  0  0  0  0  0  0  0  0  0  0
  146.3792  136.5179  150.1386 H   0  0  0  0  0  0  0  0  0  0  0  0
  145.0577  134.3975  150.0308 H   0  0  0  0  0  0  0  0  0  0  0  0
  143.2189  135.1675  153.6505 H   0  0  0  0  0  0  0  0  0  0  0  0
  144.4505  137.3246  153.9314 H   0  0  0  0  0  0  0  0  0  0  0  0
  148.6949  139.2599  152.4735 H   0  0  0  0  0  0  0  0  0  0  0  0
  1  2  1  0  0  0  0
  1 17  1  0  0  0  0
  2  3  1  0  0  0  0
  2 11  1  0  0  0  0
  2 18  1  0  0  0  0
  3  4  1  0  0  0  0
  3 19  1  0  0  0  0
  3 20  1  0  0  0  0
  4  5  1  0  0  0  0
  4 21  1  0  0  0  0
  4 35  1  0  0  0  0
  5 10  1  0  0  0  0
  5  6  1  0  0  0  0
  5 22  1  0  0  0  0
  6  7  1  0  0  0  0
  6 23  1  0  0  0  0
  6 24  1  0  0  0  0
  7  8  1  0  0  0  0
  7 25  1  0  0  0  0
  7 26  1  0  0  0  0
  8  9  1  0  0  0  0
  8 27  1  0  0  0  0
  8 28  1  0  0  0  0
  9 10  1  0  0  0  0
 10 29  1  0  0  0  0
 10 30  1  0  0  0  0
 11 16  1  0  0  0  0
 11 12  2  0  0  0  0
 12 13  1  0  0  0  0
 12 31  1  0  0  0  0
 13 14  2  0  0  0  0
 13 32  1  0  0  0  0
 14 15  1  0  0  0  0
 15 16  2  0  0  0  0
 15 33  1  0  0  0  0
 16 34  1  0  0  0  0
M  CHG  1   4   1
M  END
> <s_m_source_file>
AV-unprocessed.smi

> <i_m_source_file_index>
2774

> <i_lp_mmshare_version>
43012

> <i_f3d_flags>
0

> <s_epik_input>
W2NIXTFbY0hdbltjSF1bY0hdYzFbQ0BIXShbT0hdKVtDSDJdW05IXVtDQEBIXTJbQ0gyXVtDSDJdW0NIMl1TW0NIMl0y

> <s_epik_cmdline>
J2VwaWtfcHl0aG9uJywgJy1waCcsICc3LjAnLCAnLXRuJywgJzgnLCAnLW1hJywgJzIwMCcsICctbWV0YWxfYmluZGluZycsICctaW1hZScsICc8aW5maWxlLm1hZT4nLCAnLW9tYWUnLCAnPG91dGZpbGUubWFlPic=

> <r_epik_Ionization_Penalty>
0.0205977

> <r_epik_Ionization_Penalty_Charging>
0.0185619

> <r_epik_Ionization_Penalty_Neutral>
0.00203589

> <r_epik_State_Penalty>
0.0147768

> <r_epik_Charging_Adjusted_Penalty>
0.0333386

> <i_epik_Tot_Q>
1

> <i_epik_Tot_abs_Q>
1

> <r_epik_Metal_State_Penalty>
0.0152254

> <b_epik_Metal_Only>
0

> <s_lp_Force_Field>
OPLS_2005

> <r_lp_Energy>
9.96587

> <b_lp_Chiralities_Consistent>
1

> <s_lp_Variant>
AV-unprocessed.smi:2774-1

> <Gold.Version>
5.8.1

> <Gold.Id.Protein>
6NUR|6NUR_protein|mol2

> <Gold.PLP.Fitness>
49.2555

> <Gold.PLP.PLP>
-34.0361

> <Gold.PLP.part.hbond>
-5.0000

> <Gold.PLP.part.metal>
0.0000

> <Gold.PLP.part.buried>
-1.3279

> <Gold.PLP.part.nonpolar>
-27.7334

> <Gold.PLP.part.repulsive>
0.1966

> <Gold.PLP.ligand.clash>
0.0000

> <Gold.PLP.ligand.torsion>
1.1922

> <Gold.PLP.Chemscore.Hbond>
4.8640

> <Gold.PLP.Chemscore.CHOScore>
1.0000

> <Gold.PLP.Chemscore.Metal>
0.0000

> <Gold.Chemscore.Hbonds>
donor molecule, donor type, donor heavy atom, donor atom, acceptor molecule, acceptor atom, score
      L1  H     1    17       P1  7957  0.91
      L1  H     4    21       P1  7948  2.00
      L1  H     4    35       P1  7957  1.00
      P1  H  7954  7966       L1     1  0.80
      L1  C    13    32       P1  7921  0.68

> <Gold.PLP.Chemscore.Internal.Correction>
0.0118

> <Gold.Rescore>
     Score         DG    S(hbond)    S(metal)    S(lipo)     H(rot)  DE(clash)    DE(int)     intcor
     18.80     -20.06       3.07        0.00      80.18       1.97       0.14       1.12       ----

> <Gold.Chemscore.Fitness>
18.7959

> <Gold.Chemscore.DG>
-20.0615

> <Gold.Chemscore.ZeroCoef>
-5.4800

> <Gold.Chemscore.Hbond>
3.0659

> <Gold.Chemscore.Metal>
0.0000

> <Gold.Chemscore.Lipo>
80.1798

> <Gold.Chemscore.Internal_Hbond>
0.0000

> <Gold.Chemscore.DEClash>
0.1432

> <Gold.Chemscore.DEInternal>
1.1224

> <Gold.Chemscore.Rot>
1.9686

> <Gold.Chemscore.Internal.Correction>
   9.000000E+99

> <Gold.Chemscore.Hbonds>
donor molecule, donor type, donor heavy atom, donor atom, acceptor molecule, acceptor atom, score
      L1  H     1    17       P1  7957  0.76
      L1  H     4    21       P1  7948  1.00
      L1  H     4    35       P1  7957  0.95
      P1  H  7954  7966       L1     1  0.11

> <Gold.Chemscore.Hbond.Weighted>
-10.2401

> <Gold.Chemscore.Metal.Weighted>
-0.0000

> <Gold.Chemscore.Lipo.Weighted>
-9.3810

> <Gold.Chemscore.Internal_Hbond.Weighted>
0.0000

> <Gold.Chemscore.DEClash.Weighted>
0.1432

> <Gold.Chemscore.DEInternal.Weighted>
1.1224

> <Gold.Chemscore.Rot.Weighted>
5.0396

> <Gold.Chemscore.Internal.Correction.Weighted>
   9.000000E+99

> <Gold.Protein.RotatedTorsions>
[ 6907 6896 6895 6894 ] final -158.07 input  -60.11 | X-H torsion
[ 7974 7965 7964 7962 ] final -117.29 input  175.53 | X-H torsion
[ 8008 7997 7996 7995 ] final  133.27 input   59.86 | X-H torsion
[ 10167 10162 10161 10158 ] final   53.37 input  -65.29 | X-H torsion
[ 10718 10713 10712 10709 ] final   79.40 input   66.30 | X-H torsion
[ 10763 10752 10751 10750 ] final  172.51 input  -60.55 | X-H torsion
[ 11005 11000 10999 10996 ] final   98.15 input  -57.11 | X-H torsion

> <Gold.Protein.ActiveResidues>
 VAL166  LYS551  ARG553  GLY616  TRP617  ASP618  TYR619  PRO620  LYS621  CYS622 
 ASP623  PHE694  ASN695  SER759  ASP760  ASP761  ALA762  ILE779  LEU786  VAL792 
 PHE793  MET794  SER795  GLU796  ALA797  LYS798  CYS799  TRP800  GLU811  SER814 

> <Gold.Protein.RotatedAtoms>
  151.3125  133.4074  159.2647 H   0  0  0  0  0  0  0  0  0  0  0  0  # atno 6907 bound_to 6896
  151.0102  134.9391  159.8013 H   0  0  0  0  0  0  0  0  0  0  0  0  # atno 6908 bound_to 6896
  152.5298  134.3090  159.9159 H   0  0  0  0  0  0  0  0  0  0  0  0  # atno 6909 bound_to 6896
  145.0869  140.8464  143.4005 H   0  0  0  0  0  0  0  0  0  0  0  0  # atno 7974 bound_to 7965
  156.2991  140.2525  156.3226 H   0  0  0  0  0  0  0  0  0  0  0  0  # atno 8008 bound_to 7997
  154.9220  140.0400  157.2022 H   0  0  0  0  0  0  0  0  0  0  0  0  # atno 8009 bound_to 7997
  154.8301  140.2874  155.5732 H   0  0  0  0  0  0  0  0  0  0  0  0  # atno 8010 bound_to 7997
  140.2415  144.3579  150.6379 H   0  0  0  0  0  0  0  0  0  0  0  0  # atno 10167 bound_to 10162
  157.6775  130.9912  150.1928 H   0  0  0  0  0  0  0  0  0  0  0  0  # atno 10718 bound_to 10713
  154.4271  135.2759  155.1937 H   0  0  0  0  0  0  0  0  0  0  0  0  # atno 10763 bound_to 10752
  154.3858  135.6077  153.5819 H   0  0  0  0  0  0  0  0  0  0  0  0  # atno 10764 bound_to 10752
  152.9835  135.5891  154.4577 H   0  0  0  0  0  0  0  0  0  0  0  0  # atno 10765 bound_to 10752
  139.8773  134.9035  156.4413 H   0  0  0  0  0  0  0  0  0  0  0  0  # atno 11005 bound_to 11000
  145.1111  139.2756  143.5637 LP  0  0  0  0  0  0  0  0  0  0  0  0  # atno 17320 bound_to 7965
  146.3531  140.0708  142.8623 LP  0  0  0  0  0  0  0  0  0  0  0  0  # atno 17321 bound_to 7965
  140.6110  143.2169  151.6886 LP  0  0  0  0  0  0  0  0  0  0  0  0  # atno 17342 bound_to 10162
  139.5076  144.3641  152.0534 LP  0  0  0  0  0  0  0  0  0  0  0  0  # atno 17343 bound_to 10162
  156.2635  130.3713  149.8105 LP  0  0  0  0  0  0  0  0  0  0  0  0  # atno 17370 bound_to 10713
  156.5843  130.8479  151.3391 LP  0  0  0  0  0  0  0  0  0  0  0  0  # atno 17371 bound_to 10713
  140.8997  133.7788  155.9666 LP  0  0  0  0  0  0  0  0  0  0  0  0  # atno 17394 bound_to 11000
  140.8664  134.2779  157.5211 LP  0  0  0  0  0  0  0  0  0  0  0  0  # atno 17395 bound_to 11000

$$$$
