AV-unprocessed.smi:1809|AV-procd|sdf|7328|dock9
  -GOLD-   22720 8583D 1   1.00000     0.00000
 Structure written by MMmdl.
 39 41  0  0  0  0  0  0  0  0  3 V2000
  149.1178  141.2058  154.5924 C   0  0  0  0  0  0  0  0  0  0  0  0
  150.0179  140.0197  154.6538 C   0  0  0  0  0  0  0  0  0  0  0  0
  151.3313  140.1206  154.8721 N   0  0  0  0  0  0  0  0  0  0  0  0
  151.9553  138.8812  154.8882 N   0  0  0  0  0  0  0  0  0  0  0  0
  151.1057  137.8624  154.6945 C   0  0  0  0  0  0  0  0  0  0  0  0
  151.5088  136.5809  154.6755 N   0  5  0  0  0  0  0  0  0  0  0  0
  150.7642  135.6309  155.2847 C   0  0  0  0  0  0  0  0  0  0  0  0
  150.6151  135.4839  156.5000 O   0  0  0  0  0  0  0  0  0  0  0  0
  150.1511  134.7990  154.4337 N   0  0  0  0  0  0  0  0  0  0  0  0
  149.2881  133.6920  154.8228 C   0  0  0  0  0  0  0  0  0  0  0  0
  148.7037  132.9973  153.5858 C   0  0  1  0  0  0  0  0  0  0  0  0
  148.2388  131.5568  153.9050 C   0  0  0  0  0  0  0  0  0  0  0  0
  147.5803  131.0057  152.7069 N   0  3  1  0  0  0  0  0  0  0  0  0
  147.0661  129.6264  152.7629 C   0  0  0  0  0  0  0  0  0  0  0  0
  145.9526  129.5761  151.6970 C   0  0  0  0  0  0  0  0  0  0  0  0
  145.8026  131.0190  151.1808 C   0  0  0  0  0  0  0  0  0  0  0  0
  146.4565  131.8443  152.2839 C   0  0  2  0  0  0  0  0  0  0  0  0
  146.9809  133.2427  151.9346 C   0  0  0  0  0  0  0  0  0  0  0  0
  147.5971  133.7733  153.1090 O   0  0  0  0  0  0  0  0  0  0  0  0
  149.4366  138.3758  154.4495 S   0  0  0  0  0  0  0  0  0  0  0  0
  148.9541  141.6014  155.5947 H   0  0  0  0  0  0  0  0  0  0  0  0
  148.1548  140.9289  154.1632 H   0  0  0  0  0  0  0  0  0  0  0  0
  149.5634  141.9854  153.9742 H   0  0  0  0  0  0  0  0  0  0  0  0
  150.2933  134.9519  153.4461 H   0  0  0  0  0  0  0  0  0  0  0  0
  149.8738  132.9818  155.4085 H   0  0  0  0  0  0  0  0  0  0  0  0
  148.4843  134.0553  155.4652 H   0  0  0  0  0  0  0  0  0  0  0  0
  149.4670  132.9605  152.8061 H   0  0  0  0  0  0  0  0  0  0  0  0
  149.0886  130.9301  154.1784 H   0  0  0  0  0  0  0  0  0  0  0  0
  147.5444  131.5522  154.7469 H   0  0  0  0  0  0  0  0  0  0  0  0
  147.8619  128.9061  152.5715 H   0  0  0  0  0  0  0  0  0  0  0  0
  146.6506  129.4213  153.7508 H   0  0  0  0  0  0  0  0  0  0  0  0
  146.2004  128.8936  150.8833 H   0  0  0  0  0  0  0  0  0  0  0  0
  145.0215  129.2275  152.1457 H   0  0  0  0  0  0  0  0  0  0  0  0
  146.3517  131.1373  150.2456 H   0  0  0  0  0  0  0  0  0  0  0  0
  144.7645  131.2999  151.0008 H   0  0  0  0  0  0  0  0  0  0  0  0
  145.7502  131.9279  153.1133 H   0  0  0  0  0  0  0  0  0  0  0  0
  147.6956  133.2104  151.1107 H   0  0  0  0  0  0  0  0  0  0  0  0
  146.1619  133.8956  151.6324 H   0  0  0  0  0  0  0  0  0  0  0  0
  148.2540  131.0306  151.9546 H   0  0  0  0  0  0  0  0  0  0  0  0
  1  2  1  0  0  0  0
  1 21  1  0  0  0  0
  1 22  1  0  0  0  0
  1 23  1  0  0  0  0
  2 20  1  0  0  0  0
  2  3  2  0  0  0  0
  3  4  1  0  0  0  0
  4  5  2  0  0  0  0
  5  6  1  0  0  0  0
  5 20  1  0  0  0  0
  6  7  1  0  0  0  0
  7  8  2  0  0  0  0
  7  9  1  0  0  0  0
  9 10  1  0  0  0  0
  9 24  1  0  0  0  0
 10 11  1  0  0  0  0
 10 25  1  0  0  0  0
 10 26  1  0  0  0  0
 11 19  1  0  0  0  0
 11 12  1  0  0  0  0
 11 27  1  0  0  0  0
 12 13  1  0  0  0  0
 12 28  1  0  0  0  0
 12 29  1  0  0  0  0
 13 17  1  0  0  0  0
 13 14  1  0  0  0  0
 13 39  1  0  0  0  0
 14 15  1  0  0  0  0
 14 30  1  0  0  0  0
 14 31  1  0  0  0  0
 15 16  1  0  0  0  0
 15 32  1  0  0  0  0
 15 33  1  0  0  0  0
 16 17  1  0  0  0  0
 16 34  1  0  0  0  0
 16 35  1  0  0  0  0
 17 18  1  0  0  0  0
 17 36  1  0  0  0  0
 18 19  1  0  0  0  0
 18 37  1  0  0  0  0
 18 38  1  0  0  0  0
M  CHG  1   6  -1
M  CHG  1  13   1
M  END
> <s_m_source_file>
AV-unprocessed.smi

> <i_m_source_file_index>
1809

> <i_lp_mmshare_version>
43012

> <i_f3d_flags>
0

> <s_epik_input>
W0NIM11jMW5uYyhzMSlbTkhdQyg9TylbTkhdW0NIMl1bQ0BIXShbQ0gyXTIpT1tDSDJdW0NAQEhdKE4yMylbQ0gyXVtDSDJdW0NIMl0z

> <s_epik_cmdline>
J2VwaWtfcHl0aG9uJywgJy1waCcsICc3LjAnLCAnLXRuJywgJzgnLCAnLW1hJywgJzIwMCcsICctbWV0YWxfYmluZGluZycsICctaW1hZScsICc8aW5maWxlLm1hZT4nLCAnLW9tYWUnLCAnPG91dGZpbGUubWFlPic=

> <r_lp_tautomer_probability>
1

> <r_epik_Ionization_Penalty>
3.2601

> <r_epik_Ionization_Penalty_Charging>
3.1406

> <r_epik_Ionization_Penalty_Neutral>
0.119497

> <r_epik_State_Penalty>
3.08894

> <r_epik_Charging_Adjusted_Penalty>
6.22954

> <i_epik_Tot_Q>
0

> <i_epik_Tot_abs_Q>
2

> <r_epik_Metal_State_Penalty>
0.510807

> <b_epik_Metal_Only>
1

> <s_lp_Force_Field>
OPLS_2005

> <r_lp_Energy>
29.8237

> <b_lp_Chiralities_Consistent>
1

> <s_lp_Variant>
AV-unprocessed.smi:1809-20

> <Gold.Version>
5.8.1

> <Gold.Id.Protein>
6NUR|6NUR_protein|mol2

> <Gold.PLP.Fitness>
46.8450

> <Gold.PLP.PLP>
-37.2055

> <Gold.PLP.part.hbond>
-4.2938

> <Gold.PLP.part.metal>
0.0000

> <Gold.PLP.part.buried>
-5.2016

> <Gold.PLP.part.nonpolar>
-29.2101

> <Gold.PLP.part.repulsive>
1.1240

> <Gold.PLP.ligand.clash>
0.0000

> <Gold.PLP.ligand.torsion>
1.1962

> <Gold.PLP.Chemscore.Hbond>
4.0000

> <Gold.PLP.Chemscore.CHOScore>
0.0000

> <Gold.PLP.Chemscore.Metal>
0.0000

> <Gold.Chemscore.Hbonds>
donor molecule, donor type, donor heavy atom, donor atom, acceptor molecule, acceptor atom, score
      L1  H    13    39       P1 10747  1.00
      P1  H  7989  7998       L1     3  0.75
      P1  H 10752 10765       L1     6  2.00

> <Gold.PLP.Chemscore.Internal.Correction>
0.0321

> <Gold.Rescore>
     Score         DG    S(hbond)    S(metal)    S(lipo)     H(rot)  DE(clash)    DE(int)     intcor
     17.69     -18.92       2.31        0.00      77.97       1.32       0.09       1.15       ----

> <Gold.Chemscore.Fitness>
17.6851

> <Gold.Chemscore.DG>
-18.9243

> <Gold.Chemscore.ZeroCoef>
-5.4800

> <Gold.Chemscore.Hbond>
2.3091

> <Gold.Chemscore.Metal>
0.0000

> <Gold.Chemscore.Lipo>
77.9726

> <Gold.Chemscore.Internal_Hbond>
0.0000

> <Gold.Chemscore.DEClash>
0.0933

> <Gold.Chemscore.DEInternal>
1.1458

> <Gold.Chemscore.Rot>
1.3246

> <Gold.Chemscore.Internal.Correction>
   9.000000E+99

> <Gold.Chemscore.Hbonds>
donor molecule, donor type, donor heavy atom, donor atom, acceptor molecule, acceptor atom, score
      L1  H    13    39       P1 10747  1.00
      P1  H  7989  7998       L1     3  0.07
      P1  H 10752 10765       L1     6  0.38

> <Gold.Chemscore.Hbond.Weighted>
-7.7125

> <Gold.Chemscore.Metal.Weighted>
-0.0000

> <Gold.Chemscore.Lipo.Weighted>
-9.1228

> <Gold.Chemscore.Internal_Hbond.Weighted>
0.0000

> <Gold.Chemscore.DEClash.Weighted>
0.0933

> <Gold.Chemscore.DEInternal.Weighted>
1.1458

> <Gold.Chemscore.Rot.Weighted>
3.3910

> <Gold.Chemscore.Internal.Correction.Weighted>
   9.000000E+99

> <Gold.Protein.RotatedTorsions>
[ 6907 6896 6895 6894 ] final   91.80 input  -60.11 | X-H torsion
[ 7974 7965 7964 7962 ] final   39.83 input  175.53 | X-H torsion
[ 8008 7997 7996 7995 ] final -118.80 input   59.86 | X-H torsion
[ 10167 10162 10161 10158 ] final  120.63 input  -65.29 | X-H torsion
[ 10718 10713 10712 10709 ] final   58.11 input   66.30 | X-H torsion
[ 10763 10752 10751 10750 ] final  152.45 input  -60.55 | X-H torsion
[ 11005 11000 10999 10996 ] final  112.66 input  -57.11 | X-H torsion

> <Gold.Protein.ActiveResidues>
 VAL166  LYS551  ARG553  GLY616  TRP617  ASP618  TYR619  PRO620  LYS621  CYS622 
 ASP623  PHE694  ASN695  SER759  ASP760  ASP761  ALA762  ILE779  LEU786  VAL792 
 PHE793  MET794  SER795  GLU796  ALA797  LYS798  CYS799  TRP800  GLU811  SER814 

> <Gold.Protein.RotatedAtoms>
  152.5451  134.1600  159.8553 H   0  0  0  0  0  0  0  0  0  0  0  0  # atno 6907 bound_to 6896
  151.1619  133.4832  159.2601 H   0  0  0  0  0  0  0  0  0  0  0  0  # atno 6908 bound_to 6896
  151.1364  135.0168  159.8661 H   0  0  0  0  0  0  0  0  0  0  0  0  # atno 6909 bound_to 6896
  146.0953  139.5605  142.9449 H   0  0  0  0  0  0  0  0  0  0  0  0  # atno 7974 bound_to 7965
  155.1055  140.0396  157.2709 H   0  0  0  0  0  0  0  0  0  0  0  0  # atno 8008 bound_to 7997
  154.6725  140.2615  155.6967 H   0  0  0  0  0  0  0  0  0  0  0  0  # atno 8009 bound_to 7997
  156.2664  140.2795  156.1239 H   0  0  0  0  0  0  0  0  0  0  0  0  # atno 8010 bound_to 7997
  139.5970  144.7045  151.3153 H   0  0  0  0  0  0  0  0  0  0  0  0  # atno 10167 bound_to 10162
  157.5569  130.8807  149.9050 H   0  0  0  0  0  0  0  0  0  0  0  0  # atno 10718 bound_to 10713
  154.1203  135.2833  155.3210 H   0  0  0  0  0  0  0  0  0  0  0  0  # atno 10763 bound_to 10752
  154.6428  135.5396  153.7812 H   0  0  0  0  0  0  0  0  0  0  0  0  # atno 10764 bound_to 10752
  153.0315  135.6490  154.1357 H   0  0  0  0  0  0  0  0  0  0  0  0  # atno 10765 bound_to 10752
  139.8933  134.9534  156.6619 H   0  0  0  0  0  0  0  0  0  0  0  0  # atno 11005 bound_to 11000
  145.5959  141.0362  143.2044 LP  0  0  0  0  0  0  0  0  0  0  0  0  # atno 17320 bound_to 7965
  144.7391  139.7500  143.7318 LP  0  0  0  0  0  0  0  0  0  0  0  0  # atno 17321 bound_to 7965
  140.7219  143.7111  150.7769 LP  0  0  0  0  0  0  0  0  0  0  0  0  # atno 17342 bound_to 10162
  140.0679  143.5090  152.2595 LP  0  0  0  0  0  0  0  0  0  0  0  0  # atno 17343 bound_to 10162
  156.0627  130.3697  150.0946 LP  0  0  0  0  0  0  0  0  0  0  0  0  # atno 17370 bound_to 10713
  156.9114  130.9653  151.3562 LP  0  0  0  0  0  0  0  0  0  0  0  0  # atno 17371 bound_to 10713
  140.7440  133.8954  155.8298 LP  0  0  0  0  0  0  0  0  0  0  0  0  # atno 17394 bound_to 11000
  141.0055  134.1092  157.4275 LP  0  0  0  0  0  0  0  0  0  0  0  0  # atno 17395 bound_to 11000

$$$$
