AV-unprocessed.smi:527|AV-procd|sdf|2815|dock3
  -GOLD-   2262023293D 1   1.00000     0.00000
 Structure written by MMmdl.
 42 43  0  0  0  0  0  0  0  0  1 V2000
  151.0182  145.4288  159.9767 C   0  0  0  0  0  0  0  0  0  0  0  0
  151.5572  143.9985  160.1578 C   0  0  2  0  0  0  0  0  0  0  0  0
  152.2232  143.8647  161.5428 C   0  0  0  0  0  0  0  0  0  0  0  0
  152.7706  142.4526  161.7891 C   0  0  0  0  0  0  0  0  0  0  0  0
  153.7532  142.0448  160.6826 C   0  0  0  0  0  0  0  0  0  0  0  0
  153.1161  142.1540  159.2824 C   0  0  1  0  0  0  0  0  0  0  0  0
  152.0890  141.1281  159.0938 N   0  0  0  0  0  0  0  0  0  0  0  0
  152.3148  139.8390  158.8020 C   0  0  0  0  0  0  0  0  0  0  0  0
  153.4391  139.3756  158.5986 O   0  0  0  0  0  0  0  0  0  0  0  0
  151.1611  139.1460  158.7712 N   0  0  0  0  0  0  0  0  0  0  0  0
  150.9984  137.8107  158.8775 C   0  0  0  0  0  0  0  0  0  0  0  0
  151.9108  136.9926  159.0067 O   0  0  0  0  0  0  0  0  0  0  0  0
  149.5525  137.3103  158.8204 C   0  0  0  0  0  0  0  0  0  0  0  0
  149.0261  137.3468  157.4675 N   0  0  0  0  0  0  0  0  0  0  0  0
  149.5336  136.6925  156.3518 C   0  0  0  0  0  0  0  0  0  0  0  0
  148.7165  137.0254  155.2952 C   0  0  0  0  0  0  0  0  0  0  0  0
  147.7056  137.8770  155.7345 N   0  0  0  0  0  0  0  0  0  0  0  0
  147.9526  138.0206  157.0301 C   0  0  0  0  0  0  0  0  0  0  0  0
  152.5408  143.5728  159.0315 C   0  0  1  0  0  0  0  0  0  0  0  0
  151.9281  143.6856  157.6206 C   0  0  0  0  0  0  0  0  0  0  0  0
  151.8299  146.1546  159.9195 H   0  0  0  0  0  0  0  0  0  0  0  0
  150.3785  145.7138  160.8126 H   0  0  0  0  0  0  0  0  0  0  0  0
  150.4168  145.5243  159.0730 H   0  0  0  0  0  0  0  0  0  0  0  0
  150.6994  143.3250  160.1361 H   0  0  0  0  0  0  0  0  0  0  0  0
  153.0365  144.5865  161.6303 H   0  0  0  0  0  0  0  0  0  0  0  0
  151.5071  144.1142  162.3266 H   0  0  0  0  0  0  0  0  0  0  0  0
  153.2682  142.4125  162.7585 H   0  0  0  0  0  0  0  0  0  0  0  0
  151.9460  141.7403  161.8371 H   0  0  0  0  0  0  0  0  0  0  0  0
  154.6300  142.6920  160.7278 H   0  0  0  0  0  0  0  0  0  0  0  0
  154.1175  141.0324  160.8613 H   0  0  0  0  0  0  0  0  0  0  0  0
  153.9010  141.9812  158.5437 H   0  0  0  0  0  0  0  0  0  0  0  0
  151.1313  141.4285  159.2007 H   0  0  0  0  0  0  0  0  0  0  0  0
  150.3164  139.6889  158.6704 H   0  0  0  0  0  0  0  0  0  0  0  0
  149.5026  136.2880  159.1974 H   0  0  0  0  0  0  0  0  0  0  0  0
  148.9155  137.9225  159.4604 H   0  0  0  0  0  0  0  0  0  0  0  0
  150.4103  136.0633  156.3995 H   0  0  0  0  0  0  0  0  0  0  0  0
  148.7779  136.7202  154.2610 H   0  0  0  0  0  0  0  0  0  0  0  0
  147.3415  138.6342  157.6760 H   0  0  0  0  0  0  0  0  0  0  0  0
  153.3855  144.2630  159.0609 H   0  0  0  0  0  0  0  0  0  0  0  0
  150.9934  143.1297  157.5411 H   0  0  0  0  0  0  0  0  0  0  0  0
  152.6114  143.2963  156.8656 H   0  0  0  0  0  0  0  0  0  0  0  0
  151.7218  144.7218  157.3545 H   0  0  0  0  0  0  0  0  0  0  0  0
  1  2  1  0  0  0  0
  1 21  1  0  0  0  0
  1 22  1  0  0  0  0
  1 23  1  0  0  0  0
  2 19  1  0  0  0  0
  2  3  1  0  0  0  0
  2 24  1  0  0  0  0
  3  4  1  0  0  0  0
  3 25  1  0  0  0  0
  3 26  1  0  0  0  0
  4  5  1  0  0  0  0
  4 27  1  0  0  0  0
  4 28  1  0  0  0  0
  5  6  1  0  0  0  0
  5 29  1  0  0  0  0
  5 30  1  0  0  0  0
  6  7  1  0  0  0  0
  6 19  1  0  0  0  0
  6 31  1  0  0  0  0
  7  8  1  0  0  0  0
  7 32  1  0  0  0  0
  8  9  2  0  0  0  0
  8 10  1  0  0  0  0
 10 11  1  0  0  0  0
 10 33  1  0  0  0  0
 11 12  2  0  0  0  0
 11 13  1  0  0  0  0
 13 14  1  0  0  0  0
 13 34  1  0  0  0  0
 13 35  1  0  0  0  0
 14 18  1  0  0  0  0
 14 15  1  0  0  0  0
 15 16  2  0  0  0  0
 15 36  1  0  0  0  0
 16 17  1  0  0  0  0
 16 37  1  0  0  0  0
 17 18  2  0  0  0  0
 18 38  1  0  0  0  0
 19 20  1  0  0  0  0
 19 39  1  0  0  0  0
 20 40  1  0  0  0  0
 20 41  1  0  0  0  0
 20 42  1  0  0  0  0
M  END
> <s_m_source_file>
AV-unprocessed.smi

> <i_m_source_file_index>
527

> <i_lp_mmshare_version>
43012

> <i_f3d_flags>
0

> <s_epik_input>
W0NIM11bQ0BASF0xW0NIMl1bQ0gyXVtDSDJdW0NASF0oW0NASF0xW0NIM10pW05IXUMoPU8pW05IXUMoPU8pW0NIMl1uMltjSF1bY0hdbltjSF0y

> <s_epik_cmdline>
J2VwaWtfcHl0aG9uJywgJy1waCcsICc3LjAnLCAnLXRuJywgJzgnLCAnLW1hJywgJzIwMCcsICctbWV0YWxfYmluZGluZycsICctaW1hZScsICc8aW5maWxlLm1hZT4nLCAnLW9tYWUnLCAnPG91dGZpbGUubWFlPic=

> <r_lp_tautomer_probability>
1

> <r_epik_Ionization_Penalty>
0.172132

> <r_epik_Ionization_Penalty_Charging>
0.172105

> <r_epik_Ionization_Penalty_Neutral>
2.71747e-05

> <r_epik_State_Penalty>
0.161503

> <r_epik_Charging_Adjusted_Penalty>
0.333607

> <i_epik_Tot_Q>
0

> <i_epik_Tot_abs_Q>
0

> <r_epik_Metal_State_Penalty>
0.124763

> <b_epik_Metal_Only>
0

> <s_lp_Force_Field>
OPLS_2005

> <r_lp_Energy>
14.2901

> <b_lp_Chiralities_Consistent>
1

> <s_lp_Variant>
AV-unprocessed.smi:527-1

> <Gold.Version>
5.8.1

> <Gold.Id.Protein>
6NUR|6NUR_protein|mol2

> <Gold.PLP.Fitness>
46.3357

> <Gold.PLP.PLP>
-38.8264

> <Gold.PLP.part.hbond>
-1.9851

> <Gold.PLP.part.metal>
0.0000

> <Gold.PLP.part.buried>
-6.0893

> <Gold.PLP.part.nonpolar>
-31.9515

> <Gold.PLP.part.repulsive>
0.3017

> <Gold.PLP.ligand.clash>
0.0000

> <Gold.PLP.ligand.torsion>
0.5733

> <Gold.PLP.Chemscore.Hbond>
1.8779

> <Gold.PLP.Chemscore.CHOScore>
1.0000

> <Gold.PLP.Chemscore.Metal>
0.0000

> <Gold.Chemscore.Hbonds>
donor molecule, donor type, donor heavy atom, donor atom, acceptor molecule, acceptor atom, score
      P1  H  6896  6908       L1    12  0.84
      P1  H  7997  8008       L1     9  0.98
      L1  C    16    37       P1  7948  1.00

> <Gold.PLP.Chemscore.Internal.Correction>
0.0224

> <Gold.Rescore>
     Score         DG    S(hbond)    S(metal)    S(lipo)     H(rot)  DE(clash)    DE(int)     intcor
     17.34     -19.25       1.82        0.00     102.10       1.66       0.05       1.86       ----

> <Gold.Chemscore.Fitness>
17.3419

> <Gold.Chemscore.DG>
-19.2518

> <Gold.Chemscore.ZeroCoef>
-5.4800

> <Gold.Chemscore.Hbond>
1.8212

> <Gold.Chemscore.Metal>
0.0000

> <Gold.Chemscore.Lipo>
102.1016

> <Gold.Chemscore.Internal_Hbond>
0.0000

> <Gold.Chemscore.DEClash>
0.0529

> <Gold.Chemscore.DEInternal>
1.8570

> <Gold.Chemscore.Rot>
1.6629

> <Gold.Chemscore.Internal.Correction>
   9.000000E+99

> <Gold.Chemscore.Hbonds>
donor molecule, donor type, donor heavy atom, donor atom, acceptor molecule, acceptor atom, score
      P1  H  6896  6908       L1    12  0.78
      P1  H  7997  8008       L1     9  0.91

> <Gold.Chemscore.Hbond.Weighted>
-6.0828

> <Gold.Chemscore.Metal.Weighted>
-0.0000

> <Gold.Chemscore.Lipo.Weighted>
-11.9459

> <Gold.Chemscore.Internal_Hbond.Weighted>
0.0000

> <Gold.Chemscore.DEClash.Weighted>
0.0529

> <Gold.Chemscore.DEInternal.Weighted>
1.8570

> <Gold.Chemscore.Rot.Weighted>
4.2569

> <Gold.Chemscore.Internal.Correction.Weighted>
   9.000000E+99

> <Gold.Protein.RotatedTorsions>
[ 6907 6896 6895 6894 ] final -119.46 input  -60.11 | X-H torsion
[ 7974 7965 7964 7962 ] final  -39.06 input  175.53 | X-H torsion
[ 8008 7997 7996 7995 ] final  -95.30 input   59.86 | X-H torsion
[ 10167 10162 10161 10158 ] final  121.60 input  -65.29 | X-H torsion
[ 10718 10713 10712 10709 ] final  170.04 input   66.30 | X-H torsion
[ 10763 10752 10751 10750 ] final -168.54 input  -60.55 | X-H torsion
[ 11005 11000 10999 10996 ] final  167.53 input  -57.11 | X-H torsion

> <Gold.Protein.ActiveResidues>
 VAL166  LYS551  ARG553  GLY616  TRP617  ASP618  TYR619  PRO620  LYS621  CYS622 
 ASP623  PHE694  ASN695  SER759  ASP760  ASP761  ALA762  ILE779  LEU786  VAL792 
 PHE793  MET794  SER795  GLU796  ALA797  LYS798  CYS799  TRP800  GLU811  SER814 

> <Gold.Protein.RotatedAtoms>
  150.8308  133.8095  159.3099 H   0  0  0  0  0  0  0  0  0  0  0  0  # atno 6907 bound_to 6896
  151.5826  135.1056  160.0030 H   0  0  0  0  0  0  0  0  0  0  0  0  # atno 6908 bound_to 6896
  152.4387  133.7367  159.6674 H   0  0  0  0  0  0  0  0  0  0  0  0  # atno 6909 bound_to 6896
  146.0431  140.6582  142.9078 H   0  0  0  0  0  0  0  0  0  0  0  0  # atno 7974 bound_to 7965
  154.7596  140.0481  157.0962 H   0  0  0  0  0  0  0  0  0  0  0  0  # atno 8008 bound_to 7997
  154.9954  140.3118  155.4869 H   0  0  0  0  0  0  0  0  0  0  0  0  # atno 8009 bound_to 7997
  156.2901  140.2211  156.5061 H   0  0  0  0  0  0  0  0  0  0  0  0  # atno 8010 bound_to 7997
  139.5909  144.7025  151.3292 H   0  0  0  0  0  0  0  0  0  0  0  0  # atno 10167 bound_to 10162
  157.0139  131.0212  151.2795 H   0  0  0  0  0  0  0  0  0  0  0  0  # atno 10718 bound_to 10713
  154.6618  135.2926  154.9856 H   0  0  0  0  0  0  0  0  0  0  0  0  # atno 10763 bound_to 10752
  154.0913  135.6590  153.4857 H   0  0  0  0  0  0  0  0  0  0  0  0  # atno 10764 bound_to 10752
  153.0434  135.5220  154.7573 H   0  0  0  0  0  0  0  0  0  0  0  0  # atno 10765 bound_to 10752
  140.2778  134.7775  157.3731 H   0  0  0  0  0  0  0  0  0  0  0  0  # atno 11005 bound_to 11000
  144.7084  140.3944  143.7100 LP  0  0  0  0  0  0  0  0  0  0  0  0  # atno 17320 bound_to 7965
  145.6851  139.1627  143.2678 LP  0  0  0  0  0  0  0  0  0  0  0  0  # atno 17321 bound_to 7965
  140.7172  143.7234  150.7679 LP  0  0  0  0  0  0  0  0  0  0  0  0  # atno 17342 bound_to 10162
  140.0789  143.4988  152.2540 LP  0  0  0  0  0  0  0  0  0  0  0  0  # atno 17343 bound_to 10162
  157.5300  130.8052  149.7906 LP  0  0  0  0  0  0  0  0  0  0  0  0  # atno 17370 bound_to 10713
  156.0126  130.3827  150.2214 LP  0  0  0  0  0  0  0  0  0  0  0  0  # atno 17371 bound_to 10713
  140.1312  134.5092  155.8104 LP  0  0  0  0  0  0  0  0  0  0  0  0  # atno 17394 bound_to 11000
  141.2167  133.6791  156.7043 LP  0  0  0  0  0  0  0  0  0  0  0  0  # atno 17395 bound_to 11000

$$$$
