AV-unprocessed.smi:1071|AV-procd|sdf|4680|dock4
  -GOLD-   22720 3193D 1   1.00000     0.00000
 Structure written by MMmdl.
 47 48  0  0  0  0  0  0  0  0  2 V2000
  145.8996  131.8202  148.9721 C   0  0  0  0  0  0  0  0  0  0  0  0
  144.5143  131.7982  149.2678 O   0  0  0  0  0  0  0  0  0  0  0  0
  144.2246  132.3264  150.5512 C   0  0  0  0  0  0  0  0  0  0  0  0
  144.6646  133.7924  150.5991 C   0  0  0  0  0  0  0  0  0  0  0  0
  145.1376  134.0859  151.9102 O   0  0  0  0  0  0  0  0  0  0  0  0
  145.5276  135.3786  152.1955 C   0  0  0  0  0  0  0  0  0  0  0  0
  145.9187  135.6892  153.5129 C   0  0  0  0  0  0  0  0  0  0  0  0
  146.3168  137.0062  153.8098 C   0  0  0  0  0  0  0  0  0  0  0  0
  146.3241  137.9700  152.7815 C   0  0  0  0  0  0  0  0  0  0  0  0
  146.7098  139.2975  153.1083 N   0  0  0  0  0  0  0  0  0  0  0  0
  146.4220  139.9992  154.2215 C   0  0  0  0  0  0  0  0  0  0  0  0
  145.5853  139.6473  155.0523 O   0  0  0  0  0  0  0  0  0  0  0  0
  147.0278  141.2113  154.2438 N   0  0  0  0  0  0  0  0  0  0  0  0
  148.4243  141.3397  153.8014 C   0  0  0  0  0  0  0  0  0  0  0  0
  149.3580  141.1644  155.0167 C   0  0  0  0  0  0  0  0  0  0  0  0
  149.0216  142.1189  156.1055 N   0  3  2  0  0  0  0  0  0  0  0  0
  149.8895  141.9539  157.2905 C   0  0  0  0  0  0  0  0  0  0  0  0
  147.5770  142.1309  156.4562 C   0  0  0  0  0  0  0  0  0  0  0  0
  146.7020  142.2922  155.1956 C   0  0  2  0  0  0  0  0  0  0  0  0
  145.2023  142.4437  155.5271 C   0  0  0  0  0  0  0  0  0  0  0  0
  145.9029  137.5623  151.4925 C   0  0  0  0  0  0  0  0  0  0  0  0
  145.5159  136.3022  151.2029 N   0  0  0  0  0  0  0  0  0  0  0  0
  146.0694  131.3965  147.9822 H   0  0  0  0  0  0  0  0  0  0  0  0
  146.4667  131.2294  149.6928 H   0  0  0  0  0  0  0  0  0  0  0  0
  146.2864  132.8400  148.9730 H   0  0  0  0  0  0  0  0  0  0  0  0
  143.1547  132.2520  150.7523 H   0  0  0  0  0  0  0  0  0  0  0  0
  144.7466  131.7549  151.3203 H   0  0  0  0  0  0  0  0  0  0  0  0
  145.4505  133.9637  149.8616 H   0  0  0  0  0  0  0  0  0  0  0  0
  143.8198  134.4368  150.3500 H   0  0  0  0  0  0  0  0  0  0  0  0
  145.9119  134.9314  154.2823 H   0  0  0  0  0  0  0  0  0  0  0  0
  146.6159  137.2680  154.8144 H   0  0  0  0  0  0  0  0  0  0  0  0
  147.2695  139.7713  152.4145 H   0  0  0  0  0  0  0  0  0  0  0  0
  148.6935  140.6176  153.0292 H   0  0  0  0  0  0  0  0  0  0  0  0
  148.5754  142.3208  153.3484 H   0  0  0  0  0  0  0  0  0  0  0  0
  149.2825  140.1439  155.3963 H   0  0  0  0  0  0  0  0  0  0  0  0
  150.3945  141.3121  154.7112 H   0  0  0  0  0  0  0  0  0  0  0  0
  149.7394  140.9772  157.7527 H   0  0  0  0  0  0  0  0  0  0  0  0
  149.6751  142.7215  158.0348 H   0  0  0  0  0  0  0  0  0  0  0  0
  150.9403  142.0440  157.0133 H   0  0  0  0  0  0  0  0  0  0  0  0
  147.3200  141.2072  156.9774 H   0  0  0  0  0  0  0  0  0  0  0  0
  147.3850  142.9504  157.1498 H   0  0  0  0  0  0  0  0  0  0  0  0
  146.9838  143.2301  154.7137 H   0  0  0  0  0  0  0  0  0  0  0  0
  145.0233  143.3765  156.0625 H   0  0  0  0  0  0  0  0  0  0  0  0
  144.8291  141.6414  156.1630 H   0  0  0  0  0  0  0  0  0  0  0  0
  144.5972  142.4690  154.6203 H   0  0  0  0  0  0  0  0  0  0  0  0
  145.8460  138.2540  150.6663 H   0  0  0  0  0  0  0  0  0  0  0  0
  149.2196  143.0374  155.7348 H   0  0  0  0  0  0  0  0  0  0  0  0
  1  2  1  0  0  0  0
  1 23  1  0  0  0  0
  1 24  1  0  0  0  0
  1 25  1  0  0  0  0
  2  3  1  0  0  0  0
  3  4  1  0  0  0  0
  3 26  1  0  0  0  0
  3 27  1  0  0  0  0
  4  5  1  0  0  0  0
  4 28  1  0  0  0  0
  4 29  1  0  0  0  0
  5  6  1  0  0  0  0
  6 22  1  0  0  0  0
  6  7  2  0  0  0  0
  7  8  1  0  0  0  0
  7 30  1  0  0  0  0
  8  9  2  0  0  0  0
  8 31  1  0  0  0  0
  9 10  1  0  0  0  0
  9 21  1  0  0  0  0
 10 11  1  0  0  0  0
 10 32  1  0  0  0  0
 11 12  2  0  0  0  0
 11 13  1  0  0  0  0
 13 19  1  0  0  0  0
 13 14  1  0  0  0  0
 14 15  1  0  0  0  0
 14 33  1  0  0  0  0
 14 34  1  0  0  0  0
 15 16  1  0  0  0  0
 15 35  1  0  0  0  0
 15 36  1  0  0  0  0
 16 17  1  0  0  0  0
 16 18  1  0  0  0  0
 16 47  1  0  0  0  0
 17 37  1  0  0  0  0
 17 38  1  0  0  0  0
 17 39  1  0  0  0  0
 18 19  1  0  0  0  0
 18 40  1  0  0  0  0
 18 41  1  0  0  0  0
 19 20  1  0  0  0  0
 19 42  1  0  0  0  0
 20 43  1  0  0  0  0
 20 44  1  0  0  0  0
 20 45  1  0  0  0  0
 21 22  2  0  0  0  0
 21 46  1  0  0  0  0
M  CHG  1  16   1
M  END
> <s_m_source_file>
AV-unprocessed.smi

> <i_m_source_file_index>
1071

> <i_lp_mmshare_version>
43012

> <i_f3d_flags>
0

> <s_epik_input>
W0NIM11PW0NIMl1bQ0gyXU9jMVtjSF1bY0hdYyhbY0hdbjEpW05IXUMoPU8pTjJbQ0gyXVtDSDJdTihbQ0gzXSlbQ0gyXVtDQEhdMltDSDNd

> <s_epik_cmdline>
J2VwaWtfcHl0aG9uJywgJy1waCcsICc3LjAnLCAnLXRuJywgJzgnLCAnLW1hJywgJzIwMCcsICctbWV0YWxfYmluZGluZycsICctaW1hZScsICc8aW5maWxlLm1hZT4nLCAnLW9tYWUnLCAnPG91dGZpbGUubWFlPic=

> <r_lp_tautomer_probability>
1

> <r_epik_Ionization_Penalty>
0.25455

> <r_epik_Ionization_Penalty_Charging>
0.254506

> <r_epik_Ionization_Penalty_Neutral>
4.43365e-05

> <r_epik_State_Penalty>
0.245983

> <r_epik_Charging_Adjusted_Penalty>
0.500488

> <i_epik_Tot_Q>
1

> <i_epik_Tot_abs_Q>
1

> <r_epik_Metal_State_Penalty>
0.245987

> <b_epik_Metal_Only>
0

> <s_lp_Force_Field>
OPLS_2005

> <r_lp_Energy>
54.7367

> <b_lp_Chiralities_Consistent>
1

> <s_lp_Variant>
AV-unprocessed.smi:1071-4

> <Gold.Version>
5.8.1

> <Gold.Id.Protein>
6NUR|6NUR_protein|mol2

> <Gold.PLP.Fitness>
38.5468

> <Gold.PLP.PLP>
-30.4159

> <Gold.PLP.part.hbond>
-2.0867

> <Gold.PLP.part.metal>
0.0000

> <Gold.PLP.part.buried>
0.9000

> <Gold.PLP.part.nonpolar>
-29.8673

> <Gold.PLP.part.repulsive>
0.6922

> <Gold.PLP.ligand.clash>
0.0000

> <Gold.PLP.ligand.torsion>
0.8589

> <Gold.PLP.Chemscore.Hbond>
2.3242

> <Gold.PLP.Chemscore.CHOScore>
0.7453

> <Gold.PLP.Chemscore.Metal>
0.0000

> <Gold.Chemscore.Hbonds>
donor molecule, donor type, donor heavy atom, donor atom, acceptor molecule, acceptor atom, score
      L1  H    16    47       P1  8028  2.00
      P1  H 10785 10796       L1     2  0.30
      L1  C    21    46       P1 10171  0.75

> <Gold.PLP.Chemscore.Internal.Correction>
0.6401

> <Gold.Rescore>
     Score         DG    S(hbond)    S(metal)    S(lipo)     H(rot)  DE(clash)    DE(int)     intcor
     11.42     -15.23       1.45        0.00      77.23       1.60       0.70       3.11       ----

> <Gold.Chemscore.Fitness>
11.4220

> <Gold.Chemscore.DG>
-15.2349

> <Gold.Chemscore.ZeroCoef>
-5.4800

> <Gold.Chemscore.Hbond>
1.4451

> <Gold.Chemscore.Metal>
0.0000

> <Gold.Chemscore.Lipo>
77.2304

> <Gold.Chemscore.Internal_Hbond>
0.0000

> <Gold.Chemscore.DEClash>
0.6991

> <Gold.Chemscore.DEInternal>
3.1138

> <Gold.Chemscore.Rot>
1.6045

> <Gold.Chemscore.Internal.Correction>
   9.000000E+99

> <Gold.Chemscore.Hbonds>
donor molecule, donor type, donor heavy atom, donor atom, acceptor molecule, acceptor atom, score
      L1  H    16    47       P1  8028  0.94
      P1  H 10785 10796       L1     2  0.26

> <Gold.Chemscore.Hbond.Weighted>
-4.8265

> <Gold.Chemscore.Metal.Weighted>
-0.0000

> <Gold.Chemscore.Lipo.Weighted>
-9.0360

> <Gold.Chemscore.Internal_Hbond.Weighted>
0.0000

> <Gold.Chemscore.DEClash.Weighted>
0.6991

> <Gold.Chemscore.DEInternal.Weighted>
3.1138

> <Gold.Chemscore.Rot.Weighted>
4.1075

> <Gold.Chemscore.Internal.Correction.Weighted>
   9.000000E+99

> <Gold.Protein.RotatedTorsions>
[ 6907 6896 6895 6894 ] final  139.04 input  -60.11 | X-H torsion
[ 7974 7965 7964 7962 ] final -162.15 input  175.53 | X-H torsion
[ 8008 7997 7996 7995 ] final  139.64 input   59.86 | X-H torsion
[ 10167 10162 10161 10158 ] final -108.21 input  -65.29 | X-H torsion
[ 10718 10713 10712 10709 ] final -107.74 input   66.30 | X-H torsion
[ 10763 10752 10751 10750 ] final  108.98 input  -60.55 | X-H torsion
[ 11005 11000 10999 10996 ] final   34.55 input  -57.11 | X-H torsion

> <Gold.Protein.ActiveResidues>
 VAL166  LYS551  ARG553  GLY616  TRP617  ASP618  TYR619  PRO620  LYS621  CYS622 
 ASP623  PHE694  ASN695  SER759  ASP760  ASP761  ALA762  ILE779  LEU786  VAL792 
 PHE793  MET794  SER795  GLU796  ALA797  LYS798  CYS799  TRP800  GLU811  SER814 

> <Gold.Protein.RotatedAtoms>
  152.2595  133.5285  159.5373 H   0  0  0  0  0  0  0  0  0  0  0  0  # atno 6907 bound_to 6896
  150.7120  134.0849  159.3920 H   0  0  0  0  0  0  0  0  0  0  0  0  # atno 6908 bound_to 6896
  151.8767  135.0469  160.0535 H   0  0  0  0  0  0  0  0  0  0  0  0  # atno 6909 bound_to 6896
  144.7367  140.3294  143.6156 H   0  0  0  0  0  0  0  0  0  0  0  0  # atno 7974 bound_to 7965
  156.2987  140.2362  156.4271 H   0  0  0  0  0  0  0  0  0  0  0  0  # atno 8008 bound_to 7997
  154.8303  140.0433  157.1493 H   0  0  0  0  0  0  0  0  0  0  0  0  # atno 8009 bound_to 7997
  154.9215  140.3004  155.5217 H   0  0  0  0  0  0  0  0  0  0  0  0  # atno 8010 bound_to 7997
  140.1686  143.4061  152.1371 H   0  0  0  0  0  0  0  0  0  0  0  0  # atno 10167 bound_to 10162
  156.0451  130.5678  150.7864 H   0  0  0  0  0  0  0  0  0  0  0  0  # atno 10718 bound_to 10713
  153.4283  135.3794  155.2154 H   0  0  0  0  0  0  0  0  0  0  0  0  # atno 10763 bound_to 10752
  154.8748  135.3834  154.4299 H   0  0  0  0  0  0  0  0  0  0  0  0  # atno 10764 bound_to 10752
  153.4829  135.7088  153.5991 H   0  0  0  0  0  0  0  0  0  0  0  0  # atno 10765 bound_to 10752
  140.2517  134.3295  155.7888 H   0  0  0  0  0  0  0  0  0  0  0  0  # atno 11005 bound_to 11000
  145.7487  139.1787  143.2334 LP  0  0  0  0  0  0  0  0  0  0  0  0  # atno 17320 bound_to 7965
  146.1078  140.7466  142.9518 LP  0  0  0  0  0  0  0  0  0  0  0  0  # atno 17321 bound_to 7965
  139.5348  144.7198  151.4931 LP  0  0  0  0  0  0  0  0  0  0  0  0  # atno 17342 bound_to 10162
  140.6597  143.8525  150.6874 LP  0  0  0  0  0  0  0  0  0  0  0  0  # atno 17343 bound_to 10162
  157.5317  131.0937  150.9946 LP  0  0  0  0  0  0  0  0  0  0  0  0  # atno 17370 bound_to 10713
  157.0251  130.5689  149.5336 LP  0  0  0  0  0  0  0  0  0  0  0  0  # atno 17371 bound_to 10713
  141.2200  133.7358  156.9048 LP  0  0  0  0  0  0  0  0  0  0  0  0  # atno 17394 bound_to 11000
  140.1551  134.9204  157.2643 LP  0  0  0  0  0  0  0  0  0  0  0  0  # atno 17395 bound_to 11000

$$$$
