AV-unprocessed.smi:1995|AV-procd|sdf|8078|dock3
  -GOLD-   2272010293D 1   1.00000     0.00000
 Structure written by MMmdl.
 43 44  0  0  0  0  0  0  0  0  2 V2000
  147.8553  139.0252  153.4619 C   0  0  0  0  0  0  0  0  0  0  0  0
  148.3466  138.7016  154.8840 C   0  0  0  0  0  0  0  0  0  0  0  0
  149.4049  137.5618  155.0005 C   0  0  1  0  0  0  0  0  0  0  0  0
  150.6150  137.8979  154.0906 C   0  0  0  0  0  0  0  0  0  0  0  0
  149.9270  137.4825  156.4699 C   0  0  0  0  0  0  0  0  0  0  0  0
  148.8689  137.3474  157.4730 N   0  0  0  0  0  0  0  0  0  0  0  0
  149.0055  136.7828  158.6815 C   0  0  0  0  0  0  0  0  0  0  0  0
  150.0567  136.2839  159.0829 O   0  0  0  0  0  0  0  0  0  0  0  0
  147.8556  136.8374  159.3761 N   0  0  0  0  0  0  0  0  0  0  0  0
  147.5910  136.3281  160.6747 C   0  0  0  0  0  0  0  0  0  0  0  0
  147.4158  137.0879  161.7623 N   0  0  0  0  0  0  0  0  0  0  0  0
  147.1733  136.3204  162.9044 C   0  0  0  0  0  0  0  0  0  0  0  0
  147.1712  134.9685  162.6668 C   0  0  0  0  0  0  0  0  0  0  0  0
  147.4740  134.6030  160.9892 S   0  0  0  0  0  0  0  0  0  0  0  0
  148.8168  136.2340  154.5865 N   0  3  0  0  0  0  0  0  0  0  0  0
  149.6987  135.0482  154.7793 C   0  0  0  0  0  0  0  0  0  0  0  0
  149.0789  133.8056  154.1201 C   0  0  0  0  0  0  0  0  0  0  0  0
  147.7956  133.5630  154.6789 O   0  0  0  0  0  0  0  0  0  0  0  0
  146.9056  134.6456  154.4453 C   0  0  0  0  0  0  0  0  0  0  0  0
  147.4526  135.9246  155.1022 C   0  0  0  0  0  0  0  0  0  0  0  0
  147.1294  139.8381  153.4888 H   0  0  0  0  0  0  0  0  0  0  0  0
  147.3628  138.1722  152.9963 H   0  0  0  0  0  0  0  0  0  0  0  0
  148.6687  139.3450  152.8113 H   0  0  0  0  0  0  0  0  0  0  0  0
  148.7451  139.6251  155.3028 H   0  0  0  0  0  0  0  0  0  0  0  0
  147.4697  138.4580  155.4830 H   0  0  0  0  0  0  0  0  0  0  0  0
  151.2198  138.7058  154.5032 H   0  0  0  0  0  0  0  0  0  0  0  0
  150.3052  138.2238  153.0976 H   0  0  0  0  0  0  0  0  0  0  0  0
  151.2767  137.0404  153.9660 H   0  0  0  0  0  0  0  0  0  0  0  0
  150.6462  136.6700  156.5848 H   0  0  0  0  0  0  0  0  0  0  0  0
  150.4896  138.3822  156.7194 H   0  0  0  0  0  0  0  0  0  0  0  0
  147.9703  137.7430  157.2382 H   0  0  0  0  0  0  0  0  0  0  0  0
  147.0778  137.2973  158.9264 H   0  0  0  0  0  0  0  0  0  0  0  0
  147.0131  136.8201  163.8486 H   0  0  0  0  0  0  0  0  0  0  0  0
  147.0103  134.1688  163.3745 H   0  0  0  0  0  0  0  0  0  0  0  0
  150.6847  135.2071  154.3473 H   0  0  0  0  0  0  0  0  0  0  0  0
  149.8419  134.8521  155.8422 H   0  0  0  0  0  0  0  0  0  0  0  0
  149.0043  133.9324  153.0387 H   0  0  0  0  0  0  0  0  0  0  0  0
  149.7089  132.9334  154.2960 H   0  0  0  0  0  0  0  0  0  0  0  0
  146.7626  134.7897  153.3729 H   0  0  0  0  0  0  0  0  0  0  0  0
  145.9308  134.3957  154.8646 H   0  0  0  0  0  0  0  0  0  0  0  0
  147.4784  135.7945  156.1843 H   0  0  0  0  0  0  0  0  0  0  0  0
  146.7485  136.7269  154.8910 H   0  0  0  0  0  0  0  0  0  0  0  0
  148.7005  136.3178  153.5867 H   0  0  0  0  0  0  0  0  0  0  0  0
  1  2  1  0  0  0  0
  1 21  1  0  0  0  0
  1 22  1  0  0  0  0
  1 23  1  0  0  0  0
  2  3  1  0  0  0  0
  2 24  1  0  0  0  0
  2 25  1  0  0  0  0
  3  4  1  0  0  0  0
  3  5  1  0  0  0  0
  3 15  1  0  0  0  0
  4 26  1  0  0  0  0
  4 27  1  0  0  0  0
  4 28  1  0  0  0  0
  5  6  1  0  0  0  0
  5 29  1  0  0  0  0
  5 30  1  0  0  0  0
  6  7  1  0  0  0  0
  6 31  1  0  0  0  0
  7  8  2  0  0  0  0
  7  9  1  0  0  0  0
  9 10  1  0  0  0  0
  9 32  1  0  0  0  0
 10 14  1  0  0  0  0
 10 11  2  0  0  0  0
 11 12  1  0  0  0  0
 12 13  2  0  0  0  0
 12 33  1  0  0  0  0
 13 14  1  0  0  0  0
 13 34  1  0  0  0  0
 15 20  1  0  0  0  0
 15 16  1  0  0  0  0
 15 43  1  0  0  0  0
 16 17  1  0  0  0  0
 16 35  1  0  0  0  0
 16 36  1  0  0  0  0
 17 18  1  0  0  0  0
 17 37  1  0  0  0  0
 17 38  1  0  0  0  0
 18 19  1  0  0  0  0
 19 20  1  0  0  0  0
 19 39  1  0  0  0  0
 19 40  1  0  0  0  0
 20 41  1  0  0  0  0
 20 42  1  0  0  0  0
M  CHG  1  15   1
M  END
> <s_m_source_file>
AV-unprocessed.smi

> <i_m_source_file_index>
1995

> <i_lp_mmshare_version>
43012

> <i_f3d_flags>
0

> <s_epik_input>
W0NIMl0xW0NIMl1PW0NIMl1bQ0gyXU4xW0NAQF0oW0NIM10pKFtDSDJdW0NIM10pW0NIMl1bTkhdQyg9TylbTkhdYzJuW2NIXVtjSF1zMg==

> <s_epik_cmdline>
J2VwaWtfcHl0aG9uJywgJy1waCcsICc3LjAnLCAnLXRuJywgJzgnLCAnLW1hJywgJzIwMCcsICctbWV0YWxfYmluZGluZycsICctaW1hZScsICc8aW5maWxlLm1hZT4nLCAnLW9tYWUnLCAnPG91dGZpbGUubWFlPic=

> <r_lp_tautomer_probability>
0.999

> <r_epik_Ionization_Penalty>
0.55406

> <r_epik_Ionization_Penalty_Charging>
0.553838

> <r_epik_Ionization_Penalty_Neutral>
0.000222147

> <r_epik_State_Penalty>
0.564424

> <r_epik_Charging_Adjusted_Penalty>
1.11826

> <i_epik_Tot_Q>
1

> <i_epik_Tot_abs_Q>
1

> <r_epik_Metal_State_Penalty>
0.573776

> <b_epik_Metal_Only>
0

> <s_lp_Force_Field>
OPLS_2005

> <r_lp_Energy>
32.5614

> <b_lp_Chiralities_Consistent>
1

> <s_lp_Variant>
AV-unprocessed.smi:1995-3

> <Gold.Version>
5.8.1

> <Gold.Id.Protein>
6NUR|6NUR_protein|mol2

> <Gold.PLP.Fitness>
43.0473

> <Gold.PLP.PLP>
-31.1260

> <Gold.PLP.part.hbond>
-4.0000

> <Gold.PLP.part.metal>
0.0000

> <Gold.PLP.part.buried>
-3.7619

> <Gold.PLP.part.nonpolar>
-23.9659

> <Gold.PLP.part.repulsive>
0.2583

> <Gold.PLP.ligand.clash>
0.0000

> <Gold.PLP.ligand.torsion>
1.1409

> <Gold.PLP.Chemscore.Hbond>
4.6893

> <Gold.PLP.Chemscore.CHOScore>
0.0000

> <Gold.PLP.Chemscore.Metal>
0.0000

> <Gold.Chemscore.Hbonds>
donor molecule, donor type, donor heavy atom, donor atom, acceptor molecule, acceptor atom, score
      L1  H    15    43       P1  7948  2.00
      P1  H  6896  6907       L1     8  1.00
      P1  H  6931  6943       L1    11  0.98
      P1  H  6934  6947       L1    11  0.65

> <Gold.PLP.Chemscore.Internal.Correction>
0.1352

> <Gold.Rescore>
     Score         DG    S(hbond)    S(metal)    S(lipo)     H(rot)  DE(clash)    DE(int)     intcor
     16.99     -18.26       2.88        0.00      66.28       1.79       0.05       1.22       ----

> <Gold.Chemscore.Fitness>
16.9903

> <Gold.Chemscore.DG>
-18.2641

> <Gold.Chemscore.ZeroCoef>
-5.4800

> <Gold.Chemscore.Hbond>
2.8809

> <Gold.Chemscore.Metal>
0.0000

> <Gold.Chemscore.Lipo>
66.2811

> <Gold.Chemscore.Internal_Hbond>
0.0000

> <Gold.Chemscore.DEClash>
0.0500

> <Gold.Chemscore.DEInternal>
1.2239

> <Gold.Chemscore.Rot>
1.7942

> <Gold.Chemscore.Internal.Correction>
   9.000000E+99

> <Gold.Chemscore.Hbonds>
donor molecule, donor type, donor heavy atom, donor atom, acceptor molecule, acceptor atom, score
      L1  H    15    43       P1  7948  1.00
      P1  H  6896  6907       L1     8  1.00
      P1  H  6931  6943       L1    11  0.46
      P1  H  6934  6947       L1    11  0.25

> <Gold.Chemscore.Hbond.Weighted>
-9.6223

> <Gold.Chemscore.Metal.Weighted>
-0.0000

> <Gold.Chemscore.Lipo.Weighted>
-7.7549

> <Gold.Chemscore.Internal_Hbond.Weighted>
0.0000

> <Gold.Chemscore.DEClash.Weighted>
0.0500

> <Gold.Chemscore.DEInternal.Weighted>
1.2239

> <Gold.Chemscore.Rot.Weighted>
4.5931

> <Gold.Chemscore.Internal.Correction.Weighted>
   9.000000E+99

> <Gold.Protein.RotatedTorsions>
[ 6907 6896 6895 6894 ] final  -52.83 input  -60.11 | X-H torsion
[ 7974 7965 7964 7962 ] final   -4.70 input  175.53 | X-H torsion
[ 8008 7997 7996 7995 ] final  -25.96 input   59.86 | X-H torsion
[ 10167 10162 10161 10158 ] final  -87.68 input  -65.29 | X-H torsion
[ 10718 10713 10712 10709 ] final  141.36 input   66.30 | X-H torsion
[ 10763 10752 10751 10750 ] final -136.19 input  -60.55 | X-H torsion
[ 11005 11000 10999 10996 ] final  -25.23 input  -57.11 | X-H torsion

> <Gold.Protein.ActiveResidues>
 VAL166  LYS551  ARG553  GLY616  TRP617  ASP618  TYR619  PRO620  LYS621  CYS622 
 ASP623  PHE694  ASN695  SER759  ASP760  ASP761  ALA762  ILE779  LEU786  VAL792 
 PHE793  MET794  SER795  GLU796  ALA797  LYS798  CYS799  TRP800  GLU811  SER814 

> <Gold.Protein.RotatedAtoms>
  150.8482  134.7798  159.6986 H   0  0  0  0  0  0  0  0  0  0  0  0  # atno 6907 bound_to 6896
  152.4553  134.5301  159.9818 H   0  0  0  0  0  0  0  0  0  0  0  0  # atno 6908 bound_to 6896
  151.5427  133.3392  159.2974 H   0  0  0  0  0  0  0  0  0  0  0  0  # atno 6909 bound_to 6896
  146.2367  140.1911  142.8332 H   0  0  0  0  0  0  0  0  0  0  0  0  # atno 7974 bound_to 7965
  154.4449  140.1912  156.0700 H   0  0  0  0  0  0  0  0  0  0  0  0  # atno 8008 bound_to 7997
  156.0518  140.3307  155.7333 H   0  0  0  0  0  0  0  0  0  0  0  0  # atno 8009 bound_to 7997
  155.5545  140.0598  157.2833 H   0  0  0  0  0  0  0  0  0  0  0  0  # atno 8010 bound_to 7997
  140.3821  143.2744  151.9370 H   0  0  0  0  0  0  0  0  0  0  0  0  # atno 10167 bound_to 10162
  157.3928  131.1007  151.0629 H   0  0  0  0  0  0  0  0  0  0  0  0  # atno 10718 bound_to 10713
  154.8688  135.3680  154.5021 H   0  0  0  0  0  0  0  0  0  0  0  0  # atno 10763 bound_to 10752
  153.5661  135.7022  153.5530 H   0  0  0  0  0  0  0  0  0  0  0  0  # atno 10764 bound_to 10752
  153.3584  135.4053  155.1663 H   0  0  0  0  0  0  0  0  0  0  0  0  # atno 10765 bound_to 10752
  140.8918  133.7583  156.0431 H   0  0  0  0  0  0  0  0  0  0  0  0  # atno 11005 bound_to 11000
  144.9857  140.8500  143.5370 LP  0  0  0  0  0  0  0  0  0  0  0  0  # atno 17320 bound_to 7965
  145.1910  139.2301  143.5242 LP  0  0  0  0  0  0  0  0  0  0  0  0  # atno 17321 bound_to 7965
  139.4794  144.5808  151.7935 LP  0  0  0  0  0  0  0  0  0  0  0  0  # atno 17342 bound_to 10162
  140.4926  144.1287  150.5953 LP  0  0  0  0  0  0  0  0  0  0  0  0  # atno 17343 bound_to 10162
  157.1656  130.6245  149.5624 LP  0  0  0  0  0  0  0  0  0  0  0  0  # atno 17370 bound_to 10713
  155.9803  130.4802  150.6763 LP  0  0  0  0  0  0  0  0  0  0  0  0  # atno 17371 bound_to 10713
  140.8337  134.3148  157.5339 LP  0  0  0  0  0  0  0  0  0  0  0  0  # atno 17394 bound_to 11000
  139.8730  134.9378  156.3696 LP  0  0  0  0  0  0  0  0  0  0  0  0  # atno 17395 bound_to 11000

$$$$
