AV-unprocessed.smi:1175|AV-procd|sdf|4950|dock5
  -GOLD-   22720 3543D 1   1.00000     0.00000
 Structure written by MMmdl.
 36 37  0  0  0  0  0  0  0  0  1 V2000
  151.5402  140.2852  155.2999 O   0  0  0  0  0  0  0  0  0  0  0  0
  150.9494  140.2217  156.3792 C   0  0  0  0  0  0  0  0  0  0  0  0
  151.5964  139.5475  157.5978 C   0  0  0  0  0  0  0  0  0  0  0  0
  152.1656  140.5028  158.5634 N   0  0  0  0  0  0  0  0  0  0  0  0
  151.7794  141.8513  158.4322 C   0  0  0  0  0  0  0  0  0  0  0  0
  152.2323  142.8260  159.2439 C   0  0  0  0  0  0  0  0  0  0  0  0
  151.7484  144.2623  159.1173 C   0  0  0  0  0  0  0  0  0  0  0  0
  150.4193  144.3297  159.1983 F   0  0  0  0  0  0  0  0  0  0  0  0
  152.2621  145.0010  160.1002 F   0  0  0  0  0  0  0  0  0  0  0  0
  152.1254  144.7978  157.9554 F   0  0  0  0  0  0  0  0  0  0  0  0
  153.1320  142.4158  160.3042 C   0  0  0  0  0  0  0  0  0  0  0  0
  153.4995  141.1281  160.4530 C   0  0  0  0  0  0  0  0  0  0  0  0
  153.0102  140.0819  159.5520 C   0  0  0  0  0  0  0  0  0  0  0  0
  153.3373  138.9017  159.6786 O   0  0  0  0  0  0  0  0  0  0  0  0
  149.7164  140.7142  156.5695 N   0  0  0  0  0  0  0  0  0  0  0  0
  148.9199  141.3934  155.5532 C   0  0  0  0  0  0  0  0  0  0  0  0
  148.5847  140.4671  154.3693 C   0  0  2  0  0  0  0  0  0  0  0  0
  147.4308  140.9333  153.5033 C   0  0  0  0  0  0  0  0  0  0  0  0
  147.0432  139.6465  152.7824 C   0  0  0  0  0  0  0  0  0  0  0  0
  147.3221  138.5908  153.6973 O   0  0  0  0  0  0  0  0  0  0  0  0
  148.1007  139.0785  154.7864 C   0  0  0  0  0  0  0  0  0  0  0  0
  150.8579  138.9098  158.0873 H   0  0  0  0  0  0  0  0  0  0  0  0
  152.3684  138.8646  157.2404 H   0  0  0  0  0  0  0  0  0  0  0  0
  151.0783  142.0410  157.6322 H   0  0  0  0  0  0  0  0  0  0  0  0
  153.5210  143.1541  160.9898 H   0  0  0  0  0  0  0  0  0  0  0  0
  154.1723  140.8592  161.2541 H   0  0  0  0  0  0  0  0  0  0  0  0
  149.3016  140.6181  157.4853 H   0  0  0  0  0  0  0  0  0  0  0  0
  148.0031  141.7844  155.9979 H   0  0  0  0  0  0  0  0  0  0  0  0
  149.4847  142.2588  155.2052 H   0  0  0  0  0  0  0  0  0  0  0  0
  149.4663  140.3468  153.7370 H   0  0  0  0  0  0  0  0  0  0  0  0
  146.6025  141.2793  154.1234 H   0  0  0  0  0  0  0  0  0  0  0  0
  147.7039  141.7364  152.8178 H   0  0  0  0  0  0  0  0  0  0  0  0
  145.9982  139.6407  152.4716 H   0  0  0  0  0  0  0  0  0  0  0  0
  147.6616  139.5075  151.8948 H   0  0  0  0  0  0  0  0  0  0  0  0
  148.9247  138.4038  155.0199 H   0  0  0  0  0  0  0  0  0  0  0  0
  147.4566  139.1397  155.6647 H   0  0  0  0  0  0  0  0  0  0  0  0
  1  2  2  0  0  0  0
  2  3  1  0  0  0  0
  2 15  1  0  0  0  0
  3  4  1  0  0  0  0
  3 22  1  0  0  0  0
  3 23  1  0  0  0  0
  4 13  1  0  0  0  0
  4  5  1  0  0  0  0
  5  6  2  0  0  0  0
  5 24  1  0  0  0  0
  6  7  1  0  0  0  0
  6 11  1  0  0  0  0
  7  8  1  0  0  0  0
  7  9  1  0  0  0  0
  7 10  1  0  0  0  0
 11 12  2  0  0  0  0
 11 25  1  0  0  0  0
 12 13  1  0  0  0  0
 12 26  1  0  0  0  0
 13 14  2  0  0  0  0
 15 16  1  0  0  0  0
 15 27  1  0  0  0  0
 16 17  1  0  0  0  0
 16 28  1  0  0  0  0
 16 29  1  0  0  0  0
 17 21  1  0  0  0  0
 17 18  1  0  0  0  0
 17 30  1  0  0  0  0
 18 19  1  0  0  0  0
 18 31  1  0  0  0  0
 18 32  1  0  0  0  0
 19 20  1  0  0  0  0
 19 33  1  0  0  0  0
 19 34  1  0  0  0  0
 20 21  1  0  0  0  0
 21 35  1  0  0  0  0
 21 36  1  0  0  0  0
M  END
> <s_m_source_file>
AV-unprocessed.smi

> <i_m_source_file_index>
1175

> <i_lp_mmshare_version>
43012

> <i_f3d_flags>
0

> <s_epik_input>
W0NIMl0xT1tDSDJdW0NIMl1bQ0BIXTFbQ0gyXVtOSF1DKD1PKVtDSDJdbjJbY0hdYyhDKEYpKEYpRilbY0hdW2NIXWMyPU8=

> <s_epik_cmdline>
J2VwaWtfcHl0aG9uJywgJy1waCcsICc3LjAnLCAnLXRuJywgJzgnLCAnLW1hJywgJzIwMCcsICctbWV0YWxfYmluZGluZycsICctaW1hZScsICc8aW5maWxlLm1hZT4nLCAnLW9tYWUnLCAnPG91dGZpbGUubWFlPic=

> <r_lp_tautomer_probability>
1

> <r_epik_Ionization_Penalty>
3.67963e-08

> <r_epik_Ionization_Penalty_Charging>
1.809e-08

> <r_epik_Ionization_Penalty_Neutral>
1.87063e-08

> <r_epik_State_Penalty>
-0

> <r_epik_Charging_Adjusted_Penalty>
1.809e-08

> <i_epik_Tot_Q>
0

> <i_epik_Tot_abs_Q>
0

> <r_epik_Metal_State_Penalty>
-0

> <b_epik_Metal_Only>
0

> <s_lp_Force_Field>
OPLS_2005

> <r_lp_Energy>
30.0254

> <b_lp_Chiralities_Consistent>
1

> <s_lp_Variant>
AV-unprocessed.smi:1175-1

> <Gold.Version>
5.8.1

> <Gold.Id.Protein>
6NUR|6NUR_protein|mol2

> <Gold.PLP.Fitness>
46.7343

> <Gold.PLP.PLP>
-45.7333

> <Gold.PLP.part.hbond>
-1.0000

> <Gold.PLP.part.metal>
0.0000

> <Gold.PLP.part.buried>
-5.4682

> <Gold.PLP.part.nonpolar>
-39.5375

> <Gold.PLP.part.repulsive>
0.2422

> <Gold.PLP.ligand.clash>
0.5556

> <Gold.PLP.ligand.torsion>
0.6123

> <Gold.PLP.Chemscore.Hbond>
0.9120

> <Gold.PLP.Chemscore.CHOScore>
0.0000

> <Gold.PLP.Chemscore.Metal>
0.0000

> <Gold.Chemscore.Hbonds>
donor molecule, donor type, donor heavy atom, donor atom, acceptor molecule, acceptor atom, score
      P1  H  7989  7998       L1     1  0.93

> <Gold.PLP.Chemscore.Internal.Correction>
0.0453

> <Gold.Rescore>
     Score         DG    S(hbond)    S(metal)    S(lipo)     H(rot)  DE(clash)    DE(int)     intcor
     12.81     -14.22       0.96        0.00      88.11       1.87       0.14       1.28       ----

> <Gold.Chemscore.Fitness>
12.8056

> <Gold.Chemscore.DG>
-14.2195

> <Gold.Chemscore.ZeroCoef>
-5.4800

> <Gold.Chemscore.Hbond>
0.9621

> <Gold.Chemscore.Metal>
0.0000

> <Gold.Chemscore.Lipo>
88.1064

> <Gold.Chemscore.Internal_Hbond>
0.0000

> <Gold.Chemscore.DEClash>
0.1368

> <Gold.Chemscore.DEInternal>
1.2771

> <Gold.Chemscore.Rot>
1.8681

> <Gold.Chemscore.Internal.Correction>
   9.000000E+99

> <Gold.Chemscore.Hbonds>
donor molecule, donor type, donor heavy atom, donor atom, acceptor molecule, acceptor atom, score
      P1  H  7989  7998       L1     1  0.89

> <Gold.Chemscore.Hbond.Weighted>
-3.2133

> <Gold.Chemscore.Metal.Weighted>
-0.0000

> <Gold.Chemscore.Lipo.Weighted>
-10.3084

> <Gold.Chemscore.Internal_Hbond.Weighted>
0.0000

> <Gold.Chemscore.DEClash.Weighted>
0.1368

> <Gold.Chemscore.DEInternal.Weighted>
1.2771

> <Gold.Chemscore.Rot.Weighted>
4.7822

> <Gold.Chemscore.Internal.Correction.Weighted>
   9.000000E+99

> <Gold.Protein.RotatedTorsions>
[ 6907 6896 6895 6894 ] final -115.44 input  -60.11 | X-H torsion
[ 7974 7965 7964 7962 ] final  173.83 input  175.53 | X-H torsion
[ 8008 7997 7996 7995 ] final   53.00 input   59.86 | X-H torsion
[ 10167 10162 10161 10158 ] final -142.33 input  -65.29 | X-H torsion
[ 10718 10713 10712 10709 ] final  -58.94 input   66.30 | X-H torsion
[ 10763 10752 10751 10750 ] final   89.67 input  -60.55 | X-H torsion
[ 11005 11000 10999 10996 ] final   60.70 input  -57.11 | X-H torsion

> <Gold.Protein.ActiveResidues>
 VAL166  LYS551  ARG553  GLY616  TRP617  ASP618  TYR619  PRO620  LYS621  CYS622 
 ASP623  PHE694  ASN695  SER759  ASP760  ASP761  ALA762  ILE779  LEU786  VAL792 
 PHE793  MET794  SER795  GLU796  ALA797  LYS798  CYS799  TRP800  GLU811  SER814 

> <Gold.Protein.RotatedAtoms>
  150.7978  133.8659  159.3244 H   0  0  0  0  0  0  0  0  0  0  0  0  # atno 6907 bound_to 6896
  151.6479  135.1003  160.0164 H   0  0  0  0  0  0  0  0  0  0  0  0  # atno 6908 bound_to 6896
  152.4062  133.6852  159.6393 H   0  0  0  0  0  0  0  0  0  0  0  0  # atno 6909 bound_to 6896
  144.7235  139.9707  143.6437 H   0  0  0  0  0  0  0  0  0  0  0  0  # atno 7974 bound_to 7965
  155.4611  140.3462  155.4313 H   0  0  0  0  0  0  0  0  0  0  0  0  # atno 8008 bound_to 7997
  156.1160  140.1474  156.9301 H   0  0  0  0  0  0  0  0  0  0  0  0  # atno 8009 bound_to 7997
  154.4789  140.0876  156.7309 H   0  0  0  0  0  0  0  0  0  0  0  0  # atno 8010 bound_to 7997
  139.8099  143.7718  152.2663 H   0  0  0  0  0  0  0  0  0  0  0  0  # atno 10167 bound_to 10162
  156.1098  130.4176  150.0646 H   0  0  0  0  0  0  0  0  0  0  0  0  # atno 10718 bound_to 10713
  153.1895  135.4462  155.0131 H   0  0  0  0  0  0  0  0  0  0  0  0  # atno 10763 bound_to 10752
  154.8081  135.3283  154.7379 H   0  0  0  0  0  0  0  0  0  0  0  0  # atno 10764 bound_to 10752
  153.7835  135.6975  153.4939 H   0  0  0  0  0  0  0  0  0  0  0  0  # atno 10765 bound_to 10752
  140.0213  134.6148  155.9635 H   0  0  0  0  0  0  0  0  0  0  0  0  # atno 11005 bound_to 11000
  146.0565  139.3562  143.0607 LP  0  0  0  0  0  0  0  0  0  0  0  0  # atno 17320 bound_to 7965
  145.8148  140.9708  143.0930 LP  0  0  0  0  0  0  0  0  0  0  0  0  # atno 17321 bound_to 7965
  139.7863  144.7426  151.0017 LP  0  0  0  0  0  0  0  0  0  0  0  0  # atno 17342 bound_to 10162
  140.7818  143.4489  151.0442 LP  0  0  0  0  0  0  0  0  0  0  0  0  # atno 17343 bound_to 10162
  156.8613  130.9492  151.3617 LP  0  0  0  0  0  0  0  0  0  0  0  0  # atno 17370 bound_to 10713
  157.6278  130.8705  149.9220 LP  0  0  0  0  0  0  0  0  0  0  0  0  # atno 17371 bound_to 10713
  141.1775  133.6542  156.4888 LP  0  0  0  0  0  0  0  0  0  0  0  0  # atno 17394 bound_to 11000
  140.4382  134.7040  157.4978 LP  0  0  0  0  0  0  0  0  0  0  0  0  # atno 17395 bound_to 11000

$$$$
