AV-unprocessed.smi:712|AV-procd|sdf|3473|dock10
  -GOLD-   22720 0463D 1   1.00000     0.00000
 Structure written by MMmdl.
 50 51  0  0  0  0  0  0  0  0  1 V2000
  142.1252  135.4172  163.0709 C   0  0  0  0  0  0  0  0  0  0  0  0
  143.5823  135.6259  162.7134 C   0  0  0  0  0  0  0  0  0  0  0  0
  144.5131  134.5165  162.7195 C   0  0  0  0  0  0  0  0  0  0  0  0
  145.7956  134.7372  162.3906 C   0  0  0  0  0  0  0  0  0  0  0  0
  146.2632  136.0170  162.0404 N   0  0  0  0  0  0  0  0  0  0  0  0
  147.6877  136.1437  161.6911 C   0  0  0  0  0  0  0  0  0  0  0  0
  147.9414  136.1070  160.1778 C   0  0  0  0  0  0  0  0  0  0  0  0
  147.1902  135.4785  159.4314 O   0  0  0  0  0  0  0  0  0  0  0  0
  148.9939  136.8150  159.7405 N   0  0  0  0  0  0  0  0  0  0  0  0
  149.4219  136.9385  158.3495 C   0  0  0  0  0  0  0  0  0  0  0  0
  150.7207  137.7524  158.2074 C   0  0  1  0  0  0  0  0  0  0  0  0
  150.6026  139.2137  158.6897 C   0  0  0  0  0  0  0  0  0  0  0  0
  151.8630  139.9389  158.5655 N   0  0  0  0  0  0  0  0  0  0  0  0
  151.7036  141.3245  159.0182 C   0  0  0  0  0  0  0  0  0  0  0  0
  152.9751  142.2048  159.1040 C   0  0  0  0  0  0  0  0  0  0  0  0
  153.8782  141.8777  160.3053 C   0  0  0  0  0  0  0  0  0  0  0  0
  152.6949  143.7111  158.9646 C   0  0  0  0  0  0  0  0  0  0  0  0
  152.8978  139.2089  159.2930 C   0  0  0  0  0  0  0  0  0  0  0  0
  153.0132  137.7483  158.8237 C   0  0  0  0  0  0  0  0  0  0  0  0
  151.7525  137.0989  158.9420 O   0  0  0  0  0  0  0  0  0  0  0  0
  145.4383  137.1070  162.0220 C   0  0  0  0  0  0  0  0  0  0  0  0
  145.8433  138.2305  161.7219 O   0  0  0  0  0  0  0  0  0  0  0  0
  144.0379  136.8533  162.3797 C   0  0  0  0  0  0  0  0  0  0  0  0
  141.9492  134.4044  163.4343 H   0  0  0  0  0  0  0  0  0  0  0  0
  141.4944  135.5810  162.1969 H   0  0  0  0  0  0  0  0  0  0  0  0
  141.8210  136.1155  163.8510 H   0  0  0  0  0  0  0  0  0  0  0  0
  144.1838  133.5231  162.9869 H   0  0  0  0  0  0  0  0  0  0  0  0
  146.5408  133.9552  162.3809 H   0  0  0  0  0  0  0  0  0  0  0  0
  148.0972  137.0777  162.0781 H   0  0  0  0  0  0  0  0  0  0  0  0
  148.2622  135.3555  162.1819 H   0  0  0  0  0  0  0  0  0  0  0  0
  149.5457  137.3099  160.4261 H   0  0  0  0  0  0  0  0  0  0  0  0
  149.5805  135.9327  157.9596 H   0  0  0  0  0  0  0  0  0  0  0  0
  148.6362  137.3788  157.7337 H   0  0  0  0  0  0  0  0  0  0  0  0
  150.9998  137.7527  157.1521 H   0  0  0  0  0  0  0  0  0  0  0  0
  149.8275  139.7184  158.1119 H   0  0  0  0  0  0  0  0  0  0  0  0
  150.2761  139.2343  159.7303 H   0  0  0  0  0  0  0  0  0  0  0  0
  151.0376  141.8243  158.3132 H   0  0  0  0  0  0  0  0  0  0  0  0
  151.1736  141.3463  159.9716 H   0  0  0  0  0  0  0  0  0  0  0  0
  153.5562  141.9498  158.2167 H   0  0  0  0  0  0  0  0  0  0  0  0
  153.4096  142.1515  161.2504 H   0  0  0  0  0  0  0  0  0  0  0  0
  154.8234  142.4169  160.2401 H   0  0  0  0  0  0  0  0  0  0  0  0
  154.1094  140.8130  160.3432 H   0  0  0  0  0  0  0  0  0  0  0  0
  152.1719  144.1247  159.8240 H   0  0  0  0  0  0  0  0  0  0  0  0
  152.0931  143.9178  158.0792 H   0  0  0  0  0  0  0  0  0  0  0  0
  153.6268  144.2673  158.8592 H   0  0  0  0  0  0  0  0  0  0  0  0
  153.8659  139.6821  159.1472 H   0  0  0  0  0  0  0  0  0  0  0  0
  152.6878  139.2327  160.3635 H   0  0  0  0  0  0  0  0  0  0  0  0
  153.3561  137.7027  157.7890 H   0  0  0  0  0  0  0  0  0  0  0  0
  153.7465  137.2133  159.4269 H   0  0  0  0  0  0  0  0  0  0  0  0
  143.3483  137.6852  162.3727 H   0  0  0  0  0  0  0  0  0  0  0  0
  1  2  1  0  0  0  0
  1 24  1  0  0  0  0
  1 25  1  0  0  0  0
  1 26  1  0  0  0  0
  2 23  2  0  0  0  0
  2  3  1  0  0  0  0
  3  4  2  0  0  0  0
  3 27  1  0  0  0  0
  4  5  1  0  0  0  0
  4 28  1  0  0  0  0
  5  6  1  0  0  0  0
  5 21  1  0  0  0  0
  6  7  1  0  0  0  0
  6 29  1  0  0  0  0
  6 30  1  0  0  0  0
  7  8  2  0  0  0  0
  7  9  1  0  0  0  0
  9 10  1  0  0  0  0
  9 31  1  0  0  0  0
 10 11  1  0  0  0  0
 10 32  1  0  0  0  0
 10 33  1  0  0  0  0
 11 20  1  0  0  0  0
 11 12  1  0  0  0  0
 11 34  1  0  0  0  0
 12 13  1  0  0  0  0
 12 35  1  0  0  0  0
 12 36  1  0  0  0  0
 13 14  1  0  0  0  0
 13 18  1  0  0  0  0
 14 15  1  0  0  0  0
 14 37  1  0  0  0  0
 14 38  1  0  0  0  0
 15 16  1  0  0  0  0
 15 17  1  0  0  0  0
 15 39  1  0  0  0  0
 16 40  1  0  0  0  0
 16 41  1  0  0  0  0
 16 42  1  0  0  0  0
 17 43  1  0  0  0  0
 17 44  1  0  0  0  0
 17 45  1  0  0  0  0
 18 19  1  0  0  0  0
 18 46  1  0  0  0  0
 18 47  1  0  0  0  0
 19 20  1  0  0  0  0
 19 48  1  0  0  0  0
 19 49  1  0  0  0  0
 21 22  2  0  0  0  0
 21 23  1  0  0  0  0
 23 50  1  0  0  0  0
M  END
> <s_m_source_file>
AV-unprocessed.smi

> <i_m_source_file_index>
712

> <i_lp_mmshare_version>
43012

> <i_f3d_flags>
0

> <s_epik_input>
W0NIM11jMVtjSF1bY0hdbihjKD1PKVtjSF0xKVtDSDJdQyg9TylbTkhdW0NIMl1bQ0BASF0yW0NIMl1OKFtDSDJdW0NIMl1PMilbQ0gyXVtDSF0oW0NIM10pW0NIM10=

> <s_epik_cmdline>
J2VwaWtfcHl0aG9uJywgJy1waCcsICc3LjAnLCAnLXRuJywgJzgnLCAnLW1hJywgJzIwMCcsICctbWV0YWxfYmluZGluZycsICctaW1hZScsICc8aW5maWxlLm1hZT4nLCAnLW9tYWUnLCAnPG91dGZpbGUubWFlPic=

> <r_lp_tautomer_probability>
1

> <r_epik_Ionization_Penalty>
1.11669

> <r_epik_Ionization_Penalty_Charging>
4.93496e-07

> <r_epik_Ionization_Penalty_Neutral>
1.11669

> <r_epik_State_Penalty>
1.17516

> <r_epik_Charging_Adjusted_Penalty>
1.17516

> <i_epik_Tot_Q>
0

> <i_epik_Tot_abs_Q>
0

> <r_epik_Metal_State_Penalty>
1.17513

> <b_epik_Metal_Only>
0

> <s_lp_Force_Field>
OPLS_2005

> <r_lp_Energy>
40.1187

> <b_lp_Chiralities_Consistent>
1

> <s_lp_Variant>
AV-unprocessed.smi:712-6

> <Gold.Version>
5.8.1

> <Gold.Id.Protein>
6NUR|6NUR_protein|mol2

> <Gold.PLP.Fitness>
49.9528

> <Gold.PLP.PLP>
-46.5678

> <Gold.PLP.part.hbond>
-2.0000

> <Gold.PLP.part.metal>
0.0000

> <Gold.PLP.part.buried>
-7.9290

> <Gold.PLP.part.nonpolar>
-37.4707

> <Gold.PLP.part.repulsive>
0.2320

> <Gold.PLP.ligand.clash>
0.0000

> <Gold.PLP.ligand.torsion>
0.9418

> <Gold.PLP.Chemscore.Hbond>
1.7360

> <Gold.PLP.Chemscore.CHOScore>
0.0000

> <Gold.PLP.Chemscore.Metal>
0.0000

> <Gold.Chemscore.Hbonds>
donor molecule, donor type, donor heavy atom, donor atom, acceptor molecule, acceptor atom, score
      P1  H  6896  6908       L1    20  0.59
      P1  H  6934  6947       L1    22  0.59

> <Gold.PLP.Chemscore.Internal.Correction>
0.0606

> <Gold.Rescore>
     Score         DG    S(hbond)    S(metal)    S(lipo)     H(rot)  DE(clash)    DE(int)     intcor
     18.27     -19.09       1.75        0.00     106.21       1.82       0.03       0.80       ----

> <Gold.Chemscore.Fitness>
18.2657

> <Gold.Chemscore.DG>
-19.0942

> <Gold.Chemscore.ZeroCoef>
-5.4800

> <Gold.Chemscore.Hbond>
1.7539

> <Gold.Chemscore.Metal>
0.0000

> <Gold.Chemscore.Lipo>
106.2099

> <Gold.Chemscore.Internal_Hbond>
0.0000

> <Gold.Chemscore.DEClash>
0.0281

> <Gold.Chemscore.DEInternal>
0.8005

> <Gold.Chemscore.Rot>
1.8243

> <Gold.Chemscore.Internal.Correction>
   9.000000E+99

> <Gold.Chemscore.Hbonds>
donor molecule, donor type, donor heavy atom, donor atom, acceptor molecule, acceptor atom, score
      P1  H  6896  6908       L1    20  0.54
      P1  H  6934  6947       L1    22  0.60

> <Gold.Chemscore.Hbond.Weighted>
-5.8579

> <Gold.Chemscore.Metal.Weighted>
-0.0000

> <Gold.Chemscore.Lipo.Weighted>
-12.4266

> <Gold.Chemscore.Internal_Hbond.Weighted>
0.0000

> <Gold.Chemscore.DEClash.Weighted>
0.0281

> <Gold.Chemscore.DEInternal.Weighted>
0.8005

> <Gold.Chemscore.Rot.Weighted>
4.6703

> <Gold.Chemscore.Internal.Correction.Weighted>
   9.000000E+99

> <Gold.Protein.RotatedTorsions>
[ 6907 6896 6895 6894 ] final -121.60 input  -60.11 | X-H torsion
[ 7974 7965 7964 7962 ] final -167.16 input  175.53 | X-H torsion
[ 8008 7997 7996 7995 ] final  -50.52 input   59.86 | X-H torsion
[ 10167 10162 10161 10158 ] final  -64.59 input  -65.29 | X-H torsion
[ 10718 10713 10712 10709 ] final   40.22 input   66.30 | X-H torsion
[ 10763 10752 10751 10750 ] final  -86.06 input  -60.55 | X-H torsion
[ 11005 11000 10999 10996 ] final   68.73 input  -57.11 | X-H torsion

> <Gold.Protein.ActiveResidues>
 VAL166  LYS551  ARG553  GLY616  TRP617  ASP618  TYR619  PRO620  LYS621  CYS622 
 ASP623  PHE694  ASN695  SER759  ASP760  ASP761  ALA762  ILE779  LEU786  VAL792 
 PHE793  MET794  SER795  GLU796  ALA797  LYS798  CYS799  TRP800  GLU811  SER814 

> <Gold.Protein.RotatedAtoms>
  150.8499  133.7804  159.3029 H   0  0  0  0  0  0  0  0  0  0  0  0  # atno 6907 bound_to 6896
  151.5479  135.1066  159.9952 H   0  0  0  0  0  0  0  0  0  0  0  0  # atno 6908 bound_to 6896
  152.4544  133.7650  159.6823 H   0  0  0  0  0  0  0  0  0  0  0  0  # atno 6909 bound_to 6896
  144.7229  140.2560  143.6272 H   0  0  0  0  0  0  0  0  0  0  0  0  # atno 7974 bound_to 7965
  154.4064  140.1270  156.4679 H   0  0  0  0  0  0  0  0  0  0  0  0  # atno 8008 bound_to 7997
  155.7208  140.3492  155.4995 H   0  0  0  0  0  0  0  0  0  0  0  0  # atno 8009 bound_to 7997
  155.9216  140.1053  157.1193 H   0  0  0  0  0  0  0  0  0  0  0  0  # atno 8010 bound_to 7997
  140.5790  143.2325  151.6381 H   0  0  0  0  0  0  0  0  0  0  0  0  # atno 10167 bound_to 10162
  157.3796  130.7746  149.7183 H   0  0  0  0  0  0  0  0  0  0  0  0  # atno 10718 bound_to 10713
  154.6182  135.5463  153.7546 H   0  0  0  0  0  0  0  0  0  0  0  0  # atno 10763 bound_to 10752
  153.0226  135.6406  154.1479 H   0  0  0  0  0  0  0  0  0  0  0  0  # atno 10764 bound_to 10752
  154.1415  135.2908  155.3139 H   0  0  0  0  0  0  0  0  0  0  0  0  # atno 10765 bound_to 10752
  139.9695  134.6925  156.0477 H   0  0  0  0  0  0  0  0  0  0  0  0  # atno 11005 bound_to 11000
  145.8182  139.2032  143.1953 LP  0  0  0  0  0  0  0  0  0  0  0  0  # atno 17320 bound_to 7965
  146.0537  140.8043  142.9769 LP  0  0  0  0  0  0  0  0  0  0  0  0  # atno 17321 bound_to 7965
  139.5159  144.3364  152.0780 LP  0  0  0  0  0  0  0  0  0  0  0  0  # atno 17342 bound_to 10162
  140.2511  144.4168  150.6221 LP  0  0  0  0  0  0  0  0  0  0  0  0  # atno 17343 bound_to 10162
  155.9773  130.4065  150.3722 LP  0  0  0  0  0  0  0  0  0  0  0  0  # atno 17370 bound_to 10713
  157.1824  131.0395  151.2741 LP  0  0  0  0  0  0  0  0  0  0  0  0  # atno 17371 bound_to 10713
  141.1374  133.6572  156.3633 LP  0  0  0  0  0  0  0  0  0  0  0  0  # atno 17394 bound_to 11000
  140.5325  134.6199  157.5354 LP  0  0  0  0  0  0  0  0  0  0  0  0  # atno 17395 bound_to 11000

$$$$
