AV-unprocessed.smi:2205|AV-procd|sdf|8941|dock9
  -GOLD-   2272012163D 1   1.00000     0.00000
 Structure written by MMmdl.
 36 37  0  0  0  0  0  0  0  0  1 V2000
  150.3988  134.5653  155.8316 C   0  0  0  0  0  0  0  0  0  0  0  0
  151.1113  135.7429  155.4976 O   0  0  0  0  0  0  0  0  0  0  0  0
  150.2926  136.9008  155.5244 C   0  0  0  0  0  0  0  0  0  0  0  0
  151.1070  138.1146  155.0485 C   0  0  0  0  0  0  0  0  0  0  0  0
  150.2777  139.3253  154.9577 N   0  0  0  0  0  0  0  0  0  0  0  0
  150.7179  140.4564  155.6732 C   0  0  0  0  0  0  0  0  0  0  0  0
  150.0457  141.6285  155.6625 C   0  0  0  0  0  0  0  0  0  0  0  0
  150.4263  142.7966  156.3411 N   0  0  0  0  0  0  0  0  0  0  0  0
  151.0787  142.9390  157.5121 C   0  0  0  0  0  0  0  0  0  0  0  0
  151.4636  142.0156  158.2296 O   0  0  0  0  0  0  0  0  0  0  0  0
  151.3312  144.3921  157.9426 C   0  0  0  0  0  0  0  0  0  0  0  0
  152.7294  144.6503  158.5283 C   0  0  0  0  0  0  0  0  0  0  0  0
  152.1172  144.7864  159.9259 C   0  0  0  0  0  0  0  0  0  0  0  0
  150.7187  144.7742  159.3006 C   0  0  0  0  0  0  0  0  0  0  0  0
  148.8349  141.6784  154.8713 C   0  0  0  0  0  0  0  0  0  0  0  0
  148.4091  140.6056  154.1773 C   0  0  0  0  0  0  0  0  0  0  0  0
  149.1472  139.3408  154.1910 C   0  0  0  0  0  0  0  0  0  0  0  0
  148.7724  138.3583  153.5505 O   0  0  0  0  0  0  0  0  0  0  0  0
  151.0749  133.7109  155.8116 H   0  0  0  0  0  0  0  0  0  0  0  0
  149.5959  134.3756  155.1179 H   0  0  0  0  0  0  0  0  0  0  0  0
  149.9700  134.6326  156.8322 H   0  0  0  0  0  0  0  0  0  0  0  0
  149.4095  136.7614  154.8988 H   0  0  0  0  0  0  0  0  0  0  0  0
  149.9427  137.0729  156.5432 H   0  0  0  0  0  0  0  0  0  0  0  0
  151.9429  138.2830  155.7294 H   0  0  0  0  0  0  0  0  0  0  0  0
  151.5718  137.8918  154.0869 H   0  0  0  0  0  0  0  0  0  0  0  0
  151.6383  140.2859  156.2081 H   0  0  0  0  0  0  0  0  0  0  0  0
  150.1678  143.6545  155.8762 H   0  0  0  0  0  0  0  0  0  0  0  0
  151.0738  145.1086  157.1608 H   0  0  0  0  0  0  0  0  0  0  0  0
  153.4318  143.8201  158.4398 H   0  0  0  0  0  0  0  0  0  0  0  0
  153.1712  145.5787  158.1644 H   0  0  0  0  0  0  0  0  0  0  0  0
  152.3061  143.9158  160.5552 H   0  0  0  0  0  0  0  0  0  0  0  0
  152.3705  145.7162  160.4359 H   0  0  0  0  0  0  0  0  0  0  0  0
  150.2502  145.7588  159.2861 H   0  0  0  0  0  0  0  0  0  0  0  0
  150.0521  144.0288  159.7374 H   0  0  0  0  0  0  0  0  0  0  0  0
  148.2585  142.5915  154.8319 H   0  0  0  0  0  0  0  0  0  0  0  0
  147.5017  140.6777  153.5958 H   0  0  0  0  0  0  0  0  0  0  0  0
  1  2  1  0  0  0  0
  1 19  1  0  0  0  0
  1 20  1  0  0  0  0
  1 21  1  0  0  0  0
  2  3  1  0  0  0  0
  3  4  1  0  0  0  0
  3 22  1  0  0  0  0
  3 23  1  0  0  0  0
  4  5  1  0  0  0  0
  4 24  1  0  0  0  0
  4 25  1  0  0  0  0
  5 17  1  0  0  0  0
  5  6  1  0  0  0  0
  6  7  2  0  0  0  0
  6 26  1  0  0  0  0
  7  8  1  0  0  0  0
  7 15  1  0  0  0  0
  8  9  1  0  0  0  0
  8 27  1  0  0  0  0
  9 10  2  0  0  0  0
  9 11  1  0  0  0  0
 11 14  1  0  0  0  0
 11 12  1  0  0  0  0
 11 28  1  0  0  0  0
 12 13  1  0  0  0  0
 12 29  1  0  0  0  0
 12 30  1  0  0  0  0
 13 14  1  0  0  0  0
 13 31  1  0  0  0  0
 13 32  1  0  0  0  0
 14 33  1  0  0  0  0
 14 34  1  0  0  0  0
 15 16  2  0  0  0  0
 15 35  1  0  0  0  0
 16 17  1  0  0  0  0
 16 36  1  0  0  0  0
 17 18  2  0  0  0  0
M  END
> <s_m_source_file>
AV-unprocessed.smi

> <i_m_source_file_index>
2205

> <i_lp_mmshare_version>
43012

> <i_f3d_flags>
0

> <s_epik_input>
W0NIM11PW0NIMl1bQ0gyXW4xW2NIXWMoW2NIXVtjSF1jMT1PKVtOSF1DKD1PKVtDSF0yW0NIMl1bQ0gyXVtDSDJdMg==

> <s_epik_cmdline>
J2VwaWtfcHl0aG9uJywgJy1waCcsICc3LjAnLCAnLXRuJywgJzgnLCAnLW1hJywgJzIwMCcsICctbWV0YWxfYmluZGluZycsICctaW1hZScsICc8aW5maWxlLm1hZT4nLCAnLW9tYWUnLCAnPG91dGZpbGUubWFlPic=

> <r_lp_tautomer_probability>
1

> <r_epik_Ionization_Penalty>
2.40107e-06

> <r_epik_Ionization_Penalty_Charging>
2.27812e-06

> <r_epik_Ionization_Penalty_Neutral>
1.2295e-07

> <r_epik_State_Penalty>
-0

> <r_epik_Charging_Adjusted_Penalty>
2.27812e-06

> <i_epik_Tot_Q>
0

> <i_epik_Tot_abs_Q>
0

> <r_epik_Metal_State_Penalty>
-0

> <b_epik_Metal_Only>
0

> <s_lp_Force_Field>
OPLS_2005

> <r_lp_Energy>
28.3384

> <b_lp_Chiralities_Consistent>
1

> <s_lp_Variant>
AV-unprocessed.smi:2205-1

> <Gold.Version>
5.8.1

> <Gold.Id.Protein>
6NUR|6NUR_protein|mol2

> <Gold.PLP.Fitness>
44.2940

> <Gold.PLP.PLP>
-38.9731

> <Gold.PLP.part.hbond>
-2.0000

> <Gold.PLP.part.metal>
0.0000

> <Gold.PLP.part.buried>
-4.3976

> <Gold.PLP.part.nonpolar>
-36.6694

> <Gold.PLP.part.repulsive>
3.9484

> <Gold.PLP.ligand.clash>
0.0000

> <Gold.PLP.ligand.torsion>
0.4858

> <Gold.PLP.Chemscore.Hbond>
1.9760

> <Gold.PLP.Chemscore.CHOScore>
0.0000

> <Gold.PLP.Chemscore.Metal>
0.0000

> <Gold.Chemscore.Hbonds>
donor molecule, donor type, donor heavy atom, donor atom, acceptor molecule, acceptor atom, score
      L1  H     8    27       P1  8028  0.86
      P1  H 10752 10764       L1     2  1.00

> <Gold.PLP.Chemscore.Internal.Correction>
0.3646

> <Gold.Rescore>
     Score         DG    S(hbond)    S(metal)    S(lipo)     H(rot)  DE(clash)    DE(int)     intcor
     17.07     -18.62       1.93        0.00      91.31       1.56       1.00       0.55       ----

> <Gold.Chemscore.Fitness>
17.0717

> <Gold.Chemscore.DG>
-18.6158

> <Gold.Chemscore.ZeroCoef>
-5.4800

> <Gold.Chemscore.Hbond>
1.9293

> <Gold.Chemscore.Metal>
0.0000

> <Gold.Chemscore.Lipo>
91.3147

> <Gold.Chemscore.Internal_Hbond>
0.0000

> <Gold.Chemscore.DEClash>
0.9967

> <Gold.Chemscore.DEInternal>
0.5474

> <Gold.Chemscore.Rot>
1.5594

> <Gold.Chemscore.Internal.Correction>
   9.000000E+99

> <Gold.Chemscore.Hbonds>
donor molecule, donor type, donor heavy atom, donor atom, acceptor molecule, acceptor atom, score
      L1  H     8    27       P1  8028  0.86
      P1  H 10752 10764       L1     2  0.91

> <Gold.Chemscore.Hbond.Weighted>
-6.4440

> <Gold.Chemscore.Metal.Weighted>
-0.0000

> <Gold.Chemscore.Lipo.Weighted>
-10.6838

> <Gold.Chemscore.Internal_Hbond.Weighted>
0.0000

> <Gold.Chemscore.DEClash.Weighted>
0.9967

> <Gold.Chemscore.DEInternal.Weighted>
0.5474

> <Gold.Chemscore.Rot.Weighted>
3.9920

> <Gold.Chemscore.Internal.Correction.Weighted>
   9.000000E+99

> <Gold.Protein.RotatedTorsions>
[ 6907 6896 6895 6894 ] final   32.64 input  -60.11 | X-H torsion
[ 7974 7965 7964 7962 ] final   48.91 input  175.53 | X-H torsion
[ 8008 7997 7996 7995 ] final  176.36 input   59.86 | X-H torsion
[ 10167 10162 10161 10158 ] final -123.31 input  -65.29 | X-H torsion
[ 10718 10713 10712 10709 ] final  146.92 input   66.30 | X-H torsion
[ 10763 10752 10751 10750 ] final  -53.36 input  -60.55 | X-H torsion
[ 11005 11000 10999 10996 ] final   19.04 input  -57.11 | X-H torsion

> <Gold.Protein.ActiveResidues>
 VAL166  LYS551  ARG553  GLY616  TRP617  ASP618  TYR619  PRO620  LYS621  CYS622 
 ASP623  PHE694  ASN695  SER759  ASP760  ASP761  ALA762  ILE779  LEU786  VAL792 
 PHE793  MET794  SER795  GLU796  ALA797  LYS798  CYS799  TRP800  GLU811  SER814 

> <Gold.Protein.RotatedAtoms>
  152.0773  134.9494  160.0573 H   0  0  0  0  0  0  0  0  0  0  0  0  # atno 6907 bound_to 6896
  152.0797  133.4142  159.4504 H   0  0  0  0  0  0  0  0  0  0  0  0  # atno 6908 bound_to 6896
  150.6836  134.2916  159.4712 H   0  0  0  0  0  0  0  0  0  0  0  0  # atno 6909 bound_to 6896
  146.0159  139.4596  142.9927 H   0  0  0  0  0  0  0  0  0  0  0  0  # atno 7974 bound_to 7965
  156.0773  140.1385  156.9756 H   0  0  0  0  0  0  0  0  0  0  0  0  # atno 8008 bound_to 7997
  154.4565  140.0959  156.6821 H   0  0  0  0  0  0  0  0  0  0  0  0  # atno 8009 bound_to 7997
  155.5133  140.3454  155.4395 H   0  0  0  0  0  0  0  0  0  0  0  0  # atno 8010 bound_to 7997
  140.0049  143.5502  152.2288 H   0  0  0  0  0  0  0  0  0  0  0  0  # atno 10167 bound_to 10162
  157.3273  131.0914  151.1192 H   0  0  0  0  0  0  0  0  0  0  0  0  # atno 10718 bound_to 10713
  154.1575  135.6480  153.4978 H   0  0  0  0  0  0  0  0  0  0  0  0  # atno 10763 bound_to 10752
  153.0120  135.5353  154.6745 H   0  0  0  0  0  0  0  0  0  0  0  0  # atno 10764 bound_to 10752
  154.6049  135.2947  155.0467 H   0  0  0  0  0  0  0  0  0  0  0  0  # atno 10765 bound_to 10752
  140.4181  134.1547  155.7671 H   0  0  0  0  0  0  0  0  0  0  0  0  # atno 11005 bound_to 11000
  145.7269  141.0056  143.1372 LP  0  0  0  0  0  0  0  0  0  0  0  0  # atno 17320 bound_to 7965
  144.6971  139.8938  143.7454 LP  0  0  0  0  0  0  0  0  0  0  0  0  # atno 17321 bound_to 7965
  139.6245  144.7635  151.2667 LP  0  0  0  0  0  0  0  0  0  0  0  0  # atno 17342 bound_to 10162
  140.7404  143.6588  150.8183 LP  0  0  0  0  0  0  0  0  0  0  0  0  # atno 17343 bound_to 10162
  157.2454  130.6589  149.5908 LP  0  0  0  0  0  0  0  0  0  0  0  0  # atno 17370 bound_to 10713
  155.9692  130.4555  150.5891 LP  0  0  0  0  0  0  0  0  0  0  0  0  # atno 17371 bound_to 10713
  141.1795  133.8444  157.1308 LP  0  0  0  0  0  0  0  0  0  0  0  0  # atno 17394 bound_to 11000
  140.0219  134.9942  157.0609 LP  0  0  0  0  0  0  0  0  0  0  0  0  # atno 17395 bound_to 11000

$$$$
