AV-unprocessed.smi:1768|AV-procd|sdf|7148|dock5
  -GOLD-   22720 8383D 1   1.00000     0.00000
 Structure written by MMmdl.
 32 33  0  0  0  0  0  0  0  0  2 V2000
  143.8226  143.8844  162.7001 C   0  0  0  0  0  0  0  0  0  0  0  0
  144.8804  143.6006  161.6895 C   0  0  0  0  0  0  0  0  0  0  0  0
  145.1880  142.3626  161.2948 N   0  0  0  0  0  0  0  0  0  0  0  0
  146.2038  142.3531  160.3498 N   0  0  0  0  0  0  0  0  0  0  0  0
  146.6578  143.5790  160.0529 C   0  0  0  0  0  0  0  0  0  0  0  0
  147.6390  143.7864  159.1592 N   0  5  0  0  0  0  0  0  0  0  0  0
  148.9112  143.9679  159.5813 C   0  0  0  0  0  0  0  0  0  0  0  0
  149.2778  144.1244  160.7482 O   0  0  0  0  0  0  0  0  0  0  0  0
  149.8138  143.9660  158.5895 N   0  0  0  0  0  0  0  0  0  0  0  0
  151.2572  144.1434  158.7337 C   0  0  1  0  0  0  0  0  0  0  0  0
  151.5604  145.5871  159.1733 C   0  0  0  0  0  0  0  0  0  0  0  0
  151.7938  143.1053  159.7377 C   0  0  2  0  0  0  0  0  0  0  0  0
  151.9520  143.6188  161.1704 C   0  0  0  0  0  0  0  0  0  0  0  0
  153.0440  142.7356  161.7553 C   0  0  0  0  0  0  0  0  0  0  0  0
  153.6583  142.0436  160.5362 C   0  0  0  0  0  0  0  0  0  0  0  0
  153.1257  142.7337  159.4154 O   0  0  0  0  0  0  0  0  0  0  0  0
  145.8259  144.8666  160.9248 S   0  0  0  0  0  0  0  0  0  0  0  0
  144.2002  143.6770  163.7014 H   0  0  0  0  0  0  0  0  0  0  0  0
  142.9476  143.2602  162.5170 H   0  0  0  0  0  0  0  0  0  0  0  0
  143.5204  144.9305  162.6492 H   0  0  0  0  0  0  0  0  0  0  0  0
  149.4654  143.8395  157.6508 H   0  0  0  0  0  0  0  0  0  0  0  0
  151.7356  143.9633  157.7692 H   0  0  0  0  0  0  0  0  0  0  0  0
  152.6334  145.7620  159.2505 H   0  0  0  0  0  0  0  0  0  0  0  0
  151.1157  145.8070  160.1444 H   0  0  0  0  0  0  0  0  0  0  0  0
  151.1676  146.3096  158.4575 H   0  0  0  0  0  0  0  0  0  0  0  0
  151.1680  142.2103  159.7326 H   0  0  0  0  0  0  0  0  0  0  0  0
  152.2883  144.6564  161.1639 H   0  0  0  0  0  0  0  0  0  0  0  0
  151.0220  143.5710  161.7375 H   0  0  0  0  0  0  0  0  0  0  0  0
  153.7808  143.3351  162.2907 H   0  0  0  0  0  0  0  0  0  0  0  0
  152.6381  142.0013  162.4519 H   0  0  0  0  0  0  0  0  0  0  0  0
  154.7479  142.0785  160.5384 H   0  0  0  0  0  0  0  0  0  0  0  0
  153.3506  140.9981  160.4924 H   0  0  0  0  0  0  0  0  0  0  0  0
  1  2  1  0  0  0  0
  1 18  1  0  0  0  0
  1 19  1  0  0  0  0
  1 20  1  0  0  0  0
  2 17  1  0  0  0  0
  2  3  2  0  0  0  0
  3  4  1  0  0  0  0
  4  5  2  0  0  0  0
  5  6  1  0  0  0  0
  5 17  1  0  0  0  0
  6  7  1  0  0  0  0
  7  8  2  0  0  0  0
  7  9  1  0  0  0  0
  9 10  1  0  0  0  0
  9 21  1  0  0  0  0
 10 11  1  0  0  0  0
 10 12  1  0  0  0  0
 10 22  1  0  0  0  0
 11 23  1  0  0  0  0
 11 24  1  0  0  0  0
 11 25  1  0  0  0  0
 12 16  1  0  0  0  0
 12 13  1  0  0  0  0
 12 26  1  0  0  0  0
 13 14  1  0  0  0  0
 13 27  1  0  0  0  0
 13 28  1  0  0  0  0
 14 15  1  0  0  0  0
 14 29  1  0  0  0  0
 14 30  1  0  0  0  0
 15 16  1  0  0  0  0
 15 31  1  0  0  0  0
 15 32  1  0  0  0  0
M  CHG  1   6  -1
M  END
> <s_m_source_file>
AV-unprocessed.smi

> <i_m_source_file_index>
1768

> <i_lp_mmshare_version>
43012

> <i_f3d_flags>
0

> <s_epik_input>
W0NIM11jMW5uYyhzMSlbTkhdQyg9TylbTkhdW0NASF0oW0NIM10pW0NAQEhdMltDSDJdW0NIMl1bQ0gyXU8y

> <s_epik_cmdline>
J2VwaWtfcHl0aG9uJywgJy1waCcsICc3LjAnLCAnLXRuJywgJzgnLCAnLW1hJywgJzIwMCcsICctbWV0YWxfYmluZGluZycsICctaW1hZScsICc8aW5maWxlLm1hZT4nLCAnLW9tYWUnLCAnPG91dGZpbGUubWFlPic=

> <r_lp_tautomer_probability>
1

> <r_epik_Ionization_Penalty>
4.3376

> <r_epik_Ionization_Penalty_Charging>
4.19392

> <r_epik_Ionization_Penalty_Neutral>
0.143681

> <r_epik_State_Penalty>
4.19342

> <r_epik_Charging_Adjusted_Penalty>
8.38735

> <i_epik_Tot_Q>
-1

> <i_epik_Tot_abs_Q>
1

> <r_epik_Metal_State_Penalty>
0.686065

> <b_epik_Metal_Only>
1

> <s_lp_Force_Field>
OPLS_2005

> <r_lp_Energy>
16.4206

> <b_lp_Chiralities_Consistent>
1

> <s_lp_Variant>
AV-unprocessed.smi:1768-6

> <Gold.Version>
5.8.1

> <Gold.Id.Protein>
6NUR|6NUR_protein|mol2

> <Gold.PLP.Fitness>
40.3648

> <Gold.PLP.PLP>
-38.0687

> <Gold.PLP.part.hbond>
-4.2821

> <Gold.PLP.part.metal>
0.0000

> <Gold.PLP.part.buried>
-4.2383

> <Gold.PLP.part.nonpolar>
-31.5262

> <Gold.PLP.part.repulsive>
2.0176

> <Gold.PLP.ligand.clash>
0.0000

> <Gold.PLP.ligand.torsion>
1.6700

> <Gold.PLP.Chemscore.Hbond>
1.8664

> <Gold.PLP.Chemscore.CHOScore>
0.0000

> <Gold.PLP.Chemscore.Metal>
0.0000

> <Gold.Chemscore.Hbonds>
donor molecule, donor type, donor heavy atom, donor atom, acceptor molecule, acceptor atom, score
      L1  H     9    21       P1  8028  0.48
      P1  H  6933  6944       L1     8  0.42
      P1  H  6934  6946       L1     4  0.95

> <Gold.PLP.Chemscore.Internal.Correction>
0.0369

> <Gold.Rescore>
     Score         DG    S(hbond)    S(metal)    S(lipo)     H(rot)  DE(clash)    DE(int)     intcor
     12.35     -16.98       1.56        0.00      81.62       1.28       0.13       4.49       ----

> <Gold.Chemscore.Fitness>
12.3514

> <Gold.Chemscore.DG>
-16.9751

> <Gold.Chemscore.ZeroCoef>
-5.4800

> <Gold.Chemscore.Hbond>
1.5618

> <Gold.Chemscore.Metal>
0.0000

> <Gold.Chemscore.Lipo>
81.6175

> <Gold.Chemscore.Internal_Hbond>
0.0000

> <Gold.Chemscore.DEClash>
0.1337

> <Gold.Chemscore.DEInternal>
4.4900

> <Gold.Chemscore.Rot>
1.2776

> <Gold.Chemscore.Internal.Correction>
   9.000000E+99

> <Gold.Chemscore.Hbonds>
donor molecule, donor type, donor heavy atom, donor atom, acceptor molecule, acceptor atom, score
      L1  H     9    21       P1  8028  0.14
      P1  H  6933  6944       L1     8  0.07
      P1  H  6934  6946       L1     4  0.22

> <Gold.Chemscore.Hbond.Weighted>
-5.2165

> <Gold.Chemscore.Metal.Weighted>
-0.0000

> <Gold.Chemscore.Lipo.Weighted>
-9.5492

> <Gold.Chemscore.Internal_Hbond.Weighted>
0.0000

> <Gold.Chemscore.DEClash.Weighted>
0.1337

> <Gold.Chemscore.DEInternal.Weighted>
4.4900

> <Gold.Chemscore.Rot.Weighted>
3.2706

> <Gold.Chemscore.Internal.Correction.Weighted>
   9.000000E+99

> <Gold.Protein.RotatedTorsions>
[ 6907 6896 6895 6894 ] final  175.20 input  -60.11 | X-H torsion
[ 7974 7965 7964 7962 ] final -156.52 input  175.53 | X-H torsion
[ 8008 7997 7996 7995 ] final  -60.91 input   59.86 | X-H torsion
[ 10167 10162 10161 10158 ] final  -38.42 input  -65.29 | X-H torsion
[ 10718 10713 10712 10709 ] final    4.56 input   66.30 | X-H torsion
[ 10763 10752 10751 10750 ] final  163.63 input  -60.55 | X-H torsion
[ 11005 11000 10999 10996 ] final  -38.22 input  -57.11 | X-H torsion

> <Gold.Protein.ActiveResidues>
 VAL166  LYS551  ARG553  GLY616  TRP617  ASP618  TYR619  PRO620  LYS621  CYS622 
 ASP623  PHE694  ASN695  SER759  ASP760  ASP761  ALA762  ILE779  LEU786  VAL792 
 PHE793  MET794  SER795  GLU796  ALA797  LYS798  CYS799  TRP800  GLU811  SER814 

> <Gold.Protein.RotatedAtoms>
  151.7400  133.3321  159.3362 H   0  0  0  0  0  0  0  0  0  0  0  0  # atno 6907 bound_to 6896
  150.7577  134.6286  159.6184 H   0  0  0  0  0  0  0  0  0  0  0  0  # atno 6908 bound_to 6896
  152.3536  134.6973  160.0280 H   0  0  0  0  0  0  0  0  0  0  0  0  # atno 6909 bound_to 6896
  144.7589  140.4097  143.5991 H   0  0  0  0  0  0  0  0  0  0  0  0  # atno 7974 bound_to 7965
  154.4421  140.1029  156.6347 H   0  0  0  0  0  0  0  0  0  0  0  0  # atno 8008 bound_to 7997
  155.5566  140.3486  155.4462 H   0  0  0  0  0  0  0  0  0  0  0  0  # atno 8009 bound_to 7997
  156.0490  140.1299  157.0060 H   0  0  0  0  0  0  0  0  0  0  0  0  # atno 8010 bound_to 7997
  140.7092  143.3278  151.2638 H   0  0  0  0  0  0  0  0  0  0  0  0  # atno 10167 bound_to 10162
  156.8944  130.5699  149.5649 H   0  0  0  0  0  0  0  0  0  0  0  0  # atno 10718 bound_to 10713
  154.2966  135.2760  155.2630 H   0  0  0  0  0  0  0  0  0  0  0  0  # atno 10763 bound_to 10752
  154.5085  135.5789  153.6590 H   0  0  0  0  0  0  0  0  0  0  0  0  # atno 10764 bound_to 10752
  152.9906  135.6175  154.3134 H   0  0  0  0  0  0  0  0  0  0  0  0  # atno 10765 bound_to 10752
  141.0011  133.6955  156.2024 H   0  0  0  0  0  0  0  0  0  0  0  0  # atno 11005 bound_to 11000
  145.6685  139.1594  143.2768 LP  0  0  0  0  0  0  0  0  0  0  0  0  # atno 17320 bound_to 7965
  146.1631  140.6759  142.9268 LP  0  0  0  0  0  0  0  0  0  0  0  0  # atno 17321 bound_to 7965
  139.6752  143.9950  152.2776 LP  0  0  0  0  0  0  0  0  0  0  0  0  # atno 17342 bound_to 10162
  139.9562  144.6588  150.8123 LP  0  0  0  0  0  0  0  0  0  0  0  0  # atno 17343 bound_to 10162
  156.0613  130.5665  150.9198 LP  0  0  0  0  0  0  0  0  0  0  0  0  # atno 17370 bound_to 10713
  157.6064  131.0939  150.8871 LP  0  0  0  0  0  0  0  0  0  0  0  0  # atno 17371 bound_to 10713
  140.6888  134.4688  157.5589 LP  0  0  0  0  0  0  0  0  0  0  0  0  # atno 17394 bound_to 11000
  139.9039  134.8493  156.1783 LP  0  0  0  0  0  0  0  0  0  0  0  0  # atno 17395 bound_to 11000

$$$$
