AV-unprocessed.smi:740|AV-procd|sdf|3553|dock6
  -GOLD-   22720 0553D 1   1.00000     0.00000
 Structure written by MMmdl.
 45 47  0  0  0  0  0  0  0  0  2 V2000
  152.0597  145.6785  160.2131 C   0  0  0  0  0  0  0  0  0  0  0  0
  151.7823  144.2998  159.6388 C   0  0  0  0  0  0  0  0  0  0  0  0
  151.1131  144.2086  158.3977 C   0  0  0  0  0  0  0  0  0  0  0  0
  150.8742  142.9340  157.8978 C   0  0  0  0  0  0  0  0  0  0  0  0
  150.2516  142.5166  156.7196 N   0  3  0  0  0  0  0  0  0  0  0  0
  150.2552  141.1564  156.6612 C   0  0  0  0  0  0  0  0  0  0  0  0
  150.8677  140.6984  157.7865 N   0  0  0  0  0  0  0  0  0  0  0  0
  151.1294  139.3156  158.2100 C   0  0  0  0  0  0  0  0  0  0  0  0
  149.8362  138.5114  158.4470 C   0  0  1  0  0  0  0  0  0  0  0  0
  149.2490  138.2097  157.1960 O   0  0  0  0  0  0  0  0  0  0  0  0
  150.1178  137.1919  159.1940 C   0  0  0  0  0  0  0  0  0  0  0  0
  148.9509  136.3020  159.1994 N   0  0  0  0  0  0  0  0  0  0  0  0
  147.8384  136.5273  159.9115 C   0  0  0  0  0  0  0  0  0  0  0  0
  147.6304  137.4878  160.6525 O   0  0  0  0  0  0  0  0  0  0  0  0
  146.8131  135.4249  159.6865 C   0  0  0  0  0  0  0  0  0  0  0  0
  147.5167  134.4856  158.6952 C   0  0  2  0  0  0  0  0  0  0  0  0
  147.6820  133.0480  159.2149 C   0  0  0  0  0  0  0  0  0  0  0  0
  148.8644  135.1725  158.4828 C   0  0  0  0  0  0  0  0  0  0  0  0
  149.7333  134.7171  157.7387 O   0  0  0  0  0  0  0  0  0  0  0  0
  151.2732  141.7726  158.5879 C   0  0  0  0  0  0  0  0  0  0  0  0
  151.9350  141.8455  159.8118 C   0  0  0  0  0  0  0  0  0  0  0  0
  152.1902  143.1329  160.3356 C   0  0  0  0  0  0  0  0  0  0  0  0
  152.9165  143.2424  161.6656 C   0  0  0  0  0  0  0  0  0  0  0  0
  151.6565  146.4651  159.5747 H   0  0  0  0  0  0  0  0  0  0  0  0
  153.1330  145.8440  160.3087 H   0  0  0  0  0  0  0  0  0  0  0  0
  151.6031  145.7832  161.1976 H   0  0  0  0  0  0  0  0  0  0  0  0
  150.8028  145.0923  157.8596 H   0  0  0  0  0  0  0  0  0  0  0  0
  149.8474  140.5498  155.8653 H   0  0  0  0  0  0  0  0  0  0  0  0
  151.7777  138.8266  157.4825 H   0  0  0  0  0  0  0  0  0  0  0  0
  151.7020  139.3738  159.1364 H   0  0  0  0  0  0  0  0  0  0  0  0
  149.1414  139.1284  159.0185 H   0  0  0  0  0  0  0  0  0  0  0  0
  148.3906  138.6033  157.1636 H   0  0  0  0  0  0  0  0  0  0  0  0
  150.9970  136.6946  158.7798 H   0  0  0  0  0  0  0  0  0  0  0  0
  150.3788  137.4103  160.2311 H   0  0  0  0  0  0  0  0  0  0  0  0
  146.5757  134.9349  160.6317 H   0  0  0  0  0  0  0  0  0  0  0  0
  145.8944  135.8388  159.2696 H   0  0  0  0  0  0  0  0  0  0  0  0
  146.9790  134.4747  157.7462 H   0  0  0  0  0  0  0  0  0  0  0  0
  148.1833  132.4171  158.4800 H   0  0  0  0  0  0  0  0  0  0  0  0
  146.7114  132.5980  159.4250 H   0  0  0  0  0  0  0  0  0  0  0  0
  148.2671  133.0185  160.1349 H   0  0  0  0  0  0  0  0  0  0  0  0
  152.2495  140.9593  160.3423 H   0  0  0  0  0  0  0  0  0  0  0  0
  153.1888  142.2605  162.0537 H   0  0  0  0  0  0  0  0  0  0  0  0
  152.2845  143.7304  162.4078 H   0  0  0  0  0  0  0  0  0  0  0  0
  153.8334  143.8216  161.5556 H   0  0  0  0  0  0  0  0  0  0  0  0
  149.8547  143.1139  156.0052 H   0  0  0  0  0  0  0  0  0  0  0  0
  1  2  1  0  0  0  0
  1 24  1  0  0  0  0
  1 25  1  0  0  0  0
  1 26  1  0  0  0  0
  2 22  1  0  0  0  0
  2  3  2  0  0  0  0
  3  4  1  0  0  0  0
  3 27  1  0  0  0  0
  4 20  2  0  0  0  0
  4  5  1  0  0  0  0
  5  6  2  0  0  0  0
  5 45  1  0  0  0  0
  6  7  1  0  0  0  0
  6 28  1  0  0  0  0
  7  8  1  0  0  0  0
  7 20  1  0  0  0  0
  8  9  1  0  0  0  0
  8 29  1  0  0  0  0
  8 30  1  0  0  0  0
  9 10  1  0  0  0  0
  9 11  1  0  0  0  0
  9 31  1  0  0  0  0
 10 32  1  0  0  0  0
 11 12  1  0  0  0  0
 11 33  1  0  0  0  0
 11 34  1  0  0  0  0
 12 18  1  0  0  0  0
 12 13  1  0  0  0  0
 13 14  2  0  0  0  0
 13 15  1  0  0  0  0
 15 16  1  0  0  0  0
 15 35  1  0  0  0  0
 15 36  1  0  0  0  0
 16 17  1  0  0  0  0
 16 18  1  0  0  0  0
 16 37  1  0  0  0  0
 17 38  1  0  0  0  0
 17 39  1  0  0  0  0
 17 40  1  0  0  0  0
 18 19  2  0  0  0  0
 20 21  1  0  0  0  0
 21 22  2  0  0  0  0
 21 41  1  0  0  0  0
 22 23  1  0  0  0  0
 23 42  1  0  0  0  0
 23 43  1  0  0  0  0
 23 44  1  0  0  0  0
M  CHG  1   5   1
M  END
> <s_m_source_file>
AV-unprocessed.smi

> <i_m_source_file_index>
740

> <i_lp_mmshare_version>
43012

> <i_f3d_flags>
0

> <s_epik_input>
W0NIM11jKFtjSF0xKWMoW0NIM10pW2NIXWMoYzEyKW4oW2NIXW4yKVtDSDJdW0NASF0oW09IXSlbQ0gyXU4zQyg9TylbQ0gyXVtDQEBIXShbQ0gzXSlDMz1P

> <s_epik_cmdline>
J2VwaWtfcHl0aG9uJywgJy1waCcsICc3LjAnLCAnLXRuJywgJzgnLCAnLW1hJywgJzIwMCcsICctbWV0YWxfYmluZGluZycsICctaW1hZScsICc8aW5maWxlLm1hZT4nLCAnLW9tYWUnLCAnPG91dGZpbGUubWFlPic=

> <r_lp_tautomer_probability>
1

> <r_epik_Ionization_Penalty>
1.08202

> <r_epik_Ionization_Penalty_Charging>
1.08202

> <r_epik_Ionization_Penalty_Neutral>
1.16605e-06

> <r_epik_State_Penalty>
1.13754

> <r_epik_Charging_Adjusted_Penalty>
2.21956

> <i_epik_Tot_Q>
1

> <i_epik_Tot_abs_Q>
1

> <r_epik_Metal_State_Penalty>
5.13645

> <b_epik_Metal_Only>
0

> <s_lp_Force_Field>
OPLS_2005

> <r_lp_Energy>
22.4261

> <b_lp_Chiralities_Consistent>
1

> <s_lp_Variant>
AV-unprocessed.smi:740-8

> <Gold.Version>
5.8.1

> <Gold.Id.Protein>
6NUR|6NUR_protein|mol2

> <Gold.PLP.Fitness>
51.3943

> <Gold.PLP.PLP>
-40.3736

> <Gold.PLP.part.hbond>
-3.9064

> <Gold.PLP.part.metal>
0.0000

> <Gold.PLP.part.buried>
-4.4231

> <Gold.PLP.part.nonpolar>
-32.7692

> <Gold.PLP.part.repulsive>
0.0506

> <Gold.PLP.ligand.clash>
0.0000

> <Gold.PLP.ligand.torsion>
0.2781

> <Gold.PLP.Chemscore.Hbond>
3.8512

> <Gold.PLP.Chemscore.CHOScore>
0.0000

> <Gold.PLP.Chemscore.Metal>
0.0000

> <Gold.Chemscore.Hbonds>
donor molecule, donor type, donor heavy atom, donor atom, acceptor molecule, acceptor atom, score
      L1  H     5    45       P1  8028  1.82
      P1  H  6896  6907       L1    19  0.53
      P1  H  6931  6943       L1    14  0.66
      P1  H  6934  6947       L1    14  0.91

> <Gold.PLP.Chemscore.Internal.Correction>
0.0234

> <Gold.Rescore>
     Score         DG    S(hbond)    S(metal)    S(lipo)     H(rot)  DE(clash)    DE(int)     intcor
     19.33     -19.70       2.62        0.00      98.72       2.37       0.01       0.35       ----

> <Gold.Chemscore.Fitness>
19.3302

> <Gold.Chemscore.DG>
-19.6955

> <Gold.Chemscore.ZeroCoef>
-5.4800

> <Gold.Chemscore.Hbond>
2.6165

> <Gold.Chemscore.Metal>
0.0000

> <Gold.Chemscore.Lipo>
98.7156

> <Gold.Chemscore.Internal_Hbond>
0.0000

> <Gold.Chemscore.DEClash>
0.0141

> <Gold.Chemscore.DEInternal>
0.3511

> <Gold.Chemscore.Rot>
2.3724

> <Gold.Chemscore.Internal.Correction>
   9.000000E+99

> <Gold.Chemscore.Hbonds>
donor molecule, donor type, donor heavy atom, donor atom, acceptor molecule, acceptor atom, score
      L1  H     5    45       P1  8028  0.89
      P1  H  6896  6907       L1    19  0.04
      P1  H  6931  6943       L1    14  0.62
      P1  H  6934  6947       L1    14  0.89

> <Gold.Chemscore.Hbond.Weighted>
-8.7391

> <Gold.Chemscore.Metal.Weighted>
-0.0000

> <Gold.Chemscore.Lipo.Weighted>
-11.5497

> <Gold.Chemscore.Internal_Hbond.Weighted>
0.0000

> <Gold.Chemscore.DEClash.Weighted>
0.0141

> <Gold.Chemscore.DEInternal.Weighted>
0.3511

> <Gold.Chemscore.Rot.Weighted>
6.0734

> <Gold.Chemscore.Internal.Correction.Weighted>
   9.000000E+99

> <Gold.Protein.RotatedTorsions>
[ 6907 6896 6895 6894 ] final -114.43 input  -60.11 | X-H torsion
[ 7974 7965 7964 7962 ] final -138.72 input  175.53 | X-H torsion
[ 8008 7997 7996 7995 ] final  151.69 input   59.86 | X-H torsion
[ 10167 10162 10161 10158 ] final  -30.42 input  -65.29 | X-H torsion
[ 10718 10713 10712 10709 ] final -102.56 input   66.30 | X-H torsion
[ 10763 10752 10751 10750 ] final  -72.47 input  -60.55 | X-H torsion
[ 11005 11000 10999 10996 ] final   26.69 input  -57.11 | X-H torsion

> <Gold.Protein.ActiveResidues>
 VAL166  LYS551  ARG553  GLY616  TRP617  ASP618  TYR619  PRO620  LYS621  CYS622 
 ASP623  PHE694  ASN695  SER759  ASP760  ASP761  ALA762  ILE779  LEU786  VAL792 
 PHE793  MET794  SER795  GLU796  ALA797  LYS798  CYS799  TRP800  GLU811  SER814 

> <Gold.Protein.RotatedAtoms>
  150.7902  133.8802  159.3283 H   0  0  0  0  0  0  0  0  0  0  0  0  # atno 6907 bound_to 6896
  151.6642  135.0983  160.0195 H   0  0  0  0  0  0  0  0  0  0  0  0  # atno 6908 bound_to 6896
  152.3974  133.6728  159.6323 H   0  0  0  0  0  0  0  0  0  0  0  0  # atno 6909 bound_to 6896
  144.8735  140.6403  143.5251 H   0  0  0  0  0  0  0  0  0  0  0  0  # atno 7974 bound_to 7965
  156.2662  140.2041  156.6216 H   0  0  0  0  0  0  0  0  0  0  0  0  # atno 8008 bound_to 7997
  154.6753  140.0546  157.0233 H   0  0  0  0  0  0  0  0  0  0  0  0  # atno 8009 bound_to 7997
  155.1079  140.3212  155.4532 H   0  0  0  0  0  0  0  0  0  0  0  0  # atno 8010 bound_to 7997
  140.7249  143.3850  151.1532 H   0  0  0  0  0  0  0  0  0  0  0  0  # atno 10167 bound_to 10162
  156.0233  130.5426  150.7126 H   0  0  0  0  0  0  0  0  0  0  0  0  # atno 10718 bound_to 10713
  154.4461  135.5929  153.6161 H   0  0  0  0  0  0  0  0  0  0  0  0  # atno 10763 bound_to 10752
  152.9809  135.6010  154.3662 H   0  0  0  0  0  0  0  0  0  0  0  0  # atno 10764 bound_to 10752
  154.3518  135.2841  155.2347 H   0  0  0  0  0  0  0  0  0  0  0  0  # atno 10765 bound_to 10752
  140.3343  134.2404  155.7698 H   0  0  0  0  0  0  0  0  0  0  0  0  # atno 11005 bound_to 11000
  145.4085  139.1584  143.4139 LP  0  0  0  0  0  0  0  0  0  0  0  0  # atno 17320 bound_to 7965
  146.2947  140.4187  142.8726 LP  0  0  0  0  0  0  0  0  0  0  0  0  # atno 17321 bound_to 7965
  139.7445  143.8873  152.3059 LP  0  0  0  0  0  0  0  0  0  0  0  0  # atno 17342 bound_to 10162
  139.8705  144.7070  150.8993 LP  0  0  0  0  0  0  0  0  0  0  0  0  # atno 17343 bound_to 10162
  157.4761  131.0898  151.0589 LP  0  0  0  0  0  0  0  0  0  0  0  0  # atno 17370 bound_to 10713
  157.1036  130.5992  149.5465 LP  0  0  0  0  0  0  0  0  0  0  0  0  # atno 17371 bound_to 10713
  141.2055  133.7857  157.0227 LP  0  0  0  0  0  0  0  0  0  0  0  0  # atno 17394 bound_to 11000
  140.0835  134.9634  157.1662 LP  0  0  0  0  0  0  0  0  0  0  0  0  # atno 17395 bound_to 11000

$$$$
