AV-unprocessed.smi:2315|AV-procd|sdf|9268|dock6
  -GOLD-   2272012493D 1   1.00000     0.00000
 Structure written by MMmdl.
 40 41  0  0  0  0  0  0  0  0  1 V2000
  144.6784  137.0169  152.3861 O   0  0  0  0  0  0  0  0  0  0  0  0
  145.8673  136.7846  152.1679 C   0  0  0  0  0  0  0  0  0  0  0  0
  146.8345  137.7039  152.3002 N   0  0  0  0  0  0  0  0  0  0  0  0
  146.6242  139.0913  152.6993 C   0  0  0  0  0  0  0  0  0  0  0  0
  147.2941  139.4000  154.0543 C   0  0  0  0  0  0  0  0  0  0  0  0
  148.7208  138.8379  154.1860 C   0  0  0  0  0  0  0  0  0  0  0  0
  148.8782  137.6169  154.2367 O   0  0  0  0  0  0  0  0  0  0  0  0
  149.7645  139.7019  154.2384 N   0  0  0  0  0  0  0  0  0  0  0  0
  151.1749  139.3285  154.4162 C   0  0  0  0  0  0  0  0  0  0  0  0
  151.6274  139.7560  155.8244 C   0  0  0  0  0  0  0  0  0  0  0  0
  151.3992  141.2643  156.0398 C   0  0  0  0  0  0  0  0  0  0  0  0
  149.9651  141.6821  155.6637 C   0  0  0  0  0  0  0  0  0  0  0  0
  149.5859  141.1599  154.2652 C   0  0  0  0  0  0  0  0  0  0  0  0
  146.3748  135.5984  151.7905 N   0  0  0  0  0  0  0  0  0  0  0  0
  145.6965  134.3752  151.5330 C   0  0  0  0  0  0  0  0  0  0  0  0
  144.3391  134.2824  151.1399 C   0  0  0  0  0  0  0  0  0  0  0  0
  143.7920  133.0061  150.8971 C   0  0  0  0  0  0  0  0  0  0  0  0
  144.4958  131.8602  151.0131 N   0  0  0  0  0  0  0  0  0  0  0  0
  145.7924  131.9528  151.3761 C   0  0  0  0  0  0  0  0  0  0  0  0
  146.4364  133.1782  151.6408 C   0  0  0  0  0  0  0  0  0  0  0  0
  147.7440  133.1998  151.9962 F   0  0  0  0  0  0  0  0  0  0  0  0
  147.7857  137.4267  152.1058 H   0  0  0  0  0  0  0  0  0  0  0  0
  147.0444  139.7255  151.9179 H   0  0  0  0  0  0  0  0  0  0  0  0
  145.5549  139.3084  152.7368 H   0  0  0  0  0  0  0  0  0  0  0  0
  147.3326  140.4808  154.1964 H   0  0  0  0  0  0  0  0  0  0  0  0
  146.6828  138.9874  154.8579 H   0  0  0  0  0  0  0  0  0  0  0  0
  151.3719  138.2680  154.2691 H   0  0  0  0  0  0  0  0  0  0  0  0
  151.7765  139.8391  153.6627 H   0  0  0  0  0  0  0  0  0  0  0  0
  151.0716  139.1900  156.5733 H   0  0  0  0  0  0  0  0  0  0  0  0
  152.6803  139.5138  155.9709 H   0  0  0  0  0  0  0  0  0  0  0  0
  151.6125  141.5348  157.0743 H   0  0  0  0  0  0  0  0  0  0  0  0
  152.1051  141.8225  155.4234 H   0  0  0  0  0  0  0  0  0  0  0  0
  149.2645  141.2868  156.4005 H   0  0  0  0  0  0  0  0  0  0  0  0
  149.8718  142.7679  155.6985 H   0  0  0  0  0  0  0  0  0  0  0  0
  150.2247  141.6163  153.5077 H   0  0  0  0  0  0  0  0  0  0  0  0
  148.5692  141.4683  154.0186 H   0  0  0  0  0  0  0  0  0  0  0  0
  147.3811  135.5496  151.7251 H   0  0  0  0  0  0  0  0  0  0  0  0
  143.7144  135.1518  151.0078 H   0  0  0  0  0  0  0  0  0  0  0  0
  142.7601  132.9042  150.5953 H   0  0  0  0  0  0  0  0  0  0  0  0
  146.3343  131.0223  151.4558 H   0  0  0  0  0  0  0  0  0  0  0  0
  1  2  2  0  0  0  0
  2  3  1  0  0  0  0
  2 14  1  0  0  0  0
  3  4  1  0  0  0  0
  3 22  1  0  0  0  0
  4  5  1  0  0  0  0
  4 23  1  0  0  0  0
  4 24  1  0  0  0  0
  5  6  1  0  0  0  0
  5 25  1  0  0  0  0
  5 26  1  0  0  0  0
  6  7  2  0  0  0  0
  6  8  1  0  0  0  0
  8 13  1  0  0  0  0
  8  9  1  0  0  0  0
  9 10  1  0  0  0  0
  9 27  1  0  0  0  0
  9 28  1  0  0  0  0
 10 11  1  0  0  0  0
 10 29  1  0  0  0  0
 10 30  1  0  0  0  0
 11 12  1  0  0  0  0
 11 31  1  0  0  0  0
 11 32  1  0  0  0  0
 12 13  1  0  0  0  0
 12 33  1  0  0  0  0
 12 34  1  0  0  0  0
 13 35  1  0  0  0  0
 13 36  1  0  0  0  0
 14 15  1  0  0  0  0
 14 37  1  0  0  0  0
 15 20  1  0  0  0  0
 15 16  2  0  0  0  0
 16 17  1  0  0  0  0
 16 38  1  0  0  0  0
 17 18  2  0  0  0  0
 17 39  1  0  0  0  0
 18 19  1  0  0  0  0
 19 20  2  0  0  0  0
 19 40  1  0  0  0  0
 20 21  1  0  0  0  0
M  END
> <s_m_source_file>
AV-unprocessed.smi

> <i_m_source_file_index>
2315

> <i_lp_mmshare_version>
43012

> <i_f3d_flags>
0

> <s_epik_input>
RmMxW2NIXW5bY0hdW2NIXWMxW05IXUMoPU8pW05IXVtDSDJdW0NIMl1DKD1PKU4yW0NIMl1bQ0gyXVtDSDJdW0NIMl1bQ0gyXTI=

> <s_epik_cmdline>
J2VwaWtfcHl0aG9uJywgJy1waCcsICc3LjAnLCAnLXRuJywgJzgnLCAnLW1hJywgJzIwMCcsICctbWV0YWxfYmluZGluZycsICctaW1hZScsICc8aW5maWxlLm1hZT4nLCAnLW9tYWUnLCAnPG91dGZpbGUubWFlPic=

> <r_epik_Ionization_Penalty>
0.00291221

> <r_epik_Ionization_Penalty_Charging>
0

> <r_epik_Ionization_Penalty_Neutral>
0.00291221

> <r_epik_State_Penalty>
0.0020173

> <r_epik_Charging_Adjusted_Penalty>
0.0020173

> <i_epik_Tot_Q>
0

> <i_epik_Tot_abs_Q>
0

> <r_epik_Metal_State_Penalty>
-0

> <b_epik_Metal_Only>
0

> <s_lp_Force_Field>
OPLS_2005

> <r_lp_Energy>
31.5376

> <b_lp_Chiralities_Consistent>
1

> <s_lp_Variant>
AV-unprocessed.smi:2315-1

> <Gold.Version>
5.8.1

> <Gold.Id.Protein>
6NUR|6NUR_protein|mol2

> <Gold.PLP.Fitness>
44.7560

> <Gold.PLP.PLP>
-36.3269

> <Gold.PLP.part.hbond>
-1.9582

> <Gold.PLP.part.metal>
0.0000

> <Gold.PLP.part.buried>
-2.1562

> <Gold.PLP.part.nonpolar>
-34.1081

> <Gold.PLP.part.repulsive>
2.7992

> <Gold.PLP.ligand.clash>
0.0000

> <Gold.PLP.ligand.torsion>
0.2604

> <Gold.PLP.Chemscore.Hbond>
1.9760

> <Gold.PLP.Chemscore.CHOScore>
1.0000

> <Gold.PLP.Chemscore.Metal>
0.0000

> <Gold.Chemscore.Hbonds>
donor molecule, donor type, donor heavy atom, donor atom, acceptor molecule, acceptor atom, score
      L1  H     3    22       P1  7948  1.00
      L1  H    14    37       P1  7948  1.00
      L1  C    17    39       P1 10186  0.98
      L1  C    19    40       P1 10747  0.07

> <Gold.PLP.Chemscore.Internal.Correction>
0.0219

> <Gold.Rescore>
     Score         DG    S(hbond)    S(metal)    S(lipo)     H(rot)  DE(clash)    DE(int)     intcor
     12.58     -16.56       1.92        0.00      74.32       1.57       1.28       2.70       ----

> <Gold.Chemscore.Fitness>
12.5796

> <Gold.Chemscore.DG>
-16.5624

> <Gold.Chemscore.ZeroCoef>
-5.4800

> <Gold.Chemscore.Hbond>
1.9204

> <Gold.Chemscore.Metal>
0.0000

> <Gold.Chemscore.Lipo>
74.3189

> <Gold.Chemscore.Internal_Hbond>
0.0000

> <Gold.Chemscore.DEClash>
1.2836

> <Gold.Chemscore.DEInternal>
2.6992

> <Gold.Chemscore.Rot>
1.5731

> <Gold.Chemscore.Internal.Correction>
   9.000000E+99

> <Gold.Chemscore.Hbonds>
donor molecule, donor type, donor heavy atom, donor atom, acceptor molecule, acceptor atom, score
      L1  H     3    22       P1  7948  0.96
      L1  H    14    37       P1  7948  0.97

> <Gold.Chemscore.Hbond.Weighted>
-6.4142

> <Gold.Chemscore.Metal.Weighted>
-0.0000

> <Gold.Chemscore.Lipo.Weighted>
-8.6953

> <Gold.Chemscore.Internal_Hbond.Weighted>
0.0000

> <Gold.Chemscore.DEClash.Weighted>
1.2836

> <Gold.Chemscore.DEInternal.Weighted>
2.6992

> <Gold.Chemscore.Rot.Weighted>
4.0271

> <Gold.Chemscore.Internal.Correction.Weighted>
   9.000000E+99

> <Gold.Protein.RotatedTorsions>
[ 6907 6896 6895 6894 ] final  -84.26 input  -60.11 | X-H torsion
[ 7974 7965 7964 7962 ] final  -71.03 input  175.53 | X-H torsion
[ 8008 7997 7996 7995 ] final  107.05 input   59.86 | X-H torsion
[ 10167 10162 10161 10158 ] final -160.32 input  -65.29 | X-H torsion
[ 10718 10713 10712 10709 ] final -102.94 input   66.30 | X-H torsion
[ 10763 10752 10751 10750 ] final -169.03 input  -60.55 | X-H torsion
[ 11005 11000 10999 10996 ] final  138.85 input  -57.11 | X-H torsion

> <Gold.Protein.ActiveResidues>
 VAL166  LYS551  ARG553  GLY616  TRP617  ASP618  TYR619  PRO620  LYS621  CYS622 
 ASP623  PHE694  ASN695  SER759  ASP760  ASP761  ALA762  ILE779  LEU786  VAL792 
 PHE793  MET794  SER795  GLU796  ALA797  LYS798  CYS799  TRP800  GLU811  SER814 

> <Gold.Protein.RotatedAtoms>
  150.6878  134.3386  159.4857 H   0  0  0  0  0  0  0  0  0  0  0  0  # atno 6907 bound_to 6896
  152.1242  134.9180  160.0571 H   0  0  0  0  0  0  0  0  0  0  0  0  # atno 6908 bound_to 6896
  152.0375  133.3928  159.4360 H   0  0  0  0  0  0  0  0  0  0  0  0  # atno 6909 bound_to 6896
  145.6833  140.9180  143.0820 H   0  0  0  0  0  0  0  0  0  0  0  0  # atno 7974 bound_to 7965
  156.1793  140.3102  155.9118 H   0  0  0  0  0  0  0  0  0  0  0  0  # atno 8008 bound_to 7997
  155.3419  140.0466  157.3062 H   0  0  0  0  0  0  0  0  0  0  0  0  # atno 8009 bound_to 7997
  154.5325  140.2235  155.8790 H   0  0  0  0  0  0  0  0  0  0  0  0  # atno 8010 bound_to 7997
  139.6548  144.0018  152.2186 H   0  0  0  0  0  0  0  0  0  0  0  0  # atno 10167 bound_to 10162
  156.0247  130.5444  150.7181 H   0  0  0  0  0  0  0  0  0  0  0  0  # atno 10718 bound_to 10713
  154.6566  135.2919  154.9920 H   0  0  0  0  0  0  0  0  0  0  0  0  # atno 10763 bound_to 10752
  154.0994  135.6579  153.4869 H   0  0  0  0  0  0  0  0  0  0  0  0  # atno 10764 bound_to 10752
  153.0406  135.5239  154.7498 H   0  0  0  0  0  0  0  0  0  0  0  0  # atno 10765 bound_to 10752
  140.0212  134.9395  157.0479 H   0  0  0  0  0  0  0  0  0  0  0  0  # atno 11005 bound_to 11000
  144.7019  139.8725  143.7441 LP  0  0  0  0  0  0  0  0  0  0  0  0  # atno 17320 bound_to 7965
  146.0945  139.3937  143.0385 LP  0  0  0  0  0  0  0  0  0  0  0  0  # atno 17321 bound_to 7965
  139.9742  144.6473  150.7961 LP  0  0  0  0  0  0  0  0  0  0  0  0  # atno 17342 bound_to 10162
  140.7554  143.3046  151.2995 LP  0  0  0  0  0  0  0  0  0  0  0  0  # atno 17343 bound_to 10162
  157.4803  131.0902  151.0543 LP  0  0  0  0  0  0  0  0  0  0  0  0  # atno 17370 bound_to 10713
  157.0978  130.5969  149.5453 LP  0  0  0  0  0  0  0  0  0  0  0  0  # atno 17371 bound_to 10713
  140.4383  134.1708  155.7172 LP  0  0  0  0  0  0  0  0  0  0  0  0  # atno 17394 bound_to 11000
  141.1775  133.8483  157.1372 LP  0  0  0  0  0  0  0  0  0  0  0  0  # atno 17395 bound_to 11000

$$$$
