AV-unprocessed.smi:236|AV-procd|sdf|1810|dock5
  -GOLD-   2262020393D 1   1.00000     0.00000
 Structure written by MMmdl.
 58 62  0  0  0  0  0  0  0  0  1 V2000
  146.5896  129.9730  152.0785 C   0  0  0  0  0  0  0  0  0  0  0  0
  147.3203  130.1919  153.4131 C   0  0  1  0  0  0  0  0  0  0  0  0
  148.1583  129.0680  153.6653 O   0  0  0  0  0  0  0  0  0  0  0  0
  149.2653  129.4971  154.4374 C   0  0  0  0  0  0  0  0  0  0  0  0
  149.6133  130.8257  153.7865 C   0  0  0  0  0  0  0  0  0  0  0  0
  148.2404  131.4413  153.5096 C   0  0  1  0  0  0  0  0  0  0  0  0
  148.3144  132.1606  152.2897 O   0  0  0  0  0  0  0  0  0  0  0  0
  147.7506  132.4073  154.6207 C   0  0  0  0  0  0  0  0  0  0  0  0
  148.5640  133.6044  154.7769 N   0  0  0  0  0  0  0  0  0  0  0  0
  149.9211  133.7151  154.5705 C   0  0  0  0  0  0  0  0  0  0  0  0
  150.4211  134.9026  154.7787 N   0  0  0  0  0  0  0  0  0  0  0  0
  149.3228  135.6746  155.1377 C   0  0  0  0  0  0  0  0  0  0  0  0
  149.1381  137.0400  155.4971 C   0  0  0  0  0  0  0  0  0  0  0  0
  150.1226  137.9592  155.5742 N   0  0  0  0  0  0  0  0  0  0  0  0
  151.0375  137.9212  154.4417 C   0  0  0  0  0  0  0  0  0  0  0  0
  152.2130  138.8797  154.6899 C   0  0  0  0  0  0  0  0  0  0  0  0
  151.7103  140.1856  154.9563 O   0  0  0  0  0  0  0  0  0  0  0  0
  150.8905  140.2273  156.1234 C   0  0  1  0  0  0  0  0  0  0  0  0
  150.4696  141.6832  156.3602 C   0  0  0  0  0  0  0  0  0  0  0  0
  151.4908  142.3458  157.0873 O   0  0  0  0  0  0  0  0  0  0  0  0
  151.3343  143.7538  157.0901 C   0  0  0  0  0  0  0  0  0  0  0  0
  152.4887  144.3763  157.8463 C   0  0  0  0  0  0  0  0  0  0  0  0
  152.9439  143.8047  159.1702 C   0  0  0  0  0  0  0  0  0  0  0  0
  152.2382  145.1358  159.1294 C   0  0  0  0  0  0  0  0  0  0  0  0
  149.6744  139.3084  155.8958 C   0  0  0  0  0  0  0  0  0  0  0  0
  147.8845  137.4541  155.8037 N   0  0  0  0  0  0  0  0  0  0  0  0
  146.8654  136.5907  155.7548 C   0  0  0  0  0  0  0  0  0  0  0  0
  146.8834  135.2943  155.4365 N   0  0  0  0  0  0  0  0  0  0  0  0
  148.1460  134.8742  155.1356 C   0  0  0  0  0  0  0  0  0  0  0  0
  145.9261  130.8075  151.8509 H   0  0  0  0  0  0  0  0  0  0  0  0
  145.9817  129.0687  152.1143 H   0  0  0  0  0  0  0  0  0  0  0  0
  147.2930  129.8633  151.2526 H   0  0  0  0  0  0  0  0  0  0  0  0
  146.5774  130.2186  154.2117 H   0  0  0  0  0  0  0  0  0  0  0  0
  148.9666  129.6323  155.4782 H   0  0  0  0  0  0  0  0  0  0  0  0
  150.0854  128.7799  154.3995 H   0  0  0  0  0  0  0  0  0  0  0  0
  150.2736  131.4372  154.3989 H   0  0  0  0  0  0  0  0  0  0  0  0
  150.1381  130.6233  152.8511 H   0  0  0  0  0  0  0  0  0  0  0  0
  148.6344  131.5779  151.6183 H   0  0  0  0  0  0  0  0  0  0  0  0
  146.7261  132.7208  154.4161 H   0  0  0  0  0  0  0  0  0  0  0  0
  147.7215  131.8908  155.5809 H   0  0  0  0  0  0  0  0  0  0  0  0
  150.5340  132.8797  154.2642 H   0  0  0  0  0  0  0  0  0  0  0  0
  151.4073  136.9059  154.2934 H   0  0  0  0  0  0  0  0  0  0  0  0
  150.5103  138.2103  153.5318 H   0  0  0  0  0  0  0  0  0  0  0  0
  152.8266  138.5368  155.5245 H   0  0  0  0  0  0  0  0  0  0  0  0
  152.8595  138.9181  153.8132 H   0  0  0  0  0  0  0  0  0  0  0  0
  151.4566  139.8731  156.9870 H   0  0  0  0  0  0  0  0  0  0  0  0
  150.2775  142.1842  155.4100 H   0  0  0  0  0  0  0  0  0  0  0  0
  149.5461  141.7131  156.9408 H   0  0  0  0  0  0  0  0  0  0  0  0
  151.3336  144.1356  156.0682 H   0  0  0  0  0  0  0  0  0  0  0  0
  150.3892  144.0372  157.5564 H   0  0  0  0  0  0  0  0  0  0  0  0
  153.2654  144.7864  157.2035 H   0  0  0  0  0  0  0  0  0  0  0  0
  152.3939  142.9566  159.5736 H   0  0  0  0  0  0  0  0  0  0  0  0
  154.0125  143.8071  159.3756 H   0  0  0  0  0  0  0  0  0  0  0  0
  152.8360  146.0269  159.3101 H   0  0  0  0  0  0  0  0  0  0  0  0
  151.2179  145.1747  159.5061 H   0  0  0  0  0  0  0  0  0  0  0  0
  149.0636  139.7039  155.0838 H   0  0  0  0  0  0  0  0  0  0  0  0
  149.0490  139.2843  156.7892 H   0  0  0  0  0  0  0  0  0  0  0  0
  145.8970  136.9963  156.0086 H   0  0  0  0  0  0  0  0  0  0  0  0
  1  2  1  0  0  0  0
  1 30  1  0  0  0  0
  1 31  1  0  0  0  0
  1 32  1  0  0  0  0
  2  6  1  0  0  0  0
  2  3  1  0  0  0  0
  2 33  1  0  0  0  0
  3  4  1  0  0  0  0
  4  5  1  0  0  0  0
  4 34  1  0  0  0  0
  4 35  1  0  0  0  0
  5  6  1  0  0  0  0
  5 36  1  0  0  0  0
  5 37  1  0  0  0  0
  6  7  1  0  0  0  0
  6  8  1  0  0  0  0
  7 38  1  0  0  0  0
  8  9  1  0  0  0  0
  8 39  1  0  0  0  0
  8 40  1  0  0  0  0
  9 29  1  0  0  0  0
  9 10  1  0  0  0  0
 10 11  2  0  0  0  0
 10 41  1  0  0  0  0
 11 12  1  0  0  0  0
 12 29  2  0  0  0  0
 12 13  1  0  0  0  0
 13 14  1  0  0  0  0
 13 26  2  0  0  0  0
 14 25  1  0  0  0  0
 14 15  1  0  0  0  0
 15 16  1  0  0  0  0
 15 42  1  0  0  0  0
 15 43  1  0  0  0  0
 16 17  1  0  0  0  0
 16 44  1  0  0  0  0
 16 45  1  0  0  0  0
 17 18  1  0  0  0  0
 18 19  1  0  0  0  0
 18 25  1  0  0  0  0
 18 46  1  0  0  0  0
 19 20  1  0  0  0  0
 19 47  1  0  0  0  0
 19 48  1  0  0  0  0
 20 21  1  0  0  0  0
 21 22  1  0  0  0  0
 21 49  1  0  0  0  0
 21 50  1  0  0  0  0
 22 24  1  0  0  0  0
 22 23  1  0  0  0  0
 22 51  1  0  0  0  0
 23 24  1  0  0  0  0
 23 52  1  0  0  0  0
 23 53  1  0  0  0  0
 24 54  1  0  0  0  0
 24 55  1  0  0  0  0
 25 56  1  0  0  0  0
 25 57  1  0  0  0  0
 26 27  1  0  0  0  0
 27 28  2  0  0  0  0
 27 58  1  0  0  0  0
 28 29  1  0  0  0  0
M  END
> <s_m_source_file>
AV-unprocessed.smi

> <i_m_source_file_index>
236

> <i_lp_mmshare_version>
43012

> <i_f3d_flags>
0

> <s_epik_input>
W0NIMl0xW0NIMl1PW0NAQEhdKFtDSDNdKVtDQEBdMShbT0hdKVtDSDJdbihbY0hdbjIpYyhjMjMpbltjSF1uYzNONFtDSDJdW0NIMl1PW0NASF0oW0NIMl00KVtDSDJdT1tDSDJdW0NIXTVbQ0gyXVtDSDJdNQ==

> <s_epik_cmdline>
J2VwaWtfcHl0aG9uJywgJy1waCcsICc3LjAnLCAnLXRuJywgJzgnLCAnLW1hJywgJzIwMCcsICctbWV0YWxfYmluZGluZycsICctaW1hZScsICc8aW5maWxlLm1hZT4nLCAnLW9tYWUnLCAnPG91dGZpbGUubWFlPic=

> <r_lp_tautomer_probability>
1

> <r_epik_Ionization_Penalty>
7.21838e-05

> <r_epik_Ionization_Penalty_Charging>
0

> <r_epik_Ionization_Penalty_Neutral>
7.21838e-05

> <r_epik_State_Penalty>
-0

> <r_epik_Charging_Adjusted_Penalty>
0

> <i_epik_Tot_Q>
0

> <i_epik_Tot_abs_Q>
0

> <r_epik_Metal_State_Penalty>
-0

> <b_epik_Metal_Only>
0

> <s_lp_Force_Field>
OPLS_2005

> <r_lp_Energy>
50.1764

> <b_lp_Chiralities_Consistent>
1

> <s_lp_Variant>
AV-unprocessed.smi:236-2

> <Gold.Version>
5.8.1

> <Gold.Id.Protein>
6NUR|6NUR_protein|mol2

> <Gold.PLP.Fitness>
49.9409

> <Gold.PLP.PLP>
-45.7038

> <Gold.PLP.part.hbond>
-2.0000

> <Gold.PLP.part.metal>
0.0000

> <Gold.PLP.part.buried>
-2.3119

> <Gold.PLP.part.nonpolar>
-40.9209

> <Gold.PLP.part.repulsive>
0.5195

> <Gold.PLP.ligand.clash>
0.0000

> <Gold.PLP.ligand.torsion>
1.3203

> <Gold.PLP.Chemscore.Hbond>
1.9920

> <Gold.PLP.Chemscore.CHOScore>
0.0000

> <Gold.PLP.Chemscore.Metal>
0.0000

> <Gold.Chemscore.Hbonds>
donor molecule, donor type, donor heavy atom, donor atom, acceptor molecule, acceptor atom, score
      L1  H     7    38       P1 10747  1.00
      P1  H  7989  7998       L1    17  0.94

> <Gold.PLP.Chemscore.Internal.Correction>
0.9017

> <Gold.Rescore>
     Score         DG    S(hbond)    S(metal)    S(lipo)     H(rot)  DE(clash)    DE(int)     intcor
     13.08     -15.39       1.09        0.00     116.28       2.87       0.05       2.27       ----

> <Gold.Chemscore.Fitness>
13.0760

> <Gold.Chemscore.DG>
-15.3933

> <Gold.Chemscore.ZeroCoef>
-5.4800

> <Gold.Chemscore.Hbond>
1.0910

> <Gold.Chemscore.Metal>
0.0000

> <Gold.Chemscore.Lipo>
116.2844

> <Gold.Chemscore.Internal_Hbond>
0.0000

> <Gold.Chemscore.DEClash>
0.0496

> <Gold.Chemscore.DEInternal>
2.2677

> <Gold.Chemscore.Rot>
2.8655

> <Gold.Chemscore.Internal.Correction>
   9.000000E+99

> <Gold.Chemscore.Hbonds>
donor molecule, donor type, donor heavy atom, donor atom, acceptor molecule, acceptor atom, score
      L1  H     7    38       P1 10747  0.95
      P1  H  7989  7998       L1    17  0.40

> <Gold.Chemscore.Hbond.Weighted>
-3.6438

> <Gold.Chemscore.Metal.Weighted>
-0.0000

> <Gold.Chemscore.Lipo.Weighted>
-13.6053

> <Gold.Chemscore.Internal_Hbond.Weighted>
0.0000

> <Gold.Chemscore.DEClash.Weighted>
0.0496

> <Gold.Chemscore.DEInternal.Weighted>
2.2677

> <Gold.Chemscore.Rot.Weighted>
7.3358

> <Gold.Chemscore.Internal.Correction.Weighted>
   9.000000E+99

> <Gold.Protein.RotatedTorsions>
[ 6907 6896 6895 6894 ] final  124.28 input  -60.11 | X-H torsion
[ 7974 7965 7964 7962 ] final  118.99 input  175.53 | X-H torsion
[ 8008 7997 7996 7995 ] final  153.52 input   59.86 | X-H torsion
[ 10167 10162 10161 10158 ] final  -67.45 input  -65.29 | X-H torsion
[ 10718 10713 10712 10709 ] final  153.07 input   66.30 | X-H torsion
[ 10763 10752 10751 10750 ] final    8.93 input  -60.55 | X-H torsion
[ 11005 11000 10999 10996 ] final  -67.55 input  -57.11 | X-H torsion

> <Gold.Protein.ActiveResidues>
 VAL166  LYS551  ARG553  GLY616  TRP617  ASP618  TYR619  PRO620  LYS621  CYS622 
 ASP623  PHE694  ASN695  SER759  ASP760  ASP761  ALA762  ILE779  LEU786  VAL792 
 PHE793  MET794  SER795  GLU796  ALA797  LYS798  CYS799  TRP800  GLU811  SER814 

> <Gold.Protein.RotatedAtoms>
  152.4092  133.6936  159.6382 H   0  0  0  0  0  0  0  0  0  0  0  0  # atno 6907 bound_to 6896
  150.7973  133.8655  159.3252 H   0  0  0  0  0  0  0  0  0  0  0  0  # atno 6908 bound_to 6896
  151.6402  135.1015  160.0191 H   0  0  0  0  0  0  0  0  0  0  0  0  # atno 6909 bound_to 6896
  145.1486  139.3224  143.4578 H   0  0  0  0  0  0  0  0  0  0  0  0  # atno 7974 bound_to 7965
  156.2577  140.1991  156.6502 H   0  0  0  0  0  0  0  0  0  0  0  0  # atno 8008 bound_to 7997
  154.6542  140.0568  157.0015 H   0  0  0  0  0  0  0  0  0  0  0  0  # atno 8009 bound_to 7997
  155.1372  140.3239  155.4463 H   0  0  0  0  0  0  0  0  0  0  0  0  # atno 8010 bound_to 7997
  140.5582  143.2312  151.6779 H   0  0  0  0  0  0  0  0  0  0  0  0  # atno 10167 bound_to 10162
  157.2496  131.0776  151.1739 H   0  0  0  0  0  0  0  0  0  0  0  0  # atno 10718 bound_to 10713
  153.2196  135.6879  153.8016 H   0  0  0  0  0  0  0  0  0  0  0  0  # atno 10763 bound_to 10752
  153.7219  135.3266  155.3269 H   0  0  0  0  0  0  0  0  0  0  0  0  # atno 10764 bound_to 10752
  154.8263  135.4615  154.1038 H   0  0  0  0  0  0  0  0  0  0  0  0  # atno 10765 bound_to 10752
  141.1511  133.6721  156.6310 H   0  0  0  0  0  0  0  0  0  0  0  0  # atno 11005 bound_to 11000
  146.3497  140.1551  142.8591 LP  0  0  0  0  0  0  0  0  0  0  0  0  # atno 17320 bound_to 7965
  145.0455  140.8978  143.5026 LP  0  0  0  0  0  0  0  0  0  0  0  0  # atno 17321 bound_to 7965
  139.5058  144.3706  152.0474 LP  0  0  0  0  0  0  0  0  0  0  0  0  # atno 17342 bound_to 10162
  140.2829  144.3839  150.6113 LP  0  0  0  0  0  0  0  0  0  0  0  0  # atno 17343 bound_to 10162
  157.3292  130.6976  149.6314 LP  0  0  0  0  0  0  0  0  0  0  0  0  # atno 17370 bound_to 10713
  155.9667  130.4312  150.4912 LP  0  0  0  0  0  0  0  0  0  0  0  0  # atno 17371 bound_to 10713
  140.3467  134.7803  157.4437 LP  0  0  0  0  0  0  0  0  0  0  0  0  # atno 17394 bound_to 11000
  140.0894  134.5622  155.8459 LP  0  0  0  0  0  0  0  0  0  0  0  0  # atno 17395 bound_to 11000

$$$$
