AV-unprocessed.smi:99|AV-procd|sdf|872|dock3
  -GOLD-   2262017333D 1   1.00000     0.00000
 Structure written by MMmdl.
 53 56  0  0  0  0  0  0  0  0  1 V2000
  147.7617  137.3453  160.2162 O   0  0  0  0  0  0  0  0  0  0  0  0
  148.2409  136.2194  160.0659 C   0  0  0  0  0  0  0  0  0  0  0  0
  149.3894  135.9807  159.4031 O   0  0  0  0  0  0  0  0  0  0  0  0
  149.9447  136.9801  158.5648 C   0  0  0  0  0  0  0  0  0  0  0  0
  150.5312  136.3162  157.3033 C   0  0  1  0  0  0  0  0  0  0  0  0
  149.5502  135.4430  156.7592 O   0  0  0  0  0  0  0  0  0  0  0  0
  148.7281  136.1447  155.8774 C   0  0  2  0  0  0  0  0  0  0  0  0
  148.4239  135.2341  154.7064 N   0  0  0  0  0  0  0  0  0  0  0  0
  149.1268  134.0491  154.5370 C   0  0  0  0  0  0  0  0  0  0  0  0
  148.8931  133.1898  153.5172 C   0  0  0  0  0  0  0  0  0  0  0  0
  147.8628  133.4817  152.5257 C   0  0  0  0  0  0  0  0  0  0  0  0
  147.5756  132.7647  151.5696 O   0  0  0  0  0  0  0  0  0  0  0  0
  147.1834  134.6862  152.7321 N   0  0  0  0  0  0  0  0  0  0  0  0
  147.4173  135.5814  153.7779 C   0  0  0  0  0  0  0  0  0  0  0  0
  146.7638  136.6212  153.8520 O   0  0  0  0  0  0  0  0  0  0  0  0
  149.4586  137.4453  155.4706 C   0  0  2  0  0  0  0  0  0  0  0  0
  149.6089  137.6272  154.0738 O   0  0  0  0  0  0  0  0  0  0  0  0
  150.8167  137.2829  156.1457 C   0  0  1  0  0  0  0  0  0  0  0  0
  151.3217  138.5213  156.6334 O   0  0  0  0  0  0  0  0  0  0  0  0
  151.1035  139.6737  155.9658 C   0  0  0  0  0  0  0  0  0  0  0  0
  150.8242  139.7271  154.7666 O   0  0  0  0  0  0  0  0  0  0  0  0
  151.2289  140.8780  156.8360 C   0  0  0  0  0  0  0  0  0  0  0  0
  151.6380  140.7214  158.1809 C   0  0  0  0  0  0  0  0  0  0  0  0
  151.7670  141.8402  159.0264 C   0  0  0  0  0  0  0  0  0  0  0  0
  151.4878  143.1295  158.5377 C   0  0  0  0  0  0  0  0  0  0  0  0
  151.0790  143.2987  157.2021 C   0  0  0  0  0  0  0  0  0  0  0  0
  150.9500  142.1812  156.3545 C   0  0  0  0  0  0  0  0  0  0  0  0
  147.6093  134.9780  160.5989 C   0  0  0  0  0  0  0  0  0  0  0  0
  147.8773  133.7392  159.9707 C   0  0  0  0  0  0  0  0  0  0  0  0
  147.2966  132.5501  160.4529 C   0  0  0  0  0  0  0  0  0  0  0  0
  146.4401  132.5849  161.5687 C   0  0  0  0  0  0  0  0  0  0  0  0
  146.1653  133.8108  162.2023 C   0  0  0  0  0  0  0  0  0  0  0  0
  146.7458  135.0011  161.7222 C   0  0  0  0  0  0  0  0  0  0  0  0
  146.4650  134.9308  152.0660 H   0  0  0  0  0  0  0  0  0  0  0  0
  149.1889  137.7222  158.3040 H   0  0  0  0  0  0  0  0  0  0  0  0
  150.7303  137.4942  159.1199 H   0  0  0  0  0  0  0  0  0  0  0  0
  151.4321  135.7608  157.5667 H   0  0  0  0  0  0  0  0  0  0  0  0
  147.7884  136.3447  156.3938 H   0  0  0  0  0  0  0  0  0  0  0  0
  149.9035  133.7964  155.2446 H   0  0  0  0  0  0  0  0  0  0  0  0
  149.4726  132.2820  153.4335 H   0  0  0  0  0  0  0  0  0  0  0  0
  148.9103  138.2873  155.8960 H   0  0  0  0  0  0  0  0  0  0  0  0
  149.3026  136.8488  153.6339 H   0  0  0  0  0  0  0  0  0  0  0  0
  151.5206  136.7990  155.4659 H   0  0  0  0  0  0  0  0  0  0  0  0
  151.8583  139.7413  158.5790 H   0  0  0  0  0  0  0  0  0  0  0  0
  152.0806  141.7081  160.0515 H   0  0  0  0  0  0  0  0  0  0  0  0
  151.5869  143.9874  159.1862 H   0  0  0  0  0  0  0  0  0  0  0  0
  150.8641  144.2883  156.8263 H   0  0  0  0  0  0  0  0  0  0  0  0
  150.6340  142.3469  155.3349 H   0  0  0  0  0  0  0  0  0  0  0  0
  148.5320  133.6872  159.1128 H   0  0  0  0  0  0  0  0  0  0  0  0
  147.5097  131.6097  159.9660 H   0  0  0  0  0  0  0  0  0  0  0  0
  145.9954  131.6727  161.9384 H   0  0  0  0  0  0  0  0  0  0  0  0
  145.5083  133.8389  163.0592 H   0  0  0  0  0  0  0  0  0  0  0  0
  146.5146  135.9246  162.2328 H   0  0  0  0  0  0  0  0  0  0  0  0
  1  2  2  0  0  0  0
  2  3  1  0  0  0  0
  2 28  1  0  0  0  0
  3  4  1  0  0  0  0
  4  5  1  0  0  0  0
  4 35  1  0  0  0  0
  4 36  1  0  0  0  0
  5 18  1  0  0  0  0
  5  6  1  0  0  0  0
  5 37  1  0  0  0  0
  6  7  1  0  0  0  0
  7  8  1  0  0  0  0
  7 16  1  0  0  0  0
  7 38  1  0  0  0  0
  8 14  1  0  0  0  0
  8  9  1  0  0  0  0
  9 10  2  0  0  0  0
  9 39  1  0  0  0  0
 10 11  1  0  0  0  0
 10 40  1  0  0  0  0
 11 12  2  0  0  0  0
 11 13  1  0  0  0  0
 13 34  1  0  0  0  0
 13 14  1  0  0  0  0
 14 15  2  0  0  0  0
 16 17  1  0  0  0  0
 16 18  1  0  0  0  0
 16 41  1  0  0  0  0
 17 42  1  0  0  0  0
 18 19  1  0  0  0  0
 18 43  1  0  0  0  0
 19 20  1  0  0  0  0
 20 21  2  0  0  0  0
 20 22  1  0  0  0  0
 22 27  1  0  0  0  0
 22 23  2  0  0  0  0
 23 24  1  0  0  0  0
 23 44  1  0  0  0  0
 24 25  2  0  0  0  0
 24 45  1  0  0  0  0
 25 26  1  0  0  0  0
 25 46  1  0  0  0  0
 26 27  2  0  0  0  0
 26 47  1  0  0  0  0
 27 48  1  0  0  0  0
 28 33  1  0  0  0  0
 28 29  2  0  0  0  0
 29 30  1  0  0  0  0
 29 49  1  0  0  0  0
 30 31  2  0  0  0  0
 30 50  1  0  0  0  0
 31 32  1  0  0  0  0
 31 51  1  0  0  0  0
 32 33  2  0  0  0  0
 32 52  1  0  0  0  0
 33 53  1  0  0  0  0
M  END
> <s_m_source_file>
AV-unprocessed.smi

> <i_m_source_file_index>
99

> <i_lp_mmshare_version>
43012

> <i_f3d_flags>
0

> <s_epik_input>
W2NIXTFbY0hdW2NIXVtjSF1bY0hdYzFDKD1PKU9bQ0gyXVtDQEBIXTJPW0NAQEhdKG4zW2NIXVtjSF1jKD1PKVtuSF1jMz1PKVtDQEBIXShbT0hdKVtDQEhdMk9DKD1PKWM0W2NIXVtjSF1bY0hdW2NIXVtjSF00

> <s_epik_cmdline>
J2VwaWtfcHl0aG9uJywgJy1waCcsICc3LjAnLCAnLXRuJywgJzgnLCAnLW1hJywgJzIwMCcsICctbWV0YWxfYmluZGluZycsICctaW1hZScsICc8aW5maWxlLm1hZT4nLCAnLW9tYWUnLCAnPG91dGZpbGUubWFlPic=

> <r_lp_tautomer_probability>
1

> <r_epik_Ionization_Penalty>
0.00454555

> <r_epik_Ionization_Penalty_Charging>
0.0045191

> <r_epik_Ionization_Penalty_Neutral>
2.64449e-05

> <r_epik_State_Penalty>
-0

> <r_epik_Charging_Adjusted_Penalty>
0.0045191

> <i_epik_Tot_Q>
0

> <i_epik_Tot_abs_Q>
0

> <r_epik_Metal_State_Penalty>
1.27877

> <b_epik_Metal_Only>
0

> <s_epik_Chemistry_Notes>
This compound has an ester and may undergo hydrolysis at high or low pH. This compound contains an acetal/aminal-like group ( X-CH(R)-Y where X, Y are N, S, or O) that may be acid/base labile, releasing an aldehyde.

> <s_lp_Force_Field>
OPLS_2005

> <r_lp_Energy>
42.9918

> <b_lp_Chiralities_Consistent>
1

> <s_lp_Variant>
AV-unprocessed.smi:99-8

> <Gold.Version>
5.8.1

> <Gold.Id.Protein>
6NUR|6NUR_protein|mol2

> <Gold.PLP.Fitness>
52.8380

> <Gold.PLP.PLP>
-46.3946

> <Gold.PLP.part.hbond>
-6.0000

> <Gold.PLP.part.metal>
0.0000

> <Gold.PLP.part.buried>
-1.6445

> <Gold.PLP.part.nonpolar>
-38.7694

> <Gold.PLP.part.repulsive>
0.3299

> <Gold.PLP.ligand.clash>
0.0000

> <Gold.PLP.ligand.torsion>
1.7155

> <Gold.PLP.Chemscore.Hbond>
3.0800

> <Gold.PLP.Chemscore.CHOScore>
0.0000

> <Gold.PLP.Chemscore.Metal>
0.0000

> <Gold.Chemscore.Hbonds>
donor molecule, donor type, donor heavy atom, donor atom, acceptor molecule, acceptor atom, score
      L1  H    17    42       P1  7948  0.77
      P1  H  6931  6943       L1     1  0.22
      P1  H  6934  6947       L1     1  0.83
      P1  H  7989  7998       L1    21  1.00

> <Gold.PLP.Chemscore.Internal.Correction>
0.6344

> <Gold.Rescore>
     Score         DG    S(hbond)    S(metal)    S(lipo)     H(rot)  DE(clash)    DE(int)     intcor
     12.59     -18.92       2.34        0.00     117.83       3.19       0.48       5.85       ----

> <Gold.Chemscore.Fitness>
12.5906

> <Gold.Chemscore.DG>
-18.9166

> <Gold.Chemscore.ZeroCoef>
-5.4800

> <Gold.Chemscore.Hbond>
2.3405

> <Gold.Chemscore.Metal>
0.0000

> <Gold.Chemscore.Lipo>
117.8321

> <Gold.Chemscore.Internal_Hbond>
0.0000

> <Gold.Chemscore.DEClash>
0.4801

> <Gold.Chemscore.DEInternal>
5.8459

> <Gold.Chemscore.Rot>
3.1903

> <Gold.Chemscore.Internal.Correction>
   9.000000E+99

> <Gold.Chemscore.Hbonds>
donor molecule, donor type, donor heavy atom, donor atom, acceptor molecule, acceptor atom, score
      L1  H    17    42       P1  7948  0.75
      P1  H  6931  6943       L1     1  0.10
      P1  H  6934  6947       L1     1  0.81
      P1  H  7989  7998       L1    21  1.00

> <Gold.Chemscore.Hbond.Weighted>
-7.8173

> <Gold.Chemscore.Metal.Weighted>
-0.0000

> <Gold.Chemscore.Lipo.Weighted>
-13.7864

> <Gold.Chemscore.Internal_Hbond.Weighted>
0.0000

> <Gold.Chemscore.DEClash.Weighted>
0.4801

> <Gold.Chemscore.DEInternal.Weighted>
5.8459

> <Gold.Chemscore.Rot.Weighted>
8.1671

> <Gold.Chemscore.Internal.Correction.Weighted>
   9.000000E+99

> <Gold.Protein.RotatedTorsions>
[ 6907 6896 6895 6894 ] final  103.82 input  -60.11 | X-H torsion
[ 7974 7965 7964 7962 ] final  -28.18 input  175.53 | X-H torsion
[ 8008 7997 7996 7995 ] final  -84.33 input   59.86 | X-H torsion
[ 10167 10162 10161 10158 ] final  -84.07 input  -65.29 | X-H torsion
[ 10718 10713 10712 10709 ] final  -34.97 input   66.30 | X-H torsion
[ 10763 10752 10751 10750 ] final    9.56 input  -60.55 | X-H torsion
[ 11005 11000 10999 10996 ] final  106.02 input  -57.11 | X-H torsion

> <Gold.Protein.ActiveResidues>
 VAL166  LYS551  ARG553  GLY616  TRP617  ASP618  TYR619  PRO620  LYS621  CYS622 
 ASP623  PHE694  ASN695  SER759  ASP760  ASP761  ALA762  ILE779  LEU786  VAL792 
 PHE793  MET794  SER795  GLU796  ALA797  LYS798  CYS799  TRP800  GLU811  SER814 

> <Gold.Protein.RotatedAtoms>
  152.5284  133.9769  159.7788 H   0  0  0  0  0  0  0  0  0  0  0  0  # atno 6907 bound_to 6896
  151.0030  133.6030  159.2699 H   0  0  0  0  0  0  0  0  0  0  0  0  # atno 6908 bound_to 6896
  151.3132  135.0806  159.9333 H   0  0  0  0  0  0  0  0  0  0  0  0  # atno 6909 bound_to 6896
  146.1306  140.5249  142.8695 H   0  0  0  0  0  0  0  0  0  0  0  0  # atno 7974 bound_to 7965
  154.6286  140.0606  156.9704 H   0  0  0  0  0  0  0  0  0  0  0  0  # atno 8008 bound_to 7997
  155.1702  140.3290  155.4376 H   0  0  0  0  0  0  0  0  0  0  0  0  # atno 8009 bound_to 7997
  156.2471  140.1915  156.6804 H   0  0  0  0  0  0  0  0  0  0  0  0  # atno 8010 bound_to 7997
  140.4167  143.2601  151.8945 H   0  0  0  0  0  0  0  0  0  0  0  0  # atno 10167 bound_to 10162
  156.3442  130.4298  149.7761 H   0  0  0  0  0  0  0  0  0  0  0  0  # atno 10718 bound_to 10713
  153.2127  135.6871  153.8095 H   0  0  0  0  0  0  0  0  0  0  0  0  # atno 10763 bound_to 10752
  153.7322  135.3251  155.3289 H   0  0  0  0  0  0  0  0  0  0  0  0  # atno 10764 bound_to 10752
  154.8230  135.4638  154.0941 H   0  0  0  0  0  0  0  0  0  0  0  0  # atno 10765 bound_to 10752
  139.8809  134.9355  156.5602 H   0  0  0  0  0  0  0  0  0  0  0  0  # atno 11005 bound_to 11000
  144.7687  140.5588  143.6685 LP  0  0  0  0  0  0  0  0  0  0  0  0  # atno 17320 bound_to 7965
  145.5268  139.1476  143.3521 LP  0  0  0  0  0  0  0  0  0  0  0  0  # atno 17321 bound_to 7965
  139.4782  144.5480  151.8429 LP  0  0  0  0  0  0  0  0  0  0  0  0  # atno 17342 bound_to 10162
  140.4578  144.1764  150.5903 LP  0  0  0  0  0  0  0  0  0  0  0  0  # atno 17343 bound_to 10162
  156.4986  130.8118  151.3123 LP  0  0  0  0  0  0  0  0  0  0  0  0  # atno 17370 bound_to 10713
  157.7451  130.9952  150.2735 LP  0  0  0  0  0  0  0  0  0  0  0  0  # atno 17371 bound_to 10713
  140.8175  133.8380  155.8865 LP  0  0  0  0  0  0  0  0  0  0  0  0  # atno 17394 bound_to 11000
  140.9449  134.1853  157.4770 LP  0  0  0  0  0  0  0  0  0  0  0  0  # atno 17395 bound_to 11000

$$$$
