AV-unprocessed.smi:283|AV-procd|sdf|2139|dock7
  -GOLD-   2262021463D 1   1.00000     0.00000
 Structure written by MMmdl.
 48 51  0  0  0  0  0  0  0  0  1 V2000
  150.6167  141.8229  156.5735 C   0  0  0  0  0  0  0  0  0  0  0  0
  151.7963  141.6895  157.5537 C   0  0  2  0  0  0  0  0  0  0  0  0
  151.7811  140.3903  158.2253 N   0  0  0  0  0  0  0  0  0  0  0  0
  151.9050  139.2322  157.5396 C   0  0  0  0  0  0  0  0  0  0  0  0
  152.8609  139.0717  156.5875 N   0  0  0  0  0  0  0  0  0  0  0  0
  152.9638  137.9122  155.9314 C   0  0  0  0  0  0  0  0  0  0  0  0
  152.2294  136.8068  156.0719 N   0  0  0  0  0  0  0  0  0  0  0  0
  151.2693  136.9605  157.0303 C   0  0  0  0  0  0  0  0  0  0  0  0
  151.0463  138.1339  157.8032 C   0  0  0  0  0  0  0  0  0  0  0  0
  149.9906  137.9258  158.6817 N   0  0  0  0  0  0  0  0  0  0  0  0
  149.6161  136.6981  158.4403 C   0  0  0  0  0  0  0  0  0  0  0  0
  150.3327  136.0425  157.4641 N   0  0  0  0  0  0  0  0  0  0  0  0
  150.1367  134.6402  156.9790 C   0  0  1  0  0  0  0  0  0  0  0  0
  149.0170  134.0939  157.5945 O   0  0  0  0  0  0  0  0  0  0  0  0
  148.4581  133.0943  156.7487 C   0  0  1  0  0  0  0  0  0  0  0  0
  146.9229  133.1924  156.8074 C   0  0  0  0  0  0  0  0  0  0  0  0
  146.3014  132.1190  156.1318 O   0  0  0  0  0  0  0  0  0  0  0  0
  149.0913  133.2649  155.3506 C   0  0  2  0  0  0  0  0  0  0  0  0
  149.9538  132.1740  155.0890 O   0  0  0  0  0  0  0  0  0  0  0  0
  149.9069  134.5472  155.4638 C   0  0  1  0  0  0  0  0  0  0  0  0
  149.1982  135.6502  154.9292 O   0  0  0  0  0  0  0  0  0  0  0  0
  151.7919  142.8589  158.5374 C   0  0  0  0  0  0  0  0  0  0  0  0
  150.8058  143.8683  158.4310 C   0  0  0  0  0  0  0  0  0  0  0  0
  150.7900  144.9549  159.3255 C   0  0  0  0  0  0  0  0  0  0  0  0
  151.7653  145.0493  160.3342 C   0  0  0  0  0  0  0  0  0  0  0  0
  152.7588  144.0589  160.4419 C   0  0  0  0  0  0  0  0  0  0  0  0
  152.7802  142.9688  159.5488 C   0  0  0  0  0  0  0  0  0  0  0  0
  154.0365  141.7928  159.7205 Cl  0  0  0  0  0  0  0  0  0  0  0  0
  151.0261  134.0969  157.3017 H   0  0  0  0  0  0  0  0  0  0  0  0
  148.7465  132.1323  157.1762 H   0  0  0  0  0  0  0  0  0  0  0  0
  148.3544  133.3095  154.5473 H   0  0  0  0  0  0  0  0  0  0  0  0
  150.8683  134.4878  154.9518 H   0  0  0  0  0  0  0  0  0  0  0  0
  150.6584  142.7728  156.0399 H   0  0  0  0  0  0  0  0  0  0  0  0
  149.6612  141.7788  157.0971 H   0  0  0  0  0  0  0  0  0  0  0  0
  150.6189  141.0313  155.8241 H   0  0  0  0  0  0  0  0  0  0  0  0
  152.7262  141.7411  156.9886 H   0  0  0  0  0  0  0  0  0  0  0  0
  151.6084  140.4178  159.2198 H   0  0  0  0  0  0  0  0  0  0  0  0
  153.7469  137.8625  155.1893 H   0  0  0  0  0  0  0  0  0  0  0  0
  148.8011  136.2316  158.9745 H   0  0  0  0  0  0  0  0  0  0  0  0
  146.5914  133.1698  157.8458 H   0  0  0  0  0  0  0  0  0  0  0  0
  146.5811  134.1370  156.3835 H   0  0  0  0  0  0  0  0  0  0  0  0
  145.5130  132.4413  155.7206 H   0  0  0  0  0  0  0  0  0  0  0  0
  150.0319  132.0717  154.1528 H   0  0  0  0  0  0  0  0  0  0  0  0
  149.1038  135.5215  153.9976 H   0  0  0  0  0  0  0  0  0  0  0  0
  150.0531  143.8203  157.6579 H   0  0  0  0  0  0  0  0  0  0  0  0
  150.0303  145.7175  159.2358 H   0  0  0  0  0  0  0  0  0  0  0  0
  151.7549  145.8828  161.0210 H   0  0  0  0  0  0  0  0  0  0  0  0
  153.5105  144.1383  161.2136 H   0  0  0  0  0  0  0  0  0  0  0  0
  1  2  1  0  0  0  0
  1 33  1  0  0  0  0
  1 34  1  0  0  0  0
  1 35  1  0  0  0  0
  2  3  1  0  0  0  0
  2 22  1  0  0  0  0
  2 36  1  0  0  0  0
  3  4  1  0  0  0  0
  3 37  1  0  0  0  0
  4  9  1  0  0  0  0
  4  5  2  0  0  0  0
  5  6  1  0  0  0  0
  6  7  2  0  0  0  0
  6 38  1  0  0  0  0
  7  8  1  0  0  0  0
  8 12  1  0  0  0  0
  8  9  2  0  0  0  0
  9 10  1  0  0  0  0
 10 11  2  0  0  0  0
 11 12  1  0  0  0  0
 11 39  1  0  0  0  0
 12 13  1  0  0  0  0
 13 29  1  0  0  0  0
 13 20  1  0  0  0  0
 13 14  1  0  0  0  0
 14 15  1  0  0  0  0
 15 30  1  0  0  0  0
 15 16  1  0  0  0  0
 15 18  1  0  0  0  0
 16 17  1  0  0  0  0
 16 40  1  0  0  0  0
 16 41  1  0  0  0  0
 17 42  1  0  0  0  0
 18 31  1  0  0  0  0
 18 19  1  0  0  0  0
 18 20  1  0  0  0  0
 19 43  1  0  0  0  0
 20 32  1  0  0  0  0
 20 21  1  0  0  0  0
 21 44  1  0  0  0  0
 22 27  1  0  0  0  0
 22 23  2  0  0  0  0
 23 24  1  0  0  0  0
 23 45  1  0  0  0  0
 24 25  2  0  0  0  0
 24 46  1  0  0  0  0
 25 26  1  0  0  0  0
 25 47  1  0  0  0  0
 26 27  2  0  0  0  0
 26 48  1  0  0  0  0
 27 28  1  0  0  0  0
M  END
> <s_m_source_file>
AV-unprocessed.smi

> <i_m_source_file_index>
283

> <i_lp_mmshare_version>
43012

> <i_f3d_flags>
0

> <s_epik_input>
Q2xjMVtjSF1bY0hdW2NIXVtjSF1jMVtDQEhdKFtDSDNdKVtOSF1jKG5bY0hdbjIpYyhjMjMpbltjSF1uM1tDQEBIXTRPW0NASF0oW0NIMl1bT0hdKVtDQEBIXShbT0hdKVtDQEhdNFtPSF0=

> <s_epik_cmdline>
J2VwaWtfcHl0aG9uJywgJy1waCcsICc3LjAnLCAnLXRuJywgJzgnLCAnLW1hJywgJzIwMCcsICctbWV0YWxfYmluZGluZycsICctaW1hZScsICc8aW5maWxlLm1hZT4nLCAnLW9tYWUnLCAnPG91dGZpbGUubWFlPic=

> <r_lp_tautomer_probability>
1

> <r_epik_Ionization_Penalty>
0.000266407

> <r_epik_Ionization_Penalty_Charging>
0

> <r_epik_Ionization_Penalty_Neutral>
0.000266407

> <r_epik_State_Penalty>
-0

> <r_epik_Charging_Adjusted_Penalty>
0

> <i_epik_Tot_Q>
0

> <i_epik_Tot_abs_Q>
0

> <r_epik_Metal_State_Penalty>
-0

> <b_epik_Metal_Only>
0

> <s_epik_Chemistry_Notes>
This compound contains an acetal/aminal-like group ( X-CH(R)-Y where X, Y are N, S, or O) that may be acid/base labile, releasing an aldehyde.

> <s_lp_Force_Field>
OPLS_2005

> <r_lp_Energy>
48.6958

> <b_lp_Chiralities_Consistent>
1

> <s_lp_Variant>
AV-unprocessed.smi:283-15

> <Gold.Version>
5.8.1

> <Gold.Id.Protein>
6NUR|6NUR_protein|mol2

> <Gold.PLP.Fitness>
49.6653

> <Gold.PLP.PLP>
-41.5811

> <Gold.PLP.part.hbond>
-3.0000

> <Gold.PLP.part.metal>
0.0000

> <Gold.PLP.part.buried>
-7.5904

> <Gold.PLP.part.nonpolar>
-30.8806

> <Gold.PLP.part.repulsive>
0.1072

> <Gold.PLP.ligand.clash>
0.0000

> <Gold.PLP.ligand.torsion>
0.5098

> <Gold.PLP.Chemscore.Hbond>
3.0000

> <Gold.PLP.Chemscore.CHOScore>
0.0000

> <Gold.PLP.Chemscore.Metal>
0.0000

> <Gold.Chemscore.Hbonds>
donor molecule, donor type, donor heavy atom, donor atom, acceptor molecule, acceptor atom, score
      L1  H    21    44       P1  7948  0.50
      P1  H  7997  8009       L1     5  1.00
      P1  H 10752 10763       L1     7  0.99

> <Gold.PLP.Chemscore.Internal.Correction>
0.1037

> <Gold.Rescore>
     Score         DG    S(hbond)    S(metal)    S(lipo)     H(rot)  DE(clash)    DE(int)     intcor
     15.13     -15.75       2.55        0.00     104.56       4.10       0.13       0.49       ----

> <Gold.Chemscore.Fitness>
15.1289

> <Gold.Chemscore.DG>
-15.7514

> <Gold.Chemscore.ZeroCoef>
-5.4800

> <Gold.Chemscore.Hbond>
2.5526

> <Gold.Chemscore.Metal>
0.0000

> <Gold.Chemscore.Lipo>
104.5608

> <Gold.Chemscore.Internal_Hbond>
0.0000

> <Gold.Chemscore.DEClash>
0.1319

> <Gold.Chemscore.DEInternal>
0.4906

> <Gold.Chemscore.Rot>
4.0968

> <Gold.Chemscore.Internal.Correction>
   9.000000E+99

> <Gold.Chemscore.Hbonds>
donor molecule, donor type, donor heavy atom, donor atom, acceptor molecule, acceptor atom, score
      L1  H    21    44       P1  7948  0.36
      P1  H  7997  8009       L1     5  0.82
      P1  H 10752 10763       L1     7  0.42

> <Gold.Chemscore.Hbond.Weighted>
-8.5257

> <Gold.Chemscore.Metal.Weighted>
-0.0000

> <Gold.Chemscore.Lipo.Weighted>
-12.2336

> <Gold.Chemscore.Internal_Hbond.Weighted>
0.0000

> <Gold.Chemscore.DEClash.Weighted>
0.1319

> <Gold.Chemscore.DEInternal.Weighted>
0.4906

> <Gold.Chemscore.Rot.Weighted>
10.4879

> <Gold.Chemscore.Internal.Correction.Weighted>
   9.000000E+99

> <Gold.Protein.RotatedTorsions>
[ 6907 6896 6895 6894 ] final   82.05 input  -60.11 | X-H torsion
[ 7974 7965 7964 7962 ] final   91.87 input  175.53 | X-H torsion
[ 8008 7997 7996 7995 ] final -164.64 input   59.86 | X-H torsion
[ 10167 10162 10161 10158 ] final   48.76 input  -65.29 | X-H torsion
[ 10718 10713 10712 10709 ] final -162.69 input   66.30 | X-H torsion
[ 10763 10752 10751 10750 ] final   77.49 input  -60.55 | X-H torsion
[ 11005 11000 10999 10996 ] final  -45.41 input  -57.11 | X-H torsion

> <Gold.Protein.ActiveResidues>
 VAL166  LYS551  ARG553  GLY616  TRP617  ASP618  TYR619  PRO620  LYS621  CYS622 
 ASP623  PHE694  ASN695  SER759  ASP760  ASP761  ALA762  ILE779  LEU786  VAL792 
 PHE793  MET794  SER795  GLU796  ALA797  LYS798  CYS799  TRP800  GLU811  SER814 

> <Gold.Protein.RotatedAtoms>
  152.5287  134.3110  159.9113 H   0  0  0  0  0  0  0  0  0  0  0  0  # atno 6907 bound_to 6896
  151.3060  133.4095  159.2651 H   0  0  0  0  0  0  0  0  0  0  0  0  # atno 6908 bound_to 6896
  151.0079  134.9390  159.8048 H   0  0  0  0  0  0  0  0  0  0  0  0  # atno 6909 bound_to 6896
  145.4998  139.2276  143.2783 H   0  0  0  0  0  0  0  0  0  0  0  0  # atno 7974 bound_to 7965
  155.8384  140.0944  157.1749 H   0  0  0  0  0  0  0  0  0  0  0  0  # atno 8008 bound_to 7997
  154.3981  140.1405  156.3760 H   0  0  0  0  0  0  0  0  0  0  0  0  # atno 8009 bound_to 7997
  155.8090  140.3450  155.5449 H   0  0  0  0  0  0  0  0  0  0  0  0  # atno 8010 bound_to 7997
  140.2899  144.3058  150.6243 H   0  0  0  0  0  0  0  0  0  0  0  0  # atno 10167 bound_to 10162
  156.6140  130.8862  151.2943 H   0  0  0  0  0  0  0  0  0  0  0  0  # atno 10718 bound_to 10713
  153.0802  135.4912  154.8487 H   0  0  0  0  0  0  0  0  0  0  0  0  # atno 10763 bound_to 10752
  154.7141  135.3026  154.9154 H   0  0  0  0  0  0  0  0  0  0  0  0  # atno 10764 bound_to 10752
  153.9838  135.6786  153.4804 H   0  0  0  0  0  0  0  0  0  0  0  0  # atno 10765 bound_to 10752
  141.0513  133.6742  156.3009 H   0  0  0  0  0  0  0  0  0  0  0  0  # atno 11005 bound_to 11000
  146.2233  140.5798  142.9008 LP  0  0  0  0  0  0  0  0  0  0  0  0  # atno 17320 bound_to 7965
  144.7786  140.5793  143.6621 LP  0  0  0  0  0  0  0  0  0  0  0  0  # atno 17321 bound_to 7965
  140.5741  143.2178  151.7547 LP  0  0  0  0  0  0  0  0  0  0  0  0  # atno 17342 bound_to 10162
  139.4940  144.4175  152.0014 LP  0  0  0  0  0  0  0  0  0  0  0  0  # atno 17343 bound_to 10162
  157.7246  130.9605  150.1582 LP  0  0  0  0  0  0  0  0  0  0  0  0  # atno 17370 bound_to 10713
  156.2366  130.3687  149.8384 LP  0  0  0  0  0  0  0  0  0  0  0  0  # atno 17371 bound_to 10713
  140.6049  134.5517  157.5524 LP  0  0  0  0  0  0  0  0  0  0  0  0  # atno 17394 bound_to 11000
  139.9353  134.7887  156.0819 LP  0  0  0  0  0  0  0  0  0  0  0  0  # atno 17395 bound_to 11000

$$$$
