AV-unprocessed.smi:722|AV-procd|sdf|3504|dock5
  -GOLD-   22720 0503D 1   1.00000     0.00000
 Structure written by MMmdl.
 38 39  0  0  0  0  0  0  0  0  1 V2000
  149.4072  135.6291  157.2047 C   0  0  0  0  0  0  0  0  0  0  0  0
  149.9894  136.8089  157.9135 C   0  0  0  0  0  0  0  0  0  0  0  0
  150.3154  136.8037  159.2082 N   0  0  0  0  0  0  0  0  0  0  0  0
  150.8049  138.0651  159.4670 N   0  0  0  0  0  0  0  0  0  0  0  0
  150.7333  138.7202  158.3062 C   0  0  0  0  0  0  0  0  0  0  0  0
  151.2292  140.3972  158.1067 S   0  0  0  0  0  0  0  0  0  0  0  0
  152.8860  140.2303  158.8228 C   0  0  0  0  0  0  0  0  0  0  0  0
  153.1087  141.2313  159.9637 C   0  0  0  0  0  0  0  0  0  0  0  0
  152.2619  142.5077  159.8203 C   0  0  0  0  0  0  0  0  0  0  0  0
  152.6048  143.3620  158.5943 C   0  0  0  0  0  0  0  0  0  0  0  0
  152.0925  144.7702  158.9213 C   0  0  0  0  0  0  0  0  0  0  0  0
  151.9171  144.8250  160.4463 C   0  0  0  0  0  0  0  0  0  0  0  0
  152.4356  143.4876  160.9824 C   0  0  0  0  0  0  0  0  0  0  0  0
  150.2311  137.9828  157.2944 N   0  0  0  0  0  0  0  0  0  0  0  0
  149.9985  138.3623  155.9064 C   0  0  0  0  0  0  0  0  0  0  0  0
  150.7799  137.4623  154.9459 C   0  0  0  0  0  0  0  0  0  0  0  0
  150.7122  137.7551  153.6447 N   0  0  0  0  0  0  0  0  0  0  0  0
  151.4303  136.5100  155.3712 O   0  0  0  0  0  0  0  0  0  0  0  0
  149.2210  134.8159  157.9068 H   0  0  0  0  0  0  0  0  0  0  0  0
  150.0967  135.2736  156.4387 H   0  0  0  0  0  0  0  0  0  0  0  0
  148.4625  135.8992  156.7327 H   0  0  0  0  0  0  0  0  0  0  0  0
  153.0031  139.2103  159.1888 H   0  0  0  0  0  0  0  0  0  0  0  0
  153.6278  140.3746  158.0368 H   0  0  0  0  0  0  0  0  0  0  0  0
  152.8677  140.7471  160.9107 H   0  0  0  0  0  0  0  0  0  0  0  0
  154.1656  141.4961  160.0165 H   0  0  0  0  0  0  0  0  0  0  0  0
  151.2071  142.2325  159.7669 H   0  0  0  0  0  0  0  0  0  0  0  0
  153.6863  143.3950  158.4552 H   0  0  0  0  0  0  0  0  0  0  0  0
  152.1684  142.9684  157.6757 H   0  0  0  0  0  0  0  0  0  0  0  0
  152.7890  145.5312  158.5674 H   0  0  0  0  0  0  0  0  0  0  0  0
  151.1354  144.9516  158.4306 H   0  0  0  0  0  0  0  0  0  0  0  0
  152.4435  145.6696  160.8918 H   0  0  0  0  0  0  0  0  0  0  0  0
  150.8594  144.9356  160.6882 H   0  0  0  0  0  0  0  0  0  0  0  0
  151.9094  143.1676  161.8823 H   0  0  0  0  0  0  0  0  0  0  0  0
  153.4930  143.5826  161.2339 H   0  0  0  0  0  0  0  0  0  0  0  0
  148.9284  138.3171  155.6994 H   0  0  0  0  0  0  0  0  0  0  0  0
  150.2995  139.3990  155.7561 H   0  0  0  0  0  0  0  0  0  0  0  0
  151.2140  137.1921  152.9729 H   0  0  0  0  0  0  0  0  0  0  0  0
  150.1608  138.5431  153.3369 H   0  0  0  0  0  0  0  0  0  0  0  0
  1  2  1  0  0  0  0
  1 19  1  0  0  0  0
  1 20  1  0  0  0  0
  1 21  1  0  0  0  0
  2 14  1  0  0  0  0
  2  3  2  0  0  0  0
  3  4  1  0  0  0  0
  4  5  2  0  0  0  0
  5  6  1  0  0  0  0
  5 14  1  0  0  0  0
  6  7  1  0  0  0  0
  7  8  1  0  0  0  0
  7 22  1  0  0  0  0
  7 23  1  0  0  0  0
  8  9  1  0  0  0  0
  8 24  1  0  0  0  0
  8 25  1  0  0  0  0
  9 13  1  0  0  0  0
  9 10  1  0  0  0  0
  9 26  1  0  0  0  0
 10 11  1  0  0  0  0
 10 27  1  0  0  0  0
 10 28  1  0  0  0  0
 11 12  1  0  0  0  0
 11 29  1  0  0  0  0
 11 30  1  0  0  0  0
 12 13  1  0  0  0  0
 12 31  1  0  0  0  0
 12 32  1  0  0  0  0
 13 33  1  0  0  0  0
 13 34  1  0  0  0  0
 14 15  1  0  0  0  0
 15 16  1  0  0  0  0
 15 35  1  0  0  0  0
 15 36  1  0  0  0  0
 16 17  1  0  0  0  0
 16 18  2  0  0  0  0
 17 37  1  0  0  0  0
 17 38  1  0  0  0  0
M  END
> <s_m_source_file>
AV-unprocessed.smi

> <i_m_source_file_index>
722

> <i_lp_mmshare_version>
43012

> <i_f3d_flags>
0

> <s_epik_input>
W0NIM11jMW5uYyhuMVtDSDJdQyg9TylbTkgyXSlTW0NIMl1bQ0gyXVtDSF0yW0NIMl1bQ0gyXVtDSDJdW0NIMl0y

> <s_epik_cmdline>
J2VwaWtfcHl0aG9uJywgJy1waCcsICc3LjAnLCAnLXRuJywgJzgnLCAnLW1hJywgJzIwMCcsICctbWV0YWxfYmluZGluZycsICctaW1hZScsICc8aW5maWxlLm1hZT4nLCAnLW9tYWUnLCAnPG91dGZpbGUubWFlPic=

> <r_lp_tautomer_probability>
1

> <r_epik_Ionization_Penalty>
8.38536e-06

> <r_epik_Ionization_Penalty_Charging>
0

> <r_epik_Ionization_Penalty_Neutral>
8.38536e-06

> <r_epik_State_Penalty>
-0

> <r_epik_Charging_Adjusted_Penalty>
0

> <i_epik_Tot_Q>
0

> <i_epik_Tot_abs_Q>
0

> <r_epik_Metal_State_Penalty>
-0

> <b_epik_Metal_Only>
0

> <s_lp_Force_Field>
OPLS_2005

> <r_lp_Energy>
19.4661

> <b_lp_Chiralities_Consistent>
1

> <s_lp_Variant>
AV-unprocessed.smi:722-1

> <Gold.Version>
5.8.1

> <Gold.Id.Protein>
6NUR|6NUR_protein|mol2

> <Gold.PLP.Fitness>
45.1890

> <Gold.PLP.PLP>
-37.5439

> <Gold.PLP.part.hbond>
-5.0000

> <Gold.PLP.part.metal>
0.0000

> <Gold.PLP.part.buried>
-5.1186

> <Gold.PLP.part.nonpolar>
-28.9129

> <Gold.PLP.part.repulsive>
0.1749

> <Gold.PLP.ligand.clash>
0.0000

> <Gold.PLP.ligand.torsion>
0.6666

> <Gold.PLP.Chemscore.Hbond>
2.9840

> <Gold.PLP.Chemscore.CHOScore>
0.0000

> <Gold.PLP.Chemscore.Metal>
0.0000

> <Gold.Chemscore.Hbonds>
donor molecule, donor type, donor heavy atom, donor atom, acceptor molecule, acceptor atom, score
      L1  H    17    37       P1  7949  0.98
      P1  H  6896  6909       L1     3  0.96
      P1  H 10752 10764       L1    18  1.00

> <Gold.PLP.Chemscore.Internal.Correction>
0.0262

> <Gold.Rescore>
     Score         DG    S(hbond)    S(metal)    S(lipo)     H(rot)  DE(clash)    DE(int)     intcor
     14.62     -17.65       2.65        0.00      86.54       2.66       0.06       2.97       ----

> <Gold.Chemscore.Fitness>
14.6152

> <Gold.Chemscore.DG>
-17.6465

> <Gold.Chemscore.ZeroCoef>
-5.4800

> <Gold.Chemscore.Hbond>
2.6485

> <Gold.Chemscore.Metal>
0.0000

> <Gold.Chemscore.Lipo>
86.5433

> <Gold.Chemscore.Internal_Hbond>
0.0000

> <Gold.Chemscore.DEClash>
0.0641

> <Gold.Chemscore.DEInternal>
2.9672

> <Gold.Chemscore.Rot>
2.6583

> <Gold.Chemscore.Internal.Correction>
   9.000000E+99

> <Gold.Chemscore.Hbonds>
donor molecule, donor type, donor heavy atom, donor atom, acceptor molecule, acceptor atom, score
      L1  H    17    37       P1  7949  0.56
      P1  H  6896  6909       L1     3  0.58
      P1  H 10752 10764       L1    18  1.00

> <Gold.Chemscore.Hbond.Weighted>
-8.8461

> <Gold.Chemscore.Metal.Weighted>
-0.0000

> <Gold.Chemscore.Lipo.Weighted>
-10.1256

> <Gold.Chemscore.Internal_Hbond.Weighted>
0.0000

> <Gold.Chemscore.DEClash.Weighted>
0.0641

> <Gold.Chemscore.DEInternal.Weighted>
2.9672

> <Gold.Chemscore.Rot.Weighted>
6.8052

> <Gold.Chemscore.Internal.Correction.Weighted>
   9.000000E+99

> <Gold.Protein.RotatedTorsions>
[ 6907 6896 6895 6894 ] final   71.76 input  -60.11 | X-H torsion
[ 7974 7965 7964 7962 ] final  -38.10 input  175.53 | X-H torsion
[ 8008 7997 7996 7995 ] final  143.96 input   59.86 | X-H torsion
[ 10167 10162 10161 10158 ] final  -71.37 input  -65.29 | X-H torsion
[ 10718 10713 10712 10709 ] final  -98.80 input   66.30 | X-H torsion
[ 10763 10752 10751 10750 ] final  -54.00 input  -60.55 | X-H torsion
[ 11005 11000 10999 10996 ] final   -6.47 input  -57.11 | X-H torsion

> <Gold.Protein.ActiveResidues>
 VAL166  LYS551  ARG553  GLY616  TRP617  ASP618  TYR619  PRO620  LYS621  CYS622 
 ASP623  PHE694  ASN695  SER759  ASP760  ASP761  ALA762  ILE779  LEU786  VAL792 
 PHE793  MET794  SER795  GLU796  ALA797  LYS798  CYS799  TRP800  GLU811  SER814 

> <Gold.Protein.RotatedAtoms>
  152.4829  134.4672  159.9623 H   0  0  0  0  0  0  0  0  0  0  0  0  # atno 6907 bound_to 6896
  151.4674  133.3571  159.2826 H   0  0  0  0  0  0  0  0  0  0  0  0  # atno 6908 bound_to 6896
  150.8915  134.8345  159.7358 H   0  0  0  0  0  0  0  0  0  0  0  0  # atno 6909 bound_to 6896
  146.0517  140.6472  142.9039 H   0  0  0  0  0  0  0  0  0  0  0  0  # atno 7974 bound_to 7965
  156.2919  140.2248  156.4975 H   0  0  0  0  0  0  0  0  0  0  0  0  # atno 8008 bound_to 7997
  154.7718  140.0466  157.1078 H   0  0  0  0  0  0  0  0  0  0  0  0  # atno 8009 bound_to 7997
  154.9865  140.3085  155.4927 H   0  0  0  0  0  0  0  0  0  0  0  0  # atno 8010 bound_to 7997
  140.5278  143.2324  151.7316 H   0  0  0  0  0  0  0  0  0  0  0  0  # atno 10167 bound_to 10162
  156.0117  130.5254  150.6577 H   0  0  0  0  0  0  0  0  0  0  0  0  # atno 10718 bound_to 10713
  154.1679  135.6464  153.5002 H   0  0  0  0  0  0  0  0  0  0  0  0  # atno 10763 bound_to 10752
  153.0092  135.5376  154.6643 H   0  0  0  0  0  0  0  0  0  0  0  0  # atno 10764 bound_to 10752
  154.5974  135.2940  155.0543 H   0  0  0  0  0  0  0  0  0  0  0  0  # atno 10765 bound_to 10752
  140.7023  133.8979  155.8692 H   0  0  0  0  0  0  0  0  0  0  0  0  # atno 11005 bound_to 11000
  144.7126  140.4094  143.7069 LP  0  0  0  0  0  0  0  0  0  0  0  0  # atno 17320 bound_to 7965
  145.6714  139.1600  143.2753 LP  0  0  0  0  0  0  0  0  0  0  0  0  # atno 17321 bound_to 7965
  139.4944  144.4159  152.0030 LP  0  0  0  0  0  0  0  0  0  0  0  0  # atno 17342 bound_to 10162
  140.3260  144.3373  150.5998 LP  0  0  0  0  0  0  0  0  0  0  0  0  # atno 17343 bound_to 10162
  157.4325  131.0851  151.1024 LP  0  0  0  0  0  0  0  0  0  0  0  0  # atno 17370 bound_to 10713
  157.1592  130.6218  149.5605 LP  0  0  0  0  0  0  0  0  0  0  0  0  # atno 17371 bound_to 10713
  141.0153  134.0964  157.4178 LP  0  0  0  0  0  0  0  0  0  0  0  0  # atno 17394 bound_to 11000
  139.8893  135.0104  156.6673 LP  0  0  0  0  0  0  0  0  0  0  0  0  # atno 17395 bound_to 11000

$$$$
