AV-unprocessed.smi:702|AV-procd|sdf|3422|dock3
  -GOLD-   22720 0403D 1   1.00000     0.00000
 Structure written by MMmdl.
 50 52  0  0  0  0  0  0  0  0  2 V2000
  144.1830  135.6448  153.1676 C   0  0  0  0  0  0  0  0  0  0  0  0
  145.5640  135.0469  153.5213 C   0  0  2  0  0  0  0  0  0  0  0  0
  146.5864  136.0777  153.3058 N   0  0  0  0  0  0  0  0  0  0  0  0
  146.5894  137.3082  153.8393 C   0  0  0  0  0  0  0  0  0  0  0  0
  145.7126  137.7257  154.5956 O   0  0  0  0  0  0  0  0  0  0  0  0
  147.6522  138.0174  153.4218 N   0  0  0  0  0  0  0  0  0  0  0  0
  148.0025  139.3531  153.7579 C   0  0  0  0  0  0  0  0  0  0  0  0
  146.9588  140.2975  153.8768 C   0  0  0  0  0  0  0  0  0  0  0  0
  147.2656  141.6364  154.1951 C   0  0  0  0  0  0  0  0  0  0  0  0
  148.5518  142.0081  154.3713 N   0  3  0  0  0  0  0  0  0  0  0  0
  149.5839  141.1455  154.2516 C   0  0  0  0  0  0  0  0  0  0  0  0
  149.3387  139.7935  153.9360 C   0  0  0  0  0  0  0  0  0  0  0  0
  145.9018  133.7090  152.7603 C   0  0  0  0  0  0  0  0  0  0  0  0
  147.1664  133.0892  153.2678 N   0  0  0  0  0  0  0  0  0  0  0  0
  147.3046  131.6459  153.0138 C   0  0  0  0  0  0  0  0  0  0  0  0
  148.5512  131.0555  153.6925 C   0  0  0  0  0  0  0  0  0  0  0  0
  149.7096  131.7367  153.2278 O   0  0  0  0  0  0  0  0  0  0  0  0
  149.6551  133.1338  153.4862 C   0  0  0  0  0  0  0  0  0  0  0  0
  148.4072  133.7425  152.8226 C   0  0  0  0  0  0  0  0  0  0  0  0
  144.6757  132.7444  152.9093 C   0  0  0  0  0  0  0  0  0  0  0  0
  144.0273  132.5920  151.5304 C   0  0  0  0  0  0  0  0  0  0  0  0
  145.1365  132.8986  150.5366 C   0  0  0  0  0  0  0  0  0  0  0  0
  145.9660  133.9834  151.2232 C   0  0  0  0  0  0  0  0  0  0  0  0
  143.3695  134.9471  153.3638 H   0  0  0  0  0  0  0  0  0  0  0  0
  144.1180  135.9336  152.1192 H   0  0  0  0  0  0  0  0  0  0  0  0
  143.9819  136.5367  153.7620 H   0  0  0  0  0  0  0  0  0  0  0  0
  145.5674  134.8307  154.5900 H   0  0  0  0  0  0  0  0  0  0  0  0
  147.3489  135.8259  152.6938 H   0  0  0  0  0  0  0  0  0  0  0  0
  148.2375  137.5743  152.7285 H   0  0  0  0  0  0  0  0  0  0  0  0
  145.9296  140.0007  153.7344 H   0  0  0  0  0  0  0  0  0  0  0  0
  146.5264  142.4156  154.3117 H   0  0  0  0  0  0  0  0  0  0  0  0
  150.5691  141.5610  154.4048 H   0  0  0  0  0  0  0  0  0  0  0  0
  150.1779  139.1236  153.8250 H   0  0  0  0  0  0  0  0  0  0  0  0
  146.4401  131.0859  153.3609 H   0  0  0  0  0  0  0  0  0  0  0  0
  147.3780  131.4583  151.9425 H   0  0  0  0  0  0  0  0  0  0  0  0
  148.4782  131.1386  154.7779 H   0  0  0  0  0  0  0  0  0  0  0  0
  148.6442  129.9954  153.4570 H   0  0  0  0  0  0  0  0  0  0  0  0
  149.6430  133.3119  154.5626 H   0  0  0  0  0  0  0  0  0  0  0  0
  150.5582  133.6024  153.0951 H   0  0  0  0  0  0  0  0  0  0  0  0
  148.5096  133.6697  151.7403 H   0  0  0  0  0  0  0  0  0  0  0  0
  148.4064  134.8027  153.0644 H   0  0  0  0  0  0  0  0  0  0  0  0
  144.9570  131.7659  153.2923 H   0  0  0  0  0  0  0  0  0  0  0  0
  143.9300  133.0917  153.6234 H   0  0  0  0  0  0  0  0  0  0  0  0
  143.5922  131.6038  151.3794 H   0  0  0  0  0  0  0  0  0  0  0  0
  143.2280  133.3255  151.4189 H   0  0  0  0  0  0  0  0  0  0  0  0
  145.7427  132.0073  150.3739 H   0  0  0  0  0  0  0  0  0  0  0  0
  144.7530  133.2173  149.5670 H   0  0  0  0  0  0  0  0  0  0  0  0
  145.5301  134.9497  150.9704 H   0  0  0  0  0  0  0  0  0  0  0  0
  146.9771  134.0162  150.8197 H   0  0  0  0  0  0  0  0  0  0  0  0
  148.7527  142.9821  154.5999 H   0  0  0  0  0  0  0  0  0  0  0  0
  1  2  1  0  0  0  0
  1 24  1  0  0  0  0
  1 25  1  0  0  0  0
  1 26  1  0  0  0  0
  2  3  1  0  0  0  0
  2 13  1  0  0  0  0
  2 27  1  0  0  0  0
  3  4  1  0  0  0  0
  3 28  1  0  0  0  0
  4  5  2  0  0  0  0
  4  6  1  0  0  0  0
  6  7  1  0  0  0  0
  6 29  1  0  0  0  0
  7 12  1  0  0  0  0
  7  8  2  0  0  0  0
  8  9  1  0  0  0  0
  8 30  1  0  0  0  0
  9 10  2  0  0  0  0
  9 31  1  0  0  0  0
 10 11  1  0  0  0  0
 10 50  1  0  0  0  0
 11 12  2  0  0  0  0
 11 32  1  0  0  0  0
 12 33  1  0  0  0  0
 13 23  1  0  0  0  0
 13 14  1  0  0  0  0
 13 20  1  0  0  0  0
 14 19  1  0  0  0  0
 14 15  1  0  0  0  0
 15 16  1  0  0  0  0
 15 34  1  0  0  0  0
 15 35  1  0  0  0  0
 16 17  1  0  0  0  0
 16 36  1  0  0  0  0
 16 37  1  0  0  0  0
 17 18  1  0  0  0  0
 18 19  1  0  0  0  0
 18 38  1  0  0  0  0
 18 39  1  0  0  0  0
 19 40  1  0  0  0  0
 19 41  1  0  0  0  0
 20 21  1  0  0  0  0
 20 42  1  0  0  0  0
 20 43  1  0  0  0  0
 21 22  1  0  0  0  0
 21 44  1  0  0  0  0
 21 45  1  0  0  0  0
 22 23  1  0  0  0  0
 22 46  1  0  0  0  0
 22 47  1  0  0  0  0
 23 48  1  0  0  0  0
 23 49  1  0  0  0  0
M  CHG  1  10   1
M  END
> <s_m_source_file>
AV-unprocessed.smi

> <i_m_source_file_index>
702

> <i_lp_mmshare_version>
43012

> <i_f3d_flags>
0

> <s_epik_input>
W0NIMl0xW0NIMl1PW0NIMl1bQ0gyXU4xQzIoW0NIMl1bQ0gyXVtDSDJdW0NIMl0yKVtDQEhdKFtDSDNdKVtOSF1DKD1PKVtOSF1jM1tjSF1bY0hdbltjSF1bY0hdMw==

> <s_epik_cmdline>
J2VwaWtfcHl0aG9uJywgJy1waCcsICc3LjAnLCAnLXRuJywgJzgnLCAnLW1hJywgJzIwMCcsICctbWV0YWxfYmluZGluZycsICctaW1hZScsICc8aW5maWxlLm1hZT4nLCAnLW9tYWUnLCAnPG91dGZpbGUubWFlPic=

> <r_epik_Ionization_Penalty>
1.54019

> <r_epik_Ionization_Penalty_Charging>
1.02845

> <r_epik_Ionization_Penalty_Neutral>
0.511739

> <r_epik_State_Penalty>
1.62583

> <r_epik_Charging_Adjusted_Penalty>
2.65428

> <i_epik_Tot_Q>
1

> <i_epik_Tot_abs_Q>
1

> <r_epik_Metal_State_Penalty>
1.71803

> <b_epik_Metal_Only>
0

> <s_lp_Force_Field>
OPLS_2005

> <r_lp_Energy>
73.3397

> <b_lp_Chiralities_Consistent>
1

> <s_lp_Variant>
AV-unprocessed.smi:702-7

> <Gold.Version>
5.8.1

> <Gold.Id.Protein>
6NUR|6NUR_protein|mol2

> <Gold.PLP.Fitness>
46.4219

> <Gold.PLP.PLP>
-36.1659

> <Gold.PLP.part.hbond>
-3.0000

> <Gold.PLP.part.metal>
0.0000

> <Gold.PLP.part.buried>
-2.4414

> <Gold.PLP.part.nonpolar>
-30.0750

> <Gold.PLP.part.repulsive>
0.6474

> <Gold.PLP.ligand.clash>
0.0000

> <Gold.PLP.ligand.torsion>
0.8448

> <Gold.PLP.Chemscore.Hbond>
3.9120

> <Gold.PLP.Chemscore.CHOScore>
0.0000

> <Gold.PLP.Chemscore.Metal>
0.0000

> <Gold.Chemscore.Hbonds>
donor molecule, donor type, donor heavy atom, donor atom, acceptor molecule, acceptor atom, score
      L1  H     3    28       P1  7948  1.00
      L1  H     6    29       P1  7948  1.00
      L1  H    10    50       P1  8028  2.00

> <Gold.PLP.Chemscore.Internal.Correction>
0.2097

> <Gold.Rescore>
     Score         DG    S(hbond)    S(metal)    S(lipo)     H(rot)  DE(clash)    DE(int)     intcor
     18.40     -21.77       2.95        0.00      86.47       1.44       0.33       3.04       ----

> <Gold.Chemscore.Fitness>
18.4007

> <Gold.Chemscore.DG>
-21.7692

> <Gold.Chemscore.ZeroCoef>
-5.4800

> <Gold.Chemscore.Hbond>
2.9511

> <Gold.Chemscore.Metal>
0.0000

> <Gold.Chemscore.Lipo>
86.4723

> <Gold.Chemscore.Internal_Hbond>
0.0000

> <Gold.Chemscore.DEClash>
0.3326

> <Gold.Chemscore.DEInternal>
3.0360

> <Gold.Chemscore.Rot>
1.4394

> <Gold.Chemscore.Internal.Correction>
   9.000000E+99

> <Gold.Chemscore.Hbonds>
donor molecule, donor type, donor heavy atom, donor atom, acceptor molecule, acceptor atom, score
      L1  H     3    28       P1  7948  0.96
      L1  H     6    29       P1  7948  0.99
      L1  H    10    50       P1  8028  0.94

> <Gold.Chemscore.Hbond.Weighted>
-9.8568

> <Gold.Chemscore.Metal.Weighted>
-0.0000

> <Gold.Chemscore.Lipo.Weighted>
-10.1173

> <Gold.Chemscore.Internal_Hbond.Weighted>
0.0000

> <Gold.Chemscore.DEClash.Weighted>
0.3326

> <Gold.Chemscore.DEInternal.Weighted>
3.0360

> <Gold.Chemscore.Rot.Weighted>
3.6848

> <Gold.Chemscore.Internal.Correction.Weighted>
   9.000000E+99

> <Gold.Protein.RotatedTorsions>
[ 6907 6896 6895 6894 ] final  -15.57 input  -60.11 | X-H torsion
[ 7974 7965 7964 7962 ] final   30.78 input  175.53 | X-H torsion
[ 8008 7997 7996 7995 ] final  -96.38 input   59.86 | X-H torsion
[ 10167 10162 10161 10158 ] final  -73.02 input  -65.29 | X-H torsion
[ 10718 10713 10712 10709 ] final   51.72 input   66.30 | X-H torsion
[ 10763 10752 10751 10750 ] final   69.03 input  -60.55 | X-H torsion
[ 11005 11000 10999 10996 ] final -135.80 input  -57.11 | X-H torsion

> <Gold.Protein.ActiveResidues>
 VAL166  LYS551  ARG553  GLY616  TRP617  ASP618  TYR619  PRO620  LYS621  CYS622 
 ASP623  PHE694  ASN695  SER759  ASP760  ASP761  ALA762  ILE779  LEU786  VAL792 
 PHE793  MET794  SER795  GLU796  ALA797  LYS798  CYS799  TRP800  GLU811  SER814 

> <Gold.Protein.RotatedAtoms>
  151.3220  135.0821  159.9308 H   0  0  0  0  0  0  0  0  0  0  0  0  # atno 6907 bound_to 6896
  152.5254  133.9629  159.7736 H   0  0  0  0  0  0  0  0  0  0  0  0  # atno 6908 bound_to 6896
  150.9952  133.6058  159.2732 H   0  0  0  0  0  0  0  0  0  0  0  0  # atno 6909 bound_to 6896
  146.1591  139.6744  142.9046 H   0  0  0  0  0  0  0  0  0  0  0  0  # atno 7974 bound_to 7965
  154.7737  140.0472  157.1072 H   0  0  0  0  0  0  0  0  0  0  0  0  # atno 8008 bound_to 7997
  154.9789  140.3099  155.4935 H   0  0  0  0  0  0  0  0  0  0  0  0  # atno 8009 bound_to 7997
  156.2925  140.2239  156.4887 H   0  0  0  0  0  0  0  0  0  0  0  0  # atno 8010 bound_to 7997
  140.5144  143.2340  151.7537 H   0  0  0  0  0  0  0  0  0  0  0  0  # atno 10167 bound_to 10162
  157.5007  130.8436  149.8313 H   0  0  0  0  0  0  0  0  0  0  0  0  # atno 10718 bound_to 10713
  153.0266  135.5225  154.7226 H   0  0  0  0  0  0  0  0  0  0  0  0  # atno 10763 bound_to 10752
  154.6277  135.2896  155.0255 H   0  0  0  0  0  0  0  0  0  0  0  0  # atno 10764 bound_to 10752
  154.1219  135.6606  153.4957 H   0  0  0  0  0  0  0  0  0  0  0  0  # atno 10765 bound_to 10752
  140.8864  134.1866  157.4557 H   0  0  0  0  0  0  0  0  0  0  0  0  # atno 11005 bound_to 11000
  145.4634  141.0433  143.2739 LP  0  0  0  0  0  0  0  0  0  0  0  0  # atno 17320 bound_to 7965
  144.8003  139.6154  143.7075 LP  0  0  0  0  0  0  0  0  0  0  0  0  # atno 17321 bound_to 7965
  139.4905  144.4344  151.9836 LP  0  0  0  0  0  0  0  0  0  0  0  0  # atno 17342 bound_to 10162
  140.3438  144.3172  150.5962 LP  0  0  0  0  0  0  0  0  0  0  0  0  # atno 17343 bound_to 10162
  156.0227  130.3790  150.1913 LP  0  0  0  0  0  0  0  0  0  0  0  0  # atno 17370 bound_to 10713
  157.0103  130.9949  151.3368 LP  0  0  0  0  0  0  0  0  0  0  0  0  # atno 17371 bound_to 10713
  139.8725  134.9840  156.5220 LP  0  0  0  0  0  0  0  0  0  0  0  0  # atno 17394 bound_to 11000
  140.8399  133.8213  155.9065 LP  0  0  0  0  0  0  0  0  0  0  0  0  # atno 17395 bound_to 11000

$$$$
