AV-unprocessed.smi:3039|AV-procd|sdf|11592|dock3
  -GOLD-   2272016563D 1   1.00000     0.00000
 Structure written by MMmdl.
 38 39  0  0  0  0  0  0  0  0  1 V2000
  153.5291  139.6772  158.0859 O   0  0  0  0  0  0  0  0  0  0  0  0
  152.3881  140.1326  158.1587 C   0  0  0  0  0  0  0  0  0  0  0  0
  151.1853  139.2429  157.8426 C   0  0  0  0  0  0  0  0  0  0  0  0
  151.3829  138.5515  156.5195 C   0  0  0  0  0  0  0  0  0  0  0  0
  151.5231  139.1364  155.2302 C   0  0  0  0  0  0  0  0  0  0  0  0
  151.6787  138.0592  154.4061 C   0  0  0  0  0  0  0  0  0  0  0  0
  151.6373  136.9051  155.1188 O   0  0  0  0  0  0  0  0  0  0  0  0
  151.4447  137.2287  156.4665 N   0  0  0  0  0  0  0  0  0  0  0  0
  152.1144  141.3991  158.5087 N   0  0  0  0  0  0  0  0  0  0  0  0
  153.0922  142.4155  158.8997 C   0  0  1  0  0  0  0  0  0  0  0  0
  152.5899  143.8392  158.5593 C   0  0  0  0  0  0  0  0  0  0  0  0
  151.2008  144.1950  159.1260 C   0  0  0  0  0  0  0  0  0  0  0  0
  151.1846  144.7145  160.5739 C   0  0  0  0  0  0  0  0  0  0  0  0
  152.2047  144.0939  161.5434 C   0  0  0  0  0  0  0  0  0  0  0  0
  152.4282  142.5786  161.3993 C   0  0  0  0  0  0  0  0  0  0  0  0
  153.5311  142.2196  160.3729 C   0  0  1  0  0  0  0  0  0  0  0  0
  154.0684  140.7874  160.6030 C   0  0  0  0  0  0  0  0  0  0  0  0
  154.9808  140.7528  161.6811 O   0  0  0  0  0  0  0  0  0  0  0  0
  151.0521  138.5183  158.6473 H   0  0  0  0  0  0  0  0  0  0  0  0
  150.2802  139.8512  157.8204 H   0  0  0  0  0  0  0  0  0  0  0  0
  151.5139  140.1808  154.9552 H   0  0  0  0  0  0  0  0  0  0  0  0
  151.8222  137.9545  153.3409 H   0  0  0  0  0  0  0  0  0  0  0  0
  151.1439  141.6778  158.5330 H   0  0  0  0  0  0  0  0  0  0  0  0
  153.9915  142.2577  158.3009 H   0  0  0  0  0  0  0  0  0  0  0  0
  153.3251  144.5860  158.8611 H   0  0  0  0  0  0  0  0  0  0  0  0
  152.5327  143.9159  157.4727 H   0  0  0  0  0  0  0  0  0  0  0  0
  150.7550  144.9649  158.4952 H   0  0  0  0  0  0  0  0  0  0  0  0
  150.5246  143.3449  159.0411 H   0  0  0  0  0  0  0  0  0  0  0  0
  151.3428  145.7935  160.5661 H   0  0  0  0  0  0  0  0  0  0  0  0
  150.1798  144.5722  160.9736 H   0  0  0  0  0  0  0  0  0  0  0  0
  153.1588  144.6144  161.4523 H   0  0  0  0  0  0  0  0  0  0  0  0
  151.8650  144.3040  162.5583 H   0  0  0  0  0  0  0  0  0  0  0  0
  152.7357  142.2126  162.3791 H   0  0  0  0  0  0  0  0  0  0  0  0
  151.4930  142.0630  161.1786 H   0  0  0  0  0  0  0  0  0  0  0  0
  154.3739  142.8927  160.5384 H   0  0  0  0  0  0  0  0  0  0  0  0
  153.2553  140.0874  160.8005 H   0  0  0  0  0  0  0  0  0  0  0  0
  154.5910  140.4284  159.7157 H   0  0  0  0  0  0  0  0  0  0  0  0
  155.1625  141.6406  161.9496 H   0  0  0  0  0  0  0  0  0  0  0  0
  1  2  2  0  0  0  0
  2  3  1  0  0  0  0
  2  9  1  0  0  0  0
  3  4  1  0  0  0  0
  3 19  1  0  0  0  0
  3 20  1  0  0  0  0
  4  8  2  0  0  0  0
  4  5  1  0  0  0  0
  5  6  2  0  0  0  0
  5 21  1  0  0  0  0
  6  7  1  0  0  0  0
  6 22  1  0  0  0  0
  7  8  1  0  0  0  0
  9 10  1  0  0  0  0
  9 23  1  0  0  0  0
 10 16  1  0  0  0  0
 10 11  1  0  0  0  0
 10 24  1  0  0  0  0
 11 12  1  0  0  0  0
 11 25  1  0  0  0  0
 11 26  1  0  0  0  0
 12 13  1  0  0  0  0
 12 27  1  0  0  0  0
 12 28  1  0  0  0  0
 13 14  1  0  0  0  0
 13 29  1  0  0  0  0
 13 30  1  0  0  0  0
 14 15  1  0  0  0  0
 14 31  1  0  0  0  0
 14 32  1  0  0  0  0
 15 16  1  0  0  0  0
 15 33  1  0  0  0  0
 15 34  1  0  0  0  0
 16 17  1  0  0  0  0
 16 35  1  0  0  0  0
 17 18  1  0  0  0  0
 17 36  1  0  0  0  0
 17 37  1  0  0  0  0
 18 38  1  0  0  0  0
M  END
> <s_m_source_file>
AV-unprocessed.smi

> <i_m_source_file_index>
3039

> <i_lp_mmshare_version>
43012

> <i_f3d_flags>
0

> <s_epik_input>
bjFvW2NIXVtjSF1jMVtDSDJdQyg9TylbTkhdW0NAQEhdMltDSDJdW0NIMl1bQ0gyXVtDSDJdW0NIMl1bQ0BIXTJbQ0gyXVtPSF0=

> <s_epik_cmdline>
J2VwaWtfcHl0aG9uJywgJy1waCcsICc3LjAnLCAnLXRuJywgJzgnLCAnLW1hJywgJzIwMCcsICctbWV0YWxfYmluZGluZycsICctaW1hZScsICc8aW5maWxlLm1hZT4nLCAnLW9tYWUnLCAnPG91dGZpbGUubWFlPic=

> <r_lp_tautomer_probability>
1

> <r_epik_Ionization_Penalty>
3.05817e-07

> <r_epik_Ionization_Penalty_Charging>
0

> <r_epik_Ionization_Penalty_Neutral>
3.05817e-07

> <r_epik_State_Penalty>
-0

> <r_epik_Charging_Adjusted_Penalty>
0

> <i_epik_Tot_Q>
0

> <i_epik_Tot_abs_Q>
0

> <r_epik_Metal_State_Penalty>
-0

> <b_epik_Metal_Only>
0

> <s_lp_Force_Field>
OPLS_2005

> <r_lp_Energy>
19.8887

> <b_lp_Chiralities_Consistent>
1

> <s_lp_Variant>
AV-unprocessed.smi:3039-2

> <Gold.Version>
5.8.1

> <Gold.Id.Protein>
6NUR|6NUR_protein|mol2

> <Gold.PLP.Fitness>
46.8957

> <Gold.PLP.PLP>
-40.9200

> <Gold.PLP.part.hbond>
-3.0000

> <Gold.PLP.part.metal>
0.0000

> <Gold.PLP.part.buried>
-5.4404

> <Gold.PLP.part.nonpolar>
-33.0457

> <Gold.PLP.part.repulsive>
0.1953

> <Gold.PLP.ligand.clash>
0.0000

> <Gold.PLP.ligand.torsion>
0.6440

> <Gold.PLP.Chemscore.Hbond>
2.0000

> <Gold.PLP.Chemscore.CHOScore>
0.4024

> <Gold.PLP.Chemscore.Metal>
0.0000

> <Gold.Chemscore.Hbonds>
donor molecule, donor type, donor heavy atom, donor atom, acceptor molecule, acceptor atom, score
      P1  H  7997  8009       L1     1  1.00
      P1  H 10752 10765       L1     7  1.00
      L1  C     6    22       P1  7949  0.40

> <Gold.PLP.Chemscore.Internal.Correction>
0.0564

> <Gold.Rescore>
     Score         DG    S(hbond)    S(metal)    S(lipo)     H(rot)  DE(clash)    DE(int)     intcor
     18.77     -19.32       1.93        0.00     112.70       2.26       0.02       0.53       ----

> <Gold.Chemscore.Fitness>
18.7731

> <Gold.Chemscore.DG>
-19.3196

> <Gold.Chemscore.ZeroCoef>
-5.4800

> <Gold.Chemscore.Hbond>
1.9291

> <Gold.Chemscore.Metal>
0.0000

> <Gold.Chemscore.Lipo>
112.7009

> <Gold.Chemscore.Internal_Hbond>
0.0000

> <Gold.Chemscore.DEClash>
0.0162

> <Gold.Chemscore.DEInternal>
0.5302

> <Gold.Chemscore.Rot>
2.2616

> <Gold.Chemscore.Internal.Correction>
   9.000000E+99

> <Gold.Chemscore.Hbonds>
donor molecule, donor type, donor heavy atom, donor atom, acceptor molecule, acceptor atom, score
      P1  H  7997  8009       L1     1  0.95
      P1  H 10752 10765       L1     7  0.87

> <Gold.Chemscore.Hbond.Weighted>
-6.4432

> <Gold.Chemscore.Metal.Weighted>
-0.0000

> <Gold.Chemscore.Lipo.Weighted>
-13.1860

> <Gold.Chemscore.Internal_Hbond.Weighted>
0.0000

> <Gold.Chemscore.DEClash.Weighted>
0.0162

> <Gold.Chemscore.DEInternal.Weighted>
0.5302

> <Gold.Chemscore.Rot.Weighted>
5.7896

> <Gold.Chemscore.Internal.Correction.Weighted>
   9.000000E+99

> <Gold.Protein.RotatedTorsions>
[ 6907 6896 6895 6894 ] final  -43.87 input  -60.11 | X-H torsion
[ 7974 7965 7964 7962 ] final -171.98 input  175.53 | X-H torsion
[ 8008 7997 7996 7995 ] final  145.65 input   59.86 | X-H torsion
[ 10167 10162 10161 10158 ] final   23.16 input  -65.29 | X-H torsion
[ 10718 10713 10712 10709 ] final  171.52 input   66.30 | X-H torsion
[ 10763 10752 10751 10750 ] final -177.02 input  -60.55 | X-H torsion
[ 11005 11000 10999 10996 ] final   79.95 input  -57.11 | X-H torsion

> <Gold.Protein.ActiveResidues>
 VAL166  LYS551  ARG553  GLY616  TRP617  ASP618  TYR619  PRO620  LYS621  CYS622 
 ASP623  PHE694  ASN695  SER759  ASP760  ASP761  ALA762  ILE779  LEU786  VAL792 
 PHE793  MET794  SER795  GLU796  ALA797  LYS798  CYS799  TRP800  GLU811  SER814 

> <Gold.Protein.RotatedAtoms>
  150.9391  134.8801  159.7600 H   0  0  0  0  0  0  0  0  0  0  0  0  # atno 6907 bound_to 6896
  152.5072  134.3968  159.9413 H   0  0  0  0  0  0  0  0  0  0  0  0  # atno 6908 bound_to 6896
  151.3990  133.3724  159.2765 H   0  0  0  0  0  0  0  0  0  0  0  0  # atno 6909 bound_to 6896
  144.7151  140.1840  143.6355 H   0  0  0  0  0  0  0  0  0  0  0  0  # atno 7974 bound_to 7965
  156.2877  140.2203  156.5250 H   0  0  0  0  0  0  0  0  0  0  0  0  # atno 8008 bound_to 7997
  154.7496  140.0481  157.0904 H   0  0  0  0  0  0  0  0  0  0  0  0  # atno 8009 bound_to 7997
  155.0126  140.3115  155.4827 H   0  0  0  0  0  0  0  0  0  0  0  0  # atno 8010 bound_to 7997
  140.5291  143.9872  150.6456 H   0  0  0  0  0  0  0  0  0  0  0  0  # atno 10167 bound_to 10162
  156.9923  131.0151  151.2853 H   0  0  0  0  0  0  0  0  0  0  0  0  # atno 10718 bound_to 10713
  154.5653  135.2823  155.0880 H   0  0  0  0  0  0  0  0  0  0  0  0  # atno 10763 bound_to 10752
  154.2273  135.6380  153.5167 H   0  0  0  0  0  0  0  0  0  0  0  0  # atno 10764 bound_to 10752
  153.0041  135.5529  154.6259 H   0  0  0  0  0  0  0  0  0  0  0  0  # atno 10765 bound_to 10752
  139.9153  134.7883  156.1846 H   0  0  0  0  0  0  0  0  0  0  0  0  # atno 11005 bound_to 11000
  145.8830  139.2333  143.1594 LP  0  0  0  0  0  0  0  0  0  0  0  0  # atno 17320 bound_to 7965
  145.9977  140.8548  143.0034 LP  0  0  0  0  0  0  0  0  0  0  0  0  # atno 17321 bound_to 7965
  140.3242  143.3118  152.0753 LP  0  0  0  0  0  0  0  0  0  0  0  0  # atno 17342 bound_to 10162
  139.4948  144.6553  151.6586 LP  0  0  0  0  0  0  0  0  0  0  0  0  # atno 17343 bound_to 10162
  157.5450  130.8144  149.8074 LP  0  0  0  0  0  0  0  0  0  0  0  0  # atno 17370 bound_to 10713
  156.0202  130.3798  150.1985 LP  0  0  0  0  0  0  0  0  0  0  0  0  # atno 17371 bound_to 10713
  141.0621  133.6836  156.1973 LP  0  0  0  0  0  0  0  0  0  0  0  0  # atno 17394 bound_to 11000
  140.6644  134.4934  157.5585 LP  0  0  0  0  0  0  0  0  0  0  0  0  # atno 17395 bound_to 11000

$$$$
