AV-unprocessed.smi:1884|AV-procd|sdf|7646|dock4
  -GOLD-   22720 9373D 1   1.00000     0.00000
 Structure written by MMmdl.
 40 42  0  0  0  0  0  0  0  0  1 V2000
  151.7402  139.0460  155.3785 C   0  0  0  0  0  0  0  0  0  0  0  0
  151.7610  140.1363  156.4020 C   0  0  0  0  0  0  0  0  0  0  0  0
  152.6051  140.1272  157.4339 N   0  0  0  0  0  0  0  0  0  0  0  0
  152.2741  141.2881  158.1060 C   0  0  0  0  0  0  0  0  0  0  0  0
  152.8086  141.8496  159.2877 C   0  0  0  0  0  0  0  0  0  0  0  0
  152.3019  143.0645  159.7937 C   0  0  0  0  0  0  0  0  0  0  0  0
  151.2558  143.7346  159.1266 C   0  0  0  0  0  0  0  0  0  0  0  0
  150.7096  143.1933  157.9470 C   0  0  0  0  0  0  0  0  0  0  0  0
  151.2185  141.9798  157.4464 C   0  0  0  0  0  0  0  0  0  0  0  0
  150.9169  141.1950  156.3372 N   0  0  0  0  0  0  0  0  0  0  0  0
  149.9001  141.4696  155.3308 C   0  0  0  0  0  0  0  0  0  0  0  0
  148.5646  140.7541  155.6203 C   0  0  2  0  0  0  0  0  0  0  0  0
  148.8114  139.4787  156.1779 O   0  0  0  0  0  0  0  0  0  0  0  0
  147.7113  140.5698  154.3571 C   0  0  0  0  0  0  0  0  0  0  0  0
  147.4657  141.8414  153.7709 O   0  0  0  0  0  0  0  0  0  0  0  0
  146.4758  142.6302  154.3169 C   0  0  0  0  0  0  0  0  0  0  0  0
  145.8192  143.5263  153.4485 C   0  0  0  0  0  0  0  0  0  0  0  0
  144.7965  144.3713  153.9208 C   0  0  0  0  0  0  0  0  0  0  0  0
  144.4177  144.3292  155.2770 C   0  0  0  0  0  0  0  0  0  0  0  0
  143.3650  145.2020  155.7691 C   0  0  0  0  0  0  0  0  0  0  0  0
  142.5269  145.8970  156.1606 N   0  0  0  0  0  0  0  0  0  0  0  0
  145.0649  143.4374  156.1548 C   0  0  0  0  0  0  0  0  0  0  0  0
  146.0875  142.5929  155.6802 C   0  0  0  0  0  0  0  0  0  0  0  0
  152.5113  138.3055  155.5938 H   0  0  0  0  0  0  0  0  0  0  0  0
  151.9248  139.4532  154.3847 H   0  0  0  0  0  0  0  0  0  0  0  0
  150.7729  138.5435  155.3819 H   0  0  0  0  0  0  0  0  0  0  0  0
  153.6104  141.3446  159.8060 H   0  0  0  0  0  0  0  0  0  0  0  0
  152.7174  143.4843  160.6981 H   0  0  0  0  0  0  0  0  0  0  0  0
  150.8735  144.6647  159.5209 H   0  0  0  0  0  0  0  0  0  0  0  0
  149.9105  143.7061  157.4325 H   0  0  0  0  0  0  0  0  0  0  0  0
  149.7489  142.5475  155.2706 H   0  0  0  0  0  0  0  0  0  0  0  0
  150.2868  141.1670  154.3569 H   0  0  0  0  0  0  0  0  0  0  0  0
  147.9918  141.3232  156.3529 H   0  0  0  0  0  0  0  0  0  0  0  0
  148.1191  138.8950  155.9070 H   0  0  0  0  0  0  0  0  0  0  0  0
  148.2228  139.9120  153.6520 H   0  0  0  0  0  0  0  0  0  0  0  0
  146.7601  140.1059  154.6242 H   0  0  0  0  0  0  0  0  0  0  0  0
  146.1027  143.5660  152.4070 H   0  0  0  0  0  0  0  0  0  0  0  0
  144.3070  145.0498  153.2367 H   0  0  0  0  0  0  0  0  0  0  0  0
  144.7822  143.3956  157.1970 H   0  0  0  0  0  0  0  0  0  0  0  0
  146.5595  141.9254  156.3850 H   0  0  0  0  0  0  0  0  0  0  0  0
  1  2  1  0  0  0  0
  1 24  1  0  0  0  0
  1 25  1  0  0  0  0
  1 26  1  0  0  0  0
  2 10  1  0  0  0  0
  2  3  2  0  0  0  0
  3  4  1  0  0  0  0
  4  9  2  0  0  0  0
  4  5  1  0  0  0  0
  5  6  2  0  0  0  0
  5 27  1  0  0  0  0
  6  7  1  0  0  0  0
  6 28  1  0  0  0  0
  7  8  2  0  0  0  0
  7 29  1  0  0  0  0
  8  9  1  0  0  0  0
  8 30  1  0  0  0  0
  9 10  1  0  0  0  0
 10 11  1  0  0  0  0
 11 12  1  0  0  0  0
 11 31  1  0  0  0  0
 11 32  1  0  0  0  0
 12 13  1  0  0  0  0
 12 14  1  0  0  0  0
 12 33  1  0  0  0  0
 13 34  1  0  0  0  0
 14 15  1  0  0  0  0
 14 35  1  0  0  0  0
 14 36  1  0  0  0  0
 15 16  1  0  0  0  0
 16 23  1  0  0  0  0
 16 17  2  0  0  0  0
 17 18  1  0  0  0  0
 17 37  1  0  0  0  0
 18 19  2  0  0  0  0
 18 38  1  0  0  0  0
 19 20  1  0  0  0  0
 19 22  1  0  0  0  0
 20 21  3  0  0  0  0
 22 23  2  0  0  0  0
 22 39  1  0  0  0  0
 23 40  1  0  0  0  0
M  END
> <s_m_source_file>
AV-unprocessed.smi

> <i_m_source_file_index>
1884

> <i_lp_mmshare_version>
43012

> <i_f3d_flags>
0

> <s_epik_input>
W2NIXTFbY0hdW2NIXVtjSF1jKGMxMiluKGMobjIpW0NIM10pW0NIMl1bQ0BIXShbT0hdKVtDSDJdT2MzW2NIXVtjSF1jKEMjTilbY0hdW2NIXTM=

> <s_epik_cmdline>
J2VwaWtfcHl0aG9uJywgJy1waCcsICc3LjAnLCAnLXRuJywgJzgnLCAnLW1hJywgJzIwMCcsICctbWV0YWxfYmluZGluZycsICctaW1hZScsICc8aW5maWxlLm1hZT4nLCAnLW9tYWUnLCAnPG91dGZpbGUubWFlPic=

> <r_epik_Ionization_Penalty>
0.110799

> <r_epik_Ionization_Penalty_Charging>
0

> <r_epik_Ionization_Penalty_Neutral>
0.110799

> <r_epik_State_Penalty>
0.100537

> <r_epik_Charging_Adjusted_Penalty>
0.100537

> <i_epik_Tot_Q>
0

> <i_epik_Tot_abs_Q>
0

> <r_epik_Metal_State_Penalty>
0.000109561

> <b_epik_Metal_Only>
0

> <s_lp_Force_Field>
OPLS_2005

> <r_lp_Energy>
14.1942

> <b_lp_Chiralities_Consistent>
1

> <s_lp_Variant>
AV-unprocessed.smi:1884-1

> <Gold.Version>
5.8.1

> <Gold.Id.Protein>
6NUR|6NUR_protein|mol2

> <Gold.PLP.Fitness>
45.5371

> <Gold.PLP.PLP>
-44.5159

> <Gold.PLP.part.hbond>
-1.0000

> <Gold.PLP.part.metal>
0.0000

> <Gold.PLP.part.buried>
-6.1715

> <Gold.PLP.part.nonpolar>
-37.9982

> <Gold.PLP.part.repulsive>
0.1707

> <Gold.PLP.ligand.clash>
0.0000

> <Gold.PLP.ligand.torsion>
1.0569

> <Gold.PLP.Chemscore.Hbond>
1.0000

> <Gold.PLP.Chemscore.CHOScore>
0.0000

> <Gold.PLP.Chemscore.Metal>
0.0000

> <Gold.Chemscore.Hbonds>
donor molecule, donor type, donor heavy atom, donor atom, acceptor molecule, acceptor atom, score
      P1  H  7997  8009       L1     3  1.00

> <Gold.PLP.Chemscore.Internal.Correction>
0.1349

> <Gold.Rescore>
     Score         DG    S(hbond)    S(metal)    S(lipo)     H(rot)  DE(clash)    DE(int)     intcor
     14.40     -15.62       0.85        0.00     112.89       2.31       0.11       1.11       ----

> <Gold.Chemscore.Fitness>
14.4015

> <Gold.Chemscore.DG>
-15.6246

> <Gold.Chemscore.ZeroCoef>
-5.4800

> <Gold.Chemscore.Hbond>
0.8534

> <Gold.Chemscore.Metal>
0.0000

> <Gold.Chemscore.Lipo>
112.8916

> <Gold.Chemscore.Internal_Hbond>
0.0000

> <Gold.Chemscore.DEClash>
0.1137

> <Gold.Chemscore.DEInternal>
1.1095

> <Gold.Chemscore.Rot>
2.3102

> <Gold.Chemscore.Internal.Correction>
   9.000000E+99

> <Gold.Chemscore.Hbonds>
donor molecule, donor type, donor heavy atom, donor atom, acceptor molecule, acceptor atom, score
      P1  H  7997  8009       L1     3  0.44

> <Gold.Chemscore.Hbond.Weighted>
-2.8504

> <Gold.Chemscore.Metal.Weighted>
-0.0000

> <Gold.Chemscore.Lipo.Weighted>
-13.2083

> <Gold.Chemscore.Internal_Hbond.Weighted>
0.0000

> <Gold.Chemscore.DEClash.Weighted>
0.1137

> <Gold.Chemscore.DEInternal.Weighted>
1.1095

> <Gold.Chemscore.Rot.Weighted>
5.9141

> <Gold.Chemscore.Internal.Correction.Weighted>
   9.000000E+99

> <Gold.Protein.RotatedTorsions>
[ 6907 6896 6895 6894 ] final -154.51 input  -60.11 | X-H torsion
[ 7974 7965 7964 7962 ] final  177.56 input  175.53 | X-H torsion
[ 8008 7997 7996 7995 ] final -179.90 input   59.86 | X-H torsion
[ 10167 10162 10161 10158 ] final   55.02 input  -65.29 | X-H torsion
[ 10718 10713 10712 10709 ] final  -30.39 input   66.30 | X-H torsion
[ 10763 10752 10751 10750 ] final   50.41 input  -60.55 | X-H torsion
[ 11005 11000 10999 10996 ] final -136.05 input  -57.11 | X-H torsion

> <Gold.Protein.ActiveResidues>
 VAL166  LYS551  ARG553  GLY616  TRP617  ASP618  TYR619  PRO620  LYS621  CYS622 
 ASP623  PHE694  ASN695  SER759  ASP760  ASP761  ALA762  ILE779  LEU786  VAL792 
 PHE793  MET794  SER795  GLU796  ALA797  LYS798  CYS799  TRP800  GLU811  SER814 

> <Gold.Protein.RotatedAtoms>
  151.2585  133.4314  159.2614 H   0  0  0  0  0  0  0  0  0  0  0  0  # atno 6907 bound_to 6896
  151.0552  134.9700  159.8242 H   0  0  0  0  0  0  0  0  0  0  0  0  # atno 6908 bound_to 6896
  152.5389  134.2538  159.8962 H   0  0  0  0  0  0  0  0  0  0  0  0  # atno 6909 bound_to 6896
  144.7167  140.0265  143.6439 H   0  0  0  0  0  0  0  0  0  0  0  0  # atno 7974 bound_to 7965
  156.0359  140.1292  157.0208 H   0  0  0  0  0  0  0  0  0  0  0  0  # atno 8008 bound_to 7997
  154.4369  140.1040  156.6237 H   0  0  0  0  0  0  0  0  0  0  0  0  # atno 8009 bound_to 7997
  155.5739  140.3467  155.4524 H   0  0  0  0  0  0  0  0  0  0  0  0  # atno 8010 bound_to 7997
  140.2239  144.3759  150.6440 H   0  0  0  0  0  0  0  0  0  0  0  0  # atno 10167 bound_to 10162
  156.4004  130.4389  149.7327 H   0  0  0  0  0  0  0  0  0  0  0  0  # atno 10718 bound_to 10713
  152.9785  135.5880  154.4247 H   0  0  0  0  0  0  0  0  0  0  0  0  # atno 10763 bound_to 10752
  154.3868  135.2767  155.2181 H   0  0  0  0  0  0  0  0  0  0  0  0  # atno 10764 bound_to 10752
  154.4070  135.6090  153.5985 H   0  0  0  0  0  0  0  0  0  0  0  0  # atno 10765 bound_to 10752
  140.8841  134.1894  157.4571 H   0  0  0  0  0  0  0  0  0  0  0  0  # atno 11005 bound_to 11000
  146.0138  139.3192  143.0854 LP  0  0  0  0  0  0  0  0  0  0  0  0  # atno 17320 bound_to 7965
  145.8650  140.9453  143.0680 LP  0  0  0  0  0  0  0  0  0  0  0  0  # atno 17321 bound_to 7965
  140.6235  143.2178  151.6645 LP  0  0  0  0  0  0  0  0  0  0  0  0  # atno 17342 bound_to 10162
  139.5134  144.3444  152.0711 LP  0  0  0  0  0  0  0  0  0  0  0  0  # atno 17343 bound_to 10162
  156.4345  130.7831  151.2852 LP  0  0  0  0  0  0  0  0  0  0  0  0  # atno 17370 bound_to 10713
  157.7503  131.0144  150.3461 LP  0  0  0  0  0  0  0  0  0  0  0  0  # atno 17371 bound_to 10713
  139.8722  134.9830  156.5180 LP  0  0  0  0  0  0  0  0  0  0  0  0  # atno 17394 bound_to 11000
  140.8425  133.8194  155.9089 LP  0  0  0  0  0  0  0  0  0  0  0  0  # atno 17395 bound_to 11000

$$$$
