AV-unprocessed.smi:426|AV-procd|sdf|2541|dock3
  -GOLD-   2262022503D 1   1.00000     0.00000
 Structure written by MMmdl.
 37 38  0  0  0  0  0  0  0  0  1 V2000
  154.3809  134.5281  161.5574 C   0  0  0  0  0  0  0  0  0  0  0  0
  154.5461  135.9257  162.1778 C   0  0  0  0  0  0  0  0  0  0  0  0
  153.9889  135.9680  163.6105 C   0  0  0  0  0  0  0  0  0  0  0  0
  153.8736  136.9944  161.3048 C   0  0  0  0  0  0  0  0  0  0  0  0
  153.1842  136.6484  160.3456 O   0  0  0  0  0  0  0  0  0  0  0  0
  154.1120  138.2722  161.6558 N   0  0  0  0  0  0  0  0  0  0  0  0
  153.6207  139.4705  161.0690 C   0  0  0  0  0  0  0  0  0  0  0  0
  152.7233  139.5226  159.9769 C   0  0  0  0  0  0  0  0  0  0  0  0
  152.2959  140.7781  159.5038 C   0  0  0  0  0  0  0  0  0  0  0  0
  152.7627  141.9544  160.1363 C   0  0  0  0  0  0  0  0  0  0  0  0
  152.3393  143.2230  159.6822 N   0  0  0  0  0  0  0  0  0  0  0  0
  153.1855  143.9234  158.7172 C   0  0  0  0  0  0  0  0  0  0  0  0
  152.4400  145.1324  158.1268 C   0  0  0  0  0  0  0  0  0  0  0  0
  151.9897  145.9790  159.1788 O   0  0  0  0  0  0  0  0  0  0  0  0
  151.0783  145.3088  160.0429 C   0  0  0  0  0  0  0  0  0  0  0  0
  151.7728  144.1039  160.7009 C   0  0  0  0  0  0  0  0  0  0  0  0
  153.6205  141.8999  161.1849 N   0  0  0  0  0  0  0  0  0  0  0  0
  154.0281  140.6949  161.6347 C   0  0  0  0  0  0  0  0  0  0  0  0
  154.7686  134.4976  160.5384 H   0  0  0  0  0  0  0  0  0  0  0  0
  153.3339  134.2232  161.5252 H   0  0  0  0  0  0  0  0  0  0  0  0
  154.9231  133.7793  162.1353 H   0  0  0  0  0  0  0  0  0  0  0  0
  155.6142  136.1440  162.2281 H   0  0  0  0  0  0  0  0  0  0  0  0
  154.0986  136.9606  164.0496 H   0  0  0  0  0  0  0  0  0  0  0  0
  154.5187  135.2659  164.2548 H   0  0  0  0  0  0  0  0  0  0  0  0
  152.9302  135.7065  163.6380 H   0  0  0  0  0  0  0  0  0  0  0  0
  154.7593  138.4024  162.4199 H   0  0  0  0  0  0  0  0  0  0  0  0
  152.3442  138.6340  159.4978 H   0  0  0  0  0  0  0  0  0  0  0  0
  151.6249  140.8212  158.6591 H   0  0  0  0  0  0  0  0  0  0  0  0
  154.0998  144.2542  159.2120 H   0  0  0  0  0  0  0  0  0  0  0  0
  153.4757  143.2499  157.9099 H   0  0  0  0  0  0  0  0  0  0  0  0
  153.1031  145.6996  157.4736 H   0  0  0  0  0  0  0  0  0  0  0  0
  151.5939  144.8090  157.5183 H   0  0  0  0  0  0  0  0  0  0  0  0
  150.7352  146.0068  160.8065 H   0  0  0  0  0  0  0  0  0  0  0  0
  150.1967  144.9908  159.4840 H   0  0  0  0  0  0  0  0  0  0  0  0
  151.0533  143.5842  161.3316 H   0  0  0  0  0  0  0  0  0  0  0  0
  152.5764  144.4476  161.3537 H   0  0  0  0  0  0  0  0  0  0  0  0
  154.7059  140.7118  162.4759 H   0  0  0  0  0  0  0  0  0  0  0  0
  1  2  1  0  0  0  0
  1 19  1  0  0  0  0
  1 20  1  0  0  0  0
  1 21  1  0  0  0  0
  2  3  1  0  0  0  0
  2  4  1  0  0  0  0
  2 22  1  0  0  0  0
  3 23  1  0  0  0  0
  3 24  1  0  0  0  0
  3 25  1  0  0  0  0
  4  5  2  0  0  0  0
  4  6  1  0  0  0  0
  6  7  1  0  0  0  0
  6 26  1  0  0  0  0
  7 18  1  0  0  0  0
  7  8  2  0  0  0  0
  8  9  1  0  0  0  0
  8 27  1  0  0  0  0
  9 10  2  0  0  0  0
  9 28  1  0  0  0  0
 10 11  1  0  0  0  0
 10 17  1  0  0  0  0
 11 16  1  0  0  0  0
 11 12  1  0  0  0  0
 12 13  1  0  0  0  0
 12 29  1  0  0  0  0
 12 30  1  0  0  0  0
 13 14  1  0  0  0  0
 13 31  1  0  0  0  0
 13 32  1  0  0  0  0
 14 15  1  0  0  0  0
 15 16  1  0  0  0  0
 15 33  1  0  0  0  0
 15 34  1  0  0  0  0
 16 35  1  0  0  0  0
 16 36  1  0  0  0  0
 17 18  2  0  0  0  0
 18 37  1  0  0  0  0
M  END
> <s_m_source_file>
AV-unprocessed.smi

> <i_m_source_file_index>
426

> <i_lp_mmshare_version>
43012

> <i_f3d_flags>
0

> <s_epik_input>
W0NIM11bQ0hdKFtDSDNdKUMoPU8pW05IXWMxW2NIXVtjSF1jKG5bY0hdMSlOMltDSDJdW0NIMl1PW0NIMl1bQ0gyXTI=

> <s_epik_cmdline>
J2VwaWtfcHl0aG9uJywgJy1waCcsICc3LjAnLCAnLXRuJywgJzgnLCAnLW1hJywgJzIwMCcsICctbWV0YWxfYmluZGluZycsICctaW1hZScsICc8aW5maWxlLm1hZT4nLCAnLW9tYWUnLCAnPG91dGZpbGUubWFlPic=

> <r_lp_tautomer_probability>
1

> <r_epik_Ionization_Penalty>
0.000693659

> <r_epik_Ionization_Penalty_Charging>
0

> <r_epik_Ionization_Penalty_Neutral>
0.000693659

> <r_epik_State_Penalty>
0.000430321

> <r_epik_Charging_Adjusted_Penalty>
0.000430321

> <i_epik_Tot_Q>
0

> <i_epik_Tot_abs_Q>
0

> <r_epik_Metal_State_Penalty>
-0

> <b_epik_Metal_Only>
0

> <s_lp_Force_Field>
OPLS_2005

> <r_lp_Energy>
23.904

> <b_lp_Chiralities_Consistent>
1

> <s_lp_Variant>
AV-unprocessed.smi:426-1

> <Gold.Version>
5.8.1

> <Gold.Id.Protein>
6NUR|6NUR_protein|mol2

> <Gold.PLP.Fitness>
38.9685

> <Gold.PLP.PLP>
-36.9576

> <Gold.PLP.part.hbond>
-1.7951

> <Gold.PLP.part.metal>
0.0000

> <Gold.PLP.part.buried>
-6.8739

> <Gold.PLP.part.nonpolar>
-28.9203

> <Gold.PLP.part.repulsive>
0.1242

> <Gold.PLP.ligand.clash>
0.0000

> <Gold.PLP.ligand.torsion>
0.4869

> <Gold.PLP.Chemscore.Hbond>
0.8775

> <Gold.PLP.Chemscore.CHOScore>
0.0000

> <Gold.PLP.Chemscore.Metal>
0.0000

> <Gold.Chemscore.Hbonds>
donor molecule, donor type, donor heavy atom, donor atom, acceptor molecule, acceptor atom, score
      P1  H  6896  6908       L1     5  1.00

> <Gold.PLP.Chemscore.Internal.Correction>
0.3522

> <Gold.Rescore>
     Score         DG    S(hbond)    S(metal)    S(lipo)     H(rot)  DE(clash)    DE(int)     intcor
     15.41     -17.14       1.00        0.00      96.91       1.18       0.28       1.45       ----

> <Gold.Chemscore.Fitness>
15.4100

> <Gold.Chemscore.DG>
-17.1447

> <Gold.Chemscore.ZeroCoef>
-5.4800

> <Gold.Chemscore.Hbond>
0.9983

> <Gold.Chemscore.Metal>
0.0000

> <Gold.Chemscore.Lipo>
96.9097

> <Gold.Chemscore.Internal_Hbond>
0.0000

> <Gold.Chemscore.DEClash>
0.2812

> <Gold.Chemscore.DEInternal>
1.4534

> <Gold.Chemscore.Rot>
1.1750

> <Gold.Chemscore.Internal.Correction>
   9.000000E+99

> <Gold.Chemscore.Hbonds>
donor molecule, donor type, donor heavy atom, donor atom, acceptor molecule, acceptor atom, score
      P1  H  6896  6908       L1     5  0.97

> <Gold.Chemscore.Hbond.Weighted>
-3.3342

> <Gold.Chemscore.Metal.Weighted>
-0.0000

> <Gold.Chemscore.Lipo.Weighted>
-11.3384

> <Gold.Chemscore.Internal_Hbond.Weighted>
0.0000

> <Gold.Chemscore.DEClash.Weighted>
0.2812

> <Gold.Chemscore.DEInternal.Weighted>
1.4534

> <Gold.Chemscore.Rot.Weighted>
3.0080

> <Gold.Chemscore.Internal.Correction.Weighted>
   9.000000E+99

> <Gold.Protein.RotatedTorsions>
[ 6907 6896 6895 6894 ] final  -81.49 input  -60.11 | X-H torsion
[ 7974 7965 7964 7962 ] final   59.04 input  175.53 | X-H torsion
[ 8008 7997 7996 7995 ] final    2.55 input   59.86 | X-H torsion
[ 10167 10162 10161 10158 ] final -137.27 input  -65.29 | X-H torsion
[ 10718 10713 10712 10709 ] final  -90.42 input   66.30 | X-H torsion
[ 10763 10752 10751 10750 ] final   95.05 input  -60.55 | X-H torsion
[ 11005 11000 10999 10996 ] final   -2.96 input  -57.11 | X-H torsion

> <Gold.Protein.ActiveResidues>
 VAL166  LYS551  ARG553  GLY616  TRP617  ASP618  TYR619  PRO620  LYS621  CYS622 
 ASP623  PHE694  ASN695  SER759  ASP760  ASP761  ALA762  ILE779  LEU786  VAL792 
 PHE793  MET794  SER795  GLU796  ALA797  LYS798  CYS799  TRP800  GLU811  SER814 

> <Gold.Protein.RotatedAtoms>
  150.6911  134.3809  159.5033 H   0  0  0  0  0  0  0  0  0  0  0  0  # atno 6907 bound_to 6896
  152.1611  134.8908  160.0550 H   0  0  0  0  0  0  0  0  0  0  0  0  # atno 6908 bound_to 6896
  151.9970  133.3776  159.4203 H   0  0  0  0  0  0  0  0  0  0  0  0  # atno 6909 bound_to 6896
  145.9116  139.3658  143.0532 H   0  0  0  0  0  0  0  0  0  0  0  0  # atno 7974 bound_to 7965
  154.6930  140.2657  155.6794 H   0  0  0  0  0  0  0  0  0  0  0  0  # atno 8008 bound_to 7997
  156.2739  140.2787  156.1438 H   0  0  0  0  0  0  0  0  0  0  0  0  # atno 8009 bound_to 7997
  155.0870  140.0373  157.2647 H   0  0  0  0  0  0  0  0  0  0  0  0  # atno 8010 bound_to 7997
  139.8594  143.7096  152.2651 H   0  0  0  0  0  0  0  0  0  0  0  0  # atno 10167 bound_to 10162
  155.9988  130.4909  150.5321 H   0  0  0  0  0  0  0  0  0  0  0  0  # atno 10718 bound_to 10713
  153.2487  135.4267  155.0775 H   0  0  0  0  0  0  0  0  0  0  0  0  # atno 10763 bound_to 10752
  154.8372  135.3420  154.6543 H   0  0  0  0  0  0  0  0  0  0  0  0  # atno 10764 bound_to 10752
  153.6965  135.7031  153.5132 H   0  0  0  0  0  0  0  0  0  0  0  0  # atno 10765 bound_to 10752
  140.6641  133.9294  155.8454 H   0  0  0  0  0  0  0  0  0  0  0  0  # atno 11005 bound_to 11000
  145.8665  140.9445  143.0673 LP  0  0  0  0  0  0  0  0  0  0  0  0  # atno 17320 bound_to 7965
  144.6744  140.0598  143.7476 LP  0  0  0  0  0  0  0  0  0  0  0  0  # atno 17321 bound_to 7965
  139.7388  144.7564  151.0685 LP  0  0  0  0  0  0  0  0  0  0  0  0  # atno 17342 bound_to 10162
  140.7777  143.4998  150.9786 LP  0  0  0  0  0  0  0  0  0  0  0  0  # atno 17343 bound_to 10162
  157.3269  131.0692  151.1890 LP  0  0  0  0  0  0  0  0  0  0  0  0  # atno 17370 bound_to 10713
  157.2784  130.6738  149.6054 LP  0  0  0  0  0  0  0  0  0  0  0  0  # atno 17371 bound_to 10713
  141.0442  134.0577  157.3864 LP  0  0  0  0  0  0  0  0  0  0  0  0  # atno 17394 bound_to 11000
  139.9003  135.0162  156.7235 LP  0  0  0  0  0  0  0  0  0  0  0  0  # atno 17395 bound_to 11000

$$$$
