AV-unprocessed.smi:34|AV-procd|sdf|233|dock8
  -GOLD-   2262015573D 1   1.00000     0.00000
 Structure written by MMmdl.
 54 58  0  0  0  0  0  0  0  0  2 V2000
  152.4068  139.7306  156.7873 O   0  0  0  0  0  0  0  0  0  0  0  0
  151.6195  140.6660  156.6287 C   0  0  0  0  0  0  0  0  0  0  0  0
  150.6539  140.7913  155.6832 N   0  5  0  0  0  0  0  0  0  0  0  0
  149.9419  139.7190  155.3045 C   0  0  0  0  0  0  0  0  0  0  0  0
  150.3956  138.4672  155.5680 N   0  0  0  0  0  0  0  0  0  0  0  0
  149.6927  137.3981  155.1776 C   0  0  0  0  0  0  0  0  0  0  0  0
  148.5340  137.3532  154.5141 N   0  0  0  0  0  0  0  0  0  0  0  0
  148.0667  138.6043  154.2371 C   0  0  0  0  0  0  0  0  0  0  0  0
  148.7129  139.8236  154.5962 C   0  0  0  0  0  0  0  0  0  0  0  0
  147.9779  140.9167  154.1629 N   0  0  0  0  0  0  0  0  0  0  0  0
  146.9398  140.3262  153.5762 C   0  0  0  0  0  0  0  0  0  0  0  0
  146.9109  138.9788  153.5679 N   0  0  0  0  0  0  0  0  0  0  0  0
  145.8551  138.1156  152.9542 C   0  0  2  0  0  0  0  0  0  0  0  0
  145.3151  137.2859  153.9410 O   0  0  0  0  0  0  0  0  0  0  0  0
  145.1638  135.9473  153.4543 C   0  0  2  0  0  0  0  0  0  0  0  0
  146.1411  135.0125  154.1804 C   0  0  0  0  0  0  0  0  0  0  0  0
  146.1566  133.7479  153.5383 O   0  0  0  0  0  0  0  0  0  0  0  0
  146.6719  132.6773  154.1743 C   0  0  0  0  0  0  0  0  0  0  0  0
  147.1675  132.7266  155.3021 O   0  0  0  0  0  0  0  0  0  0  0  0
  146.5791  131.4240  153.3720 C   0  0  0  0  0  0  0  0  0  0  0  0
  146.0525  131.4795  152.0604 C   0  0  0  0  0  0  0  0  0  0  0  0
  145.9535  130.3133  151.2770 C   0  0  0  0  0  0  0  0  0  0  0  0
  146.3806  129.0771  151.7956 C   0  0  0  0  0  0  0  0  0  0  0  0
  146.9073  129.0088  153.0986 C   0  0  0  0  0  0  0  0  0  0  0  0
  147.0075  130.1741  153.8836 C   0  0  0  0  0  0  0  0  0  0  0  0
  145.4661  136.0392  151.9568 C   0  0  1  0  0  0  0  0  0  0  0  0
  144.3260  136.3414  151.3288 F   0  0  0  0  0  0  0  0  0  0  0  0
  146.4477  137.1977  151.8895 C   0  0  1  0  0  0  0  0  0  0  0  0
  146.4646  137.7611  150.5933 O   0  0  0  0  0  0  0  0  0  0  0  0
  151.7351  141.8714  157.5232 C   0  0  0  0  0  0  0  0  0  0  0  0
  152.4713  141.7824  158.7268 C   0  0  0  0  0  0  0  0  0  0  0  0
  152.5701  142.8912  159.5901 C   0  0  0  0  0  0  0  0  0  0  0  0
  151.9261  144.0991  159.2632 C   0  0  0  0  0  0  0  0  0  0  0  0
  151.1791  144.1960  158.0744 C   0  0  0  0  0  0  0  0  0  0  0  0
  151.0791  143.0875  157.2110 C   0  0  0  0  0  0  0  0  0  0  0  0
  150.1212  136.4396  155.4306 H   0  0  0  0  0  0  0  0  0  0  0  0
  146.1545  140.9092  153.1179 H   0  0  0  0  0  0  0  0  0  0  0  0
  145.0910  138.7975  152.5770 H   0  0  0  0  0  0  0  0  0  0  0  0
  144.1425  135.6027  153.6228 H   0  0  0  0  0  0  0  0  0  0  0  0
  147.1477  135.4312  154.1506 H   0  0  0  0  0  0  0  0  0  0  0  0
  145.8672  134.9153  155.2307 H   0  0  0  0  0  0  0  0  0  0  0  0
  145.7189  132.4174  151.6401 H   0  0  0  0  0  0  0  0  0  0  0  0
  145.5504  130.3685  150.2763 H   0  0  0  0  0  0  0  0  0  0  0  0
  146.3056  128.1832  151.1942 H   0  0  0  0  0  0  0  0  0  0  0  0
  147.2363  128.0605  153.4976 H   0  0  0  0  0  0  0  0  0  0  0  0
  147.4188  130.0871  154.8787 H   0  0  0  0  0  0  0  0  0  0  0  0
  145.8471  135.1140  151.5232 H   0  0  0  0  0  0  0  0  0  0  0  0
  147.4461  136.8741  152.1885 H   0  0  0  0  0  0  0  0  0  0  0  0
  145.6023  138.0973  150.4018 H   0  0  0  0  0  0  0  0  0  0  0  0
  152.9704  140.8620  158.9933 H   0  0  0  0  0  0  0  0  0  0  0  0
  153.1397  142.8133  160.5043 H   0  0  0  0  0  0  0  0  0  0  0  0
  152.0013  144.9488  159.9254 H   0  0  0  0  0  0  0  0  0  0  0  0
  150.6789  145.1199  157.8248 H   0  0  0  0  0  0  0  0  0  0  0  0
  150.4911  143.1798  156.3092 H   0  0  0  0  0  0  0  0  0  0  0  0
  1  2  2  0  0  0  0
  2  3  1  0  0  0  0
  2 30  1  0  0  0  0
  3  4  1  0  0  0  0
  4  9  1  0  0  0  0
  4  5  2  0  0  0  0
  5  6  1  0  0  0  0
  6  7  2  0  0  0  0
  6 36  1  0  0  0  0
  7  8  1  0  0  0  0
  8 12  1  0  0  0  0
  8  9  2  0  0  0  0
  9 10  1  0  0  0  0
 10 11  2  0  0  0  0
 11 12  1  0  0  0  0
 11 37  1  0  0  0  0
 12 13  1  0  0  0  0
 13 28  1  0  0  0  0
 13 14  1  0  0  0  0
 13 38  1  0  0  0  0
 14 15  1  0  0  0  0
 15 16  1  0  0  0  0
 15 26  1  0  0  0  0
 15 39  1  0  0  0  0
 16 17  1  0  0  0  0
 16 40  1  0  0  0  0
 16 41  1  0  0  0  0
 17 18  1  0  0  0  0
 18 19  2  0  0  0  0
 18 20  1  0  0  0  0
 20 25  1  0  0  0  0
 20 21  2  0  0  0  0
 21 22  1  0  0  0  0
 21 42  1  0  0  0  0
 22 23  2  0  0  0  0
 22 43  1  0  0  0  0
 23 24  1  0  0  0  0
 23 44  1  0  0  0  0
 24 25  2  0  0  0  0
 24 45  1  0  0  0  0
 25 46  1  0  0  0  0
 26 27  1  0  0  0  0
 26 28  1  0  0  0  0
 26 47  1  0  0  0  0
 28 29  1  0  0  0  0
 28 48  1  0  0  0  0
 29 49  1  0  0  0  0
 30 35  1  0  0  0  0
 30 31  2  0  0  0  0
 31 32  1  0  0  0  0
 31 50  1  0  0  0  0
 32 33  2  0  0  0  0
 32 51  1  0  0  0  0
 33 34  1  0  0  0  0
 33 52  1  0  0  0  0
 34 35  2  0  0  0  0
 34 53  1  0  0  0  0
 35 54  1  0  0  0  0
M  CHG  1   3  -1
M  END
> <s_m_source_file>
AV-unprocessed.smi

> <i_m_source_file_index>
34

> <i_lp_mmshare_version>
43012

> <i_f3d_flags>
0

> <s_epik_input>
W2NIXTFbY0hdW2NIXVtjSF1bY0hdYzFDKD1PKVtOSF1jKG5bY0hdbjIpYyhjMjMpbltjSF1uM1tDQEBIXTRPW0NASF0oW0NAQEhdKEYpW0NASF00W09IXSlbQ0gyXU9DKD1PKWM1W2NIXVtjSF1bY0hdW2NIXVtjSF01

> <s_epik_cmdline>
J2VwaWtfcHl0aG9uJywgJy1waCcsICc3LjAnLCAnLXRuJywgJzgnLCAnLW1hJywgJzIwMCcsICctbWV0YWxfYmluZGluZycsICctaW1hZScsICc8aW5maWxlLm1hZT4nLCAnLW9tYWUnLCAnPG91dGZpbGUubWFlPic=

> <r_lp_tautomer_probability>
1

> <r_epik_Ionization_Penalty>
4.33227

> <r_epik_Ionization_Penalty_Charging>
3.41027

> <r_epik_Ionization_Penalty_Neutral>
0.922001

> <r_epik_State_Penalty>
3.41358

> <r_epik_Charging_Adjusted_Penalty>
6.82385

> <i_epik_Tot_Q>
-1

> <i_epik_Tot_abs_Q>
1

> <r_epik_Metal_State_Penalty>
0.496292

> <b_epik_Metal_Only>
1

> <s_epik_Chemistry_Notes>
This compound has an ester and may undergo hydrolysis at high or low pH. This compound contains an acetal/aminal-like group ( X-CH(R)-Y where X, Y are N, S, or O) that may be acid/base labile, releasing an aldehyde.

> <s_lp_Force_Field>
OPLS_2005

> <r_lp_Energy>
46.7296

> <b_lp_Chiralities_Consistent>
1

> <s_lp_Variant>
AV-unprocessed.smi:34-19

> <Gold.Version>
5.8.1

> <Gold.Id.Protein>
6NUR|6NUR_protein|mol2

> <Gold.PLP.Fitness>
57.5932

> <Gold.PLP.PLP>
-46.8295

> <Gold.PLP.part.hbond>
-4.3006

> <Gold.PLP.part.metal>
0.0000

> <Gold.PLP.part.buried>
-3.1782

> <Gold.PLP.part.nonpolar>
-42.7999

> <Gold.PLP.part.repulsive>
2.0872

> <Gold.PLP.ligand.clash>
0.0000

> <Gold.PLP.ligand.torsion>
0.5384

> <Gold.PLP.Chemscore.Hbond>
3.1306

> <Gold.PLP.Chemscore.CHOScore>
0.7309

> <Gold.PLP.Chemscore.Metal>
0.0000

> <Gold.Chemscore.Hbonds>
donor molecule, donor type, donor heavy atom, donor atom, acceptor molecule, acceptor atom, score
      L1  H    29    49       P1 10171  1.00
      P1  H  7954  7966       L1    29  0.99
      P1  H  7989  7998       L1     3  0.05
      P1  H  7997  8008       L1     1  1.00
      L1  C    11    37       P1 10175  0.88

> <Gold.PLP.Chemscore.Internal.Correction>
0.2562

> <Gold.Rescore>
     Score         DG    S(hbond)    S(metal)    S(lipo)     H(rot)  DE(clash)    DE(int)     intcor
     18.55     -22.61       2.87        0.00     123.54       2.69       1.95       2.12       ----

> <Gold.Chemscore.Fitness>
18.5502

> <Gold.Chemscore.DG>
-22.6134

> <Gold.Chemscore.ZeroCoef>
-5.4800

> <Gold.Chemscore.Hbond>
2.8671

> <Gold.Chemscore.Metal>
0.0000

> <Gold.Chemscore.Lipo>
123.5441

> <Gold.Chemscore.Internal_Hbond>
0.0000

> <Gold.Chemscore.DEClash>
1.9467

> <Gold.Chemscore.DEInternal>
2.1165

> <Gold.Chemscore.Rot>
2.6944

> <Gold.Chemscore.Internal.Correction>
   9.000000E+99

> <Gold.Chemscore.Hbonds>
donor molecule, donor type, donor heavy atom, donor atom, acceptor molecule, acceptor atom, score
      L1  H    29    49       P1 10171  1.00
      P1  H  7954  7966       L1    29  0.81
      P1  H  7997  8008       L1     1  0.92

> <Gold.Chemscore.Hbond.Weighted>
-9.5762

> <Gold.Chemscore.Metal.Weighted>
-0.0000

> <Gold.Chemscore.Lipo.Weighted>
-14.4547

> <Gold.Chemscore.Internal_Hbond.Weighted>
0.0000

> <Gold.Chemscore.DEClash.Weighted>
1.9467

> <Gold.Chemscore.DEInternal.Weighted>
2.1165

> <Gold.Chemscore.Rot.Weighted>
6.8975

> <Gold.Chemscore.Internal.Correction.Weighted>
   9.000000E+99

> <Gold.Protein.RotatedTorsions>
[ 6907 6896 6895 6894 ] final  134.05 input  -60.11 | X-H torsion
[ 7974 7965 7964 7962 ] final -108.16 input  175.53 | X-H torsion
[ 8008 7997 7996 7995 ] final  -61.68 input   59.86 | X-H torsion
[ 10167 10162 10161 10158 ] final  156.66 input  -65.29 | X-H torsion
[ 10718 10713 10712 10709 ] final  -70.45 input   66.30 | X-H torsion
[ 10763 10752 10751 10750 ] final  -46.16 input  -60.55 | X-H torsion
[ 11005 11000 10999 10996 ] final -146.52 input  -57.11 | X-H torsion

> <Gold.Protein.ActiveResidues>
 VAL166  LYS551  ARG553  GLY616  TRP617  ASP618  TYR619  PRO620  LYS621  CYS622 
 ASP623  PHE694  ASN695  SER759  ASP760  ASP761  ALA762  ILE779  LEU786  VAL792 
 PHE793  MET794  SER795  GLU796  ALA797  LYS798  CYS799  TRP800  GLU811  SER814 

> <Gold.Protein.RotatedAtoms>
  152.3155  133.5798  159.5708 H   0  0  0  0  0  0  0  0  0  0  0  0  # atno 6907 bound_to 6896
  150.7344  134.0089  159.3672 H   0  0  0  0  0  0  0  0  0  0  0  0  # atno 6908 bound_to 6896
  151.7978  135.0718  160.0447 H   0  0  0  0  0  0  0  0  0  0  0  0  # atno 6909 bound_to 6896
  145.1963  140.9037  143.3395 H   0  0  0  0  0  0  0  0  0  0  0  0  # atno 7974 bound_to 7965
  154.4460  140.1012  156.6468 H   0  0  0  0  0  0  0  0  0  0  0  0  # atno 8008 bound_to 7997
  155.5441  140.3484  155.4435 H   0  0  0  0  0  0  0  0  0  0  0  0  # atno 8009 bound_to 7997
  156.0576  140.1318  156.9968 H   0  0  0  0  0  0  0  0  0  0  0  0  # atno 8010 bound_to 7997
  139.4821  144.4989  151.8199 H   0  0  0  0  0  0  0  0  0  0  0  0  # atno 10167 bound_to 10162
  156.0407  130.4332  150.2298 H   0  0  0  0  0  0  0  0  0  0  0  0  # atno 10718 bound_to 10713
  154.0404  135.6645  153.4789 H   0  0  0  0  0  0  0  0  0  0  0  0  # atno 10763 bound_to 10752
  153.0504  135.5088  154.7848 H   0  0  0  0  0  0  0  0  0  0  0  0  # atno 10764 bound_to 10752
  154.6822  135.3047  154.9563 H   0  0  0  0  0  0  0  0  0  0  0  0  # atno 10765 bound_to 10752
  140.7811  134.3078  157.5045 H   0  0  0  0  0  0  0  0  0  0  0  0  # atno 11005 bound_to 11000
  144.9992  139.3615  143.6176 LP  0  0  0  0  0  0  0  0  0  0  0  0  # atno 17320 bound_to 7965
  146.3426  139.9208  142.8767 LP  0  0  0  0  0  0  0  0  0  0  0  0  # atno 17321 bound_to 7965
  140.4480  144.1895  150.5895 LP  0  0  0  0  0  0  0  0  0  0  0  0  # atno 17342 bound_to 10162
  140.4615  143.2447  151.9214 LP  0  0  0  0  0  0  0  0  0  0  0  0  # atno 17343 bound_to 10162
  157.0393  131.0030  151.3288 LP  0  0  0  0  0  0  0  0  0  0  0  0  # atno 17370 bound_to 10713
  157.5221  130.8004  149.7821 LP  0  0  0  0  0  0  0  0  0  0  0  0  # atno 17371 bound_to 10713
  139.8742  134.9319  156.3539 LP  0  0  0  0  0  0  0  0  0  0  0  0  # atno 17394 bound_to 11000
  140.9482  133.7469  156.0236 LP  0  0  0  0  0  0  0  0  0  0  0  0  # atno 17395 bound_to 11000

$$$$
