AV-unprocessed.smi:207|AV-procd|sdf|1603|dock6
  -GOLD-   2262019513D 1   1.00000     0.00000
 Structure written by MMmdl.
 56 59  0  0  0  0  0  0  0  0  2 V2000
  147.4178  135.7150  156.3749 C   0  0  0  0  0  0  0  0  0  0  0  0
  147.8370  136.1379  154.9472 C   0  0  0  0  0  0  0  0  0  0  0  0
  146.5888  136.6319  154.1795 C   0  0  0  0  0  0  0  0  0  0  0  0
  148.7934  137.3556  155.0308 C   0  0  0  0  0  0  0  0  0  0  0  0
  150.1262  136.9941  155.5024 N   0  0  0  0  0  0  0  0  0  0  0  0
  150.8779  138.0110  155.9967 C   0  0  0  0  0  0  0  0  0  0  0  0
  152.0203  137.6728  156.6489 N   0  0  0  0  0  0  0  0  0  0  0  0
  152.8117  138.6165  157.1649 C   0  0  0  0  0  0  0  0  0  0  0  0
  152.6509  139.9398  157.1452 N   0  0  0  0  0  0  0  0  0  0  0  0
  151.5086  140.2921  156.4907 C   0  0  0  0  0  0  0  0  0  0  0  0
  150.5707  139.4016  155.8910 C   0  0  0  0  0  0  0  0  0  0  0  0
  149.5251  140.1334  155.3378 N   0  0  0  0  0  0  0  0  0  0  0  0
  149.8272  141.3764  155.5934 C   0  0  0  0  0  0  0  0  0  0  0  0
  151.0078  141.5648  156.2750 N   0  0  0  0  0  0  0  0  0  0  0  0
  151.5742  142.8380  156.6980 C   0  0  0  0  0  0  0  0  0  0  0  0
  151.4017  143.1439  158.1984 C   0  0  0  0  0  0  0  0  0  0  0  0
  151.9064  141.9360  159.0139 C   0  0  0  0  0  0  0  0  0  0  0  0
  151.8376  142.1560  160.4089 O   0  0  0  0  0  0  0  0  0  0  0  0
  151.9133  144.5235  158.6396 C   0  0  0  0  0  0  0  0  0  0  0  0
  150.6695  144.8299  159.3074 O   0  0  0  0  0  0  0  0  0  0  0  0
  150.0443  143.7186  158.6288 C   0  0  0  0  0  0  0  0  0  0  0  0
  150.7711  135.9390  154.7385 C   0  0  0  0  0  0  0  0  0  0  0  0
  149.8759  134.6963  154.6931 C   0  0  0  0  0  0  0  0  0  0  0  0
  148.5018  135.0088  154.2070 N   0  3  1  0  0  0  0  0  0  0  0  0
  147.6844  133.7716  154.0494 C   0  0  0  0  0  0  0  0  0  0  0  0
  148.4424  132.6769  153.2808 C   0  0  0  0  0  0  0  0  0  0  0  0
  147.9456  132.5847  151.9625 O   0  0  0  0  0  0  0  0  0  0  0  0
  146.9461  136.5444  156.9030 H   0  0  0  0  0  0  0  0  0  0  0  0
  148.2697  135.3998  156.9771 H   0  0  0  0  0  0  0  0  0  0  0  0
  146.6998  134.8949  156.3653 H   0  0  0  0  0  0  0  0  0  0  0  0
  146.2029  137.5547  154.6151 H   0  0  0  0  0  0  0  0  0  0  0  0
  145.7630  135.9224  154.1982 H   0  0  0  0  0  0  0  0  0  0  0  0
  146.8224  136.8406  153.1348 H   0  0  0  0  0  0  0  0  0  0  0  0
  148.9103  137.8008  154.0413 H   0  0  0  0  0  0  0  0  0  0  0  0
  148.3457  138.1280  155.6574 H   0  0  0  0  0  0  0  0  0  0  0  0
  153.7008  138.2608  157.6647 H   0  0  0  0  0  0  0  0  0  0  0  0
  149.1937  142.1962  155.2869 H   0  0  0  0  0  0  0  0  0  0  0  0
  152.6315  142.8438  156.4299 H   0  0  0  0  0  0  0  0  0  0  0  0
  151.1164  143.6217  156.0929 H   0  0  0  0  0  0  0  0  0  0  0  0
  151.3155  141.0455  158.8004 H   0  0  0  0  0  0  0  0  0  0  0  0
  152.9407  141.6995  158.7617 H   0  0  0  0  0  0  0  0  0  0  0  0
  152.6739  142.4837  160.7033 H   0  0  0  0  0  0  0  0  0  0  0  0
  152.7644  144.4954  159.3208 H   0  0  0  0  0  0  0  0  0  0  0  0
  152.1053  145.2102  157.8134 H   0  0  0  0  0  0  0  0  0  0  0  0
  149.4199  144.0607  157.8033 H   0  0  0  0  0  0  0  0  0  0  0  0
  149.4788  143.0750  159.3035 H   0  0  0  0  0  0  0  0  0  0  0  0
  150.9647  136.2939  153.7253 H   0  0  0  0  0  0  0  0  0  0  0  0
  151.7313  135.6781  155.1853 H   0  0  0  0  0  0  0  0  0  0  0  0
  150.3443  133.9528  154.0492 H   0  0  0  0  0  0  0  0  0  0  0  0
  149.8211  134.2491  155.6864 H   0  0  0  0  0  0  0  0  0  0  0  0
  147.3921  133.4023  155.0336 H   0  0  0  0  0  0  0  0  0  0  0  0
  146.7502  133.9574  153.5247 H   0  0  0  0  0  0  0  0  0  0  0  0
  149.5164  132.8583  153.2562 H   0  0  0  0  0  0  0  0  0  0  0  0
  148.2956  131.7134  153.7695 H   0  0  0  0  0  0  0  0  0  0  0  0
  148.5249  132.0321  151.4594 H   0  0  0  0  0  0  0  0  0  0  0  0
  148.6211  135.3638  153.2687 H   0  0  0  0  0  0  0  0  0  0  0  0
  1  2  1  0  0  0  0
  1 28  1  0  0  0  0
  1 29  1  0  0  0  0
  1 30  1  0  0  0  0
  2 24  1  0  0  0  0
  2  3  1  0  0  0  0
  2  4  1  0  0  0  0
  3 31  1  0  0  0  0
  3 32  1  0  0  0  0
  3 33  1  0  0  0  0
  4  5  1  0  0  0  0
  4 34  1  0  0  0  0
  4 35  1  0  0  0  0
  5  6  1  0  0  0  0
  5 22  1  0  0  0  0
  6 11  1  0  0  0  0
  6  7  2  0  0  0  0
  7  8  1  0  0  0  0
  8  9  2  0  0  0  0
  8 36  1  0  0  0  0
  9 10  1  0  0  0  0
 10 14  1  0  0  0  0
 10 11  2  0  0  0  0
 11 12  1  0  0  0  0
 12 13  2  0  0  0  0
 13 14  1  0  0  0  0
 13 37  1  0  0  0  0
 14 15  1  0  0  0  0
 15 16  1  0  0  0  0
 15 38  1  0  0  0  0
 15 39  1  0  0  0  0
 16 21  1  0  0  0  0
 16 17  1  0  0  0  0
 16 19  1  0  0  0  0
 17 18  1  0  0  0  0
 17 40  1  0  0  0  0
 17 41  1  0  0  0  0
 18 42  1  0  0  0  0
 19 20  1  0  0  0  0
 19 43  1  0  0  0  0
 19 44  1  0  0  0  0
 20 21  1  0  0  0  0
 21 45  1  0  0  0  0
 21 46  1  0  0  0  0
 22 23  1  0  0  0  0
 22 47  1  0  0  0  0
 22 48  1  0  0  0  0
 23 24  1  0  0  0  0
 23 49  1  0  0  0  0
 23 50  1  0  0  0  0
 24 25  1  0  0  0  0
 24 56  1  0  0  0  0
 25 26  1  0  0  0  0
 25 51  1  0  0  0  0
 25 52  1  0  0  0  0
 26 27  1  0  0  0  0
 26 53  1  0  0  0  0
 26 54  1  0  0  0  0
 27 55  1  0  0  0  0
M  CHG  1  24   1
M  END
> <s_m_source_file>
AV-unprocessed.smi

> <i_m_source_file_index>
207

> <i_lp_mmshare_version>
43012

> <i_f3d_flags>
0

> <s_epik_input>
W09IXVtDSDJdW0NIMl1OMVtDSDJdW0NIMl1OKFtDSDJdQzEoW0NIM10pW0NIM10pYyhuW2NIXW4yKWMoYzIzKW5bY0hdbjNbQ0gyXUM0KFtDSDJdW09IXSlbQ0gyXU9bQ0gyXTQ=

> <s_epik_cmdline>
J2VwaWtfcHl0aG9uJywgJy1waCcsICc3LjAnLCAnLXRuJywgJzgnLCAnLW1hJywgJzIwMCcsICctbWV0YWxfYmluZGluZycsICctaW1hZScsICc8aW5maWxlLm1hZT4nLCAnLW9tYWUnLCAnPG91dGZpbGUubWFlPic=

> <r_lp_tautomer_probability>
1

> <r_epik_Ionization_Penalty>
0.416568

> <r_epik_Ionization_Penalty_Charging>
0.416506

> <r_epik_Ionization_Penalty_Neutral>
6.2219e-05

> <r_epik_State_Penalty>
0.419386

> <r_epik_Charging_Adjusted_Penalty>
0.835892

> <i_epik_Tot_Q>
1

> <i_epik_Tot_abs_Q>
1

> <r_epik_Metal_State_Penalty>
0.420232

> <b_epik_Metal_Only>
0

> <s_lp_Force_Field>
OPLS_2005

> <r_lp_Energy>
56.8459

> <b_lp_Chiralities_Consistent>
1

> <s_lp_Variant>
AV-unprocessed.smi:207-2

> <Gold.Version>
5.8.1

> <Gold.Id.Protein>
6NUR|6NUR_protein|mol2

> <Gold.PLP.Fitness>
48.7132

> <Gold.PLP.PLP>
-36.2093

> <Gold.PLP.part.hbond>
-3.7803

> <Gold.PLP.part.metal>
0.0000

> <Gold.PLP.part.buried>
-5.0234

> <Gold.PLP.part.nonpolar>
-26.7777

> <Gold.PLP.part.repulsive>
0.3039

> <Gold.PLP.ligand.clash>
0.0000

> <Gold.PLP.ligand.torsion>
1.0193

> <Gold.PLP.Chemscore.Hbond>
3.5500

> <Gold.PLP.Chemscore.CHOScore>
1.0000

> <Gold.PLP.Chemscore.Metal>
0.0000

> <Gold.Chemscore.Hbonds>
donor molecule, donor type, donor heavy atom, donor atom, acceptor molecule, acceptor atom, score
      L1  H    24    56       P1  7948  2.00
      L1  H    27    55       P1 10747  1.00
      P1  H  7997  8010       L1     9  0.45
      L1  C    13    37       P1  8028  0.92

> <Gold.PLP.Chemscore.Internal.Correction>
0.8926

> <Gold.Rescore>
     Score         DG    S(hbond)    S(metal)    S(lipo)     H(rot)  DE(clash)    DE(int)     intcor
      9.24     -14.85       2.81        0.00      83.03       3.80       2.01       3.60       ----

> <Gold.Chemscore.Fitness>
9.2447

> <Gold.Chemscore.DG>
-14.8512

> <Gold.Chemscore.ZeroCoef>
-5.4800

> <Gold.Chemscore.Hbond>
2.8094

> <Gold.Chemscore.Metal>
0.0000

> <Gold.Chemscore.Lipo>
83.0344

> <Gold.Chemscore.Internal_Hbond>
0.0000

> <Gold.Chemscore.DEClash>
2.0077

> <Gold.Chemscore.DEInternal>
3.5988

> <Gold.Chemscore.Rot>
3.7997

> <Gold.Chemscore.Internal.Correction>
   9.000000E+99

> <Gold.Chemscore.Hbonds>
donor molecule, donor type, donor heavy atom, donor atom, acceptor molecule, acceptor atom, score
      L1  H    24    56       P1  7948  0.90
      L1  H    27    55       P1 10747  0.99
      P1  H  7997  8010       L1     9  0.02

> <Gold.Chemscore.Hbond.Weighted>
-9.3835

> <Gold.Chemscore.Metal.Weighted>
-0.0000

> <Gold.Chemscore.Lipo.Weighted>
-9.7150

> <Gold.Chemscore.Internal_Hbond.Weighted>
0.0000

> <Gold.Chemscore.DEClash.Weighted>
2.0077

> <Gold.Chemscore.DEInternal.Weighted>
3.5988

> <Gold.Chemscore.Rot.Weighted>
9.7273

> <Gold.Chemscore.Internal.Correction.Weighted>
   9.000000E+99

> <Gold.Protein.RotatedTorsions>
[ 6907 6896 6895 6894 ] final -113.72 input  -60.11 | X-H torsion
[ 7974 7965 7964 7962 ] final -136.26 input  175.53 | X-H torsion
[ 8008 7997 7996 7995 ] final   68.62 input   59.86 | X-H torsion
[ 10167 10162 10161 10158 ] final -119.90 input  -65.29 | X-H torsion
[ 10718 10713 10712 10709 ] final  164.64 input   66.30 | X-H torsion
[ 10763 10752 10751 10750 ] final  -31.15 input  -60.55 | X-H torsion
[ 11005 11000 10999 10996 ] final  -72.69 input  -57.11 | X-H torsion

> <Gold.Protein.ActiveResidues>
 VAL166  LYS551  ARG553  GLY616  TRP617  ASP618  TYR619  PRO620  LYS621  CYS622 
 ASP623  PHE694  ASN695  SER759  ASP760  ASP761  ALA762  ILE779  LEU786  VAL792 
 PHE793  MET794  SER795  GLU796  ALA797  LYS798  CYS799  TRP800  GLU811  SER814 

> <Gold.Protein.RotatedAtoms>
  150.7850  133.8904  159.3311 H   0  0  0  0  0  0  0  0  0  0  0  0  # atno 6907 bound_to 6896
  151.6757  135.0967  160.0216 H   0  0  0  0  0  0  0  0  0  0  0  0  # atno 6908 bound_to 6896
  152.3911  133.6642  159.6274 H   0  0  0  0  0  0  0  0  0  0  0  0  # atno 6909 bound_to 6896
  144.8942  140.6684  143.5126 H   0  0  0  0  0  0  0  0  0  0  0  0  # atno 7974 bound_to 7965
  155.7111  140.3494  155.4974 H   0  0  0  0  0  0  0  0  0  0  0  0  # atno 8008 bound_to 7997
  155.9355  140.1092  157.1120 H   0  0  0  0  0  0  0  0  0  0  0  0  # atno 8009 bound_to 7997
  154.4093  140.1223  156.4845 H   0  0  0  0  0  0  0  0  0  0  0  0  # atno 8010 bound_to 7997
  140.0416  143.5148  152.2127 H   0  0  0  0  0  0  0  0  0  0  0  0  # atno 10167 bound_to 10162
  157.0914  131.0418  151.2535 H   0  0  0  0  0  0  0  0  0  0  0  0  # atno 10718 bound_to 10713
  153.7926  135.6896  153.4869 H   0  0  0  0  0  0  0  0  0  0  0  0  # atno 10763 bound_to 10752
  153.1740  135.4532  154.9938 H   0  0  0  0  0  0  0  0  0  0  0  0  # atno 10764 bound_to 10752
  154.8038  135.3348  154.7421 H   0  0  0  0  0  0  0  0  0  0  0  0  # atno 10765 bound_to 10752
  141.1612  133.6855  156.7098 H   0  0  0  0  0  0  0  0  0  0  0  0  # atno 11005 bound_to 11000
  145.3729  139.1654  143.4322 LP  0  0  0  0  0  0  0  0  0  0  0  0  # atno 17320 bound_to 7965
  146.3071  140.3803  142.8683 LP  0  0  0  0  0  0  0  0  0  0  0  0  # atno 17321 bound_to 7965
  139.6010  144.7582  151.3172 LP  0  0  0  0  0  0  0  0  0  0  0  0  # atno 17342 bound_to 10162
  140.7257  143.7009  150.7845 LP  0  0  0  0  0  0  0  0  0  0  0  0  # atno 17343 bound_to 10162
  157.4718  130.7713  149.7330 LP  0  0  0  0  0  0  0  0  0  0  0  0  # atno 17370 bound_to 10713
  155.9897  130.3950  150.3061 LP  0  0  0  0  0  0  0  0  0  0  0  0  # atno 17371 bound_to 10713
  140.2896  134.8251  157.4005 LP  0  0  0  0  0  0  0  0  0  0  0  0  # atno 17394 bound_to 11000
  140.1359  134.5035  155.8069 LP  0  0  0  0  0  0  0  0  0  0  0  0  # atno 17395 bound_to 11000

$$$$
