AV-unprocessed.smi:2710|AV-procd|sdf|10468|dock9
  -GOLD-   2272014503D 1   1.00000     0.00000
 Structure written by MMmdl.
 53 54  0  0  0  0  0  0  0  0  2 V2000
  148.3530  131.6263  154.2153 C   0  0  0  0  0  0  0  0  0  0  0  0
  148.3579  132.6972  153.1142 C   0  0  0  0  0  0  0  0  0  0  0  0
  148.3441  134.0869  153.6456 N   0  3  2  0  0  0  0  0  0  0  0  0
  149.4230  134.3145  154.6440 C   0  0  0  0  0  0  0  0  0  0  0  0
  149.5370  135.8007  155.0206 C   0  0  0  0  0  0  0  0  0  0  0  0
  148.1990  136.3471  155.5378 C   0  0  1  0  0  0  0  0  0  0  0  0
  148.3186  137.7751  155.8186 N   0  0  0  0  0  0  0  0  0  0  0  0
  149.3010  138.3384  156.5371 C   0  0  0  0  0  0  0  0  0  0  0  0
  150.2187  137.6961  157.0461 O   0  0  0  0  0  0  0  0  0  0  0  0
  149.1455  139.6713  156.6097 N   0  0  0  0  0  0  0  0  0  0  0  0
  149.9610  140.6305  157.2702 C   0  0  0  0  0  0  0  0  0  0  0  0
  149.6831  141.9993  157.0825 C   0  0  0  0  0  0  0  0  0  0  0  0
  150.4067  142.9667  157.6833 N   0  0  0  0  0  0  0  0  0  0  0  0
  151.4332  142.5865  158.4551 C   0  0  0  0  0  0  0  0  0  0  0  0
  152.1623  143.6862  159.2470 C   0  0  0  0  0  0  0  0  0  0  0  0
  152.8399  144.7004  158.2957 C   0  0  0  0  0  0  0  0  0  0  0  0
  153.2244  143.0450  160.1592 C   0  0  0  0  0  0  0  0  0  0  0  0
  151.1699  144.5045  160.1061 C   0  0  0  0  0  0  0  0  0  0  0  0
  151.7506  141.3167  158.7400 N   0  0  0  0  0  0  0  0  0  0  0  0
  151.0355  140.3384  158.1448 C   0  0  0  0  0  0  0  0  0  0  0  0
  147.1014  136.0815  154.4899 C   0  0  0  0  0  0  0  0  0  0  0  0
  147.0105  134.5905  154.1017 C   0  0  2  0  0  0  0  0  0  0  0  0
  146.3727  133.7368  155.2192 C   0  0  0  0  0  0  0  0  0  0  0  0
  148.2316  130.6333  153.7813 H   0  0  0  0  0  0  0  0  0  0  0  0
  147.5318  131.7824  154.9156 H   0  0  0  0  0  0  0  0  0  0  0  0
  149.2852  131.6154  154.7797 H   0  0  0  0  0  0  0  0  0  0  0  0
  149.1994  132.5496  152.4372 H   0  0  0  0  0  0  0  0  0  0  0  0
  147.4612  132.5516  152.5105 H   0  0  0  0  0  0  0  0  0  0  0  0
  149.2451  133.7088  155.5332 H   0  0  0  0  0  0  0  0  0  0  0  0
  150.3773  133.9840  154.2320 H   0  0  0  0  0  0  0  0  0  0  0  0
  150.3117  135.9300  155.7775 H   0  0  0  0  0  0  0  0  0  0  0  0
  149.8592  136.3710  154.1481 H   0  0  0  0  0  0  0  0  0  0  0  0
  147.9519  135.8280  156.4656 H   0  0  0  0  0  0  0  0  0  0  0  0
  147.6084  138.3789  155.4305 H   0  0  0  0  0  0  0  0  0  0  0  0
  148.3614  140.0530  156.1011 H   0  0  0  0  0  0  0  0  0  0  0  0
  148.8701  142.3238  156.4494 H   0  0  0  0  0  0  0  0  0  0  0  0
  153.3167  145.5085  158.8517 H   0  0  0  0  0  0  0  0  0  0  0  0
  152.1161  145.1529  157.6167 H   0  0  0  0  0  0  0  0  0  0  0  0
  153.6175  144.2358  157.6884 H   0  0  0  0  0  0  0  0  0  0  0  0
  153.9628  142.4908  159.5786 H   0  0  0  0  0  0  0  0  0  0  0  0
  152.7712  142.3481  160.8653 H   0  0  0  0  0  0  0  0  0  0  0  0
  153.7588  143.7988  160.7383 H   0  0  0  0  0  0  0  0  0  0  0  0
  151.6749  145.3157  160.6317 H   0  0  0  0  0  0  0  0  0  0  0  0
  150.6856  143.8913  160.8669 H   0  0  0  0  0  0  0  0  0  0  0  0
  150.3868  144.9502  159.4917 H   0  0  0  0  0  0  0  0  0  0  0  0
  151.3304  139.3332  158.4006 H   0  0  0  0  0  0  0  0  0  0  0  0
  146.1344  136.4293  154.8559 H   0  0  0  0  0  0  0  0  0  0  0  0
  147.3110  136.6684  153.5939 H   0  0  0  0  0  0  0  0  0  0  0  0
  146.3335  134.5495  153.2491 H   0  0  0  0  0  0  0  0  0  0  0  0
  145.4181  134.1623  155.5295 H   0  0  0  0  0  0  0  0  0  0  0  0
  147.0013  133.6752  156.1069 H   0  0  0  0  0  0  0  0  0  0  0  0
  146.1665  132.7203  154.8854 H   0  0  0  0  0  0  0  0  0  0  0  0
  148.5912  134.6696  152.8586 H   0  0  0  0  0  0  0  0  0  0  0  0
  1  2  1  0  0  0  0
  1 24  1  0  0  0  0
  1 25  1  0  0  0  0
  1 26  1  0  0  0  0
  2  3  1  0  0  0  0
  2 27  1  0  0  0  0
  2 28  1  0  0  0  0
  3 22  1  0  0  0  0
  3  4  1  0  0  0  0
  3 53  1  0  0  0  0
  4  5  1  0  0  0  0
  4 29  1  0  0  0  0
  4 30  1  0  0  0  0
  5  6  1  0  0  0  0
  5 31  1  0  0  0  0
  5 32  1  0  0  0  0
  6  7  1  0  0  0  0
  6 21  1  0  0  0  0
  6 33  1  0  0  0  0
  7  8  1  0  0  0  0
  7 34  1  0  0  0  0
  8  9  2  0  0  0  0
  8 10  1  0  0  0  0
 10 11  1  0  0  0  0
 10 35  1  0  0  0  0
 11 20  1  0  0  0  0
 11 12  2  0  0  0  0
 12 13  1  0  0  0  0
 12 36  1  0  0  0  0
 13 14  2  0  0  0  0
 14 15  1  0  0  0  0
 14 19  1  0  0  0  0
 15 16  1  0  0  0  0
 15 17  1  0  0  0  0
 15 18  1  0  0  0  0
 16 37  1  0  0  0  0
 16 38  1  0  0  0  0
 16 39  1  0  0  0  0
 17 40  1  0  0  0  0
 17 41  1  0  0  0  0
 17 42  1  0  0  0  0
 18 43  1  0  0  0  0
 18 44  1  0  0  0  0
 18 45  1  0  0  0  0
 19 20  2  0  0  0  0
 20 46  1  0  0  0  0
 21 22  1  0  0  0  0
 21 47  1  0  0  0  0
 21 48  1  0  0  0  0
 22 23  1  0  0  0  0
 22 49  1  0  0  0  0
 23 50  1  0  0  0  0
 23 51  1  0  0  0  0
 23 52  1  0  0  0  0
M  CHG  1   3   1
M  END
> <s_m_source_file>
AV-unprocessed.smi

> <i_m_source_file_index>
2710

> <i_lp_mmshare_version>
43012

> <i_f3d_flags>
0

> <s_epik_input>
W0NIM11bQ0gyXU4xW0NIMl1bQ0gyXVtDQEhdKFtDSDJdW0NASF0xW0NIM10pW05IXUMoPU8pW05IXWMyW2NIXW5jKEMoW0NIM10pKFtDSDNdKVtDSDNdKW5bY0hdMg==

> <s_epik_cmdline>
J2VwaWtfcHl0aG9uJywgJy1waCcsICc3LjAnLCAnLXRuJywgJzgnLCAnLW1hJywgJzIwMCcsICctbWV0YWxfYmluZGluZycsICctaW1hZScsICc8aW5maWxlLm1hZT4nLCAnLW9tYWUnLCAnPG91dGZpbGUubWFlPic=

> <r_lp_tautomer_probability>
1

> <r_epik_Ionization_Penalty>
0.00396003

> <r_epik_Ionization_Penalty_Charging>
0.0039379

> <r_epik_Ionization_Penalty_Neutral>
2.21316e-05

> <r_epik_State_Penalty>
0.00281651

> <r_epik_Charging_Adjusted_Penalty>
0.00675441

> <i_epik_Tot_Q>
1

> <i_epik_Tot_abs_Q>
1

> <r_epik_Metal_State_Penalty>
-0

> <b_epik_Metal_Only>
0

> <s_lp_Force_Field>
OPLS_2005

> <r_lp_Energy>
21.0502

> <b_lp_Chiralities_Consistent>
1

> <s_lp_Variant>
AV-unprocessed.smi:2710-5

> <Gold.Version>
5.8.1

> <Gold.Id.Protein>
6NUR|6NUR_protein|mol2

> <Gold.PLP.Fitness>
41.1479

> <Gold.PLP.PLP>
-33.5164

> <Gold.PLP.part.hbond>
-1.0000

> <Gold.PLP.part.metal>
0.0000

> <Gold.PLP.part.buried>
-3.5581

> <Gold.PLP.part.nonpolar>
-28.9510

> <Gold.PLP.part.repulsive>
0.4518

> <Gold.PLP.ligand.clash>
0.0000

> <Gold.PLP.ligand.torsion>
0.2849

> <Gold.PLP.Chemscore.Hbond>
2.0000

> <Gold.PLP.Chemscore.CHOScore>
0.6761

> <Gold.PLP.Chemscore.Metal>
0.0000

> <Gold.Chemscore.Hbonds>
donor molecule, donor type, donor heavy atom, donor atom, acceptor molecule, acceptor atom, score
      L1  H     3    53       P1  7948  1.90
      L1  C    12    36       P1  8028  0.76

> <Gold.PLP.Chemscore.Internal.Correction>
0.1730

> <Gold.Rescore>
     Score         DG    S(hbond)    S(metal)    S(lipo)     H(rot)  DE(clash)    DE(int)     intcor
     12.85     -15.75       0.89        0.00      90.85       1.31       0.17       2.72       ----

> <Gold.Chemscore.Fitness>
12.8530

> <Gold.Chemscore.DG>
-15.7487

> <Gold.Chemscore.ZeroCoef>
-5.4800

> <Gold.Chemscore.Hbond>
0.8948

> <Gold.Chemscore.Metal>
0.0000

> <Gold.Chemscore.Lipo>
90.8450

> <Gold.Chemscore.Internal_Hbond>
0.0000

> <Gold.Chemscore.DEClash>
0.1732

> <Gold.Chemscore.DEInternal>
2.7225

> <Gold.Chemscore.Rot>
1.3081

> <Gold.Chemscore.Internal.Correction>
   9.000000E+99

> <Gold.Chemscore.Hbonds>
donor molecule, donor type, donor heavy atom, donor atom, acceptor molecule, acceptor atom, score
      L1  H     3    53       P1  7948  0.21

> <Gold.Chemscore.Hbond.Weighted>
-2.9887

> <Gold.Chemscore.Metal.Weighted>
-0.0000

> <Gold.Chemscore.Lipo.Weighted>
-10.6289

> <Gold.Chemscore.Internal_Hbond.Weighted>
0.0000

> <Gold.Chemscore.DEClash.Weighted>
0.1732

> <Gold.Chemscore.DEInternal.Weighted>
2.7225

> <Gold.Chemscore.Rot.Weighted>
3.3488

> <Gold.Chemscore.Internal.Correction.Weighted>
   9.000000E+99

> <Gold.Protein.RotatedTorsions>
[ 6907 6896 6895 6894 ] final  140.51 input  -60.11 | X-H torsion
[ 7974 7965 7964 7962 ] final -112.50 input  175.53 | X-H torsion
[ 8008 7997 7996 7995 ] final  -39.86 input   59.86 | X-H torsion
[ 10167 10162 10161 10158 ] final   58.71 input  -65.29 | X-H torsion
[ 10718 10713 10712 10709 ] final  113.02 input   66.30 | X-H torsion
[ 10763 10752 10751 10750 ] final -169.26 input  -60.55 | X-H torsion
[ 11005 11000 10999 10996 ] final  129.67 input  -57.11 | X-H torsion

> <Gold.Protein.ActiveResidues>
 VAL166  LYS551  ARG553  GLY616  TRP617  ASP618  TYR619  PRO620  LYS621  CYS622 
 ASP623  PHE694  ASN695  SER759  ASP760  ASP761  ALA762  ILE779  LEU786  VAL792 
 PHE793  MET794  SER795  GLU796  ALA797  LYS798  CYS799  TRP800  GLU811  SER814 

> <Gold.Protein.RotatedAtoms>
  152.2422  133.5145  159.5276 H   0  0  0  0  0  0  0  0  0  0  0  0  # atno 6907 bound_to 6896
  150.7068  134.1073  159.3996 H   0  0  0  0  0  0  0  0  0  0  0  0  # atno 6908 bound_to 6896
  151.8994  135.0384  160.0556 H   0  0  0  0  0  0  0  0  0  0  0  0  # atno 6909 bound_to 6896
  145.1433  140.8789  143.3689 H   0  0  0  0  0  0  0  0  0  0  0  0  # atno 7974 bound_to 7965
  154.4018  140.1540  156.2933 H   0  0  0  0  0  0  0  0  0  0  0  0  # atno 8008 bound_to 7997
  155.8766  140.3446  155.5836 H   0  0  0  0  0  0  0  0  0  0  0  0  # atno 8009 bound_to 7997
  155.7715  140.0831  157.2096 H   0  0  0  0  0  0  0  0  0  0  0  0  # atno 8010 bound_to 7997
  140.1843  144.4150  150.6600 H   0  0  0  0  0  0  0  0  0  0  0  0  # atno 10167 bound_to 10162
  157.6361  131.0977  150.6980 H   0  0  0  0  0  0  0  0  0  0  0  0  # atno 10718 bound_to 10713
  154.6541  135.2915  154.9949 H   0  0  0  0  0  0  0  0  0  0  0  0  # atno 10763 bound_to 10752
  154.1032  135.6573  153.4876 H   0  0  0  0  0  0  0  0  0  0  0  0  # atno 10764 bound_to 10752
  153.0393  135.5247  154.7463 H   0  0  0  0  0  0  0  0  0  0  0  0  # atno 10765 bound_to 10752
  139.9629  134.9598  156.9182 H   0  0  0  0  0  0  0  0  0  0  0  0  # atno 11005 bound_to 11000
  145.0509  139.3182  143.5929 LP  0  0  0  0  0  0  0  0  0  0  0  0  # atno 17320 bound_to 7965
  146.3503  139.9917  142.8685 LP  0  0  0  0  0  0  0  0  0  0  0  0  # atno 17321 bound_to 7965
  140.6498  143.2222  151.6102 LP  0  0  0  0  0  0  0  0  0  0  0  0  # atno 17342 bound_to 10162
  139.5283  144.2993  152.1086 LP  0  0  0  0  0  0  0  0  0  0  0  0  # atno 17343 bound_to 10162
  156.7311  130.4710  149.5499 LP  0  0  0  0  0  0  0  0  0  0  0  0  # atno 17370 bound_to 10713
  156.1602  130.6368  151.0708 LP  0  0  0  0  0  0  0  0  0  0  0  0  # atno 17371 bound_to 10713
  140.5461  134.0672  155.7355 LP  0  0  0  0  0  0  0  0  0  0  0  0  # atno 17394 bound_to 11000
  141.1307  133.9307  157.2542 LP  0  0  0  0  0  0  0  0  0  0  0  0  # atno 17395 bound_to 11000

$$$$
