AV-unprocessed.smi:3282|AV-procd|sdf|12560|dock6
  -GOLD-   2272018483D 1   1.00000     0.00000
 Structure written by MMmdl.
 34 35  0  0  0  0  0  0  0  0  1 V2000
  150.6923  141.8323  156.2504 C   0  0  0  0  0  0  0  0  0  0  0  0
  149.9128  140.8218  155.3936 C   0  0  0  0  0  0  0  0  0  0  0  0
  148.8964  141.4717  154.4395 C   0  0  0  0  0  0  0  0  0  0  0  0
  148.8907  142.6944  154.2893 O   0  0  0  0  0  0  0  0  0  0  0  0
  148.0307  140.6681  153.7871 N   0  0  0  0  0  0  0  0  0  0  0  0
  147.0107  141.1063  152.8365 C   0  0  0  0  0  0  0  0  0  0  0  0
  146.4330  139.8313  152.2220 C   0  0  0  0  0  0  0  0  0  0  0  0
  146.7203  138.7394  153.2518 C   0  0  1  0  0  0  0  0  0  0  0  0
  146.9129  137.4281  152.6412 N   0  0  0  0  0  0  0  0  0  0  0  0
  145.9235  136.6328  152.2101 C   0  0  0  0  0  0  0  0  0  0  0  0
  144.7315  136.9351  152.2766 O   0  0  0  0  0  0  0  0  0  0  0  0
  146.4042  135.4844  151.7045 N   0  0  0  0  0  0  0  0  0  0  0  0
  145.6631  134.3978  151.1754 C   0  0  0  0  0  0  0  0  0  0  0  0
  146.1604  133.2729  150.6588 N   0  0  0  0  0  0  0  0  0  0  0  0
  145.0452  132.5397  150.2796 C   0  0  0  0  0  0  0  0  0  0  0  0
  143.9270  133.2694  150.5918 C   0  0  0  0  0  0  0  0  0  0  0  0
  144.3051  134.4551  151.1624 O   0  0  0  0  0  0  0  0  0  0  0  0
  147.9929  139.2178  153.9586 C   0  0  0  0  0  0  0  0  0  0  0  0
  151.4006  141.3189  156.9008 H   0  0  0  0  0  0  0  0  0  0  0  0
  150.0251  142.4144  156.8871 H   0  0  0  0  0  0  0  0  0  0  0  0
  151.2600  142.5271  155.6304 H   0  0  0  0  0  0  0  0  0  0  0  0
  150.6217  140.2327  154.8108 H   0  0  0  0  0  0  0  0  0  0  0  0
  149.3851  140.1286  156.0494 H   0  0  0  0  0  0  0  0  0  0  0  0
  146.2340  141.6525  153.3735 H   0  0  0  0  0  0  0  0  0  0  0  0
  147.4179  141.7615  152.0655 H   0  0  0  0  0  0  0  0  0  0  0  0
  145.3715  139.9206  151.9891 H   0  0  0  0  0  0  0  0  0  0  0  0
  146.9581  139.6161  151.2899 H   0  0  0  0  0  0  0  0  0  0  0  0
  145.9068  138.7060  153.9794 H   0  0  0  0  0  0  0  0  0  0  0  0
  147.8642  137.1031  152.5485 H   0  0  0  0  0  0  0  0  0  0  0  0
  147.4071  135.3702  151.7052 H   0  0  0  0  0  0  0  0  0  0  0  0
  145.1333  131.5661  149.8207 H   0  0  0  0  0  0  0  0  0  0  0  0
  142.8662  133.1006  150.4799 H   0  0  0  0  0  0  0  0  0  0  0  0
  148.8870  138.7940  153.4976 H   0  0  0  0  0  0  0  0  0  0  0  0
  147.9894  138.9310  155.0114 H   0  0  0  0  0  0  0  0  0  0  0  0
  1  2  1  0  0  0  0
  1 19  1  0  0  0  0
  1 20  1  0  0  0  0
  1 21  1  0  0  0  0
  2  3  1  0  0  0  0
  2 22  1  0  0  0  0
  2 23  1  0  0  0  0
  3  4  2  0  0  0  0
  3  5  1  0  0  0  0
  5 18  1  0  0  0  0
  5  6  1  0  0  0  0
  6  7  1  0  0  0  0
  6 24  1  0  0  0  0
  6 25  1  0  0  0  0
  7  8  1  0  0  0  0
  7 26  1  0  0  0  0
  7 27  1  0  0  0  0
  8  9  1  0  0  0  0
  8 18  1  0  0  0  0
  8 28  1  0  0  0  0
  9 10  1  0  0  0  0
  9 29  1  0  0  0  0
 10 11  2  0  0  0  0
 10 12  1  0  0  0  0
 12 13  1  0  0  0  0
 12 30  1  0  0  0  0
 13 17  1  0  0  0  0
 13 14  2  0  0  0  0
 14 15  1  0  0  0  0
 15 16  2  0  0  0  0
 15 31  1  0  0  0  0
 16 17  1  0  0  0  0
 16 32  1  0  0  0  0
 18 33  1  0  0  0  0
 18 34  1  0  0  0  0
M  END
> <s_m_source_file>
AV-unprocessed.smi

> <i_m_source_file_index>
3282

> <i_lp_mmshare_version>
43012

> <i_f3d_flags>
0

> <s_epik_input>
W0NIM11bQ0gyXUMoPU8pTjFbQ0gyXVtDSDJdW0NASF0oW0NIMl0xKVtOSF1DKD1PKVtOSF1jMm5bY0hdW2NIXW8y

> <s_epik_cmdline>
J2VwaWtfcHl0aG9uJywgJy1waCcsICc3LjAnLCAnLXRuJywgJzgnLCAnLW1hJywgJzIwMCcsICctbWV0YWxfYmluZGluZycsICctaW1hZScsICc8aW5maWxlLm1hZT4nLCAnLW9tYWUnLCAnPG91dGZpbGUubWFlPic=

> <r_lp_tautomer_probability>
0.785861

> <r_epik_Ionization_Penalty>
4.35681e-05

> <r_epik_Ionization_Penalty_Charging>
0

> <r_epik_Ionization_Penalty_Neutral>
4.35681e-05

> <r_epik_State_Penalty>
0.0212547

> <r_epik_Charging_Adjusted_Penalty>
0.0212547

> <i_epik_Tot_Q>
0

> <i_epik_Tot_abs_Q>
0

> <r_epik_Metal_State_Penalty>
0.00779955

> <b_epik_Metal_Only>
0

> <s_lp_Force_Field>
OPLS_2005

> <r_lp_Energy>
25.4051

> <b_lp_Chiralities_Consistent>
1

> <s_lp_Variant>
AV-unprocessed.smi:3282-1

> <Gold.Version>
5.8.1

> <Gold.Id.Protein>
6NUR|6NUR_protein|mol2

> <Gold.PLP.Fitness>
33.7365

> <Gold.PLP.PLP>
-23.7227

> <Gold.PLP.part.hbond>
-3.3933

> <Gold.PLP.part.metal>
0.0000

> <Gold.PLP.part.buried>
-0.2476

> <Gold.PLP.part.nonpolar>
-25.5136

> <Gold.PLP.part.repulsive>
5.3074

> <Gold.PLP.ligand.clash>
0.0000

> <Gold.PLP.ligand.torsion>
0.3076

> <Gold.PLP.Chemscore.Hbond>
2.5404

> <Gold.PLP.Chemscore.CHOScore>
1.0000

> <Gold.PLP.Chemscore.Metal>
0.0000

> <Gold.Chemscore.Hbonds>
donor molecule, donor type, donor heavy atom, donor atom, acceptor molecule, acceptor atom, score
      L1  H     9    29       P1  7948  1.00
      L1  H    12    30       P1  7948  0.91
      P1  H  8011  8017       L1     4  0.01
      P1  H  8022  8030       L1     4  0.60
      L1  C    16    32       P1 10186  1.00

> <Gold.PLP.Chemscore.Internal.Correction>
0.0078

> <Gold.Rescore>
     Score         DG    S(hbond)    S(metal)    S(lipo)     H(rot)  DE(clash)    DE(int)     intcor
     13.20     -18.44       2.75        0.00      61.19       1.32       3.54       1.70       ----

> <Gold.Chemscore.Fitness>
13.2022

> <Gold.Chemscore.DG>
-18.4355

> <Gold.Chemscore.ZeroCoef>
-5.4800

> <Gold.Chemscore.Hbond>
2.7471

> <Gold.Chemscore.Metal>
0.0000

> <Gold.Chemscore.Lipo>
61.1877

> <Gold.Chemscore.Internal_Hbond>
0.0000

> <Gold.Chemscore.DEClash>
3.5351

> <Gold.Chemscore.DEInternal>
1.6982

> <Gold.Chemscore.Rot>
1.3199

> <Gold.Chemscore.Internal.Correction>
   9.000000E+99

> <Gold.Chemscore.Hbonds>
donor molecule, donor type, donor heavy atom, donor atom, acceptor molecule, acceptor atom, score
      L1  H     9    29       P1  7948  0.91
      L1  H    12    30       P1  7948  0.85
      P1  H  8022  8030       L1     4  0.60

> <Gold.Chemscore.Hbond.Weighted>
-9.1755

> <Gold.Chemscore.Metal.Weighted>
-0.0000

> <Gold.Chemscore.Lipo.Weighted>
-7.1590

> <Gold.Chemscore.Internal_Hbond.Weighted>
0.0000

> <Gold.Chemscore.DEClash.Weighted>
3.5351

> <Gold.Chemscore.DEInternal.Weighted>
1.6982

> <Gold.Chemscore.Rot.Weighted>
3.3789

> <Gold.Chemscore.Internal.Correction.Weighted>
   9.000000E+99

> <Gold.Protein.RotatedTorsions>
[ 6907 6896 6895 6894 ] final   13.43 input  -60.11 | X-H torsion
[ 7974 7965 7964 7962 ] final   52.53 input  175.53 | X-H torsion
[ 8008 7997 7996 7995 ] final  -81.01 input   59.86 | X-H torsion
[ 10167 10162 10161 10158 ] final -151.61 input  -65.29 | X-H torsion
[ 10718 10713 10712 10709 ] final -112.07 input   66.30 | X-H torsion
[ 10763 10752 10751 10750 ] final  173.01 input  -60.55 | X-H torsion
[ 11005 11000 10999 10996 ] final   66.24 input  -57.11 | X-H torsion

> <Gold.Protein.ActiveResidues>
 VAL166  LYS551  ARG553  GLY616  TRP617  ASP618  TYR619  PRO620  LYS621  CYS622 
 ASP623  PHE694  ASN695  SER759  ASP760  ASP761  ALA762  ILE779  LEU786  VAL792 
 PHE793  MET794  SER795  GLU796  ALA797  LYS798  CYS799  TRP800  GLU811  SER814 

> <Gold.Protein.RotatedAtoms>
  151.7862  135.0748  160.0380 H   0  0  0  0  0  0  0  0  0  0  0  0  # atno 6907 bound_to 6896
  152.3188  133.5827  159.5739 H   0  0  0  0  0  0  0  0  0  0  0  0  # atno 6908 bound_to 6896
  150.7358  133.9958  159.3664 H   0  0  0  0  0  0  0  0  0  0  0  0  # atno 6909 bound_to 6896
  145.9804  139.4237  143.0135 H   0  0  0  0  0  0  0  0  0  0  0  0  # atno 7974 bound_to 7965
  154.5941  140.0654  156.9279 H   0  0  0  0  0  0  0  0  0  0  0  0  # atno 8008 bound_to 7997
  155.2245  140.3332  155.4293 H   0  0  0  0  0  0  0  0  0  0  0  0  # atno 8009 bound_to 7997
  156.2275  140.1826  156.7310 H   0  0  0  0  0  0  0  0  0  0  0  0  # atno 8010 bound_to 7997
  139.7252  143.8894  152.2517 H   0  0  0  0  0  0  0  0  0  0  0  0  # atno 10167 bound_to 10162
  156.0684  130.5901  150.8459 H   0  0  0  0  0  0  0  0  0  0  0  0  # atno 10718 bound_to 10713
  154.4341  135.2760  155.1892 H   0  0  0  0  0  0  0  0  0  0  0  0  # atno 10763 bound_to 10752
  154.3786  135.6092  153.5782 H   0  0  0  0  0  0  0  0  0  0  0  0  # atno 10764 bound_to 10752
  152.9837  135.5875  154.4658 H   0  0  0  0  0  0  0  0  0  0  0  0  # atno 10765 bound_to 10752
  139.9844  134.6692  156.0203 H   0  0  0  0  0  0  0  0  0  0  0  0  # atno 11005 bound_to 11000
  145.7777  140.9869  143.1115 LP  0  0  0  0  0  0  0  0  0  0  0  0  # atno 17320 bound_to 7965
  144.6860  139.9526  143.7478 LP  0  0  0  0  0  0  0  0  0  0  0  0  # atno 17321 bound_to 7965
  139.8801  144.7022  150.8887 LP  0  0  0  0  0  0  0  0  0  0  0  0  # atno 17342 bound_to 10162
  140.7761  143.3668  151.1724 LP  0  0  0  0  0  0  0  0  0  0  0  0  # atno 17343 bound_to 10162
  157.5740  131.0946  150.9374 LP  0  0  0  0  0  0  0  0  0  0  0  0  # atno 17370 bound_to 10713
  156.9584  130.5446  149.5285 LP  0  0  0  0  0  0  0  0  0  0  0  0  # atno 17371 bound_to 10713
  141.1511  133.6548  156.4017 LP  0  0  0  0  0  0  0  0  0  0  0  0  # atno 17394 bound_to 11000
  140.5032  134.6466  157.5256 LP  0  0  0  0  0  0  0  0  0  0  0  0  # atno 17395 bound_to 11000

$$$$
