AV-unprocessed.smi:263|AV-procd|sdf|2006|dock9
  -GOLD-   2262021203D 1   1.00000     0.00000
 Structure written by MMmdl.
 57 61  0  0  0  0  0  0  0  0  1 V2000
  149.0737  133.6108  156.8082 O   0  0  0  0  0  0  0  0  0  0  0  0
  149.8720  133.7858  155.6505 C   0  0  0  0  0  0  0  0  0  0  0  0
  151.1925  134.4726  156.0802 C   0  0  0  0  0  0  0  0  0  0  0  0
  151.0288  135.8476  156.5271 N   0  0  0  0  0  0  0  0  0  0  0  0
  150.4942  136.2691  157.7237 C   0  0  0  0  0  0  0  0  0  0  0  0
  150.4520  137.5629  157.8894 N   0  0  0  0  0  0  0  0  0  0  0  0
  150.9961  138.0745  156.7168 C   0  0  0  0  0  0  0  0  0  0  0  0
  151.2426  139.3893  156.2287 C   0  0  0  0  0  0  0  0  0  0  0  0
  150.9625  140.5062  156.9486 N   0  0  0  0  0  0  0  0  0  0  0  0
  149.9355  141.4094  156.4247 C   0  0  0  0  0  0  0  0  0  0  0  0
  149.4821  142.4228  157.4931 C   0  0  0  0  0  0  0  0  0  0  0  0
  150.6751  143.1772  158.1165 C   0  0  1  0  0  0  0  0  0  0  0  0
  151.2507  143.9817  157.0996 O   0  0  0  0  0  0  0  0  0  0  0  0
  150.2239  144.1168  159.2571 C   0  0  0  0  0  0  0  0  0  0  0  0
  151.4140  144.7906  159.9669 C   0  0  0  0  0  0  0  0  0  0  0  0
  152.4372  143.7567  160.4640 C   0  0  0  0  0  0  0  0  0  0  0  0
  152.9056  142.8357  159.3252 C   0  0  0  0  0  0  0  0  0  0  0  0
  151.7074  142.1468  158.6436 C   0  0  2  0  0  0  0  0  0  0  0  0
  152.1314  141.1596  157.5388 C   0  0  0  0  0  0  0  0  0  0  0  0
  151.7826  139.5016  154.9850 N   0  0  0  0  0  0  0  0  0  0  0  0
  152.0693  138.4096  154.2707 C   0  0  0  0  0  0  0  0  0  0  0  0
  151.8984  137.1281  154.6004 N   0  0  0  0  0  0  0  0  0  0  0  0
  151.3534  137.0072  155.8446 C   0  0  0  0  0  0  0  0  0  0  0  0
  150.1614  132.3978  155.0441 C   0  0  0  0  0  0  0  0  0  0  0  0
  148.8993  131.7504  154.4468 C   0  0  0  0  0  0  0  0  0  0  0  0
  148.3164  132.6207  153.4849 O   0  0  0  0  0  0  0  0  0  0  0  0
  147.8750  133.8478  154.0530 C   0  0  0  0  0  0  0  0  0  0  0  0
  149.0712  134.6254  154.6310 C   0  0  0  0  0  0  0  0  0  0  0  0
  149.3117  134.2711  157.4413 H   0  0  0  0  0  0  0  0  0  0  0  0
  151.6693  133.9075  156.8823 H   0  0  0  0  0  0  0  0  0  0  0  0
  151.9000  134.4723  155.2499 H   0  0  0  0  0  0  0  0  0  0  0  0
  150.1375  135.5817  158.4772 H   0  0  0  0  0  0  0  0  0  0  0  0
  150.3282  141.9351  155.5533 H   0  0  0  0  0  0  0  0  0  0  0  0
  149.0715  140.8349  156.0878 H   0  0  0  0  0  0  0  0  0  0  0  0
  148.7687  143.1249  157.0596 H   0  0  0  0  0  0  0  0  0  0  0  0
  148.9431  141.8883  158.2766 H   0  0  0  0  0  0  0  0  0  0  0  0
  150.5572  144.4509  156.6618 H   0  0  0  0  0  0  0  0  0  0  0  0
  149.5424  144.8780  158.8746 H   0  0  0  0  0  0  0  0  0  0  0  0
  149.6565  143.5452  159.9928 H   0  0  0  0  0  0  0  0  0  0  0  0
  151.9029  145.4884  159.2862 H   0  0  0  0  0  0  0  0  0  0  0  0
  151.0532  145.3865  160.8056 H   0  0  0  0  0  0  0  0  0  0  0  0
  153.2940  144.2650  160.9070 H   0  0  0  0  0  0  0  0  0  0  0  0
  151.9908  143.1566  161.2579 H   0  0  0  0  0  0  0  0  0  0  0  0
  153.4737  143.4124  158.5941 H   0  0  0  0  0  0  0  0  0  0  0  0
  153.5893  142.0851  159.7228 H   0  0  0  0  0  0  0  0  0  0  0  0
  151.2111  141.5533  159.4138 H   0  0  0  0  0  0  0  0  0  0  0  0
  152.8205  140.4284  157.9596 H   0  0  0  0  0  0  0  0  0  0  0  0
  152.6781  141.6810  156.7521 H   0  0  0  0  0  0  0  0  0  0  0  0
  152.4977  138.5885  153.2955 H   0  0  0  0  0  0  0  0  0  0  0  0
  150.9034  132.4988  154.2507 H   0  0  0  0  0  0  0  0  0  0  0  0
  150.6030  131.7367  155.7911 H   0  0  0  0  0  0  0  0  0  0  0  0
  149.1596  130.8122  153.9568 H   0  0  0  0  0  0  0  0  0  0  0  0
  148.1734  131.5085  155.2245 H   0  0  0  0  0  0  0  0  0  0  0  0
  147.3881  134.4378  153.2764 H   0  0  0  0  0  0  0  0  0  0  0  0
  147.1229  133.6574  154.8202 H   0  0  0  0  0  0  0  0  0  0  0  0
  148.7177  135.5530  155.0821 H   0  0  0  0  0  0  0  0  0  0  0  0
  149.7276  134.9143  153.8091 H   0  0  0  0  0  0  0  0  0  0  0  0
  1  2  1  0  0  0  0
  1 29  1  0  0  0  0
  2 28  1  0  0  0  0
  2  3  1  0  0  0  0
  2 24  1  0  0  0  0
  3  4  1  0  0  0  0
  3 30  1  0  0  0  0
  3 31  1  0  0  0  0
  4 23  1  0  0  0  0
  4  5  1  0  0  0  0
  5  6  2  0  0  0  0
  5 32  1  0  0  0  0
  6  7  1  0  0  0  0
  7 23  2  0  0  0  0
  7  8  1  0  0  0  0
  8  9  1  0  0  0  0
  8 20  2  0  0  0  0
  9 19  1  0  0  0  0
  9 10  1  0  0  0  0
 10 11  1  0  0  0  0
 10 33  1  0  0  0  0
 10 34  1  0  0  0  0
 11 12  1  0  0  0  0
 11 35  1  0  0  0  0
 11 36  1  0  0  0  0
 12 18  1  0  0  0  0
 12 13  1  0  0  0  0
 12 14  1  0  0  0  0
 13 37  1  0  0  0  0
 14 15  1  0  0  0  0
 14 38  1  0  0  0  0
 14 39  1  0  0  0  0
 15 16  1  0  0  0  0
 15 40  1  0  0  0  0
 15 41  1  0  0  0  0
 16 17  1  0  0  0  0
 16 42  1  0  0  0  0
 16 43  1  0  0  0  0
 17 18  1  0  0  0  0
 17 44  1  0  0  0  0
 17 45  1  0  0  0  0
 18 19  1  0  0  0  0
 18 46  1  0  0  0  0
 19 47  1  0  0  0  0
 19 48  1  0  0  0  0
 20 21  1  0  0  0  0
 21 22  2  0  0  0  0
 21 49  1  0  0  0  0
 22 23  1  0  0  0  0
 24 25  1  0  0  0  0
 24 50  1  0  0  0  0
 24 51  1  0  0  0  0
 25 26  1  0  0  0  0
 25 52  1  0  0  0  0
 25 53  1  0  0  0  0
 26 27  1  0  0  0  0
 27 28  1  0  0  0  0
 27 54  1  0  0  0  0
 27 55  1  0  0  0  0
 28 56  1  0  0  0  0
 28 57  1  0  0  0  0
M  END
> <s_m_source_file>
AV-unprocessed.smi

> <i_m_source_file_index>
263

> <i_lp_mmshare_version>
43012

> <i_f3d_flags>
0

> <s_epik_input>
W0NIMl0xW0NIMl1PW0NIMl1bQ0gyXUMxKFtPSF0pW0NIMl1uKFtjSF1uMiljKGMyMyluW2NIXW5jM04oW0NIMl1bQ0gyXTQpW0NIMl1bQ0BASF0oW0NAXTQ1W09IXSlbQ0gyXVtDSDJdW0NIMl1bQ0gyXTU=

> <s_epik_cmdline>
J2VwaWtfcHl0aG9uJywgJy1waCcsICc3LjAnLCAnLXRuJywgJzgnLCAnLW1hJywgJzIwMCcsICctbWV0YWxfYmluZGluZycsICctaW1hZScsICc8aW5maWxlLm1hZT4nLCAnLW9tYWUnLCAnPG91dGZpbGUubWFlPic=

> <r_lp_tautomer_probability>
1

> <r_epik_Ionization_Penalty>
0.00747493

> <r_epik_Ionization_Penalty_Charging>
0

> <r_epik_Ionization_Penalty_Neutral>
0.00747493

> <r_epik_State_Penalty>
0.00549307

> <r_epik_Charging_Adjusted_Penalty>
0.00549307

> <i_epik_Tot_Q>
0

> <i_epik_Tot_abs_Q>
0

> <r_epik_Metal_State_Penalty>
-0

> <b_epik_Metal_Only>
0

> <s_lp_Force_Field>
OPLS_2005

> <r_lp_Energy>
38.115

> <b_lp_Chiralities_Consistent>
1

> <s_lp_Variant>
AV-unprocessed.smi:263-4

> <Gold.Version>
5.8.1

> <Gold.Id.Protein>
6NUR|6NUR_protein|mol2

> <Gold.PLP.Fitness>
50.4345

> <Gold.PLP.PLP>
-41.9465

> <Gold.PLP.part.hbond>
-3.0000

> <Gold.PLP.part.metal>
0.0000

> <Gold.PLP.part.buried>
-5.4061

> <Gold.PLP.part.nonpolar>
-32.7096

> <Gold.PLP.part.repulsive>
0.3076

> <Gold.PLP.ligand.clash>
0.0000

> <Gold.PLP.ligand.torsion>
0.4528

> <Gold.PLP.Chemscore.Hbond>
3.0000

> <Gold.PLP.Chemscore.CHOScore>
0.0000

> <Gold.PLP.Chemscore.Metal>
0.0000

> <Gold.Chemscore.Hbonds>
donor molecule, donor type, donor heavy atom, donor atom, acceptor molecule, acceptor atom, score
      L1  H    13    37       P1  8028  1.00
      P1  H  7989  7998       L1    20  1.00
      P1  H 10752 10763       L1    22  1.00

> <Gold.PLP.Chemscore.Internal.Correction>
0.3935

> <Gold.Rescore>
     Score         DG    S(hbond)    S(metal)    S(lipo)     H(rot)  DE(clash)    DE(int)     intcor
     17.57     -19.18       2.22        0.00     111.03       2.62       1.09       0.52       ----

> <Gold.Chemscore.Fitness>
17.5705

> <Gold.Chemscore.DG>
-19.1787

> <Gold.Chemscore.ZeroCoef>
-5.4800

> <Gold.Chemscore.Hbond>
2.2228

> <Gold.Chemscore.Metal>
0.0000

> <Gold.Chemscore.Lipo>
111.0267

> <Gold.Chemscore.Internal_Hbond>
0.0000

> <Gold.Chemscore.DEClash>
1.0924

> <Gold.Chemscore.DEInternal>
0.5158

> <Gold.Chemscore.Rot>
2.6232

> <Gold.Chemscore.Internal.Correction>
   9.000000E+99

> <Gold.Chemscore.Hbonds>
donor molecule, donor type, donor heavy atom, donor atom, acceptor molecule, acceptor atom, score
      L1  H    13    37       P1  8028  0.97
      P1  H  7989  7998       L1    20  0.23
      P1  H 10752 10763       L1    22  0.42

> <Gold.Chemscore.Hbond.Weighted>
-7.4241

> <Gold.Chemscore.Metal.Weighted>
-0.0000

> <Gold.Chemscore.Lipo.Weighted>
-12.9901

> <Gold.Chemscore.Internal_Hbond.Weighted>
0.0000

> <Gold.Chemscore.DEClash.Weighted>
1.0924

> <Gold.Chemscore.DEInternal.Weighted>
0.5158

> <Gold.Chemscore.Rot.Weighted>
6.7155

> <Gold.Chemscore.Internal.Correction.Weighted>
   9.000000E+99

> <Gold.Protein.RotatedTorsions>
[ 6907 6896 6895 6894 ] final  166.49 input  -60.11 | X-H torsion
[ 7974 7965 7964 7962 ] final  177.79 input  175.53 | X-H torsion
[ 8008 7997 7996 7995 ] final  -85.87 input   59.86 | X-H torsion
[ 10167 10162 10161 10158 ] final   82.33 input  -65.29 | X-H torsion
[ 10718 10713 10712 10709 ] final -103.87 input   66.30 | X-H torsion
[ 10763 10752 10751 10750 ] final   49.80 input  -60.55 | X-H torsion
[ 11005 11000 10999 10996 ] final   77.07 input  -57.11 | X-H torsion

> <Gold.Protein.ActiveResidues>
 VAL166  LYS551  ARG553  GLY616  TRP617  ASP618  TYR619  PRO620  LYS621  CYS622 
 ASP623  PHE694  ASN695  SER759  ASP760  ASP761  ALA762  ILE779  LEU786  VAL792 
 PHE793  MET794  SER795  GLU796  ALA797  LYS798  CYS799  TRP800  GLU811  SER814 

> <Gold.Protein.RotatedAtoms>
  151.8781  133.3489  159.3756 H   0  0  0  0  0  0  0  0  0  0  0  0  # atno 6907 bound_to 6896
  150.7135  134.5046  159.5587 H   0  0  0  0  0  0  0  0  0  0  0  0  # atno 6908 bound_to 6896
  152.2592  134.8052  160.0484 H   0  0  0  0  0  0  0  0  0  0  0  0  # atno 6909 bound_to 6896
  144.7164  140.0299  143.6439 H   0  0  0  0  0  0  0  0  0  0  0  0  # atno 7974 bound_to 7965
  154.6456  140.0586  156.9896 H   0  0  0  0  0  0  0  0  0  0  0  0  # atno 8008 bound_to 7997
  155.1450  140.3269  155.4425 H   0  0  0  0  0  0  0  0  0  0  0  0  # atno 8009 bound_to 7997
  156.2552  140.1957  156.6564 H   0  0  0  0  0  0  0  0  0  0  0  0  # atno 8010 bound_to 7997
  139.9299  144.6158  150.8355 H   0  0  0  0  0  0  0  0  0  0  0  0  # atno 10167 bound_to 10162
  156.0282  130.5488  150.7316 H   0  0  0  0  0  0  0  0  0  0  0  0  # atno 10718 bound_to 10713
  152.9786  135.5900  154.4148 H   0  0  0  0  0  0  0  0  0  0  0  0  # atno 10763 bound_to 10752
  154.3779  135.2767  155.2230 H   0  0  0  0  0  0  0  0  0  0  0  0  # atno 10764 bound_to 10752
  154.4157  135.6071  153.6034 H   0  0  0  0  0  0  0  0  0  0  0  0  # atno 10765 bound_to 10752
  139.9270  134.7653  156.1476 H   0  0  0  0  0  0  0  0  0  0  0  0  # atno 11005 bound_to 11000
  146.0111  139.3170  143.0870 LP  0  0  0  0  0  0  0  0  0  0  0  0  # atno 17320 bound_to 7965
  145.8681  140.9436  143.0665 LP  0  0  0  0  0  0  0  0  0  0  0  0  # atno 17321 bound_to 7965
  140.7640  143.3237  151.2563 LP  0  0  0  0  0  0  0  0  0  0  0  0  # atno 17342 bound_to 10162
  139.6791  143.9886  152.2798 LP  0  0  0  0  0  0  0  0  0  0  0  0  # atno 17343 bound_to 10162
  157.4907  131.0910  151.0430 LP  0  0  0  0  0  0  0  0  0  0  0  0  # atno 17370 bound_to 10713
  157.0838  130.5914  149.5426 LP  0  0  0  0  0  0  0  0  0  0  0  0  # atno 17371 bound_to 10713
  141.0834  133.6744  156.2385 LP  0  0  0  0  0  0  0  0  0  0  0  0  # atno 17394 bound_to 11000
  140.6308  134.5266  157.5559 LP  0  0  0  0  0  0  0  0  0  0  0  0  # atno 17395 bound_to 11000

$$$$
