AV-unprocessed.smi:2330|AV-procd|sdf|9313|dock3
  -GOLD-   2272012533D 1   1.00000     0.00000
 Structure written by MMmdl.
 42 43  0  0  0  0  0  0  0  0  1 V2000
  146.2786  132.7809  151.9716 C   0  0  0  0  0  0  0  0  0  0  0  0
  147.0906  132.8070  153.2740 C   0  0  2  0  0  0  0  0  0  0  0  0
  146.7402  134.0371  154.1328 C   0  0  0  0  0  0  0  0  0  0  0  0
  147.5494  134.0647  155.4417 C   0  0  0  0  0  0  0  0  0  0  0  0
  149.0683  133.9864  155.1934 C   0  0  2  0  0  0  0  0  0  0  0  0
  149.5506  135.2315  154.5971 N   0  0  0  0  0  0  0  0  0  0  0  0
  150.3877  136.1075  155.1700 C   0  0  0  0  0  0  0  0  0  0  0  0
  150.8888  135.9655  156.2854 O   0  0  0  0  0  0  0  0  0  0  0  0
  150.5985  137.1726  154.3853 N   0  0  0  0  0  0  0  0  0  0  0  0
  151.3943  138.3405  154.7533 C   0  0  0  0  0  0  0  0  0  0  0  0
  150.6083  139.6652  154.6305 C   0  0  1  0  0  0  0  0  0  0  0  0
  149.0872  139.4587  154.6076 C   0  0  0  0  0  0  0  0  0  0  0  0
  151.0253  140.6943  155.6377 C   0  0  0  0  0  0  0  0  0  0  0  0
  150.5262  141.9337  155.6843 N   0  0  0  0  0  0  0  0  0  0  0  0
  151.0649  142.6887  156.7288 C   0  0  0  0  0  0  0  0  0  0  0  0
  151.9821  142.0032  157.4836 C   0  0  0  0  0  0  0  0  0  0  0  0
  152.2052  140.3750  156.9061 S   0  0  0  0  0  0  0  0  0  0  0  0
  149.4237  132.7829  154.2987 C   0  0  0  0  0  0  0  0  0  0  0  0
  148.6052  132.7605  152.9954 C   0  0  0  0  0  0  0  0  0  0  0  0
  146.4970  133.6499  151.3501 H   0  0  0  0  0  0  0  0  0  0  0  0
  145.2077  132.7783  152.1768 H   0  0  0  0  0  0  0  0  0  0  0  0
  146.5030  131.8882  151.3871 H   0  0  0  0  0  0  0  0  0  0  0  0
  146.8262  131.9143  153.8430 H   0  0  0  0  0  0  0  0  0  0  0  0
  146.9283  134.9497  153.5655 H   0  0  0  0  0  0  0  0  0  0  0  0
  145.6747  134.0368  154.3661 H   0  0  0  0  0  0  0  0  0  0  0  0
  147.3064  134.9614  156.0132 H   0  0  0  0  0  0  0  0  0  0  0  0
  147.2466  133.2202  156.0623 H   0  0  0  0  0  0  0  0  0  0  0  0
  149.5521  133.8364  156.1601 H   0  0  0  0  0  0  0  0  0  0  0  0
  149.1986  135.4521  153.6771 H   0  0  0  0  0  0  0  0  0  0  0  0
  150.1439  137.1986  153.4842 H   0  0  0  0  0  0  0  0  0  0  0  0
  151.7923  138.2214  155.7622 H   0  0  0  0  0  0  0  0  0  0  0  0
  152.2550  138.3652  154.0844 H   0  0  0  0  0  0  0  0  0  0  0  0
  150.8623  140.0844  153.6561 H   0  0  0  0  0  0  0  0  0  0  0  0
  148.5665  140.3978  154.4183 H   0  0  0  0  0  0  0  0  0  0  0  0
  148.7264  139.0630  155.5574 H   0  0  0  0  0  0  0  0  0  0  0  0
  148.7984  138.7572  153.8244 H   0  0  0  0  0  0  0  0  0  0  0  0
  150.7367  143.7088  156.8636 H   0  0  0  0  0  0  0  0  0  0  0  0
  152.5373  142.3552  158.3404 H   0  0  0  0  0  0  0  0  0  0  0  0
  150.4903  132.7843  154.0709 H   0  0  0  0  0  0  0  0  0  0  0  0
  149.2343  131.8613  154.8505 H   0  0  0  0  0  0  0  0  0  0  0  0
  148.8516  131.8621  152.4285 H   0  0  0  0  0  0  0  0  0  0  0  0
  148.8919  133.6056  152.3679 H   0  0  0  0  0  0  0  0  0  0  0  0
  1  2  1  0  0  0  0
  1 20  1  0  0  0  0
  1 21  1  0  0  0  0
  1 22  1  0  0  0  0
  2 19  1  0  0  0  0
  2  3  1  0  0  0  0
  2 23  1  0  0  0  0
  3  4  1  0  0  0  0
  3 24  1  0  0  0  0
  3 25  1  0  0  0  0
  4  5  1  0  0  0  0
  4 26  1  0  0  0  0
  4 27  1  0  0  0  0
  5  6  1  0  0  0  0
  5 18  1  0  0  0  0
  5 28  1  0  0  0  0
  6  7  1  0  0  0  0
  6 29  1  0  0  0  0
  7  8  2  0  0  0  0
  7  9  1  0  0  0  0
  9 10  1  0  0  0  0
  9 30  1  0  0  0  0
 10 11  1  0  0  0  0
 10 31  1  0  0  0  0
 10 32  1  0  0  0  0
 11 12  1  0  0  0  0
 11 13  1  0  0  0  0
 11 33  1  0  0  0  0
 12 34  1  0  0  0  0
 12 35  1  0  0  0  0
 12 36  1  0  0  0  0
 13 17  1  0  0  0  0
 13 14  2  0  0  0  0
 14 15  1  0  0  0  0
 15 16  2  0  0  0  0
 15 37  1  0  0  0  0
 16 17  1  0  0  0  0
 16 38  1  0  0  0  0
 18 19  1  0  0  0  0
 18 39  1  0  0  0  0
 18 40  1  0  0  0  0
 19 41  1  0  0  0  0
 19 42  1  0  0  0  0
M  END
> <s_m_source_file>
AV-unprocessed.smi

> <i_m_source_file_index>
2330

> <i_lp_mmshare_version>
43012

> <i_f3d_flags>
0

> <s_epik_input>
W0NIM11bQ0BASF0xW0NIMl1bQ0gyXVtDQEhdKFtDSDJdW0NIMl0xKVtOSF1DKD1PKVtOSF1bQ0gyXVtDQEhdKFtDSDNdKWMybltjSF1bY0hdczI=

> <s_epik_cmdline>
J2VwaWtfcHl0aG9uJywgJy1waCcsICc3LjAnLCAnLXRuJywgJzgnLCAnLW1hJywgJzIwMCcsICctbWV0YWxfYmluZGluZycsICctaW1hZScsICc8aW5maWxlLm1hZT4nLCAnLW9tYWUnLCAnPG91dGZpbGUubWFlPic=

> <r_lp_tautomer_probability>
1

> <r_epik_Ionization_Penalty>
0.000331107

> <r_epik_Ionization_Penalty_Charging>
0

> <r_epik_Ionization_Penalty_Neutral>
0.000331107

> <r_epik_State_Penalty>
-0

> <r_epik_Charging_Adjusted_Penalty>
0

> <i_epik_Tot_Q>
0

> <i_epik_Tot_abs_Q>
0

> <r_epik_Metal_State_Penalty>
-0

> <b_epik_Metal_Only>
0

> <s_lp_Force_Field>
OPLS_2005

> <r_lp_Energy>
-2.32189

> <b_lp_Chiralities_Consistent>
1

> <s_lp_Variant>
AV-unprocessed.smi:2330-4

> <Gold.Version>
5.8.1

> <Gold.Id.Protein>
6NUR|6NUR_protein|mol2

> <Gold.PLP.Fitness>
39.8851

> <Gold.PLP.PLP>
-32.1080

> <Gold.PLP.part.hbond>
-2.6519

> <Gold.PLP.part.metal>
0.0000

> <Gold.PLP.part.buried>
-2.5383

> <Gold.PLP.part.nonpolar>
-28.5362

> <Gold.PLP.part.repulsive>
0.1898

> <Gold.PLP.ligand.clash>
0.0211

> <Gold.PLP.ligand.torsion>
0.5753

> <Gold.PLP.Chemscore.Hbond>
1.9920

> <Gold.PLP.Chemscore.CHOScore>
0.9489

> <Gold.PLP.Chemscore.Metal>
0.0000

> <Gold.Chemscore.Hbonds>
donor molecule, donor type, donor heavy atom, donor atom, acceptor molecule, acceptor atom, score
      L1  H     6    29       P1  7948  1.00
      L1  H     9    30       P1  7948  0.59
      L1  C    15    37       P1  8028  0.91

> <Gold.PLP.Chemscore.Internal.Correction>
0.1263

> <Gold.Rescore>
     Score         DG    S(hbond)    S(metal)    S(lipo)     H(rot)  DE(clash)    DE(int)     intcor
     14.82     -15.48       1.55        0.00      73.06       1.45       0.00       0.66       ----

> <Gold.Chemscore.Fitness>
14.8156

> <Gold.Chemscore.DG>
-15.4786

> <Gold.Chemscore.ZeroCoef>
-5.4800

> <Gold.Chemscore.Hbond>
1.5484

> <Gold.Chemscore.Metal>
0.0000

> <Gold.Chemscore.Lipo>
73.0608

> <Gold.Chemscore.Internal_Hbond>
0.0000

> <Gold.Chemscore.DEClash>
0.0038

> <Gold.Chemscore.DEInternal>
0.6591

> <Gold.Chemscore.Rot>
1.4536

> <Gold.Chemscore.Internal.Correction>
   9.000000E+99

> <Gold.Chemscore.Hbonds>
donor molecule, donor type, donor heavy atom, donor atom, acceptor molecule, acceptor atom, score
      L1  H     6    29       P1  7948  0.49
      L1  H     9    30       P1  7948  0.13

> <Gold.Chemscore.Hbond.Weighted>
-5.1716

> <Gold.Chemscore.Metal.Weighted>
-0.0000

> <Gold.Chemscore.Lipo.Weighted>
-8.5481

> <Gold.Chemscore.Internal_Hbond.Weighted>
0.0000

> <Gold.Chemscore.DEClash.Weighted>
0.0038

> <Gold.Chemscore.DEInternal.Weighted>
0.6591

> <Gold.Chemscore.Rot.Weighted>
3.7212

> <Gold.Chemscore.Internal.Correction.Weighted>
   9.000000E+99

> <Gold.Protein.RotatedTorsions>
[ 6907 6896 6895 6894 ] final  -17.44 input  -60.11 | X-H torsion
[ 7974 7965 7964 7962 ] final  -89.39 input  175.53 | X-H torsion
[ 8008 7997 7996 7995 ] final  156.14 input   59.86 | X-H torsion
[ 10167 10162 10161 10158 ] final -103.28 input  -65.29 | X-H torsion
[ 10718 10713 10712 10709 ] final  109.74 input   66.30 | X-H torsion
[ 10763 10752 10751 10750 ] final  -31.56 input  -60.55 | X-H torsion
[ 11005 11000 10999 10996 ] final -116.77 input  -57.11 | X-H torsion

> <Gold.Protein.ActiveResidues>
 VAL166  LYS551  ARG553  GLY616  TRP617  ASP618  TYR619  PRO620  LYS621  CYS622 
 ASP623  PHE694  ASN695  SER759  ASP760  ASP761  ALA762  ILE779  LEU786  VAL792 
 PHE793  MET794  SER795  GLU796  ALA797  LYS798  CYS799  TRP800  GLU811  SER814 

> <Gold.Protein.RotatedAtoms>
  151.2933  135.0748  159.9211 H   0  0  0  0  0  0  0  0  0  0  0  0  # atno 6907 bound_to 6896
  152.5312  133.9909  159.7861 H   0  0  0  0  0  0  0  0  0  0  0  0  # atno 6908 bound_to 6896
  151.0183  133.5849  159.2705 H   0  0  0  0  0  0  0  0  0  0  0  0  # atno 6909 bound_to 6896
  145.4404  140.9559  143.2078 H   0  0  0  0  0  0  0  0  0  0  0  0  # atno 7974 bound_to 7965
  156.2439  140.1920  156.6910 H   0  0  0  0  0  0  0  0  0  0  0  0  # atno 8008 bound_to 7997
  154.6252  140.0603  156.9690 H   0  0  0  0  0  0  0  0  0  0  0  0  # atno 8009 bound_to 7997
  155.1798  140.3275  155.4380 H   0  0  0  0  0  0  0  0  0  0  0  0  # atno 8010 bound_to 7997
  140.2217  143.3671  152.0964 H   0  0  0  0  0  0  0  0  0  0  0  0  # atno 10167 bound_to 10162
  157.6527  131.0919  150.6498 H   0  0  0  0  0  0  0  0  0  0  0  0  # atno 10718 bound_to 10713
  153.7993  135.6891  153.4858 H   0  0  0  0  0  0  0  0  0  0  0  0  # atno 10763 bound_to 10752
  153.1699  135.4547  154.9886 H   0  0  0  0  0  0  0  0  0  0  0  0  # atno 10764 bound_to 10752
  154.8013  135.3339  154.7483 H   0  0  0  0  0  0  0  0  0  0  0  0  # atno 10765 bound_to 10752
  141.0399  133.9851  157.3010 H   0  0  0  0  0  0  0  0  0  0  0  0  # atno 11005 bound_to 11000
  144.8125  139.5936  143.7023 LP  0  0  0  0  0  0  0  0  0  0  0  0  # atno 17320 bound_to 7965
  146.2559  139.6301  142.9395 LP  0  0  0  0  0  0  0  0  0  0  0  0  # atno 17321 bound_to 7965
  139.5142  144.6944  151.5672 LP  0  0  0  0  0  0  0  0  0  0  0  0  # atno 17342 bound_to 10162
  140.6250  143.9186  150.6557 LP  0  0  0  0  0  0  0  0  0  0  0  0  # atno 17343 bound_to 10162
  156.6807  130.4566  149.5628 LP  0  0  0  0  0  0  0  0  0  0  0  0  # atno 17370 bound_to 10713
  156.1931  130.6572  151.1084 LP  0  0  0  0  0  0  0  0  0  0  0  0  # atno 17371 bound_to 10713
  139.9268  135.0201  156.8263 LP  0  0  0  0  0  0  0  0  0  0  0  0  # atno 17394 bound_to 11000
  140.6253  133.9956  155.7637 LP  0  0  0  0  0  0  0  0  0  0  0  0  # atno 17395 bound_to 11000

$$$$
