AV-unprocessed.smi:2668|AV-procd|sdf|10339|dock3
  -GOLD-   2272014363D 1   1.00000     0.00000
 Structure written by MMmdl.
 54 55  0  0  0  0  0  0  0  0  3 V2000
  146.1763  135.1053  154.2816 C   0  0  0  0  0  0  0  0  0  0  0  0
  146.1872  135.6436  152.8983 N   0  3  0  0  0  0  0  0  0  0  0  0
  146.1287  134.5313  151.9173 C   0  0  0  0  0  0  0  0  0  0  0  0
  145.1608  136.7112  152.6592 C   0  0  2  0  0  0  0  0  0  0  0  0
  145.5721  137.7281  151.5717 C   0  0  0  0  0  0  0  0  0  0  0  0
  146.7478  138.6175  152.0185 C   0  0  0  0  0  0  0  0  0  0  0  0
  146.4284  139.3602  153.2757 N   0  3  2  0  0  0  0  0  0  0  0  0
  147.4372  140.4028  153.6935 C   0  0  0  0  0  0  0  0  0  0  0  0
  148.8234  139.7750  153.9703 C   0  0  0  0  0  0  0  0  0  0  0  0
  147.6191  141.4655  152.5812 C   0  0  0  0  0  0  0  0  0  0  0  0
  146.9706  141.1478  154.9810 C   0  0  0  0  0  0  0  0  0  0  0  0
  148.0044  141.9874  155.5892 N   0  0  0  0  0  0  0  0  0  0  0  0
  148.8812  141.5910  156.5230 C   0  0  0  0  0  0  0  0  0  0  0  0
  148.9324  140.4425  156.9604 O   0  0  0  0  0  0  0  0  0  0  0  0
  149.6663  142.6089  156.9150 N   0  0  0  0  0  0  0  0  0  0  0  0
  150.7240  142.5924  157.8640 C   0  0  0  0  0  0  0  0  0  0  0  0
  150.9316  141.4087  158.6023 C   0  0  0  0  0  0  0  0  0  0  0  0
  151.9608  141.3695  159.5622 C   0  0  0  0  0  0  0  0  0  0  0  0
  152.7415  142.5257  159.7540 C   0  0  0  0  0  0  0  0  0  0  0  0
  152.5468  143.6716  159.0682 N   0  0  0  0  0  0  0  0  0  0  0  0
  151.5597  143.7017  158.1471 C   0  0  0  0  0  0  0  0  0  0  0  0
  146.0141  138.4169  154.3577 C   0  0  0  0  0  0  0  0  0  0  0  0
  144.8276  137.5405  153.9192 C   0  0  0  0  0  0  0  0  0  0  0  0
  145.1854  134.7385  154.5525 H   0  0  0  0  0  0  0  0  0  0  0  0
  146.4828  135.8549  155.0096 H   0  0  0  0  0  0  0  0  0  0  0  0
  146.8801  134.2786  154.3858 H   0  0  0  0  0  0  0  0  0  0  0  0
  145.1331  134.0868  151.8869 H   0  0  0  0  0  0  0  0  0  0  0  0
  146.8397  133.7453  152.1742 H   0  0  0  0  0  0  0  0  0  0  0  0
  146.3947  134.8617  150.9144 H   0  0  0  0  0  0  0  0  0  0  0  0
  144.2490  136.2097  152.3306 H   0  0  0  0  0  0  0  0  0  0  0  0
  145.7969  137.2449  150.6223 H   0  0  0  0  0  0  0  0  0  0  0  0
  144.7184  138.3721  151.3545 H   0  0  0  0  0  0  0  0  0  0  0  0
  147.6425  138.0103  152.1565 H   0  0  0  0  0  0  0  0  0  0  0  0
  146.9530  139.3013  151.1973 H   0  0  0  0  0  0  0  0  0  0  0  0
  149.5491  140.5433  154.2403 H   0  0  0  0  0  0  0  0  0  0  0  0
  149.2222  139.2570  153.0982 H   0  0  0  0  0  0  0  0  0  0  0  0
  148.8005  139.0646  154.7963 H   0  0  0  0  0  0  0  0  0  0  0  0
  148.1894  142.3227  152.9415 H   0  0  0  0  0  0  0  0  0  0  0  0
  146.6624  141.8418  152.2178 H   0  0  0  0  0  0  0  0  0  0  0  0
  148.1717  141.0791  151.7247 H   0  0  0  0  0  0  0  0  0  0  0  0
  146.1225  141.7961  154.7616 H   0  0  0  0  0  0  0  0  0  0  0  0
  146.5806  140.4383  155.7133 H   0  0  0  0  0  0  0  0  0  0  0  0
  148.0253  142.9569  155.3085 H   0  0  0  0  0  0  0  0  0  0  0  0
  149.4452  143.5165  156.5324 H   0  0  0  0  0  0  0  0  0  0  0  0
  150.3147  140.5379  158.4343 H   0  0  0  0  0  0  0  0  0  0  0  0
  152.1473  140.4749  160.1377 H   0  0  0  0  0  0  0  0  0  0  0  0
  153.5393  142.5319  160.4818 H   0  0  0  0  0  0  0  0  0  0  0  0
  151.4377  144.6518  157.6511 H   0  0  0  0  0  0  0  0  0  0  0  0
  146.8515  137.7799  154.6430 H   0  0  0  0  0  0  0  0  0  0  0  0
  145.7106  138.9547  155.2533 H   0  0  0  0  0  0  0  0  0  0  0  0
  143.9792  138.1909  153.7000 H   0  0  0  0  0  0  0  0  0  0  0  0
  144.4873  136.9153  154.7432 H   0  0  0  0  0  0  0  0  0  0  0  0
  147.0929  136.0734  152.7760 H   0  0  0  0  0  0  0  0  0  0  0  0
  145.5994  139.8943  153.0562 H   0  0  0  0  0  0  0  0  0  0  0  0
  1  2  1  0  0  0  0
  1 24  1  0  0  0  0
  1 25  1  0  0  0  0
  1 26  1  0  0  0  0
  2  3  1  0  0  0  0
  2  4  1  0  0  0  0
  2 53  1  0  0  0  0
  3 27  1  0  0  0  0
  3 28  1  0  0  0  0
  3 29  1  0  0  0  0
  4 23  1  0  0  0  0
  4  5  1  0  0  0  0
  4 30  1  0  0  0  0
  5  6  1  0  0  0  0
  5 31  1  0  0  0  0
  5 32  1  0  0  0  0
  6  7  1  0  0  0  0
  6 33  1  0  0  0  0
  6 34  1  0  0  0  0
  7  8  1  0  0  0  0
  7 22  1  0  0  0  0
  7 54  1  0  0  0  0
  8  9  1  0  0  0  0
  8 10  1  0  0  0  0
  8 11  1  0  0  0  0
  9 35  1  0  0  0  0
  9 36  1  0  0  0  0
  9 37  1  0  0  0  0
 10 38  1  0  0  0  0
 10 39  1  0  0  0  0
 10 40  1  0  0  0  0
 11 12  1  0  0  0  0
 11 41  1  0  0  0  0
 11 42  1  0  0  0  0
 12 13  1  0  0  0  0
 12 43  1  0  0  0  0
 13 14  2  0  0  0  0
 13 15  1  0  0  0  0
 15 16  1  0  0  0  0
 15 44  1  0  0  0  0
 16 21  1  0  0  0  0
 16 17  2  0  0  0  0
 17 18  1  0  0  0  0
 17 45  1  0  0  0  0
 18 19  2  0  0  0  0
 18 46  1  0  0  0  0
 19 20  1  0  0  0  0
 19 47  1  0  0  0  0
 20 21  2  0  0  0  0
 21 48  1  0  0  0  0
 22 23  1  0  0  0  0
 22 49  1  0  0  0  0
 22 50  1  0  0  0  0
 23 51  1  0  0  0  0
 23 52  1  0  0  0  0
M  CHG  1   2   1
M  CHG  1   7   1
M  END
> <s_m_source_file>
AV-unprocessed.smi

> <i_m_source_file_index>
2668

> <i_lp_mmshare_version>
43012

> <i_f3d_flags>
0

> <s_epik_input>
W0NIM11OKFtDSDNdKVtDSF0xW0NIMl1bQ0gyXU4oW0NIMl1bQ0gyXTEpQyhbQ0gzXSkoW0NIM10pW0NIMl1bTkhdQyg9TylbTkhdYzJbY0hdW2NIXVtjSF1uW2NIXTI=

> <s_epik_cmdline>
J2VwaWtfcHl0aG9uJywgJy1waCcsICc3LjAnLCAnLXRuJywgJzgnLCAnLW1hJywgJzIwMCcsICctbWV0YWxfYmluZGluZycsICctaW1hZScsICc8aW5maWxlLm1hZT4nLCAnLW9tYWUnLCAnPG91dGZpbGUubWFlPic=

> <r_epik_Ionization_Penalty>
0.210461

> <r_epik_Ionization_Penalty_Charging>
0.206231

> <r_epik_Ionization_Penalty_Neutral>
0.00422959

> <r_epik_State_Penalty>
0.176025

> <r_epik_Charging_Adjusted_Penalty>
0.382256

> <i_epik_Tot_Q>
2

> <i_epik_Tot_abs_Q>
2

> <r_epik_Metal_State_Penalty>
0.176152

> <b_epik_Metal_Only>
0

> <s_lp_Force_Field>
OPLS_2005

> <r_lp_Energy>
56.664

> <b_lp_Chiralities_Consistent>
1

> <s_lp_Variant>
AV-unprocessed.smi:2668-2

> <Gold.Version>
5.8.1

> <Gold.Id.Protein>
6NUR|6NUR_protein|mol2

> <Gold.PLP.Fitness>
45.1549

> <Gold.PLP.PLP>
-29.3232

> <Gold.PLP.part.hbond>
-4.0000

> <Gold.PLP.part.metal>
0.0000

> <Gold.PLP.part.buried>
2.4953

> <Gold.PLP.part.nonpolar>
-28.3243

> <Gold.PLP.part.repulsive>
0.1015

> <Gold.PLP.ligand.clash>
0.0000

> <Gold.PLP.ligand.torsion>
0.9559

> <Gold.PLP.Chemscore.Hbond>
5.8625

> <Gold.PLP.Chemscore.CHOScore>
0.0000

> <Gold.PLP.Chemscore.Metal>
0.0000

> <Gold.Chemscore.Hbonds>
donor molecule, donor type, donor heavy atom, donor atom, acceptor molecule, acceptor atom, score
      L1  H     2    53       P1  7948  1.79
      L1  H     7    54       P1 10175  1.72
      L1  H    12    43       P1  8028  0.91
      L1  H    15    44       P1  8028  1.00

> <Gold.PLP.Chemscore.Internal.Correction>
0.1560

> <Gold.Rescore>
     Score         DG    S(hbond)    S(metal)    S(lipo)     H(rot)  DE(clash)    DE(int)     intcor
     18.38     -25.90       3.66        0.00     107.01       1.69       5.23       2.28       ----

> <Gold.Chemscore.Fitness>
18.3781

> <Gold.Chemscore.DG>
-25.8977

> <Gold.Chemscore.ZeroCoef>
-5.4800

> <Gold.Chemscore.Hbond>
3.6581

> <Gold.Chemscore.Metal>
0.0000

> <Gold.Chemscore.Lipo>
107.0092

> <Gold.Chemscore.Internal_Hbond>
0.0000

> <Gold.Chemscore.DEClash>
5.2348

> <Gold.Chemscore.DEInternal>
2.2848

> <Gold.Chemscore.Rot>
1.6877

> <Gold.Chemscore.Internal.Correction>
   9.000000E+99

> <Gold.Chemscore.Hbonds>
donor molecule, donor type, donor heavy atom, donor atom, acceptor molecule, acceptor atom, score
      L1  H     2    53       P1  7948  0.84
      L1  H     7    54       P1 10175  0.84
      L1  H    12    43       P1  8028  0.78
      L1  H    15    44       P1  8028  0.98

> <Gold.Chemscore.Hbond.Weighted>
-12.2181

> <Gold.Chemscore.Metal.Weighted>
-0.0000

> <Gold.Chemscore.Lipo.Weighted>
-12.5201

> <Gold.Chemscore.Internal_Hbond.Weighted>
0.0000

> <Gold.Chemscore.DEClash.Weighted>
5.2348

> <Gold.Chemscore.DEInternal.Weighted>
2.2848

> <Gold.Chemscore.Rot.Weighted>
4.3205

> <Gold.Chemscore.Internal.Correction.Weighted>
   9.000000E+99

> <Gold.Protein.RotatedTorsions>
[ 6907 6896 6895 6894 ] final   94.11 input  -60.11 | X-H torsion
[ 7974 7965 7964 7962 ] final   84.49 input  175.53 | X-H torsion
[ 8008 7997 7996 7995 ] final  159.95 input   59.86 | X-H torsion
[ 10167 10162 10161 10158 ] final  129.65 input  -65.29 | X-H torsion
[ 10718 10713 10712 10709 ] final -110.37 input   66.30 | X-H torsion
[ 10763 10752 10751 10750 ] final -149.93 input  -60.55 | X-H torsion
[ 11005 11000 10999 10996 ] final  161.89 input  -57.11 | X-H torsion

> <Gold.Protein.ActiveResidues>
 VAL166  LYS551  ARG553  GLY616  TRP617  ASP618  TYR619  PRO620  LYS621  CYS622 
 ASP623  PHE694  ASN695  SER759  ASP760  ASP761  ALA762  ILE779  LEU786  VAL792 
 PHE793  MET794  SER795  GLU796  ALA797  LYS798  CYS799  TRP800  GLU811  SER814 

> <Gold.Protein.RotatedAtoms>
  152.5450  134.1244  159.8412 H   0  0  0  0  0  0  0  0  0  0  0  0  # atno 6907 bound_to 6896
  151.1297  133.5038  159.2607 H   0  0  0  0  0  0  0  0  0  0  0  0  # atno 6908 bound_to 6896
  151.1689  135.0318  159.8797 H   0  0  0  0  0  0  0  0  0  0  0  0  # atno 6909 bound_to 6896
  145.5980  139.2348  143.2262 H   0  0  0  0  0  0  0  0  0  0  0  0  # atno 7974 bound_to 7965
  156.2205  140.1817  156.7488 H   0  0  0  0  0  0  0  0  0  0  0  0  # atno 8008 bound_to 7997
  154.5858  140.0659  156.9197 H   0  0  0  0  0  0  0  0  0  0  0  0  # atno 8009 bound_to 7997
  155.2423  140.3323  155.4293 H   0  0  0  0  0  0  0  0  0  0  0  0  # atno 8010 bound_to 7997
  139.5468  144.6780  151.4449 H   0  0  0  0  0  0  0  0  0  0  0  0  # atno 10167 bound_to 10162
  156.0587  130.5812  150.8228 H   0  0  0  0  0  0  0  0  0  0  0  0  # atno 10718 bound_to 10713
  154.8149  135.3297  154.7204 H   0  0  0  0  0  0  0  0  0  0  0  0  # atno 10763 bound_to 10752
  153.7847  135.6916  153.4886 H   0  0  0  0  0  0  0  0  0  0  0  0  # atno 10764 bound_to 10752
  153.1957  135.4534  155.0151 H   0  0  0  0  0  0  0  0  0  0  0  0  # atno 10765 bound_to 10752
  140.2202  134.8201  157.3213 H   0  0  0  0  0  0  0  0  0  0  0  0  # atno 11005 bound_to 11000
  146.1597  140.6805  142.9283 LP  0  0  0  0  0  0  0  0  0  0  0  0  # atno 17320 bound_to 7965
  144.7322  140.4705  143.6929 LP  0  0  0  0  0  0  0  0  0  0  0  0  # atno 17321 bound_to 7965
  140.6718  143.8277  150.7009 LP  0  0  0  0  0  0  0  0  0  0  0  0  # atno 17342 bound_to 10162
  140.1703  143.4200  152.2005 LP  0  0  0  0  0  0  0  0  0  0  0  0  # atno 17343 bound_to 10162
  157.5579  131.0945  150.9602 LP  0  0  0  0  0  0  0  0  0  0  0  0  # atno 17370 bound_to 10713
  156.9847  130.5540  149.5299 LP  0  0  0  0  0  0  0  0  0  0  0  0  # atno 17371 bound_to 10713
  140.1857  134.4434  155.7745 LP  0  0  0  0  0  0  0  0  0  0  0  0  # atno 17394 bound_to 11000
  141.2223  133.7004  156.7943 LP  0  0  0  0  0  0  0  0  0  0  0  0  # atno 17395 bound_to 11000

$$$$
