AV-unprocessed.smi:2639|AV-procd|sdf|10266|dock4
  -GOLD-   2272014273D 1   1.00000     0.00000
 Structure written by MMmdl.
 44 45  0  0  0  0  0  0  0  0  2 V2000
  144.6440  135.3111  154.3462 C   0  0  0  0  0  0  0  0  0  0  0  0
  145.1929  135.6109  152.9277 C   0  0  1  0  0  0  0  0  0  0  0  0
  144.0460  136.2292  152.0742 C   0  0  0  0  0  0  0  0  0  0  0  0
  143.5123  137.4004  152.6582 O   0  0  0  0  0  0  0  0  0  0  0  0
  146.3049  136.5708  153.0177 N   0  0  0  0  0  0  0  0  0  0  0  0
  146.3352  137.7758  153.6116 C   0  0  0  0  0  0  0  0  0  0  0  0
  145.3829  138.2752  154.2094 O   0  0  0  0  0  0  0  0  0  0  0  0
  147.5456  138.3453  153.4787 N   0  0  0  0  0  0  0  0  0  0  0  0
  147.9802  139.6186  153.9377 C   0  0  0  0  0  0  0  0  0  0  0  0
  147.0473  140.6790  153.9049 C   0  0  0  0  0  0  0  0  0  0  0  0
  147.4291  141.9560  154.3645 C   0  0  0  0  0  0  0  0  0  0  0  0
  148.6767  142.1538  154.8413 N   0  3  0  0  0  0  0  0  0  0  0  0
  149.5976  141.1684  154.9073 C   0  0  0  0  0  0  0  0  0  0  0  0
  149.2737  139.8706  154.4619 C   0  0  0  0  0  0  0  0  0  0  0  0
  145.7586  134.3001  152.2736 C   0  0  0  0  0  0  0  0  0  0  0  0
  144.6550  133.3416  151.7481 C   0  0  0  0  0  0  0  0  0  0  0  0
  145.2411  132.0954  151.0652 C   0  0  0  0  0  0  0  0  0  0  0  0
  146.1851  131.3353  152.0047 C   0  0  0  0  0  0  0  0  0  0  0  0
  147.2956  132.2597  152.5179 C   0  0  0  0  0  0  0  0  0  0  0  0
  146.7140  133.5055  153.2050 C   0  0  0  0  0  0  0  0  0  0  0  0
  143.9605  134.4615  154.3335 H   0  0  0  0  0  0  0  0  0  0  0  0
  144.0892  136.1556  154.7553 H   0  0  0  0  0  0  0  0  0  0  0  0
  145.4385  135.0856  155.0571 H   0  0  0  0  0  0  0  0  0  0  0  0
  144.3964  136.4960  151.0772 H   0  0  0  0  0  0  0  0  0  0  0  0
  143.2350  135.5166  151.9240 H   0  0  0  0  0  0  0  0  0  0  0  0
  143.4204  138.0567  151.9844 H   0  0  0  0  0  0  0  0  0  0  0  0
  147.1573  136.2709  152.5676 H   0  0  0  0  0  0  0  0  0  0  0  0
  148.2555  137.7768  153.0408 H   0  0  0  0  0  0  0  0  0  0  0  0
  146.0479  140.5203  153.5258 H   0  0  0  0  0  0  0  0  0  0  0  0
  146.7777  142.8180  154.3668 H   0  0  0  0  0  0  0  0  0  0  0  0
  150.5584  141.4428  155.3180 H   0  0  0  0  0  0  0  0  0  0  0  0
  150.0184  139.0937  154.5432 H   0  0  0  0  0  0  0  0  0  0  0  0
  146.3434  134.5970  151.4017 H   0  0  0  0  0  0  0  0  0  0  0  0
  144.0059  133.0252  152.5651 H   0  0  0  0  0  0  0  0  0  0  0  0
  144.0159  133.8467  151.0255 H   0  0  0  0  0  0  0  0  0  0  0  0
  144.4347  131.4378  150.7393 H   0  0  0  0  0  0  0  0  0  0  0  0
  145.7808  132.3918  150.1648 H   0  0  0  0  0  0  0  0  0  0  0  0
  145.6217  130.9329  152.8474 H   0  0  0  0  0  0  0  0  0  0  0  0
  146.6209  130.4813  151.4851 H   0  0  0  0  0  0  0  0  0  0  0  0
  147.9367  131.7178  153.2138 H   0  0  0  0  0  0  0  0  0  0  0  0
  147.9316  132.5652  151.6860 H   0  0  0  0  0  0  0  0  0  0  0  0
  147.5487  134.1273  153.5252 H   0  0  0  0  0  0  0  0  0  0  0  0
  146.1914  133.2012  154.1125 H   0  0  0  0  0  0  0  0  0  0  0  0
  148.9328  143.0854  155.1701 H   0  0  0  0  0  0  0  0  0  0  0  0
  1  2  1  0  0  0  0
  1 21  1  0  0  0  0
  1 22  1  0  0  0  0
  1 23  1  0  0  0  0
  2  3  1  0  0  0  0
  2  5  1  0  0  0  0
  2 15  1  0  0  0  0
  3  4  1  0  0  0  0
  3 24  1  0  0  0  0
  3 25  1  0  0  0  0
  4 26  1  0  0  0  0
  5  6  1  0  0  0  0
  5 27  1  0  0  0  0
  6  7  2  0  0  0  0
  6  8  1  0  0  0  0
  8  9  1  0  0  0  0
  8 28  1  0  0  0  0
  9 14  1  0  0  0  0
  9 10  2  0  0  0  0
 10 11  1  0  0  0  0
 10 29  1  0  0  0  0
 11 12  2  0  0  0  0
 11 30  1  0  0  0  0
 12 13  1  0  0  0  0
 12 44  1  0  0  0  0
 13 14  2  0  0  0  0
 13 31  1  0  0  0  0
 14 32  1  0  0  0  0
 15 20  1  0  0  0  0
 15 16  1  0  0  0  0
 15 33  1  0  0  0  0
 16 17  1  0  0  0  0
 16 34  1  0  0  0  0
 16 35  1  0  0  0  0
 17 18  1  0  0  0  0
 17 36  1  0  0  0  0
 17 37  1  0  0  0  0
 18 19  1  0  0  0  0
 18 38  1  0  0  0  0
 18 39  1  0  0  0  0
 19 20  1  0  0  0  0
 19 40  1  0  0  0  0
 19 41  1  0  0  0  0
 20 42  1  0  0  0  0
 20 43  1  0  0  0  0
M  CHG  1  12   1
M  END
> <s_m_source_file>
AV-unprocessed.smi

> <i_m_source_file_index>
2639

> <i_lp_mmshare_version>
43012

> <i_f3d_flags>
0

> <s_epik_input>
W0NIMl0xW0NIMl1bQ0gyXVtDSDJdW0NIMl1bQ0hdMVtDQF0oW0NIM10pKFtDSDJdW09IXSlbTkhdQyg9TylbTkhdYzJbY0hdW2NIXW5bY0hdW2NIXTI=

> <s_epik_cmdline>
J2VwaWtfcHl0aG9uJywgJy1waCcsICc3LjAnLCAnLXRuJywgJzgnLCAnLW1hJywgJzIwMCcsICctbWV0YWxfYmluZGluZycsICctaW1hZScsICc8aW5maWxlLm1hZT4nLCAnLW9tYWUnLCAnPG91dGZpbGUubWFlPic=

> <r_epik_Ionization_Penalty>
1.0096

> <r_epik_Ionization_Penalty_Charging>
1.00958

> <r_epik_Ionization_Penalty_Neutral>
2.00022e-05

> <r_epik_State_Penalty>
1.05889

> <r_epik_Charging_Adjusted_Penalty>
2.06847

> <i_epik_Tot_Q>
1

> <i_epik_Tot_abs_Q>
1

> <r_epik_Metal_State_Penalty>
1.15945

> <b_epik_Metal_Only>
0

> <s_lp_Force_Field>
OPLS_2005

> <r_lp_Energy>
30.6605

> <b_lp_Chiralities_Consistent>
1

> <s_lp_Variant>
AV-unprocessed.smi:2639-3

> <Gold.Version>
5.8.1

> <Gold.Id.Protein>
6NUR|6NUR_protein|mol2

> <Gold.PLP.Fitness>
46.6090

> <Gold.PLP.PLP>
-32.7722

> <Gold.PLP.part.hbond>
-5.0000

> <Gold.PLP.part.metal>
0.0000

> <Gold.PLP.part.buried>
-3.0859

> <Gold.PLP.part.nonpolar>
-25.3875

> <Gold.PLP.part.repulsive>
1.0068

> <Gold.PLP.ligand.clash>
0.0000

> <Gold.PLP.ligand.torsion>
0.6054

> <Gold.PLP.Chemscore.Hbond>
5.0000

> <Gold.PLP.Chemscore.CHOScore>
0.0000

> <Gold.PLP.Chemscore.Metal>
0.0000

> <Gold.Chemscore.Hbonds>
donor molecule, donor type, donor heavy atom, donor atom, acceptor molecule, acceptor atom, score
      L1  H     4    26       P1 10171  0.39
      L1  H     5    27       P1  7948  1.00
      L1  H     8    28       P1  7948  0.94
      L1  H    12    44       P1  8028  2.00

> <Gold.PLP.Chemscore.Internal.Correction>
0.0476

> <Gold.Rescore>
     Score         DG    S(hbond)    S(metal)    S(lipo)     H(rot)  DE(clash)    DE(int)     intcor
     17.33     -22.14       3.82        0.00      77.45       2.02       0.27       4.53       ----

> <Gold.Chemscore.Fitness>
17.3334

> <Gold.Chemscore.DG>
-22.1359

> <Gold.Chemscore.ZeroCoef>
-5.4800

> <Gold.Chemscore.Hbond>
3.8192

> <Gold.Chemscore.Metal>
0.0000

> <Gold.Chemscore.Lipo>
77.4526

> <Gold.Chemscore.Internal_Hbond>
0.0000

> <Gold.Chemscore.DEClash>
0.2702

> <Gold.Chemscore.DEInternal>
4.5323

> <Gold.Chemscore.Rot>
2.0165

> <Gold.Chemscore.Internal.Correction>
   9.000000E+99

> <Gold.Chemscore.Hbonds>
donor molecule, donor type, donor heavy atom, donor atom, acceptor molecule, acceptor atom, score
      L1  H     4    26       P1 10171  0.30
      L1  H     5    27       P1  7948  1.00
      L1  H     8    28       P1  7948  0.89
      L1  H    12    44       P1  8028  1.00

> <Gold.Chemscore.Hbond.Weighted>
-12.7561

> <Gold.Chemscore.Metal.Weighted>
-0.0000

> <Gold.Chemscore.Lipo.Weighted>
-9.0620

> <Gold.Chemscore.Internal_Hbond.Weighted>
0.0000

> <Gold.Chemscore.DEClash.Weighted>
0.2702

> <Gold.Chemscore.DEInternal.Weighted>
4.5323

> <Gold.Chemscore.Rot.Weighted>
5.1622

> <Gold.Chemscore.Internal.Correction.Weighted>
   9.000000E+99

> <Gold.Protein.RotatedTorsions>
[ 6907 6896 6895 6894 ] final   30.00 input  -60.11 | X-H torsion
[ 7974 7965 7964 7962 ] final -156.84 input  175.53 | X-H torsion
[ 8008 7997 7996 7995 ] final   96.84 input   59.86 | X-H torsion
[ 10167 10162 10161 10158 ] final   -9.20 input  -65.29 | X-H torsion
[ 10718 10713 10712 10709 ] final  -95.42 input   66.30 | X-H torsion
[ 10763 10752 10751 10750 ] final   27.80 input  -60.55 | X-H torsion
[ 11005 11000 10999 10996 ] final  -30.75 input  -57.11 | X-H torsion

> <Gold.Protein.ActiveResidues>
 VAL166  LYS551  ARG553  GLY616  TRP617  ASP618  TYR619  PRO620  LYS621  CYS622 
 ASP623  PHE694  ASN695  SER759  ASP760  ASP761  ALA762  ILE779  LEU786  VAL792 
 PHE793  MET794  SER795  GLU796  ALA797  LYS798  CYS799  TRP800  GLU811  SER814 

> <Gold.Protein.RotatedAtoms>
  152.0397  134.9719  160.0573 H   0  0  0  0  0  0  0  0  0  0  0  0  # atno 6907 bound_to 6896
  152.1162  133.4323  159.4662 H   0  0  0  0  0  0  0  0  0  0  0  0  # atno 6908 bound_to 6896
  150.6846  134.2508  159.4553 H   0  0  0  0  0  0  0  0  0  0  0  0  # atno 6909 bound_to 6896
  144.7575  140.4053  143.6001 H   0  0  0  0  0  0  0  0  0  0  0  0  # atno 7974 bound_to 7965
  156.0839  140.3267  155.7728 H   0  0  0  0  0  0  0  0  0  0  0  0  # atno 8008 bound_to 7997
  155.5108  140.0577  157.2941 H   0  0  0  0  0  0  0  0  0  0  0  0  # atno 8009 bound_to 7997
  154.4598  140.1961  156.0294 H   0  0  0  0  0  0  0  0  0  0  0  0  # atno 8010 bound_to 7997
  140.7081  143.5884  150.8919 H   0  0  0  0  0  0  0  0  0  0  0  0  # atno 10167 bound_to 10162
  156.0043  130.5108  150.6073 H   0  0  0  0  0  0  0  0  0  0  0  0  # atno 10718 bound_to 10713
  153.0532  135.6528  154.0640 H   0  0  0  0  0  0  0  0  0  0  0  0  # atno 10763 bound_to 10752
  154.0324  135.2910  155.3368 H   0  0  0  0  0  0  0  0  0  0  0  0  # atno 10764 bound_to 10752
  154.6833  135.5311  153.8360 H   0  0  0  0  0  0  0  0  0  0  0  0  # atno 10765 bound_to 10752
  140.9409  133.7279  156.1075 H   0  0  0  0  0  0  0  0  0  0  0  0  # atno 11005 bound_to 11000
  145.6731  139.1603  143.2743 LP  0  0  0  0  0  0  0  0  0  0  0  0  # atno 17320 bound_to 7965
  146.1601  140.6800  142.9281 LP  0  0  0  0  0  0  0  0  0  0  0  0  # atno 17321 bound_to 7965
  139.9610  143.6164  152.3002 LP  0  0  0  0  0  0  0  0  0  0  0  0  # atno 17342 bound_to 10162
  139.6716  144.7660  151.1772 LP  0  0  0  0  0  0  0  0  0  0  0  0  # atno 17343 bound_to 10162
  157.3912  131.0796  151.1392 LP  0  0  0  0  0  0  0  0  0  0  0  0  # atno 17370 bound_to 10713
  157.2083  130.6426  149.5764 LP  0  0  0  0  0  0  0  0  0  0  0  0  # atno 17371 bound_to 10713
  140.7735  134.3806  157.5503 LP  0  0  0  0  0  0  0  0  0  0  0  0  # atno 17394 bound_to 11000
  139.8820  134.9037  156.2860 LP  0  0  0  0  0  0  0  0  0  0  0  0  # atno 17395 bound_to 11000

$$$$
