AV-unprocessed.smi:283|AV-procd|sdf|2132|dock7
  -GOLD-   2262021443D 1   1.00000     0.00000
 Structure written by MMmdl.
 48 51  0  0  0  0  0  0  0  0  1 V2000
  154.2097  140.6641  160.0048 C   0  0  0  0  0  0  0  0  0  0  0  0
  153.0043  141.0359  159.1315 C   0  0  1  0  0  0  0  0  0  0  0  0
  152.0134  139.9617  159.1717 N   0  0  0  0  0  0  0  0  0  0  0  0
  152.0768  138.9413  158.2879 C   0  0  0  0  0  0  0  0  0  0  0  0
  153.1608  138.9310  157.4763 N   0  0  0  0  0  0  0  0  0  0  0  0
  153.3301  137.9392  156.5980 C   0  0  0  0  0  0  0  0  0  0  0  0
  152.5470  136.8834  156.3720 N   0  0  0  0  0  0  0  0  0  0  0  0
  151.4405  136.8958  157.1703 C   0  0  0  0  0  0  0  0  0  0  0  0
  151.1286  137.8858  158.1460 C   0  0  0  0  0  0  0  0  0  0  0  0
  149.9181  137.5687  158.7510 N   0  0  0  0  0  0  0  0  0  0  0  0
  149.5528  136.4534  158.1819 C   0  0  0  0  0  0  0  0  0  0  0  0
  150.4137  135.9728  157.2226 N   0  0  0  0  0  0  0  0  0  0  0  0
  150.2623  134.7174  156.4207 C   0  0  1  0  0  0  0  0  0  0  0  0
  149.1331  134.0153  156.8471 O   0  0  0  0  0  0  0  0  0  0  0  0
  148.4373  133.4442  155.7359 C   0  0  1  0  0  0  0  0  0  0  0  0
  147.0212  134.0543  155.7008 C   0  0  0  0  0  0  0  0  0  0  0  0
  146.2702  133.5133  154.6339 O   0  0  0  0  0  0  0  0  0  0  0  0
  149.3309  133.7340  154.5149 C   0  0  1  0  0  0  0  0  0  0  0  0
  148.6614  133.8688  153.2751 O   0  0  0  0  0  0  0  0  0  0  0  0
  150.1043  134.9781  154.9181 C   0  0  1  0  0  0  0  0  0  0  0  0
  149.4147  136.1821  154.6223 O   0  0  0  0  0  0  0  0  0  0  0  0
  152.4667  142.4157  159.5245 C   0  0  0  0  0  0  0  0  0  0  0  0
  152.7821  142.9580  160.7925 C   0  0  0  0  0  0  0  0  0  0  0  0
  152.2865  144.2167  161.1798 C   0  0  0  0  0  0  0  0  0  0  0  0
  151.4761  144.9539  160.2982 C   0  0  0  0  0  0  0  0  0  0  0  0
  151.1704  144.4334  159.0274 C   0  0  0  0  0  0  0  0  0  0  0  0
  151.6644  143.1734  158.6340 C   0  0  0  0  0  0  0  0  0  0  0  0
  151.2677  142.5927  157.0541 Cl  0  0  0  0  0  0  0  0  0  0  0  0
  151.1510  134.1275  156.6500 H   0  0  0  0  0  0  0  0  0  0  0  0
  148.3607  132.3684  155.9002 H   0  0  0  0  0  0  0  0  0  0  0  0
  150.0405  132.9111  154.4170 H   0  0  0  0  0  0  0  0  0  0  0  0
  151.0872  135.0209  154.4481 H   0  0  0  0  0  0  0  0  0  0  0  0
  154.9996  141.4109  159.9197 H   0  0  0  0  0  0  0  0  0  0  0  0
  154.6318  139.7045  159.7048 H   0  0  0  0  0  0  0  0  0  0  0  0
  153.9316  140.5925  161.0568 H   0  0  0  0  0  0  0  0  0  0  0  0
  153.3640  141.0725  158.1048 H   0  0  0  0  0  0  0  0  0  0  0  0
  151.1479  140.2102  159.6285 H   0  0  0  0  0  0  0  0  0  0  0  0
  154.2230  137.9964  155.9930 H   0  0  0  0  0  0  0  0  0  0  0  0
  148.6395  135.9440  158.4533 H   0  0  0  0  0  0  0  0  0  0  0  0
  146.4925  133.8153  156.6241 H   0  0  0  0  0  0  0  0  0  0  0  0
  147.0498  135.1410  155.6242 H   0  0  0  0  0  0  0  0  0  0  0  0
  146.5128  132.6060  154.5267 H   0  0  0  0  0  0  0  0  0  0  0  0
  148.8325  134.7364  152.9403 H   0  0  0  0  0  0  0  0  0  0  0  0
  149.0050  136.0911  153.7753 H   0  0  0  0  0  0  0  0  0  0  0  0
  153.4044  142.4059  161.4814 H   0  0  0  0  0  0  0  0  0  0  0  0
  152.5288  144.6157  162.1538 H   0  0  0  0  0  0  0  0  0  0  0  0
  151.0939  145.9197  160.5941 H   0  0  0  0  0  0  0  0  0  0  0  0
  150.5542  145.0059  158.3500 H   0  0  0  0  0  0  0  0  0  0  0  0
  1  2  1  0  0  0  0
  1 33  1  0  0  0  0
  1 34  1  0  0  0  0
  1 35  1  0  0  0  0
  2  3  1  0  0  0  0
  2 22  1  0  0  0  0
  2 36  1  0  0  0  0
  3  4  1  0  0  0  0
  3 37  1  0  0  0  0
  4  9  1  0  0  0  0
  4  5  2  0  0  0  0
  5  6  1  0  0  0  0
  6  7  2  0  0  0  0
  6 38  1  0  0  0  0
  7  8  1  0  0  0  0
  8 12  1  0  0  0  0
  8  9  2  0  0  0  0
  9 10  1  0  0  0  0
 10 11  2  0  0  0  0
 11 12  1  0  0  0  0
 11 39  1  0  0  0  0
 12 13  1  0  0  0  0
 13 29  1  0  0  0  0
 13 20  1  0  0  0  0
 13 14  1  0  0  0  0
 14 15  1  0  0  0  0
 15 30  1  0  0  0  0
 15 16  1  0  0  0  0
 15 18  1  0  0  0  0
 16 17  1  0  0  0  0
 16 40  1  0  0  0  0
 16 41  1  0  0  0  0
 17 42  1  0  0  0  0
 18 31  1  0  0  0  0
 18 19  1  0  0  0  0
 18 20  1  0  0  0  0
 19 43  1  0  0  0  0
 20 32  1  0  0  0  0
 20 21  1  0  0  0  0
 21 44  1  0  0  0  0
 22 27  1  0  0  0  0
 22 23  2  0  0  0  0
 23 24  1  0  0  0  0
 23 45  1  0  0  0  0
 24 25  2  0  0  0  0
 24 46  1  0  0  0  0
 25 26  1  0  0  0  0
 25 47  1  0  0  0  0
 26 27  2  0  0  0  0
 26 48  1  0  0  0  0
 27 28  1  0  0  0  0
M  END
> <s_m_source_file>
AV-unprocessed.smi

> <i_m_source_file_index>
283

> <i_lp_mmshare_version>
43012

> <i_f3d_flags>
0

> <s_epik_input>
Q2xjMVtjSF1bY0hdW2NIXVtjSF1jMVtDQEhdKFtDSDNdKVtOSF1jKG5bY0hdbjIpYyhjMjMpbltjSF1uM1tDQEBIXTRPW0NASF0oW0NIMl1bT0hdKVtDQEBIXShbT0hdKVtDQEhdNFtPSF0=

> <s_epik_cmdline>
J2VwaWtfcHl0aG9uJywgJy1waCcsICc3LjAnLCAnLXRuJywgJzgnLCAnLW1hJywgJzIwMCcsICctbWV0YWxfYmluZGluZycsICctaW1hZScsICc8aW5maWxlLm1hZT4nLCAnLW9tYWUnLCAnPG91dGZpbGUubWFlPic=

> <r_lp_tautomer_probability>
1

> <r_epik_Ionization_Penalty>
0.000266407

> <r_epik_Ionization_Penalty_Charging>
0

> <r_epik_Ionization_Penalty_Neutral>
0.000266407

> <r_epik_State_Penalty>
-0

> <r_epik_Charging_Adjusted_Penalty>
0

> <i_epik_Tot_Q>
0

> <i_epik_Tot_abs_Q>
0

> <r_epik_Metal_State_Penalty>
-0

> <b_epik_Metal_Only>
0

> <s_epik_Chemistry_Notes>
This compound contains an acetal/aminal-like group ( X-CH(R)-Y where X, Y are N, S, or O) that may be acid/base labile, releasing an aldehyde.

> <s_lp_Force_Field>
OPLS_2005

> <r_lp_Energy>
55.3457

> <b_lp_Chiralities_Consistent>
1

> <s_lp_Variant>
AV-unprocessed.smi:283-8

> <Gold.Version>
5.8.1

> <Gold.Id.Protein>
6NUR|6NUR_protein|mol2

> <Gold.PLP.Fitness>
54.0645

> <Gold.PLP.PLP>
-43.9398

> <Gold.PLP.part.hbond>
-4.0000

> <Gold.PLP.part.metal>
0.0000

> <Gold.PLP.part.buried>
-6.4235

> <Gold.PLP.part.nonpolar>
-33.5822

> <Gold.PLP.part.repulsive>
0.1487

> <Gold.PLP.ligand.clash>
0.0000

> <Gold.PLP.ligand.torsion>
0.8966

> <Gold.PLP.Chemscore.Hbond>
3.9420

> <Gold.PLP.Chemscore.CHOScore>
0.0000

> <Gold.PLP.Chemscore.Metal>
0.0000

> <Gold.Chemscore.Hbonds>
donor molecule, donor type, donor heavy atom, donor atom, acceptor molecule, acceptor atom, score
      L1  H    19    43       P1  7948  0.75
      L1  H    21    44       P1  7948  1.00
      P1  H  7997  8008       L1     5  0.90
      P1  H 10752 10765       L1     7  0.99

> <Gold.PLP.Chemscore.Internal.Correction>
0.0920

> <Gold.Rescore>
     Score         DG    S(hbond)    S(metal)    S(lipo)     H(rot)  DE(clash)    DE(int)     intcor
     17.11     -18.19       2.98        0.00     113.15       4.10       0.19       0.89       ----

> <Gold.Chemscore.Fitness>
17.1083

> <Gold.Chemscore.DG>
-18.1865

> <Gold.Chemscore.ZeroCoef>
-5.4800

> <Gold.Chemscore.Hbond>
2.9809

> <Gold.Chemscore.Metal>
0.0000

> <Gold.Chemscore.Lipo>
113.1464

> <Gold.Chemscore.Internal_Hbond>
0.0000

> <Gold.Chemscore.DEClash>
0.1919

> <Gold.Chemscore.DEInternal>
0.8864

> <Gold.Chemscore.Rot>
4.0968

> <Gold.Chemscore.Internal.Correction>
   9.000000E+99

> <Gold.Chemscore.Hbonds>
donor molecule, donor type, donor heavy atom, donor atom, acceptor molecule, acceptor atom, score
      L1  H    19    43       P1  7948  0.09
      L1  H    21    44       P1  7948  0.94
      P1  H  7997  8008       L1     5  0.18
      P1  H 10752 10765       L1     7  0.85

> <Gold.Chemscore.Hbond.Weighted>
-9.9563

> <Gold.Chemscore.Metal.Weighted>
-0.0000

> <Gold.Chemscore.Lipo.Weighted>
-13.2381

> <Gold.Chemscore.Internal_Hbond.Weighted>
0.0000

> <Gold.Chemscore.DEClash.Weighted>
0.1919

> <Gold.Chemscore.DEInternal.Weighted>
0.8864

> <Gold.Chemscore.Rot.Weighted>
10.4879

> <Gold.Chemscore.Internal.Correction.Weighted>
   9.000000E+99

> <Gold.Protein.RotatedTorsions>
[ 6907 6896 6895 6894 ] final -155.02 input  -60.11 | X-H torsion
[ 7974 7965 7964 7962 ] final  -57.73 input  175.53 | X-H torsion
[ 8008 7997 7996 7995 ] final  -76.36 input   59.86 | X-H torsion
[ 10167 10162 10161 10158 ] final  175.91 input  -65.29 | X-H torsion
[ 10718 10713 10712 10709 ] final  -30.62 input   66.30 | X-H torsion
[ 10763 10752 10751 10750 ] final -144.31 input  -60.55 | X-H torsion
[ 11005 11000 10999 10996 ] final   86.49 input  -57.11 | X-H torsion

> <Gold.Protein.ActiveResidues>
 VAL166  LYS551  ARG553  GLY616  TRP617  ASP618  TYR619  PRO620  LYS621  CYS622 
 ASP623  PHE694  ASN695  SER759  ASP760  ASP761  ALA762  ILE779  LEU786  VAL792 
 PHE793  MET794  SER795  GLU796  ALA797  LYS798  CYS799  TRP800  GLU811  SER814 

> <Gold.Protein.RotatedAtoms>
  151.2662  133.4277  159.2618 H   0  0  0  0  0  0  0  0  0  0  0  0  # atno 6907 bound_to 6896
  151.0486  134.9657  159.8209 H   0  0  0  0  0  0  0  0  0  0  0  0  # atno 6908 bound_to 6896
  152.5378  134.2618  159.8990 H   0  0  0  0  0  0  0  0  0  0  0  0  # atno 6909 bound_to 6896
  145.8476  140.8374  143.0002 H   0  0  0  0  0  0  0  0  0  0  0  0  # atno 7974 bound_to 7965
  154.5498  140.0728  156.8649 H   0  0  0  0  0  0  0  0  0  0  0  0  # atno 8008 bound_to 7997
  155.3015  140.3384  155.4229 H   0  0  0  0  0  0  0  0  0  0  0  0  # atno 8009 bound_to 7997
  156.1951  140.1700  156.8000 H   0  0  0  0  0  0  0  0  0  0  0  0  # atno 8010 bound_to 7997
  139.5195  144.2976  152.0408 H   0  0  0  0  0  0  0  0  0  0  0  0  # atno 10167 bound_to 10162
  156.3975  130.4384  149.7347 H   0  0  0  0  0  0  0  0  0  0  0  0  # atno 10718 bound_to 10713
  154.8433  135.3444  154.6326 H   0  0  0  0  0  0  0  0  0  0  0  0  # atno 10763 bound_to 10752
  153.6936  135.6973  153.5087 H   0  0  0  0  0  0  0  0  0  0  0  0  # atno 10764 bound_to 10752
  153.2576  135.4333  155.0816 H   0  0  0  0  0  0  0  0  0  0  0  0  # atno 10765 bound_to 10752
  139.8943  134.8358  156.2727 H   0  0  0  0  0  0  0  0  0  0  0  0  # atno 11005 bound_to 11000
  144.6730  140.0905  143.7465 LP  0  0  0  0  0  0  0  0  0  0  0  0  # atno 17320 bound_to 7965
  145.9394  139.2659  143.1277 LP  0  0  0  0  0  0  0  0  0  0  0  0  # atno 17321 bound_to 7965
  140.2425  144.4254  150.6254 LP  0  0  0  0  0  0  0  0  0  0  0  0  # atno 17342 bound_to 10162
  140.6281  143.2184  151.6554 LP  0  0  0  0  0  0  0  0  0  0  0  0  # atno 17343 bound_to 10162
  156.4376  130.7845  151.2866 LP  0  0  0  0  0  0  0  0  0  0  0  0  # atno 17370 bound_to 10713
  157.7502  131.0135  150.3425 LP  0  0  0  0  0  0  0  0  0  0  0  0  # atno 17371 bound_to 10713
  141.0090  133.7107  156.1081 LP  0  0  0  0  0  0  0  0  0  0  0  0  # atno 17394 bound_to 11000
  140.7394  134.4167  157.5556 LP  0  0  0  0  0  0  0  0  0  0  0  0  # atno 17395 bound_to 11000

$$$$
