AV-unprocessed.smi:2510|AV-procd|sdf|9875|dock4
  -GOLD-   2272013503D 1   1.00000     0.00000
 Structure written by MMmdl.
 48 49  0  0  0  0  0  0  0  0  1 V2000
  153.0149  145.4888  157.0162 C   0  0  0  0  0  0  0  0  0  0  0  0
  151.8872  145.5799  158.0585 C   0  0  0  0  0  0  0  0  0  0  0  0
  151.6626  144.3406  158.9586 C   0  0  0  0  0  0  0  0  0  0  0  0
  150.1611  144.3436  159.3662 C   0  0  0  0  0  0  0  0  0  0  0  0
  149.6062  145.6662  159.9286 C   0  0  0  0  0  0  0  0  0  0  0  0
  152.2108  142.9779  158.4391 C   0  0  2  0  0  0  0  0  0  0  0  0
  151.1908  142.0934  157.8834 N   0  0  0  0  0  0  0  0  0  0  0  0
  151.4283  141.1033  157.0115 C   0  0  0  0  0  0  0  0  0  0  0  0
  152.5521  140.8495  156.5746 O   0  0  0  0  0  0  0  0  0  0  0  0
  150.2003  140.2885  156.5850 C   0  0  0  0  0  0  0  0  0  0  0  0
  149.0917  141.1588  156.0509 C   0  0  0  0  0  0  0  0  0  0  0  0
  148.5324  141.1590  154.7386 C   0  0  0  0  0  0  0  0  0  0  0  0
  147.5707  142.1285  154.7810 C   0  0  0  0  0  0  0  0  0  0  0  0
  146.6232  142.6241  153.7425 C   0  0  0  0  0  0  0  0  0  0  0  0
  147.5999  142.6434  156.0564 N   0  0  0  0  0  0  0  0  0  0  0  0
  148.5276  142.0633  156.8400 N   0  0  0  0  0  0  0  0  0  0  0  0
  152.6153  142.6043  159.8712 C   0  0  1  0  0  0  0  0  0  0  0  0
  153.8500  141.7363  160.0819 C   0  0  0  0  0  0  0  0  0  0  0  0
  152.6963  144.1223  160.1010 C   0  0  2  0  0  0  0  0  0  0  0  0
  152.2390  144.5542  161.3733 O   0  0  0  0  0  0  0  0  0  0  0  0
  153.1534  144.2905  162.4229 C   0  0  0  0  0  0  0  0  0  0  0  0
  147.0018  143.3810  156.4007 H   0  0  0  0  0  0  0  0  0  0  0  0
  153.1459  146.4492  156.5173 H   0  0  0  0  0  0  0  0  0  0  0  0
  152.7876  144.7585  156.2396 H   0  0  0  0  0  0  0  0  0  0  0  0
  153.9716  145.2258  157.4656 H   0  0  0  0  0  0  0  0  0  0  0  0
  152.1041  146.4439  158.6872 H   0  0  0  0  0  0  0  0  0  0  0  0
  150.9692  145.8277  157.5239 H   0  0  0  0  0  0  0  0  0  0  0  0
  149.5463  144.0685  158.5084 H   0  0  0  0  0  0  0  0  0  0  0  0
  149.9702  143.5689  160.1089 H   0  0  0  0  0  0  0  0  0  0  0  0
  148.5758  145.5321  160.2582 H   0  0  0  0  0  0  0  0  0  0  0  0
  149.5970  146.4557  159.1776 H   0  0  0  0  0  0  0  0  0  0  0  0
  150.1738  146.0259  160.7851 H   0  0  0  0  0  0  0  0  0  0  0  0
  153.0955  143.0694  157.8077 H   0  0  0  0  0  0  0  0  0  0  0  0
  150.2409  142.2394  158.1932 H   0  0  0  0  0  0  0  0  0  0  0  0
  150.5072  139.5567  155.8366 H   0  0  0  0  0  0  0  0  0  0  0  0
  149.8423  139.7201  157.4440 H   0  0  0  0  0  0  0  0  0  0  0  0
  148.7972  140.5374  153.8960 H   0  0  0  0  0  0  0  0  0  0  0  0
  146.7915  142.1212  152.7900 H   0  0  0  0  0  0  0  0  0  0  0  0
  146.7475  143.6954  153.5844 H   0  0  0  0  0  0  0  0  0  0  0  0
  145.5910  142.4418  154.0421 H   0  0  0  0  0  0  0  0  0  0  0  0
  151.7608  142.1940  160.4126 H   0  0  0  0  0  0  0  0  0  0  0  0
  154.7297  142.1721  159.6078 H   0  0  0  0  0  0  0  0  0  0  0  0
  153.7075  140.7423  159.6581 H   0  0  0  0  0  0  0  0  0  0  0  0
  154.0742  141.6082  161.1401 H   0  0  0  0  0  0  0  0  0  0  0  0
  153.6798  144.5272  159.8560 H   0  0  0  0  0  0  0  0  0  0  0  0
  152.7657  144.7034  163.3540 H   0  0  0  0  0  0  0  0  0  0  0  0
  154.1233  144.7506  162.2299 H   0  0  0  0  0  0  0  0  0  0  0  0
  153.2937  143.2200  162.5690 H   0  0  0  0  0  0  0  0  0  0  0  0
  1  2  1  0  0  0  0
  1 23  1  0  0  0  0
  1 24  1  0  0  0  0
  1 25  1  0  0  0  0
  2  3  1  0  0  0  0
  2 26  1  0  0  0  0
  2 27  1  0  0  0  0
  3 19  1  0  0  0  0
  3  4  1  0  0  0  0
  3  6  1  0  0  0  0
  4  5  1  0  0  0  0
  4 28  1  0  0  0  0
  4 29  1  0  0  0  0
  5 30  1  0  0  0  0
  5 31  1  0  0  0  0
  5 32  1  0  0  0  0
  6  7  1  0  0  0  0
  6 17  1  0  0  0  0
  6 33  1  0  0  0  0
  7  8  1  0  0  0  0
  7 34  1  0  0  0  0
  8  9  2  0  0  0  0
  8 10  1  0  0  0  0
 10 11  1  0  0  0  0
 10 35  1  0  0  0  0
 10 36  1  0  0  0  0
 11 16  2  0  0  0  0
 11 12  1  0  0  0  0
 12 13  2  0  0  0  0
 12 37  1  0  0  0  0
 13 14  1  0  0  0  0
 13 15  1  0  0  0  0
 14 38  1  0  0  0  0
 14 39  1  0  0  0  0
 14 40  1  0  0  0  0
 15 22  1  0  0  0  0
 15 16  1  0  0  0  0
 17 18  1  0  0  0  0
 17 19  1  0  0  0  0
 17 41  1  0  0  0  0
 18 42  1  0  0  0  0
 18 43  1  0  0  0  0
 18 44  1  0  0  0  0
 19 20  1  0  0  0  0
 19 45  1  0  0  0  0
 20 21  1  0  0  0  0
 21 46  1  0  0  0  0
 21 47  1  0  0  0  0
 21 48  1  0  0  0  0
M  END
> <s_m_source_file>
AV-unprocessed.smi

> <i_m_source_file_index>
2510

> <i_lp_mmshare_version>
43012

> <i_f3d_flags>
0

> <s_epik_input>
W0NIM11PW0NAQEhdMVtDQEhdKFtDSDNdKVtDQEBIXShDMShbQ0gyXVtDSDNdKVtDSDJdW0NIM10pW05IXUMoPU8pW0NIMl1jMltjSF1jKFtDSDNdKVtuSF1uMg==

> <s_epik_cmdline>
J2VwaWtfcHl0aG9uJywgJy1waCcsICc3LjAnLCAnLXRuJywgJzgnLCAnLW1hJywgJzIwMCcsICctbWV0YWxfYmluZGluZycsICctaW1hZScsICc8aW5maWxlLm1hZT4nLCAnLW9tYWUnLCAnPG91dGZpbGUubWFlPic=

> <r_lp_tautomer_probability>
0.5

> <r_epik_Ionization_Penalty>
9.73156e-05

> <r_epik_Ionization_Penalty_Charging>
0

> <r_epik_Ionization_Penalty_Neutral>
9.73156e-05

> <r_epik_State_Penalty>
0.41068

> <r_epik_Charging_Adjusted_Penalty>
0.41068

> <i_epik_Tot_Q>
0

> <i_epik_Tot_abs_Q>
0

> <r_epik_Metal_State_Penalty>
0.410699

> <b_epik_Metal_Only>
0

> <s_lp_Force_Field>
OPLS_2005

> <r_lp_Energy>
28.5674

> <b_lp_Chiralities_Consistent>
1

> <s_lp_Variant>
AV-unprocessed.smi:2510-6

> <Gold.Version>
5.8.1

> <Gold.Id.Protein>
6NUR|6NUR_protein|mol2

> <Gold.PLP.Fitness>
43.1775

> <Gold.PLP.PLP>
-41.6603

> <Gold.PLP.part.hbond>
-2.0000

> <Gold.PLP.part.metal>
0.0000

> <Gold.PLP.part.buried>
-5.2186

> <Gold.PLP.part.nonpolar>
-34.4833

> <Gold.PLP.part.repulsive>
0.3771

> <Gold.PLP.ligand.clash>
0.0000

> <Gold.PLP.ligand.torsion>
1.0305

> <Gold.PLP.Chemscore.Hbond>
1.0000

> <Gold.PLP.Chemscore.CHOScore>
0.0000

> <Gold.PLP.Chemscore.Metal>
0.0000

> <Gold.Chemscore.Hbonds>
donor molecule, donor type, donor heavy atom, donor atom, acceptor molecule, acceptor atom, score
      P1  H  7997  8008       L1     9  0.70

> <Gold.PLP.Chemscore.Internal.Correction>
0.5782

> <Gold.Rescore>
     Score         DG    S(hbond)    S(metal)    S(lipo)     H(rot)  DE(clash)    DE(int)     intcor
     14.87     -19.26       0.96        0.00     129.93       1.81       2.90       1.49       ----

> <Gold.Chemscore.Fitness>
14.8662

> <Gold.Chemscore.DG>
-19.2594

> <Gold.Chemscore.ZeroCoef>
-5.4800

> <Gold.Chemscore.Hbond>
0.9616

> <Gold.Chemscore.Metal>
0.0000

> <Gold.Chemscore.Lipo>
129.9295

> <Gold.Chemscore.Internal_Hbond>
0.0000

> <Gold.Chemscore.DEClash>
2.9016

> <Gold.Chemscore.DEInternal>
1.4915

> <Gold.Chemscore.Rot>
1.8102

> <Gold.Chemscore.Internal.Correction>
   9.000000E+99

> <Gold.Chemscore.Hbonds>
donor molecule, donor type, donor heavy atom, donor atom, acceptor molecule, acceptor atom, score
      P1  H  7997  8008       L1     9  0.70

> <Gold.Chemscore.Hbond.Weighted>
-3.2117

> <Gold.Chemscore.Metal.Weighted>
-0.0000

> <Gold.Chemscore.Lipo.Weighted>
-15.2017

> <Gold.Chemscore.Internal_Hbond.Weighted>
0.0000

> <Gold.Chemscore.DEClash.Weighted>
2.9016

> <Gold.Chemscore.DEInternal.Weighted>
1.4915

> <Gold.Chemscore.Rot.Weighted>
4.6341

> <Gold.Chemscore.Internal.Correction.Weighted>
   9.000000E+99

> <Gold.Protein.RotatedTorsions>
[ 6907 6896 6895 6894 ] final   82.09 input  -60.11 | X-H torsion
[ 7974 7965 7964 7962 ] final -109.97 input  175.53 | X-H torsion
[ 8008 7997 7996 7995 ] final  -51.57 input   59.86 | X-H torsion
[ 10167 10162 10161 10158 ] final  -83.77 input  -65.29 | X-H torsion
[ 10718 10713 10712 10709 ] final -142.51 input   66.30 | X-H torsion
[ 10763 10752 10751 10750 ] final -159.44 input  -60.55 | X-H torsion
[ 11005 11000 10999 10996 ] final -162.44 input  -57.11 | X-H torsion

> <Gold.Protein.ActiveResidues>
 VAL166  LYS551  ARG553  GLY616  TRP617  ASP618  TYR619  PRO620  LYS621  CYS622 
 ASP623  PHE694  ASN695  SER759  ASP760  ASP761  ALA762  ILE779  LEU786  VAL792 
 PHE793  MET794  SER795  GLU796  ALA797  LYS798  CYS799  TRP800  GLU811  SER814 

> <Gold.Protein.RotatedAtoms>
  152.5289  134.3103  159.9110 H   0  0  0  0  0  0  0  0  0  0  0  0  # atno 6907 bound_to 6896
  151.3053  133.4098  159.2650 H   0  0  0  0  0  0  0  0  0  0  0  0  # atno 6908 bound_to 6896
  151.0084  134.9394  159.8051 H   0  0  0  0  0  0  0  0  0  0  0  0  # atno 6909 bound_to 6896
  145.1740  140.8939  143.3519 H   0  0  0  0  0  0  0  0  0  0  0  0  # atno 7974 bound_to 7965
  154.4086  140.1245  156.4850 H   0  0  0  0  0  0  0  0  0  0  0  0  # atno 8008 bound_to 7997
  155.7047  140.3494  155.4928 H   0  0  0  0  0  0  0  0  0  0  0  0  # atno 8009 bound_to 7997
  155.9354  140.1077  157.1089 H   0  0  0  0  0  0  0  0  0  0  0  0  # atno 8010 bound_to 7997
  140.4195  143.2590  151.8909 H   0  0  0  0  0  0  0  0  0  0  0  0  # atno 10167 bound_to 10162
  156.3468  130.7666  151.1812 H   0  0  0  0  0  0  0  0  0  0  0  0  # atno 10718 bound_to 10713
  154.7474  135.3083  154.8619 H   0  0  0  0  0  0  0  0  0  0  0  0  # atno 10763 bound_to 10752
  153.9416  135.6774  153.4748 H   0  0  0  0  0  0  0  0  0  0  0  0  # atno 10764 bound_to 10752
  153.1071  135.4884  154.8896 H   0  0  0  0  0  0  0  0  0  0  0  0  # atno 10765 bound_to 10752
  140.6093  134.4866  157.5214 H   0  0  0  0  0  0  0  0  0  0  0  0  # atno 11005 bound_to 11000
  145.0204  139.3429  143.6075 LP  0  0  0  0  0  0  0  0  0  0  0  0  # atno 17320 bound_to 7965
  146.3464  139.9502  142.8730 LP  0  0  0  0  0  0  0  0  0  0  0  0  # atno 17321 bound_to 7965
  139.4782  144.5452  151.8468 LP  0  0  0  0  0  0  0  0  0  0  0  0  # atno 17342 bound_to 10162
  140.4549  144.1803  150.5900 LP  0  0  0  0  0  0  0  0  0  0  0  0  # atno 17343 bound_to 10162
  157.7455  131.0439  150.4766 LP  0  0  0  0  0  0  0  0  0  0  0  0  # atno 17370 bound_to 10713
  156.4955  130.4105  149.6382 LP  0  0  0  0  0  0  0  0  0  0  0  0  # atno 17371 bound_to 10713
  139.9199  134.8170  156.1245 LP  0  0  0  0  0  0  0  0  0  0  0  0  # atno 17394 bound_to 11000
  141.0819  133.6750  156.2354 LP  0  0  0  0  0  0  0  0  0  0  0  0  # atno 17395 bound_to 11000

$$$$
