AV-unprocessed.smi:2157|AV-procd|sdf|8784|dock3
  -GOLD-   2272011563D 1   1.00000     0.00000
 Structure written by MMmdl.
 41 42  0  0  0  0  0  0  0  0  1 V2000
  152.1322  145.2748  159.1491 C   0  0  0  0  0  0  0  0  0  0  0  0
  152.5122  143.7976  158.9741 C   0  0  1  0  0  0  0  0  0  0  0  0
  152.5147  143.0540  160.3236 C   0  0  0  0  0  0  0  0  0  0  0  0
  152.8933  141.5748  160.1503 C   0  0  0  0  0  0  0  0  0  0  0  0
  151.9616  140.8766  159.1483 C   0  0  0  0  0  0  0  0  0  0  0  0
  151.9522  141.6036  157.7915 C   0  0  1  0  0  0  0  0  0  0  0  0
  151.0117  140.9435  156.8915 N   0  0  0  0  0  0  0  0  0  0  0  0
  151.3421  140.0928  155.9082 C   0  0  0  0  0  0  0  0  0  0  0  0
  152.5041  139.7698  155.6561 O   0  0  0  0  0  0  0  0  0  0  0  0
  150.1679  139.5152  155.1059 C   0  0  0  0  0  0  0  0  0  0  0  0
  148.9559  140.3434  155.1620 N   0  0  0  0  0  0  0  0  0  0  0  0
  148.6259  141.1423  154.0820 C   0  0  0  0  0  0  0  0  0  0  0  0
  147.5355  141.9389  154.0497 C   0  0  0  0  0  0  0  0  0  0  0  0
  146.6218  141.9987  155.1832 C   0  0  0  0  0  0  0  0  0  0  0  0
  145.6153  142.7089  155.2064 O   0  0  0  0  0  0  0  0  0  0  0  0
  146.9789  141.1720  156.2727 N   0  0  0  0  0  0  0  0  0  0  0  0
  146.0959  141.2047  157.4202 C   0  0  0  0  0  0  0  0  0  0  0  0
  148.1265  140.3450  156.3050 C   0  0  0  0  0  0  0  0  0  0  0  0
  148.4119  139.6467  157.2807 O   0  0  0  0  0  0  0  0  0  0  0  0
  151.5814  143.0908  157.9689 C   0  0  0  0  0  0  0  0  0  0  0  0
  151.1235  145.3800  159.5501 H   0  0  0  0  0  0  0  0  0  0  0  0
  152.1690  145.8053  158.1970 H   0  0  0  0  0  0  0  0  0  0  0  0
  152.8169  145.7779  159.8325 H   0  0  0  0  0  0  0  0  0  0  0  0
  153.5258  143.7655  158.5717 H   0  0  0  0  0  0  0  0  0  0  0  0
  153.2137  143.5310  161.0116 H   0  0  0  0  0  0  0  0  0  0  0  0
  151.5295  143.1249  160.7868 H   0  0  0  0  0  0  0  0  0  0  0  0
  153.9251  141.4987  159.8049 H   0  0  0  0  0  0  0  0  0  0  0  0
  152.8512  141.0655  161.1135 H   0  0  0  0  0  0  0  0  0  0  0  0
  152.2759  139.8405  159.0159 H   0  0  0  0  0  0  0  0  0  0  0  0
  150.9511  140.8435  159.5586 H   0  0  0  0  0  0  0  0  0  0  0  0
  152.9565  141.5389  157.3678 H   0  0  0  0  0  0  0  0  0  0  0  0
  150.0327  141.1496  157.0281 H   0  0  0  0  0  0  0  0  0  0  0  0
  150.4879  139.4002  154.0694 H   0  0  0  0  0  0  0  0  0  0  0  0
  149.9504  138.5054  155.4586 H   0  0  0  0  0  0  0  0  0  0  0  0
  149.2744  141.1339  153.2181 H   0  0  0  0  0  0  0  0  0  0  0  0
  147.3374  142.5397  153.1742 H   0  0  0  0  0  0  0  0  0  0  0  0
  146.4014  140.4848  158.1785 H   0  0  0  0  0  0  0  0  0  0  0  0
  145.0935  140.9549  157.0675 H   0  0  0  0  0  0  0  0  0  0  0  0
  146.1343  142.2173  157.8253 H   0  0  0  0  0  0  0  0  0  0  0  0
  150.5480  143.1729  158.3096 H   0  0  0  0  0  0  0  0  0  0  0  0
  151.6287  143.6007  157.0057 H   0  0  0  0  0  0  0  0  0  0  0  0
  1  2  1  0  0  0  0
  1 21  1  0  0  0  0
  1 22  1  0  0  0  0
  1 23  1  0  0  0  0
  2 20  1  0  0  0  0
  2  3  1  0  0  0  0
  2 24  1  0  0  0  0
  3  4  1  0  0  0  0
  3 25  1  0  0  0  0
  3 26  1  0  0  0  0
  4  5  1  0  0  0  0
  4 27  1  0  0  0  0
  4 28  1  0  0  0  0
  5  6  1  0  0  0  0
  5 29  1  0  0  0  0
  5 30  1  0  0  0  0
  6  7  1  0  0  0  0
  6 20  1  0  0  0  0
  6 31  1  0  0  0  0
  7  8  1  0  0  0  0
  7 32  1  0  0  0  0
  8  9  2  0  0  0  0
  8 10  1  0  0  0  0
 10 11  1  0  0  0  0
 10 33  1  0  0  0  0
 10 34  1  0  0  0  0
 11 18  1  0  0  0  0
 11 12  1  0  0  0  0
 12 13  2  0  0  0  0
 12 35  1  0  0  0  0
 13 14  1  0  0  0  0
 13 36  1  0  0  0  0
 14 15  2  0  0  0  0
 14 16  1  0  0  0  0
 16 17  1  0  0  0  0
 16 18  1  0  0  0  0
 17 37  1  0  0  0  0
 17 38  1  0  0  0  0
 17 39  1  0  0  0  0
 18 19  2  0  0  0  0
 20 40  1  0  0  0  0
 20 41  1  0  0  0  0
M  END
> <s_m_source_file>
AV-unprocessed.smi

> <i_m_source_file_index>
2157

> <i_lp_mmshare_version>
43012

> <i_f3d_flags>
0

> <s_epik_input>
W0NIM11bQ0BASF0xW0NIMl1bQ0gyXVtDSDJdW0NASF0oW0NIMl0xKVtOSF1DKD1PKVtDSDJdbjJbY0hdW2NIXWMoPU8pbihbQ0gzXSljMj1P

> <s_epik_cmdline>
J2VwaWtfcHl0aG9uJywgJy1waCcsICc3LjAnLCAnLXRuJywgJzgnLCAnLW1hJywgJzIwMCcsICctbWV0YWxfYmluZGluZycsICctaW1hZScsICc8aW5maWxlLm1hZT4nLCAnLW9tYWUnLCAnPG91dGZpbGUubWFlPic=

> <r_lp_tautomer_probability>
1

> <r_epik_Ionization_Penalty>
3.1838e-08

> <r_epik_Ionization_Penalty_Charging>
1.27911e-08

> <r_epik_Ionization_Penalty_Neutral>
1.90469e-08

> <r_epik_State_Penalty>
-0

> <r_epik_Charging_Adjusted_Penalty>
1.27911e-08

> <i_epik_Tot_Q>
0

> <i_epik_Tot_abs_Q>
0

> <r_epik_Metal_State_Penalty>
-0

> <b_epik_Metal_Only>
0

> <s_lp_Force_Field>
OPLS_2005

> <r_lp_Energy>
16.3739

> <b_lp_Chiralities_Consistent>
1

> <s_lp_Variant>
AV-unprocessed.smi:2157-2

> <Gold.Version>
5.8.1

> <Gold.Id.Protein>
6NUR|6NUR_protein|mol2

> <Gold.PLP.Fitness>
45.0060

> <Gold.PLP.PLP>
-40.5528

> <Gold.PLP.part.hbond>
-1.0000

> <Gold.PLP.part.metal>
0.0000

> <Gold.PLP.part.buried>
-5.5232

> <Gold.PLP.part.nonpolar>
-33.8599

> <Gold.PLP.part.repulsive>
0.2683

> <Gold.PLP.ligand.clash>
0.0000

> <Gold.PLP.ligand.torsion>
0.7803

> <Gold.PLP.Chemscore.Hbond>
1.0000

> <Gold.PLP.Chemscore.CHOScore>
1.0000

> <Gold.PLP.Chemscore.Metal>
0.0000

> <Gold.Chemscore.Hbonds>
donor molecule, donor type, donor heavy atom, donor atom, acceptor molecule, acceptor atom, score
      P1  H  7997  8008       L1     9  1.00
      L1  C    12    35       P1  7957  1.00

> <Gold.PLP.Chemscore.Internal.Correction>
0.0136

> <Gold.Rescore>
     Score         DG    S(hbond)    S(metal)    S(lipo)     H(rot)  DE(clash)    DE(int)     intcor
     15.59     -16.55       1.00        0.00      99.44       1.52       0.14       0.82       ----

> <Gold.Chemscore.Fitness>
15.5909

> <Gold.Chemscore.DG>
-16.5525

> <Gold.Chemscore.ZeroCoef>
-5.4800

> <Gold.Chemscore.Hbond>
1.0000

> <Gold.Chemscore.Metal>
0.0000

> <Gold.Chemscore.Lipo>
99.4396

> <Gold.Chemscore.Internal_Hbond>
0.0000

> <Gold.Chemscore.DEClash>
0.1395

> <Gold.Chemscore.DEInternal>
0.8221

> <Gold.Chemscore.Rot>
1.5242

> <Gold.Chemscore.Internal.Correction>
   9.000000E+99

> <Gold.Chemscore.Hbonds>
donor molecule, donor type, donor heavy atom, donor atom, acceptor molecule, acceptor atom, score
      P1  H  7997  8008       L1     9  0.98

> <Gold.Chemscore.Hbond.Weighted>
-3.3400

> <Gold.Chemscore.Metal.Weighted>
-0.0000

> <Gold.Chemscore.Lipo.Weighted>
-11.6344

> <Gold.Chemscore.Internal_Hbond.Weighted>
0.0000

> <Gold.Chemscore.DEClash.Weighted>
0.1395

> <Gold.Chemscore.DEInternal.Weighted>
0.8221

> <Gold.Chemscore.Rot.Weighted>
3.9019

> <Gold.Chemscore.Internal.Correction.Weighted>
   9.000000E+99

> <Gold.Protein.RotatedTorsions>
[ 6907 6896 6895 6894 ] final  115.18 input  -60.11 | X-H torsion
[ 7974 7965 7964 7962 ] final  -74.47 input  175.53 | X-H torsion
[ 8008 7997 7996 7995 ] final  -21.72 input   59.86 | X-H torsion
[ 10167 10162 10161 10158 ] final -145.99 input  -65.29 | X-H torsion
[ 10718 10713 10712 10709 ] final -109.41 input   66.30 | X-H torsion
[ 10763 10752 10751 10750 ] final  153.52 input  -60.55 | X-H torsion
[ 11005 11000 10999 10996 ] final  -18.60 input  -57.11 | X-H torsion

> <Gold.Protein.ActiveResidues>
 VAL166  LYS551  ARG553  GLY616  TRP617  ASP618  TYR619  PRO620  LYS621  CYS622 
 ASP623  PHE694  ASN695  SER759  ASP760  ASP761  ALA762  ILE779  LEU786  VAL792 
 PHE793  MET794  SER795  GLU796  ALA797  LYS798  CYS799  TRP800  GLU811  SER814 

> <Gold.Protein.RotatedAtoms>
  152.4757  133.8133  159.7014 H   0  0  0  0  0  0  0  0  0  0  0  0  # atno 6907 bound_to 6896
  150.8773  133.7412  159.2949 H   0  0  0  0  0  0  0  0  0  0  0  0  # atno 6908 bound_to 6896
  151.4927  135.1062  159.9860 H   0  0  0  0  0  0  0  0  0  0  0  0  # atno 6909 bound_to 6896
  145.6386  140.9317  143.1048 H   0  0  0  0  0  0  0  0  0  0  0  0  # atno 7974 bound_to 7965
  154.4688  140.2027  156.0049 H   0  0  0  0  0  0  0  0  0  0  0  0  # atno 8008 bound_to 7997
  156.0974  140.3249  155.7867 H   0  0  0  0  0  0  0  0  0  0  0  0  # atno 8009 bound_to 7997
  155.4855  140.0542  157.2952 H   0  0  0  0  0  0  0  0  0  0  0  0  # atno 8010 bound_to 7997
  139.7755  143.8176  152.2631 H   0  0  0  0  0  0  0  0  0  0  0  0  # atno 10167 bound_to 10162
  156.0536  130.5763  150.8096 H   0  0  0  0  0  0  0  0  0  0  0  0  # atno 10718 bound_to 10713
  154.1375  135.2823  155.3169 H   0  0  0  0  0  0  0  0  0  0  0  0  # atno 10763 bound_to 10752
  154.6311  135.5435  153.7685 H   0  0  0  0  0  0  0  0  0  0  0  0  # atno 10764 bound_to 10752
  153.0261  135.6463  154.1523 H   0  0  0  0  0  0  0  0  0  0  0  0  # atno 10765 bound_to 10752
  140.8284  133.8015  155.9733 H   0  0  0  0  0  0  0  0  0  0  0  0  # atno 11005 bound_to 11000
  144.7166  139.8176  143.7396 LP  0  0  0  0  0  0  0  0  0  0  0  0  # atno 17320 bound_to 7965
  146.1299  139.4332  143.0175 LP  0  0  0  0  0  0  0  0  0  0  0  0  # atno 17321 bound_to 7965
  139.8223  144.7290  150.9556 LP  0  0  0  0  0  0  0  0  0  0  0  0  # atno 17342 bound_to 10162
  140.7816  143.4147  151.0936 LP  0  0  0  0  0  0  0  0  0  0  0  0  # atno 17343 bound_to 10162
  157.5485  131.0943  150.9729 LP  0  0  0  0  0  0  0  0  0  0  0  0  # atno 17370 bound_to 10713
  156.9994  130.5594  149.5310 LP  0  0  0  0  0  0  0  0  0  0  0  0  # atno 17371 bound_to 10713
  140.9024  134.2362  157.5034 LP  0  0  0  0  0  0  0  0  0  0  0  0  # atno 17394 bound_to 11000
  139.8705  134.9712  156.4730 LP  0  0  0  0  0  0  0  0  0  0  0  0  # atno 17395 bound_to 11000

$$$$
