AV-unprocessed.smi:578|AV-procd|sdf|2986|dock3
  -GOLD-   2262023493D 1   1.00000     0.00000
 Structure written by MMmdl.
 32 33  0  0  0  0  0  0  0  0  2 V2000
  151.9135  145.0452  158.9387 C   0  0  0  0  0  0  0  0  0  0  0  0
  151.0377  143.9746  159.6135 C   0  0  1  0  0  0  0  0  0  0  0  0
  150.8299  142.7152  158.7481 C   0  0  0  0  0  0  0  0  0  0  0  0
  152.0363  141.8989  158.7270 N   0  0  0  0  0  0  0  0  0  0  0  0
  151.9435  140.8009  157.8607 C   0  0  0  0  0  0  0  0  0  0  0  0
  151.5621  141.0073  156.5211 C   0  0  0  0  0  0  0  0  0  0  0  0
  151.4765  139.8910  155.6682 C   0  0  0  0  0  0  0  0  0  0  0  0
  151.7394  138.6301  156.0688 N   0  0  0  0  0  0  0  0  0  0  0  0
  152.1049  138.4206  157.3569 C   0  0  0  0  0  0  0  0  0  0  0  0
  152.3909  137.0044  157.7802 C   0  0  0  0  0  0  0  0  0  0  0  0
  152.5382  136.1286  156.8980 O   0  0  0  0  0  0  0  0  0  0  0  0
  152.4737  136.7414  159.0014 O   0  5  0  0  0  0  0  0  0  0  0  0
  152.2186  139.4823  158.2861 C   0  0  0  0  0  0  0  0  0  0  0  0
  152.4896  141.5482  160.0652 C   0  0  0  0  0  0  0  0  0  0  0  0
  152.7269  142.8256  160.8904 C   0  0  2  0  0  0  0  0  0  0  0  0
  153.1060  142.5085  162.3404 C   0  0  0  0  0  0  0  0  0  0  0  0
  151.5336  143.6104  160.9050 O   0  0  0  0  0  0  0  0  0  0  0  0
  151.4504  145.3956  158.0162 H   0  0  0  0  0  0  0  0  0  0  0  0
  152.9029  144.6685  158.6806 H   0  0  0  0  0  0  0  0  0  0  0  0
  152.0428  145.9094  159.5906 H   0  0  0  0  0  0  0  0  0  0  0  0
  150.0598  144.4270  159.7802 H   0  0  0  0  0  0  0  0  0  0  0  0
  150.0069  142.1270  159.1569 H   0  0  0  0  0  0  0  0  0  0  0  0
  150.5472  142.9944  157.7321 H   0  0  0  0  0  0  0  0  0  0  0  0
  151.3415  141.9982  156.1521 H   0  0  0  0  0  0  0  0  0  0  0  0
  151.1887  140.0144  154.6347 H   0  0  0  0  0  0  0  0  0  0  0  0
  152.5102  139.2909  159.3087 H   0  0  0  0  0  0  0  0  0  0  0  0
  151.7436  140.9217  160.5561 H   0  0  0  0  0  0  0  0  0  0  0  0
  153.4094  140.9654  160.0006 H   0  0  0  0  0  0  0  0  0  0  0  0
  153.5394  143.4017  160.4471 H   0  0  0  0  0  0  0  0  0  0  0  0
  154.0186  141.9136  162.3855 H   0  0  0  0  0  0  0  0  0  0  0  0
  152.3155  141.9493  162.8415 H   0  0  0  0  0  0  0  0  0  0  0  0
  153.2778  143.4241  162.9068 H   0  0  0  0  0  0  0  0  0  0  0  0
  1  2  1  0  0  0  0
  1 18  1  0  0  0  0
  1 19  1  0  0  0  0
  1 20  1  0  0  0  0
  2 17  1  0  0  0  0
  2  3  1  0  0  0  0
  2 21  1  0  0  0  0
  3  4  1  0  0  0  0
  3 22  1  0  0  0  0
  3 23  1  0  0  0  0
  4  5  1  0  0  0  0
  4 14  1  0  0  0  0
  5 13  1  0  0  0  0
  5  6  2  0  0  0  0
  6  7  1  0  0  0  0
  6 24  1  0  0  0  0
  7  8  2  0  0  0  0
  7 25  1  0  0  0  0
  8  9  1  0  0  0  0
  9 10  1  0  0  0  0
  9 13  2  0  0  0  0
 10 11  2  0  0  0  0
 10 12  1  0  0  0  0
 13 26  1  0  0  0  0
 14 15  1  0  0  0  0
 14 27  1  0  0  0  0
 14 28  1  0  0  0  0
 15 16  1  0  0  0  0
 15 17  1  0  0  0  0
 15 29  1  0  0  0  0
 16 30  1  0  0  0  0
 16 31  1  0  0  0  0
 16 32  1  0  0  0  0
M  CHG  1  12  -1
M  END
> <s_m_source_file>
AV-unprocessed.smi

> <i_m_source_file_index>
578

> <i_lp_mmshare_version>
43012

> <i_f3d_flags>
0

> <s_epik_input>
W0NIM11bQ0BASF0xW0NIMl1OKFtDSDJdW0NASF0oTzEpW0NIM10pYzJbY0hdW2NIXW5jKFtjSF0yKUMoPU8pW09IXQ==

> <s_epik_cmdline>
J2VwaWtfcHl0aG9uJywgJy1waCcsICc3LjAnLCAnLXRuJywgJzgnLCAnLW1hJywgJzIwMCcsICctbWV0YWxfYmluZGluZycsICctaW1hZScsICc8aW5maWxlLm1hZT4nLCAnLW9tYWUnLCAnPG91dGZpbGUubWFlPic=

> <r_epik_Ionization_Penalty>
2.00764

> <r_epik_Ionization_Penalty_Charging>
0.000210348

> <r_epik_Ionization_Penalty_Neutral>
2.00743

> <r_epik_State_Penalty>
2.13668

> <r_epik_Charging_Adjusted_Penalty>
2.13689

> <i_epik_Tot_Q>
-1

> <i_epik_Tot_abs_Q>
1

> <r_epik_Metal_State_Penalty>
0.0208571

> <b_epik_Metal_Only>
0

> <s_lp_Force_Field>
OPLS_2005

> <r_lp_Energy>
23.987

> <b_lp_Chiralities_Consistent>
1

> <s_lp_Variant>
AV-unprocessed.smi:578-6

> <Gold.Version>
5.8.1

> <Gold.Id.Protein>
6NUR|6NUR_protein|mol2

> <Gold.PLP.Fitness>
45.2721

> <Gold.PLP.PLP>
-34.3587

> <Gold.PLP.part.hbond>
-2.2920

> <Gold.PLP.part.metal>
0.0000

> <Gold.PLP.part.buried>
-6.0296

> <Gold.PLP.part.nonpolar>
-26.5040

> <Gold.PLP.part.repulsive>
0.1241

> <Gold.PLP.ligand.clash>
0.3668

> <Gold.PLP.ligand.torsion>
0.1423

> <Gold.PLP.Chemscore.Hbond>
3.8240

> <Gold.PLP.Chemscore.CHOScore>
0.0000

> <Gold.PLP.Chemscore.Metal>
0.0000

> <Gold.Chemscore.Hbonds>
donor molecule, donor type, donor heavy atom, donor atom, acceptor molecule, acceptor atom, score
      P1  H  6896  6907       L1    12  1.82
      P1  H 10752 10764       L1    11  1.98

> <Gold.PLP.Chemscore.Internal.Correction>
0.0928

> <Gold.Rescore>
     Score         DG    S(hbond)    S(metal)    S(lipo)     H(rot)  DE(clash)    DE(int)     intcor
     19.83     -20.03       1.89        0.00      92.40       1.00       0.01       0.19       ----

> <Gold.Chemscore.Fitness>
19.8285

> <Gold.Chemscore.DG>
-20.0335

> <Gold.Chemscore.ZeroCoef>
-5.4800

> <Gold.Chemscore.Hbond>
1.8871

> <Gold.Chemscore.Metal>
0.0000

> <Gold.Chemscore.Lipo>
92.3965

> <Gold.Chemscore.Internal_Hbond>
0.0000

> <Gold.Chemscore.DEClash>
0.0149

> <Gold.Chemscore.DEInternal>
0.1900

> <Gold.Chemscore.Rot>
1.0000

> <Gold.Chemscore.Internal.Correction>
   9.000000E+99

> <Gold.Chemscore.Hbonds>
donor molecule, donor type, donor heavy atom, donor atom, acceptor molecule, acceptor atom, score
      P1  H  6896  6907       L1    12  0.84
      P1  H 10752 10764       L1    11  0.91

> <Gold.Chemscore.Hbond.Weighted>
-6.3031

> <Gold.Chemscore.Metal.Weighted>
-0.0000

> <Gold.Chemscore.Lipo.Weighted>
-10.8104

> <Gold.Chemscore.Internal_Hbond.Weighted>
0.0000

> <Gold.Chemscore.DEClash.Weighted>
0.0149

> <Gold.Chemscore.DEInternal.Weighted>
0.1900

> <Gold.Chemscore.Rot.Weighted>
2.5600

> <Gold.Chemscore.Internal.Correction.Weighted>
   9.000000E+99

> <Gold.Protein.RotatedTorsions>
[ 6907 6896 6895 6894 ] final   15.60 input  -60.11 | X-H torsion
[ 7974 7965 7964 7962 ] final   41.72 input  175.53 | X-H torsion
[ 8008 7997 7996 7995 ] final -160.02 input   59.86 | X-H torsion
[ 10167 10162 10161 10158 ] final -105.53 input  -65.29 | X-H torsion
[ 10718 10713 10712 10709 ] final   59.93 input   66.30 | X-H torsion
[ 10763 10752 10751 10750 ] final    5.61 input  -60.55 | X-H torsion
[ 11005 11000 10999 10996 ] final  -21.24 input  -57.11 | X-H torsion

> <Gold.Protein.ActiveResidues>
 VAL166  LYS551  ARG553  GLY616  TRP617  ASP618  TYR619  PRO620  LYS621  CYS622 
 ASP623  PHE694  ASN695  SER759  ASP760  ASP761  ALA762  ILE779  LEU786  VAL792 
 PHE793  MET794  SER795  GLU796  ALA797  LYS798  CYS799  TRP800  GLU811  SER814 

> <Gold.Protein.RotatedAtoms>
  151.8207  135.0652  160.0424 H   0  0  0  0  0  0  0  0  0  0  0  0  # atno 6907 bound_to 6896
  152.2953  133.5597  159.5592 H   0  0  0  0  0  0  0  0  0  0  0  0  # atno 6908 bound_to 6896
  150.7248  134.0286  159.3767 H   0  0  0  0  0  0  0  0  0  0  0  0  # atno 6909 bound_to 6896
  146.0800  139.5383  142.9543 H   0  0  0  0  0  0  0  0  0  0  0  0  # atno 7974 bound_to 7965
  155.7712  140.0852  157.2107 H   0  0  0  0  0  0  0  0  0  0  0  0  # atno 8008 bound_to 7997
  154.3996  140.1525  156.3001 H   0  0  0  0  0  0  0  0  0  0  0  0  # atno 8009 bound_to 7997
  155.8745  140.3424  155.5847 H   0  0  0  0  0  0  0  0  0  0  0  0  # atno 8010 bound_to 7997
  140.1976  143.3844  152.1156 H   0  0  0  0  0  0  0  0  0  0  0  0  # atno 10167 bound_to 10162
  157.5714  130.8910  149.9272 H   0  0  0  0  0  0  0  0  0  0  0  0  # atno 10718 bound_to 10713
  153.2574  135.6920  153.7614 H   0  0  0  0  0  0  0  0  0  0  0  0  # atno 10763 bound_to 10752
  153.6686  135.3348  155.3148 H   0  0  0  0  0  0  0  0  0  0  0  0  # atno 10764 bound_to 10752
  154.8417  135.4494  154.1552 H   0  0  0  0  0  0  0  0  0  0  0  0  # atno 10765 bound_to 10752
  140.8542  133.7835  156.0000 H   0  0  0  0  0  0  0  0  0  0  0  0  # atno 11005 bound_to 11000
  145.6235  141.0318  143.1902 LP  0  0  0  0  0  0  0  0  0  0  0  0  # atno 17320 bound_to 7965
  144.7287  139.7794  143.7355 LP  0  0  0  0  0  0  0  0  0  0  0  0  # atno 17321 bound_to 7965
  139.5230  144.7066  151.5334 LP  0  0  0  0  0  0  0  0  0  0  0  0  # atno 17342 bound_to 10162
  140.6413  143.8883  150.6694 LP  0  0  0  0  0  0  0  0  0  0  0  0  # atno 17343 bound_to 10162
  156.0759  130.3679  150.0679 LP  0  0  0  0  0  0  0  0  0  0  0  0  # atno 17370 bound_to 10713
  156.8831  130.9563  151.3597 LP  0  0  0  0  0  0  0  0  0  0  0  0  # atno 17371 bound_to 10713
  140.8756  134.2673  157.5169 LP  0  0  0  0  0  0  0  0  0  0  0  0  # atno 17394 bound_to 11000
  139.8705  134.9589  156.4316 LP  0  0  0  0  0  0  0  0  0  0  0  0  # atno 17395 bound_to 11000

$$$$
