AV-unprocessed.smi:1005|AV-procd|sdf|4379|dock2
  -GOLD-   22720 2293D 1   1.00000     0.00000
 Structure written by MMmdl.
 58 60  0  0  0  0  0  0  0  0  4 V2000
  151.9457  141.3031  159.0886 C   0  0  0  0  0  0  0  0  0  0  0  0
  151.1050  140.8940  157.8909 C   0  0  0  0  0  0  0  0  0  0  0  0
  150.4600  141.9045  157.1430 C   0  0  0  0  0  0  0  0  0  0  0  0
  149.7019  141.4993  156.0509 C   0  0  0  0  0  0  0  0  0  0  0  0
  148.9594  142.2398  155.1289 N   0  3  0  0  0  0  0  0  0  0  0  0
  148.3844  141.3977  154.2265 C   0  0  0  0  0  0  0  0  0  0  0  0
  148.7519  140.1289  154.5555 N   0  0  0  0  0  0  0  0  0  0  0  0
  148.4042  138.8545  153.9091 C   0  0  0  0  0  0  0  0  0  0  0  0
  147.1350  138.9480  153.0383 C   0  0  1  0  0  0  0  0  0  0  0  0
  147.4778  138.7673  151.6781 O   0  0  0  0  0  0  0  0  0  0  0  0
  146.0949  137.8786  153.4303 C   0  0  0  0  0  0  0  0  0  0  0  0
  146.3294  136.5722  152.7625 N   0  3  1  0  0  0  0  0  0  0  0  0
  146.4277  135.4524  153.7278 C   0  0  0  0  0  0  0  0  0  0  0  0
  146.7442  134.1399  152.9933 C   0  0  0  0  0  0  0  0  0  0  0  0
  145.7462  133.8942  152.0098 O   0  0  0  0  0  0  0  0  0  0  0  0
  145.6981  134.9145  151.0173 C   0  0  1  0  0  0  0  0  0  0  0  0
  144.6418  134.5107  149.9714 C   0  0  0  0  0  0  0  0  0  0  0  0
  145.1312  133.4681  149.0327 N   0  3  0  0  0  0  0  0  0  0  0  0
  144.1008  133.0119  148.0708 C   0  0  0  0  0  0  0  0  0  0  0  0
  145.7521  132.3270  149.7413 C   0  0  0  0  0  0  0  0  0  0  0  0
  145.3427  136.2508  151.7011 C   0  0  0  0  0  0  0  0  0  0  0  0
  149.5707  140.1434  155.6921 C   0  0  0  0  0  0  0  0  0  0  0  0
  150.1973  139.1349  156.4212 C   0  0  0  0  0  0  0  0  0  0  0  0
  150.9735  139.5265  157.5356 C   0  0  0  0  0  0  0  0  0  0  0  0
  151.6698  138.4481  158.3481 C   0  0  0  0  0  0  0  0  0  0  0  0
  151.9817  142.3873  159.1997 H   0  0  0  0  0  0  0  0  0  0  0  0
  152.9702  140.9471  158.9787 H   0  0  0  0  0  0  0  0  0  0  0  0
  151.5305  140.8874  160.0069 H   0  0  0  0  0  0  0  0  0  0  0  0
  150.5542  142.9472  157.4092 H   0  0  0  0  0  0  0  0  0  0  0  0
  147.7508  141.6861  153.4000 H   0  0  0  0  0  0  0  0  0  0  0  0
  149.2582  138.4987  153.3322 H   0  0  0  0  0  0  0  0  0  0  0  0
  148.2522  138.1253  154.7059 H   0  0  0  0  0  0  0  0  0  0  0  0
  146.7149  139.9468  153.1520 H   0  0  0  0  0  0  0  0  0  0  0  0
  148.1349  139.4066  151.4466 H   0  0  0  0  0  0  0  0  0  0  0  0
  146.1341  137.7420  154.5124 H   0  0  0  0  0  0  0  0  0  0  0  0
  145.0852  138.2244  153.2039 H   0  0  0  0  0  0  0  0  0  0  0  0
  147.2096  135.6582  154.4598 H   0  0  0  0  0  0  0  0  0  0  0  0
  145.4897  135.3578  154.2774 H   0  0  0  0  0  0  0  0  0  0  0  0
  147.7305  134.1804  152.5279 H   0  0  0  0  0  0  0  0  0  0  0  0
  146.7585  133.3084  153.6981 H   0  0  0  0  0  0  0  0  0  0  0  0
  146.6760  135.0112  150.5444 H   0  0  0  0  0  0  0  0  0  0  0  0
  143.7623  134.1405  150.5008 H   0  0  0  0  0  0  0  0  0  0  0  0
  144.3110  135.3812  149.4024 H   0  0  0  0  0  0  0  0  0  0  0  0
  143.2556  132.5578  148.5898 H   0  0  0  0  0  0  0  0  0  0  0  0
  144.5162  132.2694  147.3886 H   0  0  0  0  0  0  0  0  0  0  0  0
  143.7261  133.8335  147.4619 H   0  0  0  0  0  0  0  0  0  0  0  0
  145.0227  131.8113  150.3670 H   0  0  0  0  0  0  0  0  0  0  0  0
  146.5719  132.6638  150.3766 H   0  0  0  0  0  0  0  0  0  0  0  0
  146.1625  131.6082  149.0309 H   0  0  0  0  0  0  0  0  0  0  0  0
  144.3438  136.1977  152.1375 H   0  0  0  0  0  0  0  0  0  0  0  0
  145.3213  137.0411  150.9518 H   0  0  0  0  0  0  0  0  0  0  0  0
  150.1032  138.0936  156.1513 H   0  0  0  0  0  0  0  0  0  0  0  0
  151.4186  137.4506  157.9864 H   0  0  0  0  0  0  0  0  0  0  0  0
  151.3736  138.5044  159.3958 H   0  0  0  0  0  0  0  0  0  0  0  0
  152.7523  138.5633  158.2868 H   0  0  0  0  0  0  0  0  0  0  0  0
  145.8723  133.8919  148.4923 H   0  0  0  0  0  0  0  0  0  0  0  0
  147.2347  136.6428  152.3186 H   0  0  0  0  0  0  0  0  0  0  0  0
  148.8494  143.2459  155.1159 H   0  0  0  0  0  0  0  0  0  0  0  0
  1  2  1  0  0  0  0
  1 26  1  0  0  0  0
  1 27  1  0  0  0  0
  1 28  1  0  0  0  0
  2 24  1  0  0  0  0
  2  3  2  0  0  0  0
  3  4  1  0  0  0  0
  3 29  1  0  0  0  0
  4 22  2  0  0  0  0
  4  5  1  0  0  0  0
  5  6  2  0  0  0  0
  5 58  1  0  0  0  0
  6  7  1  0  0  0  0
  6 30  1  0  0  0  0
  7  8  1  0  0  0  0
  7 22  1  0  0  0  0
  8  9  1  0  0  0  0
  8 31  1  0  0  0  0
  8 32  1  0  0  0  0
  9 10  1  0  0  0  0
  9 11  1  0  0  0  0
  9 33  1  0  0  0  0
 10 34  1  0  0  0  0
 11 12  1  0  0  0  0
 11 35  1  0  0  0  0
 11 36  1  0  0  0  0
 12 21  1  0  0  0  0
 12 13  1  0  0  0  0
 12 57  1  0  0  0  0
 13 14  1  0  0  0  0
 13 37  1  0  0  0  0
 13 38  1  0  0  0  0
 14 15  1  0  0  0  0
 14 39  1  0  0  0  0
 14 40  1  0  0  0  0
 15 16  1  0  0  0  0
 16 17  1  0  0  0  0
 16 21  1  0  0  0  0
 16 41  1  0  0  0  0
 17 18  1  0  0  0  0
 17 42  1  0  0  0  0
 17 43  1  0  0  0  0
 18 19  1  0  0  0  0
 18 20  1  0  0  0  0
 18 56  1  0  0  0  0
 19 44  1  0  0  0  0
 19 45  1  0  0  0  0
 19 46  1  0  0  0  0
 20 47  1  0  0  0  0
 20 48  1  0  0  0  0
 20 49  1  0  0  0  0
 21 50  1  0  0  0  0
 21 51  1  0  0  0  0
 22 23  1  0  0  0  0
 23 24  2  0  0  0  0
 23 52  1  0  0  0  0
 24 25  1  0  0  0  0
 25 53  1  0  0  0  0
 25 54  1  0  0  0  0
 25 55  1  0  0  0  0
M  CHG  1   5   1
M  CHG  1  12   1
M  CHG  1  18   1
M  END
> <s_m_source_file>
AV-unprocessed.smi

> <i_m_source_file_index>
1005

> <i_lp_mmshare_version>
43012

> <i_f3d_flags>
0

> <s_epik_input>
W0NIM11jKFtjSF0xKWMoW0NIM10pW2NIXWMoYzEyKW4oW2NIXW4yKVtDSDJdW0NASF0oW09IXSlbQ0gyXU4zW0NIMl1bQ0gyXU9bQ0BIXShbQ0gyXTMpW0NIMl1OKFtDSDNdKVtDSDNd

> <s_epik_cmdline>
J2VwaWtfcHl0aG9uJywgJy1waCcsICc3LjAnLCAnLXRuJywgJzgnLCAnLW1hJywgJzIwMCcsICctbWV0YWxfYmluZGluZycsICctaW1hZScsICc8aW5maWxlLm1hZT4nLCAnLW9tYWUnLCAnPG91dGZpbGUubWFlPic=

> <r_epik_Ionization_Penalty>
2.30802

> <r_epik_Ionization_Penalty_Charging>
2.30798

> <r_epik_Ionization_Penalty_Neutral>
3.4851e-05

> <r_epik_State_Penalty>
2.52618

> <r_epik_Charging_Adjusted_Penalty>
4.83416

> <i_epik_Tot_Q>
3

> <i_epik_Tot_abs_Q>
3

> <r_epik_Metal_State_Penalty>
6.53149

> <b_epik_Metal_Only>
0

> <s_lp_Force_Field>
OPLS_2005

> <r_lp_Energy>
42.4596

> <b_lp_Chiralities_Consistent>
1

> <s_lp_Variant>
AV-unprocessed.smi:1005-18

> <Gold.Version>
5.8.1

> <Gold.Id.Protein>
6NUR|6NUR_protein|mol2

> <Gold.PLP.Fitness>
60.1511

> <Gold.PLP.PLP>
-46.3505

> <Gold.PLP.part.hbond>
-5.9716

> <Gold.PLP.part.metal>
0.0000

> <Gold.PLP.part.buried>
-4.3042

> <Gold.PLP.part.nonpolar>
-36.6036

> <Gold.PLP.part.repulsive>
0.4868

> <Gold.PLP.ligand.clash>
0.0000

> <Gold.PLP.ligand.torsion>
2.1702

> <Gold.PLP.Chemscore.Hbond>
6.0000

> <Gold.PLP.Chemscore.CHOScore>
0.0000

> <Gold.PLP.Chemscore.Metal>
0.0000

> <Gold.Chemscore.Hbonds>
donor molecule, donor type, donor heavy atom, donor atom, acceptor molecule, acceptor atom, score
      L1  H     5    58       P1  8028  2.00
      L1  H    10    34       P1  7957  1.00
      L1  H    12    57       P1  7948  2.00
      L1  H    18    56       P1  7921  0.22
      P1  H  7954  7966       L1    10  0.04

> <Gold.PLP.Chemscore.Internal.Correction>
0.1410

> <Gold.Rescore>
     Score         DG    S(hbond)    S(metal)    S(lipo)     H(rot)  DE(clash)    DE(int)     intcor
     19.94     -24.28       3.70        0.00     111.14       2.56       0.83       3.51       ----

> <Gold.Chemscore.Fitness>
19.9437

> <Gold.Chemscore.DG>
-24.2813

> <Gold.Chemscore.ZeroCoef>
-5.4800

> <Gold.Chemscore.Hbond>
3.6953

> <Gold.Chemscore.Metal>
0.0000

> <Gold.Chemscore.Lipo>
111.1443

> <Gold.Chemscore.Internal_Hbond>
0.0000

> <Gold.Chemscore.DEClash>
0.8269

> <Gold.Chemscore.DEInternal>
3.5107

> <Gold.Chemscore.Rot>
2.5566

> <Gold.Chemscore.Internal.Correction>
   9.000000E+99

> <Gold.Chemscore.Hbonds>
donor molecule, donor type, donor heavy atom, donor atom, acceptor molecule, acceptor atom, score
      L1  H     5    58       P1  8028  0.95
      L1  H    10    34       P1  7957  0.93
      L1  H    12    57       P1  7948  1.00
      L1  H    18    56       P1  7921  0.02

> <Gold.Chemscore.Hbond.Weighted>
-12.3424

> <Gold.Chemscore.Metal.Weighted>
-0.0000

> <Gold.Chemscore.Lipo.Weighted>
-13.0039

> <Gold.Chemscore.Internal_Hbond.Weighted>
0.0000

> <Gold.Chemscore.DEClash.Weighted>
0.8269

> <Gold.Chemscore.DEInternal.Weighted>
3.5107

> <Gold.Chemscore.Rot.Weighted>
6.5450

> <Gold.Chemscore.Internal.Correction.Weighted>
   9.000000E+99

> <Gold.Protein.RotatedTorsions>
[ 6907 6896 6895 6894 ] final   51.85 input  -60.11 | X-H torsion
[ 7974 7965 7964 7962 ] final  -20.48 input  175.53 | X-H torsion
[ 8008 7997 7996 7995 ] final  -71.34 input   59.86 | X-H torsion
[ 10167 10162 10161 10158 ] final   49.94 input  -65.29 | X-H torsion
[ 10718 10713 10712 10709 ] final   18.47 input   66.30 | X-H torsion
[ 10763 10752 10751 10750 ] final -162.56 input  -60.55 | X-H torsion
[ 11005 11000 10999 10996 ] final  -18.80 input  -57.11 | X-H torsion

> <Gold.Protein.ActiveResidues>
 VAL166  LYS551  ARG553  GLY616  TRP617  ASP618  TYR619  PRO620  LYS621  CYS622 
 ASP623  PHE694  ASN695  SER759  ASP760  ASP761  ALA762  ILE779  LEU786  VAL792 
 PHE793  MET794  SER795  GLU796  ALA797  LYS798  CYS799  TRP800  GLU811  SER814 

> <Gold.Protein.RotatedAtoms>
  152.3171  134.7426  160.0322 H   0  0  0  0  0  0  0  0  0  0  0  0  # atno 6907 bound_to 6896
  151.7887  133.3352  159.3501 H   0  0  0  0  0  0  0  0  0  0  0  0  # atno 6908 bound_to 6896
  150.7350  134.5793  159.5975 H   0  0  0  0  0  0  0  0  0  0  0  0  # atno 6909 bound_to 6896
  146.1786  140.4208  142.8503 H   0  0  0  0  0  0  0  0  0  0  0  0  # atno 7974 bound_to 7965
  154.5080  140.0817  156.7933 H   0  0  0  0  0  0  0  0  0  0  0  0  # atno 8008 bound_to 7997
  155.3849  140.3429  155.4230 H   0  0  0  0  0  0  0  0  0  0  0  0  # atno 8009 bound_to 7997
  156.1539  140.1567  156.8712 H   0  0  0  0  0  0  0  0  0  0  0  0  # atno 8010 bound_to 7997
  140.2776  144.3193  150.6273 H   0  0  0  0  0  0  0  0  0  0  0  0  # atno 10167 bound_to 10162
  157.0967  130.6451  149.5862 H   0  0  0  0  0  0  0  0  0  0  0  0  # atno 10718 bound_to 10713
  154.7203  135.3024  154.9057 H   0  0  0  0  0  0  0  0  0  0  0  0  # atno 10763 bound_to 10752
  153.9931  135.6716  153.4759 H   0  0  0  0  0  0  0  0  0  0  0  0  # atno 10764 bound_to 10752
  153.0828  135.4999  154.8455 H   0  0  0  0  0  0  0  0  0  0  0  0  # atno 10765 bound_to 10752
  140.8304  133.8001  155.9752 H   0  0  0  0  0  0  0  0  0  0  0  0  # atno 11005 bound_to 11000
  144.8277  140.6655  143.6311 LP  0  0  0  0  0  0  0  0  0  0  0  0  # atno 17320 bound_to 7965
  145.4142  139.1575  143.4109 LP  0  0  0  0  0  0  0  0  0  0  0  0  # atno 17321 bound_to 7965
  140.5838  143.2171  151.7380 LP  0  0  0  0  0  0  0  0  0  0  0  0  # atno 17342 bound_to 10162
  139.4971  144.4041  152.0150 LP  0  0  0  0  0  0  0  0  0  0  0  0  # atno 17343 bound_to 10162
  155.9884  130.4927  150.7167 LP  0  0  0  0  0  0  0  0  0  0  0  0  # atno 17370 bound_to 10713
  157.4675  131.0889  151.0679 LP  0  0  0  0  0  0  0  0  0  0  0  0  # atno 17371 bound_to 10713
  140.9004  134.2385  157.5044 LP  0  0  0  0  0  0  0  0  0  0  0  0  # atno 17394 bound_to 11000
  139.8705  134.9704  156.4700 LP  0  0  0  0  0  0  0  0  0  0  0  0  # atno 17395 bound_to 11000

$$$$
