AV-unprocessed.smi:221|AV-procd|sdf|1694|dock1
  -GOLD-   2262020143D 1   1.00000     0.00000
 Structure written by MMmdl.
 50 53  0  0  0  0  0  0  0  0  1 V2000
  145.2310  136.3510  149.7373 N   0  0  0  0  0  0  0  0  0  0  0  0
  145.0849  135.6606  150.8706 C   0  0  0  0  0  0  0  0  0  0  0  0
  144.6358  136.1730  151.8946 O   0  0  0  0  0  0  0  0  0  0  0  0
  145.4861  134.1789  150.8347 C   0  0  2  0  0  0  0  0  0  0  0  0
  144.5716  133.3598  149.9143 C   0  0  0  0  0  0  0  0  0  0  0  0
  144.7177  131.9419  150.4553 C   0  0  1  0  0  0  0  0  0  0  0  0
  145.8255  131.3875  149.9609 F   0  0  0  0  0  0  0  0  0  0  0  0
  144.8799  132.1541  151.9624 C   0  0  0  0  0  0  0  0  0  0  0  0
  145.3374  133.5299  152.1391 N   0  0  0  0  0  0  0  0  0  0  0  0
  146.3625  133.6996  153.0030 C   0  0  0  0  0  0  0  0  0  0  0  0
  146.4574  134.9009  153.6231 N   0  0  0  0  0  0  0  0  0  0  0  0
  147.4546  135.1310  154.4830 C   0  0  0  0  0  0  0  0  0  0  0  0
  148.4416  134.3129  154.8566 N   0  0  0  0  0  0  0  0  0  0  0  0
  148.3456  133.1039  154.2323 C   0  0  0  0  0  0  0  0  0  0  0  0
  147.3445  132.7135  153.3001 C   0  0  0  0  0  0  0  0  0  0  0  0
  147.5698  131.4082  152.8791 N   0  0  0  0  0  0  0  0  0  0  0  0
  148.6461  131.0485  153.5235 C   0  0  0  0  0  0  0  0  0  0  0  0
  149.1819  132.0088  154.3519 N   0  0  0  0  0  0  0  0  0  0  0  0
  150.3703  131.8859  155.1762 C   0  0  0  0  0  0  0  0  0  0  0  0
  150.4523  130.5460  155.9485 C   0  0  2  0  0  0  0  0  0  0  0  0
  151.0206  130.7070  157.3825 C   0  0  0  0  0  0  0  0  0  0  0  0
  150.3069  131.6784  158.1196 O   0  0  0  0  0  0  0  0  0  0  0  0
  151.2137  129.4943  155.1017 C   0  0  1  0  0  0  0  0  0  0  0  0
  152.7295  129.6493  155.0462 C   0  0  0  0  0  0  0  0  0  0  0  0
  153.1876  128.2219  154.7835 C   0  0  0  0  0  0  0  0  0  0  0  0
  152.3171  127.4588  155.6020 O   0  0  0  0  0  0  0  0  0  0  0  0
  151.0145  128.0289  155.5288 C   0  0  0  0  0  0  0  0  0  0  0  0
  146.5171  134.0894  150.4868 H   0  0  0  0  0  0  0  0  0  0  0  0
  143.8818  131.2906  150.1985 H   0  0  0  0  0  0  0  0  0  0  0  0
  144.9840  137.3296  149.7128 H   0  0  0  0  0  0  0  0  0  0  0  0
  145.5905  135.8951  148.9113 H   0  0  0  0  0  0  0  0  0  0  0  0
  143.5325  133.6801  150.0121 H   0  0  0  0  0  0  0  0  0  0  0  0
  144.8484  133.4390  148.8625 H   0  0  0  0  0  0  0  0  0  0  0  0
  143.9120  132.0660  152.4568 H   0  0  0  0  0  0  0  0  0  0  0  0
  145.5386  131.4067  152.4085 H   0  0  0  0  0  0  0  0  0  0  0  0
  147.4633  136.1116  154.9355 H   0  0  0  0  0  0  0  0  0  0  0  0
  149.0866  130.0692  153.4043 H   0  0  0  0  0  0  0  0  0  0  0  0
  151.2372  132.0002  154.5243 H   0  0  0  0  0  0  0  0  0  0  0  0
  150.3951  132.7254  155.8718 H   0  0  0  0  0  0  0  0  0  0  0  0
  149.4346  130.1630  156.0425 H   0  0  0  0  0  0  0  0  0  0  0  0
  150.9566  129.7745  157.9416 H   0  0  0  0  0  0  0  0  0  0  0  0
  152.0753  130.9822  157.3554 H   0  0  0  0  0  0  0  0  0  0  0  0
  149.5951  131.9978  157.5862 H   0  0  0  0  0  0  0  0  0  0  0  0
  150.8467  129.5619  154.0761 H   0  0  0  0  0  0  0  0  0  0  0  0
  153.0580  130.3466  154.2751 H   0  0  0  0  0  0  0  0  0  0  0  0
  153.1343  129.9854  156.0002 H   0  0  0  0  0  0  0  0  0  0  0  0
  153.0426  127.9494  153.7369 H   0  0  0  0  0  0  0  0  0  0  0  0
  154.2335  128.0580  155.0439 H   0  0  0  0  0  0  0  0  0  0  0  0
  150.5079  127.9200  156.4876 H   0  0  0  0  0  0  0  0  0  0  0  0
  150.4231  127.4921  154.7858 H   0  0  0  0  0  0  0  0  0  0  0  0
  1  2  1  0  0  0  0
  1 30  1  0  0  0  0
  1 31  1  0  0  0  0
  2  3  2  0  0  0  0
  2  4  1  0  0  0  0
  4 28  1  0  0  0  0
  4  9  1  0  0  0  0
  4  5  1  0  0  0  0
  5  6  1  0  0  0  0
  5 32  1  0  0  0  0
  5 33  1  0  0  0  0
  6 29  1  0  0  0  0
  6  7  1  0  0  0  0
  6  8  1  0  0  0  0
  8  9  1  0  0  0  0
  8 34  1  0  0  0  0
  8 35  1  0  0  0  0
  9 10  1  0  0  0  0
 10 15  1  0  0  0  0
 10 11  2  0  0  0  0
 11 12  1  0  0  0  0
 12 13  2  0  0  0  0
 12 36  1  0  0  0  0
 13 14  1  0  0  0  0
 14 18  1  0  0  0  0
 14 15  2  0  0  0  0
 15 16  1  0  0  0  0
 16 17  2  0  0  0  0
 17 18  1  0  0  0  0
 17 37  1  0  0  0  0
 18 19  1  0  0  0  0
 19 20  1  0  0  0  0
 19 38  1  0  0  0  0
 19 39  1  0  0  0  0
 20 21  1  0  0  0  0
 20 23  1  0  0  0  0
 20 40  1  0  0  0  0
 21 22  1  0  0  0  0
 21 41  1  0  0  0  0
 21 42  1  0  0  0  0
 22 43  1  0  0  0  0
 23 27  1  0  0  0  0
 23 24  1  0  0  0  0
 23 44  1  0  0  0  0
 24 25  1  0  0  0  0
 24 45  1  0  0  0  0
 24 46  1  0  0  0  0
 25 26  1  0  0  0  0
 25 47  1  0  0  0  0
 25 48  1  0  0  0  0
 26 27  1  0  0  0  0
 27 49  1  0  0  0  0
 27 50  1  0  0  0  0
M  END
> <s_m_source_file>
AV-unprocessed.smi

> <i_m_source_file_index>
221

> <i_lp_mmshare_version>
43012

> <i_f3d_flags>
0

> <s_epik_input>
W05IMl1DKD1PKVtDQEBIXTFbQ0gyXVtDQEBIXShGKVtDSDJdTjFjKG5bY0hdbjIpYyhjMjMpbltjSF1uM1tDSDJdW0NASF0oW0NIMl1bT0hdKVtDQEBIXTRbQ0gyXVtDSDJdT1tDSDJdNA==

> <s_epik_cmdline>
J2VwaWtfcHl0aG9uJywgJy1waCcsICc3LjAnLCAnLXRuJywgJzgnLCAnLW1hJywgJzIwMCcsICctbWV0YWxfYmluZGluZycsICctaW1hZScsICc8aW5maWxlLm1hZT4nLCAnLW9tYWUnLCAnPG91dGZpbGUubWFlPic=

> <r_lp_tautomer_probability>
1

> <r_epik_Ionization_Penalty>
0.000818822

> <r_epik_Ionization_Penalty_Charging>
0

> <r_epik_Ionization_Penalty_Neutral>
0.000818822

> <r_epik_State_Penalty>
0.000440551

> <r_epik_Charging_Adjusted_Penalty>
0.000440551

> <i_epik_Tot_Q>
0

> <i_epik_Tot_abs_Q>
0

> <r_epik_Metal_State_Penalty>
-0

> <b_epik_Metal_Only>
0

> <s_lp_Force_Field>
OPLS_2005

> <r_lp_Energy>
51.8706

> <b_lp_Chiralities_Consistent>
1

> <s_lp_Variant>
AV-unprocessed.smi:221-9

> <Gold.Version>
5.8.1

> <Gold.Id.Protein>
6NUR|6NUR_protein|mol2

> <Gold.PLP.Fitness>
46.8070

> <Gold.PLP.PLP>
-40.4833

> <Gold.PLP.part.hbond>
-2.9414

> <Gold.PLP.part.metal>
0.0000

> <Gold.PLP.part.buried>
-4.0691

> <Gold.PLP.part.nonpolar>
-34.1307

> <Gold.PLP.part.repulsive>
1.7107

> <Gold.PLP.ligand.clash>
0.0000

> <Gold.PLP.ligand.torsion>
1.4768

> <Gold.PLP.Chemscore.Hbond>
3.0000

> <Gold.PLP.Chemscore.CHOScore>
0.0000

> <Gold.PLP.Chemscore.Metal>
0.0000

> <Gold.Chemscore.Hbonds>
donor molecule, donor type, donor heavy atom, donor atom, acceptor molecule, acceptor atom, score
      L1  H     1    30       P1 10171  1.00
      L1  H     1    31       P1  7921  1.00
      P1  H  6896  6909       L1    22  0.50

> <Gold.PLP.Chemscore.Internal.Correction>
0.2774

> <Gold.Rescore>
     Score         DG    S(hbond)    S(metal)    S(lipo)     H(rot)  DE(clash)    DE(int)     intcor
     10.52     -13.96       2.94        0.00      69.86       3.72       0.47       2.97       ----

> <Gold.Chemscore.Fitness>
10.5231

> <Gold.Chemscore.DG>
-13.9597

> <Gold.Chemscore.ZeroCoef>
-5.4800

> <Gold.Chemscore.Hbond>
2.9432

> <Gold.Chemscore.Metal>
0.0000

> <Gold.Chemscore.Lipo>
69.8555

> <Gold.Chemscore.Internal_Hbond>
0.0000

> <Gold.Chemscore.DEClash>
0.4661

> <Gold.Chemscore.DEInternal>
2.9705

> <Gold.Chemscore.Rot>
3.7202

> <Gold.Chemscore.Internal.Correction>
   9.000000E+99

> <Gold.Chemscore.Hbonds>
donor molecule, donor type, donor heavy atom, donor atom, acceptor molecule, acceptor atom, score
      L1  H     1    30       P1 10171  0.96
      L1  H     1    31       P1  7921  1.00
      P1  H  6896  6909       L1    22  0.34

> <Gold.Chemscore.Hbond.Weighted>
-9.8304

> <Gold.Chemscore.Metal.Weighted>
-0.0000

> <Gold.Chemscore.Lipo.Weighted>
-8.1731

> <Gold.Chemscore.Internal_Hbond.Weighted>
0.0000

> <Gold.Chemscore.DEClash.Weighted>
0.4661

> <Gold.Chemscore.DEInternal.Weighted>
2.9705

> <Gold.Chemscore.Rot.Weighted>
9.5237

> <Gold.Chemscore.Internal.Correction.Weighted>
   9.000000E+99

> <Gold.Protein.RotatedTorsions>
[ 6907 6896 6895 6894 ] final  -30.74 input  -60.11 | X-H torsion
[ 7974 7965 7964 7962 ] final -137.55 input  175.53 | X-H torsion
[ 8008 7997 7996 7995 ] final  113.03 input   59.86 | X-H torsion
[ 10167 10162 10161 10158 ] final  -45.62 input  -65.29 | X-H torsion
[ 10718 10713 10712 10709 ] final -163.35 input   66.30 | X-H torsion
[ 10763 10752 10751 10750 ] final -161.69 input  -60.55 | X-H torsion
[ 11005 11000 10999 10996 ] final   39.00 input  -57.11 | X-H torsion

> <Gold.Protein.ActiveResidues>
 VAL166  LYS551  ARG553  GLY616  TRP617  ASP618  TYR619  PRO620  LYS621  CYS622 
 ASP623  PHE694  ASN695  SER759  ASP760  ASP761  ALA762  ILE779  LEU786  VAL792 
 PHE793  MET794  SER795  GLU796  ALA797  LYS798  CYS799  TRP800  GLU811  SER814 

> <Gold.Protein.RotatedAtoms>
  151.1015  134.9975  159.8450 H   0  0  0  0  0  0  0  0  0  0  0  0  # atno 6907 bound_to 6896
  152.5437  134.1944  159.8697 H   0  0  0  0  0  0  0  0  0  0  0  0  # atno 6908 bound_to 6896
  151.1987  133.4579  159.2629 H   0  0  0  0  0  0  0  0  0  0  0  0  # atno 6909 bound_to 6896
  144.8833  140.6538  143.5192 H   0  0  0  0  0  0  0  0  0  0  0  0  # atno 7974 bound_to 7965
  156.2231  140.2988  156.0001 H   0  0  0  0  0  0  0  0  0  0  0  0  # atno 8008 bound_to 7997
  155.2428  140.0423  157.2994 H   0  0  0  0  0  0  0  0  0  0  0  0  # atno 8009 bound_to 7997
  154.5872  140.2391  155.7978 H   0  0  0  0  0  0  0  0  0  0  0  0  # atno 8010 bound_to 7997
  140.6850  143.2870  151.3665 H   0  0  0  0  0  0  0  0  0  0  0  0  # atno 10167 bound_to 10162
  156.6234  130.8900  151.2962 H   0  0  0  0  0  0  0  0  0  0  0  0  # atno 10718 bound_to 10713
  154.7281  135.3040  154.8937 H   0  0  0  0  0  0  0  0  0  0  0  0  # atno 10763 bound_to 10752
  153.9788  135.6733  153.4753 H   0  0  0  0  0  0  0  0  0  0  0  0  # atno 10764 bound_to 10752
  153.0893  135.4967  154.8579 H   0  0  0  0  0  0  0  0  0  0  0  0  # atno 10765 bound_to 10752
  140.2070  134.3801  155.8067 H   0  0  0  0  0  0  0  0  0  0  0  0  # atno 11005 bound_to 11000
  145.3915  139.1615  143.4226 LP  0  0  0  0  0  0  0  0  0  0  0  0  # atno 17320 bound_to 7965
  146.3008  140.4005  142.8705 LP  0  0  0  0  0  0  0  0  0  0  0  0  # atno 17321 bound_to 7965
  139.6202  144.0922  152.2384 LP  0  0  0  0  0  0  0  0  0  0  0  0  # atno 17342 bound_to 10162
  140.0364  144.6041  150.7446 LP  0  0  0  0  0  0  0  0  0  0  0  0  # atno 17343 bound_to 10162
  157.7221  130.9572  150.1481 LP  0  0  0  0  0  0  0  0  0  0  0  0  # atno 17370 bound_to 10713
  156.2293  130.3680  149.8464 LP  0  0  0  0  0  0  0  0  0  0  0  0  # atno 17371 bound_to 10713
  141.2227  133.7123  156.8354 LP  0  0  0  0  0  0  0  0  0  0  0  0  # atno 17394 bound_to 11000
  140.1992  134.8910  157.3149 LP  0  0  0  0  0  0  0  0  0  0  0  0  # atno 17395 bound_to 11000

$$$$
