AV-unprocessed.smi:1933|AV-procd|sdf|7818|dock2
  -GOLD-   22720 9563D 1   1.00000     0.00000
 Structure written by MMmdl.
 47 49  0  0  0  0  0  0  0  0  1 V2000
  144.9845  137.4991  151.5913 O   0  0  0  0  0  0  0  0  0  0  0  0
  146.1478  137.1161  151.7196 C   0  0  0  0  0  0  0  0  0  0  0  0
  147.1701  137.9422  151.9854 N   0  0  0  0  0  0  0  0  0  0  0  0
  147.0472  139.3851  152.1674 C   0  0  0  0  0  0  0  0  0  0  0  0
  146.8752  139.7956  153.6554 C   0  0  1  0  0  0  0  0  0  0  0  0
  148.1995  139.6956  154.4671 C   0  0  1  0  0  0  0  0  0  0  0  0
  149.0962  138.4840  154.2940 C   0  0  0  0  0  0  0  0  0  0  0  0
  150.3581  138.9538  155.0102 C   0  0  0  0  0  0  0  0  0  0  0  0
  150.4409  140.3537  154.7512 O   0  0  0  0  0  0  0  0  0  0  0  0
  149.1965  140.8342  154.2452 C   0  0  0  0  0  0  0  0  0  0  0  0
  146.1025  141.0360  153.8632 N   0  0  0  0  0  0  0  0  0  0  0  0
  145.8347  141.3855  155.2610 C   0  0  0  0  0  0  0  0  0  0  0  0
  144.9445  142.6345  155.3691 C   0  0  0  0  0  0  0  0  0  0  0  0
  145.5734  143.7222  154.6989 O   0  0  0  0  0  0  0  0  0  0  0  0
  145.8352  143.4468  153.3263 C   0  0  0  0  0  0  0  0  0  0  0  0
  146.7133  142.1891  153.2050 C   0  0  0  0  0  0  0  0  0  0  0  0
  146.5634  135.8411  151.6186 N   0  0  0  0  0  0  0  0  0  0  0  0
  145.7814  134.6814  151.3688 C   0  0  0  0  0  0  0  0  0  0  0  0
  146.4502  133.4528  151.5702 C   0  0  0  0  0  0  0  0  0  0  0  0
  145.7599  132.2442  151.3544 C   0  0  0  0  0  0  0  0  0  0  0  0
  144.4168  132.2951  150.9413 C   0  0  0  0  0  0  0  0  0  0  0  0
  143.8260  133.5594  150.7617 C   0  0  0  0  0  0  0  0  0  0  0  0
  144.4855  134.7187  150.9687 N   0  0  0  0  0  0  0  0  0  0  0  0
  148.0952  137.5478  152.0729 H   0  0  0  0  0  0  0  0  0  0  0  0
  147.9432  139.8455  151.7507 H   0  0  0  0  0  0  0  0  0  0  0  0
  146.2120  139.7435  151.5641 H   0  0  0  0  0  0  0  0  0  0  0  0
  146.2737  139.0006  154.0980 H   0  0  0  0  0  0  0  0  0  0  0  0
  147.9353  139.7365  155.5249 H   0  0  0  0  0  0  0  0  0  0  0  0
  148.6806  137.5679  154.7140 H   0  0  0  0  0  0  0  0  0  0  0  0
  149.3507  138.3127  153.2513 H   0  0  0  0  0  0  0  0  0  0  0  0
  150.2649  138.8013  156.0863 H   0  0  0  0  0  0  0  0  0  0  0  0
  151.2522  138.4308  154.6702 H   0  0  0  0  0  0  0  0  0  0  0  0
  149.3208  141.0529  153.1839 H   0  0  0  0  0  0  0  0  0  0  0  0
  148.8935  141.7541  154.7460 H   0  0  0  0  0  0  0  0  0  0  0  0
  145.3654  140.5681  155.7979 H   0  0  0  0  0  0  0  0  0  0  0  0
  146.7715  141.5892  155.7809 H   0  0  0  0  0  0  0  0  0  0  0  0
  143.9604  142.4478  154.9366 H   0  0  0  0  0  0  0  0  0  0  0  0
  144.7910  142.9018  156.4146 H   0  0  0  0  0  0  0  0  0  0  0  0
  144.8941  143.3118  152.7912 H   0  0  0  0  0  0  0  0  0  0  0  0
  146.3376  144.3048  152.8797 H   0  0  0  0  0  0  0  0  0  0  0  0
  147.6942  142.3919  153.6357 H   0  0  0  0  0  0  0  0  0  0  0  0
  146.8757  141.9732  152.1485 H   0  0  0  0  0  0  0  0  0  0  0  0
  147.5516  135.6796  151.7432 H   0  0  0  0  0  0  0  0  0  0  0  0
  147.4825  133.4314  151.8882 H   0  0  0  0  0  0  0  0  0  0  0  0
  146.2529  131.2949  151.5039 H   0  0  0  0  0  0  0  0  0  0  0  0
  143.8543  131.3898  150.7667 H   0  0  0  0  0  0  0  0  0  0  0  0
  142.7970  133.6423  150.4444 H   0  0  0  0  0  0  0  0  0  0  0  0
  1  2  2  0  0  0  0
  2  3  1  0  0  0  0
  2 17  1  0  0  0  0
  3  4  1  0  0  0  0
  3 24  1  0  0  0  0
  4  5  1  0  0  0  0
  4 25  1  0  0  0  0
  4 26  1  0  0  0  0
  5  6  1  0  0  0  0
  5 11  1  0  0  0  0
  5 27  1  0  0  0  0
  6 10  1  0  0  0  0
  6  7  1  0  0  0  0
  6 28  1  0  0  0  0
  7  8  1  0  0  0  0
  7 29  1  0  0  0  0
  7 30  1  0  0  0  0
  8  9  1  0  0  0  0
  8 31  1  0  0  0  0
  8 32  1  0  0  0  0
  9 10  1  0  0  0  0
 10 33  1  0  0  0  0
 10 34  1  0  0  0  0
 11 16  1  0  0  0  0
 11 12  1  0  0  0  0
 12 13  1  0  0  0  0
 12 35  1  0  0  0  0
 12 36  1  0  0  0  0
 13 14  1  0  0  0  0
 13 37  1  0  0  0  0
 13 38  1  0  0  0  0
 14 15  1  0  0  0  0
 15 16  1  0  0  0  0
 15 39  1  0  0  0  0
 15 40  1  0  0  0  0
 16 41  1  0  0  0  0
 16 42  1  0  0  0  0
 17 18  1  0  0  0  0
 17 43  1  0  0  0  0
 18 23  1  0  0  0  0
 18 19  2  0  0  0  0
 19 20  1  0  0  0  0
 19 44  1  0  0  0  0
 20 21  2  0  0  0  0
 20 45  1  0  0  0  0
 21 22  1  0  0  0  0
 21 46  1  0  0  0  0
 22 23  2  0  0  0  0
 22 47  1  0  0  0  0
M  END
> <s_m_source_file>
AV-unprocessed.smi

> <i_m_source_file_index>
1933

> <i_lp_mmshare_version>
43012

> <i_f3d_flags>
0

> <s_epik_input>
bjFbY0hdW2NIXVtjSF1bY0hdYzFbTkhdQyg9TylbTkhdW0NIMl1bQ0BIXShbQ0BASF0yW0NIMl1bQ0gyXU9bQ0gyXTIpTjNbQ0gyXVtDSDJdT1tDSDJdW0NIMl0z

> <s_epik_cmdline>
J2VwaWtfcHl0aG9uJywgJy1waCcsICc3LjAnLCAnLXRuJywgJzgnLCAnLW1hJywgJzIwMCcsICctbWV0YWxfYmluZGluZycsICctaW1hZScsICc8aW5maWxlLm1hZT4nLCAnLW9tYWUnLCAnPG91dGZpbGUubWFlPic=

> <r_epik_Ionization_Penalty>
0.125062

> <r_epik_Ionization_Penalty_Charging>
0

> <r_epik_Ionization_Penalty_Neutral>
0.125062

> <r_epik_State_Penalty>
0.114484

> <r_epik_Charging_Adjusted_Penalty>
0.114484

> <i_epik_Tot_Q>
0

> <i_epik_Tot_abs_Q>
0

> <r_epik_Metal_State_Penalty>
0.114484

> <b_epik_Metal_Only>
0

> <s_lp_Force_Field>
OPLS_2005

> <r_lp_Energy>
56.0331

> <b_lp_Chiralities_Consistent>
1

> <s_lp_Variant>
AV-unprocessed.smi:1933-4

> <Gold.Version>
5.8.1

> <Gold.Id.Protein>
6NUR|6NUR_protein|mol2

> <Gold.PLP.Fitness>
47.7270

> <Gold.PLP.PLP>
-36.7401

> <Gold.PLP.part.hbond>
-3.0000

> <Gold.PLP.part.metal>
0.0000

> <Gold.PLP.part.buried>
-7.1209

> <Gold.PLP.part.nonpolar>
-30.1501

> <Gold.PLP.part.repulsive>
2.1900

> <Gold.PLP.ligand.clash>
0.0000

> <Gold.PLP.ligand.torsion>
0.6558

> <Gold.PLP.Chemscore.Hbond>
2.9920

> <Gold.PLP.Chemscore.CHOScore>
1.0000

> <Gold.PLP.Chemscore.Metal>
0.0000

> <Gold.Chemscore.Hbonds>
donor molecule, donor type, donor heavy atom, donor atom, acceptor molecule, acceptor atom, score
      L1  H     3    24       P1  7948  0.88
      L1  H    17    43       P1  7948  0.86
      P1  H  7989  7998       L1     9  1.00
      L1  C    22    47       P1 10186  1.00

> <Gold.PLP.Chemscore.Internal.Correction>
0.3226

> <Gold.Rescore>
     Score         DG    S(hbond)    S(metal)    S(lipo)     H(rot)  DE(clash)    DE(int)     intcor
     15.45     -20.03       2.82        0.00      81.56       1.72       1.57       3.02       ----

> <Gold.Chemscore.Fitness>
15.4471

> <Gold.Chemscore.DG>
-20.0335

> <Gold.Chemscore.ZeroCoef>
-5.4800

> <Gold.Chemscore.Hbond>
2.8157

> <Gold.Chemscore.Metal>
0.0000

> <Gold.Chemscore.Lipo>
81.5578

> <Gold.Chemscore.Internal_Hbond>
0.0000

> <Gold.Chemscore.DEClash>
1.5663

> <Gold.Chemscore.DEInternal>
3.0201

> <Gold.Chemscore.Rot>
1.7161

> <Gold.Chemscore.Internal.Correction>
   9.000000E+99

> <Gold.Chemscore.Hbonds>
donor molecule, donor type, donor heavy atom, donor atom, acceptor molecule, acceptor atom, score
      L1  H     3    24       P1  7948  0.83
      L1  H    17    43       P1  7948  0.79
      P1  H  7989  7998       L1     9  0.37

> <Gold.Chemscore.Hbond.Weighted>
-9.4044

> <Gold.Chemscore.Metal.Weighted>
-0.0000

> <Gold.Chemscore.Lipo.Weighted>
-9.5423

> <Gold.Chemscore.Internal_Hbond.Weighted>
0.0000

> <Gold.Chemscore.DEClash.Weighted>
1.5663

> <Gold.Chemscore.DEInternal.Weighted>
3.0201

> <Gold.Chemscore.Rot.Weighted>
4.3932

> <Gold.Chemscore.Internal.Correction.Weighted>
   9.000000E+99

> <Gold.Protein.RotatedTorsions>
[ 6907 6896 6895 6894 ] final  -75.53 input  -60.11 | X-H torsion
[ 7974 7965 7964 7962 ] final   46.91 input  175.53 | X-H torsion
[ 8008 7997 7996 7995 ] final   52.15 input   59.86 | X-H torsion
[ 10167 10162 10161 10158 ] final  -11.55 input  -65.29 | X-H torsion
[ 10718 10713 10712 10709 ] final -141.47 input   66.30 | X-H torsion
[ 10763 10752 10751 10750 ] final -120.95 input  -60.55 | X-H torsion
[ 11005 11000 10999 10996 ] final -174.66 input  -57.11 | X-H torsion

> <Gold.Protein.ActiveResidues>
 VAL166  LYS551  ARG553  GLY616  TRP617  ASP618  TYR619  PRO620  LYS621  CYS622 
 ASP623  PHE694  ASN695  SER759  ASP760  ASP761  ALA762  ILE779  LEU786  VAL792 
 PHE793  MET794  SER795  GLU796  ALA797  LYS798  CYS799  TRP800  GLU811  SER814 

> <Gold.Protein.RotatedAtoms>
  150.7056  134.4707  159.5423 H   0  0  0  0  0  0  0  0  0  0  0  0  # atno 6907 bound_to 6896
  152.2364  134.8269  160.0475 H   0  0  0  0  0  0  0  0  0  0  0  0  # atno 6908 bound_to 6896
  151.9066  133.3516  159.3886 H   0  0  0  0  0  0  0  0  0  0  0  0  # atno 6909 bound_to 6896
  146.0346  139.4805  142.9816 H   0  0  0  0  0  0  0  0  0  0  0  0  # atno 7974 bound_to 7965
  155.4470  140.3456  155.4296 H   0  0  0  0  0  0  0  0  0  0  0  0  # atno 8008 bound_to 7997
  156.1244  140.1496  156.9188 H   0  0  0  0  0  0  0  0  0  0  0  0  # atno 8009 bound_to 7997
  154.4847  140.0859  156.7438 H   0  0  0  0  0  0  0  0  0  0  0  0  # atno 8010 bound_to 7997
  140.7141  143.5627  150.9177 H   0  0  0  0  0  0  0  0  0  0  0  0  # atno 10167 bound_to 10162
  156.3344  130.7603  151.1728 H   0  0  0  0  0  0  0  0  0  0  0  0  # atno 10718 bound_to 10713
  154.8657  135.4185  154.2542 H   0  0  0  0  0  0  0  0  0  0  0  0  # atno 10763 bound_to 10752
  153.3482  135.6997  153.6816 H   0  0  0  0  0  0  0  0  0  0  0  0  # atno 10764 bound_to 10752
  153.5766  135.3581  155.2831 H   0  0  0  0  0  0  0  0  0  0  0  0  # atno 10765 bound_to 10752
  140.4720  134.6156  157.4886 H   0  0  0  0  0  0  0  0  0  0  0  0  # atno 11005 bound_to 11000
  145.6984  141.0143  143.1517 LP  0  0  0  0  0  0  0  0  0  0  0  0  # atno 17320 bound_to 7965
  144.7046  139.8615  143.7434 LP  0  0  0  0  0  0  0  0  0  0  0  0  # atno 17321 bound_to 7965
  139.9353  143.6445  152.3067 LP  0  0  0  0  0  0  0  0  0  0  0  0  # atno 17342 bound_to 10162
  139.6910  144.7647  151.1438 LP  0  0  0  0  0  0  0  0  0  0  0  0  # atno 17343 bound_to 10162
  157.7436  131.0472  150.4933 LP  0  0  0  0  0  0  0  0  0  0  0  0  # atno 17370 bound_to 10713
  156.5103  130.4138  149.6304 LP  0  0  0  0  0  0  0  0  0  0  0  0  # atno 17371 bound_to 10713
  139.9879  134.7032  155.9741 LP  0  0  0  0  0  0  0  0  0  0  0  0  # atno 17394 bound_to 11000
  141.1572  133.6542  156.4201 LP  0  0  0  0  0  0  0  0  0  0  0  0  # atno 17395 bound_to 11000

$$$$
