AV-unprocessed.smi:3018|AV-procd|sdf|11481|dock2
  -GOLD-   2272016423D 1   1.00000     0.00000
 Structure written by MMmdl.
 44 45  0  0  0  0  0  0  0  0  2 V2000
  148.8601  140.8532  153.8855 C   0  0  0  0  0  0  0  0  0  0  0  0
  150.1180  140.8760  154.7631 C   0  0  0  0  0  0  0  0  0  0  0  0
  149.8918  141.6022  156.1025 C   0  0  2  0  0  0  0  0  0  0  0  0
  150.9417  141.2233  156.9900 O   0  0  0  0  0  0  0  0  0  0  0  0
  151.0881  142.0147  158.1662 C   0  0  0  0  0  0  0  0  0  0  0  0
  151.3051  143.4911  157.7788 C   0  0  0  0  0  0  0  0  0  0  0  0
  151.5997  144.3561  159.0146 C   0  0  0  0  0  0  0  0  0  0  0  0
  152.7956  143.8091  159.8107 C   0  0  0  0  0  0  0  0  0  0  0  0
  152.5886  142.3336  160.1882 C   0  0  0  0  0  0  0  0  0  0  0  0
  152.2996  141.4764  158.9458 C   0  0  0  0  0  0  0  0  0  0  0  0
  148.5391  141.2348  156.7327 C   0  0  0  0  0  0  0  0  0  0  0  0
  148.3711  140.1325  157.2553 O   0  0  0  0  0  0  0  0  0  0  0  0
  147.5911  142.1813  156.6933 N   0  0  0  0  0  0  0  0  0  0  0  0
  146.2848  142.0813  157.3329 C   0  0  0  0  0  0  0  0  0  0  0  0
  145.8937  143.4031  158.0167 C   0  0  0  0  0  0  0  0  0  0  0  0
  146.5315  143.5837  159.3839 C   0  0  0  0  0  0  0  0  0  0  0  0
  146.4524  142.8280  160.4166 N   0  0  0  0  0  0  0  0  0  0  0  0
  147.2528  143.4819  161.4090 N   0  5  0  0  0  0  0  0  0  0  0  0
  147.7471  144.6096  160.8420 C   0  0  0  0  0  0  0  0  0  0  0  0
  148.4772  145.4633  161.3404 O   0  0  0  0  0  0  0  0  0  0  0  0
  147.3129  144.6843  159.5882 N   0  0  0  0  0  0  0  0  0  0  0  0
  147.5088  145.4099  158.9149 H   0  0  0  0  0  0  0  0  0  0  0  0
  149.0499  140.3305  152.9479 H   0  0  0  0  0  0  0  0  0  0  0  0
  148.5300  141.8634  153.6422 H   0  0  0  0  0  0  0  0  0  0  0  0
  148.0376  140.3452  154.3898 H   0  0  0  0  0  0  0  0  0  0  0  0
  150.4314  139.8476  154.9490 H   0  0  0  0  0  0  0  0  0  0  0  0
  150.9319  141.3505  154.2131 H   0  0  0  0  0  0  0  0  0  0  0  0
  149.9169  142.6768  155.9153 H   0  0  0  0  0  0  0  0  0  0  0  0
  150.2120  141.9324  158.8105 H   0  0  0  0  0  0  0  0  0  0  0  0
  152.1357  143.5657  157.0758 H   0  0  0  0  0  0  0  0  0  0  0  0
  150.4295  143.8845  157.2631 H   0  0  0  0  0  0  0  0  0  0  0  0
  151.7950  145.3849  158.7108 H   0  0  0  0  0  0  0  0  0  0  0  0
  150.7173  144.3863  159.6539 H   0  0  0  0  0  0  0  0  0  0  0  0
  153.7052  143.9090  159.2174 H   0  0  0  0  0  0  0  0  0  0  0  0
  152.9459  144.4051  160.7114 H   0  0  0  0  0  0  0  0  0  0  0  0
  153.4694  141.9542  160.7065 H   0  0  0  0  0  0  0  0  0  0  0  0
  151.7593  142.2485  160.8904 H   0  0  0  0  0  0  0  0  0  0  0  0
  152.1181  140.4433  159.2442 H   0  0  0  0  0  0  0  0  0  0  0  0
  153.1783  141.4635  158.2997 H   0  0  0  0  0  0  0  0  0  0  0  0
  147.8163  143.0592  156.2482 H   0  0  0  0  0  0  0  0  0  0  0  0
  145.5449  141.8257  156.5738 H   0  0  0  0  0  0  0  0  0  0  0  0
  146.2812  141.2702  158.0638 H   0  0  0  0  0  0  0  0  0  0  0  0
  146.1610  144.2431  157.3739 H   0  0  0  0  0  0  0  0  0  0  0  0
  144.8107  143.4450  158.1357 H   0  0  0  0  0  0  0  0  0  0  0  0
  1  2  1  0  0  0  0
  1 23  1  0  0  0  0
  1 24  1  0  0  0  0
  1 25  1  0  0  0  0
  2  3  1  0  0  0  0
  2 26  1  0  0  0  0
  2 27  1  0  0  0  0
  3  4  1  0  0  0  0
  3 11  1  0  0  0  0
  3 28  1  0  0  0  0
  4  5  1  0  0  0  0
  5 10  1  0  0  0  0
  5  6  1  0  0  0  0
  5 29  1  0  0  0  0
  6  7  1  0  0  0  0
  6 30  1  0  0  0  0
  6 31  1  0  0  0  0
  7  8  1  0  0  0  0
  7 32  1  0  0  0  0
  7 33  1  0  0  0  0
  8  9  1  0  0  0  0
  8 34  1  0  0  0  0
  8 35  1  0  0  0  0
  9 10  1  0  0  0  0
  9 36  1  0  0  0  0
  9 37  1  0  0  0  0
 10 38  1  0  0  0  0
 10 39  1  0  0  0  0
 11 12  2  0  0  0  0
 11 13  1  0  0  0  0
 13 14  1  0  0  0  0
 13 40  1  0  0  0  0
 14 15  1  0  0  0  0
 14 41  1  0  0  0  0
 14 42  1  0  0  0  0
 15 16  1  0  0  0  0
 15 43  1  0  0  0  0
 15 44  1  0  0  0  0
 16 21  1  0  0  0  0
 16 17  2  0  0  0  0
 17 18  1  0  0  0  0
 18 19  1  0  0  0  0
 19 20  2  0  0  0  0
 19 21  1  0  0  0  0
 21 22  1  0  0  0  0
M  CHG  1  18  -1
M  END
> <s_m_source_file>
AV-unprocessed.smi

> <i_m_source_file_index>
3018

> <i_lp_mmshare_version>
43012

> <i_f3d_flags>
0

> <s_epik_input>
W0NIMl0xW0NIMl1bQ0gyXVtDSDJdW0NIMl1bQ0hdMU9bQ0BASF0oW0NIMl1bQ0gzXSlDKD1PKVtOSF1bQ0gyXVtDSDJdYzJuW25IXWMoPU8pW25IXTI=

> <s_epik_cmdline>
J2VwaWtfcHl0aG9uJywgJy1waCcsICc3LjAnLCAnLXRuJywgJzgnLCAnLW1hJywgJzIwMCcsICctbWV0YWxfYmluZGluZycsICctaW1hZScsICc8aW5maWxlLm1hZT4nLCAnLW9tYWUnLCAnPG91dGZpbGUubWFlPic=

> <r_lp_tautomer_probability>
1

> <r_epik_Ionization_Penalty>
14.1812

> <r_epik_Ionization_Penalty_Charging>
13.7758

> <r_epik_Ionization_Penalty_Neutral>
0.405355

> <r_epik_State_Penalty>
4.92413

> <r_epik_Charging_Adjusted_Penalty>
18.7

> <i_epik_Tot_Q>
-1

> <i_epik_Tot_abs_Q>
1

> <r_epik_Metal_State_Penalty>
1.32654

> <b_epik_Metal_Only>
1

> <s_lp_Force_Field>
OPLS_2005

> <r_lp_Energy>
19.863

> <b_lp_Chiralities_Consistent>
1

> <s_lp_Variant>
AV-unprocessed.smi:3018-3

> <Gold.Version>
5.8.1

> <Gold.Id.Protein>
6NUR|6NUR_protein|mol2

> <Gold.PLP.Fitness>
48.7476

> <Gold.PLP.PLP>
-35.8197

> <Gold.PLP.part.hbond>
-4.5100

> <Gold.PLP.part.metal>
0.0000

> <Gold.PLP.part.buried>
-1.7102

> <Gold.PLP.part.nonpolar>
-30.4399

> <Gold.PLP.part.repulsive>
0.9119

> <Gold.PLP.ligand.clash>
0.0000

> <Gold.PLP.ligand.torsion>
0.7808

> <Gold.PLP.Chemscore.Hbond>
4.7750

> <Gold.PLP.Chemscore.CHOScore>
0.0000

> <Gold.PLP.Chemscore.Metal>
0.0000

> <Gold.Chemscore.Hbonds>
donor molecule, donor type, donor heavy atom, donor atom, acceptor molecule, acceptor atom, score
      L1  H    13    40       P1  8028  0.99
      L1  H    21    22       P1  8029  1.00
      P1  H  6933  6944       L1    18  1.80
      P1  H  6934  6946       L1    17  0.99

> <Gold.PLP.Chemscore.Internal.Correction>
0.1646

> <Gold.Rescore>
     Score         DG    S(hbond)    S(metal)    S(lipo)     H(rot)  DE(clash)    DE(int)     intcor
     12.95     -15.18       2.05        0.00      89.47       2.98       1.42       0.81       ----

> <Gold.Chemscore.Fitness>
12.9490

> <Gold.Chemscore.DG>
-15.1762

> <Gold.Chemscore.ZeroCoef>
-5.4800

> <Gold.Chemscore.Hbond>
2.0510

> <Gold.Chemscore.Metal>
0.0000

> <Gold.Chemscore.Lipo>
89.4673

> <Gold.Chemscore.Internal_Hbond>
0.0000

> <Gold.Chemscore.DEClash>
1.4220

> <Gold.Chemscore.DEInternal>
0.8052

> <Gold.Chemscore.Rot>
2.9772

> <Gold.Chemscore.Internal.Correction>
   9.000000E+99

> <Gold.Chemscore.Hbonds>
donor molecule, donor type, donor heavy atom, donor atom, acceptor molecule, acceptor atom, score
      L1  H    13    40       P1  8028  0.24
      L1  H    21    22       P1  8029  0.96
      P1  H  6933  6944       L1    18  0.12
      P1  H  6934  6946       L1    17  0.31

> <Gold.Chemscore.Hbond.Weighted>
-6.8502

> <Gold.Chemscore.Metal.Weighted>
-0.0000

> <Gold.Chemscore.Lipo.Weighted>
-10.4677

> <Gold.Chemscore.Internal_Hbond.Weighted>
0.0000

> <Gold.Chemscore.DEClash.Weighted>
1.4220

> <Gold.Chemscore.DEInternal.Weighted>
0.8052

> <Gold.Chemscore.Rot.Weighted>
7.6216

> <Gold.Chemscore.Internal.Correction.Weighted>
   9.000000E+99

> <Gold.Protein.RotatedTorsions>
[ 6907 6896 6895 6894 ] final  -42.30 input  -60.11 | X-H torsion
[ 7974 7965 7964 7962 ] final -130.18 input  175.53 | X-H torsion
[ 8008 7997 7996 7995 ] final   43.19 input   59.86 | X-H torsion
[ 10167 10162 10161 10158 ] final   28.74 input  -65.29 | X-H torsion
[ 10718 10713 10712 10709 ] final   39.10 input   66.30 | X-H torsion
[ 10763 10752 10751 10750 ] final  172.42 input  -60.55 | X-H torsion
[ 11005 11000 10999 10996 ] final -145.87 input  -57.11 | X-H torsion

> <Gold.Protein.ActiveResidues>
 VAL166  LYS551  ARG553  GLY616  TRP617  ASP618  TYR619  PRO620  LYS621  CYS622 
 ASP623  PHE694  ASN695  SER759  ASP760  ASP761  ALA762  ILE779  LEU786  VAL792 
 PHE793  MET794  SER795  GLU796  ALA797  LYS798  CYS799  TRP800  GLU811  SER814 

> <Gold.Protein.RotatedAtoms>
  150.9568  134.8961  159.7705 H   0  0  0  0  0  0  0  0  0  0  0  0  # atno 6907 bound_to 6896
  152.5141  134.3729  159.9334 H   0  0  0  0  0  0  0  0  0  0  0  0  # atno 6908 bound_to 6896
  151.3742  133.3803  159.2738 H   0  0  0  0  0  0  0  0  0  0  0  0  # atno 6909 bound_to 6896
  144.9500  140.7334  143.4793 H   0  0  0  0  0  0  0  0  0  0  0  0  # atno 7974 bound_to 7965
  155.2986  140.3383  155.4249 H   0  0  0  0  0  0  0  0  0  0  0  0  # atno 8008 bound_to 7997
  156.2012  140.1733  156.7935 H   0  0  0  0  0  0  0  0  0  0  0  0  # atno 8009 bound_to 7997
  154.5561  140.0696  156.8730 H   0  0  0  0  0  0  0  0  0  0  0  0  # atno 8010 bound_to 7997
  140.4826  144.0592  150.6270 H   0  0  0  0  0  0  0  0  0  0  0  0  # atno 10167 bound_to 10162
  157.3666  130.7678  149.7087 H   0  0  0  0  0  0  0  0  0  0  0  0  # atno 10718 bound_to 10713
  154.4258  135.2759  155.1945 H   0  0  0  0  0  0  0  0  0  0  0  0  # atno 10763 bound_to 10752
  154.3872  135.6074  153.5826 H   0  0  0  0  0  0  0  0  0  0  0  0  # atno 10764 bound_to 10752
  152.9834  135.5894  154.4561 H   0  0  0  0  0  0  0  0  0  0  0  0  # atno 10765 bound_to 10752
  140.7878  134.3003  157.5024 H   0  0  0  0  0  0  0  0  0  0  0  0  # atno 11005 bound_to 11000
  145.2859  139.1901  143.4766 LP  0  0  0  0  0  0  0  0  0  0  0  0  # atno 17320 bound_to 7965
  146.3317  140.2828  142.8611 LP  0  0  0  0  0  0  0  0  0  0  0  0  # atno 17321 bound_to 7965
  140.3838  143.2788  152.0140 LP  0  0  0  0  0  0  0  0  0  0  0  0  # atno 17342 bound_to 10162
  139.4836  144.6133  151.7393 LP  0  0  0  0  0  0  0  0  0  0  0  0  # atno 17343 bound_to 10162
  155.9747  130.4099  150.3901 LP  0  0  0  0  0  0  0  0  0  0  0  0  # atno 17370 bound_to 10713
  157.1986  131.0432  151.2662 LP  0  0  0  0  0  0  0  0  0  0  0  0  # atno 17371 bound_to 10713
  139.8734  134.9357  156.3640 LP  0  0  0  0  0  0  0  0  0  0  0  0  # atno 17394 bound_to 11000
  140.9419  133.7509  156.0158 LP  0  0  0  0  0  0  0  0  0  0  0  0  # atno 17395 bound_to 11000

$$$$
