AV-unprocessed.smi:1421|AV-procd|sdf|5790|dock4
  -GOLD-   22720 5433D 1   1.00000     0.00000
 Structure written by MMmdl.
 45 46  0  0  0  0  0  0  0  0  1 V2000
  144.4702  143.6501  162.2028 C   0  0  0  0  0  0  0  0  0  0  0  0
  145.7894  143.9446  160.9578 S   0  0  0  0  0  0  0  0  0  0  0  0
  146.1782  145.3616  161.0198 O   0  0  0  0  0  0  0  0  0  0  0  0
  146.8099  142.8932  161.0835 O   0  0  0  0  0  0  0  0  0  0  0  0
  144.9566  143.6808  159.4683 N   0  0  0  0  0  0  0  0  0  0  0  0
  145.4259  142.6222  158.5725 C   0  0  0  0  0  0  0  0  0  0  0  0
  146.6462  143.0883  157.7564 C   0  0  0  0  0  0  0  0  0  0  0  0
  147.6607  141.9677  157.5108 C   0  0  0  0  0  0  0  0  0  0  0  0
  147.4921  140.8547  158.0091 O   0  0  0  0  0  0  0  0  0  0  0  0
  148.7044  142.2755  156.7249 N   0  0  0  0  0  0  0  0  0  0  0  0
  149.7591  141.3561  156.3069 C   0  0  0  0  0  0  0  0  0  0  0  0
  150.9421  141.3533  157.2669 C   0  0  0  0  0  0  0  0  0  0  0  0
  151.1922  142.4922  158.0624 C   0  0  0  0  0  0  0  0  0  0  0  0
  152.2928  142.4919  158.9384 C   0  0  0  0  0  0  0  0  0  0  0  0
  153.1066  141.3456  158.9856 C   0  0  0  0  0  0  0  0  0  0  0  0
  152.8810  140.2485  158.2338 N   0  0  0  0  0  0  0  0  0  0  0  0
  151.8217  140.2449  157.3880 C   0  0  0  0  0  0  0  0  0  0  0  0
  151.6002  139.0785  156.6368 N   0  0  0  0  0  0  0  0  0  0  0  0
  151.7712  139.2088  155.1947 C   0  0  0  0  0  0  0  0  0  0  0  0
  151.3222  137.9130  154.4989 C   0  0  0  0  0  0  0  0  0  0  0  0
  152.0538  136.8119  155.0303 O   0  0  0  0  0  0  0  0  0  0  0  0
  151.8312  136.6434  156.4279 C   0  0  0  0  0  0  0  0  0  0  0  0
  152.2734  137.9088  157.1843 C   0  0  0  0  0  0  0  0  0  0  0  0
  144.8798  143.7867  163.2034 H   0  0  0  0  0  0  0  0  0  0  0  0
  144.0929  142.6329  162.1027 H   0  0  0  0  0  0  0  0  0  0  0  0
  143.6559  144.3571  162.0460 H   0  0  0  0  0  0  0  0  0  0  0  0
  143.9522  143.6005  159.6262 H   0  0  0  0  0  0  0  0  0  0  0  0
  145.6585  141.7301  159.1560 H   0  0  0  0  0  0  0  0  0  0  0  0
  144.6064  142.3588  157.9030 H   0  0  0  0  0  0  0  0  0  0  0  0
  146.3209  143.4688  156.7876 H   0  0  0  0  0  0  0  0  0  0  0  0
  147.1455  143.9144  158.2628 H   0  0  0  0  0  0  0  0  0  0  0  0
  148.7593  143.2173  156.3653 H   0  0  0  0  0  0  0  0  0  0  0  0
  149.3275  140.3564  156.2522 H   0  0  0  0  0  0  0  0  0  0  0  0
  150.1208  141.5782  155.3021 H   0  0  0  0  0  0  0  0  0  0  0  0
  150.5517  143.3599  158.0021 H   0  0  0  0  0  0  0  0  0  0  0  0
  152.5087  143.3501  159.5575 H   0  0  0  0  0  0  0  0  0  0  0  0
  153.9612  141.3078  159.6448 H   0  0  0  0  0  0  0  0  0  0  0  0
  151.1864  140.0536  154.8293 H   0  0  0  0  0  0  0  0  0  0  0  0
  152.8175  139.4095  154.9598 H   0  0  0  0  0  0  0  0  0  0  0  0
  150.2509  137.7507  154.6297 H   0  0  0  0  0  0  0  0  0  0  0  0
  151.5068  137.9782  153.4267 H   0  0  0  0  0  0  0  0  0  0  0  0
  150.7786  136.4261  156.6131 H   0  0  0  0  0  0  0  0  0  0  0  0
  152.3986  135.7805  156.7766 H   0  0  0  0  0  0  0  0  0  0  0  0
  153.3527  138.0391  157.0955 H   0  0  0  0  0  0  0  0  0  0  0  0
  152.0472  137.8076  158.2464 H   0  0  0  0  0  0  0  0  0  0  0  0
  1  2  1  0  0  0  0
  1 24  1  0  0  0  0
  1 25  1  0  0  0  0
  1 26  1  0  0  0  0
  2  3  2  0  0  0  0
  2  4  2  0  0  0  0
  2  5  1  0  0  0  0
  5  6  1  0  0  0  0
  5 27  1  0  0  0  0
  6  7  1  0  0  0  0
  6 28  1  0  0  0  0
  6 29  1  0  0  0  0
  7  8  1  0  0  0  0
  7 30  1  0  0  0  0
  7 31  1  0  0  0  0
  8  9  2  0  0  0  0
  8 10  1  0  0  0  0
 10 11  1  0  0  0  0
 10 32  1  0  0  0  0
 11 12  1  0  0  0  0
 11 33  1  0  0  0  0
 11 34  1  0  0  0  0
 12 17  1  0  0  0  0
 12 13  2  0  0  0  0
 13 14  1  0  0  0  0
 13 35  1  0  0  0  0
 14 15  2  0  0  0  0
 14 36  1  0  0  0  0
 15 16  1  0  0  0  0
 15 37  1  0  0  0  0
 16 17  2  0  0  0  0
 17 18  1  0  0  0  0
 18 23  1  0  0  0  0
 18 19  1  0  0  0  0
 19 20  1  0  0  0  0
 19 38  1  0  0  0  0
 19 39  1  0  0  0  0
 20 21  1  0  0  0  0
 20 40  1  0  0  0  0
 20 41  1  0  0  0  0
 21 22  1  0  0  0  0
 22 23  1  0  0  0  0
 22 42  1  0  0  0  0
 22 43  1  0  0  0  0
 23 44  1  0  0  0  0
 23 45  1  0  0  0  0
M  END
> <s_m_source_file>
AV-unprocessed.smi

> <i_m_source_file_index>
1421

> <i_lp_mmshare_version>
43012

> <i_f3d_flags>
0

> <s_epik_input>
W0NIM11TKD1PKSg9TylbTkhdW0NIMl1bQ0gyXUMoPU8pW05IXVtDSDJdYzFbY0hdW2NIXVtjSF1uYzFOMltDSDJdW0NIMl1PW0NIMl1bQ0gyXTI=

> <s_epik_cmdline>
J2VwaWtfcHl0aG9uJywgJy1waCcsICc3LjAnLCAnLXRuJywgJzgnLCAnLW1hJywgJzIwMCcsICctbWV0YWxfYmluZGluZycsICctaW1hZScsICc8aW5maWxlLm1hZT4nLCAnLW9tYWUnLCAnPG91dGZpbGUubWFlPic=

> <r_lp_tautomer_probability>
1

> <r_epik_Ionization_Penalty>
0.00479902

> <r_epik_Ionization_Penalty_Charging>
0

> <r_epik_Ionization_Penalty_Neutral>
0.00479902

> <r_epik_State_Penalty>
0.00346804

> <r_epik_Charging_Adjusted_Penalty>
0.00346804

> <i_epik_Tot_Q>
0

> <i_epik_Tot_abs_Q>
0

> <r_epik_Metal_State_Penalty>
0.0135183

> <b_epik_Metal_Only>
0

> <s_lp_Force_Field>
OPLS_2005

> <r_lp_Energy>
16.2215

> <b_lp_Chiralities_Consistent>
1

> <s_lp_Variant>
AV-unprocessed.smi:1421-1

> <Gold.Version>
5.8.1

> <Gold.Id.Protein>
6NUR|6NUR_protein|mol2

> <Gold.PLP.Fitness>
45.8078

> <Gold.PLP.PLP>
-34.4617

> <Gold.PLP.part.hbond>
-5.6646

> <Gold.PLP.part.metal>
0.0000

> <Gold.PLP.part.buried>
-3.9787

> <Gold.PLP.part.nonpolar>
-24.8016

> <Gold.PLP.part.repulsive>
0.2682

> <Gold.PLP.ligand.clash>
0.0000

> <Gold.PLP.ligand.torsion>
1.2229

> <Gold.PLP.Chemscore.Hbond>
4.4840

> <Gold.PLP.Chemscore.CHOScore>
0.0000

> <Gold.PLP.Chemscore.Metal>
0.0000

> <Gold.Chemscore.Hbonds>
donor molecule, donor type, donor heavy atom, donor atom, acceptor molecule, acceptor atom, score
      L1  H    10    32       P1  8028  1.00
      P1  H  6933  6944       L1     4  0.91
      P1  H  6934  6946       L1     4  0.69
      P1  H  7997  8008       L1    16  0.81
      P1  H 10752 10764       L1    21  1.00

> <Gold.PLP.Chemscore.Internal.Correction>
0.3401

> <Gold.Rescore>
     Score         DG    S(hbond)    S(metal)    S(lipo)     H(rot)  DE(clash)    DE(int)     intcor
     17.50     -19.14       3.67        0.00      75.52       2.90       0.18       1.46       ----

> <Gold.Chemscore.Fitness>
17.5023

> <Gold.Chemscore.DG>
-19.1380

> <Gold.Chemscore.ZeroCoef>
-5.4800

> <Gold.Chemscore.Hbond>
3.6678

> <Gold.Chemscore.Metal>
0.0000

> <Gold.Chemscore.Lipo>
75.5165

> <Gold.Chemscore.Internal_Hbond>
0.0000

> <Gold.Chemscore.DEClash>
0.1768

> <Gold.Chemscore.DEInternal>
1.4589

> <Gold.Chemscore.Rot>
2.9015

> <Gold.Chemscore.Internal.Correction>
   9.000000E+99

> <Gold.Chemscore.Hbonds>
donor molecule, donor type, donor heavy atom, donor atom, acceptor molecule, acceptor atom, score
      L1  H    10    32       P1  8028  0.96
      P1  H  6933  6944       L1     4  0.90
      P1  H  6934  6946       L1     4  0.66
      P1  H  7997  8008       L1    16  0.19
      P1  H 10752 10764       L1    21  0.64

> <Gold.Chemscore.Hbond.Weighted>
-12.2504

> <Gold.Chemscore.Metal.Weighted>
-0.0000

> <Gold.Chemscore.Lipo.Weighted>
-8.8354

> <Gold.Chemscore.Internal_Hbond.Weighted>
0.0000

> <Gold.Chemscore.DEClash.Weighted>
0.1768

> <Gold.Chemscore.DEInternal.Weighted>
1.4589

> <Gold.Chemscore.Rot.Weighted>
7.4278

> <Gold.Chemscore.Internal.Correction.Weighted>
   9.000000E+99

> <Gold.Protein.RotatedTorsions>
[ 6907 6896 6895 6894 ] final  -39.69 input  -60.11 | X-H torsion
[ 7974 7965 7964 7962 ] final   12.03 input  175.53 | X-H torsion
[ 8008 7997 7996 7995 ] final  -80.87 input   59.86 | X-H torsion
[ 10167 10162 10161 10158 ] final   33.51 input  -65.29 | X-H torsion
[ 10718 10713 10712 10709 ] final  -36.92 input   66.30 | X-H torsion
[ 10763 10752 10751 10750 ] final  -64.31 input  -60.55 | X-H torsion
[ 11005 11000 10999 10996 ] final   94.29 input  -57.11 | X-H torsion

> <Gold.Protein.ActiveResidues>
 VAL166  LYS551  ARG553  GLY616  TRP617  ASP618  TYR619  PRO620  LYS621  CYS622 
 ASP623  PHE694  ASN695  SER759  ASP760  ASP761  ALA762  ILE779  LEU786  VAL792 
 PHE793  MET794  SER795  GLU796  ALA797  LYS798  CYS799  TRP800  GLU811  SER814 

> <Gold.Protein.RotatedAtoms>
  150.9873  134.9216  159.7878 H   0  0  0  0  0  0  0  0  0  0  0  0  # atno 6907 bound_to 6896
  152.5240  134.3329  159.9199 H   0  0  0  0  0  0  0  0  0  0  0  0  # atno 6908 bound_to 6896
  151.3335  133.3950  159.2699 H   0  0  0  0  0  0  0  0  0  0  0  0  # atno 6909 bound_to 6896
  146.2359  139.9398  142.8485 H   0  0  0  0  0  0  0  0  0  0  0  0  # atno 7974 bound_to 7965
  154.5926  140.0656  156.9259 H   0  0  0  0  0  0  0  0  0  0  0  0  # atno 8008 bound_to 7997
  155.2269  140.3334  155.4290 H   0  0  0  0  0  0  0  0  0  0  0  0  # atno 8009 bound_to 7997
  156.2266  140.1822  156.7332 H   0  0  0  0  0  0  0  0  0  0  0  0  # atno 8010 bound_to 7997
  140.4400  144.1201  150.6172 H   0  0  0  0  0  0  0  0  0  0  0  0  # atno 10167 bound_to 10162
  156.3212  130.4266  149.7958 H   0  0  0  0  0  0  0  0  0  0  0  0  # atno 10718 bound_to 10713
  154.3281  135.6182  153.5539 H   0  0  0  0  0  0  0  0  0  0  0  0  # atno 10763 bound_to 10752
  152.9814  135.5740  154.4993 H   0  0  0  0  0  0  0  0  0  0  0  0  # atno 10764 bound_to 10752
  154.4674  135.2858  155.1645 H   0  0  0  0  0  0  0  0  0  0  0  0  # atno 10765 bound_to 10752
  139.8800  134.8837  156.3843 H   0  0  0  0  0  0  0  0  0  0  0  0  # atno 11005 bound_to 11000
  145.1964  140.9835  143.4181 LP  0  0  0  0  0  0  0  0  0  0  0  0  # atno 17320 bound_to 7965
  144.9812  139.3781  143.6261 LP  0  0  0  0  0  0  0  0  0  0  0  0  # atno 17321 bound_to 7965
  140.4329  143.2560  151.9572 LP  0  0  0  0  0  0  0  0  0  0  0  0  # atno 17342 bound_to 10162
  139.4789  144.5727  151.8062 LP  0  0  0  0  0  0  0  0  0  0  0  0  # atno 17343 bound_to 10162
  156.5265  130.8238  151.3222 LP  0  0  0  0  0  0  0  0  0  0  0  0  # atno 17370 bound_to 10713
  157.7412  130.9865  150.2430 LP  0  0  0  0  0  0  0  0  0  0  0  0  # atno 17371 bound_to 10713
  140.9377  133.7536  156.0106 LP  0  0  0  0  0  0  0  0  0  0  0  0  # atno 17394 bound_to 11000
  140.8256  134.3238  157.5367 LP  0  0  0  0  0  0  0  0  0  0  0  0  # atno 17395 bound_to 11000

$$$$
