AV-unprocessed.smi:774|AV-procd|sdf|3692|dock5
  -GOLD-   22720 1113D 1   1.00000     0.00000
 Structure written by MMmdl.
 37 38  0  0  0  0  0  0  0  0  1 V2000
  148.1845  138.8701  157.3837 C   0  0  0  0  0  0  0  0  0  0  0  0
  146.8283  138.7039  156.6931 C   0  0  0  0  0  0  0  0  0  0  0  0
  146.9875  137.8113  155.1223 S   0  0  0  0  0  0  0  0  0  0  0  0
  147.6836  139.1205  154.0729 C   0  0  1  0  0  0  0  0  0  0  0  0
  146.7986  140.3639  154.0265 C   0  0  0  0  0  0  0  0  0  0  0  0
  147.7383  141.4723  153.5518 C   0  0  0  0  0  0  0  0  0  0  0  0
  149.1287  141.1079  154.1022 C   0  0  1  0  0  0  0  0  0  0  0  0
  149.4933  141.9876  155.2113 N   0  0  0  0  0  0  0  0  0  0  0  0
  150.4815  141.7726  156.0915 C   0  0  0  0  0  0  0  0  0  0  0  0
  151.2200  140.7898  156.0563 O   0  0  0  0  0  0  0  0  0  0  0  0
  150.5428  142.7678  156.9936 N   0  0  0  0  0  0  0  0  0  0  0  0
  151.3983  142.9220  158.1203 C   0  0  0  0  0  0  0  0  0  0  0  0
  152.0158  141.7597  158.6279 C   0  0  0  0  0  0  0  0  0  0  0  0
  152.8755  141.8634  159.7376 C   0  0  0  0  0  0  0  0  0  0  0  0
  153.0871  143.1352  160.3026 C   0  0  0  0  0  0  0  0  0  0  0  0
  152.5052  144.2583  159.8331 N   0  0  0  0  0  0  0  0  0  0  0  0
  151.6813  144.1518  158.7679 C   0  0  0  0  0  0  0  0  0  0  0  0
  149.0336  139.6444  154.5752 C   0  0  0  0  0  0  0  0  0  0  0  0
  148.0782  139.4114  158.3239 H   0  0  0  0  0  0  0  0  0  0  0  0
  148.8802  139.4275  156.7560 H   0  0  0  0  0  0  0  0  0  0  0  0
  148.6334  137.9016  157.6059 H   0  0  0  0  0  0  0  0  0  0  0  0
  146.1443  138.1608  157.3455 H   0  0  0  0  0  0  0  0  0  0  0  0
  146.3848  139.6811  156.5014 H   0  0  0  0  0  0  0  0  0  0  0  0
  147.8002  138.7359  153.0587 H   0  0  0  0  0  0  0  0  0  0  0  0
  145.9337  140.2404  153.3742 H   0  0  0  0  0  0  0  0  0  0  0  0
  146.4320  140.6011  155.0263 H   0  0  0  0  0  0  0  0  0  0  0  0
  147.7727  141.4697  152.4615 H   0  0  0  0  0  0  0  0  0  0  0  0
  147.3954  142.4616  153.8579 H   0  0  0  0  0  0  0  0  0  0  0  0
  149.8580  141.1767  153.2930 H   0  0  0  0  0  0  0  0  0  0  0  0
  148.9422  142.8268  155.3175 H   0  0  0  0  0  0  0  0  0  0  0  0
  149.8695  143.5092  156.8678 H   0  0  0  0  0  0  0  0  0  0  0  0
  151.8365  140.7965  158.1726 H   0  0  0  0  0  0  0  0  0  0  0  0
  153.3616  140.9893  160.1449 H   0  0  0  0  0  0  0  0  0  0  0  0
  153.7417  143.2538  161.1534 H   0  0  0  0  0  0  0  0  0  0  0  0
  151.2562  145.0890  158.4487 H   0  0  0  0  0  0  0  0  0  0  0  0
  149.0646  139.5921  155.6650 H   0  0  0  0  0  0  0  0  0  0  0  0
  149.8643  139.0438  154.2033 H   0  0  0  0  0  0  0  0  0  0  0  0
  1  2  1  0  0  0  0
  1 19  1  0  0  0  0
  1 20  1  0  0  0  0
  1 21  1  0  0  0  0
  2  3  1  0  0  0  0
  2 22  1  0  0  0  0
  2 23  1  0  0  0  0
  3  4  1  0  0  0  0
  4 18  1  0  0  0  0
  4  5  1  0  0  0  0
  4 24  1  0  0  0  0
  5  6  1  0  0  0  0
  5 25  1  0  0  0  0
  5 26  1  0  0  0  0
  6  7  1  0  0  0  0
  6 27  1  0  0  0  0
  6 28  1  0  0  0  0
  7  8  1  0  0  0  0
  7 18  1  0  0  0  0
  7 29  1  0  0  0  0
  8  9  1  0  0  0  0
  8 30  1  0  0  0  0
  9 10  2  0  0  0  0
  9 11  1  0  0  0  0
 11 12  1  0  0  0  0
 11 31  1  0  0  0  0
 12 17  1  0  0  0  0
 12 13  2  0  0  0  0
 13 14  1  0  0  0  0
 13 32  1  0  0  0  0
 14 15  2  0  0  0  0
 14 33  1  0  0  0  0
 15 16  1  0  0  0  0
 15 34  1  0  0  0  0
 16 17  2  0  0  0  0
 17 35  1  0  0  0  0
 18 36  1  0  0  0  0
 18 37  1  0  0  0  0
M  END
> <s_m_source_file>
AV-unprocessed.smi

> <i_m_source_file_index>
774

> <i_lp_mmshare_version>
43012

> <i_f3d_flags>
0

> <s_epik_input>
W0NIM11bQ0gyXVNbQ0BASF0xW0NIMl1bQ0gyXVtDQEhdKFtDSDJdMSlbTkhdQyg9TylbTkhdYzJbY0hdW2NIXVtjSF1uW2NIXTI=

> <s_epik_cmdline>
J2VwaWtfcHl0aG9uJywgJy1waCcsICc3LjAnLCAnLXRuJywgJzgnLCAnLW1hJywgJzIwMCcsICctbWV0YWxfYmluZGluZycsICctaW1hZScsICc8aW5maWxlLm1hZT4nLCAnLW9tYWUnLCAnPG91dGZpbGUubWFlPic=

> <r_epik_Ionization_Penalty>
0.00485718

> <r_epik_Ionization_Penalty_Charging>
0

> <r_epik_Ionization_Penalty_Neutral>
0.00485718

> <r_epik_State_Penalty>
0.00349461

> <r_epik_Charging_Adjusted_Penalty>
0.00349461

> <i_epik_Tot_Q>
0

> <i_epik_Tot_abs_Q>
0

> <r_epik_Metal_State_Penalty>
-0

> <b_epik_Metal_Only>
0

> <s_lp_Force_Field>
OPLS_2005

> <r_lp_Energy>
20.4228

> <b_lp_Chiralities_Consistent>
1

> <s_lp_Variant>
AV-unprocessed.smi:774-2

> <Gold.Version>
5.8.1

> <Gold.Id.Protein>
6NUR|6NUR_protein|mol2

> <Gold.PLP.Fitness>
37.9861

> <Gold.PLP.PLP>
-32.6555

> <Gold.PLP.part.hbond>
-2.0000

> <Gold.PLP.part.metal>
0.0000

> <Gold.PLP.part.buried>
-3.8775

> <Gold.PLP.part.nonpolar>
-26.2282

> <Gold.PLP.part.repulsive>
0.2575

> <Gold.PLP.ligand.clash>
0.0000

> <Gold.PLP.ligand.torsion>
0.3255

> <Gold.PLP.Chemscore.Hbond>
1.9920

> <Gold.PLP.Chemscore.CHOScore>
0.0000

> <Gold.PLP.Chemscore.Metal>
0.0000

> <Gold.Chemscore.Hbonds>
donor molecule, donor type, donor heavy atom, donor atom, acceptor molecule, acceptor atom, score
      L1  H     8    30       P1  8028  0.98
      L1  H    11    31       P1  8028  0.99

> <Gold.PLP.Chemscore.Internal.Correction>
0.0054

> <Gold.Rescore>
     Score         DG    S(hbond)    S(metal)    S(lipo)     H(rot)  DE(clash)    DE(int)     intcor
     15.76     -18.64       1.83        0.00      88.81       1.30       0.09       2.79       ----

> <Gold.Chemscore.Fitness>
15.7573

> <Gold.Chemscore.DG>
-18.6429

> <Gold.Chemscore.ZeroCoef>
-5.4800

> <Gold.Chemscore.Hbond>
1.8294

> <Gold.Chemscore.Metal>
0.0000

> <Gold.Chemscore.Lipo>
88.8141

> <Gold.Chemscore.Internal_Hbond>
0.0000

> <Gold.Chemscore.DEClash>
0.0949

> <Gold.Chemscore.DEInternal>
2.7908

> <Gold.Chemscore.Rot>
1.3041

> <Gold.Chemscore.Internal.Correction>
   9.000000E+99

> <Gold.Chemscore.Hbonds>
donor molecule, donor type, donor heavy atom, donor atom, acceptor molecule, acceptor atom, score
      L1  H     8    30       P1  8028  0.93
      L1  H    11    31       P1  8028  0.93

> <Gold.Chemscore.Hbond.Weighted>
-6.1101

> <Gold.Chemscore.Metal.Weighted>
-0.0000

> <Gold.Chemscore.Lipo.Weighted>
-10.3913

> <Gold.Chemscore.Internal_Hbond.Weighted>
0.0000

> <Gold.Chemscore.DEClash.Weighted>
0.0949

> <Gold.Chemscore.DEInternal.Weighted>
2.7908

> <Gold.Chemscore.Rot.Weighted>
3.3384

> <Gold.Chemscore.Internal.Correction.Weighted>
   9.000000E+99

> <Gold.Protein.RotatedTorsions>
[ 6907 6896 6895 6894 ] final -161.50 input  -60.11 | X-H torsion
[ 7974 7965 7964 7962 ] final  -30.73 input  175.53 | X-H torsion
[ 8008 7997 7996 7995 ] final -162.68 input   59.86 | X-H torsion
[ 10167 10162 10161 10158 ] final -152.01 input  -65.29 | X-H torsion
[ 10718 10713 10712 10709 ] final  175.56 input   66.30 | X-H torsion
[ 10763 10752 10751 10750 ] final   17.15 input  -60.55 | X-H torsion
[ 11005 11000 10999 10996 ] final -163.90 input  -57.11 | X-H torsion

> <Gold.Protein.ActiveResidues>
 VAL166  LYS551  ARG553  GLY616  TRP617  ASP618  TYR619  PRO620  LYS621  CYS622 
 ASP623  PHE694  ASN695  SER759  ASP760  ASP761  ALA762  ILE779  LEU786  VAL792 
 PHE793  MET794  SER795  GLU796  ALA797  LYS798  CYS799  TRP800  GLU811  SER814 

> <Gold.Protein.RotatedAtoms>
  151.3657  133.3873  159.2694 H   0  0  0  0  0  0  0  0  0  0  0  0  # atno 6907 bound_to 6896
  150.9691  134.9067  159.7787 H   0  0  0  0  0  0  0  0  0  0  0  0  # atno 6908 bound_to 6896
  152.5178  134.3618  159.9339 H   0  0  0  0  0  0  0  0  0  0  0  0  # atno 6909 bound_to 6896
  146.1121  140.5577  142.8773 H   0  0  0  0  0  0  0  0  0  0  0  0  # atno 7974 bound_to 7965
  155.8103  140.0904  157.1908 H   0  0  0  0  0  0  0  0  0  0  0  0  # atno 8008 bound_to 7997
  154.3980  140.1456  156.3438 H   0  0  0  0  0  0  0  0  0  0  0  0  # atno 8009 bound_to 7997
  155.8372  140.3440  155.5612 H   0  0  0  0  0  0  0  0  0  0  0  0  # atno 8010 bound_to 7997
  139.7218  143.8945  152.2506 H   0  0  0  0  0  0  0  0  0  0  0  0  # atno 10167 bound_to 10162
  156.9330  130.9977  151.2983 H   0  0  0  0  0  0  0  0  0  0  0  0  # atno 10718 bound_to 10713
  153.1365  135.6751  153.9095 H   0  0  0  0  0  0  0  0  0  0  0  0  # atno 10763 bound_to 10752
  153.8565  135.3086  155.3437 H   0  0  0  0  0  0  0  0  0  0  0  0  # atno 10764 bound_to 10752
  154.7751  135.4918  153.9811 H   0  0  0  0  0  0  0  0  0  0  0  0  # atno 10765 bound_to 10752
  140.5929  134.5026  157.5195 H   0  0  0  0  0  0  0  0  0  0  0  0  # atno 11005 bound_to 11000
  144.7520  140.5215  143.6795 LP  0  0  0  0  0  0  0  0  0  0  0  0  # atno 17320 bound_to 7965
  145.5642  139.1480  143.3324 LP  0  0  0  0  0  0  0  0  0  0  0  0  # atno 17321 bound_to 7965
  139.8843  144.7001  150.8842 LP  0  0  0  0  0  0  0  0  0  0  0  0  # atno 17342 bound_to 10162
  140.7755  143.3636  151.1781 LP  0  0  0  0  0  0  0  0  0  0  0  0  # atno 17343 bound_to 10162
  157.5834  130.8393  149.8555 LP  0  0  0  0  0  0  0  0  0  0  0  0  # atno 17370 bound_to 10713
  156.0438  130.3732  150.1367 LP  0  0  0  0  0  0  0  0  0  0  0  0  # atno 17371 bound_to 10713
  139.9266  134.8044  156.1051 LP  0  0  0  0  0  0  0  0  0  0  0  0  # atno 17394 bound_to 11000
  141.0923  133.6709  156.2567 LP  0  0  0  0  0  0  0  0  0  0  0  0  # atno 17395 bound_to 11000

$$$$
