AV-unprocessed.smi:1813|AV-procd|sdf|7343|dock9
  -GOLD-   22720 9 03D 1   1.00000     0.00000
 Structure written by MMmdl.
 38 39  0  0  0  0  0  0  0  0  2 V2000
  148.2130  127.5365  151.4038 C   0  0  0  0  0  0  0  0  0  0  0  0
  147.6550  128.8379  151.7358 N   0  0  0  0  0  0  0  0  0  0  0  0
  146.9242  129.0900  152.8315 C   0  0  0  0  0  0  0  0  0  0  0  0
  146.6438  128.2340  153.6701 O   0  0  0  0  0  0  0  0  0  0  0  0
  146.4251  130.5291  153.0063 C   0  0  0  0  0  0  0  0  0  0  0  0
  147.4784  131.5131  153.3475 N   0  0  0  0  0  0  0  0  0  0  0  0
  148.1772  131.1790  154.5979 C   0  0  0  0  0  0  0  0  0  0  0  0
  149.3068  132.1873  154.8727 C   0  0  0  0  0  0  0  0  0  0  0  0
  148.7668  133.6220  154.9482 C   0  0  0  0  0  0  0  0  0  0  0  0
  149.8741  134.5624  155.0967 N   0  0  0  0  0  0  0  0  0  0  0  0
  150.5872  134.7720  156.2128 C   0  0  0  0  0  0  0  0  0  0  0  0
  150.3245  134.1411  157.2396 O   0  0  0  0  0  0  0  0  0  0  0  0
  151.5605  135.7001  156.0693 N   0  5  0  0  0  0  0  0  0  0  0  0
  151.2700  136.9042  155.5504 C   0  0  0  0  0  0  0  0  0  0  0  0
  152.2072  137.7718  155.1514 N   0  0  0  0  0  0  0  0  0  0  0  0
  151.6826  138.9644  154.6501 C   0  0  0  0  0  0  0  0  0  0  0  0
  150.3140  139.0103  154.6772 C   0  0  0  0  0  0  0  0  0  0  0  0
  149.6393  137.5473  155.3361 S   0  0  0  0  0  0  0  0  0  0  0  0
  147.9602  133.9168  153.6733 C   0  0  0  0  0  0  0  0  0  0  0  0
  146.8780  132.8479  153.4444 C   0  0  0  0  0  0  0  0  0  0  0  0
  148.7626  127.5966  150.4646 H   0  0  0  0  0  0  0  0  0  0  0  0
  147.4234  126.7925  151.2905 H   0  0  0  0  0  0  0  0  0  0  0  0
  148.9009  127.1997  152.1805 H   0  0  0  0  0  0  0  0  0  0  0  0
  147.8438  129.6006  151.1012 H   0  0  0  0  0  0  0  0  0  0  0  0
  145.9458  130.8192  152.0702 H   0  0  0  0  0  0  0  0  0  0  0  0
  145.6460  130.5446  153.7707 H   0  0  0  0  0  0  0  0  0  0  0  0
  147.4719  131.1643  155.4308 H   0  0  0  0  0  0  0  0  0  0  0  0
  148.6206  130.1849  154.5436 H   0  0  0  0  0  0  0  0  0  0  0  0
  149.8112  131.9300  155.8049 H   0  0  0  0  0  0  0  0  0  0  0  0
  150.0578  132.1121  154.0844 H   0  0  0  0  0  0  0  0  0  0  0  0
  148.1092  133.6965  155.8164 H   0  0  0  0  0  0  0  0  0  0  0  0
  150.1239  135.1036  154.2821 H   0  0  0  0  0  0  0  0  0  0  0  0
  152.3586  139.7285  154.2963 H   0  0  0  0  0  0  0  0  0  0  0  0
  149.6651  139.8096  154.3531 H   0  0  0  0  0  0  0  0  0  0  0  0
  147.4940  134.9004  153.7420 H   0  0  0  0  0  0  0  0  0  0  0  0
  148.6262  133.9509  152.8097 H   0  0  0  0  0  0  0  0  0  0  0  0
  146.3447  133.0813  152.5218 H   0  0  0  0  0  0  0  0  0  0  0  0
  146.1431  132.8769  154.2511 H   0  0  0  0  0  0  0  0  0  0  0  0
  1  2  1  0  0  0  0
  1 21  1  0  0  0  0
  1 22  1  0  0  0  0
  1 23  1  0  0  0  0
  2  3  1  0  0  0  0
  2 24  1  0  0  0  0
  3  4  2  0  0  0  0
  3  5  1  0  0  0  0
  5  6  1  0  0  0  0
  5 25  1  0  0  0  0
  5 26  1  0  0  0  0
  6 20  1  0  0  0  0
  6  7  1  0  0  0  0
  7  8  1  0  0  0  0
  7 27  1  0  0  0  0
  7 28  1  0  0  0  0
  8  9  1  0  0  0  0
  8 29  1  0  0  0  0
  8 30  1  0  0  0  0
  9 10  1  0  0  0  0
  9 19  1  0  0  0  0
  9 31  1  0  0  0  0
 10 11  1  0  0  0  0
 10 32  1  0  0  0  0
 11 12  2  0  0  0  0
 11 13  1  0  0  0  0
 13 14  1  0  0  0  0
 14 18  1  0  0  0  0
 14 15  2  0  0  0  0
 15 16  1  0  0  0  0
 16 17  2  0  0  0  0
 16 33  1  0  0  0  0
 17 18  1  0  0  0  0
 17 34  1  0  0  0  0
 19 20  1  0  0  0  0
 19 35  1  0  0  0  0
 19 36  1  0  0  0  0
 20 37  1  0  0  0  0
 20 38  1  0  0  0  0
M  CHG  1  13  -1
M  END
> <s_m_source_file>
AV-unprocessed.smi

> <i_m_source_file_index>
1813

> <i_lp_mmshare_version>
43012

> <i_f3d_flags>
0

> <s_epik_input>
W0NIM11bTkhdQyg9TylbQ0gyXU4xW0NIMl1bQ0gyXVtDSF0oW0NIMl1bQ0gyXTEpW05IXUMoPU8pW05IXWMybltjSF1bY0hdczI=

> <s_epik_cmdline>
J2VwaWtfcHl0aG9uJywgJy1waCcsICc3LjAnLCAnLXRuJywgJzgnLCAnLW1hJywgJzIwMCcsICctbWV0YWxfYmluZGluZycsICctaW1hZScsICc8aW5maWxlLm1hZT4nLCAnLW9tYWUnLCAnPG91dGZpbGUubWFlPic=

> <r_lp_tautomer_probability>
0.999

> <r_epik_Ionization_Penalty>
7.12803

> <r_epik_Ionization_Penalty_Charging>
5.8513

> <r_epik_Ionization_Penalty_Neutral>
1.27674

> <r_epik_State_Penalty>
5.99796

> <r_epik_Charging_Adjusted_Penalty>
11.8493

> <i_epik_Tot_Q>
-1

> <i_epik_Tot_abs_Q>
1

> <r_epik_Metal_State_Penalty>
1.97283

> <b_epik_Metal_Only>
1

> <s_lp_Force_Field>
OPLS_2005

> <r_lp_Energy>
7.89498

> <b_lp_Chiralities_Consistent>
1

> <s_lp_Variant>
AV-unprocessed.smi:1813-4

> <Gold.Version>
5.8.1

> <Gold.Id.Protein>
6NUR|6NUR_protein|mol2

> <Gold.PLP.Fitness>
39.6577

> <Gold.PLP.PLP>
-30.3016

> <Gold.PLP.part.hbond>
-3.6795

> <Gold.PLP.part.metal>
0.0000

> <Gold.PLP.part.buried>
-3.1792

> <Gold.PLP.part.nonpolar>
-23.4087

> <Gold.PLP.part.repulsive>
0.3457

> <Gold.PLP.ligand.clash>
0.0000

> <Gold.PLP.ligand.torsion>
0.7928

> <Gold.PLP.Chemscore.Hbond>
3.6435

> <Gold.PLP.Chemscore.CHOScore>
0.0000

> <Gold.PLP.Chemscore.Metal>
0.0000

> <Gold.Chemscore.Hbonds>
donor molecule, donor type, donor heavy atom, donor atom, acceptor molecule, acceptor atom, score
      L1  H     2    24       P1 10747  1.00
      P1  H  6896  6907       L1    12  0.64
      P1  H 10752 10763       L1    13  1.85

> <Gold.PLP.Chemscore.Internal.Correction>
0.0112

> <Gold.Rescore>
     Score         DG    S(hbond)    S(metal)    S(lipo)     H(rot)  DE(clash)    DE(int)     intcor
     12.88     -13.96       1.95        0.00      54.85       1.73       0.28       0.80       ----

> <Gold.Chemscore.Fitness>
12.8829

> <Gold.Chemscore.DG>
-13.9608

> <Gold.Chemscore.ZeroCoef>
-5.4800

> <Gold.Chemscore.Hbond>
1.9470

> <Gold.Chemscore.Metal>
0.0000

> <Gold.Chemscore.Lipo>
54.8474

> <Gold.Chemscore.Internal_Hbond>
0.0000

> <Gold.Chemscore.DEClash>
0.2826

> <Gold.Chemscore.DEInternal>
0.7953

> <Gold.Chemscore.Rot>
1.7341

> <Gold.Chemscore.Internal.Correction>
   9.000000E+99

> <Gold.Chemscore.Hbonds>
donor molecule, donor type, donor heavy atom, donor atom, acceptor molecule, acceptor atom, score
      L1  H     2    24       P1 10747  0.87
      P1  H  6896  6907       L1    12  0.61
      P1  H 10752 10763       L1    13  0.20

> <Gold.Chemscore.Hbond.Weighted>
-6.5029

> <Gold.Chemscore.Metal.Weighted>
-0.0000

> <Gold.Chemscore.Lipo.Weighted>
-6.4171

> <Gold.Chemscore.Internal_Hbond.Weighted>
0.0000

> <Gold.Chemscore.DEClash.Weighted>
0.2826

> <Gold.Chemscore.DEInternal.Weighted>
0.7953

> <Gold.Chemscore.Rot.Weighted>
4.4392

> <Gold.Chemscore.Internal.Correction.Weighted>
   9.000000E+99

> <Gold.Protein.RotatedTorsions>
[ 6907 6896 6895 6894 ] final -123.97 input  -60.11 | X-H torsion
[ 7974 7965 7964 7962 ] final  -31.26 input  175.53 | X-H torsion
[ 8008 7997 7996 7995 ] final   -9.91 input   59.86 | X-H torsion
[ 10167 10162 10161 10158 ] final -149.38 input  -65.29 | X-H torsion
[ 10718 10713 10712 10709 ] final   48.98 input   66.30 | X-H torsion
[ 10763 10752 10751 10750 ] final  104.48 input  -60.55 | X-H torsion
[ 11005 11000 10999 10996 ] final -128.91 input  -57.11 | X-H torsion

> <Gold.Protein.ActiveResidues>
 VAL166  LYS551  ARG553  GLY616  TRP617  ASP618  TYR619  PRO620  LYS621  CYS622 
 ASP623  PHE694  ASN695  SER759  ASP760  ASP761  ALA762  ILE779  LEU786  VAL792 
 PHE793  MET794  SER795  GLU796  ALA797  LYS798  CYS799  TRP800  GLU811  SER814 

> <Gold.Protein.RotatedAtoms>
  150.8722  133.7489  159.2957 H   0  0  0  0  0  0  0  0  0  0  0  0  # atno 6907 bound_to 6896
  151.5097  135.1063  159.9860 H   0  0  0  0  0  0  0  0  0  0  0  0  # atno 6908 bound_to 6896
  152.4703  133.7970  159.6988 H   0  0  0  0  0  0  0  0  0  0  0  0  # atno 6909 bound_to 6896
  146.1080  140.5645  142.8790 H   0  0  0  0  0  0  0  0  0  0  0  0  # atno 7974 bound_to 7965
  154.5603  140.2342  155.8346 H   0  0  0  0  0  0  0  0  0  0  0  0  # atno 8008 bound_to 7997
  156.2023  140.3049  155.9513 H   0  0  0  0  0  0  0  0  0  0  0  0  # atno 8009 bound_to 7997
  155.2902  140.0426  157.3013 H   0  0  0  0  0  0  0  0  0  0  0  0  # atno 8010 bound_to 7997
  139.7448  143.8608  152.2572 H   0  0  0  0  0  0  0  0  0  0  0  0  # atno 10167 bound_to 10162
  157.4741  130.8273  149.8020 H   0  0  0  0  0  0  0  0  0  0  0  0  # atno 10718 bound_to 10713
  153.3665  135.3942  155.1757 H   0  0  0  0  0  0  0  0  0  0  0  0  # atno 10763 bound_to 10752
  154.8687  135.3692  154.5032 H   0  0  0  0  0  0  0  0  0  0  0  0  # atno 10764 bound_to 10752
  153.5496  135.7083  153.5658 H   0  0  0  0  0  0  0  0  0  0  0  0  # atno 10765 bound_to 10752
  140.9476  134.1109  157.4093 H   0  0  0  0  0  0  0  0  0  0  0  0  # atno 11005 bound_to 11000
  144.7487  140.5136  143.6817 LP  0  0  0  0  0  0  0  0  0  0  0  0  # atno 17320 bound_to 7965
  145.5720  139.1484  143.3283 LP  0  0  0  0  0  0  0  0  0  0  0  0  # atno 17321 bound_to 7965
  139.8569  144.7137  150.9147 LP  0  0  0  0  0  0  0  0  0  0  0  0  # atno 17342 bound_to 10162
  140.7790  143.3851  151.1408 LP  0  0  0  0  0  0  0  0  0  0  0  0  # atno 17343 bound_to 10162
  156.0088  130.3843  150.2337 LP  0  0  0  0  0  0  0  0  0  0  0  0  # atno 17370 bound_to 10713
  157.0521  131.0065  151.3250 LP  0  0  0  0  0  0  0  0  0  0  0  0  # atno 17371 bound_to 10713
  139.8838  135.0056  156.6324 LP  0  0  0  0  0  0  0  0  0  0  0  0  # atno 17394 bound_to 11000
  140.7648  133.8788  155.8445 LP  0  0  0  0  0  0  0  0  0  0  0  0  # atno 17395 bound_to 11000

$$$$
