AV-unprocessed.smi:1952|AV-procd|sdf|7890|dock1
  -GOLD-   2272010 43D 1   1.00000     0.00000
 Structure written by MMmdl.
 39 40  0  0  0  0  0  0  0  0  3 V2000
  146.9334  136.0393  162.9702 C   0  0  0  0  0  0  0  0  0  0  0  0
  147.5233  135.9170  161.6072 C   0  0  0  0  0  0  0  0  0  0  0  0
  147.9625  134.8499  160.8761 C   0  0  0  0  0  0  0  0  0  0  0  0
  148.4066  135.4472  159.6653 C   0  0  0  0  0  0  0  0  0  0  0  0
  148.9249  134.8001  158.6101 N   0  5  0  0  0  0  0  0  0  0  0  0
  148.8834  135.3633  157.3823 C   0  0  0  0  0  0  0  0  0  0  0  0
  148.8906  136.5707  157.1331 O   0  0  0  0  0  0  0  0  0  0  0  0
  148.7932  134.4714  156.3838 N   0  0  0  0  0  0  0  0  0  0  0  0
  148.6240  134.7651  154.9594 C   0  0  1  0  0  0  0  0  0  0  0  0
  149.3569  133.7005  154.1321 C   0  0  0  0  0  0  0  0  0  0  0  0
  147.1246  134.8355  154.5903 C   0  0  0  0  0  0  0  0  0  0  0  0
  146.8961  134.8265  153.1235 N   0  3  0  0  0  0  0  0  0  0  0  0
  146.7782  133.4660  152.5481 C   0  0  0  0  0  0  0  0  0  0  0  0
  146.6622  133.5535  151.0178 C   0  0  0  0  0  0  0  0  0  0  0  0
  145.5396  134.3571  150.6727 O   0  0  0  0  0  0  0  0  0  0  0  0
  145.6660  135.6881  151.1597 C   0  0  0  0  0  0  0  0  0  0  0  0
  145.7587  135.6719  152.6952 C   0  0  0  0  0  0  0  0  0  0  0  0
  148.2392  136.7593  159.6566 N   0  0  0  0  0  0  0  0  0  0  0  0
  147.6791  137.0692  160.9015 O   0  0  0  0  0  0  0  0  0  0  0  0
  146.0252  136.6415  162.9467 H   0  0  0  0  0  0  0  0  0  0  0  0
  147.6377  136.5134  163.6538 H   0  0  0  0  0  0  0  0  0  0  0  0
  146.6781  135.0590  163.3729 H   0  0  0  0  0  0  0  0  0  0  0  0
  147.9684  133.8089  161.1621 H   0  0  0  0  0  0  0  0  0  0  0  0
  148.8026  133.4957  156.6442 H   0  0  0  0  0  0  0  0  0  0  0  0
  149.0927  135.7226  154.7276 H   0  0  0  0  0  0  0  0  0  0  0  0
  149.2717  133.9064  153.0647 H   0  0  0  0  0  0  0  0  0  0  0  0
  148.9494  132.7052  154.3128 H   0  0  0  0  0  0  0  0  0  0  0  0
  150.4191  133.6751  154.3781 H   0  0  0  0  0  0  0  0  0  0  0  0
  146.5679  134.0229  155.0594 H   0  0  0  0  0  0  0  0  0  0  0  0
  146.7196  135.7598  155.0053 H   0  0  0  0  0  0  0  0  0  0  0  0
  147.6469  132.8644  152.8145 H   0  0  0  0  0  0  0  0  0  0  0  0
  145.9028  132.9644  152.9630 H   0  0  0  0  0  0  0  0  0  0  0  0
  147.5726  133.9680  150.5812 H   0  0  0  0  0  0  0  0  0  0  0  0
  146.5292  132.5583  150.5935 H   0  0  0  0  0  0  0  0  0  0  0  0
  146.5443  136.1658  150.7222 H   0  0  0  0  0  0  0  0  0  0  0  0
  144.7978  136.2652  150.8413 H   0  0  0  0  0  0  0  0  0  0  0  0
  144.8324  135.2908  153.1276 H   0  0  0  0  0  0  0  0  0  0  0  0
  145.8936  136.6897  153.0627 H   0  0  0  0  0  0  0  0  0  0  0  0
  147.7212  135.2447  152.7152 H   0  0  0  0  0  0  0  0  0  0  0  0
  1  2  1  0  0  0  0
  1 20  1  0  0  0  0
  1 21  1  0  0  0  0
  1 22  1  0  0  0  0
  2 19  1  0  0  0  0
  2  3  2  0  0  0  0
  3  4  1  0  0  0  0
  3 23  1  0  0  0  0
  4  5  1  0  0  0  0
  4 18  2  0  0  0  0
  5  6  1  0  0  0  0
  6  7  2  0  0  0  0
  6  8  1  0  0  0  0
  8  9  1  0  0  0  0
  8 24  1  0  0  0  0
  9 10  1  0  0  0  0
  9 11  1  0  0  0  0
  9 25  1  0  0  0  0
 10 26  1  0  0  0  0
 10 27  1  0  0  0  0
 10 28  1  0  0  0  0
 11 12  1  0  0  0  0
 11 29  1  0  0  0  0
 11 30  1  0  0  0  0
 12 17  1  0  0  0  0
 12 13  1  0  0  0  0
 12 39  1  0  0  0  0
 13 14  1  0  0  0  0
 13 31  1  0  0  0  0
 13 32  1  0  0  0  0
 14 15  1  0  0  0  0
 14 33  1  0  0  0  0
 14 34  1  0  0  0  0
 15 16  1  0  0  0  0
 16 17  1  0  0  0  0
 16 35  1  0  0  0  0
 16 36  1  0  0  0  0
 17 37  1  0  0  0  0
 17 38  1  0  0  0  0
 18 19  1  0  0  0  0
M  CHG  1   5  -1
M  CHG  1  12   1
M  END
> <s_m_source_file>
AV-unprocessed.smi

> <i_m_source_file_index>
1952

> <i_lp_mmshare_version>
43012

> <i_f3d_flags>
0

> <s_epik_input>
W0NIM11jMVtjSF1jKG5vMSlbTkhdQyg9TylbTkhdW0NASF0oW0NIM10pW0NIMl1OMltDSDJdW0NIMl1PW0NIMl1bQ0gyXTI=

> <s_epik_cmdline>
J2VwaWtfcHl0aG9uJywgJy1waCcsICc3LjAnLCAnLXRuJywgJzgnLCAnLW1hJywgJzIwMCcsICctbWV0YWxfYmluZGluZycsICctaW1hZScsICc8aW5maWxlLm1hZT4nLCAnLW9tYWUnLCAnPG91dGZpbGUubWFlPic=

> <r_epik_Ionization_Penalty>
6.62152

> <r_epik_Ionization_Penalty_Charging>
6.62142

> <r_epik_Ionization_Penalty_Neutral>
9.8734e-05

> <r_epik_State_Penalty>
6.82189

> <r_epik_Charging_Adjusted_Penalty>
13.4433

> <i_epik_Tot_Q>
0

> <i_epik_Tot_abs_Q>
2

> <r_epik_Metal_State_Penalty>
2.76365

> <b_epik_Metal_Only>
1

> <s_lp_Force_Field>
OPLS_2005

> <r_lp_Energy>
7.85101

> <b_lp_Chiralities_Consistent>
1

> <s_lp_Variant>
AV-unprocessed.smi:1952-8

> <Gold.Version>
5.8.1

> <Gold.Id.Protein>
6NUR|6NUR_protein|mol2

> <Gold.PLP.Fitness>
41.6334

> <Gold.PLP.PLP>
-26.4066

> <Gold.PLP.part.hbond>
-4.0000

> <Gold.PLP.part.metal>
0.0000

> <Gold.PLP.part.buried>
-4.8101

> <Gold.PLP.part.nonpolar>
-18.6147

> <Gold.PLP.part.repulsive>
0.2043

> <Gold.PLP.ligand.clash>
0.0000

> <Gold.PLP.ligand.torsion>
1.1745

> <Gold.PLP.Chemscore.Hbond>
5.8080

> <Gold.PLP.Chemscore.CHOScore>
0.0000

> <Gold.PLP.Chemscore.Metal>
0.0000

> <Gold.Chemscore.Hbonds>
donor molecule, donor type, donor heavy atom, donor atom, acceptor molecule, acceptor atom, score
      L1  H    12    39       P1  7948  2.00
      P1  H  6896  6907       L1     5  1.60
      P1  H  6931  6943       L1    19  0.86
      P1  H  6934  6947       L1    19  0.93

> <Gold.PLP.Chemscore.Internal.Correction>
0.1518

> <Gold.Rescore>
     Score         DG    S(hbond)    S(metal)    S(lipo)     H(rot)  DE(clash)    DE(int)     intcor
     13.19     -16.13       2.42        0.00      56.39       1.58       0.08       2.87       ----

> <Gold.Chemscore.Fitness>
13.1850

> <Gold.Chemscore.DG>
-16.1286

> <Gold.Chemscore.ZeroCoef>
-5.4800

> <Gold.Chemscore.Hbond>
2.4236

> <Gold.Chemscore.Metal>
0.0000

> <Gold.Chemscore.Lipo>
56.3919

> <Gold.Chemscore.Internal_Hbond>
0.0000

> <Gold.Chemscore.DEClash>
0.0782

> <Gold.Chemscore.DEInternal>
2.8654

> <Gold.Chemscore.Rot>
1.5798

> <Gold.Chemscore.Internal.Correction>
   9.000000E+99

> <Gold.Chemscore.Hbonds>
donor molecule, donor type, donor heavy atom, donor atom, acceptor molecule, acceptor atom, score
      L1  H    12    39       P1  7948  1.00
      P1  H  6896  6907       L1     5  0.11
      P1  H  6931  6943       L1    19  0.32
      P1  H  6934  6947       L1    19  0.61

> <Gold.Chemscore.Hbond.Weighted>
-8.0950

> <Gold.Chemscore.Metal.Weighted>
-0.0000

> <Gold.Chemscore.Lipo.Weighted>
-6.5979

> <Gold.Chemscore.Internal_Hbond.Weighted>
0.0000

> <Gold.Chemscore.DEClash.Weighted>
0.0782

> <Gold.Chemscore.DEInternal.Weighted>
2.8654

> <Gold.Chemscore.Rot.Weighted>
4.0442

> <Gold.Chemscore.Internal.Correction.Weighted>
   9.000000E+99

> <Gold.Protein.RotatedTorsions>
[ 6907 6896 6895 6894 ] final  -83.34 input  -60.11 | X-H torsion
[ 7974 7965 7964 7962 ] final   63.29 input  175.53 | X-H torsion
[ 8008 7997 7996 7995 ] final   -0.39 input   59.86 | X-H torsion
[ 10167 10162 10161 10158 ] final  107.23 input  -65.29 | X-H torsion
[ 10718 10713 10712 10709 ] final  170.34 input   66.30 | X-H torsion
[ 10763 10752 10751 10750 ] final    2.41 input  -60.55 | X-H torsion
[ 11005 11000 10999 10996 ] final    7.03 input  -57.11 | X-H torsion

> <Gold.Protein.ActiveResidues>
 VAL166  LYS551  ARG553  GLY616  TRP617  ASP618  TYR619  PRO620  LYS621  CYS622 
 ASP623  PHE694  ASN695  SER759  ASP760  ASP761  ALA762  ILE779  LEU786  VAL792 
 PHE793  MET794  SER795  GLU796  ALA797  LYS798  CYS799  TRP800  GLU811  SER814 

> <Gold.Protein.RotatedAtoms>
  150.6886  134.3527  159.4915 H   0  0  0  0  0  0  0  0  0  0  0  0  # atno 6907 bound_to 6896
  152.1366  134.9092  160.0565 H   0  0  0  0  0  0  0  0  0  0  0  0  # atno 6908 bound_to 6896
  152.0241  133.3876  159.4307 H   0  0  0  0  0  0  0  0  0  0  0  0  # atno 6909 bound_to 6896
  145.8635  139.3330  143.0805 H   0  0  0  0  0  0  0  0  0  0  0  0  # atno 7974 bound_to 7965
  154.6586  140.2585  155.7134 H   0  0  0  0  0  0  0  0  0  0  0  0  # atno 8008 bound_to 7997
  156.2608  140.2853  156.0970 H   0  0  0  0  0  0  0  0  0  0  0  0  # atno 8009 bound_to 7997
  155.1343  140.0379  157.2773 H   0  0  0  0  0  0  0  0  0  0  0  0  # atno 8010 bound_to 7997
  139.6944  144.7103  151.1293 H   0  0  0  0  0  0  0  0  0  0  0  0  # atno 10167 bound_to 10162
  157.0096  131.0200  151.2807 H   0  0  0  0  0  0  0  0  0  0  0  0  # atno 10718 bound_to 10713
  153.2959  135.6952  153.7249 H   0  0  0  0  0  0  0  0  0  0  0  0  # atno 10763 bound_to 10752
  153.6181  135.3432  155.3002 H   0  0  0  0  0  0  0  0  0  0  0  0  # atno 10764 bound_to 10752
  154.8537  135.4379  154.2056 H   0  0  0  0  0  0  0  0  0  0  0  0  # atno 10765 bound_to 10752
  140.5529  134.0266  155.7943 H   0  0  0  0  0  0  0  0  0  0  0  0  # atno 11005 bound_to 11000
  145.9220  140.9108  143.0400 LP  0  0  0  0  0  0  0  0  0  0  0  0  # atno 17320 bound_to 7965
  144.6726  140.1302  143.7444 LP  0  0  0  0  0  0  0  0  0  0  0  0  # atno 17321 bound_to 7965
  140.7692  143.5513  150.9201 LP  0  0  0  0  0  0  0  0  0  0  0  0  # atno 17342 bound_to 10162
  139.9192  143.6626  152.3100 LP  0  0  0  0  0  0  0  0  0  0  0  0  # atno 17343 bound_to 10162
  157.5330  130.8071  149.7939 LP  0  0  0  0  0  0  0  0  0  0  0  0  # atno 17370 bound_to 10713
  156.0141  130.3821  150.2168 LP  0  0  0  0  0  0  0  0  0  0  0  0  # atno 17371 bound_to 10713
  141.1161  133.9538  157.2820 LP  0  0  0  0  0  0  0  0  0  0  0  0  # atno 17394 bound_to 11000
  139.9446  135.0186  156.8813 LP  0  0  0  0  0  0  0  0  0  0  0  0  # atno 17395 bound_to 11000

$$$$
