AV-unprocessed.smi:2746|AV-procd|sdf|10573|dock4
  -GOLD-   2272015 23D 1   1.00000     0.00000
 Structure written by MMmdl.
 39 40  0  0  0  0  0  0  0  0  2 V2000
  142.2616  135.2676  153.4262 C   0  0  0  0  0  0  0  0  0  0  0  0
  143.2021  136.2282  153.4263 C   0  0  0  0  0  0  0  0  0  0  0  0
  143.9519  136.7736  152.2172 C   0  0  2  0  0  0  0  0  0  0  0  0
  144.6883  135.6508  151.4752 C   0  0  0  0  0  0  0  0  0  0  0  0
  144.9045  137.8250  152.5732 N   0  0  0  0  0  0  0  0  0  0  0  0
  146.0032  137.6688  153.3307 C   0  0  0  0  0  0  0  0  0  0  0  0
  146.3199  136.6098  153.8727 O   0  0  0  0  0  0  0  0  0  0  0  0
  146.8246  138.9069  153.5368 C   0  0  0  0  0  0  0  0  0  0  0  0
  148.1450  138.8641  154.0437 C   0  0  0  0  0  0  0  0  0  0  0  0
  148.8556  140.0708  154.2473 C   0  0  0  0  0  0  0  0  0  0  0  0
  150.1645  140.0830  154.7480 N   0  0  0  0  0  0  0  0  0  0  0  0
  150.7578  138.7554  154.8468 C   0  0  0  0  0  0  0  0  0  0  0  0
  152.2295  138.8684  155.2811 C   0  0  0  0  0  0  0  0  0  0  0  0
  152.3104  139.5919  156.5059 O   0  0  0  0  0  0  0  0  0  0  0  0
  151.7986  140.9157  156.3803 C   0  0  0  0  0  0  0  0  0  0  0  0
  150.3157  140.8575  155.9741 C   0  0  0  0  0  0  0  0  0  0  0  0
  148.2237  141.2941  153.9393 C   0  0  0  0  0  0  0  0  0  0  0  0
  146.9038  141.2832  153.4475 C   0  0  0  0  0  0  0  0  0  0  0  0
  146.2617  140.1084  153.2717 N   0  3  0  0  0  0  0  0  0  0  0  0
  141.9401  134.7747  152.5207 H   0  0  0  0  0  0  0  0  0  0  0  0
  141.7952  134.9590  154.3502 H   0  0  0  0  0  0  0  0  0  0  0  0
  143.4708  136.6745  154.3729 H   0  0  0  0  0  0  0  0  0  0  0  0
  143.1973  137.1746  151.5385 H   0  0  0  0  0  0  0  0  0  0  0  0
  143.9972  134.8673  151.1622 H   0  0  0  0  0  0  0  0  0  0  0  0
  145.4499  135.1897  152.1052 H   0  0  0  0  0  0  0  0  0  0  0  0
  145.1815  136.0297  150.5795 H   0  0  0  0  0  0  0  0  0  0  0  0
  144.7179  138.7436  152.1980 H   0  0  0  0  0  0  0  0  0  0  0  0
  148.6100  137.9184  154.2821 H   0  0  0  0  0  0  0  0  0  0  0  0
  150.2053  138.1554  155.5712 H   0  0  0  0  0  0  0  0  0  0  0  0
  150.6896  138.2460  153.8847 H   0  0  0  0  0  0  0  0  0  0  0  0
  152.6567  137.8759  155.4249 H   0  0  0  0  0  0  0  0  0  0  0  0
  152.8252  139.3646  154.5134 H   0  0  0  0  0  0  0  0  0  0  0  0
  151.9072  141.4310  157.3348 H   0  0  0  0  0  0  0  0  0  0  0  0
  152.3822  141.4748  155.6471 H   0  0  0  0  0  0  0  0  0  0  0  0
  149.9288  141.8664  155.8248 H   0  0  0  0  0  0  0  0  0  0  0  0
  149.7339  140.4032  156.7771 H   0  0  0  0  0  0  0  0  0  0  0  0
  148.7412  142.2314  154.0844 H   0  0  0  0  0  0  0  0  0  0  0  0
  146.3445  142.1722  153.1951 H   0  0  0  0  0  0  0  0  0  0  0  0
  145.3032  140.1239  152.9211 H   0  0  0  0  0  0  0  0  0  0  0  0
  1  2  2  0  0  0  0
  1 20  1  0  0  0  0
  1 21  1  0  0  0  0
  2  3  1  0  0  0  0
  2 22  1  0  0  0  0
  3  4  1  0  0  0  0
  3  5  1  0  0  0  0
  3 23  1  0  0  0  0
  4 24  1  0  0  0  0
  4 25  1  0  0  0  0
  4 26  1  0  0  0  0
  5  6  1  0  0  0  0
  5 27  1  0  0  0  0
  6  7  2  0  0  0  0
  6  8  1  0  0  0  0
  8 19  1  0  0  0  0
  8  9  2  0  0  0  0
  9 10  1  0  0  0  0
  9 28  1  0  0  0  0
 10 11  1  0  0  0  0
 10 17  2  0  0  0  0
 11 16  1  0  0  0  0
 11 12  1  0  0  0  0
 12 13  1  0  0  0  0
 12 29  1  0  0  0  0
 12 30  1  0  0  0  0
 13 14  1  0  0  0  0
 13 31  1  0  0  0  0
 13 32  1  0  0  0  0
 14 15  1  0  0  0  0
 15 16  1  0  0  0  0
 15 33  1  0  0  0  0
 15 34  1  0  0  0  0
 16 35  1  0  0  0  0
 16 36  1  0  0  0  0
 17 18  1  0  0  0  0
 17 37  1  0  0  0  0
 18 19  2  0  0  0  0
 18 38  1  0  0  0  0
 19 39  1  0  0  0  0
M  CHG  1  19   1
M  END
> <s_m_source_file>
AV-unprocessed.smi

> <i_m_source_file_index>
2746

> <i_lp_mmshare_version>
43012

> <i_f3d_flags>
0

> <s_epik_input>
W0NIMl09W0NIXVtDQEhdKFtDSDNdKVtOSF1DKD1PKWMxW2NIXWMoW2NIXVtjSF1uMSlOMltDSDJdW0NIMl1PW0NIMl1bQ0gyXTI=

> <s_epik_cmdline>
J2VwaWtfcHl0aG9uJywgJy1waCcsICc3LjAnLCAnLXRuJywgJzgnLCAnLW1hJywgJzIwMCcsICctbWV0YWxfYmluZGluZycsICctaW1hZScsICc8aW5maWxlLm1hZT4nLCAnLW9tYWUnLCAnPG91dGZpbGUubWFlPic=

> <r_lp_tautomer_probability>
1

> <r_epik_Ionization_Penalty>
0.451073

> <r_epik_Ionization_Penalty_Charging>
0.450607

> <r_epik_Ionization_Penalty_Neutral>
0.000466544

> <r_epik_State_Penalty>
0.453375

> <r_epik_Charging_Adjusted_Penalty>
0.903982

> <i_epik_Tot_Q>
1

> <i_epik_Tot_abs_Q>
1

> <r_epik_Metal_State_Penalty>
1.0249

> <b_epik_Metal_Only>
0

> <s_lp_Force_Field>
OPLS_2005

> <r_lp_Energy>
26.9967

> <b_lp_Chiralities_Consistent>
1

> <s_lp_Variant>
AV-unprocessed.smi:2746-3

> <Gold.Version>
5.8.1

> <Gold.Id.Protein>
6NUR|6NUR_protein|mol2

> <Gold.PLP.Fitness>
47.4416

> <Gold.PLP.PLP>
-34.8523

> <Gold.PLP.part.hbond>
-5.0000

> <Gold.PLP.part.metal>
0.0000

> <Gold.PLP.part.buried>
-3.5460

> <Gold.PLP.part.nonpolar>
-26.9335

> <Gold.PLP.part.repulsive>
0.4138

> <Gold.PLP.ligand.clash>
0.6474

> <Gold.PLP.ligand.torsion>
0.2143

> <Gold.PLP.Chemscore.Hbond>
4.5000

> <Gold.PLP.Chemscore.CHOScore>
0.0000

> <Gold.PLP.Chemscore.Metal>
0.0000

> <Gold.Chemscore.Hbonds>
donor molecule, donor type, donor heavy atom, donor atom, acceptor molecule, acceptor atom, score
      L1  H     5    27       P1 10175  0.90
      L1  H    19    39       P1 10175  2.00
      P1  H  7989  7998       L1    11  0.70
      P1  H  7997  8009       L1    14  0.34

> <Gold.PLP.Chemscore.Internal.Correction>
0.1653

> <Gold.Rescore>
     Score         DG    S(hbond)    S(metal)    S(lipo)     H(rot)  DE(clash)    DE(int)     intcor
     15.25     -18.31       1.99        0.00      81.31       1.30       1.42       1.63       ----

> <Gold.Chemscore.Fitness>
15.2519

> <Gold.Chemscore.DG>
-18.3051

> <Gold.Chemscore.ZeroCoef>
-5.4800

> <Gold.Chemscore.Hbond>
1.9890

> <Gold.Chemscore.Metal>
0.0000

> <Gold.Chemscore.Lipo>
81.3093

> <Gold.Chemscore.Internal_Hbond>
0.0000

> <Gold.Chemscore.DEClash>
1.4247

> <Gold.Chemscore.DEInternal>
1.6286

> <Gold.Chemscore.Rot>
1.3013

> <Gold.Chemscore.Internal.Correction>
   9.000000E+99

> <Gold.Chemscore.Hbonds>
donor molecule, donor type, donor heavy atom, donor atom, acceptor molecule, acceptor atom, score
      L1  H     5    27       P1 10175  0.83
      L1  H    19    39       P1 10175  0.99
      P1  H  7989  7998       L1    11  0.04

> <Gold.Chemscore.Hbond.Weighted>
-6.6433

> <Gold.Chemscore.Metal.Weighted>
-0.0000

> <Gold.Chemscore.Lipo.Weighted>
-9.5132

> <Gold.Chemscore.Internal_Hbond.Weighted>
0.0000

> <Gold.Chemscore.DEClash.Weighted>
1.4247

> <Gold.Chemscore.DEInternal.Weighted>
1.6286

> <Gold.Chemscore.Rot.Weighted>
3.3313

> <Gold.Chemscore.Internal.Correction.Weighted>
   9.000000E+99

> <Gold.Protein.RotatedTorsions>
[ 6907 6896 6895 6894 ] final  -53.61 input  -60.11 | X-H torsion
[ 7974 7965 7964 7962 ] final  -66.05 input  175.53 | X-H torsion
[ 8008 7997 7996 7995 ] final -150.64 input   59.86 | X-H torsion
[ 10167 10162 10161 10158 ] final   45.03 input  -65.29 | X-H torsion
[ 10718 10713 10712 10709 ] final  -89.92 input   66.30 | X-H torsion
[ 10763 10752 10751 10750 ] final -109.13 input  -60.55 | X-H torsion
[ 11005 11000 10999 10996 ] final -168.07 input  -57.11 | X-H torsion

> <Gold.Protein.ActiveResidues>
 VAL166  LYS551  ARG553  GLY616  TRP617  ASP618  TYR619  PRO620  LYS621  CYS622 
 ASP623  PHE694  ASN695  SER759  ASP760  ASP761  ALA762  ILE779  LEU786  VAL792 
 PHE793  MET794  SER795  GLU796  ALA797  LYS798  CYS799  TRP800  GLU811  SER814 

> <Gold.Protein.RotatedAtoms>
  150.8411  134.7704  159.6933 H   0  0  0  0  0  0  0  0  0  0  0  0  # atno 6907 bound_to 6896
  152.4498  134.5414  159.9850 H   0  0  0  0  0  0  0  0  0  0  0  0  # atno 6908 bound_to 6896
  151.5553  133.3373  159.2996 H   0  0  0  0  0  0  0  0  0  0  0  0  # atno 6909 bound_to 6896
  145.7467  140.8928  143.0501 H   0  0  0  0  0  0  0  0  0  0  0  0  # atno 7974 bound_to 7965
  155.6267  140.0687  157.2661 H   0  0  0  0  0  0  0  0  0  0  0  0  # atno 8008 bound_to 7997
  154.4216  140.1774  156.1478 H   0  0  0  0  0  0  0  0  0  0  0  0  # atno 8009 bound_to 7997
  155.9965  140.3340  155.6807 H   0  0  0  0  0  0  0  0  0  0  0  0  # atno 8010 bound_to 7997
  140.3283  144.2620  150.6172 H   0  0  0  0  0  0  0  0  0  0  0  0  # atno 10167 bound_to 10162
  155.9986  130.4890  150.5244 H   0  0  0  0  0  0  0  0  0  0  0  0  # atno 10718 bound_to 10713
  154.8175  135.4612  154.0685 H   0  0  0  0  0  0  0  0  0  0  0  0  # atno 10763 bound_to 10752
  153.2066  135.6876  153.8172 H   0  0  0  0  0  0  0  0  0  0  0  0  # atno 10764 bound_to 10752
  153.7638  135.3280  155.3318 H   0  0  0  0  0  0  0  0  0  0  0  0  # atno 10765 bound_to 10752
  140.5461  134.5474  157.5111 H   0  0  0  0  0  0  0  0  0  0  0  0  # atno 11005 bound_to 11000
  144.6858  139.9535  143.7478 LP  0  0  0  0  0  0  0  0  0  0  0  0  # atno 17320 bound_to 7965
  146.0396  139.3409  143.0705 LP  0  0  0  0  0  0  0  0  0  0  0  0  # atno 17321 bound_to 7965
  140.5420  143.2221  151.8068 LP  0  0  0  0  0  0  0  0  0  0  0  0  # atno 17342 bound_to 10162
  139.4861  144.4587  151.9567 LP  0  0  0  0  0  0  0  0  0  0  0  0  # atno 17343 bound_to 10162
  157.3202  131.0680  151.1937 LP  0  0  0  0  0  0  0  0  0  0  0  0  # atno 17370 bound_to 10713
  157.2854  130.6770  149.6087 LP  0  0  0  0  0  0  0  0  0  0  0  0  # atno 17371 bound_to 10713
  139.9479  134.7670  156.0519 LP  0  0  0  0  0  0  0  0  0  0  0  0  # atno 17394 bound_to 11000
  141.1199  133.6616  156.3187 LP  0  0  0  0  0  0  0  0  0  0  0  0  # atno 17395 bound_to 11000

$$$$
