AV-unprocessed.smi:1555|AV-procd|sdf|6264|dock4
  -GOLD-   22720 6453D 1   1.00000     0.00000
 Structure written by MMmdl.
 42 43  0  0  0  0  0  0  0  0  2 V2000
  150.3995  139.1181  155.6856 C   0  0  0  0  0  0  0  0  0  0  0  0
  149.8650  140.5327  155.9624 C   0  0  2  0  0  0  0  0  0  0  0  0
  149.4867  141.2986  154.6759 C   0  0  0  0  0  0  0  0  0  0  0  0
  148.0378  141.4171  154.4887 N   0  0  0  0  0  0  0  0  0  0  0  0
  147.1683  142.1812  155.2241 C   0  0  0  0  0  0  0  0  0  0  0  0
  145.9230  141.9831  154.6853 C   0  0  0  0  0  0  0  0  0  0  0  0
  146.0859  141.1107  153.6425 N   0  3  0  0  0  0  0  0  0  0  0  0
  147.3732  140.7703  153.5224 C   0  0  0  0  0  0  0  0  0  0  0  0
  150.8629  141.2817  156.7202 N   0  0  0  0  0  0  0  0  0  0  0  0
  151.5402  140.8238  157.7875 C   0  0  0  0  0  0  0  0  0  0  0  0
  151.3717  139.6852  158.2270 O   0  0  0  0  0  0  0  0  0  0  0  0
  152.4193  141.7070  158.3251 N   0  0  0  0  0  0  0  0  0  0  0  0
  152.3108  143.1755  158.2959 C   0  0  0  0  0  0  0  0  0  0  0  0
  151.9216  143.6715  159.7002 C   0  0  0  0  0  0  0  0  0  0  0  0
  152.9438  143.2051  160.7634 C   0  0  0  0  0  0  0  0  0  0  0  0
  152.5205  143.5928  162.1918 C   0  0  0  0  0  0  0  0  0  0  0  0
  151.3423  142.9108  162.5678 O   0  0  0  0  0  0  0  0  0  0  0  0
  153.1894  141.6843  160.6476 C   0  0  0  0  0  0  0  0  0  0  0  0
  153.5173  141.2764  159.1994 C   0  0  0  0  0  0  0  0  0  0  0  0
  149.6487  138.4941  155.2004 H   0  0  0  0  0  0  0  0  0  0  0  0
  150.6838  138.6181  156.6122 H   0  0  0  0  0  0  0  0  0  0  0  0
  151.2780  139.1458  155.0401 H   0  0  0  0  0  0  0  0  0  0  0  0
  148.9727  140.4275  156.5827 H   0  0  0  0  0  0  0  0  0  0  0  0
  149.8910  142.3116  154.6939 H   0  0  0  0  0  0  0  0  0  0  0  0
  149.9098  140.8068  153.7982 H   0  0  0  0  0  0  0  0  0  0  0  0
  147.4925  142.7915  156.0549 H   0  0  0  0  0  0  0  0  0  0  0  0
  144.9591  142.3879  154.9580 H   0  0  0  0  0  0  0  0  0  0  0  0
  147.7915  140.1020  152.7909 H   0  0  0  0  0  0  0  0  0  0  0  0
  151.0565  142.2235  156.4118 H   0  0  0  0  0  0  0  0  0  0  0  0
  153.2740  143.5989  158.0073 H   0  0  0  0  0  0  0  0  0  0  0  0
  151.6009  143.5539  157.5607 H   0  0  0  0  0  0  0  0  0  0  0  0
  151.8522  144.7597  159.6960 H   0  0  0  0  0  0  0  0  0  0  0  0
  150.9276  143.2997  159.9528 H   0  0  0  0  0  0  0  0  0  0  0  0
  153.8931  143.6994  160.5499 H   0  0  0  0  0  0  0  0  0  0  0  0
  153.3127  143.3699  162.9072 H   0  0  0  0  0  0  0  0  0  0  0  0
  152.3251  144.6640  162.2516 H   0  0  0  0  0  0  0  0  0  0  0  0
  151.0704  143.2250  163.4167 H   0  0  0  0  0  0  0  0  0  0  0  0
  154.0050  141.3866  161.3073 H   0  0  0  0  0  0  0  0  0  0  0  0
  152.3059  141.1399  160.9842 H   0  0  0  0  0  0  0  0  0  0  0  0
  153.7013  140.2023  159.1492 H   0  0  0  0  0  0  0  0  0  0  0  0
  154.4458  141.7492  158.8760 H   0  0  0  0  0  0  0  0  0  0  0  0
  145.3415  140.7723  153.0456 H   0  0  0  0  0  0  0  0  0  0  0  0
  1  2  1  0  0  0  0
  1 20  1  0  0  0  0
  1 21  1  0  0  0  0
  1 22  1  0  0  0  0
  2  3  1  0  0  0  0
  2  9  1  0  0  0  0
  2 23  1  0  0  0  0
  3  4  1  0  0  0  0
  3 24  1  0  0  0  0
  3 25  1  0  0  0  0
  4  8  1  0  0  0  0
  4  5  1  0  0  0  0
  5  6  2  0  0  0  0
  5 26  1  0  0  0  0
  6  7  1  0  0  0  0
  6 27  1  0  0  0  0
  7  8  2  0  0  0  0
  7 42  1  0  0  0  0
  8 28  1  0  0  0  0
  9 10  1  0  0  0  0
  9 29  1  0  0  0  0
 10 11  2  0  0  0  0
 10 12  1  0  0  0  0
 12 19  1  0  0  0  0
 12 13  1  0  0  0  0
 13 14  1  0  0  0  0
 13 30  1  0  0  0  0
 13 31  1  0  0  0  0
 14 15  1  0  0  0  0
 14 32  1  0  0  0  0
 14 33  1  0  0  0  0
 15 16  1  0  0  0  0
 15 18  1  0  0  0  0
 15 34  1  0  0  0  0
 16 17  1  0  0  0  0
 16 35  1  0  0  0  0
 16 36  1  0  0  0  0
 17 37  1  0  0  0  0
 18 19  1  0  0  0  0
 18 38  1  0  0  0  0
 18 39  1  0  0  0  0
 19 40  1  0  0  0  0
 19 41  1  0  0  0  0
M  CHG  1   7   1
M  END
> <s_m_source_file>
AV-unprocessed.smi

> <i_m_source_file_index>
1555

> <i_lp_mmshare_version>
43012

> <i_f3d_flags>
0

> <s_epik_input>
W2NIXTFuW2NIXVtjSF1uMVtDSDJdW0NAQEhdKFtDSDNdKVtOSF1DKD1PKU4yW0NIMl1bQ0gyXVtDSF0oW0NIMl1bT0hdKVtDSDJdW0NIMl0y

> <s_epik_cmdline>
J2VwaWtfcHl0aG9uJywgJy1waCcsICc3LjAnLCAnLXRuJywgJzgnLCAnLW1hJywgJzIwMCcsICctbWV0YWxfYmluZGluZycsICctaW1hZScsICc8aW5maWxlLm1hZT4nLCAnLW9tYWUnLCAnPG91dGZpbGUubWFlPic=

> <r_lp_tautomer_probability>
1

> <r_epik_Ionization_Penalty>
0.253261

> <r_epik_Ionization_Penalty_Charging>
0

> <r_epik_Ionization_Penalty_Neutral>
0.253261

> <r_epik_State_Penalty>
0.244619

> <r_epik_Charging_Adjusted_Penalty>
0.244619

> <i_epik_Tot_Q>
1

> <i_epik_Tot_abs_Q>
1

> <r_epik_Metal_State_Penalty>
0.535039

> <b_epik_Metal_Only>
0

> <s_lp_Force_Field>
OPLS_2005

> <r_lp_Energy>
34.4969

> <b_lp_Chiralities_Consistent>
1

> <s_lp_Variant>
AV-unprocessed.smi:1555-1

> <Gold.Version>
5.8.1

> <Gold.Id.Protein>
6NUR|6NUR_protein|mol2

> <Gold.PLP.Fitness>
50.6345

> <Gold.PLP.PLP>
-38.7156

> <Gold.PLP.part.hbond>
-2.0422

> <Gold.PLP.part.metal>
0.0000

> <Gold.PLP.part.buried>
-3.7946

> <Gold.PLP.part.nonpolar>
-32.9054

> <Gold.PLP.part.repulsive>
0.0868

> <Gold.PLP.ligand.clash>
0.0000

> <Gold.PLP.ligand.torsion>
1.1511

> <Gold.PLP.Chemscore.Hbond>
2.9272

> <Gold.PLP.Chemscore.CHOScore>
1.7791

> <Gold.PLP.Chemscore.Metal>
0.0000

> <Gold.Chemscore.Hbonds>
donor molecule, donor type, donor heavy atom, donor atom, acceptor molecule, acceptor atom, score
      L1  H     7    42       P1 10175  2.00
      P1  H  6933  6945       L1    17  0.93
      L1  C     5    26       P1  8028  0.76
      L1  C     8    28       P1  7957  1.00

> <Gold.PLP.Chemscore.Internal.Correction>
0.1023

> <Gold.Rescore>
     Score         DG    S(hbond)    S(metal)    S(lipo)     H(rot)  DE(clash)    DE(int)     intcor
     10.12     -14.65       1.36        0.00      95.52       2.56       2.09       2.44       ----

> <Gold.Chemscore.Fitness>
10.1218

> <Gold.Chemscore.DG>
-14.6525

> <Gold.Chemscore.ZeroCoef>
-5.4800

> <Gold.Chemscore.Hbond>
1.3647

> <Gold.Chemscore.Metal>
0.0000

> <Gold.Chemscore.Lipo>
95.5179

> <Gold.Chemscore.Internal_Hbond>
0.0000

> <Gold.Chemscore.DEClash>
2.0931

> <Gold.Chemscore.DEInternal>
2.4375

> <Gold.Chemscore.Rot>
2.5630

> <Gold.Chemscore.Internal.Correction>
   9.000000E+99

> <Gold.Chemscore.Hbonds>
donor molecule, donor type, donor heavy atom, donor atom, acceptor molecule, acceptor atom, score
      L1  H     7    42       P1 10175  0.60
      P1  H  6933  6945       L1    17  0.20

> <Gold.Chemscore.Hbond.Weighted>
-4.5580

> <Gold.Chemscore.Metal.Weighted>
-0.0000

> <Gold.Chemscore.Lipo.Weighted>
-11.1756

> <Gold.Chemscore.Internal_Hbond.Weighted>
0.0000

> <Gold.Chemscore.DEClash.Weighted>
2.0931

> <Gold.Chemscore.DEInternal.Weighted>
2.4375

> <Gold.Chemscore.Rot.Weighted>
6.5612

> <Gold.Chemscore.Internal.Correction.Weighted>
   9.000000E+99

> <Gold.Protein.RotatedTorsions>
[ 6907 6896 6895 6894 ] final  115.60 input  -60.11 | X-H torsion
[ 7974 7965 7964 7962 ] final -168.87 input  175.53 | X-H torsion
[ 8008 7997 7996 7995 ] final -116.14 input   59.86 | X-H torsion
[ 10167 10162 10161 10158 ] final   69.88 input  -65.29 | X-H torsion
[ 10718 10713 10712 10709 ] final   55.29 input   66.30 | X-H torsion
[ 10763 10752 10751 10750 ] final   54.37 input  -60.55 | X-H torsion
[ 11005 11000 10999 10996 ] final -149.79 input  -57.11 | X-H torsion

> <Gold.Protein.ActiveResidues>
 VAL166  LYS551  ARG553  GLY616  TRP617  ASP618  TYR619  PRO620  LYS621  CYS622 
 ASP623  PHE694  ASN695  SER759  ASP760  ASP761  ALA762  ILE779  LEU786  VAL792 
 PHE793  MET794  SER795  GLU796  ALA797  LYS798  CYS799  TRP800  GLU811  SER814 

> <Gold.Protein.RotatedAtoms>
  152.4731  133.8076  159.6986 H   0  0  0  0  0  0  0  0  0  0  0  0  # atno 6907 bound_to 6896
  150.8732  133.7466  159.2961 H   0  0  0  0  0  0  0  0  0  0  0  0  # atno 6908 bound_to 6896
  151.4994  135.1064  159.9877 H   0  0  0  0  0  0  0  0  0  0  0  0  # atno 6909 bound_to 6896
  144.7195  140.2305  143.6304 H   0  0  0  0  0  0  0  0  0  0  0  0  # atno 7974 bound_to 7965
  155.0631  140.0393  157.2583 H   0  0  0  0  0  0  0  0  0  0  0  0  # atno 8008 bound_to 7997
  154.7043  140.2680  155.6665 H   0  0  0  0  0  0  0  0  0  0  0  0  # atno 8009 bound_to 7997
  156.2770  140.2734  156.1664 H   0  0  0  0  0  0  0  0  0  0  0  0  # atno 8010 bound_to 7997
  140.0630  144.5217  150.7281 H   0  0  0  0  0  0  0  0  0  0  0  0  # atno 10167 bound_to 10162
  157.5332  130.8645  149.8717 H   0  0  0  0  0  0  0  0  0  0  0  0  # atno 10718 bound_to 10713
  152.9804  135.5747  154.4893 H   0  0  0  0  0  0  0  0  0  0  0  0  # atno 10763 bound_to 10752
  154.4430  135.2776  155.1836 H   0  0  0  0  0  0  0  0  0  0  0  0  # atno 10764 bound_to 10752
  154.3496  135.6212  153.5690 H   0  0  0  0  0  0  0  0  0  0  0  0  # atno 10765 bound_to 10752
  140.7470  134.3450  157.5135 H   0  0  0  0  0  0  0  0  0  0  0  0  # atno 11005 bound_to 11000
  145.8415  139.2132  143.1825 LP  0  0  0  0  0  0  0  0  0  0  0  0  # atno 17320 bound_to 7965
  146.0342  140.8228  142.9861 LP  0  0  0  0  0  0  0  0  0  0  0  0  # atno 17321 bound_to 7965
  140.7163  143.2547  151.4424 LP  0  0  0  0  0  0  0  0  0  0  0  0  # atno 17342 bound_to 10162
  139.5882  144.1557  152.2056 LP  0  0  0  0  0  0  0  0  0  0  0  0  # atno 17343 bound_to 10162
  156.0438  130.3732  150.1367 LP  0  0  0  0  0  0  0  0  0  0  0  0  # atno 17370 bound_to 10713
  156.9551  130.9787  151.3490 LP  0  0  0  0  0  0  0  0  0  0  0  0  # atno 17371 bound_to 10713
  139.8795  134.9117  156.3044 LP  0  0  0  0  0  0  0  0  0  0  0  0  # atno 17394 bound_to 11000
  140.9785  133.7282  156.0638 LP  0  0  0  0  0  0  0  0  0  0  0  0  # atno 17395 bound_to 11000

$$$$
