AV-unprocessed.smi:3254|AV-procd|sdf|12453|dock10
  -GOLD-   2272018353D 1   1.00000     0.00000
 Structure written by MMmdl.
 37 38  0  0  0  0  0  0  0  0  2 V2000
  148.0780  129.2586  156.7255 C   0  0  0  0  0  0  0  0  0  0  0  0
  149.5975  129.4460  156.8334 C   0  0  0  0  0  0  0  0  0  0  0  0
  150.0466  130.6171  156.0859 N   0  0  0  0  0  0  0  0  0  0  0  0
  149.9112  130.6704  154.6399 C   0  0  0  0  0  0  0  0  0  0  0  0
  150.3068  132.1080  154.2379 C   0  0  1  0  0  0  0  0  0  0  0  0
  149.1014  132.9358  153.7648 C   0  0  0  0  0  0  0  0  0  0  0  0
  148.7276  133.9125  154.4147 O   0  0  0  0  0  0  0  0  0  0  0  0
  148.5052  132.5289  152.6341 N   0  0  0  0  0  0  0  0  0  0  0  0
  147.3472  133.1628  152.0106 C   0  0  0  0  0  0  0  0  0  0  0  0
  146.1108  132.2514  152.0734 C   0  0  0  0  0  0  0  0  0  0  0  0
  145.2213  132.4261  150.9207 N   0  0  0  0  0  0  0  0  0  0  0  0
  145.4994  132.1462  149.6073 C   0  0  0  0  0  0  0  0  0  0  0  0
  144.3731  132.4643  148.8929 C   0  0  0  0  0  0  0  0  0  0  0  0
  143.4544  132.9204  149.8000 N   0  3  0  0  0  0  0  0  0  0  0  0
  143.9711  132.8939  151.0328 C   0  0  0  0  0  0  0  0  0  0  0  0
  150.9481  132.7150  155.5019 C   0  0  0  0  0  0  0  0  0  0  0  0
  150.6469  131.6998  156.5918 C   0  0  0  0  0  0  0  0  0  0  0  0
  150.9249  131.8897  157.7749 O   0  0  0  0  0  0  0  0  0  0  0  0
  147.7575  128.3690  157.2679 H   0  0  0  0  0  0  0  0  0  0  0  0
  147.7697  129.1434  155.6860 H   0  0  0  0  0  0  0  0  0  0  0  0
  147.5407  130.1112  157.1417 H   0  0  0  0  0  0  0  0  0  0  0  0
  149.8885  129.5462  157.8801 H   0  0  0  0  0  0  0  0  0  0  0  0
  150.1056  128.5573  156.4571 H   0  0  0  0  0  0  0  0  0  0  0  0
  150.5859  129.9428  154.1870 H   0  0  0  0  0  0  0  0  0  0  0  0
  148.8949  130.4057  154.3422 H   0  0  0  0  0  0  0  0  0  0  0  0
  151.0461  132.0677  153.4359 H   0  0  0  0  0  0  0  0  0  0  0  0
  148.8788  131.7108  152.1758 H   0  0  0  0  0  0  0  0  0  0  0  0
  147.1501  134.1094  152.5147 H   0  0  0  0  0  0  0  0  0  0  0  0
  147.5504  133.4040  150.9661 H   0  0  0  0  0  0  0  0  0  0  0  0
  146.4183  131.2053  152.0897 H   0  0  0  0  0  0  0  0  0  0  0  0
  145.5435  132.4290  152.9885 H   0  0  0  0  0  0  0  0  0  0  0  0
  146.4534  131.7528  149.2872 H   0  0  0  0  0  0  0  0  0  0  0  0
  144.1617  132.4005  147.8354 H   0  0  0  0  0  0  0  0  0  0  0  0
  143.4753  133.1931  151.9392 H   0  0  0  0  0  0  0  0  0  0  0  0
  152.0280  132.8139  155.3868 H   0  0  0  0  0  0  0  0  0  0  0  0
  150.5472  133.6935  155.7716 H   0  0  0  0  0  0  0  0  0  0  0  0
  142.5175  133.2297  149.5731 H   0  0  0  0  0  0  0  0  0  0  0  0
  1  2  1  0  0  0  0
  1 19  1  0  0  0  0
  1 20  1  0  0  0  0
  1 21  1  0  0  0  0
  2  3  1  0  0  0  0
  2 22  1  0  0  0  0
  2 23  1  0  0  0  0
  3 17  1  0  0  0  0
  3  4  1  0  0  0  0
  4  5  1  0  0  0  0
  4 24  1  0  0  0  0
  4 25  1  0  0  0  0
  5  6  1  0  0  0  0
  5 16  1  0  0  0  0
  5 26  1  0  0  0  0
  6  7  2  0  0  0  0
  6  8  1  0  0  0  0
  8  9  1  0  0  0  0
  8 27  1  0  0  0  0
  9 10  1  0  0  0  0
  9 28  1  0  0  0  0
  9 29  1  0  0  0  0
 10 11  1  0  0  0  0
 10 30  1  0  0  0  0
 10 31  1  0  0  0  0
 11 15  1  0  0  0  0
 11 12  1  0  0  0  0
 12 13  2  0  0  0  0
 12 32  1  0  0  0  0
 13 14  1  0  0  0  0
 13 33  1  0  0  0  0
 14 15  2  0  0  0  0
 14 37  1  0  0  0  0
 15 34  1  0  0  0  0
 16 17  1  0  0  0  0
 16 35  1  0  0  0  0
 16 36  1  0  0  0  0
 17 18  2  0  0  0  0
M  CHG  1  14   1
M  END
> <s_m_source_file>
AV-unprocessed.smi

> <i_m_source_file_index>
3254

> <i_lp_mmshare_version>
43012

> <i_f3d_flags>
0

> <s_epik_input>
W0NIM11bQ0gyXU4xW0NIMl1bQ0BIXShbQ0gyXUMxPU8pQyg9TylbTkhdW0NIMl1bQ0gyXW4yW2NIXVtjSF1uW2NIXTI=

> <s_epik_cmdline>
J2VwaWtfcHl0aG9uJywgJy1waCcsICc3LjAnLCAnLXRuJywgJzgnLCAnLW1hJywgJzIwMCcsICctbWV0YWxfYmluZGluZycsICctaW1hZScsICc8aW5maWxlLm1hZT4nLCAnLW9tYWUnLCAnPG91dGZpbGUubWFlPic=

> <r_lp_tautomer_probability>
1

> <r_epik_Ionization_Penalty>
0.274742

> <r_epik_Ionization_Penalty_Charging>
0

> <r_epik_Ionization_Penalty_Neutral>
0.274742

> <r_epik_State_Penalty>
0.267046

> <r_epik_Charging_Adjusted_Penalty>
0.267046

> <i_epik_Tot_Q>
1

> <i_epik_Tot_abs_Q>
1

> <r_epik_Metal_State_Penalty>
0.550456

> <b_epik_Metal_Only>
0

> <s_lp_Force_Field>
OPLS_2005

> <r_lp_Energy>
18.3055

> <b_lp_Chiralities_Consistent>
1

> <s_lp_Variant>
AV-unprocessed.smi:3254-1

> <Gold.Version>
5.8.1

> <Gold.Id.Protein>
6NUR|6NUR_protein|mol2

> <Gold.PLP.Fitness>
41.5950

> <Gold.PLP.PLP>
-30.4503

> <Gold.PLP.part.hbond>
-3.0000

> <Gold.PLP.part.metal>
0.0000

> <Gold.PLP.part.buried>
-4.4564

> <Gold.PLP.part.nonpolar>
-22.4400

> <Gold.PLP.part.repulsive>
0.2230

> <Gold.PLP.ligand.clash>
0.0000

> <Gold.PLP.ligand.torsion>
0.3011

> <Gold.PLP.Chemscore.Hbond>
3.4992

> <Gold.PLP.Chemscore.CHOScore>
0.4098

> <Gold.PLP.Chemscore.Metal>
0.0000

> <Gold.Chemscore.Hbonds>
donor molecule, donor type, donor heavy atom, donor atom, acceptor molecule, acceptor atom, score
      L1  H     8    27       P1 10747  0.76
      L1  H    14    37       P1 10186  2.00
      P1  H  6896  6908       L1    18  0.81
      L1  C    12    32       P1 10747  0.25

> <Gold.PLP.Chemscore.Internal.Correction>
0.0199

> <Gold.Rescore>
     Score         DG    S(hbond)    S(metal)    S(lipo)     H(rot)  DE(clash)    DE(int)     intcor
     14.07     -14.57       2.54        0.00      54.98       2.28       0.15       0.35       ----

> <Gold.Chemscore.Fitness>
14.0702

> <Gold.Chemscore.DG>
-14.5705

> <Gold.Chemscore.ZeroCoef>
-5.4800

> <Gold.Chemscore.Hbond>
2.5415

> <Gold.Chemscore.Metal>
0.0000

> <Gold.Chemscore.Lipo>
54.9796

> <Gold.Chemscore.Internal_Hbond>
0.0000

> <Gold.Chemscore.DEClash>
0.1542

> <Gold.Chemscore.DEInternal>
0.3461

> <Gold.Chemscore.Rot>
2.2776

> <Gold.Chemscore.Internal.Correction>
   9.000000E+99

> <Gold.Chemscore.Hbonds>
donor molecule, donor type, donor heavy atom, donor atom, acceptor molecule, acceptor atom, score
      L1  H     8    27       P1 10747  0.64
      L1  H    14    37       P1 10186  0.98
      P1  H  6896  6908       L1    18  0.80

> <Gold.Chemscore.Hbond.Weighted>
-8.4887

> <Gold.Chemscore.Metal.Weighted>
-0.0000

> <Gold.Chemscore.Lipo.Weighted>
-6.4326

> <Gold.Chemscore.Internal_Hbond.Weighted>
0.0000

> <Gold.Chemscore.DEClash.Weighted>
0.1542

> <Gold.Chemscore.DEInternal.Weighted>
0.3461

> <Gold.Chemscore.Rot.Weighted>
5.8307

> <Gold.Chemscore.Internal.Correction.Weighted>
   9.000000E+99

> <Gold.Protein.RotatedTorsions>
[ 6907 6896 6895 6894 ] final   71.76 input  -60.11 | X-H torsion
[ 7974 7965 7964 7962 ] final   83.26 input  175.53 | X-H torsion
[ 8008 7997 7996 7995 ] final  -39.90 input   59.86 | X-H torsion
[ 10167 10162 10161 10158 ] final -175.77 input  -65.29 | X-H torsion
[ 10718 10713 10712 10709 ] final   26.71 input   66.30 | X-H torsion
[ 10763 10752 10751 10750 ] final   54.20 input  -60.55 | X-H torsion
[ 11005 11000 10999 10996 ] final   97.16 input  -57.11 | X-H torsion

> <Gold.Protein.ActiveResidues>
 VAL166  LYS551  ARG553  GLY616  TRP617  ASP618  TYR619  PRO620  LYS621  CYS622 
 ASP623  PHE694  ASN695  SER759  ASP760  ASP761  ALA762  ILE779  LEU786  VAL792 
 PHE793  MET794  SER795  GLU796  ALA797  LYS798  CYS799  TRP800  GLU811  SER814 

> <Gold.Protein.RotatedAtoms>
  152.4828  134.4673  159.9623 H   0  0  0  0  0  0  0  0  0  0  0  0  # atno 6907 bound_to 6896
  151.4675  133.3571  159.2826 H   0  0  0  0  0  0  0  0  0  0  0  0  # atno 6908 bound_to 6896
  150.8915  134.8344  159.7357 H   0  0  0  0  0  0  0  0  0  0  0  0  # atno 6909 bound_to 6896
  145.6143  139.2374  143.2174 H   0  0  0  0  0  0  0  0  0  0  0  0  # atno 7974 bound_to 7965
  154.4018  140.1539  156.2939 H   0  0  0  0  0  0  0  0  0  0  0  0  # atno 8008 bound_to 7997
  155.8760  140.3446  155.5833 H   0  0  0  0  0  0  0  0  0  0  0  0  # atno 8009 bound_to 7997
  155.7720  140.0831  157.2093 H   0  0  0  0  0  0  0  0  0  0  0  0  # atno 8010 bound_to 7997
  139.5563  144.1980  152.1165 H   0  0  0  0  0  0  0  0  0  0  0  0  # atno 10167 bound_to 10162
  157.2105  130.6932  149.6226 H   0  0  0  0  0  0  0  0  0  0  0  0  # atno 10718 bound_to 10713
  152.9802  135.5753  154.4866 H   0  0  0  0  0  0  0  0  0  0  0  0  # atno 10763 bound_to 10752
  154.4407  135.2776  155.1852 H   0  0  0  0  0  0  0  0  0  0  0  0  # atno 10764 bound_to 10752
  154.3521  135.6207  153.5701 H   0  0  0  0  0  0  0  0  0  0  0  0  # atno 10765 bound_to 10752
  139.8777  134.8987  156.4265 H   0  0  0  0  0  0  0  0  0  0  0  0  # atno 11005 bound_to 11000
  146.1480  140.6965  142.9335 LP  0  0  0  0  0  0  0  0  0  0  0  0  # atno 17320 bound_to 7965
  144.7257  140.4516  143.6975 LP  0  0  0  0  0  0  0  0  0  0  0  0  # atno 17321 bound_to 7965
  140.1485  144.5137  150.6701 LP  0  0  0  0  0  0  0  0  0  0  0  0  # atno 17342 bound_to 10162
  140.6837  143.2339  151.5318 LP  0  0  0  0  0  0  0  0  0  0  0  0  # atno 17343 bound_to 10162
  155.9691  130.4553  150.5881 LP  0  0  0  0  0  0  0  0  0  0  0  0  # atno 17370 bound_to 10713
  157.3677  131.0760  151.1584 LP  0  0  0  0  0  0  0  0  0  0  0  0  # atno 17371 bound_to 10713
  140.9097  133.7721  155.9777 LP  0  0  0  0  0  0  0  0  0  0  0  0  # atno 17394 bound_to 11000
  140.8560  134.2897  157.5255 LP  0  0  0  0  0  0  0  0  0  0  0  0  # atno 17395 bound_to 11000

$$$$
