AV-unprocessed.smi:1406|AV-procd|sdf|5713|dock2
  -GOLD-   22720 5343D 1   1.00000     0.00000
 Structure written by MMmdl.
 41 43  0  0  0  0  0  0  0  0  2 V2000
  146.9359  133.6023  151.7512 C   0  0  0  0  0  0  0  0  0  0  0  0
  145.9501  134.2776  150.7760 C   0  0  2  0  0  0  0  0  0  0  0  0
  145.3567  135.5814  151.3334 C   0  0  0  0  0  0  0  0  0  0  0  0
  144.1399  135.7127  151.4695 O   0  0  0  0  0  0  0  0  0  0  0  0
  146.2354  136.5441  151.6552 N   0  0  0  0  0  0  0  0  0  0  0  0
  145.8866  137.8643  152.1711 C   0  0  2  0  0  0  0  0  0  0  0  0
  147.1178  138.7550  152.4139 C   0  0  0  0  0  0  0  0  0  0  0  0
  146.8024  139.5473  153.6980 C   0  0  0  0  0  0  0  0  0  0  0  0
  145.4239  139.1682  154.0627 N   0  3  2  0  0  0  0  0  0  0  0  0
  145.0381  139.3146  155.4831 C   0  0  0  0  0  0  0  0  0  0  0  0
  143.5475  138.9547  155.6441 C   0  0  0  0  0  0  0  0  0  0  0  0
  143.2290  137.5638  155.0589 C   0  0  0  0  0  0  0  0  0  0  0  0
  143.7382  137.4391  153.6100 C   0  0  0  0  0  0  0  0  0  0  0  0
  145.2323  137.8015  153.5540 C   0  0  1  0  0  0  0  0  0  0  0  0
  144.8845  133.3731  150.3622 N   0  0  0  0  0  0  0  0  0  0  0  0
  144.5640  132.9233  149.1468 C   0  0  0  0  0  0  0  0  0  0  0  0
  143.4951  132.1397  149.1268 N   0  0  0  0  0  0  0  0  0  0  0  0
  143.1775  132.1533  150.4554 C   0  0  0  0  0  0  0  0  0  0  0  0
  143.9708  132.8848  151.2379 N   0  0  0  0  0  0  0  0  0  0  0  0
  147.7567  134.2728  152.0084 H   0  0  0  0  0  0  0  0  0  0  0  0
  147.3731  132.7094  151.3037 H   0  0  0  0  0  0  0  0  0  0  0  0
  146.4518  133.3015  152.6813 H   0  0  0  0  0  0  0  0  0  0  0  0
  146.5145  134.5391  149.8789 H   0  0  0  0  0  0  0  0  0  0  0  0
  147.2169  136.3543  151.5124 H   0  0  0  0  0  0  0  0  0  0  0  0
  145.2219  138.3830  151.4765 H   0  0  0  0  0  0  0  0  0  0  0  0
  148.0189  138.1581  152.5630 H   0  0  0  0  0  0  0  0  0  0  0  0
  147.2992  139.4140  151.5640 H   0  0  0  0  0  0  0  0  0  0  0  0
  147.4938  139.2616  154.4924 H   0  0  0  0  0  0  0  0  0  0  0  0
  146.8808  140.6249  153.5518 H   0  0  0  0  0  0  0  0  0  0  0  0
  145.6574  138.6674  156.1062 H   0  0  0  0  0  0  0  0  0  0  0  0
  145.2147  140.3410  155.8065 H   0  0  0  0  0  0  0  0  0  0  0  0
  143.2656  138.9909  156.6968 H   0  0  0  0  0  0  0  0  0  0  0  0
  142.9390  139.7050  155.1372 H   0  0  0  0  0  0  0  0  0  0  0  0
  143.6983  136.7959  155.6751 H   0  0  0  0  0  0  0  0  0  0  0  0
  142.1555  137.3770  155.0975 H   0  0  0  0  0  0  0  0  0  0  0  0
  143.5785  136.4230  153.2489 H   0  0  0  0  0  0  0  0  0  0  0  0
  143.1661  138.0987  152.9561 H   0  0  0  0  0  0  0  0  0  0  0  0
  145.7969  137.1126  154.1868 H   0  0  0  0  0  0  0  0  0  0  0  0
  145.1212  133.1780  148.2571 H   0  0  0  0  0  0  0  0  0  0  0  0
  142.3326  131.6137  150.8572 H   0  0  0  0  0  0  0  0  0  0  0  0
  144.8107  139.7613  153.5220 H   0  0  0  0  0  0  0  0  0  0  0  0
  1  2  1  0  0  0  0
  1 20  1  0  0  0  0
  1 21  1  0  0  0  0
  1 22  1  0  0  0  0
  2  3  1  0  0  0  0
  2 15  1  0  0  0  0
  2 23  1  0  0  0  0
  3  4  2  0  0  0  0
  3  5  1  0  0  0  0
  5  6  1  0  0  0  0
  5 24  1  0  0  0  0
  6 14  1  0  0  0  0
  6  7  1  0  0  0  0
  6 25  1  0  0  0  0
  7  8  1  0  0  0  0
  7 26  1  0  0  0  0
  7 27  1  0  0  0  0
  8  9  1  0  0  0  0
  8 28  1  0  0  0  0
  8 29  1  0  0  0  0
  9 14  1  0  0  0  0
  9 10  1  0  0  0  0
  9 41  1  0  0  0  0
 10 11  1  0  0  0  0
 10 30  1  0  0  0  0
 10 31  1  0  0  0  0
 11 12  1  0  0  0  0
 11 32  1  0  0  0  0
 11 33  1  0  0  0  0
 12 13  1  0  0  0  0
 12 34  1  0  0  0  0
 12 35  1  0  0  0  0
 13 14  1  0  0  0  0
 13 36  1  0  0  0  0
 13 37  1  0  0  0  0
 14 38  1  0  0  0  0
 15 19  1  0  0  0  0
 15 16  1  0  0  0  0
 16 17  2  0  0  0  0
 16 39  1  0  0  0  0
 17 18  1  0  0  0  0
 18 19  2  0  0  0  0
 18 40  1  0  0  0  0
M  CHG  1   9   1
M  END
> <s_m_source_file>
AV-unprocessed.smi

> <i_m_source_file_index>
1406

> <i_lp_mmshare_version>
43012

> <i_f3d_flags>
0

> <s_epik_input>
bjFbY0hdbltjSF1uMVtDQEhdKFtDSDNdKUMoPU8pW05IXVtDQEhdKFtDSDJdW0NIMl0yKVtDQEBIXShOMjMpW0NIMl1bQ0gyXVtDSDJdW0NIMl0z

> <s_epik_cmdline>
J2VwaWtfcHl0aG9uJywgJy1waCcsICc3LjAnLCAnLXRuJywgJzgnLCAnLW1hJywgJzIwMCcsICctbWV0YWxfYmluZGluZycsICctaW1hZScsICc8aW5maWxlLm1hZT4nLCAnLW9tYWUnLCAnPG91dGZpbGUubWFlPic=

> <r_lp_tautomer_probability>
1

> <r_epik_Ionization_Penalty>
0.00197066

> <r_epik_Ionization_Penalty_Charging>
0.00196223

> <r_epik_Ionization_Penalty_Neutral>
8.43107e-06

> <r_epik_State_Penalty>
0.00133866

> <r_epik_Charging_Adjusted_Penalty>
0.00330089

> <i_epik_Tot_Q>
1

> <i_epik_Tot_abs_Q>
1

> <r_epik_Metal_State_Penalty>
-0

> <b_epik_Metal_Only>
0

> <s_lp_Force_Field>
OPLS_2005

> <r_lp_Energy>
39.8757

> <b_lp_Chiralities_Consistent>
1

> <s_lp_Variant>
AV-unprocessed.smi:1406-5

> <Gold.Version>
5.8.1

> <Gold.Id.Protein>
6NUR|6NUR_protein|mol2

> <Gold.PLP.Fitness>
42.9830

> <Gold.PLP.PLP>
-26.2537

> <Gold.PLP.part.hbond>
-3.0000

> <Gold.PLP.part.metal>
0.0000

> <Gold.PLP.part.buried>
1.8193

> <Gold.PLP.part.nonpolar>
-24.3039

> <Gold.PLP.part.repulsive>
0.6940

> <Gold.PLP.ligand.clash>
0.0000

> <Gold.PLP.ligand.torsion>
0.0708

> <Gold.PLP.Chemscore.Hbond>
3.9440

> <Gold.PLP.Chemscore.CHOScore>
1.6424

> <Gold.PLP.Chemscore.Metal>
0.0000

> <Gold.Chemscore.Hbonds>
donor molecule, donor type, donor heavy atom, donor atom, acceptor molecule, acceptor atom, score
      L1  H     5    24       P1  7948  1.00
      L1  H     9    41       P1 10175  2.00
      P1  H 10785 10796       L1    17  0.89
      L1  C    16    39       P1  7921  0.92
      L1  C    18    40       P1 10952  0.72

> <Gold.PLP.Chemscore.Internal.Correction>
0.1117

> <Gold.Rescore>
     Score         DG    S(hbond)    S(metal)    S(lipo)     H(rot)  DE(clash)    DE(int)     intcor
     11.26     -15.48       2.92        0.00      43.35       1.89       1.29       2.93       ----

> <Gold.Chemscore.Fitness>
11.2567

> <Gold.Chemscore.DG>
-15.4785

> <Gold.Chemscore.ZeroCoef>
-5.4800

> <Gold.Chemscore.Hbond>
2.9209

> <Gold.Chemscore.Metal>
0.0000

> <Gold.Chemscore.Lipo>
43.3519

> <Gold.Chemscore.Internal_Hbond>
0.0000

> <Gold.Chemscore.DEClash>
1.2929

> <Gold.Chemscore.DEInternal>
2.9290

> <Gold.Chemscore.Rot>
1.8865

> <Gold.Chemscore.Internal.Correction>
   9.000000E+99

> <Gold.Chemscore.Hbonds>
donor molecule, donor type, donor heavy atom, donor atom, acceptor molecule, acceptor atom, score
      L1  H     5    24       P1  7948  1.00
      L1  H     9    41       P1 10175  1.00
      P1  H 10785 10796       L1    17  0.21

> <Gold.Chemscore.Hbond.Weighted>
-9.7559

> <Gold.Chemscore.Metal.Weighted>
-0.0000

> <Gold.Chemscore.Lipo.Weighted>
-5.0722

> <Gold.Chemscore.Internal_Hbond.Weighted>
0.0000

> <Gold.Chemscore.DEClash.Weighted>
1.2929

> <Gold.Chemscore.DEInternal.Weighted>
2.9290

> <Gold.Chemscore.Rot.Weighted>
4.8295

> <Gold.Chemscore.Internal.Correction.Weighted>
   9.000000E+99

> <Gold.Protein.RotatedTorsions>
[ 6907 6896 6895 6894 ] final  -77.02 input  -60.11 | X-H torsion
[ 7974 7965 7964 7962 ] final -130.68 input  175.53 | X-H torsion
[ 8008 7997 7996 7995 ] final   -1.30 input   59.86 | X-H torsion
[ 10167 10162 10161 10158 ] final -108.69 input  -65.29 | X-H torsion
[ 10718 10713 10712 10709 ] final   21.14 input   66.30 | X-H torsion
[ 10763 10752 10751 10750 ] final -159.28 input  -60.55 | X-H torsion
[ 11005 11000 10999 10996 ] final   31.61 input  -57.11 | X-H torsion

> <Gold.Protein.ActiveResidues>
 VAL166  LYS551  ARG553  GLY616  TRP617  ASP618  TYR619  PRO620  LYS621  CYS622 
 ASP623  PHE694  ASN695  SER759  ASP760  ASP761  ALA762  ILE779  LEU786  VAL792 
 PHE793  MET794  SER795  GLU796  ALA797  LYS798  CYS799  TRP800  GLU811  SER814 

> <Gold.Protein.RotatedAtoms>
  150.7010  134.4484  159.5324 H   0  0  0  0  0  0  0  0  0  0  0  0  # atno 6907 bound_to 6896
  152.2181  134.8436  160.0498 H   0  0  0  0  0  0  0  0  0  0  0  0  # atno 6908 bound_to 6896
  151.9296  133.3572  159.3963 H   0  0  0  0  0  0  0  0  0  0  0  0  # atno 6909 bound_to 6896
  144.9451  140.7282  143.4822 H   0  0  0  0  0  0  0  0  0  0  0  0  # atno 7974 bound_to 7965
  154.6483  140.2562  155.7243 H   0  0  0  0  0  0  0  0  0  0  0  0  # atno 8008 bound_to 7997
  156.2563  140.2873  156.0827 H   0  0  0  0  0  0  0  0  0  0  0  0  # atno 8009 bound_to 7997
  155.1490  140.0382  157.2807 H   0  0  0  0  0  0  0  0  0  0  0  0  # atno 8010 bound_to 7997
  140.1634  143.4101  152.1408 H   0  0  0  0  0  0  0  0  0  0  0  0  # atno 10167 bound_to 10162
  157.1343  130.6604  149.5961 H   0  0  0  0  0  0  0  0  0  0  0  0  # atno 10718 bound_to 10713
  154.7488  135.3087  154.8596 H   0  0  0  0  0  0  0  0  0  0  0  0  # atno 10763 bound_to 10752
  153.9389  135.6777  153.4748 H   0  0  0  0  0  0  0  0  0  0  0  0  # atno 10764 bound_to 10752
  153.1084  135.4878  154.8919 H   0  0  0  0  0  0  0  0  0  0  0  0  # atno 10765 bound_to 10752
  140.2820  134.2961  155.7798 H   0  0  0  0  0  0  0  0  0  0  0  0  # atno 11005 bound_to 11000
  145.2930  139.1877  143.4730 LP  0  0  0  0  0  0  0  0  0  0  0  0  # atno 17320 bound_to 7965
  146.3300  140.2910  142.8615 LP  0  0  0  0  0  0  0  0  0  0  0  0  # atno 17321 bound_to 7965
  139.5370  144.7220  151.4858 LP  0  0  0  0  0  0  0  0  0  0  0  0  # atno 17342 bound_to 10162
  140.6628  143.8461  150.6907 LP  0  0  0  0  0  0  0  0  0  0  0  0  # atno 17343 bound_to 10162
  155.9801  130.4800  150.6756 LP  0  0  0  0  0  0  0  0  0  0  0  0  # atno 17370 bound_to 10713
  157.4364  131.0856  151.0987 LP  0  0  0  0  0  0  0  0  0  0  0  0  # atno 17371 bound_to 10713
  141.2161  133.7531  156.9495 LP  0  0  0  0  0  0  0  0  0  0  0  0  # atno 17394 bound_to 11000
  140.1274  134.9378  157.2289 LP  0  0  0  0  0  0  0  0  0  0  0  0  # atno 17395 bound_to 11000

$$$$
