AV-unprocessed.smi:3212|AV-procd|sdf|12280|dock7
  -GOLD-   2272018113D 1   1.00000     0.00000
 Structure written by MMmdl.
 39 39  0  0  0  0  0  0  0  0  1 V2000
  146.5505  138.7897  151.0691 C   0  0  0  0  0  0  0  0  0  0  0  0
  146.3590  138.2111  152.4808 C   0  0  2  0  0  0  0  0  0  0  0  0
  144.9534  137.8026  152.6615 N   0  0  0  0  0  0  0  0  0  0  0  0
  144.5612  136.6466  151.8627 C   0  0  0  0  0  0  0  0  0  0  0  0
  144.9928  135.3597  152.5796 C   0  0  0  0  0  0  0  0  0  0  0  0
  145.0120  134.2282  151.6731 N   0  0  0  0  0  0  0  0  0  0  0  0
  143.9740  133.7100  150.9276 C   0  0  0  0  0  0  0  0  0  0  0  0
  144.4703  132.6526  150.2204 C   0  0  0  0  0  0  0  0  0  0  0  0
  145.8395  132.6019  150.6051 C   0  0  0  0  0  0  0  0  0  0  0  0
  146.1608  133.5467  151.4741 N   0  0  0  0  0  0  0  0  0  0  0  0
  146.8488  139.2010  153.5525 C   0  0  0  0  0  0  0  0  0  0  0  0
  147.6542  138.8352  154.4086 O   0  0  0  0  0  0  0  0  0  0  0  0
  146.3683  140.4549  153.4639 N   0  0  0  0  0  0  0  0  0  0  0  0
  146.6890  141.6168  154.3006 C   0  0  0  0  0  0  0  0  0  0  0  0
  148.2170  141.7928  154.2546 C   0  0  0  0  0  0  0  0  0  0  0  0
  146.2586  141.3670  155.7617 C   0  0  0  0  0  0  0  0  0  0  0  0
  146.0200  142.8913  153.7444 C   0  0  0  0  0  0  0  0  0  0  0  0
  147.5860  139.0882  150.8999 H   0  0  0  0  0  0  0  0  0  0  0  0
  145.9196  139.6641  150.9021 H   0  0  0  0  0  0  0  0  0  0  0  0
  146.2969  138.0518  150.3074 H   0  0  0  0  0  0  0  0  0  0  0  0
  146.9784  137.3142  152.5422 H   0  0  0  0  0  0  0  0  0  0  0  0
  144.3241  138.5686  152.4691 H   0  0  0  0  0  0  0  0  0  0  0  0
  143.4788  136.6484  151.7258 H   0  0  0  0  0  0  0  0  0  0  0  0
  145.0192  136.6821  150.8736 H   0  0  0  0  0  0  0  0  0  0  0  0
  145.9868  135.4762  153.0147 H   0  0  0  0  0  0  0  0  0  0  0  0
  144.3116  135.1314  153.4005 H   0  0  0  0  0  0  0  0  0  0  0  0
  142.9808  134.1332  150.9606 H   0  0  0  0  0  0  0  0  0  0  0  0
  143.9370  132.0132  149.5328 H   0  0  0  0  0  0  0  0  0  0  0  0
  146.6043  131.9118  150.2801 H   0  0  0  0  0  0  0  0  0  0  0  0
  145.7154  140.6302  152.7141 H   0  0  0  0  0  0  0  0  0  0  0  0
  148.5370  142.6425  154.8587 H   0  0  0  0  0  0  0  0  0  0  0  0
  148.5679  141.9652  153.2363 H   0  0  0  0  0  0  0  0  0  0  0  0
  148.7314  140.9093  154.6347 H   0  0  0  0  0  0  0  0  0  0  0  0
  146.6927  140.4452  156.1510 H   0  0  0  0  0  0  0  0  0  0  0  0
  145.1762  141.2896  155.8636 H   0  0  0  0  0  0  0  0  0  0  0  0
  146.5819  142.1813  156.4110 H   0  0  0  0  0  0  0  0  0  0  0  0
  146.3363  143.7743  154.3005 H   0  0  0  0  0  0  0  0  0  0  0  0
  144.9329  142.8467  153.8094 H   0  0  0  0  0  0  0  0  0  0  0  0
  146.2811  143.0526  152.6980 H   0  0  0  0  0  0  0  0  0  0  0  0
  1  2  1  0  0  0  0
  1 18  1  0  0  0  0
  1 19  1  0  0  0  0
  1 20  1  0  0  0  0
  2  3  1  0  0  0  0
  2 11  1  0  0  0  0
  2 21  1  0  0  0  0
  3  4  1  0  0  0  0
  3 22  1  0  0  0  0
  4  5  1  0  0  0  0
  4 23  1  0  0  0  0
  4 24  1  0  0  0  0
  5  6  1  0  0  0  0
  5 25  1  0  0  0  0
  5 26  1  0  0  0  0
  6 10  1  0  0  0  0
  6  7  1  0  0  0  0
  7  8  2  0  0  0  0
  7 27  1  0  0  0  0
  8  9  1  0  0  0  0
  8 28  1  0  0  0  0
  9 10  2  0  0  0  0
  9 29  1  0  0  0  0
 11 12  2  0  0  0  0
 11 13  1  0  0  0  0
 13 14  1  0  0  0  0
 13 30  1  0  0  0  0
 14 15  1  0  0  0  0
 14 16  1  0  0  0  0
 14 17  1  0  0  0  0
 15 31  1  0  0  0  0
 15 32  1  0  0  0  0
 15 33  1  0  0  0  0
 16 34  1  0  0  0  0
 16 35  1  0  0  0  0
 16 36  1  0  0  0  0
 17 37  1  0  0  0  0
 17 38  1  0  0  0  0
 17 39  1  0  0  0  0
M  END
> <s_m_source_file>
AV-unprocessed.smi

> <i_m_source_file_index>
3212

> <i_lp_mmshare_version>
43012

> <i_f3d_flags>
0

> <s_epik_input>
W0NIM11DKFtDSDNdKShbQ0gzXSlbTkhdQyg9TylbQ0BIXShbQ0gzXSlbTkhdW0NIMl1bQ0gyXW4xW2NIXVtjSF1bY0hdbjE=

> <s_epik_cmdline>
J2VwaWtfcHl0aG9uJywgJy1waCcsICc3LjAnLCAnLXRuJywgJzgnLCAnLW1hJywgJzIwMCcsICctbWV0YWxfYmluZGluZycsICctaW1hZScsICc8aW5maWxlLm1hZT4nLCAnLW9tYWUnLCAnPG91dGZpbGUubWFlPic=

> <r_lp_tautomer_probability>
1

> <r_epik_Ionization_Penalty>
0.745735

> <r_epik_Ionization_Penalty_Charging>
0

> <r_epik_Ionization_Penalty_Neutral>
0.745735

> <r_epik_State_Penalty>
0.771152

> <r_epik_Charging_Adjusted_Penalty>
0.771152

> <i_epik_Tot_Q>
0

> <i_epik_Tot_abs_Q>
0

> <r_epik_Metal_State_Penalty>
0.770403

> <b_epik_Metal_Only>
0

> <s_lp_Force_Field>
OPLS_2005

> <r_lp_Energy>
5.75151

> <b_lp_Chiralities_Consistent>
1

> <s_lp_Variant>
AV-unprocessed.smi:3212-3

> <Gold.Version>
5.8.1

> <Gold.Id.Protein>
6NUR|6NUR_protein|mol2

> <Gold.PLP.Fitness>
41.3655

> <Gold.PLP.PLP>
-30.6794

> <Gold.PLP.part.hbond>
-2.4920

> <Gold.PLP.part.metal>
0.0000

> <Gold.PLP.part.buried>
0.0555

> <Gold.PLP.part.nonpolar>
-29.5830

> <Gold.PLP.part.repulsive>
0.3151

> <Gold.PLP.ligand.clash>
0.0000

> <Gold.PLP.ligand.torsion>
0.4801

> <Gold.PLP.Chemscore.Hbond>
1.8640

> <Gold.PLP.Chemscore.CHOScore>
2.0000

> <Gold.PLP.Chemscore.Metal>
0.0000

> <Gold.Chemscore.Hbonds>
donor molecule, donor type, donor heavy atom, donor atom, acceptor molecule, acceptor atom, score
      L1  H     3    22       P1 10175  1.00
      L1  H    13    30       P1 10175  0.72
      L1  C     7    27       P1 10186  1.00
      L1  C     9    29       P1 10747  0.86

> <Gold.PLP.Chemscore.Internal.Correction>
0.0542

> <Gold.Rescore>
     Score         DG    S(hbond)    S(metal)    S(lipo)     H(rot)  DE(clash)    DE(int)     intcor
     12.83     -14.33       1.76        0.00      68.80       1.99       0.24       1.26       ----

> <Gold.Chemscore.Fitness>
12.8252

> <Gold.Chemscore.DG>
-14.3261

> <Gold.Chemscore.ZeroCoef>
-5.4800

> <Gold.Chemscore.Hbond>
1.7620

> <Gold.Chemscore.Metal>
0.0000

> <Gold.Chemscore.Lipo>
68.8045

> <Gold.Chemscore.Internal_Hbond>
0.0000

> <Gold.Chemscore.DEClash>
0.2419

> <Gold.Chemscore.DEInternal>
1.2590

> <Gold.Chemscore.Rot>
1.9880

> <Gold.Chemscore.Internal.Correction>
   9.000000E+99

> <Gold.Chemscore.Hbonds>
donor molecule, donor type, donor heavy atom, donor atom, acceptor molecule, acceptor atom, score
      L1  H     3    22       P1 10175  0.97
      L1  H    13    30       P1 10175  0.33

> <Gold.Chemscore.Hbond.Weighted>
-5.8852

> <Gold.Chemscore.Metal.Weighted>
-0.0000

> <Gold.Chemscore.Lipo.Weighted>
-8.0501

> <Gold.Chemscore.Internal_Hbond.Weighted>
0.0000

> <Gold.Chemscore.DEClash.Weighted>
0.2419

> <Gold.Chemscore.DEInternal.Weighted>
1.2590

> <Gold.Chemscore.Rot.Weighted>
5.0893

> <Gold.Chemscore.Internal.Correction.Weighted>
   9.000000E+99

> <Gold.Protein.RotatedTorsions>
[ 6907 6896 6895 6894 ] final -121.80 input  -60.11 | X-H torsion
[ 7974 7965 7964 7962 ] final   69.41 input  175.53 | X-H torsion
[ 8008 7997 7996 7995 ] final -107.10 input   59.86 | X-H torsion
[ 10167 10162 10161 10158 ] final  110.60 input  -65.29 | X-H torsion
[ 10718 10713 10712 10709 ] final   -5.30 input   66.30 | X-H torsion
[ 10763 10752 10751 10750 ] final  159.74 input  -60.55 | X-H torsion
[ 11005 11000 10999 10996 ] final  -85.10 input  -57.11 | X-H torsion

> <Gold.Protein.ActiveResidues>
 VAL166  LYS551  ARG553  GLY616  TRP617  ASP618  TYR619  PRO620  LYS621  CYS622 
 ASP623  PHE694  ASN695  SER759  ASP760  ASP761  ALA762  ILE779  LEU786  VAL792 
 PHE793  MET794  SER795  GLU796  ALA797  LYS798  CYS799  TRP800  GLU811  SER814 

> <Gold.Protein.RotatedAtoms>
  150.8517  133.7777  159.3023 H   0  0  0  0  0  0  0  0  0  0  0  0  # atno 6907 bound_to 6896
  151.5447  135.1066  159.9944 H   0  0  0  0  0  0  0  0  0  0  0  0  # atno 6908 bound_to 6896
  152.4558  133.7676  159.6837 H   0  0  0  0  0  0  0  0  0  0  0  0  # atno 6909 bound_to 6896
  145.7907  139.2933  143.1212 H   0  0  0  0  0  0  0  0  0  0  0  0  # atno 7974 bound_to 7965
  154.9243  140.0406  157.2014 H   0  0  0  0  0  0  0  0  0  0  0  0  # atno 8008 bound_to 7997
  154.8223  140.2885  155.5757 H   0  0  0  0  0  0  0  0  0  0  0  0  # atno 8009 bound_to 7997
  156.2981  140.2516  156.3133 H   0  0  0  0  0  0  0  0  0  0  0  0  # atno 8010 bound_to 7997
  139.6676  144.7127  151.1748 H   0  0  0  0  0  0  0  0  0  0  0  0  # atno 10167 bound_to 10162
  156.7486  130.5232  149.5808 H   0  0  0  0  0  0  0  0  0  0  0  0  # atno 10718 bound_to 10713
  154.2366  135.2776  155.2870 H   0  0  0  0  0  0  0  0  0  0  0  0  # atno 10763 bound_to 10752
  154.5580  135.5655  153.6985 H   0  0  0  0  0  0  0  0  0  0  0  0  # atno 10764 bound_to 10752
  153.0009  135.6291  154.2509 H   0  0  0  0  0  0  0  0  0  0  0  0  # atno 10765 bound_to 10752
  141.1644  133.7381  156.8965 H   0  0  0  0  0  0  0  0  0  0  0  0  # atno 11005 bound_to 11000
  145.9979  140.8546  143.0033 LP  0  0  0  0  0  0  0  0  0  0  0  0  # atno 17320 bound_to 7965
  144.6782  140.2310  143.7355 LP  0  0  0  0  0  0  0  0  0  0  0  0  # atno 17321 bound_to 7965
  140.7605  143.5895  150.8811 LP  0  0  0  0  0  0  0  0  0  0  0  0  # atno 17342 bound_to 10162
  139.9557  143.6221  152.3016 LP  0  0  0  0  0  0  0  0  0  0  0  0  # atno 17343 bound_to 10162
  156.1416  130.6248  151.0475 LP  0  0  0  0  0  0  0  0  0  0  0  0  # atno 17370 bound_to 10713
  157.6787  131.0844  150.7427 LP  0  0  0  0  0  0  0  0  0  0  0  0  # atno 17371 bound_to 10713
  140.1612  134.9164  157.2717 LP  0  0  0  0  0  0  0  0  0  0  0  0  # atno 17394 bound_to 11000
  140.2609  134.3572  155.7407 LP  0  0  0  0  0  0  0  0  0  0  0  0  # atno 17395 bound_to 11000

$$$$
