AV-unprocessed.smi:1081|AV-procd|sdf|4711|dock2
  -GOLD-   22720 3233D 1   1.00000     0.00000
 Structure written by MMmdl.
 53 55  0  0  0  0  0  0  0  0  2 V2000
  146.9253  140.1670  153.5703 O   0  0  0  0  0  0  0  0  0  0  0  0
  147.7767  139.3519  153.2174 C   0  0  0  0  0  0  0  0  0  0  0  0
  147.5504  138.4061  152.2934 N   0  0  0  0  0  0  0  0  0  0  0  0
  146.2791  138.1937  151.6022 C   0  0  0  0  0  0  0  0  0  0  0  0
  145.2883  137.3128  152.3885 C   0  0  0  0  0  0  0  0  0  0  0  0
  144.9479  137.6606  153.5212 O   0  0  0  0  0  0  0  0  0  0  0  0
  144.8255  136.1746  151.8155 N   0  0  0  0  0  0  0  0  0  0  0  0
  145.2419  135.6445  150.5091 C   0  0  0  0  0  0  0  0  0  0  0  0
  146.0600  134.3592  150.7309 C   0  0  0  0  0  0  0  0  0  0  0  0
  145.2556  133.3275  151.5439 C   0  0  0  0  0  0  0  0  0  0  0  0
  144.6665  133.9483  152.8242 C   0  0  0  0  0  0  0  0  0  0  0  0
  143.9133  135.2530  152.5068 C   0  0  0  0  0  0  0  0  0  0  0  0
  149.0339  139.2785  153.6895 N   0  0  0  0  0  0  0  0  0  0  0  0
  149.6733  140.0750  154.6801 C   0  0  0  0  0  0  0  0  0  0  0  0
  150.7875  139.5185  155.3418 C   0  0  0  0  0  0  0  0  0  0  0  0
  151.4637  140.2603  156.3320 C   0  0  0  0  0  0  0  0  0  0  0  0
  151.0193  141.5650  156.6629 C   0  0  0  0  0  0  0  0  0  0  0  0
  151.6353  142.3881  157.6327 N   0  0  0  0  0  0  0  0  0  0  0  0
  151.6841  141.9054  159.0143 C   0  0  0  0  0  0  0  0  0  0  0  0
  152.7306  142.6716  159.8421 C   0  0  0  0  0  0  0  0  0  0  0  0
  152.5167  144.1882  159.7446 C   0  0  0  0  0  0  0  0  0  0  0  0
  152.5169  144.6196  158.2719 C   0  0  0  0  0  0  0  0  0  0  0  0
  151.4687  143.8357  157.4645 C   0  0  0  0  0  0  0  0  0  0  0  0
  149.9445  142.0558  155.9999 N   0  3  0  0  0  0  0  0  0  0  0  0
  149.2690  141.3816  155.0448 C   0  0  0  0  0  0  0  0  0  0  0  0
  148.3012  137.7716  152.0643 H   0  0  0  0  0  0  0  0  0  0  0  0
  145.8214  139.1599  151.3835 H   0  0  0  0  0  0  0  0  0  0  0  0
  146.4959  137.7156  150.6466 H   0  0  0  0  0  0  0  0  0  0  0  0
  144.3537  135.4221  149.9161 H   0  0  0  0  0  0  0  0  0  0  0  0
  145.8204  136.3457  149.9107 H   0  0  0  0  0  0  0  0  0  0  0  0
  146.3538  133.9310  149.7723 H   0  0  0  0  0  0  0  0  0  0  0  0
  146.9835  134.6020  151.2586 H   0  0  0  0  0  0  0  0  0  0  0  0
  144.4416  132.9454  150.9267 H   0  0  0  0  0  0  0  0  0  0  0  0
  145.8818  132.4704  151.7929 H   0  0  0  0  0  0  0  0  0  0  0  0
  143.9981  133.2371  153.3105 H   0  0  0  0  0  0  0  0  0  0  0  0
  145.4688  134.1549  153.5338 H   0  0  0  0  0  0  0  0  0  0  0  0
  143.4982  135.6726  153.4239 H   0  0  0  0  0  0  0  0  0  0  0  0
  143.0567  135.0448  151.8640 H   0  0  0  0  0  0  0  0  0  0  0  0
  149.6066  138.5485  153.2913 H   0  0  0  0  0  0  0  0  0  0  0  0
  151.1269  138.5228  155.0951 H   0  0  0  0  0  0  0  0  0  0  0  0
  152.3082  139.8053  156.8271 H   0  0  0  0  0  0  0  0  0  0  0  0
  150.6964  142.0121  159.4648 H   0  0  0  0  0  0  0  0  0  0  0  0
  151.9417  140.8463  159.0370 H   0  0  0  0  0  0  0  0  0  0  0  0
  152.6871  142.3536  160.8840 H   0  0  0  0  0  0  0  0  0  0  0  0
  153.7307  142.4224  159.4848 H   0  0  0  0  0  0  0  0  0  0  0  0
  151.5688  144.4601  160.2107 H   0  0  0  0  0  0  0  0  0  0  0  0
  153.2988  144.7151  160.2918 H   0  0  0  0  0  0  0  0  0  0  0  0
  152.3218  145.6896  158.1952 H   0  0  0  0  0  0  0  0  0  0  0  0
  153.5061  144.4541  157.8429 H   0  0  0  0  0  0  0  0  0  0  0  0
  151.5474  144.1339  156.4193 H   0  0  0  0  0  0  0  0  0  0  0  0
  150.4658  144.1098  157.7936 H   0  0  0  0  0  0  0  0  0  0  0  0
  148.4393  141.9254  154.6218 H   0  0  0  0  0  0  0  0  0  0  0  0
  149.6258  142.9960  156.2339 H   0  0  0  0  0  0  0  0  0  0  0  0
  1  2  2  0  0  0  0
  2  3  1  0  0  0  0
  2 13  1  0  0  0  0
  3  4  1  0  0  0  0
  3 26  1  0  0  0  0
  4  5  1  0  0  0  0
  4 27  1  0  0  0  0
  4 28  1  0  0  0  0
  5  6  2  0  0  0  0
  5  7  1  0  0  0  0
  7 12  1  0  0  0  0
  7  8  1  0  0  0  0
  8  9  1  0  0  0  0
  8 29  1  0  0  0  0
  8 30  1  0  0  0  0
  9 10  1  0  0  0  0
  9 31  1  0  0  0  0
  9 32  1  0  0  0  0
 10 11  1  0  0  0  0
 10 33  1  0  0  0  0
 10 34  1  0  0  0  0
 11 12  1  0  0  0  0
 11 35  1  0  0  0  0
 11 36  1  0  0  0  0
 12 37  1  0  0  0  0
 12 38  1  0  0  0  0
 13 14  1  0  0  0  0
 13 39  1  0  0  0  0
 14 25  1  0  0  0  0
 14 15  2  0  0  0  0
 15 16  1  0  0  0  0
 15 40  1  0  0  0  0
 16 17  2  0  0  0  0
 16 41  1  0  0  0  0
 17 18  1  0  0  0  0
 17 24  1  0  0  0  0
 18 23  1  0  0  0  0
 18 19  1  0  0  0  0
 19 20  1  0  0  0  0
 19 42  1  0  0  0  0
 19 43  1  0  0  0  0
 20 21  1  0  0  0  0
 20 44  1  0  0  0  0
 20 45  1  0  0  0  0
 21 22  1  0  0  0  0
 21 46  1  0  0  0  0
 21 47  1  0  0  0  0
 22 23  1  0  0  0  0
 22 48  1  0  0  0  0
 22 49  1  0  0  0  0
 23 50  1  0  0  0  0
 23 51  1  0  0  0  0
 24 25  2  0  0  0  0
 24 53  1  0  0  0  0
 25 52  1  0  0  0  0
M  CHG  1  24   1
M  END
> <s_m_source_file>
AV-unprocessed.smi

> <i_m_source_file_index>
1081

> <i_lp_mmshare_version>
43012

> <i_f3d_flags>
0

> <s_epik_input>
W0NIMl0xW0NIMl1bQ0gyXVtDSDJdW0NIMl1OMUMoPU8pW0NIMl1bTkhdQyg9TylbTkhdYzJbY0hdW2NIXWMobltjSF0yKU4zW0NIMl1bQ0gyXVtDSDJdW0NIMl1bQ0gyXTM=

> <s_epik_cmdline>
J2VwaWtfcHl0aG9uJywgJy1waCcsICc3LjAnLCAnLXRuJywgJzgnLCAnLW1hJywgJzIwMCcsICctbWV0YWxfYmluZGluZycsICctaW1hZScsICc8aW5maWxlLm1hZT4nLCAnLW9tYWUnLCAnPG91dGZpbGUubWFlPic=

> <r_lp_tautomer_probability>
0.999994

> <r_epik_Ionization_Penalty>
0.629404

> <r_epik_Ionization_Penalty_Charging>
0.629386

> <r_epik_Ionization_Penalty_Neutral>
1.8855e-05

> <r_epik_State_Penalty>
0.646103

> <r_epik_Charging_Adjusted_Penalty>
1.27549

> <i_epik_Tot_Q>
1

> <i_epik_Tot_abs_Q>
1

> <r_epik_Metal_State_Penalty>
0.824278

> <b_epik_Metal_Only>
0

> <s_lp_Force_Field>
OPLS_2005

> <r_lp_Energy>
42.181

> <b_lp_Chiralities_Consistent>
1

> <s_lp_Variant>
AV-unprocessed.smi:1081-2

> <Gold.Version>
5.8.1

> <Gold.Id.Protein>
6NUR|6NUR_protein|mol2

> <Gold.PLP.Fitness>
61.4177

> <Gold.PLP.PLP>
-54.1330

> <Gold.PLP.part.hbond>
-4.0000

> <Gold.PLP.part.metal>
0.0000

> <Gold.PLP.part.buried>
-1.8060

> <Gold.PLP.part.nonpolar>
-49.0521

> <Gold.PLP.part.repulsive>
0.6268

> <Gold.PLP.ligand.clash>
0.0000

> <Gold.PLP.ligand.torsion>
1.0053

> <Gold.PLP.Chemscore.Hbond>
3.0000

> <Gold.PLP.Chemscore.CHOScore>
0.0000

> <Gold.PLP.Chemscore.Metal>
0.0000

> <Gold.Chemscore.Hbonds>
donor molecule, donor type, donor heavy atom, donor atom, acceptor molecule, acceptor atom, score
      L1  H     3    26       P1  7948  1.00
      L1  H    24    53       P1  8028  1.98

> <Gold.PLP.Chemscore.Internal.Correction>
0.2953

> <Gold.Rescore>
     Score         DG    S(hbond)    S(metal)    S(lipo)     H(rot)  DE(clash)    DE(int)     intcor
     20.09     -22.15       1.75        0.00     119.49       1.23       0.12       1.93       ----

> <Gold.Chemscore.Fitness>
20.0928

> <Gold.Chemscore.DG>
-22.1490

> <Gold.Chemscore.ZeroCoef>
-5.4800

> <Gold.Chemscore.Hbond>
1.7456

> <Gold.Chemscore.Metal>
0.0000

> <Gold.Chemscore.Lipo>
119.4859

> <Gold.Chemscore.Internal_Hbond>
0.0000

> <Gold.Chemscore.DEClash>
0.1215

> <Gold.Chemscore.DEInternal>
1.9348

> <Gold.Chemscore.Rot>
1.2269

> <Gold.Chemscore.Internal.Correction>
   9.000000E+99

> <Gold.Chemscore.Hbonds>
donor molecule, donor type, donor heavy atom, donor atom, acceptor molecule, acceptor atom, score
      L1  H     3    26       P1  7948  0.97
      L1  H    24    53       P1  8028  0.93

> <Gold.Chemscore.Hbond.Weighted>
-5.8301

> <Gold.Chemscore.Metal.Weighted>
-0.0000

> <Gold.Chemscore.Lipo.Weighted>
-13.9798

> <Gold.Chemscore.Internal_Hbond.Weighted>
0.0000

> <Gold.Chemscore.DEClash.Weighted>
0.1215

> <Gold.Chemscore.DEInternal.Weighted>
1.9348

> <Gold.Chemscore.Rot.Weighted>
3.1410

> <Gold.Chemscore.Internal.Correction.Weighted>
   9.000000E+99

> <Gold.Protein.RotatedTorsions>
[ 6907 6896 6895 6894 ] final -148.17 input  -60.11 | X-H torsion
[ 7974 7965 7964 7962 ] final  -65.04 input  175.53 | X-H torsion
[ 8008 7997 7996 7995 ] final  -76.35 input   59.86 | X-H torsion
[ 10167 10162 10161 10158 ] final   85.00 input  -65.29 | X-H torsion
[ 10718 10713 10712 10709 ] final   62.98 input   66.30 | X-H torsion
[ 10763 10752 10751 10750 ] final  123.97 input  -60.55 | X-H torsion
[ 11005 11000 10999 10996 ] final   73.47 input  -57.11 | X-H torsion

> <Gold.Protein.ActiveResidues>
 VAL166  LYS551  ARG553  GLY616  TRP617  ASP618  TYR619  PRO620  LYS621  CYS622 
 ASP623  PHE694  ASN695  SER759  ASP760  ASP761  ALA762  ILE779  LEU786  VAL792 
 PHE793  MET794  SER795  GLU796  ALA797  LYS798  CYS799  TRP800  GLU811  SER814 

> <Gold.Protein.RotatedAtoms>
  151.1661  133.4814  159.2593 H   0  0  0  0  0  0  0  0  0  0  0  0  # atno 6907 bound_to 6896
  151.1404  135.0176  159.8633 H   0  0  0  0  0  0  0  0  0  0  0  0  # atno 6908 bound_to 6896
  152.5462  134.1555  159.8589 H   0  0  0  0  0  0  0  0  0  0  0  0  # atno 6909 bound_to 6896
  145.7593  140.8869  143.0438 H   0  0  0  0  0  0  0  0  0  0  0  0  # atno 7974 bound_to 7965
  154.5498  140.0728  156.8648 H   0  0  0  0  0  0  0  0  0  0  0  0  # atno 8008 bound_to 7997
  155.3016  140.3384  155.4229 H   0  0  0  0  0  0  0  0  0  0  0  0  # atno 8009 bound_to 7997
  156.1951  140.1700  156.8001 H   0  0  0  0  0  0  0  0  0  0  0  0  # atno 8010 bound_to 7997
  139.9023  144.6322  150.8624 H   0  0  0  0  0  0  0  0  0  0  0  0  # atno 10167 bound_to 10162
  157.5939  130.9080  149.9657 H   0  0  0  0  0  0  0  0  0  0  0  0  # atno 10718 bound_to 10713
  153.6540  135.3358  155.3108 H   0  0  0  0  0  0  0  0  0  0  0  0  # atno 10763 bound_to 10752
  154.8531  135.4347  154.1874 H   0  0  0  0  0  0  0  0  0  0  0  0  # atno 10764 bound_to 10752
  153.2824  135.7010  153.7447 H   0  0  0  0  0  0  0  0  0  0  0  0  # atno 10765 bound_to 10752
  139.9439  134.7349  156.1030 H   0  0  0  0  0  0  0  0  0  0  0  0  # atno 11005 bound_to 11000
  144.6834  139.9700  143.7482 LP  0  0  0  0  0  0  0  0  0  0  0  0  # atno 17320 bound_to 7965
  146.0280  139.3309  143.0772 LP  0  0  0  0  0  0  0  0  0  0  0  0  # atno 17321 bound_to 7965
  140.7704  143.3427  151.2174 LP  0  0  0  0  0  0  0  0  0  0  0  0  # atno 17342 bound_to 10162
  139.7015  143.9526  152.2907 LP  0  0  0  0  0  0  0  0  0  0  0  0  # atno 17343 bound_to 10162
  156.0998  130.3656  150.0238 LP  0  0  0  0  0  0  0  0  0  0  0  0  # atno 17370 bound_to 10713
  156.8355  130.9407  151.3635 LP  0  0  0  0  0  0  0  0  0  0  0  0  # atno 17371 bound_to 10713
  141.1082  133.6652  156.2916 LP  0  0  0  0  0  0  0  0  0  0  0  0  # atno 17394 bound_to 11000
  140.5884  134.5675  157.5494 LP  0  0  0  0  0  0  0  0  0  0  0  0  # atno 17395 bound_to 11000

$$$$
