AV-unprocessed.smi:2136|AV-procd|sdf|8702|dock1
  -GOLD-   2272011463D 1   1.00000     0.00000
 Structure written by MMmdl.
 42 43  0  0  0  0  0  0  0  0  1 V2000
  152.4425  138.3506  159.8048 C   0  0  0  0  0  0  0  0  0  0  0  0
  152.1449  138.8896  158.0698 S   0  0  0  0  0  0  0  0  0  0  0  0
  153.2968  138.5055  157.2396 O   0  0  0  0  0  0  0  0  0  0  0  0
  150.8018  138.4161  157.7013 O   0  0  0  0  0  0  0  0  0  0  0  0
  152.0916  140.6362  158.1879 N   0  0  0  0  0  0  0  0  0  0  0  0
  152.5536  141.2166  159.4721 C   0  0  0  0  0  0  0  0  0  0  0  0
  152.8639  142.7166  159.3847 C   0  0  0  0  0  0  0  0  0  0  0  0
  151.6820  143.4870  158.8079 C   0  0  0  0  0  0  0  0  0  0  0  0
  151.3859  142.9295  157.4187 C   0  0  0  0  0  0  0  0  0  0  0  0
  151.0481  141.4190  157.4520 C   0  0  1  0  0  0  0  0  0  0  0  0
  150.7504  140.9595  156.0137 C   0  0  0  0  0  0  0  0  0  0  0  0
  151.6032  140.3525  155.3648 O   0  0  0  0  0  0  0  0  0  0  0  0
  149.5334  141.2524  155.5292 N   0  0  0  0  0  0  0  0  0  0  0  0
  149.0381  140.8694  154.2135 C   0  0  0  0  0  0  0  0  0  0  0  0
  147.5013  140.8621  154.1729 C   0  0  0  0  0  0  0  0  0  0  0  0
  146.9585  139.7288  153.3254 C   0  0  0  0  0  0  0  0  0  0  0  0
  146.1576  138.7159  153.8923 C   0  0  0  0  0  0  0  0  0  0  0  0
  145.6733  137.6889  153.0592 C   0  0  0  0  0  0  0  0  0  0  0  0
  146.0120  137.7187  151.6914 C   0  0  0  0  0  0  0  0  0  0  0  0
  146.7793  138.6829  151.1385 N   0  0  0  0  0  0  0  0  0  0  0  0
  147.2395  139.6641  151.9442 C   0  0  0  0  0  0  0  0  0  0  0  0
  152.3593  137.2657  159.8619 H   0  0  0  0  0  0  0  0  0  0  0  0
  151.6977  138.8031  160.4589 H   0  0  0  0  0  0  0  0  0  0  0  0
  153.4374  138.6425  160.1311 H   0  0  0  0  0  0  0  0  0  0  0  0
  151.7900  141.0349  160.2294 H   0  0  0  0  0  0  0  0  0  0  0  0
  153.4571  140.7060  159.8041 H   0  0  0  0  0  0  0  0  0  0  0  0
  153.1104  143.0998  160.3753 H   0  0  0  0  0  0  0  0  0  0  0  0
  153.7473  142.8746  158.7645 H   0  0  0  0  0  0  0  0  0  0  0  0
  150.8083  143.3876  159.4532 H   0  0  0  0  0  0  0  0  0  0  0  0
  151.9164  144.5501  158.7477 H   0  0  0  0  0  0  0  0  0  0  0  0
  150.5579  143.4879  156.9791 H   0  0  0  0  0  0  0  0  0  0  0  0
  152.2500  143.1112  156.7767 H   0  0  0  0  0  0  0  0  0  0  0  0
  150.1246  141.3095  158.0237 H   0  0  0  0  0  0  0  0  0  0  0  0
  148.8924  141.7502  156.1302 H   0  0  0  0  0  0  0  0  0  0  0  0
  149.4246  141.5844  153.4867 H   0  0  0  0  0  0  0  0  0  0  0  0
  149.4362  139.8931  153.9319 H   0  0  0  0  0  0  0  0  0  0  0  0
  147.0965  140.7641  155.1806 H   0  0  0  0  0  0  0  0  0  0  0  0
  147.1313  141.8120  153.7843 H   0  0  0  0  0  0  0  0  0  0  0  0
  145.9168  138.7245  154.9454 H   0  0  0  0  0  0  0  0  0  0  0  0
  145.0564  136.8972  153.4577 H   0  0  0  0  0  0  0  0  0  0  0  0
  145.6577  136.9471  151.0240 H   0  0  0  0  0  0  0  0  0  0  0  0
  147.8474  140.4218  151.4721 H   0  0  0  0  0  0  0  0  0  0  0  0
  1  2  1  0  0  0  0
  1 22  1  0  0  0  0
  1 23  1  0  0  0  0
  1 24  1  0  0  0  0
  2  3  2  0  0  0  0
  2  4  2  0  0  0  0
  2  5  1  0  0  0  0
  5 10  1  0  0  0  0
  5  6  1  0  0  0  0
  6  7  1  0  0  0  0
  6 25  1  0  0  0  0
  6 26  1  0  0  0  0
  7  8  1  0  0  0  0
  7 27  1  0  0  0  0
  7 28  1  0  0  0  0
  8  9  1  0  0  0  0
  8 29  1  0  0  0  0
  8 30  1  0  0  0  0
  9 10  1  0  0  0  0
  9 31  1  0  0  0  0
  9 32  1  0  0  0  0
 10 11  1  0  0  0  0
 10 33  1  0  0  0  0
 11 12  2  0  0  0  0
 11 13  1  0  0  0  0
 13 14  1  0  0  0  0
 13 34  1  0  0  0  0
 14 15  1  0  0  0  0
 14 35  1  0  0  0  0
 14 36  1  0  0  0  0
 15 16  1  0  0  0  0
 15 37  1  0  0  0  0
 15 38  1  0  0  0  0
 16 21  1  0  0  0  0
 16 17  2  0  0  0  0
 17 18  1  0  0  0  0
 17 39  1  0  0  0  0
 18 19  2  0  0  0  0
 18 40  1  0  0  0  0
 19 20  1  0  0  0  0
 19 41  1  0  0  0  0
 20 21  2  0  0  0  0
 21 42  1  0  0  0  0
M  END
> <s_m_source_file>
AV-unprocessed.smi

> <i_m_source_file_index>
2136

> <i_lp_mmshare_version>
43012

> <i_f3d_flags>
0

> <s_epik_input>
W0NIM11TKD1PKSg9TylOMVtDSDJdW0NIMl1bQ0gyXVtDSDJdW0NASF0xQyg9TylbTkhdW0NIMl1bQ0gyXWMyW2NIXVtjSF1bY0hdbltjSF0y

> <s_epik_cmdline>
J2VwaWtfcHl0aG9uJywgJy1waCcsICc3LjAnLCAnLXRuJywgJzgnLCAnLW1hJywgJzIwMCcsICctbWV0YWxfYmluZGluZycsICctaW1hZScsICc8aW5maWxlLm1hZT4nLCAnLW9tYWUnLCAnPG91dGZpbGUubWFlPic=

> <r_epik_Ionization_Penalty>
0.0126915

> <r_epik_Ionization_Penalty_Charging>
0

> <r_epik_Ionization_Penalty_Neutral>
0.0126915

> <r_epik_State_Penalty>
0.0098379

> <r_epik_Charging_Adjusted_Penalty>
0.0098379

> <i_epik_Tot_Q>
0

> <i_epik_Tot_abs_Q>
0

> <r_epik_Metal_State_Penalty>
0.00962913

> <b_epik_Metal_Only>
0

> <s_lp_Force_Field>
OPLS_2005

> <r_lp_Energy>
4.41633

> <b_lp_Chiralities_Consistent>
1

> <s_lp_Variant>
AV-unprocessed.smi:2136-1

> <Gold.Version>
5.8.1

> <Gold.Id.Protein>
6NUR|6NUR_protein|mol2

> <Gold.PLP.Fitness>
44.6834

> <Gold.PLP.PLP>
-36.9437

> <Gold.PLP.part.hbond>
-3.0000

> <Gold.PLP.part.metal>
0.0000

> <Gold.PLP.part.buried>
0.9269

> <Gold.PLP.part.nonpolar>
-35.9143

> <Gold.PLP.part.repulsive>
0.8561

> <Gold.PLP.ligand.clash>
0.0000

> <Gold.PLP.ligand.torsion>
2.2315

> <Gold.PLP.Chemscore.Hbond>
2.7920

> <Gold.PLP.Chemscore.CHOScore>
0.5572

> <Gold.PLP.Chemscore.Metal>
0.0000

> <Gold.Chemscore.Hbonds>
donor molecule, donor type, donor heavy atom, donor atom, acceptor molecule, acceptor atom, score
      P1  H  7954  7966       L1    20  0.99
      P1  H  7989  7998       L1    12  0.86
      P1  H  7997  8010       L1     3  1.00
      L1  C    19    41       P1 10171  0.15
      L1  C    21    42       P1  7957  0.30

> <Gold.PLP.Chemscore.Internal.Correction>
2.1552

> <Gold.Rescore>
     Score         DG    S(hbond)    S(metal)    S(lipo)     H(rot)  DE(clash)    DE(int)     intcor
     17.30     -21.51       2.63        0.00      96.04       1.56       1.87       2.34       ----

> <Gold.Chemscore.Fitness>
17.2990

> <Gold.Chemscore.DG>
-21.5115

> <Gold.Chemscore.ZeroCoef>
-5.4800

> <Gold.Chemscore.Hbond>
2.6347

> <Gold.Chemscore.Metal>
0.0000

> <Gold.Chemscore.Lipo>
96.0369

> <Gold.Chemscore.Internal_Hbond>
0.0000

> <Gold.Chemscore.DEClash>
1.8747

> <Gold.Chemscore.DEInternal>
2.3377

> <Gold.Chemscore.Rot>
1.5643

> <Gold.Chemscore.Internal.Correction>
   9.000000E+99

> <Gold.Chemscore.Hbonds>
donor molecule, donor type, donor heavy atom, donor atom, acceptor molecule, acceptor atom, score
      P1  H  7954  7966       L1    20  0.63
      P1  H  7989  7998       L1    12  0.72
      P1  H  7997  8010       L1     3  0.82

> <Gold.Chemscore.Hbond.Weighted>
-8.7998

> <Gold.Chemscore.Metal.Weighted>
-0.0000

> <Gold.Chemscore.Lipo.Weighted>
-11.2363

> <Gold.Chemscore.Internal_Hbond.Weighted>
0.0000

> <Gold.Chemscore.DEClash.Weighted>
1.8747

> <Gold.Chemscore.DEInternal.Weighted>
2.3377

> <Gold.Chemscore.Rot.Weighted>
4.0046

> <Gold.Chemscore.Internal.Correction.Weighted>
   9.000000E+99

> <Gold.Protein.RotatedTorsions>
[ 6907 6896 6895 6894 ] final   92.19 input  -60.11 | X-H torsion
[ 7974 7965 7964 7962 ] final  163.15 input  175.53 | X-H torsion
[ 8008 7997 7996 7995 ] final   51.38 input   59.86 | X-H torsion
[ 10167 10162 10161 10158 ] final   73.25 input  -65.29 | X-H torsion
[ 10718 10713 10712 10709 ] final  170.49 input   66.30 | X-H torsion
[ 10763 10752 10751 10750 ] final -166.28 input  -60.55 | X-H torsion
[ 11005 11000 10999 10996 ] final   94.17 input  -57.11 | X-H torsion

> <Gold.Protein.ActiveResidues>
 VAL166  LYS551  ARG553  GLY616  TRP617  ASP618  TYR619  PRO620  LYS621  CYS622 
 ASP623  PHE694  ASN695  SER759  ASP760  ASP761  ALA762  ILE779  LEU786  VAL792 
 PHE793  MET794  SER795  GLU796  ALA797  LYS798  CYS799  TRP800  GLU811  SER814 

> <Gold.Protein.RotatedAtoms>
  152.5452  134.1541  159.8530 H   0  0  0  0  0  0  0  0  0  0  0  0  # atno 6907 bound_to 6896
  151.1565  133.4866  159.2602 H   0  0  0  0  0  0  0  0  0  0  0  0  # atno 6908 bound_to 6896
  151.1417  135.0194  159.8684 H   0  0  0  0  0  0  0  0  0  0  0  0  # atno 6909 bound_to 6896
  144.7603  139.8142  143.6335 H   0  0  0  0  0  0  0  0  0  0  0  0  # atno 7974 bound_to 7965
  155.4343  140.3452  155.4283 H   0  0  0  0  0  0  0  0  0  0  0  0  # atno 8008 bound_to 7997
  156.1317  140.1516  156.9085 H   0  0  0  0  0  0  0  0  0  0  0  0  # atno 8009 bound_to 7997
  154.4900  140.0844  156.7553 H   0  0  0  0  0  0  0  0  0  0  0  0  # atno 8010 bound_to 7997
  140.0265  144.5500  150.7541 H   0  0  0  0  0  0  0  0  0  0  0  0  # atno 10167 bound_to 10162
  157.0073  131.0194  151.2813 H   0  0  0  0  0  0  0  0  0  0  0  0  # atno 10718 bound_to 10713
  154.6848  135.2960  154.9562 H   0  0  0  0  0  0  0  0  0  0  0  0  # atno 10763 bound_to 10752
  154.0545  135.6640  153.4808 H   0  0  0  0  0  0  0  0  0  0  0  0  # atno 10764 bound_to 10752
  153.0572  135.5137  154.7910 H   0  0  0  0  0  0  0  0  0  0  0  0  # atno 10765 bound_to 10752
  139.8801  134.8830  156.3824 H   0  0  0  0  0  0  0  0  0  0  0  0  # atno 11005 bound_to 11000
  146.1658  139.4790  142.9959 LP  0  0  0  0  0  0  0  0  0  0  0  0  # atno 17320 bound_to 7965
  145.6642  141.0233  143.1692 LP  0  0  0  0  0  0  0  0  0  0  0  0  # atno 17321 bound_to 7965
  140.7320  143.2701  151.3916 LP  0  0  0  0  0  0  0  0  0  0  0  0  # atno 17342 bound_to 10162
  139.6105  144.1109  152.2293 LP  0  0  0  0  0  0  0  0  0  0  0  0  # atno 17343 bound_to 10162
  157.5346  130.8080  149.7957 LP  0  0  0  0  0  0  0  0  0  0  0  0  # atno 17370 bound_to 10713
  156.0149  130.3818  150.2144 LP  0  0  0  0  0  0  0  0  0  0  0  0  # atno 17371 bound_to 10713
  140.9389  133.7528  156.0121 LP  0  0  0  0  0  0  0  0  0  0  0  0  # atno 17394 bound_to 11000
  140.8242  134.3253  157.5371 LP  0  0  0  0  0  0  0  0  0  0  0  0  # atno 17395 bound_to 11000

$$$$
