AV-unprocessed.smi:2511|AV-procd|sdf|9889|dock6
  -GOLD-   2272013523D 1   1.00000     0.00000
 Structure written by MMmdl.
 40 41  0  0  0  0  0  0  0  0  1 V2000
  142.6228  132.4456  150.5507 N   0  0  0  0  0  0  0  0  0  0  0  0
  143.8395  132.5993  151.0841 C   0  0  0  0  0  0  0  0  0  0  0  0
  144.6706  131.6923  151.0910 O   0  0  0  0  0  0  0  0  0  0  0  0
  144.1574  133.9620  151.6402 C   0  0  0  0  0  0  0  0  0  0  0  0
  145.4190  134.2071  152.2286 C   0  0  0  0  0  0  0  0  0  0  0  0
  145.6964  135.4853  152.7496 C   0  0  0  0  0  0  0  0  0  0  0  0
  144.7033  136.4892  152.6653 C   0  0  0  0  0  0  0  0  0  0  0  0
  144.8519  137.8118  153.1635 N   0  0  0  0  0  0  0  0  0  0  0  0
  145.7266  138.2781  154.0763 C   0  0  0  0  0  0  0  0  0  0  0  0
  146.5684  137.5938  154.6536 O   0  0  0  0  0  0  0  0  0  0  0  0
  145.6298  139.5998  154.3100 N   0  0  0  0  0  0  0  0  0  0  0  0
  146.4149  140.4303  155.2297 C   0  0  1  0  0  0  0  0  0  0  0  0
  147.6514  140.9950  154.5045 C   0  0  0  0  0  0  0  0  0  0  0  0
  147.2767  142.0663  153.4664 C   0  0  0  0  0  0  0  0  0  0  0  0
  146.4448  143.1930  154.0988 C   0  0  0  0  0  0  0  0  0  0  0  0
  145.1792  142.6471  154.7931 C   0  0  2  0  0  0  0  0  0  0  0  0
  144.3294  143.7734  155.4171 C   0  0  0  0  0  0  0  0  0  0  0  0
  143.1853  143.2911  155.9034 F   0  0  0  0  0  0  0  0  0  0  0  0
  145.0039  144.3605  156.4057 F   0  0  0  0  0  0  0  0  0  0  0  0
  144.0512  144.6976  154.4975 F   0  0  0  0  0  0  0  0  0  0  0  0
  145.5678  141.5730  155.8344 C   0  0  0  0  0  0  0  0  0  0  0  0
  143.4698  136.1407  152.0794 C   0  0  0  0  0  0  0  0  0  0  0  0
  143.1988  134.9180  151.5768 N   0  0  0  0  0  0  0  0  0  0  0  0
  142.3497  131.5538  150.1648 H   0  0  0  0  0  0  0  0  0  0  0  0
  141.9830  133.2268  150.5420 H   0  0  0  0  0  0  0  0  0  0  0  0
  146.1699  133.4323  152.2853 H   0  0  0  0  0  0  0  0  0  0  0  0
  146.6554  135.6612  153.2109 H   0  0  0  0  0  0  0  0  0  0  0  0
  144.2665  138.5065  152.7229 H   0  0  0  0  0  0  0  0  0  0  0  0
  144.9275  140.0924  153.7771 H   0  0  0  0  0  0  0  0  0  0  0  0
  146.7785  139.7966  156.0403 H   0  0  0  0  0  0  0  0  0  0  0  0
  148.3263  141.4348  155.2400 H   0  0  0  0  0  0  0  0  0  0  0  0
  148.2100  140.1895  154.0260 H   0  0  0  0  0  0  0  0  0  0  0  0
  148.1815  142.4803  153.0207 H   0  0  0  0  0  0  0  0  0  0  0  0
  146.7146  141.6112  152.6501 H   0  0  0  0  0  0  0  0  0  0  0  0
  147.0580  143.7356  154.8195 H   0  0  0  0  0  0  0  0  0  0  0  0
  146.1686  143.9125  153.3276 H   0  0  0  0  0  0  0  0  0  0  0  0
  144.5643  142.1673  154.0300 H   0  0  0  0  0  0  0  0  0  0  0  0
  144.6724  141.1686  156.3069 H   0  0  0  0  0  0  0  0  0  0  0  0
  146.1378  142.0437  156.6364 H   0  0  0  0  0  0  0  0  0  0  0  0
  142.6740  136.8675  152.0051 H   0  0  0  0  0  0  0  0  0  0  0  0
  1  2  1  0  0  0  0
  1 24  1  0  0  0  0
  1 25  1  0  0  0  0
  2  3  2  0  0  0  0
  2  4  1  0  0  0  0
  4 23  1  0  0  0  0
  4  5  2  0  0  0  0
  5  6  1  0  0  0  0
  5 26  1  0  0  0  0
  6  7  2  0  0  0  0
  6 27  1  0  0  0  0
  7  8  1  0  0  0  0
  7 22  1  0  0  0  0
  8  9  1  0  0  0  0
  8 28  1  0  0  0  0
  9 10  2  0  0  0  0
  9 11  1  0  0  0  0
 11 12  1  0  0  0  0
 11 29  1  0  0  0  0
 12 21  1  0  0  0  0
 12 13  1  0  0  0  0
 12 30  1  0  0  0  0
 13 14  1  0  0  0  0
 13 31  1  0  0  0  0
 13 32  1  0  0  0  0
 14 15  1  0  0  0  0
 14 33  1  0  0  0  0
 14 34  1  0  0  0  0
 15 16  1  0  0  0  0
 15 35  1  0  0  0  0
 15 36  1  0  0  0  0
 16 17  1  0  0  0  0
 16 21  1  0  0  0  0
 16 37  1  0  0  0  0
 17 18  1  0  0  0  0
 17 19  1  0  0  0  0
 17 20  1  0  0  0  0
 21 38  1  0  0  0  0
 21 39  1  0  0  0  0
 22 23  2  0  0  0  0
 22 40  1  0  0  0  0
M  END
> <s_m_source_file>
AV-unprocessed.smi

> <i_m_source_file_index>
2511

> <i_lp_mmshare_version>
43012

> <i_f3d_flags>
0

> <s_epik_input>
W05IMl1DKD1PKWMxW2NIXVtjSF1jKFtjSF1uMSlbTkhdQyg9TylbTkhdW0NAQEhdMltDSDJdW0NIMl1bQ0gyXVtDQEBIXShDKEYpKEYpRilbQ0gyXTI=

> <s_epik_cmdline>
J2VwaWtfcHl0aG9uJywgJy1waCcsICc3LjAnLCAnLXRuJywgJzgnLCAnLW1hJywgJzIwMCcsICctbWV0YWxfYmluZGluZycsICctaW1hZScsICc8aW5maWxlLm1hZT4nLCAnLW9tYWUnLCAnPG91dGZpbGUubWFlPic=

> <r_lp_tautomer_probability>
1

> <r_epik_Ionization_Penalty>
4.28758e-05

> <r_epik_Ionization_Penalty_Charging>
0

> <r_epik_Ionization_Penalty_Neutral>
4.28758e-05

> <r_epik_State_Penalty>
-0

> <r_epik_Charging_Adjusted_Penalty>
0

> <i_epik_Tot_Q>
0

> <i_epik_Tot_abs_Q>
0

> <r_epik_Metal_State_Penalty>
-0

> <b_epik_Metal_Only>
0

> <s_lp_Force_Field>
OPLS_2005

> <r_lp_Energy>
27.7433

> <b_lp_Chiralities_Consistent>
1

> <s_lp_Variant>
AV-unprocessed.smi:2511-4

> <Gold.Version>
5.8.1

> <Gold.Id.Protein>
6NUR|6NUR_protein|mol2

> <Gold.PLP.Fitness>
40.3089

> <Gold.PLP.PLP>
-29.6410

> <Gold.PLP.part.hbond>
-4.0000

> <Gold.PLP.part.metal>
0.0000

> <Gold.PLP.part.buried>
-6.6803

> <Gold.PLP.part.nonpolar>
-19.9571

> <Gold.PLP.part.repulsive>
1.3104

> <Gold.PLP.ligand.clash>
0.0000

> <Gold.PLP.ligand.torsion>
0.4846

> <Gold.PLP.Chemscore.Hbond>
3.8709

> <Gold.PLP.Chemscore.CHOScore>
0.0000

> <Gold.PLP.Chemscore.Metal>
0.0000

> <Gold.Chemscore.Hbonds>
donor molecule, donor type, donor heavy atom, donor atom, acceptor molecule, acceptor atom, score
      L1  H     1    24       P1 10952  0.92
      L1  H     1    25       P1 10186  0.96
      L1  H     8    28       P1 10175  0.96
      L1  H    11    29       P1 10175  1.00

> <Gold.PLP.Chemscore.Internal.Correction>
0.0246

> <Gold.Rescore>
     Score         DG    S(hbond)    S(metal)    S(lipo)     H(rot)  DE(clash)    DE(int)     intcor
     18.16     -21.28       3.67        0.00      52.29       1.00       1.52       1.60       ----

> <Gold.Chemscore.Fitness>
18.1583

> <Gold.Chemscore.DG>
-21.2820

> <Gold.Chemscore.ZeroCoef>
-5.4800

> <Gold.Chemscore.Hbond>
3.6660

> <Gold.Chemscore.Metal>
0.0000

> <Gold.Chemscore.Lipo>
52.2864

> <Gold.Chemscore.Internal_Hbond>
0.0000

> <Gold.Chemscore.DEClash>
1.5196

> <Gold.Chemscore.DEInternal>
1.6041

> <Gold.Chemscore.Rot>
1.0000

> <Gold.Chemscore.Internal.Correction>
   9.000000E+99

> <Gold.Chemscore.Hbonds>
donor molecule, donor type, donor heavy atom, donor atom, acceptor molecule, acceptor atom, score
      L1  H     1    24       P1 10952  0.68
      L1  H     1    25       P1 10186  0.91
      L1  H     8    28       P1 10175  0.88
      L1  H    11    29       P1 10175  1.00

> <Gold.Chemscore.Hbond.Weighted>
-12.2445

> <Gold.Chemscore.Metal.Weighted>
-0.0000

> <Gold.Chemscore.Lipo.Weighted>
-6.1175

> <Gold.Chemscore.Internal_Hbond.Weighted>
0.0000

> <Gold.Chemscore.DEClash.Weighted>
1.5196

> <Gold.Chemscore.DEInternal.Weighted>
1.6041

> <Gold.Chemscore.Rot.Weighted>
2.5600

> <Gold.Chemscore.Internal.Correction.Weighted>
   9.000000E+99

> <Gold.Protein.RotatedTorsions>
[ 6907 6896 6895 6894 ] final  136.32 input  -60.11 | X-H torsion
[ 7974 7965 7964 7962 ] final   18.38 input  175.53 | X-H torsion
[ 8008 7997 7996 7995 ] final  -90.31 input   59.86 | X-H torsion
[ 10167 10162 10161 10158 ] final    0.87 input  -65.29 | X-H torsion
[ 10718 10713 10712 10709 ] final  119.85 input   66.30 | X-H torsion
[ 10763 10752 10751 10750 ] final  -91.60 input  -60.55 | X-H torsion
[ 11005 11000 10999 10996 ] final  140.19 input  -57.11 | X-H torsion

> <Gold.Protein.ActiveResidues>
 VAL166  LYS551  ARG553  GLY616  TRP617  ASP618  TYR619  PRO620  LYS621  CYS622 
 ASP623  PHE694  ASN695  SER759  ASP760  ASP761  ALA762  ILE779  LEU786  VAL792 
 PHE793  MET794  SER795  GLU796  ALA797  LYS798  CYS799  TRP800  GLU811  SER814 

> <Gold.Protein.RotatedAtoms>
  152.2907  133.5558  159.5555 H   0  0  0  0  0  0  0  0  0  0  0  0  # atno 6907 bound_to 6896
  150.7234  134.0433  159.3782 H   0  0  0  0  0  0  0  0  0  0  0  0  # atno 6908 bound_to 6896
  151.8339  135.0612  160.0491 H   0  0  0  0  0  0  0  0  0  0  0  0  # atno 6909 bound_to 6896
  146.2187  139.8466  142.8630 H   0  0  0  0  0  0  0  0  0  0  0  0  # atno 7974 bound_to 7965
  154.6970  140.0532  157.0421 H   0  0  0  0  0  0  0  0  0  0  0  0  # atno 8008 bound_to 7997
  155.0737  140.3202  155.4604 H   0  0  0  0  0  0  0  0  0  0  0  0  # atno 8009 bound_to 7997
  156.2747  140.2077  156.5864 H   0  0  0  0  0  0  0  0  0  0  0  0  # atno 8010 bound_to 7997
  140.6709  143.7051  150.7921 H   0  0  0  0  0  0  0  0  0  0  0  0  # atno 10167 bound_to 10162
  157.5932  131.1061  150.7954 H   0  0  0  0  0  0  0  0  0  0  0  0  # atno 10718 bound_to 10713
  154.6777  135.5262  153.8221 H   0  0  0  0  0  0  0  0  0  0  0  0  # atno 10763 bound_to 10752
  153.0543  135.6544  154.0625 H   0  0  0  0  0  0  0  0  0  0  0  0  # atno 10764 bound_to 10752
  154.0516  135.2969  155.3319 H   0  0  0  0  0  0  0  0  0  0  0  0  # atno 10765 bound_to 10752
  140.0309  134.9352  157.0660 H   0  0  0  0  0  0  0  0  0  0  0  0  # atno 11005 bound_to 11000
  145.2845  141.0148  143.3698 LP  0  0  0  0  0  0  0  0  0  0  0  0  # atno 17320 bound_to 7965
  144.9125  139.4511  143.6580 LP  0  0  0  0  0  0  0  0  0  0  0  0  # atno 17321 bound_to 7965
  140.0736  143.5037  152.2567 LP  0  0  0  0  0  0  0  0  0  0  0  0  # atno 17342 bound_to 10162
  139.5977  144.7572  151.3246 LP  0  0  0  0  0  0  0  0  0  0  0  0  # atno 17343 bound_to 10162
  156.8371  130.5035  149.5325 LP  0  0  0  0  0  0  0  0  0  0  0  0  # atno 17370 bound_to 10713
  156.0990  130.5955  150.9863 LP  0  0  0  0  0  0  0  0  0  0  0  0  # atno 17371 bound_to 10713
  140.4227  134.1863  155.7165 LP  0  0  0  0  0  0  0  0  0  0  0  0  # atno 17394 bound_to 11000
  141.1830  133.8373  157.1189 LP  0  0  0  0  0  0  0  0  0  0  0  0  # atno 17395 bound_to 11000

$$$$
