AV-unprocessed.smi:3318|AV-procd|sdf|12764|dock1
  -GOLD-   2272019103D 1   1.00000     0.00000
 Structure written by MMmdl.
 44 45  0  0  0  0  0  0  0  0  2 V2000
  151.9726  141.1611  158.6163 C   0  0  0  0  0  0  0  0  0  0  0  0
  151.7540  140.6364  157.1910 C   0  0  0  0  0  0  0  0  0  0  0  0
  150.6987  141.4373  156.4032 C   0  0  0  0  0  0  0  0  0  0  0  0
  150.2342  140.7430  155.2012 N   0  0  0  0  0  0  0  0  0  0  0  0
  148.9294  141.2857  154.8166 C   0  0  0  0  0  0  0  0  0  0  0  0
  148.4571  140.6540  153.4960 C   0  0  0  0  0  0  0  0  0  0  0  0
  148.3449  139.1278  153.6227 C   0  0  0  0  0  0  0  0  0  0  0  0
  147.9748  138.5353  152.3184 N   0  3  0  0  0  0  0  0  0  0  0  0
  146.5597  138.7037  151.9274 C   0  0  0  0  0  0  0  0  0  0  0  0
  145.6294  137.9831  152.9129 C   0  0  0  0  0  0  0  0  0  0  0  0
  144.9325  136.7925  152.2815 C   0  0  0  0  0  0  0  0  0  0  0  0
  143.8086  136.2033  152.8991 C   0  0  0  0  0  0  0  0  0  0  0  0
  143.2009  135.0984  152.2713 C   0  0  0  0  0  0  0  0  0  0  0  0
  143.7387  134.6275  151.0581 C   0  0  0  0  0  0  0  0  0  0  0  0
  144.8643  135.2850  150.5234 C   0  0  0  0  0  0  0  0  0  0  0  0
  145.4548  136.3450  151.1175 N   0  0  0  0  0  0  0  0  0  0  0  0
  149.6845  138.5796  154.1456 C   0  0  0  0  0  0  0  0  0  0  0  0
  150.1121  139.3004  155.4365 C   0  0  0  0  0  0  0  0  0  0  0  0
  152.6844  140.5350  159.1547 H   0  0  0  0  0  0  0  0  0  0  0  0
  151.0404  141.1663  159.1817 H   0  0  0  0  0  0  0  0  0  0  0  0
  152.3669  142.1775  158.6090 H   0  0  0  0  0  0  0  0  0  0  0  0
  152.7040  140.5966  156.6599 H   0  0  0  0  0  0  0  0  0  0  0  0
  151.4160  139.6020  157.2569 H   0  0  0  0  0  0  0  0  0  0  0  0
  149.8481  141.6765  157.0434 H   0  0  0  0  0  0  0  0  0  0  0  0
  151.1475  142.3909  156.1210 H   0  0  0  0  0  0  0  0  0  0  0  0
  148.1985  141.1105  155.6079 H   0  0  0  0  0  0  0  0  0  0  0  0
  149.0054  142.3661  154.6851 H   0  0  0  0  0  0  0  0  0  0  0  0
  147.4928  141.0772  153.2125 H   0  0  0  0  0  0  0  0  0  0  0  0
  149.1561  140.9154  152.6996 H   0  0  0  0  0  0  0  0  0  0  0  0
  147.5566  138.9027  154.3427 H   0  0  0  0  0  0  0  0  0  0  0  0
  148.5383  138.9822  151.6093 H   0  0  0  0  0  0  0  0  0  0  0  0
  146.3109  139.7644  151.8955 H   0  0  0  0  0  0  0  0  0  0  0  0
  146.4130  138.3056  150.9225 H   0  0  0  0  0  0  0  0  0  0  0  0
  146.1956  137.6465  153.7825 H   0  0  0  0  0  0  0  0  0  0  0  0
  144.8734  138.6745  153.2884 H   0  0  0  0  0  0  0  0  0  0  0  0
  143.4186  136.5859  153.8309 H   0  0  0  0  0  0  0  0  0  0  0  0
  142.3381  134.6212  152.7122 H   0  0  0  0  0  0  0  0  0  0  0  0
  143.2986  133.7827  150.5488 H   0  0  0  0  0  0  0  0  0  0  0  0
  145.3027  134.9501  149.5949 H   0  0  0  0  0  0  0  0  0  0  0  0
  149.6096  137.5108  154.3459 H   0  0  0  0  0  0  0  0  0  0  0  0
  150.4610  138.6996  153.3884 H   0  0  0  0  0  0  0  0  0  0  0  0
  151.0642  138.8849  155.7630 H   0  0  0  0  0  0  0  0  0  0  0  0
  149.3914  139.1088  156.2334 H   0  0  0  0  0  0  0  0  0  0  0  0
  148.2007  137.5510  152.3329 H   0  0  0  0  0  0  0  0  0  0  0  0
  1  2  1  0  0  0  0
  1 19  1  0  0  0  0
  1 20  1  0  0  0  0
  1 21  1  0  0  0  0
  2  3  1  0  0  0  0
  2 22  1  0  0  0  0
  2 23  1  0  0  0  0
  3  4  1  0  0  0  0
  3 24  1  0  0  0  0
  3 25  1  0  0  0  0
  4 18  1  0  0  0  0
  4  5  1  0  0  0  0
  5  6  1  0  0  0  0
  5 26  1  0  0  0  0
  5 27  1  0  0  0  0
  6  7  1  0  0  0  0
  6 28  1  0  0  0  0
  6 29  1  0  0  0  0
  7  8  1  0  0  0  0
  7 17  1  0  0  0  0
  7 30  1  0  0  0  0
  8  9  1  0  0  0  0
  8 31  1  0  0  0  0
  8 44  1  0  0  0  0
  9 10  1  0  0  0  0
  9 32  1  0  0  0  0
  9 33  1  0  0  0  0
 10 11  1  0  0  0  0
 10 34  1  0  0  0  0
 10 35  1  0  0  0  0
 11 16  1  0  0  0  0
 11 12  2  0  0  0  0
 12 13  1  0  0  0  0
 12 36  1  0  0  0  0
 13 14  2  0  0  0  0
 13 37  1  0  0  0  0
 14 15  1  0  0  0  0
 14 38  1  0  0  0  0
 15 16  2  0  0  0  0
 15 39  1  0  0  0  0
 17 18  1  0  0  0  0
 17 40  1  0  0  0  0
 17 41  1  0  0  0  0
 18 42  1  0  0  0  0
 18 43  1  0  0  0  0
M  CHG  1   8   1
M  END
> <s_m_source_file>
AV-unprocessed.smi

> <i_m_source_file_index>
3318

> <i_lp_mmshare_version>
43012

> <i_f3d_flags>
0

> <s_epik_input>
W0NIM11bQ0gyXVtDSDJdTjFbQ0gyXVtDSDJdW0NIXShbQ0gyXVtDSDJdMSlbTkhdW0NIMl1bQ0gyXWMyW2NIXVtjSF1bY0hdW2NIXW4y

> <s_epik_cmdline>
J2VwaWtfcHl0aG9uJywgJy1waCcsICc3LjAnLCAnLXRuJywgJzgnLCAnLW1hJywgJzIwMCcsICctbWV0YWxfYmluZGluZycsICctaW1hZScsICc8aW5maWxlLm1hZT4nLCAnLW9tYWUnLCAnPG91dGZpbGUubWFlPic=

> <r_epik_Ionization_Penalty>
1.50803

> <r_epik_Ionization_Penalty_Charging>
0.000531593

> <r_epik_Ionization_Penalty_Neutral>
1.5075

> <r_epik_State_Penalty>
1.60727

> <r_epik_Charging_Adjusted_Penalty>
1.6078

> <i_epik_Tot_Q>
1

> <i_epik_Tot_abs_Q>
1

> <r_epik_Metal_State_Penalty>
1.6087

> <b_epik_Metal_Only>
0

> <s_lp_Force_Field>
OPLS_2005

> <r_lp_Energy>
19.6285

> <b_lp_Chiralities_Consistent>
1

> <s_lp_Variant>
AV-unprocessed.smi:3318-3

> <Gold.Version>
5.8.1

> <Gold.Id.Protein>
6NUR|6NUR_protein|mol2

> <Gold.PLP.Fitness>
45.2047

> <Gold.PLP.PLP>
-32.8390

> <Gold.PLP.part.hbond>
-2.8155

> <Gold.PLP.part.metal>
0.0000

> <Gold.PLP.part.buried>
1.1417

> <Gold.PLP.part.nonpolar>
-30.6540

> <Gold.PLP.part.repulsive>
0.4205

> <Gold.PLP.ligand.clash>
0.0217

> <Gold.PLP.ligand.torsion>
0.9640

> <Gold.PLP.Chemscore.Hbond>
3.7238

> <Gold.PLP.Chemscore.CHOScore>
1.0000

> <Gold.PLP.Chemscore.Metal>
0.0000

> <Gold.Chemscore.Hbonds>
donor molecule, donor type, donor heavy atom, donor atom, acceptor molecule, acceptor atom, score
      L1  H     8    31       P1  7957  1.00
      L1  H     8    44       P1  7948  2.00
      P1  H  7989  7998       L1     4  0.50
      L1  C    15    39       P1  7921  1.00

> <Gold.PLP.Chemscore.Internal.Correction>
0.1439

> <Gold.Rescore>
     Score         DG    S(hbond)    S(metal)    S(lipo)     H(rot)  DE(clash)    DE(int)     intcor
     18.17     -19.08       1.94        0.00      93.21       1.48       0.08       0.83       ----

> <Gold.Chemscore.Fitness>
18.1713

> <Gold.Chemscore.DG>
-19.0777

> <Gold.Chemscore.ZeroCoef>
-5.4800

> <Gold.Chemscore.Hbond>
1.9436

> <Gold.Chemscore.Metal>
0.0000

> <Gold.Chemscore.Lipo>
93.2085

> <Gold.Chemscore.Internal_Hbond>
0.0000

> <Gold.Chemscore.DEClash>
0.0786

> <Gold.Chemscore.DEInternal>
0.8279

> <Gold.Chemscore.Rot>
1.4840

> <Gold.Chemscore.Internal.Correction>
   9.000000E+99

> <Gold.Chemscore.Hbonds>
donor molecule, donor type, donor heavy atom, donor atom, acceptor molecule, acceptor atom, score
      L1  H     8    31       P1  7957  0.64
      L1  H     8    44       P1  7948  0.94
      P1  H  7989  7998       L1     4  0.13

> <Gold.Chemscore.Hbond.Weighted>
-6.4915

> <Gold.Chemscore.Metal.Weighted>
-0.0000

> <Gold.Chemscore.Lipo.Weighted>
-10.9054

> <Gold.Chemscore.Internal_Hbond.Weighted>
0.0000

> <Gold.Chemscore.DEClash.Weighted>
0.0786

> <Gold.Chemscore.DEInternal.Weighted>
0.8279

> <Gold.Chemscore.Rot.Weighted>
3.7991

> <Gold.Chemscore.Internal.Correction.Weighted>
   9.000000E+99

> <Gold.Protein.RotatedTorsions>
[ 6907 6896 6895 6894 ] final  -84.23 input  -60.11 | X-H torsion
[ 7974 7965 7964 7962 ] final -157.88 input  175.53 | X-H torsion
[ 8008 7997 7996 7995 ] final  143.60 input   59.86 | X-H torsion
[ 10167 10162 10161 10158 ] final -140.37 input  -65.29 | X-H torsion
[ 10718 10713 10712 10709 ] final   27.24 input   66.30 | X-H torsion
[ 10763 10752 10751 10750 ] final   74.61 input  -60.55 | X-H torsion
[ 11005 11000 10999 10996 ] final  -95.41 input  -57.11 | X-H torsion

> <Gold.Protein.ActiveResidues>
 VAL166  LYS551  ARG553  GLY616  TRP617  ASP618  TYR619  PRO620  LYS621  CYS622 
 ASP623  PHE694  ASN695  SER759  ASP760  ASP761  ALA762  ILE779  LEU786  VAL792 
 PHE793  MET794  SER795  GLU796  ALA797  LYS798  CYS799  TRP800  GLU811  SER814 

> <Gold.Protein.RotatedAtoms>
  150.6878  134.3390  159.4859 H   0  0  0  0  0  0  0  0  0  0  0  0  # atno 6907 bound_to 6896
  152.1245  134.9178  160.0571 H   0  0  0  0  0  0  0  0  0  0  0  0  # atno 6908 bound_to 6896
  152.0371  133.3927  159.4358 H   0  0  0  0  0  0  0  0  0  0  0  0  # atno 6909 bound_to 6896
  144.7529  140.3907  143.6034 H   0  0  0  0  0  0  0  0  0  0  0  0  # atno 7974 bound_to 7965
  156.2927  140.2258  156.4917 H   0  0  0  0  0  0  0  0  0  0  0  0  # atno 8008 bound_to 7997
  154.7765  140.0463  157.1115 H   0  0  0  0  0  0  0  0  0  0  0  0  # atno 8009 bound_to 7997
  154.9810  140.3078  155.4950 H   0  0  0  0  0  0  0  0  0  0  0  0  # atno 8010 bound_to 7997
  139.8289  143.7474  152.2666 H   0  0  0  0  0  0  0  0  0  0  0  0  # atno 10167 bound_to 10162
  157.2175  130.6963  149.6255 H   0  0  0  0  0  0  0  0  0  0  0  0  # atno 10718 bound_to 10713
  153.0599  135.5019  154.8068 H   0  0  0  0  0  0  0  0  0  0  0  0  # atno 10763 bound_to 10752
  154.6866  135.2977  154.9541 H   0  0  0  0  0  0  0  0  0  0  0  0  # atno 10764 bound_to 10752
  154.0310  135.6729  153.4833 H   0  0  0  0  0  0  0  0  0  0  0  0  # atno 10765 bound_to 10752
  141.1442  133.8024  157.0432 H   0  0  0  0  0  0  0  0  0  0  0  0  # atno 11005 bound_to 11000
  145.6879  139.1632  143.2663 LP  0  0  0  0  0  0  0  0  0  0  0  0  # atno 17320 bound_to 7965
  146.1503  140.6934  142.9325 LP  0  0  0  0  0  0  0  0  0  0  0  0  # atno 17321 bound_to 7965
  139.7675  144.7487  151.0273 LP  0  0  0  0  0  0  0  0  0  0  0  0  # atno 17342 bound_to 10162
  140.7808  143.4682  151.0183 LP  0  0  0  0  0  0  0  0  0  0  0  0  # atno 17343 bound_to 10162
  155.9685  130.4530  150.5797 LP  0  0  0  0  0  0  0  0  0  0  0  0  # atno 17370 bound_to 10713
  157.3609  131.0749  151.1637 LP  0  0  0  0  0  0  0  0  0  0  0  0  # atno 17371 bound_to 10713
  140.0679  134.9718  157.1418 LP  0  0  0  0  0  0  0  0  0  0  0  0  # atno 17394 bound_to 11000
  140.3752  134.2346  155.7175 LP  0  0  0  0  0  0  0  0  0  0  0  0  # atno 17395 bound_to 11000

$$$$
