AV-unprocessed.smi:1531|AV-procd|sdf|6159|dock2
  -GOLD-   22720 6303D 1   1.00000     0.00000
 Structure written by MMmdl.
 44 45  0  0  0  0  0  0  0  0  1 V2000
  151.9786  145.7057  159.9625 C   0  0  0  0  0  0  0  0  0  0  0  0
  151.2755  144.3880  159.6066 C   0  0  0  0  0  0  0  0  0  0  0  0
  152.2359  143.2277  159.2475 C   0  0  1  0  0  0  0  0  0  0  0  0
  153.1209  142.8292  160.4521 C   0  0  0  0  0  0  0  0  0  0  0  0
  154.0679  141.6662  160.1214 C   0  0  0  0  0  0  0  0  0  0  0  0
  153.2888  140.4464  159.6159 C   0  0  0  0  0  0  0  0  0  0  0  0
  152.4281  140.8164  158.4017 C   0  0  0  0  0  0  0  0  0  0  0  0
  151.4719  141.9861  158.7136 C   0  0  2  0  0  0  0  0  0  0  0  0
  150.7205  142.3208  157.5046 N   0  0  0  0  0  0  0  0  0  0  0  0
  149.9180  141.4841  156.8311 C   0  0  0  0  0  0  0  0  0  0  0  0
  149.7199  140.3144  157.1601 O   0  0  0  0  0  0  0  0  0  0  0  0
  149.3739  142.0871  155.7621 N   0  0  0  0  0  0  0  0  0  0  0  0
  148.4515  141.5300  154.8418 C   0  0  0  0  0  0  0  0  0  0  0  0
  147.2732  142.1044  154.2864 C   0  0  0  0  0  0  0  0  0  0  0  0
  146.6830  141.2632  153.4504 N   0  0  0  0  0  0  0  0  0  0  0  0
  147.4632  140.1533  153.4558 N   0  0  0  0  0  0  0  0  0  0  0  0
  147.1006  139.0152  152.6298 C   0  0  0  0  0  0  0  0  0  0  0  0
  145.9158  138.2528  153.2261 C   0  0  0  0  0  0  0  0  0  0  0  0
  144.8184  138.1438  152.4722 N   0  0  0  0  0  0  0  0  0  0  0  0
  145.9903  137.7696  154.3538 O   0  0  0  0  0  0  0  0  0  0  0  0
  148.5504  140.2849  154.2980 C   0  0  0  0  0  0  0  0  0  0  0  0
  151.2491  146.5038  160.1013 H   0  0  0  0  0  0  0  0  0  0  0  0
  152.6614  146.0158  159.1712 H   0  0  0  0  0  0  0  0  0  0  0  0
  152.5472  145.6254  160.8886 H   0  0  0  0  0  0  0  0  0  0  0  0
  150.6261  144.0891  160.4303 H   0  0  0  0  0  0  0  0  0  0  0  0
  150.6133  144.5937  158.7658 H   0  0  0  0  0  0  0  0  0  0  0  0
  152.8966  143.5771  158.4523 H   0  0  0  0  0  0  0  0  0  0  0  0
  153.7202  143.6770  160.7827 H   0  0  0  0  0  0  0  0  0  0  0  0
  152.4884  142.5516  161.2965 H   0  0  0  0  0  0  0  0  0  0  0  0
  154.7875  141.9828  159.3653 H   0  0  0  0  0  0  0  0  0  0  0  0
  154.6466  141.3962  161.0051 H   0  0  0  0  0  0  0  0  0  0  0  0
  153.9798  139.6453  159.3518 H   0  0  0  0  0  0  0  0  0  0  0  0
  152.6530  140.0587  160.4128 H   0  0  0  0  0  0  0  0  0  0  0  0
  153.0781  141.0831  157.5670 H   0  0  0  0  0  0  0  0  0  0  0  0
  151.8590  139.9427  158.0813 H   0  0  0  0  0  0  0  0  0  0  0  0
  150.7782  141.6641  159.4931 H   0  0  0  0  0  0  0  0  0  0  0  0
  150.8217  143.2631  157.1568 H   0  0  0  0  0  0  0  0  0  0  0  0
  149.6399  143.0464  155.5942 H   0  0  0  0  0  0  0  0  0  0  0  0
  146.8313  143.0763  154.4475 H   0  0  0  0  0  0  0  0  0  0  0  0
  146.8478  139.3762  151.6319 H   0  0  0  0  0  0  0  0  0  0  0  0
  147.9582  138.3488  152.5220 H   0  0  0  0  0  0  0  0  0  0  0  0
  144.0090  137.6561  152.8285 H   0  0  0  0  0  0  0  0  0  0  0  0
  144.7992  138.5570  151.5511 H   0  0  0  0  0  0  0  0  0  0  0  0
  149.2815  139.5004  154.4281 H   0  0  0  0  0  0  0  0  0  0  0  0
  1  2  1  0  0  0  0
  1 22  1  0  0  0  0
  1 23  1  0  0  0  0
  1 24  1  0  0  0  0
  2  3  1  0  0  0  0
  2 25  1  0  0  0  0
  2 26  1  0  0  0  0
  3  8  1  0  0  0  0
  3  4  1  0  0  0  0
  3 27  1  0  0  0  0
  4  5  1  0  0  0  0
  4 28  1  0  0  0  0
  4 29  1  0  0  0  0
  5  6  1  0  0  0  0
  5 30  1  0  0  0  0
  5 31  1  0  0  0  0
  6  7  1  0  0  0  0
  6 32  1  0  0  0  0
  6 33  1  0  0  0  0
  7  8  1  0  0  0  0
  7 34  1  0  0  0  0
  7 35  1  0  0  0  0
  8  9  1  0  0  0  0
  8 36  1  0  0  0  0
  9 10  1  0  0  0  0
  9 37  1  0  0  0  0
 10 11  2  0  0  0  0
 10 12  1  0  0  0  0
 12 13  1  0  0  0  0
 12 38  1  0  0  0  0
 13 21  2  0  0  0  0
 13 14  1  0  0  0  0
 14 15  2  0  0  0  0
 14 39  1  0  0  0  0
 15 16  1  0  0  0  0
 16 17  1  0  0  0  0
 16 21  1  0  0  0  0
 17 18  1  0  0  0  0
 17 40  1  0  0  0  0
 17 41  1  0  0  0  0
 18 19  1  0  0  0  0
 18 20  2  0  0  0  0
 19 42  1  0  0  0  0
 19 43  1  0  0  0  0
 21 44  1  0  0  0  0
M  END
> <s_m_source_file>
AV-unprocessed.smi

> <i_m_source_file_index>
1531

> <i_lp_mmshare_version>
43012

> <i_f3d_flags>
0

> <s_epik_input>
W0NIM11bQ0gyXVtDQEBIXTFbQ0gyXVtDSDJdW0NIMl1bQ0gyXVtDQEhdMVtOSF1DKD1PKVtOSF1jMltjSF1ubihbY0hdMilbQ0gyXUMoPU8pW05IMl0=

> <s_epik_cmdline>
J2VwaWtfcHl0aG9uJywgJy1waCcsICc3LjAnLCAnLXRuJywgJzgnLCAnLW1hJywgJzIwMCcsICctbWV0YWxfYmluZGluZycsICctaW1hZScsICc8aW5maWxlLm1hZT4nLCAnLW9tYWUnLCAnPG91dGZpbGUubWFlPic=

> <r_lp_tautomer_probability>
1

> <r_epik_Ionization_Penalty>
4.83437e-05

> <r_epik_Ionization_Penalty_Charging>
0

> <r_epik_Ionization_Penalty_Neutral>
4.83437e-05

> <r_epik_State_Penalty>
-0

> <r_epik_Charging_Adjusted_Penalty>
0

> <i_epik_Tot_Q>
0

> <i_epik_Tot_abs_Q>
0

> <r_epik_Metal_State_Penalty>
-0

> <b_epik_Metal_Only>
0

> <s_lp_Force_Field>
OPLS_2005

> <r_lp_Energy>
14.9038

> <b_lp_Chiralities_Consistent>
1

> <s_lp_Variant>
AV-unprocessed.smi:1531-4

> <Gold.Version>
5.8.1

> <Gold.Id.Protein>
6NUR|6NUR_protein|mol2

> <Gold.PLP.Fitness>
48.4887

> <Gold.PLP.PLP>
-43.9698

> <Gold.PLP.part.hbond>
-3.0000

> <Gold.PLP.part.metal>
0.0000

> <Gold.PLP.part.buried>
-5.4767

> <Gold.PLP.part.nonpolar>
-37.1377

> <Gold.PLP.part.repulsive>
0.4505

> <Gold.PLP.ligand.clash>
0.0000

> <Gold.PLP.ligand.torsion>
0.5673

> <Gold.PLP.Chemscore.Hbond>
1.8560

> <Gold.PLP.Chemscore.CHOScore>
0.0218

> <Gold.PLP.Chemscore.Metal>
0.0000

> <Gold.Chemscore.Hbonds>
donor molecule, donor type, donor heavy atom, donor atom, acceptor molecule, acceptor atom, score
      L1  H    12    38       P1  8028  0.78
      L1  H    19    43       P1 10171  0.91
      L1  C    14    39       P1  8028  0.09

> <Gold.PLP.Chemscore.Internal.Correction>
0.0200

> <Gold.Rescore>
     Score         DG    S(hbond)    S(metal)    S(lipo)     H(rot)  DE(clash)    DE(int)     intcor
     16.83     -18.10       1.72        0.00     105.39       2.13       0.01       1.27       ----

> <Gold.Chemscore.Fitness>
16.8285

> <Gold.Chemscore.DG>
-18.1024

> <Gold.Chemscore.ZeroCoef>
-5.4800

> <Gold.Chemscore.Hbond>
1.7227

> <Gold.Chemscore.Metal>
0.0000

> <Gold.Chemscore.Lipo>
105.3867

> <Gold.Chemscore.Internal_Hbond>
0.0000

> <Gold.Chemscore.DEClash>
0.0060

> <Gold.Chemscore.DEInternal>
1.2678

> <Gold.Chemscore.Rot>
2.1335

> <Gold.Chemscore.Internal.Correction>
   9.000000E+99

> <Gold.Chemscore.Hbonds>
donor molecule, donor type, donor heavy atom, donor atom, acceptor molecule, acceptor atom, score
      L1  H    12    38       P1  8028  0.78
      L1  H    19    43       P1 10171  0.88

> <Gold.Chemscore.Hbond.Weighted>
-5.7540

> <Gold.Chemscore.Metal.Weighted>
-0.0000

> <Gold.Chemscore.Lipo.Weighted>
-12.3302

> <Gold.Chemscore.Internal_Hbond.Weighted>
0.0000

> <Gold.Chemscore.DEClash.Weighted>
0.0060

> <Gold.Chemscore.DEInternal.Weighted>
1.2678

> <Gold.Chemscore.Rot.Weighted>
5.4618

> <Gold.Chemscore.Internal.Correction.Weighted>
   9.000000E+99

> <Gold.Protein.RotatedTorsions>
[ 6907 6896 6895 6894 ] final  156.85 input  -60.11 | X-H torsion
[ 7974 7965 7964 7962 ] final   27.04 input  175.53 | X-H torsion
[ 8008 7997 7996 7995 ] final   -4.92 input   59.86 | X-H torsion
[ 10167 10162 10161 10158 ] final   -9.78 input  -65.29 | X-H torsion
[ 10718 10713 10712 10709 ] final -137.70 input   66.30 | X-H torsion
[ 10763 10752 10751 10750 ] final  -29.44 input  -60.55 | X-H torsion
[ 11005 11000 10999 10996 ] final -108.86 input  -57.11 | X-H torsion

> <Gold.Protein.ActiveResidues>
 VAL166  LYS551  ARG553  GLY616  TRP617  ASP618  TYR619  PRO620  LYS621  CYS622 
 ASP623  PHE694  ASN695  SER759  ASP760  ASP761  ALA762  ILE779  LEU786  VAL792 
 PHE793  MET794  SER795  GLU796  ALA797  LYS798  CYS799  TRP800  GLU811  SER814 

> <Gold.Protein.RotatedAtoms>
  152.0237  133.3909  159.4268 H   0  0  0  0  0  0  0  0  0  0  0  0  # atno 6907 bound_to 6896
  150.6888  134.3598  159.4954 H   0  0  0  0  0  0  0  0  0  0  0  0  # atno 6908 bound_to 6896
  152.1375  134.9088  160.0606 H   0  0  0  0  0  0  0  0  0  0  0  0  # atno 6909 bound_to 6896
  146.1805  139.7246  142.8903 H   0  0  0  0  0  0  0  0  0  0  0  0  # atno 7974 bound_to 7965
  154.6092  140.2471  155.7690 H   0  0  0  0  0  0  0  0  0  0  0  0  # atno 8008 bound_to 7997
  156.2360  140.2950  156.0265 H   0  0  0  0  0  0  0  0  0  0  0  0  # atno 8009 bound_to 7997
  155.2080  140.0396  157.2919 H   0  0  0  0  0  0  0  0  0  0  0  0  # atno 8010 bound_to 7997
  140.7096  143.5820  150.8982 H   0  0  0  0  0  0  0  0  0  0  0  0  # atno 10167 bound_to 10162
  156.2910  130.7375  151.1400 H   0  0  0  0  0  0  0  0  0  0  0  0  # atno 10718 bound_to 10713
  153.7648  135.6916  153.4918 H   0  0  0  0  0  0  0  0  0  0  0  0  # atno 10763 bound_to 10752
  153.1914  135.4469  155.0153 H   0  0  0  0  0  0  0  0  0  0  0  0  # atno 10764 bound_to 10752
  154.8140  135.3390  154.7161 H   0  0  0  0  0  0  0  0  0  0  0  0  # atno 10765 bound_to 10752
  141.0879  133.9107  157.2144 H   0  0  0  0  0  0  0  0  0  0  0  0  # atno 11005 bound_to 11000
  145.4088  141.0394  143.3029 LP  0  0  0  0  0  0  0  0  0  0  0  0  # atno 17320 bound_to 7965
  144.8308  139.5632  143.6944 LP  0  0  0  0  0  0  0  0  0  0  0  0  # atno 17321 bound_to 7965
  139.9546  143.6233  152.3019 LP  0  0  0  0  0  0  0  0  0  0  0  0  # atno 17342 bound_to 10162
  139.6764  144.7658  151.1689 LP  0  0  0  0  0  0  0  0  0  0  0  0  # atno 17343 bound_to 10162
  157.7342  131.0584  150.5535 LP  0  0  0  0  0  0  0  0  0  0  0  0  # atno 17370 bound_to 10713
  156.5651  130.4265  149.6045 LP  0  0  0  0  0  0  0  0  0  0  0  0  # atno 17371 bound_to 10713
  139.9700  135.0131  156.9486 LP  0  0  0  0  0  0  0  0  0  0  0  0  # atno 17394 bound_to 11000
  140.5321  134.0803  155.7318 LP  0  0  0  0  0  0  0  0  0  0  0  0  # atno 17395 bound_to 11000

$$$$
