AV-unprocessed.smi:841|AV-procd|sdf|3915|dock4
  -GOLD-   22720 1373D 1   1.00000     0.00000
 Structure written by MMmdl.
 30 31  0  0  0  0  0  0  0  0  1 V2000
  151.5203  140.6906  157.2650 O   0  0  0  0  0  0  0  0  0  0  0  0
  150.5839  141.4782  157.1313 C   0  0  0  0  0  0  0  0  0  0  0  0
  149.1427  140.9624  157.1131 C   0  0  0  0  0  0  0  0  0  0  0  0
  148.4837  141.2626  155.8533 N   0  0  0  0  0  0  0  0  0  0  0  0
  147.2746  141.8944  155.6456 C   0  0  0  0  0  0  0  0  0  0  0  0
  147.0641  141.9389  154.2974 C   0  0  0  0  0  0  0  0  0  0  0  0
  148.2115  141.2958  153.7551 C   0  0  0  0  0  0  0  0  0  0  0  0
  149.0576  140.8900  154.6883 N   0  0  0  0  0  0  0  0  0  0  0  0
  150.7458  142.8040  156.9983 N   0  0  0  0  0  0  0  0  0  0  0  0
  152.0248  143.5072  156.9925 C   0  0  0  0  0  0  0  0  0  0  0  0
  152.4386  143.9562  158.4065 C   0  0  2  0  0  0  0  0  0  0  0  0
  152.4445  142.8365  159.4271 C   0  0  0  0  0  0  0  0  0  0  0  0
  152.4231  143.6072  160.7440 C   0  0  0  0  0  0  0  0  0  0  0  0
  151.7159  144.8151  160.4781 O   0  0  0  0  0  0  0  0  0  0  0  0
  151.4907  144.9516  159.0783 C   0  0  0  0  0  0  0  0  0  0  0  0
  149.1464  139.8840  157.2785 H   0  0  0  0  0  0  0  0  0  0  0  0
  148.5602  141.4086  157.9206 H   0  0  0  0  0  0  0  0  0  0  0  0
  146.6729  142.2565  156.4661 H   0  0  0  0  0  0  0  0  0  0  0  0
  146.2183  142.3639  153.7777 H   0  0  0  0  0  0  0  0  0  0  0  0
  148.4520  141.1109  152.7187 H   0  0  0  0  0  0  0  0  0  0  0  0
  149.9171  143.3718  156.8957 H   0  0  0  0  0  0  0  0  0  0  0  0
  152.8053  142.8951  156.5369 H   0  0  0  0  0  0  0  0  0  0  0  0
  151.9152  144.3828  156.3523 H   0  0  0  0  0  0  0  0  0  0  0  0
  153.4382  144.3931  158.3707 H   0  0  0  0  0  0  0  0  0  0  0  0
  151.5413  142.2315  159.3342 H   0  0  0  0  0  0  0  0  0  0  0  0
  153.3080  142.1771  159.3361 H   0  0  0  0  0  0  0  0  0  0  0  0
  151.9566  143.0403  161.5498 H   0  0  0  0  0  0  0  0  0  0  0  0
  153.4376  143.8617  161.0527 H   0  0  0  0  0  0  0  0  0  0  0  0
  151.6569  145.9773  158.7482 H   0  0  0  0  0  0  0  0  0  0  0  0
  150.4509  144.6944  158.8720 H   0  0  0  0  0  0  0  0  0  0  0  0
  1  2  2  0  0  0  0
  2  3  1  0  0  0  0
  2  9  1  0  0  0  0
  3  4  1  0  0  0  0
  3 16  1  0  0  0  0
  3 17  1  0  0  0  0
  4  8  1  0  0  0  0
  4  5  1  0  0  0  0
  5  6  2  0  0  0  0
  5 18  1  0  0  0  0
  6  7  1  0  0  0  0
  6 19  1  0  0  0  0
  7  8  2  0  0  0  0
  7 20  1  0  0  0  0
  9 10  1  0  0  0  0
  9 21  1  0  0  0  0
 10 11  1  0  0  0  0
 10 22  1  0  0  0  0
 10 23  1  0  0  0  0
 11 15  1  0  0  0  0
 11 12  1  0  0  0  0
 11 24  1  0  0  0  0
 12 13  1  0  0  0  0
 12 25  1  0  0  0  0
 12 26  1  0  0  0  0
 13 14  1  0  0  0  0
 13 27  1  0  0  0  0
 13 28  1  0  0  0  0
 14 15  1  0  0  0  0
 15 29  1  0  0  0  0
 15 30  1  0  0  0  0
M  END
> <s_m_source_file>
AV-unprocessed.smi

> <i_m_source_file_index>
841

> <i_lp_mmshare_version>
43012

> <i_f3d_flags>
0

> <s_epik_input>
bjFbY0hdW2NIXVtjSF1uMVtDSDJdQyg9TylbTkhdW0NIMl1bQ0BASF0yW0NIMl1bQ0gyXU9bQ0gyXTI=

> <s_epik_cmdline>
J2VwaWtfcHl0aG9uJywgJy1waCcsICc3LjAnLCAnLXRuJywgJzgnLCAnLW1hJywgJzIwMCcsICctbWV0YWxfYmluZGluZycsICctaW1hZScsICc8aW5maWxlLm1hZT4nLCAnLW9tYWUnLCAnPG91dGZpbGUubWFlPic=

> <r_lp_tautomer_probability>
1

> <r_epik_Ionization_Penalty>
1.49823e-05

> <r_epik_Ionization_Penalty_Charging>
0

> <r_epik_Ionization_Penalty_Neutral>
1.49823e-05

> <r_epik_State_Penalty>
-0

> <r_epik_Charging_Adjusted_Penalty>
0

> <i_epik_Tot_Q>
0

> <i_epik_Tot_abs_Q>
0

> <r_epik_Metal_State_Penalty>
-0

> <b_epik_Metal_Only>
0

> <s_lp_Force_Field>
OPLS_2005

> <r_lp_Energy>
19.4913

> <b_lp_Chiralities_Consistent>
1

> <s_lp_Variant>
AV-unprocessed.smi:841-1

> <Gold.Version>
5.8.1

> <Gold.Id.Protein>
6NUR|6NUR_protein|mol2

> <Gold.PLP.Fitness>
37.9141

> <Gold.PLP.PLP>
-32.6215

> <Gold.PLP.part.hbond>
-1.0000

> <Gold.PLP.part.metal>
0.0000

> <Gold.PLP.part.buried>
-4.9559

> <Gold.PLP.part.nonpolar>
-26.6965

> <Gold.PLP.part.repulsive>
0.3324

> <Gold.PLP.ligand.clash>
0.0000

> <Gold.PLP.ligand.torsion>
0.2508

> <Gold.PLP.Chemscore.Hbond>
0.9280

> <Gold.PLP.Chemscore.CHOScore>
1.0000

> <Gold.PLP.Chemscore.Metal>
0.0000

> <Gold.Chemscore.Hbonds>
donor molecule, donor type, donor heavy atom, donor atom, acceptor molecule, acceptor atom, score
      L1  H     9    21       P1  8028  0.77
      L1  C     7    20       P1  7957  1.00

> <Gold.PLP.Chemscore.Internal.Correction>
0.0101

> <Gold.Rescore>
     Score         DG    S(hbond)    S(metal)    S(lipo)     H(rot)  DE(clash)    DE(int)     intcor
     12.66     -14.30       0.98        0.00      84.05       1.68       1.42       0.21       ----

> <Gold.Chemscore.Fitness>
12.6640

> <Gold.Chemscore.DG>
-14.2959

> <Gold.Chemscore.ZeroCoef>
-5.4800

> <Gold.Chemscore.Hbond>
0.9807

> <Gold.Chemscore.Metal>
0.0000

> <Gold.Chemscore.Lipo>
84.0495

> <Gold.Chemscore.Internal_Hbond>
0.0000

> <Gold.Chemscore.DEClash>
1.4240

> <Gold.Chemscore.DEInternal>
0.2079

> <Gold.Chemscore.Rot>
1.6771

> <Gold.Chemscore.Internal.Correction>
   9.000000E+99

> <Gold.Chemscore.Hbonds>
donor molecule, donor type, donor heavy atom, donor atom, acceptor molecule, acceptor atom, score
      L1  H     9    21       P1  8028  0.74

> <Gold.Chemscore.Hbond.Weighted>
-3.2754

> <Gold.Chemscore.Metal.Weighted>
-0.0000

> <Gold.Chemscore.Lipo.Weighted>
-9.8338

> <Gold.Chemscore.Internal_Hbond.Weighted>
0.0000

> <Gold.Chemscore.DEClash.Weighted>
1.4240

> <Gold.Chemscore.DEInternal.Weighted>
0.2079

> <Gold.Chemscore.Rot.Weighted>
4.2934

> <Gold.Chemscore.Internal.Correction.Weighted>
   9.000000E+99

> <Gold.Protein.RotatedTorsions>
[ 6907 6896 6895 6894 ] final  173.13 input  -60.11 | X-H torsion
[ 7974 7965 7964 7962 ] final   59.77 input  175.53 | X-H torsion
[ 8008 7997 7996 7995 ] final  125.22 input   59.86 | X-H torsion
[ 10167 10162 10161 10158 ] final -120.82 input  -65.29 | X-H torsion
[ 10718 10713 10712 10709 ] final  -36.12 input   66.30 | X-H torsion
[ 10763 10752 10751 10750 ] final    3.43 input  -60.55 | X-H torsion
[ 11005 11000 10999 10996 ] final  -29.52 input  -57.11 | X-H torsion

> <Gold.Protein.ActiveResidues>
 VAL166  LYS551  ARG553  GLY616  TRP617  ASP618  TYR619  PRO620  LYS621  CYS622 
 ASP623  PHE694  ASN695  SER759  ASP760  ASP761  ALA762  ILE779  LEU786  VAL792 
 PHE793  MET794  SER795  GLU796  ALA797  LYS798  CYS799  TRP800  GLU811  SER814 

> <Gold.Protein.RotatedAtoms>
  151.7732  133.3343  159.3450 H   0  0  0  0  0  0  0  0  0  0  0  0  # atno 6907 bound_to 6896
  150.7454  134.5999  159.6040 H   0  0  0  0  0  0  0  0  0  0  0  0  # atno 6908 bound_to 6896
  152.3327  134.7240  160.0336 H   0  0  0  0  0  0  0  0  0  0  0  0  # atno 6909 bound_to 6896
  145.9034  139.3599  143.0578 H   0  0  0  0  0  0  0  0  0  0  0  0  # atno 7974 bound_to 7965
  156.2827  140.2721  156.1914 H   0  0  0  0  0  0  0  0  0  0  0  0  # atno 8008 bound_to 7997
  155.0454  140.0386  157.2542 H   0  0  0  0  0  0  0  0  0  0  0  0  # atno 8009 bound_to 7997
  154.7239  140.2693  155.6522 H   0  0  0  0  0  0  0  0  0  0  0  0  # atno 8010 bound_to 7997
  140.0317  143.5242  152.2173 H   0  0  0  0  0  0  0  0  0  0  0  0  # atno 10167 bound_to 10162
  156.3305  130.4278  149.7877 H   0  0  0  0  0  0  0  0  0  0  0  0  # atno 10718 bound_to 10713
  153.2834  135.6942  153.7363 H   0  0  0  0  0  0  0  0  0  0  0  0  # atno 10763 bound_to 10752
  153.6342  135.3404  155.3052 H   0  0  0  0  0  0  0  0  0  0  0  0  # atno 10764 bound_to 10752
  154.8502  135.4416  154.1894 H   0  0  0  0  0  0  0  0  0  0  0  0  # atno 10765 bound_to 10752
  140.9303  133.7342  156.0927 H   0  0  0  0  0  0  0  0  0  0  0  0  # atno 11005 bound_to 11000
  145.8762  140.9390  143.0625 LP  0  0  0  0  0  0  0  0  0  0  0  0  # atno 17320 bound_to 7965
  144.6737  140.0719  143.7472 LP  0  0  0  0  0  0  0  0  0  0  0  0  # atno 17321 bound_to 7965
  139.6072  144.7599  151.3035 LP  0  0  0  0  0  0  0  0  0  0  0  0  # atno 17342 bound_to 10162
  140.7299  143.6894  150.7934 LP  0  0  0  0  0  0  0  0  0  0  0  0  # atno 17343 bound_to 10162
  156.5151  130.8189  151.3183 LP  0  0  0  0  0  0  0  0  0  0  0  0  # atno 17370 bound_to 10713
  157.7429  130.9901  150.2554 LP  0  0  0  0  0  0  0  0  0  0  0  0  # atno 17371 bound_to 10713
  140.7871  134.3659  157.5473 LP  0  0  0  0  0  0  0  0  0  0  0  0  # atno 17394 bound_to 11000
  139.8795  134.9117  156.3044 LP  0  0  0  0  0  0  0  0  0  0  0  0  # atno 17395 bound_to 11000

$$$$
