AV-unprocessed.smi:2232|AV-procd|sdf|9038|dock1
  -GOLD-   2272012243D 1   1.00000     0.00000
 Structure written by MMmdl.
 42 43  0  0  0  0  0  0  0  0  1 V2000
  152.1920  144.4881  160.9687 C   0  0  0  0  0  0  0  0  0  0  0  0
  152.1508  143.3626  159.9565 C   0  0  0  0  0  0  0  0  0  0  0  0
  152.9869  142.2380  160.0916 C   0  0  0  0  0  0  0  0  0  0  0  0
  152.8997  141.2239  159.1180 C   0  0  0  0  0  0  0  0  0  0  0  0
  153.7682  139.9864  159.2031 C   0  0  0  0  0  0  0  0  0  0  0  0
  152.0566  141.2840  158.0651 N   0  0  0  0  0  0  0  0  0  0  0  0
  151.2470  142.3628  157.9242 C   0  0  0  0  0  0  0  0  0  0  0  0
  150.3218  142.5191  156.8580 N   0  0  0  0  0  0  0  0  0  0  0  0
  150.1203  141.7042  155.8072 C   0  0  0  0  0  0  0  0  0  0  0  0
  150.7455  140.6681  155.5781 O   0  0  0  0  0  0  0  0  0  0  0  0
  149.1375  142.1629  155.0185 N   0  0  0  0  0  0  0  0  0  0  0  0
  148.6738  141.5154  153.7971 C   0  0  0  0  0  0  0  0  0  0  0  0
  147.3530  140.7566  154.0291 C   0  0  0  0  0  0  0  0  0  0  0  0
  146.2198  141.5953  154.4167 N   0  0  0  0  0  0  0  0  0  0  0  0
  146.2473  142.9099  153.7780 C   0  0  0  0  0  0  0  0  0  0  0  0
  145.0687  143.7932  154.2251 C   0  0  0  0  0  0  0  0  0  0  0  0
  145.0693  143.9135  155.6437 O   0  0  0  0  0  0  0  0  0  0  0  0
  144.9898  142.6525  156.2996 C   0  0  0  0  0  0  0  0  0  0  0  0
  146.1741  141.7725  155.8643 C   0  0  0  0  0  0  0  0  0  0  0  0
  151.2700  143.4233  158.8578 C   0  0  0  0  0  0  0  0  0  0  0  0
  152.8627  144.2530  161.7960 H   0  0  0  0  0  0  0  0  0  0  0  0
  151.1972  144.6659  161.3775 H   0  0  0  0  0  0  0  0  0  0  0  0
  152.5400  145.4075  160.4971 H   0  0  0  0  0  0  0  0  0  0  0  0
  153.6758  142.1542  160.9194 H   0  0  0  0  0  0  0  0  0  0  0  0
  154.2866  139.9333  160.1609 H   0  0  0  0  0  0  0  0  0  0  0  0
  154.5160  139.9944  158.4099 H   0  0  0  0  0  0  0  0  0  0  0  0
  153.1623  139.0861  159.0960 H   0  0  0  0  0  0  0  0  0  0  0  0
  149.7419  143.3436  156.9046 H   0  0  0  0  0  0  0  0  0  0  0  0
  148.6775  143.0224  155.2805 H   0  0  0  0  0  0  0  0  0  0  0  0
  148.5469  142.2951  153.0471 H   0  0  0  0  0  0  0  0  0  0  0  0
  149.4419  140.8388  153.4185 H   0  0  0  0  0  0  0  0  0  0  0  0
  147.0986  140.2376  153.1038 H   0  0  0  0  0  0  0  0  0  0  0  0
  147.5049  139.9757  154.7760 H   0  0  0  0  0  0  0  0  0  0  0  0
  147.1850  143.4160  154.0124 H   0  0  0  0  0  0  0  0  0  0  0  0
  146.2101  142.8062  152.6942 H   0  0  0  0  0  0  0  0  0  0  0  0
  145.1499  144.7864  153.7831 H   0  0  0  0  0  0  0  0  0  0  0  0
  144.1202  143.3708  153.8901 H   0  0  0  0  0  0  0  0  0  0  0  0
  145.0089  142.8083  157.3783 H   0  0  0  0  0  0  0  0  0  0  0  0
  144.0408  142.1692  156.0619 H   0  0  0  0  0  0  0  0  0  0  0  0
  146.0973  140.8009  156.3536 H   0  0  0  0  0  0  0  0  0  0  0  0
  147.1046  142.2237  156.2122 H   0  0  0  0  0  0  0  0  0  0  0  0
  150.6196  144.2774  158.7348 H   0  0  0  0  0  0  0  0  0  0  0  0
  1  2  1  0  0  0  0
  1 21  1  0  0  0  0
  1 22  1  0  0  0  0
  1 23  1  0  0  0  0
  2 20  1  0  0  0  0
  2  3  2  0  0  0  0
  3  4  1  0  0  0  0
  3 24  1  0  0  0  0
  4  5  1  0  0  0  0
  4  6  2  0  0  0  0
  5 25  1  0  0  0  0
  5 26  1  0  0  0  0
  5 27  1  0  0  0  0
  6  7  1  0  0  0  0
  7  8  1  0  0  0  0
  7 20  2  0  0  0  0
  8  9  1  0  0  0  0
  8 28  1  0  0  0  0
  9 10  2  0  0  0  0
  9 11  1  0  0  0  0
 11 12  1  0  0  0  0
 11 29  1  0  0  0  0
 12 13  1  0  0  0  0
 12 30  1  0  0  0  0
 12 31  1  0  0  0  0
 13 14  1  0  0  0  0
 13 32  1  0  0  0  0
 13 33  1  0  0  0  0
 14 19  1  0  0  0  0
 14 15  1  0  0  0  0
 15 16  1  0  0  0  0
 15 34  1  0  0  0  0
 15 35  1  0  0  0  0
 16 17  1  0  0  0  0
 16 36  1  0  0  0  0
 16 37  1  0  0  0  0
 17 18  1  0  0  0  0
 18 19  1  0  0  0  0
 18 38  1  0  0  0  0
 18 39  1  0  0  0  0
 19 40  1  0  0  0  0
 19 41  1  0  0  0  0
 20 42  1  0  0  0  0
M  END
> <s_m_source_file>
AV-unprocessed.smi

> <i_m_source_file_index>
2232

> <i_lp_mmshare_version>
43012

> <i_f3d_flags>
0

> <s_epik_input>
W0NIM11jMVtjSF1jKFtDSDNdKW5jKFtjSF0xKVtOSF1DKD1PKVtOSF1bQ0gyXVtDSDJdTjJbQ0gyXVtDSDJdT1tDSDJdW0NIMl0y

> <s_epik_cmdline>
J2VwaWtfcHl0aG9uJywgJy1waCcsICc3LjAnLCAnLXRuJywgJzgnLCAnLW1hJywgJzIwMCcsICctbWV0YWxfYmluZGluZycsICctaW1hZScsICc8aW5maWxlLm1hZT4nLCAnLW9tYWUnLCAnPG91dGZpbGUubWFlPic=

> <r_epik_Ionization_Penalty>
0.26623

> <r_epik_Ionization_Penalty_Charging>
0

> <r_epik_Ionization_Penalty_Neutral>
0.26623

> <r_epik_State_Penalty>
0.257924

> <r_epik_Charging_Adjusted_Penalty>
0.257924

> <i_epik_Tot_Q>
0

> <i_epik_Tot_abs_Q>
0

> <r_epik_Metal_State_Penalty>
0.257909

> <b_epik_Metal_Only>
0

> <s_lp_Force_Field>
OPLS_2005

> <r_lp_Energy>
21.9386

> <b_lp_Chiralities_Consistent>
1

> <s_lp_Variant>
AV-unprocessed.smi:2232-1

> <Gold.Version>
5.8.1

> <Gold.Id.Protein>
6NUR|6NUR_protein|mol2

> <Gold.PLP.Fitness>
43.8756

> <Gold.PLP.PLP>
-38.3645

> <Gold.PLP.part.hbond>
-2.6527

> <Gold.PLP.part.metal>
0.0000

> <Gold.PLP.part.buried>
-2.9122

> <Gold.PLP.part.nonpolar>
-31.6584

> <Gold.PLP.part.repulsive>
0.6086

> <Gold.PLP.ligand.clash>
0.0000

> <Gold.PLP.ligand.torsion>
0.4310

> <Gold.PLP.Chemscore.Hbond>
2.1087

> <Gold.PLP.Chemscore.CHOScore>
0.0000

> <Gold.PLP.Chemscore.Metal>
0.0000

> <Gold.Chemscore.Hbonds>
donor molecule, donor type, donor heavy atom, donor atom, acceptor molecule, acceptor atom, score
      L1  H     8    28       P1  8028  0.80
      L1  H    11    29       P1  8028  0.93
      P1  H  7989  7998       L1    10  0.37

> <Gold.PLP.Chemscore.Internal.Correction>
0.0471

> <Gold.Rescore>
     Score         DG    S(hbond)    S(metal)    S(lipo)     H(rot)  DE(clash)    DE(int)     intcor
     17.44     -19.29       1.81        0.00      98.04       1.44       0.19       1.67       ----

> <Gold.Chemscore.Fitness>
17.4402

> <Gold.Chemscore.DG>
-19.2930

> <Gold.Chemscore.ZeroCoef>
-5.4800

> <Gold.Chemscore.Hbond>
1.8075

> <Gold.Chemscore.Metal>
0.0000

> <Gold.Chemscore.Lipo>
98.0405

> <Gold.Chemscore.Internal_Hbond>
0.0000

> <Gold.Chemscore.DEClash>
0.1860

> <Gold.Chemscore.DEInternal>
1.6668

> <Gold.Chemscore.Rot>
1.4433

> <Gold.Chemscore.Internal.Correction>
   9.000000E+99

> <Gold.Chemscore.Hbonds>
donor molecule, donor type, donor heavy atom, donor atom, acceptor molecule, acceptor atom, score
      L1  H     8    28       P1  8028  0.73
      L1  H    11    29       P1  8028  0.91
      P1  H  7989  7998       L1    10  0.22

> <Gold.Chemscore.Hbond.Weighted>
-6.0370

> <Gold.Chemscore.Metal.Weighted>
-0.0000

> <Gold.Chemscore.Lipo.Weighted>
-11.4707

> <Gold.Chemscore.Internal_Hbond.Weighted>
0.0000

> <Gold.Chemscore.DEClash.Weighted>
0.1860

> <Gold.Chemscore.DEInternal.Weighted>
1.6668

> <Gold.Chemscore.Rot.Weighted>
3.6948

> <Gold.Chemscore.Internal.Correction.Weighted>
   9.000000E+99

> <Gold.Protein.RotatedTorsions>
[ 6907 6896 6895 6894 ] final   46.23 input  -60.11 | X-H torsion
[ 7974 7965 7964 7962 ] final -174.65 input  175.53 | X-H torsion
[ 8008 7997 7996 7995 ] final -137.04 input   59.86 | X-H torsion
[ 10167 10162 10161 10158 ] final  -93.22 input  -65.29 | X-H torsion
[ 10718 10713 10712 10709 ] final  148.27 input   66.30 | X-H torsion
[ 10763 10752 10751 10750 ] final  -17.74 input  -60.55 | X-H torsion
[ 11005 11000 10999 10996 ] final  -86.00 input  -57.11 | X-H torsion

> <Gold.Protein.ActiveResidues>
 VAL166  LYS551  ARG553  GLY616  TRP617  ASP618  TYR619  PRO620  LYS621  CYS622 
 ASP623  PHE694  ASN695  SER759  ASP760  ASP761  ALA762  ILE779  LEU786  VAL792 
 PHE793  MET794  SER795  GLU796  ALA797  LYS798  CYS799  TRP800  GLU811  SER814 

> <Gold.Protein.RotatedAtoms>
  152.2540  134.8104  160.0441 H   0  0  0  0  0  0  0  0  0  0  0  0  # atno 6907 bound_to 6896
  151.8774  133.3483  159.3763 H   0  0  0  0  0  0  0  0  0  0  0  0  # atno 6908 bound_to 6896
  150.7093  134.4979  159.5591 H   0  0  0  0  0  0  0  0  0  0  0  0  # atno 6909 bound_to 6896
  144.7131  140.1440  143.6389 H   0  0  0  0  0  0  0  0  0  0  0  0  # atno 7974 bound_to 7965
  155.4053  140.0508  157.3034 H   0  0  0  0  0  0  0  0  0  0  0  0  # atno 8008 bound_to 7997
  154.4971  140.2143  155.9383 H   0  0  0  0  0  0  0  0  0  0  0  0  # atno 8009 bound_to 7997
  156.1420  140.3152  155.8516 H   0  0  0  0  0  0  0  0  0  0  0  0  # atno 8010 bound_to 7997
  140.3269  143.3017  151.9985 H   0  0  0  0  0  0  0  0  0  0  0  0  # atno 10167 bound_to 10162
  157.3107  131.0887  151.1318 H   0  0  0  0  0  0  0  0  0  0  0  0  # atno 10718 bound_to 10713
  153.5785  135.7005  153.5473 H   0  0  0  0  0  0  0  0  0  0  0  0  # atno 10763 bound_to 10752
  153.3282  135.4055  155.1473 H   0  0  0  0  0  0  0  0  0  0  0  0  # atno 10764 bound_to 10752
  154.8621  135.3712  154.5311 H   0  0  0  0  0  0  0  0  0  0  0  0  # atno 10765 bound_to 10752
  141.1635  133.7430  156.9098 H   0  0  0  0  0  0  0  0  0  0  0  0  # atno 11005 bound_to 11000
  145.9176  139.2526  143.1400 LP  0  0  0  0  0  0  0  0  0  0  0  0  # atno 17320 bound_to 7965
  145.9652  140.8804  143.0190 LP  0  0  0  0  0  0  0  0  0  0  0  0  # atno 17321 bound_to 7965
  139.4863  144.6266  151.7151 LP  0  0  0  0  0  0  0  0  0  0  0  0  # atno 17342 bound_to 10162
  140.5433  144.0544  150.6097 LP  0  0  0  0  0  0  0  0  0  0  0  0  # atno 17343 bound_to 10162
  157.2642  130.6673  149.5988 LP  0  0  0  0  0  0  0  0  0  0  0  0  # atno 17370 bound_to 10713
  155.9677  130.4499  150.5677 LP  0  0  0  0  0  0  0  0  0  0  0  0  # atno 17371 bound_to 10713
  140.1525  134.9220  157.2611 LP  0  0  0  0  0  0  0  0  0  0  0  0  # atno 17394 bound_to 11000
  140.2706  134.3464  155.7375 LP  0  0  0  0  0  0  0  0  0  0  0  0  # atno 17395 bound_to 11000

$$$$
