AV-unprocessed.smi:867|AV-procd|sdf|3996|dock3
  -GOLD-   22720 1473D 1   1.00000     0.00000
 Structure written by MMmdl.
 53 56  0  0  0  0  0  0  0  0  2 V2000
  148.3319  141.3122  155.3501 O   0  0  0  0  0  0  0  0  0  0  0  0
  149.3253  140.5849  155.3786 C   0  0  0  0  0  0  0  0  0  0  0  0
  150.3638  140.8221  156.1979 N   0  0  0  0  0  0  0  0  0  0  0  0
  150.4498  141.9219  157.1507 C   0  0  0  0  0  0  0  0  0  0  0  0
  151.9063  142.2209  157.5390 C   0  0  0  0  0  0  0  0  0  0  0  0
  151.9972  143.2447  158.6530 C   0  0  0  0  0  0  0  0  0  0  0  0
  151.7113  144.6044  158.4114 C   0  0  0  0  0  0  0  0  0  0  0  0
  151.8170  145.5191  159.4768 C   0  0  0  0  0  0  0  0  0  0  0  0
  152.2064  145.0340  160.7414 C   0  0  0  0  0  0  0  0  0  0  0  0
  152.4829  143.7344  160.9843 N   0  0  0  0  0  0  0  0  0  0  0  0
  152.3783  142.8637  159.9573 C   0  0  0  0  0  0  0  0  0  0  0  0
  149.4918  139.5259  154.5477 N   0  0  0  0  0  0  0  0  0  0  0  0
  150.7158  138.7309  154.3937 C   0  0  0  0  0  0  0  0  0  0  0  0
  150.5239  137.3856  155.1153 C   0  0  0  0  0  0  0  0  0  0  0  0
  149.3288  136.6427  154.6140 N   0  3  0  0  0  0  0  0  0  0  0  0
  149.1563  135.3346  155.3187 C   0  0  2  0  0  0  0  0  0  0  0  0
  150.4348  134.4584  155.2310 C   0  0  0  0  0  0  0  0  0  0  0  0
  149.9239  133.1228  154.6663 C   0  0  1  0  0  0  0  0  0  0  0  0
  149.0645  132.4112  155.7242 C   0  0  0  0  0  0  0  0  0  0  0  0
  147.7852  133.2652  155.7413 C   0  0  0  0  0  0  0  0  0  0  0  0
  148.0926  134.3735  154.7143 C   0  0  2  0  0  0  0  0  0  0  0  0
  148.8806  133.5987  153.6641 C   0  0  0  0  0  0  0  0  0  0  0  0
  148.1067  137.5002  154.5953 C   0  0  0  0  0  0  0  0  0  0  0  0
  148.3607  138.8544  153.9070 C   0  0  0  0  0  0  0  0  0  0  0  0
  151.1584  140.2014  156.1481 H   0  0  0  0  0  0  0  0  0  0  0  0
  150.0003  142.8019  156.6895 H   0  0  0  0  0  0  0  0  0  0  0  0
  149.8543  141.6984  158.0376 H   0  0  0  0  0  0  0  0  0  0  0  0
  152.4096  141.3071  157.8577 H   0  0  0  0  0  0  0  0  0  0  0  0
  152.4572  142.5899  156.6729 H   0  0  0  0  0  0  0  0  0  0  0  0
  151.4190  144.9424  157.4279 H   0  0  0  0  0  0  0  0  0  0  0  0
  151.6063  146.5678  159.3281 H   0  0  0  0  0  0  0  0  0  0  0  0
  152.2985  145.7081  161.5800 H   0  0  0  0  0  0  0  0  0  0  0  0
  152.6096  141.8329  160.1831 H   0  0  0  0  0  0  0  0  0  0  0  0
  150.9042  138.5621  153.3323 H   0  0  0  0  0  0  0  0  0  0  0  0
  151.6117  139.2227  154.7728 H   0  0  0  0  0  0  0  0  0  0  0  0
  151.4285  136.7916  154.9918 H   0  0  0  0  0  0  0  0  0  0  0  0
  150.4130  137.5620  156.1868 H   0  0  0  0  0  0  0  0  0  0  0  0
  148.9048  135.5460  156.3597 H   0  0  0  0  0  0  0  0  0  0  0  0
  151.1673  134.8741  154.5377 H   0  0  0  0  0  0  0  0  0  0  0  0
  150.9252  134.3411  156.1982 H   0  0  0  0  0  0  0  0  0  0  0  0
  150.7116  132.4950  154.2488 H   0  0  0  0  0  0  0  0  0  0  0  0
  148.8387  131.3880  155.4210 H   0  0  0  0  0  0  0  0  0  0  0  0
  149.5543  132.3733  156.6979 H   0  0  0  0  0  0  0  0  0  0  0  0
  146.9279  132.6706  155.4221 H   0  0  0  0  0  0  0  0  0  0  0  0
  147.5611  133.6622  156.7320 H   0  0  0  0  0  0  0  0  0  0  0  0
  147.1749  134.8318  154.3529 H   0  0  0  0  0  0  0  0  0  0  0  0
  149.2907  134.2319  152.8756 H   0  0  0  0  0  0  0  0  0  0  0  0
  148.3137  132.7835  153.2105 H   0  0  0  0  0  0  0  0  0  0  0  0
  147.3012  137.0131  154.0502 H   0  0  0  0  0  0  0  0  0  0  0  0
  147.7589  137.6602  155.6171 H   0  0  0  0  0  0  0  0  0  0  0  0
  147.4516  139.4577  153.9230 H   0  0  0  0  0  0  0  0  0  0  0  0
  148.5894  138.6995  152.8515 H   0  0  0  0  0  0  0  0  0  0  0  0
  149.5195  136.4214  153.6472 H   0  0  0  0  0  0  0  0  0  0  0  0
  1  2  2  0  0  0  0
  2  3  1  0  0  0  0
  2 12  1  0  0  0  0
  3  4  1  0  0  0  0
  3 25  1  0  0  0  0
  4  5  1  0  0  0  0
  4 26  1  0  0  0  0
  4 27  1  0  0  0  0
  5  6  1  0  0  0  0
  5 28  1  0  0  0  0
  5 29  1  0  0  0  0
  6 11  1  0  0  0  0
  6  7  2  0  0  0  0
  7  8  1  0  0  0  0
  7 30  1  0  0  0  0
  8  9  2  0  0  0  0
  8 31  1  0  0  0  0
  9 10  1  0  0  0  0
  9 32  1  0  0  0  0
 10 11  2  0  0  0  0
 11 33  1  0  0  0  0
 12 24  1  0  0  0  0
 12 13  1  0  0  0  0
 13 14  1  0  0  0  0
 13 34  1  0  0  0  0
 13 35  1  0  0  0  0
 14 15  1  0  0  0  0
 14 36  1  0  0  0  0
 14 37  1  0  0  0  0
 15 16  1  0  0  0  0
 15 23  1  0  0  0  0
 15 53  1  0  0  0  0
 16 21  1  0  0  0  0
 16 17  1  0  0  0  0
 16 38  1  0  0  0  0
 17 18  1  0  0  0  0
 17 39  1  0  0  0  0
 17 40  1  0  0  0  0
 18 22  1  0  0  0  0
 18 19  1  0  0  0  0
 18 41  1  0  0  0  0
 19 20  1  0  0  0  0
 19 42  1  0  0  0  0
 19 43  1  0  0  0  0
 20 21  1  0  0  0  0
 20 44  1  0  0  0  0
 20 45  1  0  0  0  0
 21 22  1  0  0  0  0
 21 46  1  0  0  0  0
 22 47  1  0  0  0  0
 22 48  1  0  0  0  0
 23 24  1  0  0  0  0
 23 49  1  0  0  0  0
 23 50  1  0  0  0  0
 24 51  1  0  0  0  0
 24 52  1  0  0  0  0
M  CHG  1  15   1
M  END
> <s_m_source_file>
AV-unprocessed.smi

> <i_m_source_file_index>
867

> <i_lp_mmshare_version>
43012

> <i_f3d_flags>
0

> <s_epik_input>
W0NIMl0xW0NIMl1bQ0BASF0oW0NIMl0yKVtDQEBIXShbQ0gyXVtDQEhdMTIpTihbQ0gyXVtDSDJdMylbQ0gyXVtDSDJdTjNDKD1PKVtOSF1bQ0gyXVtDSDJdYzRbY0hdW2NIXVtjSF1uW2NIXTQ=

> <s_epik_cmdline>
J2VwaWtfcHl0aG9uJywgJy1waCcsICc3LjAnLCAnLXRuJywgJzgnLCAnLW1hJywgJzIwMCcsICctbWV0YWxfYmluZGluZycsICctaW1hZScsICc8aW5maWxlLm1hZT4nLCAnLW9tYWUnLCAnPG91dGZpbGUubWFlPic=

> <r_epik_Ionization_Penalty>
0.0161279

> <r_epik_Ionization_Penalty_Charging>
0.00262064

> <r_epik_Ionization_Penalty_Neutral>
0.0135072

> <r_epik_State_Penalty>
0.0104914

> <r_epik_Charging_Adjusted_Penalty>
0.013112

> <i_epik_Tot_Q>
1

> <i_epik_Tot_abs_Q>
1

> <r_epik_Metal_State_Penalty>
0.0102536

> <b_epik_Metal_Only>
0

> <s_lp_Force_Field>
OPLS_2005

> <r_lp_Energy>
96.257

> <b_lp_Chiralities_Consistent>
1

> <s_lp_Variant>
AV-unprocessed.smi:867-3

> <Gold.Version>
5.8.1

> <Gold.Id.Protein>
6NUR|6NUR_protein|mol2

> <Gold.PLP.Fitness>
47.8789

> <Gold.PLP.PLP>
-42.6333

> <Gold.PLP.part.hbond>
-1.0000

> <Gold.PLP.part.metal>
0.0000

> <Gold.PLP.part.buried>
-4.6840

> <Gold.PLP.part.nonpolar>
-36.7203

> <Gold.PLP.part.repulsive>
0.2781

> <Gold.PLP.ligand.clash>
0.0000

> <Gold.PLP.ligand.torsion>
0.4468

> <Gold.PLP.Chemscore.Hbond>
2.0000

> <Gold.PLP.Chemscore.CHOScore>
0.0000

> <Gold.PLP.Chemscore.Metal>
0.0000

> <Gold.Chemscore.Hbonds>
donor molecule, donor type, donor heavy atom, donor atom, acceptor molecule, acceptor atom, score
      L1  H    15    53       P1  7948  2.00

> <Gold.PLP.Chemscore.Internal.Correction>
0.1393

> <Gold.Rescore>
     Score         DG    S(hbond)    S(metal)    S(lipo)     H(rot)  DE(clash)    DE(int)     intcor
     18.54     -18.97       1.00        0.00     116.79       1.37       0.08       0.35       ----

> <Gold.Chemscore.Fitness>
18.5433

> <Gold.Chemscore.DG>
-18.9678

> <Gold.Chemscore.ZeroCoef>
-5.4800

> <Gold.Chemscore.Hbond>
0.9997

> <Gold.Chemscore.Metal>
0.0000

> <Gold.Chemscore.Lipo>
116.7873

> <Gold.Chemscore.Internal_Hbond>
0.0000

> <Gold.Chemscore.DEClash>
0.0772

> <Gold.Chemscore.DEInternal>
0.3474

> <Gold.Chemscore.Rot>
1.3731

> <Gold.Chemscore.Internal.Correction>
   9.000000E+99

> <Gold.Chemscore.Hbonds>
donor molecule, donor type, donor heavy atom, donor atom, acceptor molecule, acceptor atom, score
      L1  H    15    53       P1  7948  0.68

> <Gold.Chemscore.Hbond.Weighted>
-3.3389

> <Gold.Chemscore.Metal.Weighted>
-0.0000

> <Gold.Chemscore.Lipo.Weighted>
-13.6641

> <Gold.Chemscore.Internal_Hbond.Weighted>
0.0000

> <Gold.Chemscore.DEClash.Weighted>
0.0772

> <Gold.Chemscore.DEInternal.Weighted>
0.3474

> <Gold.Chemscore.Rot.Weighted>
3.5152

> <Gold.Chemscore.Internal.Correction.Weighted>
   9.000000E+99

> <Gold.Protein.RotatedTorsions>
[ 6907 6896 6895 6894 ] final   25.17 input  -60.11 | X-H torsion
[ 7974 7965 7964 7962 ] final  -49.39 input  175.53 | X-H torsion
[ 8008 7997 7996 7995 ] final  129.72 input   59.86 | X-H torsion
[ 10167 10162 10161 10158 ] final -111.14 input  -65.29 | X-H torsion
[ 10718 10713 10712 10709 ] final  114.22 input   66.30 | X-H torsion
[ 10763 10752 10751 10750 ] final   91.39 input  -60.55 | X-H torsion
[ 11005 11000 10999 10996 ] final -143.22 input  -57.11 | X-H torsion

> <Gold.Protein.ActiveResidues>
 VAL166  LYS551  ARG553  GLY616  TRP617  ASP618  TYR619  PRO620  LYS621  CYS622 
 ASP623  PHE694  ASN695  SER759  ASP760  ASP761  ALA762  ILE779  LEU786  VAL792 
 PHE793  MET794  SER795  GLU796  ALA797  LYS798  CYS799  TRP800  GLU811  SER814 

> <Gold.Protein.RotatedAtoms>
  151.9685  135.0088  160.0551 H   0  0  0  0  0  0  0  0  0  0  0  0  # atno 6907 bound_to 6896
  152.1804  133.4699  159.4963 H   0  0  0  0  0  0  0  0  0  0  0  0  # atno 6908 bound_to 6896
  150.6916  134.1758  159.4272 H   0  0  0  0  0  0  0  0  0  0  0  0  # atno 6909 bound_to 6896
  145.9410  140.7662  142.9552 H   0  0  0  0  0  0  0  0  0  0  0  0  # atno 7974 bound_to 7965
  156.2941  140.2613  156.2645 H   0  0  0  0  0  0  0  0  0  0  0  0  # atno 8008 bound_to 7997
  154.9756  140.0390  157.2273 H   0  0  0  0  0  0  0  0  0  0  0  0  # atno 8009 bound_to 7997
  154.7819  140.2796  155.6062 H   0  0  0  0  0  0  0  0  0  0  0  0  # atno 8010 bound_to 7997
  140.1369  143.4313  152.1589 H   0  0  0  0  0  0  0  0  0  0  0  0  # atno 10167 bound_to 10162
  157.6293  131.0995  150.7155 H   0  0  0  0  0  0  0  0  0  0  0  0  # atno 10718 bound_to 10713
  153.2077  135.4399  155.0343 H   0  0  0  0  0  0  0  0  0  0  0  0  # atno 10763 bound_to 10752
  154.8183  135.3325  154.7115 H   0  0  0  0  0  0  0  0  0  0  0  0  # atno 10764 bound_to 10752
  153.7556  135.6995  153.4992 H   0  0  0  0  0  0  0  0  0  0  0  0  # atno 10765 bound_to 10752
  140.8147  134.2703  157.4926 H   0  0  0  0  0  0  0  0  0  0  0  0  # atno 11005 bound_to 11000
  144.6779  140.2281  143.7358 LP  0  0  0  0  0  0  0  0  0  0  0  0  # atno 17320 bound_to 7965
  145.8299  139.2081  143.1889 LP  0  0  0  0  0  0  0  0  0  0  0  0  # atno 17321 bound_to 7965
  139.5491  144.7323  151.4489 LP  0  0  0  0  0  0  0  0  0  0  0  0  # atno 17342 bound_to 10162
  140.6784  143.8138  150.7088 LP  0  0  0  0  0  0  0  0  0  0  0  0  # atno 17343 bound_to 10162
  156.7497  130.4765  149.5459 LP  0  0  0  0  0  0  0  0  0  0  0  0  # atno 17370 bound_to 10713
  156.1486  130.6294  151.0565 LP  0  0  0  0  0  0  0  0  0  0  0  0  # atno 17371 bound_to 10713
  139.8712  134.9502  156.4049 LP  0  0  0  0  0  0  0  0  0  0  0  0  # atno 17394 bound_to 11000
  140.9161  133.7677  155.9850 LP  0  0  0  0  0  0  0  0  0  0  0  0  # atno 17395 bound_to 11000

$$$$
