AV-unprocessed.smi:3165|AV-procd|sdf|12085|dock5
  -GOLD-   2272017513D 1   1.00000     0.00000
 Structure written by MMmdl.
 38 39  0  0  0  0  0  0  0  0  2 V2000
  146.3965  138.9947  151.2586 C   0  0  0  0  0  0  0  0  0  0  0  0
  146.4535  138.3616  152.6588 C   0  0  2  0  0  0  0  0  0  0  0  0
  147.7161  138.7853  153.4448 C   0  0  0  0  0  0  0  0  0  0  0  0
  147.6966  140.1836  153.8343 N   0  0  0  0  0  0  0  0  0  0  0  0
  146.7437  141.1417  153.5577 C   0  0  0  0  0  0  0  0  0  0  0  0
  147.1671  142.3099  154.1242 C   0  0  0  0  0  0  0  0  0  0  0  0
  148.4081  141.9634  154.7278 C   0  0  0  0  0  0  0  0  0  0  0  0
  148.7235  140.6907  154.5500 N   0  0  0  0  0  0  0  0  0  0  0  0
  146.3709  136.8891  152.5343 N   0  3  0  0  0  0  0  0  0  0  0  0
  145.3624  136.3924  151.5740 C   0  0  0  0  0  0  0  0  0  0  0  0
  145.1127  134.8893  151.7620 C   0  0  2  0  0  0  0  0  0  0  0  0
  146.2964  134.0457  151.2492 C   0  0  0  0  0  0  0  0  0  0  0  0
  145.9809  132.5497  151.3562 C   0  0  0  0  0  0  0  0  0  0  0  0
  144.6514  132.2522  150.6558 C   0  0  0  0  0  0  0  0  0  0  0  0
  143.5494  133.1819  151.1874 C   0  0  0  0  0  0  0  0  0  0  0  0
  143.9412  134.5423  151.0258 O   0  0  0  0  0  0  0  0  0  0  0  0
  146.3609  140.0831  151.3107 H   0  0  0  0  0  0  0  0  0  0  0  0
  145.5068  138.6705  150.7174 H   0  0  0  0  0  0  0  0  0  0  0  0
  147.2673  138.7190  150.6630 H   0  0  0  0  0  0  0  0  0  0  0  0
  145.5686  138.6988  153.2011 H   0  0  0  0  0  0  0  0  0  0  0  0
  147.8305  138.1926  154.3525 H   0  0  0  0  0  0  0  0  0  0  0  0
  148.6096  138.6080  152.8447 H   0  0  0  0  0  0  0  0  0  0  0  0
  145.8533  140.9163  152.9893 H   0  0  0  0  0  0  0  0  0  0  0  0
  146.6683  143.2676  154.1083 H   0  0  0  0  0  0  0  0  0  0  0  0
  149.0852  142.5946  155.2845 H   0  0  0  0  0  0  0  0  0  0  0  0
  147.2715  136.5588  152.2180 H   0  0  0  0  0  0  0  0  0  0  0  0
  144.4266  136.9398  151.6865 H   0  0  0  0  0  0  0  0  0  0  0  0
  145.7241  136.5784  150.5619 H   0  0  0  0  0  0  0  0  0  0  0  0
  144.9530  134.6817  152.8220 H   0  0  0  0  0  0  0  0  0  0  0  0
  146.5065  134.2994  150.2092 H   0  0  0  0  0  0  0  0  0  0  0  0
  147.1995  134.2762  151.8153 H   0  0  0  0  0  0  0  0  0  0  0  0
  146.7843  131.9583  150.9158 H   0  0  0  0  0  0  0  0  0  0  0  0
  145.9164  132.2610  152.4061 H   0  0  0  0  0  0  0  0  0  0  0  0
  144.7623  132.3972  149.5804 H   0  0  0  0  0  0  0  0  0  0  0  0
  144.3713  131.2090  150.8037 H   0  0  0  0  0  0  0  0  0  0  0  0
  142.6225  133.0148  150.6384 H   0  0  0  0  0  0  0  0  0  0  0  0
  143.3386  132.9749  152.2377 H   0  0  0  0  0  0  0  0  0  0  0  0
  146.1875  136.4911  153.4446 H   0  0  0  0  0  0  0  0  0  0  0  0
  1  2  1  0  0  0  0
  1 17  1  0  0  0  0
  1 18  1  0  0  0  0
  1 19  1  0  0  0  0
  2  3  1  0  0  0  0
  2  9  1  0  0  0  0
  2 20  1  0  0  0  0
  3  4  1  0  0  0  0
  3 21  1  0  0  0  0
  3 22  1  0  0  0  0
  4  8  1  0  0  0  0
  4  5  1  0  0  0  0
  5  6  2  0  0  0  0
  5 23  1  0  0  0  0
  6  7  1  0  0  0  0
  6 24  1  0  0  0  0
  7  8  2  0  0  0  0
  7 25  1  0  0  0  0
  9 10  1  0  0  0  0
  9 26  1  0  0  0  0
  9 38  1  0  0  0  0
 10 11  1  0  0  0  0
 10 27  1  0  0  0  0
 10 28  1  0  0  0  0
 11 16  1  0  0  0  0
 11 12  1  0  0  0  0
 11 29  1  0  0  0  0
 12 13  1  0  0  0  0
 12 30  1  0  0  0  0
 12 31  1  0  0  0  0
 13 14  1  0  0  0  0
 13 32  1  0  0  0  0
 13 33  1  0  0  0  0
 14 15  1  0  0  0  0
 14 34  1  0  0  0  0
 14 35  1  0  0  0  0
 15 16  1  0  0  0  0
 15 36  1  0  0  0  0
 15 37  1  0  0  0  0
M  CHG  1   9   1
M  END
> <s_m_source_file>
AV-unprocessed.smi

> <i_m_source_file_index>
3165

> <i_lp_mmshare_version>
43012

> <i_f3d_flags>
0

> <s_epik_input>
bjFbY0hdW2NIXVtjSF1uMVtDSDJdW0NAQEhdKFtDSDNdKVtOSF1bQ0gyXVtDQEBIXTJbQ0gyXVtDSDJdW0NIMl1bQ0gyXU8y

> <s_epik_cmdline>
J2VwaWtfcHl0aG9uJywgJy1waCcsICc3LjAnLCAnLXRuJywgJzgnLCAnLW1hJywgJzIwMCcsICctbWV0YWxfYmluZGluZycsICctaW1hZScsICc8aW5maWxlLm1hZT4nLCAnLW9tYWUnLCAnPG91dGZpbGUubWFlPic=

> <r_lp_tautomer_probability>
1

> <r_epik_Ionization_Penalty>
0.00849196

> <r_epik_Ionization_Penalty_Charging>
0.00848754

> <r_epik_Ionization_Penalty_Neutral>
4.42049e-06

> <r_epik_State_Penalty>
0.00639836

> <r_epik_Charging_Adjusted_Penalty>
0.0148859

> <i_epik_Tot_Q>
1

> <i_epik_Tot_abs_Q>
1

> <r_epik_Metal_State_Penalty>
0.00639878

> <b_epik_Metal_Only>
0

> <s_lp_Force_Field>
OPLS_2005

> <r_lp_Energy>
12.7964

> <b_lp_Chiralities_Consistent>
1

> <s_lp_Variant>
AV-unprocessed.smi:3165-1

> <Gold.Version>
5.8.1

> <Gold.Id.Protein>
6NUR|6NUR_protein|mol2

> <Gold.PLP.Fitness>
43.1464

> <Gold.PLP.PLP>
-31.7287

> <Gold.PLP.part.hbond>
-1.0000

> <Gold.PLP.part.metal>
0.0000

> <Gold.PLP.part.buried>
2.2343

> <Gold.PLP.part.nonpolar>
-32.1740

> <Gold.PLP.part.repulsive>
0.3550

> <Gold.PLP.ligand.clash>
0.0000

> <Gold.PLP.ligand.torsion>
0.2918

> <Gold.PLP.Chemscore.Hbond>
2.0000

> <Gold.PLP.Chemscore.CHOScore>
1.9849

> <Gold.PLP.Chemscore.Metal>
0.0000

> <Gold.Chemscore.Hbonds>
donor molecule, donor type, donor heavy atom, donor atom, acceptor molecule, acceptor atom, score
      L1  H     9    26       P1  7948  2.00
      L1  C     5    23       P1 10175  1.00
      L1  C     7    25       P1  8028  0.93

> <Gold.PLP.Chemscore.Internal.Correction>
0.0464

> <Gold.Rescore>
     Score         DG    S(hbond)    S(metal)    S(lipo)     H(rot)  DE(clash)    DE(int)     intcor
     13.77     -14.64       0.99        0.00      86.02       1.64       0.55       0.32       ----

> <Gold.Chemscore.Fitness>
13.7660

> <Gold.Chemscore.DG>
-14.6391

> <Gold.Chemscore.ZeroCoef>
-5.4800

> <Gold.Chemscore.Hbond>
0.9893

> <Gold.Chemscore.Metal>
0.0000

> <Gold.Chemscore.Lipo>
86.0208

> <Gold.Chemscore.Internal_Hbond>
0.0000

> <Gold.Chemscore.DEClash>
0.5549

> <Gold.Chemscore.DEInternal>
0.3183

> <Gold.Chemscore.Rot>
1.6444

> <Gold.Chemscore.Internal.Correction>
   9.000000E+99

> <Gold.Chemscore.Hbonds>
donor molecule, donor type, donor heavy atom, donor atom, acceptor molecule, acceptor atom, score
      L1  H     9    26       P1  7948  1.00

> <Gold.Chemscore.Hbond.Weighted>
-3.3044

> <Gold.Chemscore.Metal.Weighted>
-0.0000

> <Gold.Chemscore.Lipo.Weighted>
-10.0644

> <Gold.Chemscore.Internal_Hbond.Weighted>
0.0000

> <Gold.Chemscore.DEClash.Weighted>
0.5549

> <Gold.Chemscore.DEInternal.Weighted>
0.3183

> <Gold.Chemscore.Rot.Weighted>
4.2097

> <Gold.Chemscore.Internal.Correction.Weighted>
   9.000000E+99

> <Gold.Protein.RotatedTorsions>
[ 6907 6896 6895 6894 ] final  103.33 input  -60.11 | X-H torsion
[ 7974 7965 7964 7962 ] final   54.47 input  175.53 | X-H torsion
[ 8008 7997 7996 7995 ] final   57.28 input   59.86 | X-H torsion
[ 10167 10162 10161 10158 ] final -120.06 input  -65.29 | X-H torsion
[ 10718 10713 10712 10709 ] final   -7.07 input   66.30 | X-H torsion
[ 10763 10752 10751 10750 ] final   41.16 input  -60.55 | X-H torsion
[ 11005 11000 10999 10996 ] final   74.05 input  -57.11 | X-H torsion

> <Gold.Protein.ActiveResidues>
 VAL166  LYS551  ARG553  GLY616  TRP617  ASP618  TYR619  PRO620  LYS621  CYS622 
 ASP623  PHE694  ASN695  SER759  ASP760  ASP761  ALA762  ILE779  LEU786  VAL792 
 PHE793  MET794  SER795  GLU796  ALA797  LYS798  CYS799  TRP800  GLU811  SER814 

> <Gold.Protein.RotatedAtoms>
  152.5298  133.9842  159.7820 H   0  0  0  0  0  0  0  0  0  0  0  0  # atno 6907 bound_to 6896
  151.0090  133.5975  159.2692 H   0  0  0  0  0  0  0  0  0  0  0  0  # atno 6908 bound_to 6896
  151.3056  135.0787  159.9307 H   0  0  0  0  0  0  0  0  0  0  0  0  # atno 6909 bound_to 6896
  145.9605  139.4054  143.0251 H   0  0  0  0  0  0  0  0  0  0  0  0  # atno 7974 bound_to 7965
  155.5312  140.3482  155.4427 H   0  0  0  0  0  0  0  0  0  0  0  0  # atno 8008 bound_to 7997
  156.0717  140.1364  156.9848 H   0  0  0  0  0  0  0  0  0  0  0  0  # atno 8009 bound_to 7997
  154.4531  140.0964  156.6653 H   0  0  0  0  0  0  0  0  0  0  0  0  # atno 8010 bound_to 7997
  140.0399  143.5164  152.2135 H   0  0  0  0  0  0  0  0  0  0  0  0  # atno 10167 bound_to 10162
  156.7227  130.5155  149.5864 H   0  0  0  0  0  0  0  0  0  0  0  0  # atno 10718 bound_to 10713
  152.9916  135.6170  154.2743 H   0  0  0  0  0  0  0  0  0  0  0  0  # atno 10763 bound_to 10752
  154.2475  135.2786  155.2831 H   0  0  0  0  0  0  0  0  0  0  0  0  # atno 10764 bound_to 10752
  154.5317  135.5786  153.6822 H   0  0  0  0  0  0  0  0  0  0  0  0  # atno 10765 bound_to 10752
  139.9410  134.7400  156.1101 H   0  0  0  0  0  0  0  0  0  0  0  0  # atno 11005 bound_to 11000
  145.8046  140.9754  143.0980 LP  0  0  0  0  0  0  0  0  0  0  0  0  # atno 17320 bound_to 7965
  144.6814  139.9845  143.7484 LP  0  0  0  0  0  0  0  0  0  0  0  0  # atno 17321 bound_to 7965
  139.6020  144.7585  151.3148 LP  0  0  0  0  0  0  0  0  0  0  0  0  # atno 17342 bound_to 10162
  140.7265  143.6989  150.7861 LP  0  0  0  0  0  0  0  0  0  0  0  0  # atno 17343 bound_to 10162
  156.1583  130.6357  151.0686 LP  0  0  0  0  0  0  0  0  0  0  0  0  # atno 17370 bound_to 10713
  157.6891  131.0815  150.7158 LP  0  0  0  0  0  0  0  0  0  0  0  0  # atno 17371 bound_to 10713
  141.1044  133.6665  156.2829 LP  0  0  0  0  0  0  0  0  0  0  0  0  # atno 17394 bound_to 11000
  140.5953  134.5610  157.5507 LP  0  0  0  0  0  0  0  0  0  0  0  0  # atno 17395 bound_to 11000

$$$$
