AV-unprocessed.smi:2304|AV-procd|sdf|9244|dock5
  -GOLD-   2272012463D 1   1.00000     0.00000
 Structure written by MMmdl.
 37 38  0  0  0  0  0  0  0  0  1 V2000
  151.3943  138.8435  154.1813 C   0  0  0  0  0  0  0  0  0  0  0  0
  150.0111  138.6973  154.4493 O   0  0  0  0  0  0  0  0  0  0  0  0
  149.5099  139.7130  155.3035 C   0  0  0  0  0  0  0  0  0  0  0  0
  149.5346  141.0770  154.5917 C   0  0  2  0  0  0  0  0  0  0  0  0
  149.6554  142.1234  155.6028 N   0  0  0  0  0  0  0  0  0  0  0  0
  150.4961  142.1053  156.6474 C   0  0  0  0  0  0  0  0  0  0  0  0
  151.2710  141.1773  156.8816 O   0  0  0  0  0  0  0  0  0  0  0  0
  150.3750  143.2224  157.3860 N   0  0  0  0  0  0  0  0  0  0  0  0
  151.0877  143.5792  158.5618 C   0  0  0  0  0  0  0  0  0  0  0  0
  150.9327  144.9227  158.9720 C   0  0  0  0  0  0  0  0  0  0  0  0
  151.5984  145.3754  160.1276 C   0  0  0  0  0  0  0  0  0  0  0  0
  152.4030  144.4725  160.8453 C   0  0  0  0  0  0  0  0  0  0  0  0
  152.5044  143.1507  160.3691 C   0  0  0  0  0  0  0  0  0  0  0  0
  153.3541  142.1256  161.0903 C   0  0  0  0  0  0  0  0  0  0  0  0
  151.8668  142.7165  159.2608 N   0  0  0  0  0  0  0  0  0  0  0  0
  148.3329  141.2614  153.6764 C   0  0  0  0  0  0  0  0  0  0  0  0
  147.3372  142.3774  153.8927 C   0  0  0  0  0  0  0  0  0  0  0  0
  146.9321  140.9440  154.1456 C   0  0  0  0  0  0  0  0  0  0  0  0
  151.7255  138.0398  153.5238 H   0  0  0  0  0  0  0  0  0  0  0  0
  151.9819  138.7918  155.0989 H   0  0  0  0  0  0  0  0  0  0  0  0
  151.6019  139.7922  153.6846 H   0  0  0  0  0  0  0  0  0  0  0  0
  148.4878  139.4659  155.5962 H   0  0  0  0  0  0  0  0  0  0  0  0
  150.1074  139.7580  156.2157 H   0  0  0  0  0  0  0  0  0  0  0  0
  150.4298  141.0922  153.9664 H   0  0  0  0  0  0  0  0  0  0  0  0
  149.0552  142.9273  155.4924 H   0  0  0  0  0  0  0  0  0  0  0  0
  149.6950  143.8974  157.0695 H   0  0  0  0  0  0  0  0  0  0  0  0
  150.3103  145.6037  158.4095 H   0  0  0  0  0  0  0  0  0  0  0  0
  151.4928  146.3985  160.4568 H   0  0  0  0  0  0  0  0  0  0  0  0
  152.9266  144.7886  161.7355 H   0  0  0  0  0  0  0  0  0  0  0  0
  153.7373  142.5206  162.0317 H   0  0  0  0  0  0  0  0  0  0  0  0
  154.2034  141.8357  160.4709 H   0  0  0  0  0  0  0  0  0  0  0  0
  152.7683  141.2327  161.3107 H   0  0  0  0  0  0  0  0  0  0  0  0
  148.5451  141.0221  152.6360 H   0  0  0  0  0  0  0  0  0  0  0  0
  147.4731  143.0194  154.7609 H   0  0  0  0  0  0  0  0  0  0  0  0
  146.9336  142.8673  153.0090 H   0  0  0  0  0  0  0  0  0  0  0  0
  146.2583  140.4761  153.4307 H   0  0  0  0  0  0  0  0  0  0  0  0
  146.7962  140.6405  155.1817 H   0  0  0  0  0  0  0  0  0  0  0  0
  1  2  1  0  0  0  0
  1 19  1  0  0  0  0
  1 20  1  0  0  0  0
  1 21  1  0  0  0  0
  2  3  1  0  0  0  0
  3  4  1  0  0  0  0
  3 22  1  0  0  0  0
  3 23  1  0  0  0  0
  4  5  1  0  0  0  0
  4 16  1  0  0  0  0
  4 24  1  0  0  0  0
  5  6  1  0  0  0  0
  5 25  1  0  0  0  0
  6  7  2  0  0  0  0
  6  8  1  0  0  0  0
  8  9  1  0  0  0  0
  8 26  1  0  0  0  0
  9 15  1  0  0  0  0
  9 10  2  0  0  0  0
 10 11  1  0  0  0  0
 10 27  1  0  0  0  0
 11 12  2  0  0  0  0
 11 28  1  0  0  0  0
 12 13  1  0  0  0  0
 12 29  1  0  0  0  0
 13 14  1  0  0  0  0
 13 15  2  0  0  0  0
 14 30  1  0  0  0  0
 14 31  1  0  0  0  0
 14 32  1  0  0  0  0
 16 18  1  0  0  0  0
 16 17  1  0  0  0  0
 16 33  1  0  0  0  0
 17 18  1  0  0  0  0
 17 34  1  0  0  0  0
 17 35  1  0  0  0  0
 18 36  1  0  0  0  0
 18 37  1  0  0  0  0
M  END
> <s_m_source_file>
AV-unprocessed.smi

> <i_m_source_file_index>
2304

> <i_lp_mmshare_version>
43012

> <i_f3d_flags>
0

> <s_epik_input>
W0NIM11PW0NIMl1bQ0BASF0oW0NIXTFbQ0gyXVtDSDJdMSlbTkhdQyg9TylbTkhdYzJbY0hdW2NIXVtjSF1jKG4yKVtDSDNd

> <s_epik_cmdline>
J2VwaWtfcHl0aG9uJywgJy1waCcsICc3LjAnLCAnLXRuJywgJzgnLCAnLW1hJywgJzIwMCcsICctbWV0YWxfYmluZGluZycsICctaW1hZScsICc8aW5maWxlLm1hZT4nLCAnLW9tYWUnLCAnPG91dGZpbGUubWFlPic=

> <r_lp_tautomer_probability>
1

> <r_epik_Ionization_Penalty>
8.58396e-05

> <r_epik_Ionization_Penalty_Charging>
0

> <r_epik_Ionization_Penalty_Neutral>
8.58396e-05

> <r_epik_State_Penalty>
-0

> <r_epik_Charging_Adjusted_Penalty>
0

> <i_epik_Tot_Q>
0

> <i_epik_Tot_abs_Q>
0

> <r_epik_Metal_State_Penalty>
-0

> <b_epik_Metal_Only>
0

> <s_lp_Force_Field>
OPLS_2005

> <r_lp_Energy>
16.2574

> <b_lp_Chiralities_Consistent>
1

> <s_lp_Variant>
AV-unprocessed.smi:2304-1

> <Gold.Version>
5.8.1

> <Gold.Id.Protein>
6NUR|6NUR_protein|mol2

> <Gold.PLP.Fitness>
45.7223

> <Gold.PLP.PLP>
-41.4295

> <Gold.PLP.part.hbond>
-2.0000

> <Gold.PLP.part.metal>
0.0000

> <Gold.PLP.part.buried>
-6.6210

> <Gold.PLP.part.nonpolar>
-32.3598

> <Gold.PLP.part.repulsive>
0.3424

> <Gold.PLP.ligand.clash>
0.0000

> <Gold.PLP.ligand.torsion>
1.3048

> <Gold.PLP.Chemscore.Hbond>
1.9440

> <Gold.PLP.Chemscore.CHOScore>
0.0000

> <Gold.PLP.Chemscore.Metal>
0.0000

> <Gold.Chemscore.Hbonds>
donor molecule, donor type, donor heavy atom, donor atom, acceptor molecule, acceptor atom, score
      L1  H     5    25       P1  8028  0.94
      L1  H     8    26       P1  8028  0.98

> <Gold.PLP.Chemscore.Internal.Correction>
1.0706

> <Gold.Rescore>
     Score         DG    S(hbond)    S(metal)    S(lipo)     H(rot)  DE(clash)    DE(int)     intcor
     14.43     -18.72       1.68        0.00     100.49       1.61       0.71       3.58       ----

> <Gold.Chemscore.Fitness>
14.4330

> <Gold.Chemscore.DG>
-18.7222

> <Gold.Chemscore.ZeroCoef>
-5.4800

> <Gold.Chemscore.Hbond>
1.6817

> <Gold.Chemscore.Metal>
0.0000

> <Gold.Chemscore.Lipo>
100.4912

> <Gold.Chemscore.Internal_Hbond>
0.0000

> <Gold.Chemscore.DEClash>
0.7112

> <Gold.Chemscore.DEInternal>
3.5780

> <Gold.Chemscore.Rot>
1.6142

> <Gold.Chemscore.Internal.Correction>
   9.000000E+99

> <Gold.Chemscore.Hbonds>
donor molecule, donor type, donor heavy atom, donor atom, acceptor molecule, acceptor atom, score
      L1  H     5    25       P1  8028  0.91
      L1  H     8    26       P1  8028  0.77

> <Gold.Chemscore.Hbond.Weighted>
-5.6170

> <Gold.Chemscore.Metal.Weighted>
-0.0000

> <Gold.Chemscore.Lipo.Weighted>
-11.7575

> <Gold.Chemscore.Internal_Hbond.Weighted>
0.0000

> <Gold.Chemscore.DEClash.Weighted>
0.7112

> <Gold.Chemscore.DEInternal.Weighted>
3.5780

> <Gold.Chemscore.Rot.Weighted>
4.1323

> <Gold.Chemscore.Internal.Correction.Weighted>
   9.000000E+99

> <Gold.Protein.RotatedTorsions>
[ 6907 6896 6895 6894 ] final   83.27 input  -60.11 | X-H torsion
[ 7974 7965 7964 7962 ] final -140.81 input  175.53 | X-H torsion
[ 8008 7997 7996 7995 ] final   83.98 input   59.86 | X-H torsion
[ 10167 10162 10161 10158 ] final  179.35 input  -65.29 | X-H torsion
[ 10718 10713 10712 10709 ] final -116.40 input   66.30 | X-H torsion
[ 10763 10752 10751 10750 ] final  -36.00 input  -60.55 | X-H torsion
[ 11005 11000 10999 10996 ] final -158.33 input  -57.11 | X-H torsion

> <Gold.Protein.ActiveResidues>
 VAL166  LYS551  ARG553  GLY616  TRP617  ASP618  TYR619  PRO620  LYS621  CYS622 
 ASP623  PHE694  ASN695  SER759  ASP760  ASP761  ALA762  ILE779  LEU786  VAL792 
 PHE793  MET794  SER795  GLU796  ALA797  LYS798  CYS799  TRP800  GLU811  SER814 

> <Gold.Protein.RotatedAtoms>
  152.5322  134.2921  159.9046 H   0  0  0  0  0  0  0  0  0  0  0  0  # atno 6907 bound_to 6896
  151.2873  133.4175  159.2638 H   0  0  0  0  0  0  0  0  0  0  0  0  # atno 6908 bound_to 6896
  151.0231  134.9499  159.8127 H   0  0  0  0  0  0  0  0  0  0  0  0  # atno 6909 bound_to 6896
  144.8568  140.6155  143.5354 H   0  0  0  0  0  0  0  0  0  0  0  0  # atno 7974 bound_to 7965
  155.9310  140.3415  155.6249 H   0  0  0  0  0  0  0  0  0  0  0  0  # atno 8008 bound_to 7997
  155.7157  140.0777  157.2371 H   0  0  0  0  0  0  0  0  0  0  0  0  # atno 8009 bound_to 7997
  154.4085  140.1614  156.2333 H   0  0  0  0  0  0  0  0  0  0  0  0  # atno 8010 bound_to 7997
  139.5332  144.2572  152.0737 H   0  0  0  0  0  0  0  0  0  0  0  0  # atno 10167 bound_to 10162
  156.0961  130.6133  150.9031 H   0  0  0  0  0  0  0  0  0  0  0  0  # atno 10718 bound_to 10713
  153.8725  135.6829  153.4773 H   0  0  0  0  0  0  0  0  0  0  0  0  # atno 10763 bound_to 10752
  153.1279  135.4711  154.9300 H   0  0  0  0  0  0  0  0  0  0  0  0  # atno 10764 bound_to 10752
  154.7707  135.3238  154.8146 H   0  0  0  0  0  0  0  0  0  0  0  0  # atno 10765 bound_to 10752
  140.6547  134.4413  157.5235 H   0  0  0  0  0  0  0  0  0  0  0  0  # atno 11005 bound_to 11000
  145.4390  139.1538  143.3980 LP  0  0  0  0  0  0  0  0  0  0  0  0  # atno 17320 bound_to 7965
  146.2829  140.4511  142.8769 LP  0  0  0  0  0  0  0  0  0  0  0  0  # atno 17321 bound_to 7965
  140.2038  144.4631  150.6418 LP  0  0  0  0  0  0  0  0  0  0  0  0  # atno 17342 bound_to 10162
  140.6524  143.2228  151.6047 LP  0  0  0  0  0  0  0  0  0  0  0  0  # atno 17343 bound_to 10162
  157.6122  131.0935  150.8774 LP  0  0  0  0  0  0  0  0  0  0  0  0  # atno 17370 bound_to 10713
  156.8912  130.5213  149.5286 LP  0  0  0  0  0  0  0  0  0  0  0  0  # atno 17371 bound_to 10713
  139.9033  134.8505  156.1805 LP  0  0  0  0  0  0  0  0  0  0  0  0  # atno 17394 bound_to 11000
  141.0510  133.6889  156.1772 LP  0  0  0  0  0  0  0  0  0  0  0  0  # atno 17395 bound_to 11000

$$$$
