AV-unprocessed.smi:3031|AV-procd|sdf|11549|dock5
  -GOLD-   2272016503D 1   1.00000     0.00000
 Structure written by MMmdl.
 48 49  0  0  0  0  0  0  0  0  3 V2000
  144.0301  131.8513  150.2398 C   0  0  0  0  0  0  0  0  0  0  0  0
  144.1495  133.2227  150.8399 C   0  0  0  0  0  0  0  0  0  0  0  0
  143.4301  133.7573  151.9457 C   0  0  0  0  0  0  0  0  0  0  0  0
  143.7688  135.0058  152.2231 N   0  0  0  0  0  0  0  0  0  0  0  0
  144.7184  135.3102  151.3127 N   0  0  0  0  0  0  0  0  0  0  0  0
  145.3202  136.6340  151.3006 C   0  0  0  0  0  0  0  0  0  0  0  0
  145.8794  137.0588  152.6744 C   0  0  2  0  0  0  0  0  0  0  0  0
  144.7628  137.6196  153.5698 C   0  0  0  0  0  0  0  0  0  0  0  0
  146.9656  138.0496  152.4970 N   0  3  0  0  0  0  0  0  0  0  0  0
  147.2444  138.8988  153.6752 C   0  0  0  0  0  0  0  0  0  0  0  0
  146.9897  140.3841  153.3646 C   0  0  2  0  0  0  0  0  0  0  0  0
  147.3643  140.6300  152.0221 O   0  0  0  0  0  0  0  0  0  0  0  0
  147.8149  141.3127  154.2805 C   0  0  0  0  0  0  0  0  0  0  0  0
  146.9739  142.2873  155.0235 N   0  3  0  0  0  0  0  0  0  0  0  0
  145.7696  142.7293  154.2760 C   0  0  0  0  0  0  0  0  0  0  0  0
  144.9744  143.7596  155.0968 C   0  0  0  0  0  0  0  0  0  0  0  0
  144.6244  143.1994  156.3557 O   0  0  0  0  0  0  0  0  0  0  0  0
  145.7718  142.8547  157.1213 C   0  0  0  0  0  0  0  0  0  0  0  0
  146.5933  141.7939  156.3689 C   0  0  0  0  0  0  0  0  0  0  0  0
  144.9583  134.2552  150.4576 C   0  0  0  0  0  0  0  0  0  0  0  0
  143.2661  131.8190  149.4629 H   0  0  0  0  0  0  0  0  0  0  0  0
  143.7602  131.1054  150.9877 H   0  0  0  0  0  0  0  0  0  0  0  0
  144.9657  131.5247  149.7852 H   0  0  0  0  0  0  0  0  0  0  0  0
  142.6742  133.2780  152.5502 H   0  0  0  0  0  0  0  0  0  0  0  0
  146.1116  136.6473  150.5496 H   0  0  0  0  0  0  0  0  0  0  0  0
  144.5616  137.3432  150.9667 H   0  0  0  0  0  0  0  0  0  0  0  0
  146.2930  136.1742  153.1610 H   0  0  0  0  0  0  0  0  0  0  0  0
  143.9549  136.8959  153.6827 H   0  0  0  0  0  0  0  0  0  0  0  0
  144.3342  138.5295  153.1482 H   0  0  0  0  0  0  0  0  0  0  0  0
  145.1256  137.8533  154.5706 H   0  0  0  0  0  0  0  0  0  0  0  0
  147.8116  137.5326  152.3026 H   0  0  0  0  0  0  0  0  0  0  0  0
  146.6000  138.5821  154.4956 H   0  0  0  0  0  0  0  0  0  0  0  0
  148.2746  138.7525  154.0039 H   0  0  0  0  0  0  0  0  0  0  0  0
  145.9250  140.5887  153.4757 H   0  0  0  0  0  0  0  0  0  0  0  0
  148.3000  140.5197  151.9388 H   0  0  0  0  0  0  0  0  0  0  0  0
  148.3971  140.7284  154.9949 H   0  0  0  0  0  0  0  0  0  0  0  0
  148.5411  141.8490  153.6669 H   0  0  0  0  0  0  0  0  0  0  0  0
  146.0506  143.1727  153.3215 H   0  0  0  0  0  0  0  0  0  0  0  0
  145.1383  141.8672  154.0541 H   0  0  0  0  0  0  0  0  0  0  0  0
  145.5509  144.6752  155.2390 H   0  0  0  0  0  0  0  0  0  0  0  0
  144.0621  144.0367  154.5683 H   0  0  0  0  0  0  0  0  0  0  0  0
  146.3723  143.7436  157.3216 H   0  0  0  0  0  0  0  0  0  0  0  0
  145.4487  142.4647  158.0868 H   0  0  0  0  0  0  0  0  0  0  0  0
  146.0160  140.8728  156.2720 H   0  0  0  0  0  0  0  0  0  0  0  0
  147.4891  141.5530  156.9431 H   0  0  0  0  0  0  0  0  0  0  0  0
  145.6786  134.3233  149.6554 H   0  0  0  0  0  0  0  0  0  0  0  0
  146.7572  138.6315  151.6983 H   0  0  0  0  0  0  0  0  0  0  0  0
  147.5470  143.1056  155.1757 H   0  0  0  0  0  0  0  0  0  0  0  0
  1  2  1  0  0  0  0
  1 21  1  0  0  0  0
  1 22  1  0  0  0  0
  1 23  1  0  0  0  0
  2 20  2  0  0  0  0
  2  3  1  0  0  0  0
  3  4  2  0  0  0  0
  3 24  1  0  0  0  0
  4  5  1  0  0  0  0
  5  6  1  0  0  0  0
  5 20  1  0  0  0  0
  6  7  1  0  0  0  0
  6 25  1  0  0  0  0
  6 26  1  0  0  0  0
  7  8  1  0  0  0  0
  7  9  1  0  0  0  0
  7 27  1  0  0  0  0
  8 28  1  0  0  0  0
  8 29  1  0  0  0  0
  8 30  1  0  0  0  0
  9 10  1  0  0  0  0
  9 31  1  0  0  0  0
  9 47  1  0  0  0  0
 10 11  1  0  0  0  0
 10 32  1  0  0  0  0
 10 33  1  0  0  0  0
 11 12  1  0  0  0  0
 11 13  1  0  0  0  0
 11 34  1  0  0  0  0
 12 35  1  0  0  0  0
 13 14  1  0  0  0  0
 13 36  1  0  0  0  0
 13 37  1  0  0  0  0
 14 19  1  0  0  0  0
 14 15  1  0  0  0  0
 14 48  1  0  0  0  0
 15 16  1  0  0  0  0
 15 38  1  0  0  0  0
 15 39  1  0  0  0  0
 16 17  1  0  0  0  0
 16 40  1  0  0  0  0
 16 41  1  0  0  0  0
 17 18  1  0  0  0  0
 18 19  1  0  0  0  0
 18 42  1  0  0  0  0
 18 43  1  0  0  0  0
 19 44  1  0  0  0  0
 19 45  1  0  0  0  0
 20 46  1  0  0  0  0
M  CHG  1   9   1
M  CHG  1  14   1
M  END
> <s_m_source_file>
AV-unprocessed.smi

> <i_m_source_file_index>
3031

> <i_lp_mmshare_version>
43012

> <i_f3d_flags>
0

> <s_epik_input>
W0NIM11jMVtjSF1ubihbY0hdMSlbQ0gyXVtDQEhdKFtDSDNdKVtOSF1bQ0gyXVtDQEhdKFtPSF0pW0NIMl1OMltDSDJdW0NIMl1PW0NIMl1bQ0gyXTI=

> <s_epik_cmdline>
J2VwaWtfcHl0aG9uJywgJy1waCcsICc3LjAnLCAnLXRuJywgJzgnLCAnLW1hJywgJzIwMCcsICctbWV0YWxfYmluZGluZycsICctaW1hZScsICc8aW5maWxlLm1hZT4nLCAnLW9tYWUnLCAnPG91dGZpbGUubWFlPic=

> <r_lp_tautomer_probability>
1

> <r_epik_Ionization_Penalty>
1.76542

> <r_epik_Ionization_Penalty_Charging>
1.76348

> <r_epik_Ionization_Penalty_Neutral>
0.00194017

> <r_epik_State_Penalty>
1.49348

> <r_epik_Charging_Adjusted_Penalty>
3.25696

> <i_epik_Tot_Q>
2

> <i_epik_Tot_abs_Q>
2

> <r_epik_Metal_State_Penalty>
1.49349

> <b_epik_Metal_Only>
0

> <s_lp_Force_Field>
OPLS_2005

> <r_lp_Energy>
27.3319

> <b_lp_Chiralities_Consistent>
1

> <s_lp_Variant>
AV-unprocessed.smi:3031-9

> <Gold.Version>
5.8.1

> <Gold.Id.Protein>
6NUR|6NUR_protein|mol2

> <Gold.PLP.Fitness>
47.8451

> <Gold.PLP.PLP>
-31.2185

> <Gold.PLP.part.hbond>
-2.6763

> <Gold.PLP.part.metal>
0.0000

> <Gold.PLP.part.buried>
-1.3035

> <Gold.PLP.part.nonpolar>
-28.7131

> <Gold.PLP.part.repulsive>
0.3799

> <Gold.PLP.ligand.clash>
0.0000

> <Gold.PLP.ligand.torsion>
2.3371

> <Gold.PLP.Chemscore.Hbond>
5.0000

> <Gold.PLP.Chemscore.CHOScore>
2.0000

> <Gold.PLP.Chemscore.Metal>
0.0000

> <Gold.Chemscore.Hbonds>
donor molecule, donor type, donor heavy atom, donor atom, acceptor molecule, acceptor atom, score
      L1  H     9    31       P1  7948  2.00
      L1  H    12    35       P1  7957  1.00
      L1  H    14    48       P1  8028  1.59
      L1  C     3    24       P1 10957  0.63
      L1  C    20    46       P1  7921  1.00

> <Gold.PLP.Chemscore.Internal.Correction>
0.3009

> <Gold.Rescore>
     Score         DG    S(hbond)    S(metal)    S(lipo)     H(rot)  DE(clash)    DE(int)     intcor
     12.55     -17.42       2.96        0.00      77.67       2.74       2.53       2.33       ----

> <Gold.Chemscore.Fitness>
12.5503

> <Gold.Chemscore.DG>
-17.4183

> <Gold.Chemscore.ZeroCoef>
-5.4800

> <Gold.Chemscore.Hbond>
2.9563

> <Gold.Chemscore.Metal>
0.0000

> <Gold.Chemscore.Lipo>
77.6687

> <Gold.Chemscore.Internal_Hbond>
0.0000

> <Gold.Chemscore.DEClash>
2.5341

> <Gold.Chemscore.DEInternal>
2.3339

> <Gold.Chemscore.Rot>
2.7434

> <Gold.Chemscore.Internal.Correction>
   9.000000E+99

> <Gold.Chemscore.Hbonds>
donor molecule, donor type, donor heavy atom, donor atom, acceptor molecule, acceptor atom, score
      L1  H     9    31       P1  7948  1.00
      L1  H    12    35       P1  7957  0.93
      L1  H    14    48       P1  8028  0.31

> <Gold.Chemscore.Hbond.Weighted>
-9.8741

> <Gold.Chemscore.Metal.Weighted>
-0.0000

> <Gold.Chemscore.Lipo.Weighted>
-9.0872

> <Gold.Chemscore.Internal_Hbond.Weighted>
0.0000

> <Gold.Chemscore.DEClash.Weighted>
2.5341

> <Gold.Chemscore.DEInternal.Weighted>
2.3339

> <Gold.Chemscore.Rot.Weighted>
7.0231

> <Gold.Chemscore.Internal.Correction.Weighted>
   9.000000E+99

> <Gold.Protein.RotatedTorsions>
[ 6907 6896 6895 6894 ] final -112.57 input  -60.11 | X-H torsion
[ 7974 7965 7964 7962 ] final   54.26 input  175.53 | X-H torsion
[ 8008 7997 7996 7995 ] final   38.38 input   59.86 | X-H torsion
[ 10167 10162 10161 10158 ] final  -68.75 input  -65.29 | X-H torsion
[ 10718 10713 10712 10709 ] final   33.26 input   66.30 | X-H torsion
[ 10763 10752 10751 10750 ] final -130.36 input  -60.55 | X-H torsion
[ 11005 11000 10999 10996 ] final  -20.16 input  -57.11 | X-H torsion

> <Gold.Protein.ActiveResidues>
 VAL166  LYS551  ARG553  GLY616  TRP617  ASP618  TYR619  PRO620  LYS621  CYS622 
 ASP623  PHE694  ASN695  SER759  ASP760  ASP761  ALA762  ILE779  LEU786  VAL792 
 PHE793  MET794  SER795  GLU796  ALA797  LYS798  CYS799  TRP800  GLU811  SER814 

> <Gold.Protein.RotatedAtoms>
  150.7768  133.9070  159.3357 H   0  0  0  0  0  0  0  0  0  0  0  0  # atno 6907 bound_to 6896
  151.6943  135.0939  160.0249 H   0  0  0  0  0  0  0  0  0  0  0  0  # atno 6908 bound_to 6896
  152.3806  133.6503  159.6194 H   0  0  0  0  0  0  0  0  0  0  0  0  # atno 6909 bound_to 6896
  145.9627  139.4074  143.0238 H   0  0  0  0  0  0  0  0  0  0  0  0  # atno 7974 bound_to 7965
  155.2193  140.3329  155.4318 H   0  0  0  0  0  0  0  0  0  0  0  0  # atno 8008 bound_to 7997
  156.2340  140.1863  156.7217 H   0  0  0  0  0  0  0  0  0  0  0  0  # atno 8009 bound_to 7997
  154.6026  140.0621  156.9374 H   0  0  0  0  0  0  0  0  0  0  0  0  # atno 8010 bound_to 7997
  140.5483  143.2312  151.6959 H   0  0  0  0  0  0  0  0  0  0  0  0  # atno 10167 bound_to 10162
  157.2956  130.7325  149.6636 H   0  0  0  0  0  0  0  0  0  0  0  0  # atno 10718 bound_to 10713
  154.8755  135.3865  154.4071 H   0  0  0  0  0  0  0  0  0  0  0  0  # atno 10763 bound_to 10752
  153.4789  135.7030  153.5955 H   0  0  0  0  0  0  0  0  0  0  0  0  # atno 10764 bound_to 10752
  153.4379  135.3863  155.2178 H   0  0  0  0  0  0  0  0  0  0  0  0  # atno 10765 bound_to 10752
  140.8437  133.7907  155.9889 H   0  0  0  0  0  0  0  0  0  0  0  0  # atno 11005 bound_to 11000
  145.8017  140.9767  143.0995 LP  0  0  0  0  0  0  0  0  0  0  0  0  # atno 17320 bound_to 7965
  144.6818  139.9810  143.7483 LP  0  0  0  0  0  0  0  0  0  0  0  0  # atno 17321 bound_to 7965
  139.5017  144.3858  152.0329 LP  0  0  0  0  0  0  0  0  0  0  0  0  # atno 17342 bound_to 10162
  140.2973  144.3686  150.6070 LP  0  0  0  0  0  0  0  0  0  0  0  0  # atno 17343 bound_to 10162
  155.9669  130.4295  150.4837 LP  0  0  0  0  0  0  0  0  0  0  0  0  # atno 17370 bound_to 10713
  157.2808  131.0606  151.2199 LP  0  0  0  0  0  0  0  0  0  0  0  0  # atno 17371 bound_to 10713
  140.8867  134.2546  157.5116 LP  0  0  0  0  0  0  0  0  0  0  0  0  # atno 17394 bound_to 11000
  139.8703  134.9641  156.4485 LP  0  0  0  0  0  0  0  0  0  0  0  0  # atno 17395 bound_to 11000

$$$$
