AV-unprocessed.smi:171|AV-procd|sdf|1421|dock7
  -GOLD-   2262019193D 1   1.00000     0.00000
 Structure written by MMmdl.
 56 59  0  0  0  0  0  0  0  0  1 V2000
  152.7528  142.4608  159.4323 C   0  0  0  0  0  0  0  0  0  0  0  0
  152.0491  142.2376  158.0842 C   0  0  0  0  0  0  0  0  0  0  0  0
  151.1374  143.4310  157.7592 C   0  0  0  0  0  0  0  0  0  0  0  0
  151.2546  140.9126  158.0103 C   0  0  0  0  0  0  0  0  0  0  0  0
  150.5884  140.6118  156.6331 C   0  0  1  0  0  0  0  0  0  0  0  0
  151.5405  140.0600  155.5423 C   0  0  0  0  0  0  0  0  0  0  0  0
  152.7437  140.3089  155.5701 O   0  0  0  0  0  0  0  0  0  0  0  0
  151.0101  139.3047  154.5636 N   0  0  0  0  0  0  0  0  0  0  0  0
  149.6056  138.9019  154.4539 C   0  0  0  0  0  0  0  0  0  0  0  0
  148.6807  139.5911  155.4797 C   0  0  0  0  0  0  0  0  0  0  0  0
  149.3690  139.7920  156.7529 N   0  0  0  0  0  0  0  0  0  0  0  0
  149.3545  138.6773  157.5341 C   0  0  0  0  0  0  0  0  0  0  0  0
  150.4880  138.2449  158.1489 N   0  0  0  0  0  0  0  0  0  0  0  0
  150.4693  137.1410  158.9010 C   0  0  0  0  0  0  0  0  0  0  0  0
  149.4442  136.3287  159.1647 N   0  0  0  0  0  0  0  0  0  0  0  0
  148.3052  136.7543  158.5475 C   0  0  0  0  0  0  0  0  0  0  0  0
  148.1737  137.9082  157.7247 C   0  0  0  0  0  0  0  0  0  0  0  0
  146.8624  138.0282  157.2810 N   0  0  0  0  0  0  0  0  0  0  0  0
  146.2542  137.0003  157.8072 C   0  0  0  0  0  0  0  0  0  0  0  0
  147.0482  136.1761  158.5730 N   0  0  0  0  0  0  0  0  0  0  0  0
  146.6373  134.9634  159.2642 C   0  0  0  0  0  0  0  0  0  0  0  0
  146.2626  135.1995  160.7513 C   0  0  2  0  0  0  0  0  0  0  0  0
  144.9965  135.8365  160.7921 O   0  0  0  0  0  0  0  0  0  0  0  0
  147.2559  136.0913  161.4932 C   0  0  0  0  0  0  0  0  0  0  0  0
  147.1622  135.5942  162.9273 C   0  0  0  0  0  0  0  0  0  0  0  0
  147.0503  134.1930  162.7549 O   0  0  0  0  0  0  0  0  0  0  0  0
  146.1843  133.9346  161.6532 C   0  0  2  0  0  0  0  0  0  0  0  0
  146.6122  132.6015  161.0199 C   0  0  0  0  0  0  0  0  0  0  0  0
  152.0408  142.4550  160.2582 H   0  0  0  0  0  0  0  0  0  0  0  0
  153.2711  143.4198  159.4491 H   0  0  0  0  0  0  0  0  0  0  0  0
  153.5010  141.6925  159.6248 H   0  0  0  0  0  0  0  0  0  0  0  0
  152.8195  142.2075  157.3125 H   0  0  0  0  0  0  0  0  0  0  0  0
  150.3351  143.5273  158.4917 H   0  0  0  0  0  0  0  0  0  0  0  0
  150.6793  143.3231  156.7757 H   0  0  0  0  0  0  0  0  0  0  0  0
  151.6986  144.3659  157.7560 H   0  0  0  0  0  0  0  0  0  0  0  0
  151.8862  140.0806  158.3248 H   0  0  0  0  0  0  0  0  0  0  0  0
  150.4791  140.9800  158.7742 H   0  0  0  0  0  0  0  0  0  0  0  0
  150.2341  141.5666  156.2425 H   0  0  0  0  0  0  0  0  0  0  0  0
  151.6371  138.9553  153.8535 H   0  0  0  0  0  0  0  0  0  0  0  0
  149.2503  139.0799  153.4387 H   0  0  0  0  0  0  0  0  0  0  0  0
  149.5725  137.8231  154.6101 H   0  0  0  0  0  0  0  0  0  0  0  0
  148.3883  140.5712  155.1010 H   0  0  0  0  0  0  0  0  0  0  0  0
  147.7523  139.0300  155.5919 H   0  0  0  0  0  0  0  0  0  0  0  0
  151.4107  136.8689  159.3548 H   0  0  0  0  0  0  0  0  0  0  0  0
  145.2030  136.8115  157.6452 H   0  0  0  0  0  0  0  0  0  0  0  0
  145.7950  134.5317  158.7222 H   0  0  0  0  0  0  0  0  0  0  0  0
  147.4558  134.2475  159.1857 H   0  0  0  0  0  0  0  0  0  0  0  0
  144.9367  136.3337  161.5934 H   0  0  0  0  0  0  0  0  0  0  0  0
  148.2677  135.9107  161.1279 H   0  0  0  0  0  0  0  0  0  0  0  0
  147.0531  137.1587  161.3936 H   0  0  0  0  0  0  0  0  0  0  0  0
  148.0344  135.8592  163.5252 H   0  0  0  0  0  0  0  0  0  0  0  0
  146.2694  135.9805  163.4215 H   0  0  0  0  0  0  0  0  0  0  0  0
  145.1754  133.8154  162.0528 H   0  0  0  0  0  0  0  0  0  0  0  0
  145.9733  132.3381  160.1769 H   0  0  0  0  0  0  0  0  0  0  0  0
  146.5411  131.7923  161.7467 H   0  0  0  0  0  0  0  0  0  0  0  0
  147.6444  132.6348  160.6706 H   0  0  0  0  0  0  0  0  0  0  0  0
  1  2  1  0  0  0  0
  1 29  1  0  0  0  0
  1 30  1  0  0  0  0
  1 31  1  0  0  0  0
  2  3  1  0  0  0  0
  2  4  1  0  0  0  0
  2 32  1  0  0  0  0
  3 33  1  0  0  0  0
  3 34  1  0  0  0  0
  3 35  1  0  0  0  0
  4  5  1  0  0  0  0
  4 36  1  0  0  0  0
  4 37  1  0  0  0  0
  5 11  1  0  0  0  0
  5  6  1  0  0  0  0
  5 38  1  0  0  0  0
  6  7  2  0  0  0  0
  6  8  1  0  0  0  0
  8  9  1  0  0  0  0
  8 39  1  0  0  0  0
  9 10  1  0  0  0  0
  9 40  1  0  0  0  0
  9 41  1  0  0  0  0
 10 11  1  0  0  0  0
 10 42  1  0  0  0  0
 10 43  1  0  0  0  0
 11 12  1  0  0  0  0
 12 17  1  0  0  0  0
 12 13  2  0  0  0  0
 13 14  1  0  0  0  0
 14 15  2  0  0  0  0
 14 44  1  0  0  0  0
 15 16  1  0  0  0  0
 16 20  1  0  0  0  0
 16 17  2  0  0  0  0
 17 18  1  0  0  0  0
 18 19  2  0  0  0  0
 19 20  1  0  0  0  0
 19 45  1  0  0  0  0
 20 21  1  0  0  0  0
 21 22  1  0  0  0  0
 21 46  1  0  0  0  0
 21 47  1  0  0  0  0
 22 27  1  0  0  0  0
 22 23  1  0  0  0  0
 22 24  1  0  0  0  0
 23 48  1  0  0  0  0
 24 25  1  0  0  0  0
 24 49  1  0  0  0  0
 24 50  1  0  0  0  0
 25 26  1  0  0  0  0
 25 51  1  0  0  0  0
 25 52  1  0  0  0  0
 26 27  1  0  0  0  0
 27 28  1  0  0  0  0
 27 53  1  0  0  0  0
 28 54  1  0  0  0  0
 28 55  1  0  0  0  0
 28 56  1  0  0  0  0
M  END
> <s_m_source_file>
AV-unprocessed.smi

> <i_m_source_file_index>
171

> <i_lp_mmshare_version>
43012

> <i_f3d_flags>
0

> <s_epik_input>
W0NIM11bQ0hdKFtDSDNdKVtDSDJdW0NAQEhdMUMoPU8pW05IXVtDSDJdW0NIMl1OMWMobltjSF1uMiljKGMyMyluW2NIXW4zW0NIMl1bQ0BAXTQoW09IXSlbQ0gyXVtDSDJdT1tDQEhdNFtDSDNd

> <s_epik_cmdline>
J2VwaWtfcHl0aG9uJywgJy1waCcsICc3LjAnLCAnLXRuJywgJzgnLCAnLW1hJywgJzIwMCcsICctbWV0YWxfYmluZGluZycsICctaW1hZScsICc8aW5maWxlLm1hZT4nLCAnLW9tYWUnLCAnPG91dGZpbGUubWFlPic=

> <r_lp_tautomer_probability>
1

> <r_epik_Ionization_Penalty>
0.000670584

> <r_epik_Ionization_Penalty_Charging>
0

> <r_epik_Ionization_Penalty_Neutral>
0.000670584

> <r_epik_State_Penalty>
0.000304767

> <r_epik_Charging_Adjusted_Penalty>
0.000304767

> <i_epik_Tot_Q>
0

> <i_epik_Tot_abs_Q>
0

> <r_epik_Metal_State_Penalty>
-0

> <b_epik_Metal_Only>
0

> <s_lp_Force_Field>
OPLS_2005

> <r_lp_Energy>
45.2633

> <b_lp_Chiralities_Consistent>
1

> <s_lp_Variant>
AV-unprocessed.smi:171-8

> <Gold.Version>
5.8.1

> <Gold.Id.Protein>
6NUR|6NUR_protein|mol2

> <Gold.PLP.Fitness>
41.0894

> <Gold.PLP.PLP>
-37.9320

> <Gold.PLP.part.hbond>
-4.5947

> <Gold.PLP.part.metal>
0.0000

> <Gold.PLP.part.buried>
-3.2660

> <Gold.PLP.part.nonpolar>
-30.3491

> <Gold.PLP.part.repulsive>
0.1253

> <Gold.PLP.ligand.clash>
0.0000

> <Gold.PLP.ligand.torsion>
0.9604

> <Gold.PLP.Chemscore.Hbond>
1.5688

> <Gold.PLP.Chemscore.CHOScore>
0.0000

> <Gold.PLP.Chemscore.Metal>
0.0000

> <Gold.Chemscore.Hbonds>
donor molecule, donor type, donor heavy atom, donor atom, acceptor molecule, acceptor atom, score
      P1  H  6896  6908       L1    15  0.49
      P1  H  7997  8009       L1     7  1.00

> <Gold.PLP.Chemscore.Internal.Correction>
0.3721

> <Gold.Rescore>
     Score         DG    S(hbond)    S(metal)    S(lipo)     H(rot)  DE(clash)    DE(int)     intcor
      8.65     -14.18       1.01        0.00     102.60       2.61       2.63       2.90       ----

> <Gold.Chemscore.Fitness>
8.6499

> <Gold.Chemscore.DG>
-14.1753

> <Gold.Chemscore.ZeroCoef>
-5.4800

> <Gold.Chemscore.Hbond>
1.0077

> <Gold.Chemscore.Metal>
0.0000

> <Gold.Chemscore.Lipo>
102.6019

> <Gold.Chemscore.Internal_Hbond>
0.0000

> <Gold.Chemscore.DEClash>
2.6279

> <Gold.Chemscore.DEInternal>
2.8975

> <Gold.Chemscore.Rot>
2.6074

> <Gold.Chemscore.Internal.Correction>
   9.000000E+99

> <Gold.Chemscore.Hbonds>
donor molecule, donor type, donor heavy atom, donor atom, acceptor molecule, acceptor atom, score
      P1  H  6896  6908       L1    15  0.03
      P1  H  7997  8009       L1     7  0.96

> <Gold.Chemscore.Hbond.Weighted>
-3.3657

> <Gold.Chemscore.Metal.Weighted>
-0.0000

> <Gold.Chemscore.Lipo.Weighted>
-12.0044

> <Gold.Chemscore.Internal_Hbond.Weighted>
0.0000

> <Gold.Chemscore.DEClash.Weighted>
2.6279

> <Gold.Chemscore.DEInternal.Weighted>
2.8975

> <Gold.Chemscore.Rot.Weighted>
6.6748

> <Gold.Chemscore.Internal.Correction.Weighted>
   9.000000E+99

> <Gold.Protein.RotatedTorsions>
[ 6907 6896 6895 6894 ] final  179.72 input  -60.11 | X-H torsion
[ 7974 7965 7964 7962 ] final   98.36 input  175.53 | X-H torsion
[ 8008 7997 7996 7995 ] final -136.19 input   59.86 | X-H torsion
[ 10167 10162 10161 10158 ] final  146.58 input  -65.29 | X-H torsion
[ 10718 10713 10712 10709 ] final -106.16 input   66.30 | X-H torsion
[ 10763 10752 10751 10750 ] final -115.21 input  -60.55 | X-H torsion
[ 11005 11000 10999 10996 ] final -157.62 input  -57.11 | X-H torsion

> <Gold.Protein.ActiveResidues>
 VAL166  LYS551  ARG553  GLY616  TRP617  ASP618  TYR619  PRO620  LYS621  CYS622 
 ASP623  PHE694  ASN695  SER759  ASP760  ASP761  ALA762  ILE779  LEU786  VAL792 
 PHE793  MET794  SER795  GLU796  ALA797  LYS798  CYS799  TRP800  GLU811  SER814 

> <Gold.Protein.RotatedAtoms>
  151.6670  133.3315  159.3187 H   0  0  0  0  0  0  0  0  0  0  0  0  # atno 6907 bound_to 6896
  150.7886  134.6895  159.6498 H   0  0  0  0  0  0  0  0  0  0  0  0  # atno 6908 bound_to 6896
  152.3961  134.6367  160.0141 H   0  0  0  0  0  0  0  0  0  0  0  0  # atno 6909 bound_to 6896
  145.4132  139.2331  143.3237 H   0  0  0  0  0  0  0  0  0  0  0  0  # atno 7974 bound_to 7965
  155.3911  140.0500  157.3040 H   0  0  0  0  0  0  0  0  0  0  0  0  # atno 8008 bound_to 7997
  154.5036  140.2166  155.9258 H   0  0  0  0  0  0  0  0  0  0  0  0  # atno 8009 bound_to 7997
  156.1497  140.3138  155.8634 H   0  0  0  0  0  0  0  0  0  0  0  0  # atno 8010 bound_to 7997
  139.4904  144.5819  151.6855 H   0  0  0  0  0  0  0  0  0  0  0  0  # atno 10167 bound_to 10162
  156.0377  130.5599  150.7641 H   0  0  0  0  0  0  0  0  0  0  0  0  # atno 10718 bound_to 10713
  154.8472  135.4390  154.1627 H   0  0  0  0  0  0  0  0  0  0  0  0  # atno 10763 bound_to 10752
  153.2760  135.6949  153.7439 H   0  0  0  0  0  0  0  0  0  0  0  0  # atno 10764 bound_to 10752
  153.6662  135.3426  155.3116 H   0  0  0  0  0  0  0  0  0  0  0  0  # atno 10765 bound_to 10752
  140.6626  134.4333  157.5234 H   0  0  0  0  0  0  0  0  0  0  0  0  # atno 11005 bound_to 11000
  146.2694  140.4846  142.8820 LP  0  0  0  0  0  0  0  0  0  0  0  0  # atno 17320 bound_to 7965
  144.8295  140.6684  143.6300 LP  0  0  0  0  0  0  0  0  0  0  0  0  # atno 17321 bound_to 7965
  140.5426  144.0554  150.6094 LP  0  0  0  0  0  0  0  0  0  0  0  0  # atno 17342 bound_to 10162
  140.3581  143.2924  152.0413 LP  0  0  0  0  0  0  0  0  0  0  0  0  # atno 17343 bound_to 10162
  157.5152  131.0928  151.0148 LP  0  0  0  0  0  0  0  0  0  0  0  0  # atno 17370 bound_to 10713
  157.0493  130.5780  149.5368 LP  0  0  0  0  0  0  0  0  0  0  0  0  # atno 17371 bound_to 10713
  139.9008  134.8561  156.1906 LP  0  0  0  0  0  0  0  0  0  0  0  0  # atno 17394 bound_to 11000
  141.0453  133.6916  156.1672 LP  0  0  0  0  0  0  0  0  0  0  0  0  # atno 17395 bound_to 11000

$$$$
