AV-unprocessed.smi:399|AV-procd|sdf|2490|dock3
  -GOLD-   2262022433D 1   1.00000     0.00000
 Structure written by MMmdl.
 46 47  0  0  0  0  0  0  0  0  3 V2000
  149.9555  134.5304  154.9061 C   0  0  0  0  0  0  0  0  0  0  0  0
  149.2593  135.8497  155.3294 C   0  0  0  0  0  0  0  0  0  0  0  0
  147.7937  135.7146  154.8406 C   0  0  0  0  0  0  0  0  0  0  0  0
  149.2652  135.9487  156.8848 C   0  0  0  0  0  0  0  0  0  0  0  0
  148.2941  135.0604  157.5167 N   0  0  0  0  0  0  0  0  0  0  0  0
  148.5816  133.8487  158.0114 C   0  0  0  0  0  0  0  0  0  0  0  0
  149.7133  133.3625  157.9837 O   0  0  0  0  0  0  0  0  0  0  0  0
  147.4085  133.0873  158.6454 C   0  0  0  0  0  0  0  0  0  0  0  0
  147.1592  133.4602  160.0483 N   0  0  0  0  0  0  0  0  0  0  0  0
  147.1572  134.8356  160.3537 C   0  0  0  0  0  0  0  0  0  0  0  0
  146.9482  135.2911  161.6045 C   0  0  0  0  0  0  0  0  0  0  0  0
  146.9568  136.7068  161.9013 N   0  3  0  0  0  0  0  0  0  0  0  0
  147.6837  137.1148  162.8014 O   0  0  0  0  0  0  0  0  0  0  0  0
  146.2383  137.4568  161.2471 O   0  5  0  0  0  0  0  0  0  0  0  0
  146.7184  134.3117  162.6488 C   0  0  0  0  0  0  0  0  0  0  0  0
  146.7237  132.9946  162.3642 C   0  0  0  0  0  0  0  0  0  0  0  0
  146.9573  132.5011  161.0031 C   0  0  0  0  0  0  0  0  0  0  0  0
  146.9709  131.2989  160.7377 O   0  0  0  0  0  0  0  0  0  0  0  0
  149.9176  137.0141  154.6753 N   0  0  0  0  0  0  0  0  0  0  0  0
  149.2154  138.2939  154.8335 C   0  0  0  0  0  0  0  0  0  0  0  0
  149.8805  139.4229  154.0275 C   0  0  0  0  0  0  0  0  0  0  0  0
  151.2427  139.5504  154.4160 O   0  0  0  0  0  0  0  0  0  0  0  0
  151.9767  138.3476  154.2218 C   0  0  0  0  0  0  0  0  0  0  0  0
  151.3293  137.2090  155.0287 C   0  0  0  0  0  0  0  0  0  0  0  0
  149.3831  133.6499  155.1994 H   0  0  0  0  0  0  0  0  0  0  0  0
  150.9390  134.4188  155.3624 H   0  0  0  0  0  0  0  0  0  0  0  0
  150.0824  134.4801  153.8238 H   0  0  0  0  0  0  0  0  0  0  0  0
  147.3455  134.7668  155.1401 H   0  0  0  0  0  0  0  0  0  0  0  0
  147.7339  135.7644  153.7526 H   0  0  0  0  0  0  0  0  0  0  0  0
  147.1498  136.4951  155.2457 H   0  0  0  0  0  0  0  0  0  0  0  0
  150.2472  135.6975  157.2862 H   0  0  0  0  0  0  0  0  0  0  0  0
  149.0479  136.9690  157.2022 H   0  0  0  0  0  0  0  0  0  0  0  0
  147.3418  135.3909  157.5776 H   0  0  0  0  0  0  0  0  0  0  0  0
  146.5189  133.2680  158.0401 H   0  0  0  0  0  0  0  0  0  0  0  0
  147.5929  132.0143  158.5657 H   0  0  0  0  0  0  0  0  0  0  0  0
  147.3455  135.4821  159.5086 H   0  0  0  0  0  0  0  0  0  0  0  0
  146.5408  134.6266  163.6666 H   0  0  0  0  0  0  0  0  0  0  0  0
  146.5509  132.2825  163.1579 H   0  0  0  0  0  0  0  0  0  0  0  0
  148.1816  138.2152  154.5024 H   0  0  0  0  0  0  0  0  0  0  0  0
  149.1913  138.5850  155.8836 H   0  0  0  0  0  0  0  0  0  0  0  0
  149.8162  139.2231  152.9567 H   0  0  0  0  0  0  0  0  0  0  0  0
  149.3693  140.3687  154.2082 H   0  0  0  0  0  0  0  0  0  0  0  0
  152.0090  138.0992  153.1598 H   0  0  0  0  0  0  0  0  0  0  0  0
  153.0058  138.5031  154.5457 H   0  0  0  0  0  0  0  0  0  0  0  0
  151.4258  137.4366  156.0902 H   0  0  0  0  0  0  0  0  0  0  0  0
  151.9060  136.3043  154.8452 H   0  0  0  0  0  0  0  0  0  0  0  0
  1  2  1  0  0  0  0
  1 25  1  0  0  0  0
  1 26  1  0  0  0  0
  1 27  1  0  0  0  0
  2  3  1  0  0  0  0
  2  4  1  0  0  0  0
  2 19  1  0  0  0  0
  3 28  1  0  0  0  0
  3 29  1  0  0  0  0
  3 30  1  0  0  0  0
  4  5  1  0  0  0  0
  4 31  1  0  0  0  0
  4 32  1  0  0  0  0
  5  6  1  0  0  0  0
  5 33  1  0  0  0  0
  6  7  2  0  0  0  0
  6  8  1  0  0  0  0
  8  9  1  0  0  0  0
  8 34  1  0  0  0  0
  8 35  1  0  0  0  0
  9 17  1  0  0  0  0
  9 10  1  0  0  0  0
 10 11  2  0  0  0  0
 10 36  1  0  0  0  0
 11 12  1  0  0  0  0
 11 15  1  0  0  0  0
 12 13  2  0  0  0  0
 12 14  1  0  0  0  0
 15 16  2  0  0  0  0
 15 37  1  0  0  0  0
 16 17  1  0  0  0  0
 16 38  1  0  0  0  0
 17 18  2  0  0  0  0
 19 24  1  0  0  0  0
 19 20  1  0  0  0  0
 20 21  1  0  0  0  0
 20 39  1  0  0  0  0
 20 40  1  0  0  0  0
 21 22  1  0  0  0  0
 21 41  1  0  0  0  0
 21 42  1  0  0  0  0
 22 23  1  0  0  0  0
 23 24  1  0  0  0  0
 23 43  1  0  0  0  0
 23 44  1  0  0  0  0
 24 45  1  0  0  0  0
 24 46  1  0  0  0  0
M  CHG  1  12   1
M  CHG  1  14  -1
M  END
> <s_m_source_file>
AV-unprocessed.smi

> <i_m_source_file_index>
399

> <i_lp_mmshare_version>
43012

> <i_f3d_flags>
0

> <s_epik_input>
W0NIMl0xW0NIMl1PW0NIMl1bQ0gyXU4xQyhbQ0gzXSkoW0NIM10pW0NIMl1bTkhdQyg9TylbQ0gyXW4yW2NIXWMoW04rXSg9TylbTy1dKVtjSF1bY0hdYzI9Tw==

> <s_epik_cmdline>
J2VwaWtfcHl0aG9uJywgJy1waCcsICc3LjAnLCAnLXRuJywgJzgnLCAnLW1hJywgJzIwMCcsICctbWV0YWxfYmluZGluZycsICctaW1hZScsICc8aW5maWxlLm1hZT4nLCAnLW9tYWUnLCAnPG91dGZpbGUubWFlPic=

> <r_lp_tautomer_probability>
1

> <r_epik_Ionization_Penalty>
0.237382

> <r_epik_Ionization_Penalty_Charging>
7.45368e-11

> <r_epik_Ionization_Penalty_Neutral>
0.237382

> <r_epik_State_Penalty>
0.228245

> <r_epik_Charging_Adjusted_Penalty>
0.228245

> <i_epik_Tot_Q>
0

> <i_epik_Tot_abs_Q>
2

> <r_epik_Metal_State_Penalty>
0.22822

> <b_epik_Metal_Only>
0

> <s_lp_Force_Field>
OPLS_2005

> <r_lp_Energy>
50.757

> <b_lp_Chiralities_Consistent>
1

> <s_lp_Variant>
AV-unprocessed.smi:399-1

> <Gold.Version>
5.8.1

> <Gold.Id.Protein>
6NUR|6NUR_protein|mol2

> <Gold.PLP.Fitness>
40.5679

> <Gold.PLP.PLP>
-33.1680

> <Gold.PLP.part.hbond>
-4.0000

> <Gold.PLP.part.metal>
0.0000

> <Gold.PLP.part.buried>
-3.4687

> <Gold.PLP.part.nonpolar>
-25.9119

> <Gold.PLP.part.repulsive>
0.3381

> <Gold.PLP.ligand.clash>
0.0000

> <Gold.PLP.ligand.torsion>
1.9007

> <Gold.PLP.Chemscore.Hbond>
3.7040

> <Gold.PLP.Chemscore.CHOScore>
0.0000

> <Gold.PLP.Chemscore.Metal>
0.0000

> <Gold.Chemscore.Hbonds>
donor molecule, donor type, donor heavy atom, donor atom, acceptor molecule, acceptor atom, score
      P1  H  6896  6907       L1     7  1.00
      P1  H  6931  6943       L1    13  0.78
      P1  H  6934  6947       L1    14  1.00
      P1  H  7989  7998       L1    22  0.95

> <Gold.PLP.Chemscore.Internal.Correction>
0.0892

> <Gold.Rescore>
     Score         DG    S(hbond)    S(metal)    S(lipo)     H(rot)  DE(clash)    DE(int)     intcor
     13.46     -15.17       2.04        0.00      70.73       2.11       0.10       1.62       ----

> <Gold.Chemscore.Fitness>
13.4555

> <Gold.Chemscore.DG>
-15.1695

> <Gold.Chemscore.ZeroCoef>
-5.4800

> <Gold.Chemscore.Hbond>
2.0398

> <Gold.Chemscore.Metal>
0.0000

> <Gold.Chemscore.Lipo>
70.7292

> <Gold.Chemscore.Internal_Hbond>
0.0000

> <Gold.Chemscore.DEClash>
0.0958

> <Gold.Chemscore.DEInternal>
1.6181

> <Gold.Chemscore.Rot>
2.1090

> <Gold.Chemscore.Internal.Correction>
   9.000000E+99

> <Gold.Chemscore.Hbonds>
donor molecule, donor type, donor heavy atom, donor atom, acceptor molecule, acceptor atom, score
      P1  H  6896  6907       L1     7  0.91
      P1  H  6931  6943       L1    13  0.46
      P1  H  6934  6947       L1    14  0.70
      P1  H  7989  7998       L1    22  0.21

> <Gold.Chemscore.Hbond.Weighted>
-6.8131

> <Gold.Chemscore.Metal.Weighted>
-0.0000

> <Gold.Chemscore.Lipo.Weighted>
-8.2753

> <Gold.Chemscore.Internal_Hbond.Weighted>
0.0000

> <Gold.Chemscore.DEClash.Weighted>
0.0958

> <Gold.Chemscore.DEInternal.Weighted>
1.6181

> <Gold.Chemscore.Rot.Weighted>
5.3989

> <Gold.Chemscore.Internal.Correction.Weighted>
   9.000000E+99

> <Gold.Protein.RotatedTorsions>
[ 6907 6896 6895 6894 ] final -114.51 input  -60.11 | X-H torsion
[ 7974 7965 7964 7962 ] final   19.43 input  175.53 | X-H torsion
[ 8008 7997 7996 7995 ] final  129.68 input   59.86 | X-H torsion
[ 10167 10162 10161 10158 ] final  -54.45 input  -65.29 | X-H torsion
[ 10718 10713 10712 10709 ] final  139.93 input   66.30 | X-H torsion
[ 10763 10752 10751 10750 ] final   33.26 input  -60.55 | X-H torsion
[ 11005 11000 10999 10996 ] final -137.62 input  -57.11 | X-H torsion

> <Gold.Protein.ActiveResidues>
 VAL166  LYS551  ARG553  GLY616  TRP617  ASP618  TYR619  PRO620  LYS621  CYS622 
 ASP623  PHE694  ASN695  SER759  ASP760  ASP761  ALA762  ILE779  LEU786  VAL792 
 PHE793  MET794  SER795  GLU796  ALA797  LYS798  CYS799  TRP800  GLU811  SER814 

> <Gold.Protein.RotatedAtoms>
  150.7908  133.8791  159.3280 H   0  0  0  0  0  0  0  0  0  0  0  0  # atno 6907 bound_to 6896
  151.6629  135.0985  160.0192 H   0  0  0  0  0  0  0  0  0  0  0  0  # atno 6908 bound_to 6896
  152.3981  133.6738  159.6328 H   0  0  0  0  0  0  0  0  0  0  0  0  # atno 6909 bound_to 6896
  146.2149  139.8314  142.8659 H   0  0  0  0  0  0  0  0  0  0  0  0  # atno 7974 bound_to 7965
  156.2941  140.2614  156.2639 H   0  0  0  0  0  0  0  0  0  0  0  0  # atno 8008 bound_to 7997
  154.9761  140.0390  157.2275 H   0  0  0  0  0  0  0  0  0  0  0  0  # atno 8009 bound_to 7997
  154.7814  140.2795  155.6066 H   0  0  0  0  0  0  0  0  0  0  0  0  # atno 8010 bound_to 7997
  140.6430  143.2518  151.4938 H   0  0  0  0  0  0  0  0  0  0  0  0  # atno 10167 bound_to 10162
  157.4089  131.1025  151.0474 H   0  0  0  0  0  0  0  0  0  0  0  0  # atno 10718 bound_to 10713
  153.0221  135.6392  154.1483 H   0  0  0  0  0  0  0  0  0  0  0  0  # atno 10763 bound_to 10752
  154.1216  135.2846  155.3208 H   0  0  0  0  0  0  0  0  0  0  0  0  # atno 10764 bound_to 10752
  154.6259  135.5509  153.7688 H   0  0  0  0  0  0  0  0  0  0  0  0  # atno 10765 bound_to 10752
  140.8694  134.2070  157.4660 H   0  0  0  0  0  0  0  0  0  0  0  0  # atno 11005 bound_to 11000
  145.2994  141.0190  143.3617 LP  0  0  0  0  0  0  0  0  0  0  0  0  # atno 17320 bound_to 7965
  144.9018  139.4640  143.6629 LP  0  0  0  0  0  0  0  0  0  0  0  0  # atno 17321 bound_to 7965
  139.5639  144.2089  152.1735 LP  0  0  0  0  0  0  0  0  0  0  0  0  # atno 17342 bound_to 10162
  140.1365  144.5241  150.6770 LP  0  0  0  0  0  0  0  0  0  0  0  0  # atno 17343 bound_to 10162
  157.1446  130.6158  149.5565 LP  0  0  0  0  0  0  0  0  0  0  0  0  # atno 17370 bound_to 10713
  155.9845  130.4870  150.6984 LP  0  0  0  0  0  0  0  0  0  0  0  0  # atno 17371 bound_to 10713
  139.8711  134.9767  156.4930 LP  0  0  0  0  0  0  0  0  0  0  0  0  # atno 17394 bound_to 11000
  140.8591  133.8073  155.9247 LP  0  0  0  0  0  0  0  0  0  0  0  0  # atno 17395 bound_to 11000

$$$$
