AV-unprocessed.smi:1634|AV-procd|sdf|6537|dock4
  -GOLD-   22720 7223D 1   1.00000     0.00000
 Structure written by MMmdl.
 38 38  0  0  0  0  0  0  0  0  1 V2000
  147.0722  142.0555  154.4897 C   0  0  0  0  0  0  0  0  0  0  0  0
  148.1269  141.1672  153.8111 C   0  0  0  0  0  0  0  0  0  0  0  0
  147.5496  139.7790  153.4973 C   0  0  0  0  0  0  0  0  0  0  0  0
  149.4015  141.0546  154.6629 C   0  0  0  0  0  0  0  0  0  0  0  0
  150.2741  140.0941  154.0769 O   0  0  0  0  0  0  0  0  0  0  0  0
  150.7865  139.1061  154.9670 C   0  0  1  0  0  0  0  0  0  0  0  0
  151.5175  138.0526  154.1215 C   0  0  0  0  0  0  0  0  0  0  0  0
  151.7302  139.7524  155.9942 C   0  0  0  0  0  0  0  0  0  0  0  0
  152.9420  139.7582  155.7802 O   0  0  0  0  0  0  0  0  0  0  0  0
  151.1237  140.3045  157.0638 N   0  0  0  0  0  0  0  0  0  0  0  0
  151.6758  140.9803  158.1656 C   0  0  0  0  0  0  0  0  0  0  0  0
  151.3151  142.2216  158.5857 C   0  0  0  0  0  0  0  0  0  0  0  0
  151.9343  142.8571  159.7367 C   0  0  0  0  0  0  0  0  0  0  0  0
  151.5612  144.2690  160.1618 C   0  0  0  0  0  0  0  0  0  0  0  0
  152.0675  144.5648  161.3596 F   0  0  0  0  0  0  0  0  0  0  0  0
  152.0104  145.1667  159.2844 F   0  0  0  0  0  0  0  0  0  0  0  0
  150.2358  144.3850  160.2311 F   0  0  0  0  0  0  0  0  0  0  0  0
  152.9079  142.1633  160.3544 C   0  0  0  0  0  0  0  0  0  0  0  0
  153.2829  140.8864  159.9314 N   0  0  0  0  0  0  0  0  0  0  0  0
  152.7349  140.2440  158.8759 C   0  0  0  0  0  0  0  0  0  0  0  0
  153.1245  139.1193  158.5636 O   0  0  0  0  0  0  0  0  0  0  0  0
  154.0144  140.4262  160.4539 H   0  0  0  0  0  0  0  0  0  0  0  0
  146.7671  141.6439  155.4524 H   0  0  0  0  0  0  0  0  0  0  0  0
  146.1802  142.1497  153.8699 H   0  0  0  0  0  0  0  0  0  0  0  0
  147.4551  143.0613  154.6650 H   0  0  0  0  0  0  0  0  0  0  0  0
  148.3982  141.6316  152.8622 H   0  0  0  0  0  0  0  0  0  0  0  0
  147.2590  139.2553  154.4086 H   0  0  0  0  0  0  0  0  0  0  0  0
  148.2784  139.1586  152.9749 H   0  0  0  0  0  0  0  0  0  0  0  0
  146.6674  139.8549  152.8611 H   0  0  0  0  0  0  0  0  0  0  0  0
  149.8781  142.0323  154.7421 H   0  0  0  0  0  0  0  0  0  0  0  0
  149.1467  140.7357  155.6747 H   0  0  0  0  0  0  0  0  0  0  0  0
  149.9564  138.6161  155.4797 H   0  0  0  0  0  0  0  0  0  0  0  0
  151.9580  137.2773  154.7494 H   0  0  0  0  0  0  0  0  0  0  0  0
  152.3163  138.4976  153.5268 H   0  0  0  0  0  0  0  0  0  0  0  0
  150.8280  137.5649  153.4321 H   0  0  0  0  0  0  0  0  0  0  0  0
  150.1147  140.2597  157.0682 H   0  0  0  0  0  0  0  0  0  0  0  0
  150.5556  142.7869  158.0729 H   0  0  0  0  0  0  0  0  0  0  0  0
  153.4690  142.5255  161.2033 H   0  0  0  0  0  0  0  0  0  0  0  0
  1  2  1  0  0  0  0
  1 23  1  0  0  0  0
  1 24  1  0  0  0  0
  1 25  1  0  0  0  0
  2  3  1  0  0  0  0
  2  4  1  0  0  0  0
  2 26  1  0  0  0  0
  3 27  1  0  0  0  0
  3 28  1  0  0  0  0
  3 29  1  0  0  0  0
  4  5  1  0  0  0  0
  4 30  1  0  0  0  0
  4 31  1  0  0  0  0
  5  6  1  0  0  0  0
  6  7  1  0  0  0  0
  6  8  1  0  0  0  0
  6 32  1  0  0  0  0
  7 33  1  0  0  0  0
  7 34  1  0  0  0  0
  7 35  1  0  0  0  0
  8  9  2  0  0  0  0
  8 10  1  0  0  0  0
 10 11  1  0  0  0  0
 10 36  1  0  0  0  0
 11 20  1  0  0  0  0
 11 12  2  0  0  0  0
 12 13  1  0  0  0  0
 12 37  1  0  0  0  0
 13 14  1  0  0  0  0
 13 18  2  0  0  0  0
 14 15  1  0  0  0  0
 14 16  1  0  0  0  0
 14 17  1  0  0  0  0
 18 19  1  0  0  0  0
 18 38  1  0  0  0  0
 19 22  1  0  0  0  0
 19 20  1  0  0  0  0
 20 21  2  0  0  0  0
M  END
> <s_m_source_file>
AV-unprocessed.smi

> <i_m_source_file_index>
1634

> <i_lp_mmshare_version>
43012

> <i_f3d_flags>
0

> <s_epik_input>
W0NIM11bQ0hdKFtDSDNdKVtDSDJdT1tDQEhdKFtDSDNdKUMoPU8pW05IXWMxW2NIXWMoQyhGKShGKUYpW2NIXVtuSF1jMT1P

> <s_epik_cmdline>
J2VwaWtfcHl0aG9uJywgJy1waCcsICc3LjAnLCAnLXRuJywgJzgnLCAnLW1hJywgJzIwMCcsICctbWV0YWxfYmluZGluZycsICctaW1hZScsICc8aW5maWxlLm1hZT4nLCAnLW9tYWUnLCAnPG91dGZpbGUubWFlPic=

> <r_lp_tautomer_probability>
0.999

> <r_epik_Ionization_Penalty>
0.00884964

> <r_epik_Ionization_Penalty_Charging>
0.00884955

> <r_epik_Ionization_Penalty_Neutral>
9.33956e-08

> <r_epik_State_Penalty>
0.00669049

> <r_epik_Charging_Adjusted_Penalty>
0.01554

> <i_epik_Tot_Q>
0

> <i_epik_Tot_abs_Q>
0

> <r_epik_Metal_State_Penalty>
0.320763

> <b_epik_Metal_Only>
0

> <s_lp_Force_Field>
OPLS_2005

> <r_lp_Energy>
19.8034

> <b_lp_Chiralities_Consistent>
1

> <s_lp_Variant>
AV-unprocessed.smi:1634-2

> <Gold.Version>
5.8.1

> <Gold.Id.Protein>
6NUR|6NUR_protein|mol2

> <Gold.PLP.Fitness>
51.3859

> <Gold.PLP.PLP>
-49.7976

> <Gold.PLP.part.hbond>
-2.0000

> <Gold.PLP.part.metal>
0.0000

> <Gold.PLP.part.buried>
-6.9223

> <Gold.PLP.part.nonpolar>
-42.1565

> <Gold.PLP.part.repulsive>
1.2737

> <Gold.PLP.ligand.clash>
0.5214

> <Gold.PLP.ligand.torsion>
2.0080

> <Gold.PLP.Chemscore.Hbond>
1.9920

> <Gold.PLP.Chemscore.CHOScore>
0.0000

> <Gold.PLP.Chemscore.Metal>
0.0000

> <Gold.Chemscore.Hbonds>
donor molecule, donor type, donor heavy atom, donor atom, acceptor molecule, acceptor atom, score
      P1  H  7989  7998       L1     5  1.00
      P1  H  7997  8010       L1     9  0.96

> <Gold.PLP.Chemscore.Internal.Correction>
0.1496

> <Gold.Rescore>
     Score         DG    S(hbond)    S(metal)    S(lipo)     H(rot)  DE(clash)    DE(int)     intcor
     12.32     -15.46       1.31        0.00      87.06       1.79       0.22       2.92       ----

> <Gold.Chemscore.Fitness>
12.3211

> <Gold.Chemscore.DG>
-15.4588

> <Gold.Chemscore.ZeroCoef>
-5.4800

> <Gold.Chemscore.Hbond>
1.3080

> <Gold.Chemscore.Metal>
0.0000

> <Gold.Chemscore.Lipo>
87.0550

> <Gold.Chemscore.Internal_Hbond>
0.0000

> <Gold.Chemscore.DEClash>
0.2211

> <Gold.Chemscore.DEInternal>
2.9166

> <Gold.Chemscore.Rot>
1.7873

> <Gold.Chemscore.Internal.Correction>
   9.000000E+99

> <Gold.Chemscore.Hbonds>
donor molecule, donor type, donor heavy atom, donor atom, acceptor molecule, acceptor atom, score
      P1  H  7989  7998       L1     5  0.33
      P1  H  7997  8010       L1     9  0.91

> <Gold.Chemscore.Hbond.Weighted>
-4.3688

> <Gold.Chemscore.Metal.Weighted>
-0.0000

> <Gold.Chemscore.Lipo.Weighted>
-10.1854

> <Gold.Chemscore.Internal_Hbond.Weighted>
0.0000

> <Gold.Chemscore.DEClash.Weighted>
0.2211

> <Gold.Chemscore.DEInternal.Weighted>
2.9166

> <Gold.Chemscore.Rot.Weighted>
4.5755

> <Gold.Chemscore.Internal.Correction.Weighted>
   9.000000E+99

> <Gold.Protein.RotatedTorsions>
[ 6907 6896 6895 6894 ] final  -13.33 input  -60.11 | X-H torsion
[ 7974 7965 7964 7962 ] final  172.58 input  175.53 | X-H torsion
[ 8008 7997 7996 7995 ] final   84.63 input   59.86 | X-H torsion
[ 10167 10162 10161 10158 ] final -142.34 input  -65.29 | X-H torsion
[ 10718 10713 10712 10709 ] final   74.56 input   66.30 | X-H torsion
[ 10763 10752 10751 10750 ] final   23.60 input  -60.55 | X-H torsion
[ 11005 11000 10999 10996 ] final  -66.11 input  -57.11 | X-H torsion

> <Gold.Protein.ActiveResidues>
 VAL166  LYS551  ARG553  GLY616  TRP617  ASP618  TYR619  PRO620  LYS621  CYS622 
 ASP623  PHE694  ASN695  SER759  ASP760  ASP761  ALA762  ILE779  LEU786  VAL792 
 PHE793  MET794  SER795  GLU796  ALA797  LYS798  CYS799  TRP800  GLU811  SER814 

> <Gold.Protein.RotatedAtoms>
  151.3566  135.0895  159.9420 H   0  0  0  0  0  0  0  0  0  0  0  0  # atno 6907 bound_to 6896
  152.5173  133.9299  159.7586 H   0  0  0  0  0  0  0  0  0  0  0  0  # atno 6908 bound_to 6896
  150.9685  133.6315  159.2771 H   0  0  0  0  0  0  0  0  0  0  0  0  # atno 6909 bound_to 6896
  144.7264  139.9520  143.6432 H   0  0  0  0  0  0  0  0  0  0  0  0  # atno 7974 bound_to 7965
  155.9395  140.3409  155.6315 H   0  0  0  0  0  0  0  0  0  0  0  0  # atno 8008 bound_to 7997
  155.7057  140.0765  157.2410 H   0  0  0  0  0  0  0  0  0  0  0  0  # atno 8009 bound_to 7997
  154.4100  140.1632  156.2228 H   0  0  0  0  0  0  0  0  0  0  0  0  # atno 8010 bound_to 7997
  139.8098  143.7719  152.2663 H   0  0  0  0  0  0  0  0  0  0  0  0  # atno 10167 bound_to 10162
  157.6597  130.9684  150.1229 H   0  0  0  0  0  0  0  0  0  0  0  0  # atno 10718 bound_to 10713
  153.0826  135.6623  154.0014 H   0  0  0  0  0  0  0  0  0  0  0  0  # atno 10763 bound_to 10752
  153.9632  135.2972  155.3433 H   0  0  0  0  0  0  0  0  0  0  0  0  # atno 10764 bound_to 10752
  154.7228  135.5157  153.8911 H   0  0  0  0  0  0  0  0  0  0  0  0  # atno 10765 bound_to 10752
  141.1473  133.6693  156.6089 H   0  0  0  0  0  0  0  0  0  0  0  0  # atno 11005 bound_to 11000
  146.0704  139.3693  143.0526 LP  0  0  0  0  0  0  0  0  0  0  0  0  # atno 17320 bound_to 7965
  145.7975  140.9786  143.1016 LP  0  0  0  0  0  0  0  0  0  0  0  0  # atno 17321 bound_to 7965
  139.7864  144.7426  151.0016 LP  0  0  0  0  0  0  0  0  0  0  0  0  # atno 17342 bound_to 10162
  140.7818  143.4488  151.0444 LP  0  0  0  0  0  0  0  0  0  0  0  0  # atno 17343 bound_to 10162
  156.2095  130.3665  149.8687 LP  0  0  0  0  0  0  0  0  0  0  0  0  # atno 17370 bound_to 10713
  156.6569  130.8766  151.3541 LP  0  0  0  0  0  0  0  0  0  0  0  0  # atno 17371 bound_to 10713
  140.3630  134.7671  157.4547 LP  0  0  0  0  0  0  0  0  0  0  0  0  # atno 17394 bound_to 11000
  140.0770  134.5783  155.8580 LP  0  0  0  0  0  0  0  0  0  0  0  0  # atno 17395 bound_to 11000

$$$$
