AV-unprocessed.smi:3161|AV-procd|sdf|12058|dock6
  -GOLD-   2272017483D 1   1.00000     0.00000
 Structure written by MMmdl.
 41 42  0  0  0  0  0  0  0  0  2 V2000
  153.9441  140.7255  161.0729 C   0  0  0  0  0  0  0  0  0  0  0  0
  153.0687  141.8290  160.5521 C   0  0  0  0  0  0  0  0  0  0  0  0
  152.8572  143.1190  161.1168 C   0  0  0  0  0  0  0  0  0  0  0  0
  152.0189  143.8590  160.4093 N   0  0  0  0  0  0  0  0  0  0  0  0
  151.6719  143.0731  159.3684 N   0  0  0  0  0  0  0  0  0  0  0  0
  150.7389  143.5678  158.3723 C   0  0  0  0  0  0  0  0  0  0  0  0
  149.3907  142.8091  158.3727 C   0  0  1  0  0  0  0  0  0  0  0  0
  148.2814  143.5770  159.1118 C   0  0  0  0  0  0  0  0  0  0  0  0
  148.9423  142.5132  156.9935 N   0  3  0  0  0  0  0  0  0  0  0  0
  149.8239  141.6171  156.2152 C   0  0  0  0  0  0  0  0  0  0  0  0
  149.3843  140.1532  156.3611 C   0  0  1  0  0  0  0  0  0  0  0  0
  147.9849  139.9112  155.7627 C   0  0  0  0  0  0  0  0  0  0  0  0
  147.6136  138.4261  155.8441 C   0  0  0  0  0  0  0  0  0  0  0  0
  148.7212  137.5810  155.2064 C   0  0  0  0  0  0  0  0  0  0  0  0
  150.0857  137.9406  155.8155 C   0  0  0  0  0  0  0  0  0  0  0  0
  150.3300  139.3371  155.6720 O   0  0  0  0  0  0  0  0  0  0  0  0
  152.2850  141.8397  159.4332 C   0  0  0  0  0  0  0  0  0  0  0  0
  154.7101  141.1018  161.7512 H   0  0  0  0  0  0  0  0  0  0  0  0
  154.4595  140.2044  160.2658 H   0  0  0  0  0  0  0  0  0  0  0  0
  153.3671  139.9805  161.6208 H   0  0  0  0  0  0  0  0  0  0  0  0
  153.2847  143.5368  162.0165 H   0  0  0  0  0  0  0  0  0  0  0  0
  150.5716  144.6294  158.5593 H   0  0  0  0  0  0  0  0  0  0  0  0
  151.2268  143.4956  157.4002 H   0  0  0  0  0  0  0  0  0  0  0  0
  149.5221  141.8567  158.8890 H   0  0  0  0  0  0  0  0  0  0  0  0
  148.5249  143.7228  160.1646 H   0  0  0  0  0  0  0  0  0  0  0  0
  147.3370  143.0331  159.0750 H   0  0  0  0  0  0  0  0  0  0  0  0
  148.1169  144.5600  158.6692 H   0  0  0  0  0  0  0  0  0  0  0  0
  148.0441  142.0553  157.0597 H   0  0  0  0  0  0  0  0  0  0  0  0
  149.7871  141.9025  155.1639 H   0  0  0  0  0  0  0  0  0  0  0  0
  150.8573  141.7325  156.5453 H   0  0  0  0  0  0  0  0  0  0  0  0
  149.3761  139.8869  157.4198 H   0  0  0  0  0  0  0  0  0  0  0  0
  147.2392  140.5097  156.2870 H   0  0  0  0  0  0  0  0  0  0  0  0
  147.9683  140.2335  154.7205 H   0  0  0  0  0  0  0  0  0  0  0  0
  147.4848  138.1359  156.8876 H   0  0  0  0  0  0  0  0  0  0  0  0
  146.6606  138.2428  155.3472 H   0  0  0  0  0  0  0  0  0  0  0  0
  148.5131  136.5195  155.3443 H   0  0  0  0  0  0  0  0  0  0  0  0
  148.7446  137.7584  154.1304 H   0  0  0  0  0  0  0  0  0  0  0  0
  150.1285  137.6591  156.8688 H   0  0  0  0  0  0  0  0  0  0  0  0
  150.8781  137.3903  155.3077 H   0  0  0  0  0  0  0  0  0  0  0  0
  152.1172  141.0794  158.6843 H   0  0  0  0  0  0  0  0  0  0  0  0
  148.8208  143.3816  156.4923 H   0  0  0  0  0  0  0  0  0  0  0  0
  1  2  1  0  0  0  0
  1 18  1  0  0  0  0
  1 19  1  0  0  0  0
  1 20  1  0  0  0  0
  2 17  2  0  0  0  0
  2  3  1  0  0  0  0
  3  4  2  0  0  0  0
  3 21  1  0  0  0  0
  4  5  1  0  0  0  0
  5  6  1  0  0  0  0
  5 17  1  0  0  0  0
  6  7  1  0  0  0  0
  6 22  1  0  0  0  0
  6 23  1  0  0  0  0
  7  8  1  0  0  0  0
  7  9  1  0  0  0  0
  7 24  1  0  0  0  0
  8 25  1  0  0  0  0
  8 26  1  0  0  0  0
  8 27  1  0  0  0  0
  9 10  1  0  0  0  0
  9 28  1  0  0  0  0
  9 41  1  0  0  0  0
 10 11  1  0  0  0  0
 10 29  1  0  0  0  0
 10 30  1  0  0  0  0
 11 16  1  0  0  0  0
 11 12  1  0  0  0  0
 11 31  1  0  0  0  0
 12 13  1  0  0  0  0
 12 32  1  0  0  0  0
 12 33  1  0  0  0  0
 13 14  1  0  0  0  0
 13 34  1  0  0  0  0
 13 35  1  0  0  0  0
 14 15  1  0  0  0  0
 14 36  1  0  0  0  0
 14 37  1  0  0  0  0
 15 16  1  0  0  0  0
 15 38  1  0  0  0  0
 15 39  1  0  0  0  0
 17 40  1  0  0  0  0
M  CHG  1   9   1
M  END
> <s_m_source_file>
AV-unprocessed.smi

> <i_m_source_file_index>
3161

> <i_lp_mmshare_version>
43012

> <i_f3d_flags>
0

> <s_epik_input>
W0NIM11jMVtjSF1ubihbY0hdMSlbQ0gyXVtDQEhdKFtDSDNdKVtOSF1bQ0gyXVtDQEBIXTJbQ0gyXVtDSDJdW0NIMl1bQ0gyXU8y

> <s_epik_cmdline>
J2VwaWtfcHl0aG9uJywgJy1waCcsICc3LjAnLCAnLXRuJywgJzgnLCAnLW1hJywgJzIwMCcsICctbWV0YWxfYmluZGluZycsICctaW1hZScsICc8aW5maWxlLm1hZT4nLCAnLW9tYWUnLCAnPG91dGZpbGUubWFlPic=

> <r_lp_tautomer_probability>
1

> <r_epik_Ionization_Penalty>
0.00849661

> <r_epik_Ionization_Penalty_Charging>
0.00848754

> <r_epik_Ionization_Penalty_Neutral>
9.06711e-06

> <r_epik_State_Penalty>
0.00639836

> <r_epik_Charging_Adjusted_Penalty>
0.0148859

> <i_epik_Tot_Q>
1

> <i_epik_Tot_abs_Q>
1

> <r_epik_Metal_State_Penalty>
0.00639921

> <b_epik_Metal_Only>
0

> <s_lp_Force_Field>
OPLS_2005

> <r_lp_Energy>
12.4103

> <b_lp_Chiralities_Consistent>
1

> <s_lp_Variant>
AV-unprocessed.smi:3161-4

> <Gold.Version>
5.8.1

> <Gold.Id.Protein>
6NUR|6NUR_protein|mol2

> <Gold.PLP.Fitness>
46.7212

> <Gold.PLP.PLP>
-40.3104

> <Gold.PLP.part.hbond>
-2.0117

> <Gold.PLP.part.metal>
0.0000

> <Gold.PLP.part.buried>
-6.5029

> <Gold.PLP.part.nonpolar>
-32.6824

> <Gold.PLP.part.repulsive>
0.1898

> <Gold.PLP.ligand.clash>
0.0000

> <Gold.PLP.ligand.torsion>
0.8716

> <Gold.PLP.Chemscore.Hbond>
2.7072

> <Gold.PLP.Chemscore.CHOScore>
0.0000

> <Gold.PLP.Chemscore.Metal>
0.0000

> <Gold.Chemscore.Hbonds>
donor molecule, donor type, donor heavy atom, donor atom, acceptor molecule, acceptor atom, score
      L1  H     9    41       P1  8028  2.00

> <Gold.PLP.Chemscore.Internal.Correction>
0.0325

> <Gold.Rescore>
     Score         DG    S(hbond)    S(metal)    S(lipo)     H(rot)  DE(clash)    DE(int)     intcor
     17.92     -18.85       1.83        0.00      96.35       1.57       0.00       0.92       ----

> <Gold.Chemscore.Fitness>
17.9221

> <Gold.Chemscore.DG>
-18.8514

> <Gold.Chemscore.ZeroCoef>
-5.4800

> <Gold.Chemscore.Hbond>
1.8327

> <Gold.Chemscore.Metal>
0.0000

> <Gold.Chemscore.Lipo>
96.3520

> <Gold.Chemscore.Internal_Hbond>
0.0000

> <Gold.Chemscore.DEClash>
0.0044

> <Gold.Chemscore.DEInternal>
0.9250

> <Gold.Chemscore.Rot>
1.5714

> <Gold.Chemscore.Internal.Correction>
   9.000000E+99

> <Gold.Chemscore.Hbonds>
donor molecule, donor type, donor heavy atom, donor atom, acceptor molecule, acceptor atom, score
      L1  H     9    41       P1  8028  0.88

> <Gold.Chemscore.Hbond.Weighted>
-6.1211

> <Gold.Chemscore.Metal.Weighted>
-0.0000

> <Gold.Chemscore.Lipo.Weighted>
-11.2732

> <Gold.Chemscore.Internal_Hbond.Weighted>
0.0000

> <Gold.Chemscore.DEClash.Weighted>
0.0044

> <Gold.Chemscore.DEInternal.Weighted>
0.9250

> <Gold.Chemscore.Rot.Weighted>
4.0228

> <Gold.Chemscore.Internal.Correction.Weighted>
   9.000000E+99

> <Gold.Protein.RotatedTorsions>
[ 6907 6896 6895 6894 ] final -154.89 input  -60.11 | X-H torsion
[ 7974 7965 7964 7962 ] final  -60.95 input  175.53 | X-H torsion
[ 8008 7997 7996 7995 ] final  -47.37 input   59.86 | X-H torsion
[ 10167 10162 10161 10158 ] final  -59.44 input  -65.29 | X-H torsion
[ 10718 10713 10712 10709 ] final    8.28 input   66.30 | X-H torsion
[ 10763 10752 10751 10750 ] final  132.10 input  -60.55 | X-H torsion
[ 11005 11000 10999 10996 ] final -152.33 input  -57.11 | X-H torsion

> <Gold.Protein.ActiveResidues>
 VAL166  LYS551  ARG553  GLY616  TRP617  ASP618  TYR619  PRO620  LYS621  CYS622 
 ASP623  PHE694  ASN695  SER759  ASP760  ASP761  ALA762  ILE779  LEU786  VAL792 
 PHE793  MET794  SER795  GLU796  ALA797  LYS798  CYS799  TRP800  GLU811  SER814 

> <Gold.Protein.RotatedAtoms>
  151.2643  133.4287  159.2617 H   0  0  0  0  0  0  0  0  0  0  0  0  # atno 6907 bound_to 6896
  151.0503  134.9668  159.8218 H   0  0  0  0  0  0  0  0  0  0  0  0  # atno 6908 bound_to 6896
  152.5381  134.2597  159.8983 H   0  0  0  0  0  0  0  0  0  0  0  0  # atno 6909 bound_to 6896
  145.8093  140.8608  143.0190 H   0  0  0  0  0  0  0  0  0  0  0  0  # atno 7974 bound_to 7965
  154.4016  140.1348  156.4165 H   0  0  0  0  0  0  0  0  0  0  0  0  # atno 8008 bound_to 7997
  155.7684  140.3484  155.5214 H   0  0  0  0  0  0  0  0  0  0  0  0  # atno 8009 bound_to 7997
  155.8791  140.0984  157.1488 H   0  0  0  0  0  0  0  0  0  0  0  0  # atno 8010 bound_to 7997
  140.6134  143.2394  151.5654 H   0  0  0  0  0  0  0  0  0  0  0  0  # atno 10167 bound_to 10162
  156.9493  130.5891  149.5656 H   0  0  0  0  0  0  0  0  0  0  0  0  # atno 10718 bound_to 10713
  153.7852  135.3163  155.3371 H   0  0  0  0  0  0  0  0  0  0  0  0  # atno 10763 bound_to 10752
  154.8147  135.4644  154.0613 H   0  0  0  0  0  0  0  0  0  0  0  0  # atno 10764 bound_to 10752
  153.1914  135.6909  153.8434 H   0  0  0  0  0  0  0  0  0  0  0  0  # atno 10765 bound_to 10752
  140.7200  134.3737  157.5185 H   0  0  0  0  0  0  0  0  0  0  0  0  # atno 11005 bound_to 11000
  144.6759  140.0372  143.7481 LP  0  0  0  0  0  0  0  0  0  0  0  0  # atno 17320 bound_to 7965
  145.9794  139.2930  143.1051 LP  0  0  0  0  0  0  0  0  0  0  0  0  # atno 17321 bound_to 7965
  139.5379  144.2728  152.1291 LP  0  0  0  0  0  0  0  0  0  0  0  0  # atno 17342 bound_to 10162
  140.1932  144.4731  150.6468 LP  0  0  0  0  0  0  0  0  0  0  0  0  # atno 17343 bound_to 10162
  156.0370  130.5456  150.8677 LP  0  0  0  0  0  0  0  0  0  0  0  0  # atno 17370 bound_to 10713
  157.5733  131.0946  150.9385 LP  0  0  0  0  0  0  0  0  0  0  0  0  # atno 17371 bound_to 10713
  139.8850  134.8948  156.2667 LP  0  0  0  0  0  0  0  0  0  0  0  0  # atno 17394 bound_to 11000
  141.0011  133.7151  156.0962 LP  0  0  0  0  0  0  0  0  0  0  0  0  # atno 17395 bound_to 11000

$$$$
