AV-unprocessed.smi:3231|AV-procd|sdf|12337|dock5
  -GOLD-   2272018193D 1   1.00000     0.00000
 Structure written by MMmdl.
 40 41  0  0  0  0  0  0  0  0  1 V2000
  147.0994  138.9991  151.1785 O   0  0  0  0  0  0  0  0  0  0  0  0
  147.0134  138.4071  152.4584 C   0  0  2  0  0  0  0  0  0  0  0  0
  145.6885  137.6285  152.5139 C   0  0  0  0  0  0  0  0  0  0  0  0
  145.4599  136.8809  151.2817 N   0  0  0  0  0  0  0  0  0  0  0  0
  144.5416  135.7569  151.4425 C   0  0  0  0  0  0  0  0  0  0  0  0
  144.5091  134.8712  150.1868 C   0  0  0  0  0  0  0  0  0  0  0  0
  144.7364  133.4707  150.4944 N   0  0  0  0  0  0  0  0  0  0  0  0
  143.8170  132.4441  150.5461 C   0  0  0  0  0  0  0  0  0  0  0  0
  144.4975  131.3054  150.8696 C   0  0  0  0  0  0  0  0  0  0  0  0
  145.8455  131.7424  150.9980 C   0  0  0  0  0  0  0  0  0  0  0  0
  145.9853  133.0391  150.7743 N   0  0  0  0  0  0  0  0  0  0  0  0
  147.0748  139.5328  153.5149 C   0  0  0  0  0  0  0  0  0  0  0  0
  148.4178  139.9733  153.8960 N   0  0  0  0  0  0  0  0  0  0  0  0
  148.3526  141.0058  154.9252 C   0  0  0  0  0  0  0  0  0  0  0  0
  149.7507  141.4914  155.3445 C   0  0  0  0  0  0  0  0  0  0  0  0
  150.5236  140.3836  155.7941 O   0  0  0  0  0  0  0  0  0  0  0  0
  150.6526  139.3688  154.8039 C   0  0  0  0  0  0  0  0  0  0  0  0
  149.2576  138.8781  154.3784 C   0  0  0  0  0  0  0  0  0  0  0  0
  147.6394  139.7718  151.2419 H   0  0  0  0  0  0  0  0  0  0  0  0
  147.8388  137.7044  152.5672 H   0  0  0  0  0  0  0  0  0  0  0  0
  145.6867  136.9544  153.3714 H   0  0  0  0  0  0  0  0  0  0  0  0
  144.8657  138.3283  152.6666 H   0  0  0  0  0  0  0  0  0  0  0  0
  145.1140  137.5068  150.5613 H   0  0  0  0  0  0  0  0  0  0  0  0
  144.8245  135.1589  152.3098 H   0  0  0  0  0  0  0  0  0  0  0  0
  143.5364  136.1310  151.6390 H   0  0  0  0  0  0  0  0  0  0  0  0
  143.5394  134.9606  149.6955 H   0  0  0  0  0  0  0  0  0  0  0  0
  145.2564  135.2004  149.4635 H   0  0  0  0  0  0  0  0  0  0  0  0
  142.7682  132.6078  150.3478 H   0  0  0  0  0  0  0  0  0  0  0  0
  144.0943  130.3115  150.9948 H   0  0  0  0  0  0  0  0  0  0  0  0
  146.7207  131.1599  151.2458 H   0  0  0  0  0  0  0  0  0  0  0  0
  146.5125  140.3853  153.1309 H   0  0  0  0  0  0  0  0  0  0  0  0
  146.5434  139.2142  154.4130 H   0  0  0  0  0  0  0  0  0  0  0  0
  147.7728  141.8547  154.5613 H   0  0  0  0  0  0  0  0  0  0  0  0
  147.8271  140.6223  155.8014 H   0  0  0  0  0  0  0  0  0  0  0  0
  150.2555  141.9827  154.5112 H   0  0  0  0  0  0  0  0  0  0  0  0
  149.6735  142.2223  156.1493 H   0  0  0  0  0  0  0  0  0  0  0  0
  151.2031  139.7571  153.9456 H   0  0  0  0  0  0  0  0  0  0  0  0
  151.2365  138.5441  155.2126 H   0  0  0  0  0  0  0  0  0  0  0  0
  148.7752  138.3859  155.2243 H   0  0  0  0  0  0  0  0  0  0  0  0
  149.3809  138.1218  153.6048 H   0  0  0  0  0  0  0  0  0  0  0  0
  1  2  1  0  0  0  0
  1 19  1  0  0  0  0
  2  3  1  0  0  0  0
  2 12  1  0  0  0  0
  2 20  1  0  0  0  0
  3  4  1  0  0  0  0
  3 21  1  0  0  0  0
  3 22  1  0  0  0  0
  4  5  1  0  0  0  0
  4 23  1  0  0  0  0
  5  6  1  0  0  0  0
  5 24  1  0  0  0  0
  5 25  1  0  0  0  0
  6  7  1  0  0  0  0
  6 26  1  0  0  0  0
  6 27  1  0  0  0  0
  7 11  1  0  0  0  0
  7  8  1  0  0  0  0
  8  9  2  0  0  0  0
  8 28  1  0  0  0  0
  9 10  1  0  0  0  0
  9 29  1  0  0  0  0
 10 11  2  0  0  0  0
 10 30  1  0  0  0  0
 12 13  1  0  0  0  0
 12 31  1  0  0  0  0
 12 32  1  0  0  0  0
 13 18  1  0  0  0  0
 13 14  1  0  0  0  0
 14 15  1  0  0  0  0
 14 33  1  0  0  0  0
 14 34  1  0  0  0  0
 15 16  1  0  0  0  0
 15 35  1  0  0  0  0
 15 36  1  0  0  0  0
 16 17  1  0  0  0  0
 17 18  1  0  0  0  0
 17 37  1  0  0  0  0
 17 38  1  0  0  0  0
 18 39  1  0  0  0  0
 18 40  1  0  0  0  0
M  END
> <s_m_source_file>
AV-unprocessed.smi

> <i_m_source_file_index>
3231

> <i_lp_mmshare_version>
43012

> <i_f3d_flags>
0

> <s_epik_input>
W0NIMl0xW0NIMl1PW0NIMl1bQ0gyXU4xW0NIMl1bQ0BIXShbT0hdKVtDSDJdW05IXVtDSDJdW0NIMl1uMltjSF1bY0hdW2NIXW4y

> <s_epik_cmdline>
J2VwaWtfcHl0aG9uJywgJy1waCcsICc3LjAnLCAnLXRuJywgJzgnLCAnLW1hJywgJzIwMCcsICctbWV0YWxfYmluZGluZycsICctaW1hZScsICc8aW5maWxlLm1hZT4nLCAnLW9tYWUnLCAnPG91dGZpbGUubWFlPic=

> <r_lp_tautomer_probability>
1

> <r_epik_Ionization_Penalty>
2.37071

> <r_epik_Ionization_Penalty_Charging>
0

> <r_epik_Ionization_Penalty_Neutral>
2.37071

> <r_epik_State_Penalty>
1.72455

> <r_epik_Charging_Adjusted_Penalty>
1.72455

> <i_epik_Tot_Q>
0

> <i_epik_Tot_abs_Q>
0

> <r_epik_Metal_State_Penalty>
1.72366

> <b_epik_Metal_Only>
0

> <s_lp_Force_Field>
OPLS_2005

> <r_lp_Energy>
31.2728

> <b_lp_Chiralities_Consistent>
1

> <s_lp_Variant>
AV-unprocessed.smi:3231-7

> <Gold.Version>
5.8.1

> <Gold.Id.Protein>
6NUR|6NUR_protein|mol2

> <Gold.PLP.Fitness>
46.9785

> <Gold.PLP.PLP>
-35.6230

> <Gold.PLP.part.hbond>
-3.0000

> <Gold.PLP.part.metal>
0.0000

> <Gold.PLP.part.buried>
-2.8316

> <Gold.PLP.part.nonpolar>
-30.6070

> <Gold.PLP.part.repulsive>
1.5173

> <Gold.PLP.ligand.clash>
0.0000

> <Gold.PLP.ligand.torsion>
1.1084

> <Gold.PLP.Chemscore.Hbond>
2.4647

> <Gold.PLP.Chemscore.CHOScore>
2.0000

> <Gold.PLP.Chemscore.Metal>
0.0000

> <Gold.Chemscore.Hbonds>
donor molecule, donor type, donor heavy atom, donor atom, acceptor molecule, acceptor atom, score
      L1  H     1    19       P1  7957  0.64
      L1  H     4    23       P1 10171  1.00
      P1  H  7954  7966       L1     1  0.83
      L1  C     8    28       P1 10186  0.71
      L1  C    10    30       P1 10747  1.00

> <Gold.PLP.Chemscore.Internal.Correction>
0.1781

> <Gold.Rescore>
     Score         DG    S(hbond)    S(metal)    S(lipo)     H(rot)  DE(clash)    DE(int)     intcor
     13.10     -14.20       1.77        0.00      83.63       2.72       0.10       1.00       ----

> <Gold.Chemscore.Fitness>
13.1019

> <Gold.Chemscore.DG>
-14.2036

> <Gold.Chemscore.ZeroCoef>
-5.4800

> <Gold.Chemscore.Hbond>
1.7657

> <Gold.Chemscore.Metal>
0.0000

> <Gold.Chemscore.Lipo>
83.6331

> <Gold.Chemscore.Internal_Hbond>
0.0000

> <Gold.Chemscore.DEClash>
0.0978

> <Gold.Chemscore.DEInternal>
1.0040

> <Gold.Chemscore.Rot>
2.7183

> <Gold.Chemscore.Internal.Correction>
   9.000000E+99

> <Gold.Chemscore.Hbonds>
donor molecule, donor type, donor heavy atom, donor atom, acceptor molecule, acceptor atom, score
      L1  H     1    19       P1  7957  0.62
      L1  H     4    23       P1 10171  0.98
      P1  H  7954  7966       L1     1  0.20

> <Gold.Chemscore.Hbond.Weighted>
-5.8974

> <Gold.Chemscore.Metal.Weighted>
-0.0000

> <Gold.Chemscore.Lipo.Weighted>
-9.7851

> <Gold.Chemscore.Internal_Hbond.Weighted>
0.0000

> <Gold.Chemscore.DEClash.Weighted>
0.0978

> <Gold.Chemscore.DEInternal.Weighted>
1.0040

> <Gold.Chemscore.Rot.Weighted>
6.9589

> <Gold.Chemscore.Internal.Correction.Weighted>
   9.000000E+99

> <Gold.Protein.RotatedTorsions>
[ 6907 6896 6895 6894 ] final -103.59 input  -60.11 | X-H torsion
[ 7974 7965 7964 7962 ] final -156.44 input  175.53 | X-H torsion
[ 8008 7997 7996 7995 ] final   -6.15 input   59.86 | X-H torsion
[ 10167 10162 10161 10158 ] final  158.42 input  -65.29 | X-H torsion
[ 10718 10713 10712 10709 ] final  -72.44 input   66.30 | X-H torsion
[ 10763 10752 10751 10750 ] final   84.56 input  -60.55 | X-H torsion
[ 11005 11000 10999 10996 ] final   50.55 input  -57.11 | X-H torsion

> <Gold.Protein.ActiveResidues>
 VAL166  LYS551  ARG553  GLY616  TRP617  ASP618  TYR619  PRO620  LYS621  CYS622 
 ASP623  PHE694  ASN695  SER759  ASP760  ASP761  ALA762  ILE779  LEU786  VAL792 
 PHE793  MET794  SER795  GLU796  ALA797  LYS798  CYS799  TRP800  GLU811  SER814 

> <Gold.Protein.RotatedAtoms>
  150.7247  134.0407  159.3764 H   0  0  0  0  0  0  0  0  0  0  0  0  # atno 6907 bound_to 6896
  151.8380  135.0597  160.0454 H   0  0  0  0  0  0  0  0  0  0  0  0  # atno 6908 bound_to 6896
  152.2884  133.5501  159.5578 H   0  0  0  0  0  0  0  0  0  0  0  0  # atno 6909 bound_to 6896
  144.7593  140.4110  143.5988 H   0  0  0  0  0  0  0  0  0  0  0  0  # atno 7974 bound_to 7965
  154.5967  140.2440  155.7847 H   0  0  0  0  0  0  0  0  0  0  0  0  # atno 8008 bound_to 7997
  156.2283  140.2975  156.0077 H   0  0  0  0  0  0  0  0  0  0  0  0  # atno 8009 bound_to 7997
  155.2281  140.0402  157.2948 H   0  0  0  0  0  0  0  0  0  0  0  0  # atno 8010 bound_to 7997
  139.4827  144.4826  151.8422 H   0  0  0  0  0  0  0  0  0  0  0  0  # atno 10167 bound_to 10162
  156.0320  130.4372  150.2592 H   0  0  0  0  0  0  0  0  0  0  0  0  # atno 10718 bound_to 10713
  153.1393  135.4649  154.9471 H   0  0  0  0  0  0  0  0  0  0  0  0  # atno 10763 bound_to 10752
  154.7733  135.3165  154.8146 H   0  0  0  0  0  0  0  0  0  0  0  0  # atno 10764 bound_to 10752
  153.8672  135.6907  153.4831 H   0  0  0  0  0  0  0  0  0  0  0  0  # atno 10765 bound_to 10752
  140.1007  134.5084  155.8765 H   0  0  0  0  0  0  0  0  0  0  0  0  # atno 11005 bound_to 11000
  145.6672  139.1592  143.2775 LP  0  0  0  0  0  0  0  0  0  0  0  0  # atno 17320 bound_to 7965
  146.1639  140.6747  142.9264 LP  0  0  0  0  0  0  0  0  0  0  0  0  # atno 17321 bound_to 7965
  140.4304  144.2124  150.5888 LP  0  0  0  0  0  0  0  0  0  0  0  0  # atno 17342 bound_to 10162
  140.4785  143.2387  151.8989 LP  0  0  0  0  0  0  0  0  0  0  0  0  # atno 17343 bound_to 10162
  157.0694  131.0112  151.3195 LP  0  0  0  0  0  0  0  0  0  0  0  0  # atno 17370 bound_to 10713
  157.5011  130.7880  149.7605 LP  0  0  0  0  0  0  0  0  0  0  0  0  # atno 17371 bound_to 10713
  141.2105  133.6695  156.6513 LP  0  0  0  0  0  0  0  0  0  0  0  0  # atno 17394 bound_to 11000
  140.3223  134.7997  157.4262 LP  0  0  0  0  0  0  0  0  0  0  0  0  # atno 17395 bound_to 11000

$$$$
