AV-unprocessed.smi:1886|AV-procd|sdf|7654|dock2
  -GOLD-   22720 9383D 1   1.00000     0.00000
 Structure written by MMmdl.
 39 40  0  0  0  0  0  0  0  0  1 V2000
  151.2964  141.7933  158.0993 O   0  0  0  0  0  0  0  0  0  0  0  0
  150.5881  142.6065  157.5059 C   0  0  0  0  0  0  0  0  0  0  0  0
  150.1525  142.4498  156.2484 N   0  0  0  0  0  0  0  0  0  0  0  0
  150.4191  141.2871  155.4085 C   0  0  0  0  0  0  0  0  0  0  0  0
  149.1783  140.8096  154.6670 C   0  0  0  0  0  0  0  0  0  0  0  0
  148.2209  141.7499  154.2304 C   0  0  0  0  0  0  0  0  0  0  0  0
  147.0815  141.2993  153.5391 C   0  0  0  0  0  0  0  0  0  0  0  0
  146.9434  139.9181  153.3088 C   0  0  0  0  0  0  0  0  0  0  0  0
  147.8493  139.0065  153.7191 N   0  0  0  0  0  0  0  0  0  0  0  0
  148.9485  139.4380  154.3842 C   0  0  0  0  0  0  0  0  0  0  0  0
  149.8737  138.4672  154.7984 N   0  0  0  0  0  0  0  0  0  0  0  0
  149.3833  137.1016  154.6680 C   0  0  0  0  0  0  0  0  0  0  0  0
  150.3875  136.1255  155.3029 C   0  0  0  0  0  0  0  0  0  0  0  0
  151.6694  136.3024  154.7065 O   0  0  0  0  0  0  0  0  0  0  0  0
  152.1719  137.6222  154.8993 C   0  0  0  0  0  0  0  0  0  0  0  0
  151.2140  138.6379  154.2530 C   0  0  0  0  0  0  0  0  0  0  0  0
  150.1611  143.7589  158.0389 N   0  0  0  0  0  0  0  0  0  0  0  0
  150.4843  144.2349  159.3804 C   0  0  0  0  0  0  0  0  0  0  0  0
  151.9813  144.5470  159.5489 C   0  0  0  0  0  0  0  0  0  0  0  0
  152.4607  145.0110  158.3957 F   0  0  0  0  0  0  0  0  0  0  0  0
  152.1579  145.4764  160.4887 F   0  0  0  0  0  0  0  0  0  0  0  0
  152.6649  143.4517  159.8788 F   0  0  0  0  0  0  0  0  0  0  0  0
  149.5795  143.1777  155.8474 H   0  0  0  0  0  0  0  0  0  0  0  0
  151.2026  141.5490  154.6966 H   0  0  0  0  0  0  0  0  0  0  0  0
  150.8052  140.4535  155.9977 H   0  0  0  0  0  0  0  0  0  0  0  0
  148.3551  142.8045  154.4213 H   0  0  0  0  0  0  0  0  0  0  0  0
  146.3324  141.9954  153.1922 H   0  0  0  0  0  0  0  0  0  0  0  0
  146.0829  139.5348  152.7805 H   0  0  0  0  0  0  0  0  0  0  0  0
  148.4113  137.0077  155.1537 H   0  0  0  0  0  0  0  0  0  0  0  0
  149.2436  136.8588  153.6136 H   0  0  0  0  0  0  0  0  0  0  0  0
  150.4530  136.2874  156.3791 H   0  0  0  0  0  0  0  0  0  0  0  0
  150.0611  135.0964  155.1532 H   0  0  0  0  0  0  0  0  0  0  0  0
  152.2921  137.8247  155.9650 H   0  0  0  0  0  0  0  0  0  0  0  0
  153.1604  137.6964  154.4462 H   0  0  0  0  0  0  0  0  0  0  0  0
  151.1955  138.4928  153.1718 H   0  0  0  0  0  0  0  0  0  0  0  0
  151.5622  139.6548  154.4384 H   0  0  0  0  0  0  0  0  0  0  0  0
  149.5770  144.3577  157.4739 H   0  0  0  0  0  0  0  0  0  0  0  0
  149.8822  145.1105  159.6298 H   0  0  0  0  0  0  0  0  0  0  0  0
  150.1942  143.4539  160.0839 H   0  0  0  0  0  0  0  0  0  0  0  0
  1  2  2  0  0  0  0
  2  3  1  0  0  0  0
  2 17  1  0  0  0  0
  3  4  1  0  0  0  0
  3 23  1  0  0  0  0
  4  5  1  0  0  0  0
  4 24  1  0  0  0  0
  4 25  1  0  0  0  0
  5 10  1  0  0  0  0
  5  6  2  0  0  0  0
  6  7  1  0  0  0  0
  6 26  1  0  0  0  0
  7  8  2  0  0  0  0
  7 27  1  0  0  0  0
  8  9  1  0  0  0  0
  8 28  1  0  0  0  0
  9 10  2  0  0  0  0
 10 11  1  0  0  0  0
 11 16  1  0  0  0  0
 11 12  1  0  0  0  0
 12 13  1  0  0  0  0
 12 29  1  0  0  0  0
 12 30  1  0  0  0  0
 13 14  1  0  0  0  0
 13 31  1  0  0  0  0
 13 32  1  0  0  0  0
 14 15  1  0  0  0  0
 15 16  1  0  0  0  0
 15 33  1  0  0  0  0
 15 34  1  0  0  0  0
 16 35  1  0  0  0  0
 16 36  1  0  0  0  0
 17 18  1  0  0  0  0
 17 37  1  0  0  0  0
 18 19  1  0  0  0  0
 18 38  1  0  0  0  0
 18 39  1  0  0  0  0
 19 20  1  0  0  0  0
 19 21  1  0  0  0  0
 19 22  1  0  0  0  0
M  END
> <s_m_source_file>
AV-unprocessed.smi

> <i_m_source_file_index>
1886

> <i_lp_mmshare_version>
43012

> <i_f3d_flags>
0

> <s_epik_input>
RkMoRikoRilbQ0gyXVtOSF1DKD1PKVtOSF1bQ0gyXWMxW2NIXVtjSF1bY0hdbmMxTjJbQ0gyXVtDSDJdT1tDSDJdW0NIMl0y

> <s_epik_cmdline>
J2VwaWtfcHl0aG9uJywgJy1waCcsICc3LjAnLCAnLXRuJywgJzgnLCAnLW1hJywgJzIwMCcsICctbWV0YWxfYmluZGluZycsICctaW1hZScsICc8aW5maWxlLm1hZT4nLCAnLW9tYWUnLCAnPG91dGZpbGUubWFlPic=

> <r_lp_tautomer_probability>
1

> <r_epik_Ionization_Penalty>
0.00288023

> <r_epik_Ionization_Penalty_Charging>
0

> <r_epik_Ionization_Penalty_Neutral>
0.00288023

> <r_epik_State_Penalty>
0.00199456

> <r_epik_Charging_Adjusted_Penalty>
0.00199456

> <i_epik_Tot_Q>
0

> <i_epik_Tot_abs_Q>
0

> <r_epik_Metal_State_Penalty>
-0

> <b_epik_Metal_Only>
0

> <s_lp_Force_Field>
OPLS_2005

> <r_lp_Energy>
16.0982

> <b_lp_Chiralities_Consistent>
1

> <s_lp_Variant>
AV-unprocessed.smi:1886-1

> <Gold.Version>
5.8.1

> <Gold.Id.Protein>
6NUR|6NUR_protein|mol2

> <Gold.PLP.Fitness>
52.6454

> <Gold.PLP.PLP>
-44.8137

> <Gold.PLP.part.hbond>
-3.5761

> <Gold.PLP.part.metal>
0.0000

> <Gold.PLP.part.buried>
-3.6099

> <Gold.PLP.part.nonpolar>
-37.4839

> <Gold.PLP.part.repulsive>
0.6028

> <Gold.PLP.ligand.clash>
0.0838

> <Gold.PLP.ligand.torsion>
1.0462

> <Gold.PLP.Chemscore.Hbond>
2.3436

> <Gold.PLP.Chemscore.CHOScore>
0.9428

> <Gold.PLP.Chemscore.Metal>
0.0000

> <Gold.Chemscore.Hbonds>
donor molecule, donor type, donor heavy atom, donor atom, acceptor molecule, acceptor atom, score
      L1  H     3    23       P1  8028  1.00
      L1  H    17    37       P1  8028  0.71
      P1  H 10752 10765       L1    14  0.76
      L1  C     8    28       P1 10175  0.84

> <Gold.PLP.Chemscore.Internal.Correction>
0.1487

> <Gold.Rescore>
     Score         DG    S(hbond)    S(metal)    S(lipo)     H(rot)  DE(clash)    DE(int)     intcor
      9.78     -13.59       1.30        0.00      78.05       2.09       0.24       3.58       ----

> <Gold.Chemscore.Fitness>
9.7752

> <Gold.Chemscore.DG>
-13.5876

> <Gold.Chemscore.ZeroCoef>
-5.4800

> <Gold.Chemscore.Hbond>
1.2954

> <Gold.Chemscore.Metal>
0.0000

> <Gold.Chemscore.Lipo>
78.0462

> <Gold.Chemscore.Internal_Hbond>
0.0000

> <Gold.Chemscore.DEClash>
0.2369

> <Gold.Chemscore.DEInternal>
3.5756

> <Gold.Chemscore.Rot>
2.0899

> <Gold.Chemscore.Internal.Correction>
   9.000000E+99

> <Gold.Chemscore.Hbonds>
donor molecule, donor type, donor heavy atom, donor atom, acceptor molecule, acceptor atom, score
      L1  H     3    23       P1  8028  0.99
      L1  H    17    37       P1  8028  0.08
      P1  H 10752 10765       L1    14  0.17

> <Gold.Chemscore.Hbond.Weighted>
-4.3265

> <Gold.Chemscore.Metal.Weighted>
-0.0000

> <Gold.Chemscore.Lipo.Weighted>
-9.1314

> <Gold.Chemscore.Internal_Hbond.Weighted>
0.0000

> <Gold.Chemscore.DEClash.Weighted>
0.2369

> <Gold.Chemscore.DEInternal.Weighted>
3.5756

> <Gold.Chemscore.Rot.Weighted>
5.3502

> <Gold.Chemscore.Internal.Correction.Weighted>
   9.000000E+99

> <Gold.Protein.RotatedTorsions>
[ 6907 6896 6895 6894 ] final  -17.32 input  -60.11 | X-H torsion
[ 7974 7965 7964 7962 ] final -143.87 input  175.53 | X-H torsion
[ 8008 7997 7996 7995 ] final  104.92 input   59.86 | X-H torsion
[ 10167 10162 10161 10158 ] final   42.43 input  -65.29 | X-H torsion
[ 10718 10713 10712 10709 ] final  -32.84 input   66.30 | X-H torsion
[ 10763 10752 10751 10750 ] final  172.76 input  -60.55 | X-H torsion
[ 11005 11000 10999 10996 ] final -171.60 input  -57.11 | X-H torsion

> <Gold.Protein.ActiveResidues>
 VAL166  LYS551  ARG553  GLY616  TRP617  ASP618  TYR619  PRO620  LYS621  CYS622 
 ASP623  PHE694  ASN695  SER759  ASP760  ASP761  ALA762  ILE779  LEU786  VAL792 
 PHE793  MET794  SER795  GLU796  ALA797  LYS798  CYS799  TRP800  GLU811  SER814 

> <Gold.Protein.RotatedAtoms>
  151.2952  135.0753  159.9218 H   0  0  0  0  0  0  0  0  0  0  0  0  # atno 6907 bound_to 6896
  152.5309  133.9891  159.7852 H   0  0  0  0  0  0  0  0  0  0  0  0  # atno 6908 bound_to 6896
  151.0168  133.5863  159.2706 H   0  0  0  0  0  0  0  0  0  0  0  0  # atno 6909 bound_to 6896
  144.8338  140.5781  143.5497 H   0  0  0  0  0  0  0  0  0  0  0  0  # atno 7974 bound_to 7965
  156.1615  140.3139  155.8815 H   0  0  0  0  0  0  0  0  0  0  0  0  # atno 8008 bound_to 7997
  155.3773  140.0485  157.3061 H   0  0  0  0  0  0  0  0  0  0  0  0  # atno 8009 bound_to 7997
  154.5151  140.2178  155.9093 H   0  0  0  0  0  0  0  0  0  0  0  0  # atno 8010 bound_to 7997
  140.3545  144.2308  150.6143 H   0  0  0  0  0  0  0  0  0  0  0  0  # atno 10167 bound_to 10162
  156.3700  130.4338  149.7553 H   0  0  0  0  0  0  0  0  0  0  0  0  # atno 10718 bound_to 10713
  154.4306  135.2759  155.1915 H   0  0  0  0  0  0  0  0  0  0  0  0  # atno 10763 bound_to 10752
  154.3823  135.6085  153.5801 H   0  0  0  0  0  0  0  0  0  0  0  0  # atno 10764 bound_to 10752
  152.9836  135.5883  154.4616 H   0  0  0  0  0  0  0  0  0  0  0  0  # atno 10765 bound_to 10752
  140.5064  134.5844  157.5005 H   0  0  0  0  0  0  0  0  0  0  0  0  # atno 11005 bound_to 11000
  145.4838  139.1493  143.3747 LP  0  0  0  0  0  0  0  0  0  0  0  0  # atno 17320 bound_to 7965
  146.2639  140.4975  142.8842 LP  0  0  0  0  0  0  0  0  0  0  0  0  # atno 17321 bound_to 7965
  140.5187  143.2271  151.8423 LP  0  0  0  0  0  0  0  0  0  0  0  0  # atno 17342 bound_to 10162
  139.4822  144.4863  151.9242 LP  0  0  0  0  0  0  0  0  0  0  0  0  # atno 17343 bound_to 10162
  156.4684  130.7985  151.3003 LP  0  0  0  0  0  0  0  0  0  0  0  0  # atno 17370 bound_to 10713
  157.7483  131.0043  150.3073 LP  0  0  0  0  0  0  0  0  0  0  0  0  # atno 17371 bound_to 10713
  139.9684  134.7334  156.0092 LP  0  0  0  0  0  0  0  0  0  0  0  0  # atno 17394 bound_to 11000
  141.1409  133.6565  156.3726 LP  0  0  0  0  0  0  0  0  0  0  0  0  # atno 17395 bound_to 11000

$$$$
