AV-unprocessed.smi:384|AV-procd|sdf|2469|dock3
  -GOLD-   2262022413D 1   1.00000     0.00000
 Structure written by MMmdl.
 33 34  0  0  0  0  0  0  0  0  3 V2000
  144.1898  135.1712  152.1753 C   0  0  0  0  0  0  0  0  0  0  0  0
  145.3699  134.2273  151.9229 C   0  0  1  0  0  0  0  0  0  0  0  0
  146.3803  134.2403  153.0853 C   0  0  0  0  0  0  0  0  0  0  0  0
  147.4307  133.2600  152.8453 N   0  0  0  0  0  0  0  0  0  0  0  0
  148.4381  133.2885  153.8179 C   0  0  0  0  0  0  0  0  0  0  0  0
  148.7708  132.1789  154.6285 C   0  0  0  0  0  0  0  0  0  0  0  0
  149.8008  132.3045  155.5833 C   0  0  0  0  0  0  0  0  0  0  0  0
  150.4856  133.5349  155.7167 C   0  0  0  0  0  0  0  0  0  0  0  0
  151.5876  133.7005  156.7240 C   0  0  0  0  0  0  0  0  0  0  0  0
  151.8527  132.7445  157.4859 O   0  0  0  0  0  0  0  0  0  0  0  0
  152.2036  134.7884  156.7681 O   0  5  0  0  0  0  0  0  0  0  0  0
  150.1069  134.6074  154.8773 C   0  0  0  0  0  0  0  0  0  0  0  0
  149.1140  134.4470  153.9748 N   0  3  0  0  0  0  0  0  0  0  0  0
  146.9023  131.9237  152.6068 C   0  0  0  0  0  0  0  0  0  0  0  0
  145.8826  131.9577  151.4533 C   0  0  1  0  0  0  0  0  0  0  0  0
  145.2239  130.5930  151.2267 C   0  0  0  0  0  0  0  0  0  0  0  0
  144.8625  132.9038  151.7660 O   0  0  0  0  0  0  0  0  0  0  0  0
  144.5286  136.2007  152.2936 H   0  0  0  0  0  0  0  0  0  0  0  0
  143.6456  134.8917  153.0779 H   0  0  0  0  0  0  0  0  0  0  0  0
  143.4870  135.1470  151.3420 H   0  0  0  0  0  0  0  0  0  0  0  0
  145.8661  134.5313  150.9995 H   0  0  0  0  0  0  0  0  0  0  0  0
  146.8216  135.2324  153.1883 H   0  0  0  0  0  0  0  0  0  0  0  0
  145.8716  134.0134  154.0234 H   0  0  0  0  0  0  0  0  0  0  0  0
  148.2466  131.2402  154.5255 H   0  0  0  0  0  0  0  0  0  0  0  0
  150.0562  131.4578  156.2040 H   0  0  0  0  0  0  0  0  0  0  0  0
  150.5642  135.5862  154.8979 H   0  0  0  0  0  0  0  0  0  0  0  0
  147.7207  131.2441  152.3650 H   0  0  0  0  0  0  0  0  0  0  0  0
  146.4262  131.5474  153.5133 H   0  0  0  0  0  0  0  0  0  0  0  0
  146.3798  132.2606  150.5299 H   0  0  0  0  0  0  0  0  0  0  0  0
  145.9668  129.8357  150.9746 H   0  0  0  0  0  0  0  0  0  0  0  0
  144.5059  130.6387  150.4075 H   0  0  0  0  0  0  0  0  0  0  0  0
  144.6922  130.2574  152.1174 H   0  0  0  0  0  0  0  0  0  0  0  0
  148.8647  135.2405  153.3844 H   0  0  0  0  0  0  0  0  0  0  0  0
  1  2  1  0  0  0  0
  1 18  1  0  0  0  0
  1 19  1  0  0  0  0
  1 20  1  0  0  0  0
  2 17  1  0  0  0  0
  2  3  1  0  0  0  0
  2 21  1  0  0  0  0
  3  4  1  0  0  0  0
  3 22  1  0  0  0  0
  3 23  1  0  0  0  0
  4  5  1  0  0  0  0
  4 14  1  0  0  0  0
  5 13  1  0  0  0  0
  5  6  2  0  0  0  0
  6  7  1  0  0  0  0
  6 24  1  0  0  0  0
  7  8  2  0  0  0  0
  7 25  1  0  0  0  0
  8  9  1  0  0  0  0
  8 12  1  0  0  0  0
  9 10  2  0  0  0  0
  9 11  1  0  0  0  0
 12 13  2  0  0  0  0
 12 26  1  0  0  0  0
 13 33  1  0  0  0  0
 14 15  1  0  0  0  0
 14 27  1  0  0  0  0
 14 28  1  0  0  0  0
 15 16  1  0  0  0  0
 15 17  1  0  0  0  0
 15 29  1  0  0  0  0
 16 30  1  0  0  0  0
 16 31  1  0  0  0  0
 16 32  1  0  0  0  0
M  CHG  1  11  -1
M  CHG  1  13   1
M  END
> <s_m_source_file>
AV-unprocessed.smi

> <i_m_source_file_index>
384

> <i_lp_mmshare_version>
43012

> <i_f3d_flags>
0

> <s_epik_input>
W0NIM11bQ0BASF0xW0NIMl1OKFtDSDJdW0NASF0oTzEpW0NIM10pYzJbY0hdW2NIXWMoW2NIXW4yKUMoPU8pW09IXQ==

> <s_epik_cmdline>
J2VwaWtfcHl0aG9uJywgJy1waCcsICc3LjAnLCAnLXRuJywgJzgnLCAnLW1hJywgJzIwMCcsICctbWV0YWxfYmluZGluZycsICctaW1hZScsICc8aW5maWxlLm1hZT4nLCAnLW9tYWUnLCAnPG91dGZpbGUubWFlPic=

> <r_epik_Ionization_Penalty>
2.35185

> <r_epik_Ionization_Penalty_Charging>
2.35185

> <r_epik_Ionization_Penalty_Neutral>
3.18713e-12

> <r_epik_State_Penalty>
2.50619

> <r_epik_Charging_Adjusted_Penalty>
4.85804

> <i_epik_Tot_Q>
0

> <i_epik_Tot_abs_Q>
2

> <r_epik_Metal_State_Penalty>
6.59026

> <b_epik_Metal_Only>
0

> <s_lp_Force_Field>
OPLS_2005

> <r_lp_Energy>
16.4977

> <b_lp_Chiralities_Consistent>
1

> <s_lp_Variant>
AV-unprocessed.smi:384-5

> <Gold.Version>
5.8.1

> <Gold.Id.Protein>
6NUR|6NUR_protein|mol2

> <Gold.PLP.Fitness>
43.2712

> <Gold.PLP.PLP>
-25.5866

> <Gold.PLP.part.hbond>
-3.3034

> <Gold.PLP.part.metal>
0.0000

> <Gold.PLP.part.buried>
-2.6703

> <Gold.PLP.part.nonpolar>
-19.8687

> <Gold.PLP.part.repulsive>
0.2632

> <Gold.PLP.ligand.clash>
0.0000

> <Gold.PLP.ligand.torsion>
0.0816

> <Gold.PLP.Chemscore.Hbond>
5.9200

> <Gold.PLP.Chemscore.CHOScore>
0.0000

> <Gold.PLP.Chemscore.Metal>
0.0000

> <Gold.Chemscore.Hbonds>
donor molecule, donor type, donor heavy atom, donor atom, acceptor molecule, acceptor atom, score
      L1  H    13    33       P1  7948  2.00
      P1  H  6896  6909       L1    10  1.92
      P1  H 10752 10765       L1    11  1.95

> <Gold.PLP.Chemscore.Internal.Correction>
0.0877

> <Gold.Rescore>
     Score         DG    S(hbond)    S(metal)    S(lipo)     H(rot)  DE(clash)    DE(int)     intcor
     17.56     -17.72       2.46        0.00      56.25       1.00       0.05       0.10       ----

> <Gold.Chemscore.Fitness>
17.5640

> <Gold.Chemscore.DG>
-17.7223

> <Gold.Chemscore.ZeroCoef>
-5.4800

> <Gold.Chemscore.Hbond>
2.4616

> <Gold.Chemscore.Metal>
0.0000

> <Gold.Chemscore.Lipo>
56.2454

> <Gold.Chemscore.Internal_Hbond>
0.0000

> <Gold.Chemscore.DEClash>
0.0542

> <Gold.Chemscore.DEInternal>
0.1042

> <Gold.Chemscore.Rot>
1.0000

> <Gold.Chemscore.Internal.Correction>
   9.000000E+99

> <Gold.Chemscore.Hbonds>
donor molecule, donor type, donor heavy atom, donor atom, acceptor molecule, acceptor atom, score
      L1  H    13    33       P1  7948  0.63
      P1  H  6896  6909       L1    10  0.65
      P1  H 10752 10765       L1    11  0.88

> <Gold.Chemscore.Hbond.Weighted>
-8.2216

> <Gold.Chemscore.Metal.Weighted>
-0.0000

> <Gold.Chemscore.Lipo.Weighted>
-6.5807

> <Gold.Chemscore.Internal_Hbond.Weighted>
0.0000

> <Gold.Chemscore.DEClash.Weighted>
0.0542

> <Gold.Chemscore.DEInternal.Weighted>
0.1042

> <Gold.Chemscore.Rot.Weighted>
2.5600

> <Gold.Chemscore.Internal.Correction.Weighted>
   9.000000E+99

> <Gold.Protein.RotatedTorsions>
[ 6907 6896 6895 6894 ] final  -58.61 input  -60.11 | X-H torsion
[ 7974 7965 7964 7962 ] final  -50.92 input  175.53 | X-H torsion
[ 8008 7997 7996 7995 ] final   21.87 input   59.86 | X-H torsion
[ 10167 10162 10161 10158 ] final  -40.84 input  -65.29 | X-H torsion
[ 10718 10713 10712 10709 ] final -124.34 input   66.30 | X-H torsion
[ 10763 10752 10751 10750 ] final -132.33 input  -60.55 | X-H torsion
[ 11005 11000 10999 10996 ] final   -4.51 input  -57.11 | X-H torsion

> <Gold.Protein.ActiveResidues>
 VAL166  LYS551  ARG553  GLY616  TRP617  ASP618  TYR619  PRO620  LYS621  CYS622 
 ASP623  PHE694  ASN695  SER759  ASP760  ASP761  ALA762  ILE779  LEU786  VAL792 
 PHE793  MET794  SER795  GLU796  ALA797  LYS798  CYS799  TRP800  GLU811  SER814 

> <Gold.Protein.RotatedAtoms>
  150.7993  134.7076  159.6584 H   0  0  0  0  0  0  0  0  0  0  0  0  # atno 6907 bound_to 6896
  152.4109  134.6123  160.0039 H   0  0  0  0  0  0  0  0  0  0  0  0  # atno 6908 bound_to 6896
  151.6367  133.3291  159.3157 H   0  0  0  0  0  0  0  0  0  0  0  0  # atno 6909 bound_to 6896
  145.9246  140.7803  142.9630 H   0  0  0  0  0  0  0  0  0  0  0  0  # atno 7974 bound_to 7965
  154.9572  140.3073  155.5048 H   0  0  0  0  0  0  0  0  0  0  0  0  # atno 8008 bound_to 7997
  156.2981  140.2308  156.4592 H   0  0  0  0  0  0  0  0  0  0  0  0  # atno 8009 bound_to 7997
  154.7999  140.0434  157.1253 H   0  0  0  0  0  0  0  0  0  0  0  0  # atno 8010 bound_to 7997
  140.7022  143.3130  151.2981 H   0  0  0  0  0  0  0  0  0  0  0  0  # atno 10167 bound_to 10162
  156.1579  130.6581  151.0008 H   0  0  0  0  0  0  0  0  0  0  0  0  # atno 10718 bound_to 10713
  154.8744  135.3801  154.4392 H   0  0  0  0  0  0  0  0  0  0  0  0  # atno 10763 bound_to 10752
  153.5079  135.7030  153.5802 H   0  0  0  0  0  0  0  0  0  0  0  0  # atno 10764 bound_to 10752
  153.4104  135.3926  155.2013 H   0  0  0  0  0  0  0  0  0  0  0  0  # atno 10765 bound_to 10752
  140.6811  133.9153  155.8555 H   0  0  0  0  0  0  0  0  0  0  0  0  # atno 11005 bound_to 11000
  144.6757  140.2030  143.7385 LP  0  0  0  0  0  0  0  0  0  0  0  0  # atno 17320 bound_to 7965
  145.8506  139.2173  143.1774 LP  0  0  0  0  0  0  0  0  0  0  0  0  # atno 17321 bound_to 7965
  139.6559  144.0278  152.2659 LP  0  0  0  0  0  0  0  0  0  0  0  0  # atno 17342 bound_to 10162
  139.9829  144.6416  150.7884 LP  0  0  0  0  0  0  0  0  0  0  0  0  # atno 17343 bound_to 10162
  157.6709  131.0861  150.7614 LP  0  0  0  0  0  0  0  0  0  0  0  0  # atno 17370 bound_to 10713
  156.7678  130.4819  149.5424 LP  0  0  0  0  0  0  0  0  0  0  0  0  # atno 17371 bound_to 10713
  141.0317  134.0747  157.4006 LP  0  0  0  0  0  0  0  0  0  0  0  0  # atno 17394 bound_to 11000
  139.8951  135.0139  156.6987 LP  0  0  0  0  0  0  0  0  0  0  0  0  # atno 17395 bound_to 11000

$$$$
