AV-unprocessed.smi:1859|AV-procd|sdf|7543|dock2
  -GOLD-   22720 9253D 1   1.00000     0.00000
 Structure written by MMmdl.
 45 47  0  0  0  0  0  0  0  0  1 V2000
  151.6287  136.2367  155.8621 O   0  0  0  0  0  0  0  0  0  0  0  0
  151.1832  137.3768  155.9938 C   0  0  0  0  0  0  0  0  0  0  0  0
  150.2850  137.7051  156.9366 N   0  0  0  0  0  0  0  0  0  0  0  0
  149.6961  136.7847  157.9064 C   0  0  0  0  0  0  0  0  0  0  0  0
  148.6517  137.4659  158.8106 C   0  0  0  0  0  0  0  0  0  0  0  0
  148.1464  136.5877  159.9429 C   0  0  0  0  0  0  0  0  0  0  0  0
  147.9553  135.2023  159.7520 C   0  0  0  0  0  0  0  0  0  0  0  0
  147.4967  134.4331  160.8385 C   0  0  0  0  0  0  0  0  0  0  0  0
  147.2419  135.0755  162.0654 C   0  0  0  0  0  0  0  0  0  0  0  0
  147.4582  136.4649  162.1516 C   0  0  0  0  0  0  0  0  0  0  0  0
  147.9079  137.2104  161.1193 N   0  0  0  0  0  0  0  0  0  0  0  0
  151.6352  138.5132  155.0558 C   0  0  2  0  0  0  0  0  0  0  0  0
  152.2151  139.7164  155.8428 C   0  0  0  0  0  0  0  0  0  0  0  0
  151.1329  140.6407  156.4395 C   0  0  0  0  0  0  0  0  0  0  0  0
  150.0888  141.0076  155.3735 C   0  0  0  0  0  0  0  0  0  0  0  0
  149.5058  139.7743  154.8284 N   0  0  0  0  0  0  0  0  0  0  0  0
  148.2159  139.3768  154.9594 C   0  0  0  0  0  0  0  0  0  0  0  0
  147.4620  139.8893  155.7872 O   0  0  0  0  0  0  0  0  0  0  0  0
  147.7161  138.3186  154.0181 C   0  0  0  0  0  0  0  0  0  0  0  0
  146.7750  138.7423  152.9050 C   0  0  0  0  0  0  0  0  0  0  0  0
  146.2437  137.9722  154.0867 C   0  0  0  0  0  0  0  0  0  0  0  0
  150.5081  138.9821  154.0983 C   0  0  0  0  0  0  0  0  0  0  0  0
  149.9739  138.6649  156.9759 H   0  0  0  0  0  0  0  0  0  0  0  0
  149.2195  135.9763  157.3518 H   0  0  0  0  0  0  0  0  0  0  0  0
  150.4696  136.3145  158.5158 H   0  0  0  0  0  0  0  0  0  0  0  0
  149.0739  138.3803  159.2295 H   0  0  0  0  0  0  0  0  0  0  0  0
  147.7984  137.7792  158.2080 H   0  0  0  0  0  0  0  0  0  0  0  0
  148.1540  134.7382  158.7973 H   0  0  0  0  0  0  0  0  0  0  0  0
  147.3359  133.3706  160.7311 H   0  0  0  0  0  0  0  0  0  0  0  0
  146.8808  134.5184  162.9170 H   0  0  0  0  0  0  0  0  0  0  0  0
  147.2685  136.9906  163.0756 H   0  0  0  0  0  0  0  0  0  0  0  0
  152.4406  138.1128  154.4377 H   0  0  0  0  0  0  0  0  0  0  0  0
  152.8847  139.3733  156.6330 H   0  0  0  0  0  0  0  0  0  0  0  0
  152.8357  140.3035  155.1648 H   0  0  0  0  0  0  0  0  0  0  0  0
  150.6424  140.1563  157.2841 H   0  0  0  0  0  0  0  0  0  0  0  0
  151.5967  141.5450  156.8343 H   0  0  0  0  0  0  0  0  0  0  0  0
  149.3519  141.7026  155.7735 H   0  0  0  0  0  0  0  0  0  0  0  0
  150.5730  141.5541  154.5628 H   0  0  0  0  0  0  0  0  0  0  0  0
  148.4080  137.5261  153.7420 H   0  0  0  0  0  0  0  0  0  0  0  0
  146.4896  139.7894  152.8208 H   0  0  0  0  0  0  0  0  0  0  0  0
  146.8693  138.2183  151.9561 H   0  0  0  0  0  0  0  0  0  0  0  0
  145.9757  136.9279  153.9402 H   0  0  0  0  0  0  0  0  0  0  0  0
  145.6189  138.5132  154.7954 H   0  0  0  0  0  0  0  0  0  0  0  0
  150.9321  139.5963  153.3025 H   0  0  0  0  0  0  0  0  0  0  0  0
  150.0759  138.1159  153.5939 H   0  0  0  0  0  0  0  0  0  0  0  0
  1  2  2  0  0  0  0
  2  3  1  0  0  0  0
  2 12  1  0  0  0  0
  3  4  1  0  0  0  0
  3 23  1  0  0  0  0
  4  5  1  0  0  0  0
  4 24  1  0  0  0  0
  4 25  1  0  0  0  0
  5  6  1  0  0  0  0
  5 26  1  0  0  0  0
  5 27  1  0  0  0  0
  6 11  1  0  0  0  0
  6  7  2  0  0  0  0
  7  8  1  0  0  0  0
  7 28  1  0  0  0  0
  8  9  2  0  0  0  0
  8 29  1  0  0  0  0
  9 10  1  0  0  0  0
  9 30  1  0  0  0  0
 10 11  2  0  0  0  0
 10 31  1  0  0  0  0
 12 22  1  0  0  0  0
 12 13  1  0  0  0  0
 12 32  1  0  0  0  0
 13 14  1  0  0  0  0
 13 33  1  0  0  0  0
 13 34  1  0  0  0  0
 14 15  1  0  0  0  0
 14 35  1  0  0  0  0
 14 36  1  0  0  0  0
 15 16  1  0  0  0  0
 15 37  1  0  0  0  0
 15 38  1  0  0  0  0
 16 17  1  0  0  0  0
 16 22  1  0  0  0  0
 17 18  2  0  0  0  0
 17 19  1  0  0  0  0
 19 21  1  0  0  0  0
 19 20  1  0  0  0  0
 19 39  1  0  0  0  0
 20 21  1  0  0  0  0
 20 40  1  0  0  0  0
 20 41  1  0  0  0  0
 21 42  1  0  0  0  0
 21 43  1  0  0  0  0
 22 44  1  0  0  0  0
 22 45  1  0  0  0  0
M  END
> <s_m_source_file>
AV-unprocessed.smi

> <i_m_source_file_index>
1859

> <i_lp_mmshare_version>
43012

> <i_f3d_flags>
0

> <s_epik_input>
W0NIMl0xW0NIMl1bQ0hdMUMoPU8pTihbQ0gyXTIpW0NIMl1bQ0gyXVtDSDJdW0NASF0yQyg9TylbTkhdW0NIMl1bQ0gyXWMzW2NIXVtjSF1bY0hdW2NIXW4z

> <s_epik_cmdline>
J2VwaWtfcHl0aG9uJywgJy1waCcsICc3LjAnLCAnLXRuJywgJzgnLCAnLW1hJywgJzIwMCcsICctbWV0YWxfYmluZGluZycsICctaW1hZScsICc8aW5maWxlLm1hZT4nLCAnLW9tYWUnLCAnPG91dGZpbGUubWFlPic=

> <r_epik_Ionization_Penalty>
0.0268048

> <r_epik_Ionization_Penalty_Charging>
0

> <r_epik_Ionization_Penalty_Neutral>
0.0268048

> <r_epik_State_Penalty>
0.0219025

> <r_epik_Charging_Adjusted_Penalty>
0.0219025

> <i_epik_Tot_Q>
0

> <i_epik_Tot_abs_Q>
0

> <r_epik_Metal_State_Penalty>
0.020951

> <b_epik_Metal_Only>
0

> <s_lp_Force_Field>
OPLS_2005

> <r_lp_Energy>
24.9831

> <b_lp_Chiralities_Consistent>
1

> <s_lp_Variant>
AV-unprocessed.smi:1859-1

> <Gold.Version>
5.8.1

> <Gold.Id.Protein>
6NUR|6NUR_protein|mol2

> <Gold.PLP.Fitness>
44.1948

> <Gold.PLP.PLP>
-37.0179

> <Gold.PLP.part.hbond>
-3.0000

> <Gold.PLP.part.metal>
0.0000

> <Gold.PLP.part.buried>
-2.5298

> <Gold.PLP.part.nonpolar>
-30.2269

> <Gold.PLP.part.repulsive>
0.0462

> <Gold.PLP.ligand.clash>
0.0000

> <Gold.PLP.ligand.torsion>
0.7163

> <Gold.PLP.Chemscore.Hbond>
2.7440

> <Gold.PLP.Chemscore.CHOScore>
0.0000

> <Gold.PLP.Chemscore.Metal>
0.0000

> <Gold.Chemscore.Hbonds>
donor molecule, donor type, donor heavy atom, donor atom, acceptor molecule, acceptor atom, score
      P1  H  6931  6943       L1    11  0.96
      P1  H  6934  6947       L1    11  0.75
      P1  H 10752 10763       L1     1  1.00

> <Gold.PLP.Chemscore.Internal.Correction>
0.3774

> <Gold.Rescore>
     Score         DG    S(hbond)    S(metal)    S(lipo)     H(rot)  DE(clash)    DE(int)     intcor
     17.44     -18.85       2.27        0.00      84.24       1.59       0.03       1.39       ----

> <Gold.Chemscore.Fitness>
17.4358

> <Gold.Chemscore.DG>
-18.8494

> <Gold.Chemscore.ZeroCoef>
-5.4800

> <Gold.Chemscore.Hbond>
2.2739

> <Gold.Chemscore.Metal>
0.0000

> <Gold.Chemscore.Lipo>
84.2391

> <Gold.Chemscore.Internal_Hbond>
0.0000

> <Gold.Chemscore.DEClash>
0.0251

> <Gold.Chemscore.DEInternal>
1.3885

> <Gold.Chemscore.Rot>
1.5943

> <Gold.Chemscore.Internal.Correction>
   9.000000E+99

> <Gold.Chemscore.Hbonds>
donor molecule, donor type, donor heavy atom, donor atom, acceptor molecule, acceptor atom, score
      P1  H  6931  6943       L1    11  0.32
      P1  H  6934  6947       L1    11  0.63
      P1  H 10752 10763       L1     1  1.00

> <Gold.Chemscore.Hbond.Weighted>
-7.5948

> <Gold.Chemscore.Metal.Weighted>
-0.0000

> <Gold.Chemscore.Lipo.Weighted>
-9.8560

> <Gold.Chemscore.Internal_Hbond.Weighted>
0.0000

> <Gold.Chemscore.DEClash.Weighted>
0.0251

> <Gold.Chemscore.DEInternal.Weighted>
1.3885

> <Gold.Chemscore.Rot.Weighted>
4.0814

> <Gold.Chemscore.Internal.Correction.Weighted>
   9.000000E+99

> <Gold.Protein.RotatedTorsions>
[ 6907 6896 6895 6894 ] final  -87.14 input  -60.11 | X-H torsion
[ 7974 7965 7964 7962 ] final -101.81 input  175.53 | X-H torsion
[ 8008 7997 7996 7995 ] final -123.37 input   59.86 | X-H torsion
[ 10167 10162 10161 10158 ] final    9.77 input  -65.29 | X-H torsion
[ 10718 10713 10712 10709 ] final  169.76 input   66.30 | X-H torsion
[ 10763 10752 10751 10750 ] final   78.70 input  -60.55 | X-H torsion
[ 11005 11000 10999 10996 ] final   95.46 input  -57.11 | X-H torsion

> <Gold.Protein.ActiveResidues>
 VAL166  LYS551  ARG553  GLY616  TRP617  ASP618  TYR619  PRO620  LYS621  CYS622 
 ASP623  PHE694  ASN695  SER759  ASP760  ASP761  ALA762  ILE779  LEU786  VAL792 
 PHE793  MET794  SER795  GLU796  ALA797  LYS798  CYS799  TRP800  GLU811  SER814 

> <Gold.Protein.RotatedAtoms>
  150.6866  134.2942  159.4679 H   0  0  0  0  0  0  0  0  0  0  0  0  # atno 6907 bound_to 6896
  152.0844  134.9447  160.0582 H   0  0  0  0  0  0  0  0  0  0  0  0  # atno 6908 bound_to 6896
  152.0787  133.4107  159.4528 H   0  0  0  0  0  0  0  0  0  0  0  0  # atno 6909 bound_to 6896
  145.2768  140.9315  143.2954 H   0  0  0  0  0  0  0  0  0  0  0  0  # atno 7974 bound_to 7965
  155.1794  140.0410  157.2879 H   0  0  0  0  0  0  0  0  0  0  0  0  # atno 8008 bound_to 7997
  154.6214  140.2501  155.7517 H   0  0  0  0  0  0  0  0  0  0  0  0  # atno 8009 bound_to 7997
  156.2435  140.2894  156.0523 H   0  0  0  0  0  0  0  0  0  0  0  0  # atno 8010 bound_to 7997
  140.6235  143.8153  150.7204 H   0  0  0  0  0  0  0  0  0  0  0  0  # atno 10167 bound_to 10162
  157.0179  131.0223  151.2783 H   0  0  0  0  0  0  0  0  0  0  0  0  # atno 10718 bound_to 10713
  153.0895  135.4867  154.8662 H   0  0  0  0  0  0  0  0  0  0  0  0  # atno 10763 bound_to 10752
  154.7251  135.3048  154.8986 H   0  0  0  0  0  0  0  0  0  0  0  0  # atno 10764 bound_to 10752
  153.9638  135.6809  153.4799 H   0  0  0  0  0  0  0  0  0  0  0  0  # atno 10765 bound_to 10752
  139.8789  134.8900  156.4014 H   0  0  0  0  0  0  0  0  0  0  0  0  # atno 11005 bound_to 11000
  144.9287  139.4324  143.6506 LP  0  0  0  0  0  0  0  0  0  0  0  0  # atno 17320 bound_to 7965
  146.3229  139.8186  142.8931 LP  0  0  0  0  0  0  0  0  0  0  0  0  # atno 17321 bound_to 7965
  140.1748  143.4164  152.1975 LP  0  0  0  0  0  0  0  0  0  0  0  0  # atno 17342 bound_to 10162
  139.5459  144.7298  151.4585 LP  0  0  0  0  0  0  0  0  0  0  0  0  # atno 17343 bound_to 10162
  157.5272  130.8035  149.7875 LP  0  0  0  0  0  0  0  0  0  0  0  0  # atno 17370 bound_to 10713
  156.0113  130.3832  150.2257 LP  0  0  0  0  0  0  0  0  0  0  0  0  # atno 17371 bound_to 10713
  140.9264  133.7609  155.9970 LP  0  0  0  0  0  0  0  0  0  0  0  0  # atno 17394 bound_to 11000
  140.8381  134.3099  157.5324 LP  0  0  0  0  0  0  0  0  0  0  0  0  # atno 17395 bound_to 11000

$$$$
