AV-unprocessed.smi:2095|AV-procd|sdf|8558|dock7
  -GOLD-   2272011283D 1   1.00000     0.00000
 Structure written by MMmdl.
 42 43  0  0  0  0  0  0  0  0  2 V2000
  153.0037  142.8127  161.7519 C   0  0  0  0  0  0  0  0  0  0  0  0
  152.8371  143.0566  160.2453 C   0  0  2  0  0  0  0  0  0  0  0  0
  152.2332  144.4407  159.9676 C   0  0  0  0  0  0  0  0  0  0  0  0
  152.0646  144.6438  158.4592 C   0  0  0  0  0  0  0  0  0  0  0  0
  151.2339  143.5119  157.8322 C   0  0  0  0  0  0  0  0  0  0  0  0
  151.8304  142.1741  158.1167 N   0  3  2  0  0  0  0  0  0  0  0  0
  151.1812  141.0011  157.4423 C   0  0  1  0  0  0  0  0  0  0  0  0
  149.8234  140.5863  158.0608 C   0  0  0  0  0  0  0  0  0  0  0  0
  151.0169  141.2966  155.9318 C   0  0  0  0  0  0  0  0  0  0  0  0
  150.8326  140.0802  155.1493 N   0  0  0  0  0  0  0  0  0  0  0  0
  151.7312  139.0883  155.0650 C   0  0  0  0  0  0  0  0  0  0  0  0
  152.8143  139.1051  155.6487 O   0  0  0  0  0  0  0  0  0  0  0  0
  151.3499  137.8932  154.1916 C   0  0  0  0  0  0  0  0  0  0  0  0
  151.0114  136.7435  155.0081 N   0  0  0  0  0  0  0  0  0  0  0  0
  149.9279  135.9644  155.0204 C   0  0  0  0  0  0  0  0  0  0  0  0
  150.0292  135.0016  155.9242 N   0  0  0  0  0  0  0  0  0  0  0  0
  151.2719  135.2307  156.4910 N   0  0  0  0  0  0  0  0  0  0  0  0
  151.8601  136.2625  155.9509 N   0  0  0  0  0  0  0  0  0  0  0  0
  151.9735  141.9630  159.5863 C   0  0  0  0  0  0  0  0  0  0  0  0
  152.0426  142.8341  162.2664 H   0  0  0  0  0  0  0  0  0  0  0  0
  153.6399  143.5740  162.2042 H   0  0  0  0  0  0  0  0  0  0  0  0
  153.4636  141.8432  161.9454 H   0  0  0  0  0  0  0  0  0  0  0  0
  153.8306  143.0211  159.7955 H   0  0  0  0  0  0  0  0  0  0  0  0
  151.2650  144.5337  160.4617 H   0  0  0  0  0  0  0  0  0  0  0  0
  152.8714  145.2236  160.3794 H   0  0  0  0  0  0  0  0  0  0  0  0
  151.5892  145.6058  158.2651 H   0  0  0  0  0  0  0  0  0  0  0  0
  153.0459  144.6840  157.9840 H   0  0  0  0  0  0  0  0  0  0  0  0
  150.2082  143.5441  158.2034 H   0  0  0  0  0  0  0  0  0  0  0  0
  151.1992  143.7036  156.7603 H   0  0  0  0  0  0  0  0  0  0  0  0
  151.8454  140.1425  157.5571 H   0  0  0  0  0  0  0  0  0  0  0  0
  149.3867  139.7340  157.5405 H   0  0  0  0  0  0  0  0  0  0  0  0
  149.0977  141.3993  158.0148 H   0  0  0  0  0  0  0  0  0  0  0  0
  149.9258  140.2746  159.1005 H   0  0  0  0  0  0  0  0  0  0  0  0
  150.1603  141.9562  155.7801 H   0  0  0  0  0  0  0  0  0  0  0  0
  151.8856  141.8179  155.5306 H   0  0  0  0  0  0  0  0  0  0  0  0
  149.9649  139.9830  154.6418 H   0  0  0  0  0  0  0  0  0  0  0  0
  150.5041  138.1446  153.5495 H   0  0  0  0  0  0  0  0  0  0  0  0
  152.1825  137.6277  153.5389 H   0  0  0  0  0  0  0  0  0  0  0  0
  149.0759  136.0989  154.3705 H   0  0  0  0  0  0  0  0  0  0  0  0
  152.4250  140.9929  159.7896 H   0  0  0  0  0  0  0  0  0  0  0  0
  150.9831  141.9431  160.0447 H   0  0  0  0  0  0  0  0  0  0  0  0
  152.7664  142.2176  157.7397 H   0  0  0  0  0  0  0  0  0  0  0  0
  1  2  1  0  0  0  0
  1 20  1  0  0  0  0
  1 21  1  0  0  0  0
  1 22  1  0  0  0  0
  2 19  1  0  0  0  0
  2  3  1  0  0  0  0
  2 23  1  0  0  0  0
  3  4  1  0  0  0  0
  3 24  1  0  0  0  0
  3 25  1  0  0  0  0
  4  5  1  0  0  0  0
  4 26  1  0  0  0  0
  4 27  1  0  0  0  0
  5  6  1  0  0  0  0
  5 28  1  0  0  0  0
  5 29  1  0  0  0  0
  6  7  1  0  0  0  0
  6 19  1  0  0  0  0
  6 42  1  0  0  0  0
  7  8  1  0  0  0  0
  7  9  1  0  0  0  0
  7 30  1  0  0  0  0
  8 31  1  0  0  0  0
  8 32  1  0  0  0  0
  8 33  1  0  0  0  0
  9 10  1  0  0  0  0
  9 34  1  0  0  0  0
  9 35  1  0  0  0  0
 10 11  1  0  0  0  0
 10 36  1  0  0  0  0
 11 12  2  0  0  0  0
 11 13  1  0  0  0  0
 13 14  1  0  0  0  0
 13 37  1  0  0  0  0
 13 38  1  0  0  0  0
 14 18  1  0  0  0  0
 14 15  1  0  0  0  0
 15 16  2  0  0  0  0
 15 39  1  0  0  0  0
 16 17  1  0  0  0  0
 17 18  2  0  0  0  0
 19 40  1  0  0  0  0
 19 41  1  0  0  0  0
M  CHG  1   6   1
M  END
> <s_m_source_file>
AV-unprocessed.smi

> <i_m_source_file_index>
2095

> <i_lp_mmshare_version>
43012

> <i_f3d_flags>
0

> <s_epik_input>
W0NIM11bQ0BASF0xW0NIMl1bQ0gyXVtDSDJdTihbQ0gyXTEpW0NASF0oW0NIM10pW0NIMl1bTkhdQyg9TylbQ0gyXW4yW2NIXW5ubjI=

> <s_epik_cmdline>
J2VwaWtfcHl0aG9uJywgJy1waCcsICc3LjAnLCAnLXRuJywgJzgnLCAnLW1hJywgJzIwMCcsICctbWV0YWxfYmluZGluZycsICctaW1hZScsICc8aW5maWxlLm1hZT4nLCAnLW9tYWUnLCAnPG91dGZpbGUubWFlPic=

> <r_lp_tautomer_probability>
1

> <r_epik_Ionization_Penalty>
0.00268321

> <r_epik_Ionization_Penalty_Charging>
0.00267875

> <r_epik_Ionization_Penalty_Neutral>
4.46125e-06

> <r_epik_State_Penalty>
0.00186642

> <r_epik_Charging_Adjusted_Penalty>
0.00454517

> <i_epik_Tot_Q>
1

> <i_epik_Tot_abs_Q>
1

> <r_epik_Metal_State_Penalty>
-0

> <b_epik_Metal_Only>
0

> <s_lp_Force_Field>
OPLS_2005

> <r_lp_Energy>
25.5327

> <b_lp_Chiralities_Consistent>
1

> <s_lp_Variant>
AV-unprocessed.smi:2095-5

> <Gold.Version>
5.8.1

> <Gold.Id.Protein>
6NUR|6NUR_protein|mol2

> <Gold.PLP.Fitness>
49.4517

> <Gold.PLP.PLP>
-41.2369

> <Gold.PLP.part.hbond>
-2.0000

> <Gold.PLP.part.metal>
0.0000

> <Gold.PLP.part.buried>
-6.0783

> <Gold.PLP.part.nonpolar>
-33.8666

> <Gold.PLP.part.repulsive>
1.2373

> <Gold.PLP.ligand.clash>
0.0000

> <Gold.PLP.ligand.torsion>
0.4229

> <Gold.PLP.Chemscore.Hbond>
2.0000

> <Gold.PLP.Chemscore.CHOScore>
0.9991

> <Gold.PLP.Chemscore.Metal>
0.0000

> <Gold.Chemscore.Hbonds>
donor molecule, donor type, donor heavy atom, donor atom, acceptor molecule, acceptor atom, score
      P1  H  7997  8008       L1    12  1.00
      P1  H 10752 10765       L1    18  0.98
      L1  C    15    39       P1  7948  0.98

> <Gold.PLP.Chemscore.Internal.Correction>
0.0635

> <Gold.Rescore>
     Score         DG    S(hbond)    S(metal)    S(lipo)     H(rot)  DE(clash)    DE(int)     intcor
     13.49     -15.65       1.74        0.00      95.14       2.64       0.13       2.03       ----

> <Gold.Chemscore.Fitness>
13.4863

> <Gold.Chemscore.DG>
-15.6466

> <Gold.Chemscore.ZeroCoef>
-5.4800

> <Gold.Chemscore.Hbond>
1.7375

> <Gold.Chemscore.Metal>
0.0000

> <Gold.Chemscore.Lipo>
95.1443

> <Gold.Chemscore.Internal_Hbond>
0.0000

> <Gold.Chemscore.DEClash>
0.1343

> <Gold.Chemscore.DEInternal>
2.0261

> <Gold.Chemscore.Rot>
2.6439

> <Gold.Chemscore.Internal.Correction>
   9.000000E+99

> <Gold.Chemscore.Hbonds>
donor molecule, donor type, donor heavy atom, donor atom, acceptor molecule, acceptor atom, score
      P1  H  7997  8008       L1    12  0.97
      P1  H 10752 10765       L1    18  0.20

> <Gold.Chemscore.Hbond.Weighted>
-5.8032

> <Gold.Chemscore.Metal.Weighted>
-0.0000

> <Gold.Chemscore.Lipo.Weighted>
-11.1319

> <Gold.Chemscore.Internal_Hbond.Weighted>
0.0000

> <Gold.Chemscore.DEClash.Weighted>
0.1343

> <Gold.Chemscore.DEInternal.Weighted>
2.0261

> <Gold.Chemscore.Rot.Weighted>
6.7685

> <Gold.Chemscore.Internal.Correction.Weighted>
   9.000000E+99

> <Gold.Protein.RotatedTorsions>
[ 6907 6896 6895 6894 ] final -106.28 input  -60.11 | X-H torsion
[ 7974 7965 7964 7962 ] final -173.65 input  175.53 | X-H torsion
[ 8008 7997 7996 7995 ] final  -46.32 input   59.86 | X-H torsion
[ 10167 10162 10161 10158 ] final   95.67 input  -65.29 | X-H torsion
[ 10718 10713 10712 10709 ] final   61.56 input   66.30 | X-H torsion
[ 10763 10752 10751 10750 ] final -135.65 input  -60.55 | X-H torsion
[ 11005 11000 10999 10996 ] final   -7.64 input  -57.11 | X-H torsion

> <Gold.Protein.ActiveResidues>
 VAL166  LYS551  ARG553  GLY616  TRP617  ASP618  TYR619  PRO620  LYS621  CYS622 
 ASP623  PHE694  ASN695  SER759  ASP760  ASP761  ALA762  ILE779  LEU786  VAL792 
 PHE793  MET794  SER795  GLU796  ALA797  LYS798  CYS799  TRP800  GLU811  SER814 

> <Gold.Protein.RotatedAtoms>
  150.7380  134.0000  159.3634 H   0  0  0  0  0  0  0  0  0  0  0  0  # atno 6907 bound_to 6896
  151.7954  135.0722  160.0402 H   0  0  0  0  0  0  0  0  0  0  0  0  # atno 6908 bound_to 6896
  152.3178  133.5785  159.5760 H   0  0  0  0  0  0  0  0  0  0  0  0  # atno 6909 bound_to 6896
  144.7136  140.1590  143.6378 H   0  0  0  0  0  0  0  0  0  0  0  0  # atno 7974 bound_to 7965
  154.4006  140.1374  156.3992 H   0  0  0  0  0  0  0  0  0  0  0  0  # atno 8008 bound_to 7997
  155.7840  140.3480  155.5292 H   0  0  0  0  0  0  0  0  0  0  0  0  # atno 8009 bound_to 7997
  155.8645  140.0962  157.1582 H   0  0  0  0  0  0  0  0  0  0  0  0  # atno 8010 bound_to 7997
  139.7966  144.6831  150.9821 H   0  0  0  0  0  0  0  0  0  0  0  0  # atno 10167 bound_to 10162
  157.5837  130.9001  149.9477 H   0  0  0  0  0  0  0  0  0  0  0  0  # atno 10718 bound_to 10713
  154.8699  135.3697  154.4933 H   0  0  0  0  0  0  0  0  0  0  0  0  # atno 10763 bound_to 10752
  153.5579  135.7023  153.5566 H   0  0  0  0  0  0  0  0  0  0  0  0  # atno 10764 bound_to 10752
  153.3655  135.4035  155.1714 H   0  0  0  0  0  0  0  0  0  0  0  0  # atno 10765 bound_to 10752
  140.7149  133.8877  155.8778 H   0  0  0  0  0  0  0  0  0  0  0  0  # atno 11005 bound_to 11000
  145.9048  139.2451  143.1472 LP  0  0  0  0  0  0  0  0  0  0  0  0  # atno 17320 bound_to 7965
  145.9775  140.8710  143.0131 LP  0  0  0  0  0  0  0  0  0  0  0  0  # atno 17321 bound_to 7965
  140.7820  143.4325  151.0673 LP  0  0  0  0  0  0  0  0  0  0  0  0  # atno 17342 bound_to 10162
  139.7999  143.8099  152.3161 LP  0  0  0  0  0  0  0  0  0  0  0  0  # atno 17343 bound_to 10162
  156.0884  130.3665  150.0442 LP  0  0  0  0  0  0  0  0  0  0  0  0  # atno 17370 bound_to 10713
  156.8577  130.9481  151.3620 LP  0  0  0  0  0  0  0  0  0  0  0  0  # atno 17371 bound_to 10713
  141.0053  134.1095  157.4277 LP  0  0  0  0  0  0  0  0  0  0  0  0  # atno 17394 bound_to 11000
  139.8862  135.0079  156.6485 LP  0  0  0  0  0  0  0  0  0  0  0  0  # atno 17395 bound_to 11000

$$$$
