AV-unprocessed.smi:1770|AV-procd|sdf|7156|dock3
  -GOLD-   22720 8393D 1   1.00000     0.00000
 Structure written by MMmdl.
 38 39  0  0  0  0  0  0  0  0  2 V2000
  153.2411  137.4345  160.5449 C   0  0  0  0  0  0  0  0  0  0  0  0
  152.6782  137.0418  159.3059 O   0  0  0  0  0  0  0  0  0  0  0  0
  151.6544  137.9245  158.8689 C   0  0  0  0  0  0  0  0  0  0  0  0
  152.2515  139.3143  158.6507 C   0  0  0  0  0  0  0  0  0  0  0  0
  153.4731  139.4605  158.6600 O   0  0  0  0  0  0  0  0  0  0  0  0
  151.3662  140.3076  158.4567 N   0  0  0  0  0  0  0  0  0  0  0  0
  151.6224  141.6999  158.3184 C   0  0  0  0  0  0  0  0  0  0  0  0
  152.6238  142.3605  159.0738 C   0  0  0  0  0  0  0  0  0  0  0  0
  152.8693  143.7309  158.8599 C   0  0  0  0  0  0  0  0  0  0  0  0
  152.1194  144.4161  157.8867 C   0  0  0  0  0  0  0  0  0  0  0  0
  151.1821  143.7552  157.1751 N   0  3  0  0  0  0  0  0  0  0  0  0
  150.9004  142.4394  157.3430 C   0  0  0  0  0  0  0  0  0  0  0  0
  149.8878  141.8588  156.5536 N   0  0  0  0  0  0  0  0  0  0  0  0
  148.6318  141.5191  157.2213 C   0  0  0  0  0  0  0  0  0  0  0  0
  147.5247  141.2471  156.1879 C   0  0  0  0  0  0  0  0  0  0  0  0
  147.9652  140.1780  155.1745 C   0  0  0  0  0  0  0  0  0  0  0  0
  149.3051  140.5704  154.5305 C   0  0  0  0  0  0  0  0  0  0  0  0
  150.3684  140.8554  155.6045 C   0  0  0  0  0  0  0  0  0  0  0  0
  154.0195  136.7279  160.8331 H   0  0  0  0  0  0  0  0  0  0  0  0
  152.4878  137.4470  161.3338 H   0  0  0  0  0  0  0  0  0  0  0  0
  153.6933  138.4249  160.4762 H   0  0  0  0  0  0  0  0  0  0  0  0
  151.2134  137.5623  157.9384 H   0  0  0  0  0  0  0  0  0  0  0  0
  150.8600  137.9902  159.6141 H   0  0  0  0  0  0  0  0  0  0  0  0
  150.3946  140.0496  158.5545 H   0  0  0  0  0  0  0  0  0  0  0  0
  153.2205  141.8323  159.8019 H   0  0  0  0  0  0  0  0  0  0  0  0
  153.6291  144.2461  159.4292 H   0  0  0  0  0  0  0  0  0  0  0  0
  152.2420  145.4642  157.6544 H   0  0  0  0  0  0  0  0  0  0  0  0
  148.7809  140.6365  157.8453 H   0  0  0  0  0  0  0  0  0  0  0  0
  148.3278  142.3336  157.8800 H   0  0  0  0  0  0  0  0  0  0  0  0
  146.6111  140.9318  156.6927 H   0  0  0  0  0  0  0  0  0  0  0  0
  147.2843  142.1711  155.6604 H   0  0  0  0  0  0  0  0  0  0  0  0
  148.0682  139.2161  155.6784 H   0  0  0  0  0  0  0  0  0  0  0  0
  147.2013  140.0483  154.4073 H   0  0  0  0  0  0  0  0  0  0  0  0
  149.6488  139.7766  153.8667 H   0  0  0  0  0  0  0  0  0  0  0  0
  149.1689  141.4565  153.9088 H   0  0  0  0  0  0  0  0  0  0  0  0
  151.2947  141.1739  155.1266 H   0  0  0  0  0  0  0  0  0  0  0  0
  150.5994  139.9397  156.1504 H   0  0  0  0  0  0  0  0  0  0  0  0
  150.6529  144.2769  156.4762 H   0  0  0  0  0  0  0  0  0  0  0  0
  1  2  1  0  0  0  0
  1 19  1  0  0  0  0
  1 20  1  0  0  0  0
  1 21  1  0  0  0  0
  2  3  1  0  0  0  0
  3  4  1  0  0  0  0
  3 22  1  0  0  0  0
  3 23  1  0  0  0  0
  4  5  2  0  0  0  0
  4  6  1  0  0  0  0
  6  7  1  0  0  0  0
  6 24  1  0  0  0  0
  7 12  1  0  0  0  0
  7  8  2  0  0  0  0
  8  9  1  0  0  0  0
  8 25  1  0  0  0  0
  9 10  2  0  0  0  0
  9 26  1  0  0  0  0
 10 11  1  0  0  0  0
 10 27  1  0  0  0  0
 11 12  2  0  0  0  0
 11 38  1  0  0  0  0
 12 13  1  0  0  0  0
 13 18  1  0  0  0  0
 13 14  1  0  0  0  0
 14 15  1  0  0  0  0
 14 28  1  0  0  0  0
 14 29  1  0  0  0  0
 15 16  1  0  0  0  0
 15 30  1  0  0  0  0
 15 31  1  0  0  0  0
 16 17  1  0  0  0  0
 16 32  1  0  0  0  0
 16 33  1  0  0  0  0
 17 18  1  0  0  0  0
 17 34  1  0  0  0  0
 17 35  1  0  0  0  0
 18 36  1  0  0  0  0
 18 37  1  0  0  0  0
M  CHG  1  11   1
M  END
> <s_m_source_file>
AV-unprocessed.smi

> <i_m_source_file_index>
1770

> <i_lp_mmshare_version>
43012

> <i_f3d_flags>
0

> <s_epik_input>
W0NIM11PW0NIMl1DKD1PKVtOSF1jMVtjSF1bY0hdW2NIXW5jMU4yW0NIMl1bQ0gyXVtDSDJdW0NIMl1bQ0gyXTI=

> <s_epik_cmdline>
J2VwaWtfcHl0aG9uJywgJy1waCcsICc3LjAnLCAnLXRuJywgJzgnLCAnLW1hJywgJzIwMCcsICctbWV0YWxfYmluZGluZycsICctaW1hZScsICc8aW5maWxlLm1hZT4nLCAnLW9tYWUnLCAnPG91dGZpbGUubWFlPic=

> <r_lp_tautomer_probability>
0.999994

> <r_epik_Ionization_Penalty>
1.86196

> <r_epik_Ionization_Penalty_Charging>
1.86195

> <r_epik_Ionization_Penalty_Neutral>
2.94331e-06

> <r_epik_State_Penalty>
1.98028

> <r_epik_Charging_Adjusted_Penalty>
3.84223

> <i_epik_Tot_Q>
1

> <i_epik_Tot_abs_Q>
1

> <r_epik_Metal_State_Penalty>
2.00833

> <b_epik_Metal_Only>
0

> <s_lp_Force_Field>
OPLS_2005

> <r_lp_Energy>
28.9806

> <b_lp_Chiralities_Consistent>
1

> <s_lp_Variant>
AV-unprocessed.smi:1770-2

> <Gold.Version>
5.8.1

> <Gold.Id.Protein>
6NUR|6NUR_protein|mol2

> <Gold.PLP.Fitness>
43.7040

> <Gold.PLP.PLP>
-34.2251

> <Gold.PLP.part.hbond>
-2.3656

> <Gold.PLP.part.metal>
0.0000

> <Gold.PLP.part.buried>
-5.7540

> <Gold.PLP.part.nonpolar>
-27.4671

> <Gold.PLP.part.repulsive>
0.2506

> <Gold.PLP.ligand.clash>
0.0000

> <Gold.PLP.ligand.torsion>
0.5825

> <Gold.PLP.Chemscore.Hbond>
3.4388

> <Gold.PLP.Chemscore.CHOScore>
0.0000

> <Gold.PLP.Chemscore.Metal>
0.0000

> <Gold.Chemscore.Hbonds>
donor molecule, donor type, donor heavy atom, donor atom, acceptor molecule, acceptor atom, score
      L1  H    11    38       P1  8028  1.98
      P1  H  6896  6908       L1     2  0.43
      P1  H  7997  8008       L1     5  0.98

> <Gold.PLP.Chemscore.Internal.Correction>
0.3276

> <Gold.Rescore>
     Score         DG    S(hbond)    S(metal)    S(lipo)     H(rot)  DE(clash)    DE(int)     intcor
     16.56     -17.95       1.97        0.00      81.42       1.42       0.00       1.39       ----

> <Gold.Chemscore.Fitness>
16.5598

> <Gold.Chemscore.DG>
-17.9478

> <Gold.Chemscore.ZeroCoef>
-5.4800

> <Gold.Chemscore.Hbond>
1.9692

> <Gold.Chemscore.Metal>
0.0000

> <Gold.Chemscore.Lipo>
81.4200

> <Gold.Chemscore.Internal_Hbond>
0.0000

> <Gold.Chemscore.DEClash>
0.0000

> <Gold.Chemscore.DEInternal>
1.3880

> <Gold.Chemscore.Rot>
1.4201

> <Gold.Chemscore.Internal.Correction>
   9.000000E+99

> <Gold.Chemscore.Hbonds>
donor molecule, donor type, donor heavy atom, donor atom, acceptor molecule, acceptor atom, score
      L1  H    11    38       P1  8028  0.93
      P1  H  6896  6908       L1     2  0.05
      P1  H  7997  8008       L1     5  0.91

> <Gold.Chemscore.Hbond.Weighted>
-6.5771

> <Gold.Chemscore.Metal.Weighted>
-0.0000

> <Gold.Chemscore.Lipo.Weighted>
-9.5261

> <Gold.Chemscore.Internal_Hbond.Weighted>
0.0000

> <Gold.Chemscore.DEClash.Weighted>
0.0000

> <Gold.Chemscore.DEInternal.Weighted>
1.3880

> <Gold.Chemscore.Rot.Weighted>
3.6354

> <Gold.Chemscore.Internal.Correction.Weighted>
   9.000000E+99

> <Gold.Protein.RotatedTorsions>
[ 6907 6896 6895 6894 ] final  -99.99 input  -60.11 | X-H torsion
[ 7974 7965 7964 7962 ] final  -87.34 input  175.53 | X-H torsion
[ 8008 7997 7996 7995 ] final  -99.38 input   59.86 | X-H torsion
[ 10167 10162 10161 10158 ] final  167.24 input  -65.29 | X-H torsion
[ 10718 10713 10712 10709 ] final   -0.10 input   66.30 | X-H torsion
[ 10763 10752 10751 10750 ] final -133.88 input  -60.55 | X-H torsion
[ 11005 11000 10999 10996 ] final   13.25 input  -57.11 | X-H torsion

> <Gold.Protein.ActiveResidues>
 VAL166  LYS551  ARG553  GLY616  TRP617  ASP618  TYR619  PRO620  LYS621  CYS622 
 ASP623  PHE694  ASN695  SER759  ASP760  ASP761  ALA762  ILE779  LEU786  VAL792 
 PHE793  MET794  SER795  GLU796  ALA797  LYS798  CYS799  TRP800  GLU811  SER814 

> <Gold.Protein.RotatedAtoms>
  150.7099  134.0956  159.3947 H   0  0  0  0  0  0  0  0  0  0  0  0  # atno 6907 bound_to 6896
  151.8942  135.0402  160.0510 H   0  0  0  0  0  0  0  0  0  0  0  0  # atno 6908 bound_to 6896
  152.2467  133.5145  159.5338 H   0  0  0  0  0  0  0  0  0  0  0  0  # atno 6909 bound_to 6896
  145.4678  140.9560  143.1934 H   0  0  0  0  0  0  0  0  0  0  0  0  # atno 7974 bound_to 7965
  154.8140  140.0448  157.1363 H   0  0  0  0  0  0  0  0  0  0  0  0  # atno 8008 bound_to 7997
  154.9335  140.3043  155.5136 H   0  0  0  0  0  0  0  0  0  0  0  0  # atno 8009 bound_to 7997
  156.2974  140.2318  156.4398 H   0  0  0  0  0  0  0  0  0  0  0  0  # atno 8010 bound_to 7997
  139.4941  144.3942  151.9482 H   0  0  0  0  0  0  0  0  0  0  0  0  # atno 10167 bound_to 10162
  156.8253  130.5470  149.5692 H   0  0  0  0  0  0  0  0  0  0  0  0  # atno 10718 bound_to 10713
  154.8727  135.3752  154.4645 H   0  0  0  0  0  0  0  0  0  0  0  0  # atno 10763 bound_to 10752
  153.5311  135.7028  153.5688 H   0  0  0  0  0  0  0  0  0  0  0  0  # atno 10764 bound_to 10752
  153.3892  135.3976  155.1876 H   0  0  0  0  0  0  0  0  0  0  0  0  # atno 10765 bound_to 10752
  140.4828  134.0918  155.7754 H   0  0  0  0  0  0  0  0  0  0  0  0  # atno 11005 bound_to 11000
  144.7964  139.6227  143.7091 LP  0  0  0  0  0  0  0  0  0  0  0  0  # atno 17320 bound_to 7965
  146.2414  139.6009  142.9489 LP  0  0  0  0  0  0  0  0  0  0  0  0  # atno 17321 bound_to 7965
  140.3380  144.3237  150.5973 LP  0  0  0  0  0  0  0  0  0  0  0  0  # atno 17342 bound_to 10162
  140.5589  143.2195  151.7799 LP  0  0  0  0  0  0  0  0  0  0  0  0  # atno 17343 bound_to 10162
  156.0965  130.5936  150.9822 LP  0  0  0  0  0  0  0  0  0  0  0  0  # atno 17370 bound_to 10713
  157.6435  131.0907  150.8202 LP  0  0  0  0  0  0  0  0  0  0  0  0  # atno 17371 bound_to 10713
  141.1523  133.8947  157.2067 LP  0  0  0  0  0  0  0  0  0  0  0  0  # atno 17394 bound_to 11000
  139.9816  135.0096  156.9763 LP  0  0  0  0  0  0  0  0  0  0  0  0  # atno 17395 bound_to 11000

$$$$
