AV-unprocessed.smi:1396|AV-procd|sdf|5674|dock1
  -GOLD-   22720 5293D 1   1.00000     0.00000
 Structure written by MMmdl.
 46 47  0  0  0  0  0  0  0  0  1 V2000
  148.8506  126.9400  150.4163 C   0  0  0  0  0  0  0  0  0  0  0  0
  147.8815  127.9458  150.8228 N   0  0  0  0  0  0  0  0  0  0  0  0
  146.9148  127.7400  151.7290 C   0  0  0  0  0  0  0  0  0  0  0  0
  146.7570  126.6718  152.3194 O   0  0  0  0  0  0  0  0  0  0  0  0
  145.9832  128.9228  152.0194 C   0  0  0  0  0  0  0  0  0  0  0  0
  146.6713  130.2157  152.2431 N   0  0  0  0  0  0  0  0  0  0  0  0
  147.1000  130.2979  153.6435 C   0  0  0  0  0  0  0  0  0  0  0  0
  147.9334  131.5690  153.8819 C   0  0  0  0  0  0  0  0  0  0  0  0
  147.1362  132.8284  153.5161 C   0  0  0  0  0  0  0  0  0  0  0  0
  147.9846  134.0092  153.6436 N   0  0  0  0  0  0  0  0  0  0  0  0
  148.5252  134.4494  154.7884 C   0  0  0  0  0  0  0  0  0  0  0  0
  148.3797  133.8808  155.8702 O   0  0  0  0  0  0  0  0  0  0  0  0
  149.2473  135.5649  154.5877 N   0  0  0  0  0  0  0  0  0  0  0  0
  149.9051  136.3768  155.5508 C   0  0  0  0  0  0  0  0  0  0  0  0
  150.5298  137.5584  155.1042 C   0  0  0  0  0  0  0  0  0  0  0  0
  151.1663  138.3952  156.0401 C   0  0  0  0  0  0  0  0  0  0  0  0
  151.1508  138.0276  157.4002 C   0  0  0  0  0  0  0  0  0  0  0  0
  151.7732  138.8527  158.3146 O   0  0  0  0  0  0  0  0  0  0  0  0
  151.5138  138.6441  159.6987 C   0  0  0  0  0  0  0  0  0  0  0  0
  150.5428  136.8991  157.8420 N   0  0  0  0  0  0  0  0  0  0  0  0
  149.9356  136.0996  156.9394 C   0  0  0  0  0  0  0  0  0  0  0  0
  146.6079  132.6824  152.0793 C   0  0  0  0  0  0  0  0  0  0  0  0
  145.8258  131.3695  151.9024 C   0  0  0  0  0  0  0  0  0  0  0  0
  149.5401  127.3614  149.6850 H   0  0  0  0  0  0  0  0  0  0  0  0
  148.3517  126.0835  149.9609 H   0  0  0  0  0  0  0  0  0  0  0  0
  149.4316  126.5913  151.2711 H   0  0  0  0  0  0  0  0  0  0  0  0
  147.9398  128.8529  150.3825 H   0  0  0  0  0  0  0  0  0  0  0  0
  145.2714  129.0229  151.1977 H   0  0  0  0  0  0  0  0  0  0  0  0
  145.3992  128.6641  152.9039 H   0  0  0  0  0  0  0  0  0  0  0  0
  146.2345  130.2836  154.3085 H   0  0  0  0  0  0  0  0  0  0  0  0
  147.7069  129.4276  153.8964 H   0  0  0  0  0  0  0  0  0  0  0  0
  148.2450  131.6150  154.9261 H   0  0  0  0  0  0  0  0  0  0  0  0
  148.8474  131.5189  153.2877 H   0  0  0  0  0  0  0  0  0  0  0  0
  146.2920  132.9150  154.2027 H   0  0  0  0  0  0  0  0  0  0  0  0
  148.1608  134.5346  152.7998 H   0  0  0  0  0  0  0  0  0  0  0  0
  149.3585  135.8562  153.6277 H   0  0  0  0  0  0  0  0  0  0  0  0
  150.5245  137.8229  154.0568 H   0  0  0  0  0  0  0  0  0  0  0  0
  151.6549  139.3040  155.7211 H   0  0  0  0  0  0  0  0  0  0  0  0
  152.0715  139.3747  160.2845 H   0  0  0  0  0  0  0  0  0  0  0  0
  151.8318  137.6507  160.0190 H   0  0  0  0  0  0  0  0  0  0  0  0
  150.4555  138.7733  159.9305 H   0  0  0  0  0  0  0  0  0  0  0  0
  149.4486  135.2352  157.3624 H   0  0  0  0  0  0  0  0  0  0  0  0
  145.9644  133.5258  151.8263 H   0  0  0  0  0  0  0  0  0  0  0  0
  147.4387  132.7058  151.3721 H   0  0  0  0  0  0  0  0  0  0  0  0
  145.4898  131.3168  150.8671 H   0  0  0  0  0  0  0  0  0  0  0  0
  144.9292  131.3761  152.5247 H   0  0  0  0  0  0  0  0  0  0  0  0
  1  2  1  0  0  0  0
  1 24  1  0  0  0  0
  1 25  1  0  0  0  0
  1 26  1  0  0  0  0
  2  3  1  0  0  0  0
  2 27  1  0  0  0  0
  3  4  2  0  0  0  0
  3  5  1  0  0  0  0
  5  6  1  0  0  0  0
  5 28  1  0  0  0  0
  5 29  1  0  0  0  0
  6 23  1  0  0  0  0
  6  7  1  0  0  0  0
  7  8  1  0  0  0  0
  7 30  1  0  0  0  0
  7 31  1  0  0  0  0
  8  9  1  0  0  0  0
  8 32  1  0  0  0  0
  8 33  1  0  0  0  0
  9 10  1  0  0  0  0
  9 22  1  0  0  0  0
  9 34  1  0  0  0  0
 10 11  1  0  0  0  0
 10 35  1  0  0  0  0
 11 12  2  0  0  0  0
 11 13  1  0  0  0  0
 13 14  1  0  0  0  0
 13 36  1  0  0  0  0
 14 21  1  0  0  0  0
 14 15  2  0  0  0  0
 15 16  1  0  0  0  0
 15 37  1  0  0  0  0
 16 17  2  0  0  0  0
 16 38  1  0  0  0  0
 17 18  1  0  0  0  0
 17 20  1  0  0  0  0
 18 19  1  0  0  0  0
 19 39  1  0  0  0  0
 19 40  1  0  0  0  0
 19 41  1  0  0  0  0
 20 21  2  0  0  0  0
 21 42  1  0  0  0  0
 22 23  1  0  0  0  0
 22 43  1  0  0  0  0
 22 44  1  0  0  0  0
 23 45  1  0  0  0  0
 23 46  1  0  0  0  0
M  END
> <s_m_source_file>
AV-unprocessed.smi

> <i_m_source_file_index>
1396

> <i_lp_mmshare_version>
43012

> <i_f3d_flags>
0

> <s_epik_input>
W0NIM11bTkhdQyg9TylbQ0gyXU4xW0NIMl1bQ0gyXVtDSF0oW0NIMl1bQ0gyXTEpW05IXUMoPU8pW05IXWMyW2NIXVtjSF1jKE9bQ0gzXSluW2NIXTI=

> <s_epik_cmdline>
J2VwaWtfcHl0aG9uJywgJy1waCcsICc3LjAnLCAnLXRuJywgJzgnLCAnLW1hJywgJzIwMCcsICctbWV0YWxfYmluZGluZycsICctaW1hZScsICc8aW5maWxlLm1hZT4nLCAnLW9tYWUnLCAnPG91dGZpbGUubWFlPic=

> <r_lp_tautomer_probability>
1

> <r_epik_Ionization_Penalty>
0.16483

> <r_epik_Ionization_Penalty_Charging>
0

> <r_epik_Ionization_Penalty_Neutral>
0.16483

> <r_epik_State_Penalty>
0.154069

> <r_epik_Charging_Adjusted_Penalty>
0.154069

> <i_epik_Tot_Q>
0

> <i_epik_Tot_abs_Q>
0

> <r_epik_Metal_State_Penalty>
0.158584

> <b_epik_Metal_Only>
0

> <s_lp_Force_Field>
OPLS_2005

> <r_lp_Energy>
15.765

> <b_lp_Chiralities_Consistent>
1

> <s_lp_Variant>
AV-unprocessed.smi:1396-1

> <Gold.Version>
5.8.1

> <Gold.Id.Protein>
6NUR|6NUR_protein|mol2

> <Gold.PLP.Fitness>
46.4290

> <Gold.PLP.PLP>
-36.9208

> <Gold.PLP.part.hbond>
-5.5099

> <Gold.PLP.part.metal>
0.0000

> <Gold.PLP.part.buried>
-3.4411

> <Gold.PLP.part.nonpolar>
-28.2111

> <Gold.PLP.part.repulsive>
0.7331

> <Gold.PLP.ligand.clash>
0.0000

> <Gold.PLP.ligand.torsion>
0.6040

> <Gold.PLP.Chemscore.Hbond>
3.5300

> <Gold.PLP.Chemscore.CHOScore>
0.0000

> <Gold.PLP.Chemscore.Metal>
0.0000

> <Gold.Chemscore.Hbonds>
donor molecule, donor type, donor heavy atom, donor atom, acceptor molecule, acceptor atom, score
      L1  H     2    27       P1 10747  0.47
      L1  H    10    35       P1  7948  0.94
      L1  H    13    36       P1  7948  1.00

> <Gold.PLP.Chemscore.Internal.Correction>
0.1262

> <Gold.Rescore>
     Score         DG    S(hbond)    S(metal)    S(lipo)     H(rot)  DE(clash)    DE(int)     intcor
     15.92     -17.57       2.71        0.00      68.97       1.96       0.00       1.64       ----

> <Gold.Chemscore.Fitness>
15.9238

> <Gold.Chemscore.DG>
-17.5686

> <Gold.Chemscore.ZeroCoef>
-5.4800

> <Gold.Chemscore.Hbond>
2.7090

> <Gold.Chemscore.Metal>
0.0000

> <Gold.Chemscore.Lipo>
68.9698

> <Gold.Chemscore.Internal_Hbond>
0.0000

> <Gold.Chemscore.DEClash>
0.0000

> <Gold.Chemscore.DEInternal>
1.6448

> <Gold.Chemscore.Rot>
1.9645

> <Gold.Chemscore.Internal.Correction>
   9.000000E+99

> <Gold.Chemscore.Hbonds>
donor molecule, donor type, donor heavy atom, donor atom, acceptor molecule, acceptor atom, score
      L1  H     2    27       P1 10747  0.08
      L1  H    10    35       P1  7948  0.43
      L1  H    13    36       P1  7948  0.55

> <Gold.Chemscore.Hbond.Weighted>
-9.0481

> <Gold.Chemscore.Metal.Weighted>
-0.0000

> <Gold.Chemscore.Lipo.Weighted>
-8.0695

> <Gold.Chemscore.Internal_Hbond.Weighted>
0.0000

> <Gold.Chemscore.DEClash.Weighted>
0.0000

> <Gold.Chemscore.DEInternal.Weighted>
1.6448

> <Gold.Chemscore.Rot.Weighted>
5.0290

> <Gold.Chemscore.Internal.Correction.Weighted>
   9.000000E+99

> <Gold.Protein.RotatedTorsions>
[ 6907 6896 6895 6894 ] final   21.06 input  -60.11 | X-H torsion
[ 7974 7965 7964 7962 ] final  114.67 input  175.53 | X-H torsion
[ 8008 7997 7996 7995 ] final   29.05 input   59.86 | X-H torsion
[ 10167 10162 10161 10158 ] final  -20.61 input  -65.29 | X-H torsion
[ 10718 10713 10712 10709 ] final   93.94 input   66.30 | X-H torsion
[ 10763 10752 10751 10750 ] final -127.92 input  -60.55 | X-H torsion
[ 11005 11000 10999 10996 ] final   -4.27 input  -57.11 | X-H torsion

> <Gold.Protein.ActiveResidues>
 VAL166  LYS551  ARG553  GLY616  TRP617  ASP618  TYR619  PRO620  LYS621  CYS622 
 ASP623  PHE694  ASN695  SER759  ASP760  ASP761  ALA762  ILE779  LEU786  VAL792 
 PHE793  MET794  SER795  GLU796  ALA797  LYS798  CYS799  TRP800  GLU811  SER814 

> <Gold.Protein.RotatedAtoms>
  151.9060  135.0359  160.0510 H   0  0  0  0  0  0  0  0  0  0  0  0  # atno 6907 bound_to 6896
  152.2319  133.5060  159.5229 H   0  0  0  0  0  0  0  0  0  0  0  0  # atno 6908 bound_to 6896
  150.7028  134.1121  159.4046 H   0  0  0  0  0  0  0  0  0  0  0  0  # atno 6909 bound_to 6896
  145.2015  139.2950  143.4316 H   0  0  0  0  0  0  0  0  0  0  0  0  # atno 7974 bound_to 7965
  155.0684  140.3197  155.4638 H   0  0  0  0  0  0  0  0  0  0  0  0  # atno 8008 bound_to 7997
  156.2796  140.2116  156.5756 H   0  0  0  0  0  0  0  0  0  0  0  0  # atno 8009 bound_to 7997
  154.7075  140.0501  157.0505 H   0  0  0  0  0  0  0  0  0  0  0  0  # atno 8010 bound_to 7997
  140.7277  143.4706  151.0253 H   0  0  0  0  0  0  0  0  0  0  0  0  # atno 10167 bound_to 10162
  157.6951  131.0495  150.4110 H   0  0  0  0  0  0  0  0  0  0  0  0  # atno 10718 bound_to 10713
  154.8754  135.3946  154.3672 H   0  0  0  0  0  0  0  0  0  0  0  0  # atno 10763 bound_to 10752
  153.4436  135.7027  153.6158 H   0  0  0  0  0  0  0  0  0  0  0  0  # atno 10764 bound_to 10752
  153.4728  135.3786  155.2369 H   0  0  0  0  0  0  0  0  0  0  0  0  # atno 10765 bound_to 10752
  140.6784  133.9175  155.8539 H   0  0  0  0  0  0  0  0  0  0  0  0  # atno 11005 bound_to 11000
  146.3416  140.2261  142.8592 LP  0  0  0  0  0  0  0  0  0  0  0  0  # atno 17320 bound_to 7965
  144.9943  140.8575  143.5320 LP  0  0  0  0  0  0  0  0  0  0  0  0  # atno 17321 bound_to 7965
  139.8397  143.7580  152.3180 LP  0  0  0  0  0  0  0  0  0  0  0  0  # atno 17342 bound_to 10162
  139.7725  144.7472  151.0205 LP  0  0  0  0  0  0  0  0  0  0  0  0  # atno 17343 bound_to 10162
  156.4494  130.4008  149.6645 LP  0  0  0  0  0  0  0  0  0  0  0  0  # atno 17370 bound_to 10713
  156.3800  130.7574  151.2566 LP  0  0  0  0  0  0  0  0  0  0  0  0  # atno 17371 bound_to 10713
  141.0337  134.0720  157.3985 LP  0  0  0  0  0  0  0  0  0  0  0  0  # atno 17394 bound_to 11000
  139.8959  135.0143  156.7026 LP  0  0  0  0  0  0  0  0  0  0  0  0  # atno 17395 bound_to 11000

$$$$
