AV-unprocessed.smi:1990|AV-procd|sdf|8064|dock6
  -GOLD-   2272010273D 1   1.00000     0.00000
 Structure written by MMmdl.
 46 47  0  0  0  0  0  0  0  0  1 V2000
  150.3322  141.6870  155.7867 C   0  0  0  0  0  0  0  0  0  0  0  0
  150.7825  141.9331  157.2304 C   0  0  1  0  0  0  0  0  0  0  0  0
  151.7802  140.8645  157.7158 C   0  0  0  0  0  0  0  0  0  0  0  0
  152.2840  141.1956  159.0460 N   0  0  0  0  0  0  0  0  0  0  0  0
  152.9666  140.2008  159.7837 C   0  0  0  0  0  0  0  0  0  0  0  0
  153.9931  140.5156  160.7103 C   0  0  0  0  0  0  0  0  0  0  0  0
  154.6383  139.4759  161.4077 C   0  0  0  0  0  0  0  0  0  0  0  0
  154.2419  138.1397  161.1697 C   0  0  0  0  0  0  0  0  0  0  0  0
  154.8181  136.9989  161.7916 N   0  0  0  0  0  0  0  0  0  0  0  0
  154.8047  135.7139  161.3903 C   0  0  0  0  0  0  0  0  0  0  0  0
  154.2594  135.3073  160.3647 O   0  0  0  0  0  0  0  0  0  0  0  0
  155.5483  134.7281  162.3022 C   0  0  1  0  0  0  0  0  0  0  0  0
  157.0717  134.8147  162.1147 C   0  0  0  0  0  0  0  0  0  0  0  0
  155.1115  135.0469  164.0761 S   0  0  0  0  0  0  0  0  0  0  0  0
  154.3315  133.4641  164.6066 C   0  0  0  0  0  0  0  0  0  0  0  0
  156.3640  135.2158  164.8285 O   0  0  0  0  0  0  0  0  0  0  0  0
  154.0881  136.1019  164.1357 O   0  0  0  0  0  0  0  0  0  0  0  0
  153.2235  137.9240  160.2214 C   0  0  0  0  0  0  0  0  0  0  0  0
  152.6026  138.9166  159.5524 N   0  0  0  0  0  0  0  0  0  0  0  0
  152.7886  142.5636  159.1634 C   0  0  0  0  0  0  0  0  0  0  0  0
  151.7587  143.5742  158.6251 C   0  0  1  0  0  0  0  0  0  0  0  0
  152.3131  145.0026  158.6060 C   0  0  0  0  0  0  0  0  0  0  0  0
  151.3989  143.2154  157.2945 O   0  0  0  0  0  0  0  0  0  0  0  0
  149.8452  140.7167  155.6873 H   0  0  0  0  0  0  0  0  0  0  0  0
  151.1788  141.7093  155.0999 H   0  0  0  0  0  0  0  0  0  0  0  0
  149.6221  142.4495  155.4655 H   0  0  0  0  0  0  0  0  0  0  0  0
  149.8997  141.9279  157.8722 H   0  0  0  0  0  0  0  0  0  0  0  0
  151.2738  139.8991  157.7327 H   0  0  0  0  0  0  0  0  0  0  0  0
  152.6202  140.7863  157.0244 H   0  0  0  0  0  0  0  0  0  0  0  0
  154.2986  141.5317  160.9083 H   0  0  0  0  0  0  0  0  0  0  0  0
  155.4271  139.7293  162.0980 H   0  0  0  0  0  0  0  0  0  0  0  0
  155.3563  137.1927  162.6237 H   0  0  0  0  0  0  0  0  0  0  0  0
  155.2285  133.7110  162.0722 H   0  0  0  0  0  0  0  0  0  0  0  0
  157.3524  134.6583  161.0726 H   0  0  0  0  0  0  0  0  0  0  0  0
  157.5793  134.0541  162.7081 H   0  0  0  0  0  0  0  0  0  0  0  0
  157.4598  135.7858  162.4253 H   0  0  0  0  0  0  0  0  0  0  0  0
  154.1136  133.5119  165.6735 H   0  0  0  0  0  0  0  0  0  0  0  0
  155.0138  132.6362  164.4155 H   0  0  0  0  0  0  0  0  0  0  0  0
  153.4010  133.3064  164.0620 H   0  0  0  0  0  0  0  0  0  0  0  0
  152.8909  136.9220  159.9921 H   0  0  0  0  0  0  0  0  0  0  0  0
  153.0176  142.8209  160.1976 H   0  0  0  0  0  0  0  0  0  0  0  0
  153.7208  142.6395  158.6024 H   0  0  0  0  0  0  0  0  0  0  0  0
  150.8669  143.5588  159.2541 H   0  0  0  0  0  0  0  0  0  0  0  0
  152.5913  145.3283  159.6086 H   0  0  0  0  0  0  0  0  0  0  0  0
  151.5713  145.7038  158.2230 H   0  0  0  0  0  0  0  0  0  0  0  0
  153.1977  145.0745  157.9726 H   0  0  0  0  0  0  0  0  0  0  0  0
  1  2  1  0  0  0  0
  1 24  1  0  0  0  0
  1 25  1  0  0  0  0
  1 26  1  0  0  0  0
  2 23  1  0  0  0  0
  2  3  1  0  0  0  0
  2 27  1  0  0  0  0
  3  4  1  0  0  0  0
  3 28  1  0  0  0  0
  3 29  1  0  0  0  0
  4  5  1  0  0  0  0
  4 20  1  0  0  0  0
  5 19  1  0  0  0  0
  5  6  2  0  0  0  0
  6  7  1  0  0  0  0
  6 30  1  0  0  0  0
  7  8  2  0  0  0  0
  7 31  1  0  0  0  0
  8  9  1  0  0  0  0
  8 18  1  0  0  0  0
  9 10  1  0  0  0  0
  9 32  1  0  0  0  0
 10 11  2  0  0  0  0
 10 12  1  0  0  0  0
 12 13  1  0  0  0  0
 12 14  1  0  0  0  0
 12 33  1  0  0  0  0
 13 34  1  0  0  0  0
 13 35  1  0  0  0  0
 13 36  1  0  0  0  0
 14 15  1  0  0  0  0
 14 16  2  0  0  0  0
 14 17  2  0  0  0  0
 15 37  1  0  0  0  0
 15 38  1  0  0  0  0
 15 39  1  0  0  0  0
 18 19  2  0  0  0  0
 18 40  1  0  0  0  0
 20 21  1  0  0  0  0
 20 41  1  0  0  0  0
 20 42  1  0  0  0  0
 21 22  1  0  0  0  0
 21 23  1  0  0  0  0
 21 43  1  0  0  0  0
 22 44  1  0  0  0  0
 22 45  1  0  0  0  0
 22 46  1  0  0  0  0
M  END
> <s_m_source_file>
AV-unprocessed.smi

> <i_m_source_file_index>
1990

> <i_lp_mmshare_version>
43012

> <i_f3d_flags>
0

> <s_epik_input>
W0NIM11bQ0BASF0xW0NIMl1OKFtDSDJdW0NASF0oTzEpW0NIM10pYzJbY0hdW2NIXWMoW2NIXW4yKVtOSF1DKD1PKVtDQEhdKFtDSDNdKVMoPU8pKD1PKVtDSDNd

> <s_epik_cmdline>
J2VwaWtfcHl0aG9uJywgJy1waCcsICc3LjAnLCAnLXRuJywgJzgnLCAnLW1hJywgJzIwMCcsICctbWV0YWxfYmluZGluZycsICctaW1hZScsICc8aW5maWxlLm1hZT4nLCAnLW9tYWUnLCAnPG91dGZpbGUubWFlPic=

> <r_lp_tautomer_probability>
1

> <r_epik_Ionization_Penalty>
0.000334888

> <r_epik_Ionization_Penalty_Charging>
0

> <r_epik_Ionization_Penalty_Neutral>
0.000334888

> <r_epik_State_Penalty>
0.000200905

> <r_epik_Charging_Adjusted_Penalty>
0.000200905

> <i_epik_Tot_Q>
0

> <i_epik_Tot_abs_Q>
0

> <r_epik_Metal_State_Penalty>
-0

> <b_epik_Metal_Only>
0

> <s_lp_Force_Field>
OPLS_2005

> <r_lp_Energy>
18.0691

> <b_lp_Chiralities_Consistent>
1

> <s_lp_Variant>
AV-unprocessed.smi:1990-4

> <Gold.Version>
5.8.1

> <Gold.Id.Protein>
6NUR|6NUR_protein|mol2

> <Gold.PLP.Fitness>
40.3655

> <Gold.PLP.PLP>
-38.7647

> <Gold.PLP.part.hbond>
-1.0000

> <Gold.PLP.part.metal>
0.0000

> <Gold.PLP.part.buried>
-5.6673

> <Gold.PLP.part.nonpolar>
-31.9191

> <Gold.PLP.part.repulsive>
0.2859

> <Gold.PLP.ligand.clash>
0.0000

> <Gold.PLP.ligand.torsion>
1.0058

> <Gold.PLP.Chemscore.Hbond>
1.0000

> <Gold.PLP.Chemscore.CHOScore>
0.0000

> <Gold.PLP.Chemscore.Metal>
0.0000

> <Gold.Chemscore.Hbonds>
donor molecule, donor type, donor heavy atom, donor atom, acceptor molecule, acceptor atom, score
      P1  H  6896  6908       L1    11  1.00

> <Gold.PLP.Chemscore.Internal.Correction>
0.6123

> <Gold.Rescore>
     Score         DG    S(hbond)    S(metal)    S(lipo)     H(rot)  DE(clash)    DE(int)     intcor
     13.36     -17.01       1.00        0.00     103.24       1.52       0.20       3.44       ----

> <Gold.Chemscore.Fitness>
13.3644

> <Gold.Chemscore.DG>
-17.0117

> <Gold.Chemscore.ZeroCoef>
-5.4800

> <Gold.Chemscore.Hbond>
0.9994

> <Gold.Chemscore.Metal>
0.0000

> <Gold.Chemscore.Lipo>
103.2391

> <Gold.Chemscore.Internal_Hbond>
0.0000

> <Gold.Chemscore.DEClash>
0.2043

> <Gold.Chemscore.DEInternal>
3.4430

> <Gold.Chemscore.Rot>
1.5177

> <Gold.Chemscore.Internal.Correction>
   9.000000E+99

> <Gold.Chemscore.Hbonds>
donor molecule, donor type, donor heavy atom, donor atom, acceptor molecule, acceptor atom, score
      P1  H  6896  6908       L1    11  0.99

> <Gold.Chemscore.Hbond.Weighted>
-3.3380

> <Gold.Chemscore.Metal.Weighted>
-0.0000

> <Gold.Chemscore.Lipo.Weighted>
-12.0790

> <Gold.Chemscore.Internal_Hbond.Weighted>
0.0000

> <Gold.Chemscore.DEClash.Weighted>
0.2043

> <Gold.Chemscore.DEInternal.Weighted>
3.4430

> <Gold.Chemscore.Rot.Weighted>
3.8853

> <Gold.Chemscore.Internal.Correction.Weighted>
   9.000000E+99

> <Gold.Protein.RotatedTorsions>
[ 6907 6896 6895 6894 ] final  -59.64 input  -60.11 | X-H torsion
[ 7974 7965 7964 7962 ] final  -12.38 input  175.53 | X-H torsion
[ 8008 7997 7996 7995 ] final -118.81 input   59.86 | X-H torsion
[ 10167 10162 10161 10158 ] final   87.91 input  -65.29 | X-H torsion
[ 10718 10713 10712 10709 ] final   40.50 input   66.30 | X-H torsion
[ 10763 10752 10751 10750 ] final  -13.06 input  -60.55 | X-H torsion
[ 11005 11000 10999 10996 ] final   86.39 input  -57.11 | X-H torsion

> <Gold.Protein.ActiveResidues>
 VAL166  LYS551  ARG553  GLY616  TRP617  ASP618  TYR619  PRO620  LYS621  CYS622 
 ASP623  PHE694  ASN695  SER759  ASP760  ASP761  ALA762  ILE779  LEU786  VAL792 
 PHE793  MET794  SER795  GLU796  ALA797  LYS798  CYS799  TRP800  GLU811  SER814 

> <Gold.Protein.RotatedAtoms>
  150.7915  134.6942  159.6513 H   0  0  0  0  0  0  0  0  0  0  0  0  # atno 6907 bound_to 6896
  152.4021  134.6265  160.0074 H   0  0  0  0  0  0  0  0  0  0  0  0  # atno 6908 bound_to 6896
  151.6533  133.3283  159.3193 H   0  0  0  0  0  0  0  0  0  0  0  0  # atno 6909 bound_to 6896
  146.2154  140.3050  142.8378 H   0  0  0  0  0  0  0  0  0  0  0  0  # atno 7974 bound_to 7965
  155.1057  140.0396  157.2709 H   0  0  0  0  0  0  0  0  0  0  0  0  # atno 8008 bound_to 7997
  154.6724  140.2615  155.6968 H   0  0  0  0  0  0  0  0  0  0  0  0  # atno 8009 bound_to 7997
  156.2663  140.2795  156.1238 H   0  0  0  0  0  0  0  0  0  0  0  0  # atno 8010 bound_to 7997
  139.8726  144.6484  150.8932 H   0  0  0  0  0  0  0  0  0  0  0  0  # atno 10167 bound_to 10162
  157.3828  130.7763  149.7206 H   0  0  0  0  0  0  0  0  0  0  0  0  # atno 10718 bound_to 10713
  153.5077  135.7016  153.5797 H   0  0  0  0  0  0  0  0  0  0  0  0  # atno 10763 bound_to 10752
  153.3901  135.3898  155.1917 H   0  0  0  0  0  0  0  0  0  0  0  0  # atno 10764 bound_to 10752
  154.8706  135.3856  154.4554 H   0  0  0  0  0  0  0  0  0  0  0  0  # atno 10765 bound_to 10752
  139.8946  134.8352  156.2714 H   0  0  0  0  0  0  0  0  0  0  0  0  # atno 11005 bound_to 11000
  144.9030  140.7665  143.5855 LP  0  0  0  0  0  0  0  0  0  0  0  0  # atno 17320 bound_to 7965
  145.2977  139.1861  143.4706 LP  0  0  0  0  0  0  0  0  0  0  0  0  # atno 17321 bound_to 7965
  140.7758  143.3651  151.1754 LP  0  0  0  0  0  0  0  0  0  0  0  0  # atno 17342 bound_to 10162
  139.7270  143.9133  152.3006 LP  0  0  0  0  0  0  0  0  0  0  0  0  # atno 17343 bound_to 10162
  155.9780  130.4057  150.3678 LP  0  0  0  0  0  0  0  0  0  0  0  0  # atno 17370 bound_to 10713
  157.1784  131.0386  151.2760 LP  0  0  0  0  0  0  0  0  0  0  0  0  # atno 17371 bound_to 10713
  141.0098  133.7102  156.1093 LP  0  0  0  0  0  0  0  0  0  0  0  0  # atno 17394 bound_to 11000
  140.7383  134.4178  157.5558 LP  0  0  0  0  0  0  0  0  0  0  0  0  # atno 17395 bound_to 11000

$$$$
