AV-unprocessed.smi:511|AV-procd|sdf|2765|dock1
  -GOLD-   2262023233D 1   1.00000     0.00000
 Structure written by MMmdl.
 45 47  0  0  0  0  0  0  0  0  1 V2000
  152.8736  144.5444  158.0725 C   0  0  0  0  0  0  0  0  0  0  0  0
  151.4836  144.8115  158.1023 O   0  0  0  0  0  0  0  0  0  0  0  0
  150.8244  144.1576  159.1745 C   0  0  0  0  0  0  0  0  0  0  0  0
  150.5478  142.6970  158.7922 C   0  0  0  0  0  0  0  0  0  0  0  0
  151.7455  141.8675  158.9137 N   0  0  0  0  0  0  0  0  0  0  0  0
  152.2901  140.9992  158.0151 C   0  0  0  0  0  0  0  0  0  0  0  0
  151.7597  140.8062  156.7389 N   0  0  0  0  0  0  0  0  0  0  0  0
  150.9516  141.7446  155.9633 C   0  0  0  0  0  0  0  0  0  0  0  0
  149.6983  141.0509  155.3945 C   0  0  0  0  0  0  0  0  0  0  0  0
  150.1128  139.9742  154.4956 N   0  0  0  0  0  0  0  0  0  0  0  0
  148.9366  139.3067  153.9577 C   0  0  0  0  0  0  0  0  0  0  0  0
  150.9199  139.0169  155.2521 C   0  0  0  0  0  0  0  0  0  0  0  0
  152.1564  139.7291  155.8365 C   0  0  0  0  0  0  0  0  0  0  0  0
  153.3432  140.3149  158.4723 N   0  0  0  0  0  0  0  0  0  0  0  0
  153.5041  140.8082  159.7566 C   0  0  0  0  0  0  0  0  0  0  0  0
  152.5573  141.7364  160.0418 C   0  0  0  0  0  0  0  0  0  0  0  0
  152.4753  142.3972  161.3507 C   0  0  0  0  0  0  0  0  0  0  0  0
  151.6169  143.2281  161.6392 O   0  0  0  0  0  0  0  0  0  0  0  0
  153.4417  141.9932  162.2110 N   0  0  0  0  0  0  0  0  0  0  0  0
  154.4242  141.0678  161.9853 C   0  0  0  0  0  0  0  0  0  0  0  0
  155.2307  140.8057  162.8771 O   0  0  0  0  0  0  0  0  0  0  0  0
  154.4597  140.4648  160.7523 N   0  0  0  0  0  0  0  0  0  0  0  0
  155.4614  139.4522  160.4126 C   0  0  0  0  0  0  0  0  0  0  0  0
  153.4335  142.4209  163.1254 H   0  0  0  0  0  0  0  0  0  0  0  0
  153.3284  145.0671  157.2311 H   0  0  0  0  0  0  0  0  0  0  0  0
  153.0681  143.4778  157.9517 H   0  0  0  0  0  0  0  0  0  0  0  0
  153.3602  144.8887  158.9863 H   0  0  0  0  0  0  0  0  0  0  0  0
  151.4449  144.1938  160.0710 H   0  0  0  0  0  0  0  0  0  0  0  0
  149.8883  144.6686  159.4047 H   0  0  0  0  0  0  0  0  0  0  0  0
  149.7479  142.3092  159.4135 H   0  0  0  0  0  0  0  0  0  0  0  0
  150.1701  142.6338  157.7725 H   0  0  0  0  0  0  0  0  0  0  0  0
  150.6767  142.6052  156.5716 H   0  0  0  0  0  0  0  0  0  0  0  0
  151.5561  142.1471  155.1489 H   0  0  0  0  0  0  0  0  0  0  0  0
  149.0761  140.6585  156.2005 H   0  0  0  0  0  0  0  0  0  0  0  0
  149.0955  141.7731  154.8424 H   0  0  0  0  0  0  0  0  0  0  0  0
  149.2291  138.5009  153.2837 H   0  0  0  0  0  0  0  0  0  0  0  0
  148.3254  140.0096  153.3905 H   0  0  0  0  0  0  0  0  0  0  0  0
  148.3208  138.8818  154.7519 H   0  0  0  0  0  0  0  0  0  0  0  0
  150.3292  138.5658  156.0511 H   0  0  0  0  0  0  0  0  0  0  0  0
  151.2387  138.2094  154.5919 H   0  0  0  0  0  0  0  0  0  0  0  0
  152.7844  140.1288  155.0389 H   0  0  0  0  0  0  0  0  0  0  0  0
  152.7655  139.0066  156.3807 H   0  0  0  0  0  0  0  0  0  0  0  0
  156.1840  139.2576  161.2058 H   0  0  0  0  0  0  0  0  0  0  0  0
  156.0222  139.7638  159.5310 H   0  0  0  0  0  0  0  0  0  0  0  0
  154.9692  138.5074  160.1797 H   0  0  0  0  0  0  0  0  0  0  0  0
  1  2  1  0  0  0  0
  1 25  1  0  0  0  0
  1 26  1  0  0  0  0
  1 27  1  0  0  0  0
  2  3  1  0  0  0  0
  3  4  1  0  0  0  0
  3 28  1  0  0  0  0
  3 29  1  0  0  0  0
  4  5  1  0  0  0  0
  4 30  1  0  0  0  0
  4 31  1  0  0  0  0
  5 16  1  0  0  0  0
  5  6  1  0  0  0  0
  6  7  1  0  0  0  0
  6 14  2  0  0  0  0
  7 13  1  0  0  0  0
  7  8  1  0  0  0  0
  8  9  1  0  0  0  0
  8 32  1  0  0  0  0
  8 33  1  0  0  0  0
  9 10  1  0  0  0  0
  9 34  1  0  0  0  0
  9 35  1  0  0  0  0
 10 11  1  0  0  0  0
 10 12  1  0  0  0  0
 11 36  1  0  0  0  0
 11 37  1  0  0  0  0
 11 38  1  0  0  0  0
 12 13  1  0  0  0  0
 12 39  1  0  0  0  0
 12 40  1  0  0  0  0
 13 41  1  0  0  0  0
 13 42  1  0  0  0  0
 14 15  1  0  0  0  0
 15 22  1  0  0  0  0
 15 16  2  0  0  0  0
 16 17  1  0  0  0  0
 17 18  2  0  0  0  0
 17 19  1  0  0  0  0
 19 24  1  0  0  0  0
 19 20  1  0  0  0  0
 20 21  2  0  0  0  0
 20 22  1  0  0  0  0
 22 23  1  0  0  0  0
 23 43  1  0  0  0  0
 23 44  1  0  0  0  0
 23 45  1  0  0  0  0
M  END
> <s_m_source_file>
AV-unprocessed.smi

> <i_m_source_file_index>
511

> <i_lp_mmshare_version>
43012

> <i_f3d_flags>
0

> <s_epik_input>
W0NIM11uMWMoPU8pW25IXWMoPU8pYyhjMTIpbihbQ0gyXVtDSDJdT1tDSDNdKWMobjIpTjNbQ0gyXVtDSDJdTihbQ0gzXSlbQ0gyXVtDSDJdMw==

> <s_epik_cmdline>
J2VwaWtfcHl0aG9uJywgJy1waCcsICc3LjAnLCAnLXRuJywgJzgnLCAnLW1hJywgJzIwMCcsICctbWV0YWxfYmluZGluZycsICctaW1hZScsICc8aW5maWxlLm1hZT4nLCAnLW9tYWUnLCAnPG91dGZpbGUubWFlPic=

> <r_epik_Ionization_Penalty>
1.34394

> <r_epik_Ionization_Penalty_Charging>
1.59275e-05

> <r_epik_Ionization_Penalty_Neutral>
1.34392

> <r_epik_State_Penalty>
1.4212

> <r_epik_Charging_Adjusted_Penalty>
1.42122

> <i_epik_Tot_Q>
0

> <i_epik_Tot_abs_Q>
0

> <r_epik_Metal_State_Penalty>
1.44789

> <b_epik_Metal_Only>
0

> <s_lp_Force_Field>
OPLS_2005

> <r_lp_Energy>
49.2822

> <b_lp_Chiralities_Consistent>
1

> <s_lp_Variant>
AV-unprocessed.smi:511-2

> <Gold.Version>
5.8.1

> <Gold.Id.Protein>
6NUR|6NUR_protein|mol2

> <Gold.PLP.Fitness>
50.2958

> <Gold.PLP.PLP>
-44.2804

> <Gold.PLP.part.hbond>
-4.0000

> <Gold.PLP.part.metal>
0.0000

> <Gold.PLP.part.buried>
-2.5958

> <Gold.PLP.part.nonpolar>
-36.5709

> <Gold.PLP.part.repulsive>
0.4695

> <Gold.PLP.ligand.clash>
0.0000

> <Gold.PLP.ligand.torsion>
0.3898

> <Gold.PLP.Chemscore.Hbond>
2.1590

> <Gold.PLP.Chemscore.CHOScore>
0.0000

> <Gold.PLP.Chemscore.Metal>
0.0000

> <Gold.Chemscore.Hbonds>
donor molecule, donor type, donor heavy atom, donor atom, acceptor molecule, acceptor atom, score
      P1  H  6933  6945       L1    18  0.25
      P1  H  7989  7998       L1    10  0.90
      P1  H  7997  8009       L1    14  0.90

> <Gold.PLP.Chemscore.Internal.Correction>
0.3180

> <Gold.Rescore>
     Score         DG    S(hbond)    S(metal)    S(lipo)     H(rot)  DE(clash)    DE(int)     intcor
      8.25     -12.48       0.17        0.00      87.55       1.49       2.87       1.36       ----

> <Gold.Chemscore.Fitness>
8.2504

> <Gold.Chemscore.DG>
-12.4790

> <Gold.Chemscore.ZeroCoef>
-5.4800

> <Gold.Chemscore.Hbond>
0.1717

> <Gold.Chemscore.Metal>
0.0000

> <Gold.Chemscore.Lipo>
87.5548

> <Gold.Chemscore.Internal_Hbond>
0.0000

> <Gold.Chemscore.DEClash>
2.8691

> <Gold.Chemscore.DEInternal>
1.3596

> <Gold.Chemscore.Rot>
1.4915

> <Gold.Chemscore.Internal.Correction>
   9.000000E+99

> <Gold.Chemscore.Hbonds>
donor molecule, donor type, donor heavy atom, donor atom, acceptor molecule, acceptor atom, score
      P1  H  6933  6945       L1    18  0.04
      P1  H  7989  7998       L1    10  0.05
      P1  H  7997  8009       L1    14  0.68

> <Gold.Chemscore.Hbond.Weighted>
-0.5735

> <Gold.Chemscore.Metal.Weighted>
-0.0000

> <Gold.Chemscore.Lipo.Weighted>
-10.2439

> <Gold.Chemscore.Internal_Hbond.Weighted>
0.0000

> <Gold.Chemscore.DEClash.Weighted>
2.8691

> <Gold.Chemscore.DEInternal.Weighted>
1.3596

> <Gold.Chemscore.Rot.Weighted>
3.8183

> <Gold.Chemscore.Internal.Correction.Weighted>
   9.000000E+99

> <Gold.Protein.RotatedTorsions>
[ 6907 6896 6895 6894 ] final -134.76 input  -60.11 | X-H torsion
[ 7974 7965 7964 7962 ] final  -18.91 input  175.53 | X-H torsion
[ 8008 7997 7996 7995 ] final  150.32 input   59.86 | X-H torsion
[ 10167 10162 10161 10158 ] final -147.04 input  -65.29 | X-H torsion
[ 10718 10713 10712 10709 ] final   -9.01 input   66.30 | X-H torsion
[ 10763 10752 10751 10750 ] final  -46.45 input  -60.55 | X-H torsion
[ 11005 11000 10999 10996 ] final  171.89 input  -57.11 | X-H torsion

> <Gold.Protein.ActiveResidues>
 VAL166  LYS551  ARG553  GLY616  TRP617  ASP618  TYR619  PRO620  LYS621  CYS622 
 ASP623  PHE694  ASN695  SER759  ASP760  ASP761  ALA762  ILE779  LEU786  VAL792 
 PHE793  MET794  SER795  GLU796  ALA797  LYS798  CYS799  TRP800  GLU811  SER814 

> <Gold.Protein.RotatedAtoms>
  150.9897  133.6162  159.2709 H   0  0  0  0  0  0  0  0  0  0  0  0  # atno 6907 bound_to 6896
  151.3387  135.0857  159.9373 H   0  0  0  0  0  0  0  0  0  0  0  0  # atno 6908 bound_to 6896
  152.5242  133.9512  159.7727 H   0  0  0  0  0  0  0  0  0  0  0  0  # atno 6909 bound_to 6896
  146.1868  140.3988  142.8473 H   0  0  0  0  0  0  0  0  0  0  0  0  # atno 7974 bound_to 7965
  156.2720  140.2078  156.5999 H   0  0  0  0  0  0  0  0  0  0  0  0  # atno 8008 bound_to 7997
  154.6915  140.0530  157.0391 H   0  0  0  0  0  0  0  0  0  0  0  0  # atno 8009 bound_to 7997
  155.0860  140.3191  155.4590 H   0  0  0  0  0  0  0  0  0  0  0  0  # atno 8010 bound_to 7997
  139.7658  143.8309  152.2616 H   0  0  0  0  0  0  0  0  0  0  0  0  # atno 10167 bound_to 10162
  156.6942  130.5074  149.5935 H   0  0  0  0  0  0  0  0  0  0  0  0  # atno 10718 bound_to 10713
  154.0452  135.6638  153.4794 H   0  0  0  0  0  0  0  0  0  0  0  0  # atno 10763 bound_to 10752
  153.0485  135.5099  154.7803 H   0  0  0  0  0  0  0  0  0  0  0  0  # atno 10764 bound_to 10752
  154.6792  135.3042  154.9602 H   0  0  0  0  0  0  0  0  0  0  0  0  # atno 10765 bound_to 10752
  140.3239  134.7414  157.4084 H   0  0  0  0  0  0  0  0  0  0  0  0  # atno 11005 bound_to 11000
  144.8412  140.6860  143.6228 LP  0  0  0  0  0  0  0  0  0  0  0  0  # atno 17320 bound_to 7965
  145.3914  139.1616  143.4227 LP  0  0  0  0  0  0  0  0  0  0  0  0  # atno 17321 bound_to 7965
  139.8329  144.7245  150.9428 LP  0  0  0  0  0  0  0  0  0  0  0  0  # atno 17342 bound_to 10162
  140.7810  143.4053  151.1081 LP  0  0  0  0  0  0  0  0  0  0  0  0  # atno 17343 bound_to 10162
  156.1775  130.6477  151.0912 LP  0  0  0  0  0  0  0  0  0  0  0  0  # atno 17370 bound_to 10713
  157.6997  131.0780  150.6858 LP  0  0  0  0  0  0  0  0  0  0  0  0  # atno 17371 bound_to 10713
  140.0918  134.5590  155.8436 LP  0  0  0  0  0  0  0  0  0  0  0  0  # atno 17394 bound_to 11000
  141.2080  133.6669  156.6342 LP  0  0  0  0  0  0  0  0  0  0  0  0  # atno 17395 bound_to 11000

$$$$
