AV-unprocessed.smi:3292|AV-procd|sdf|12624|dock4
  -GOLD-   2272018553D 1   1.00000     0.00000
 Structure written by MMmdl.
 39 40  0  0  0  0  0  0  0  0  2 V2000
  147.0459  138.6350  155.4020 C   0  0  0  0  0  0  0  0  0  0  0  0
  147.7194  138.8854  154.0430 C   0  0  1  0  0  0  0  0  0  0  0  0
  149.2554  139.0115  154.1417 C   0  0  0  0  0  0  0  0  0  0  0  0
  149.6825  140.2375  154.8216 N   0  0  0  0  0  0  0  0  0  0  0  0
  150.7762  140.3938  155.6337 C   0  0  0  0  0  0  0  0  0  0  0  0
  150.7739  141.7017  156.0451 C   0  0  0  0  0  0  0  0  0  0  0  0
  149.6776  142.2869  155.4701 N   0  3  0  0  0  0  0  0  0  0  0  0
  149.0133  141.3941  154.7289 C   0  0  0  0  0  0  0  0  0  0  0  0
  147.3618  137.8103  153.1222 N   0  0  0  0  0  0  0  0  0  0  0  0
  146.1170  137.3563  152.9168 C   0  0  0  0  0  0  0  0  0  0  0  0
  145.1215  137.7956  153.4931 O   0  0  0  0  0  0  0  0  0  0  0  0
  146.0870  136.3787  152.0005 N   0  0  0  0  0  0  0  0  0  0  0  0
  144.8845  135.6936  151.5368 C   0  0  0  0  0  0  0  0  0  0  0  0
  145.0103  134.1634  151.6632 C   0  0  1  0  0  0  0  0  0  0  0  0
  143.8898  133.4005  150.9873 C   0  0  0  0  0  0  0  0  0  0  0  0
  144.4863  132.0011  150.8685 C   0  0  0  0  0  0  0  0  0  0  0  0
  145.8915  132.1874  150.7264 O   0  0  0  0  0  0  0  0  0  0  0  0
  146.2312  133.5478  150.9758 C   0  0  0  0  0  0  0  0  0  0  0  0
  147.2138  139.4634  156.0904 H   0  0  0  0  0  0  0  0  0  0  0  0
  147.4262  137.7278  155.8723 H   0  0  0  0  0  0  0  0  0  0  0  0
  145.9670  138.5241  155.2895 H   0  0  0  0  0  0  0  0  0  0  0  0
  147.3178  139.8214  153.6496 H   0  0  0  0  0  0  0  0  0  0  0  0
  149.6793  138.1565  154.6712 H   0  0  0  0  0  0  0  0  0  0  0  0
  149.7071  139.0221  153.1487 H   0  0  0  0  0  0  0  0  0  0  0  0
  151.4570  139.5831  155.8510 H   0  0  0  0  0  0  0  0  0  0  0  0
  151.4514  142.2448  156.6878 H   0  0  0  0  0  0  0  0  0  0  0  0
  148.1157  141.5742  154.1642 H   0  0  0  0  0  0  0  0  0  0  0  0
  148.1153  137.3854  152.6012 H   0  0  0  0  0  0  0  0  0  0  0  0
  146.9609  136.0897  151.5852 H   0  0  0  0  0  0  0  0  0  0  0  0
  144.0518  136.0404  152.1491 H   0  0  0  0  0  0  0  0  0  0  0  0
  144.6462  135.9783  150.5103 H   0  0  0  0  0  0  0  0  0  0  0  0
  145.0259  133.8871  152.7190 H   0  0  0  0  0  0  0  0  0  0  0  0
  142.9574  133.4171  151.5524 H   0  0  0  0  0  0  0  0  0  0  0  0
  143.6952  133.8087  149.9944 H   0  0  0  0  0  0  0  0  0  0  0  0
  144.3041  131.4315  151.7805 H   0  0  0  0  0  0  0  0  0  0  0  0
  144.0707  131.4410  150.0306 H   0  0  0  0  0  0  0  0  0  0  0  0
  146.4210  134.0335  150.0177 H   0  0  0  0  0  0  0  0  0  0  0  0
  147.1355  133.6259  151.5797 H   0  0  0  0  0  0  0  0  0  0  0  0
  149.4058  143.2549  155.5883 H   0  0  0  0  0  0  0  0  0  0  0  0
  1  2  1  0  0  0  0
  1 19  1  0  0  0  0
  1 20  1  0  0  0  0
  1 21  1  0  0  0  0
  2  3  1  0  0  0  0
  2  9  1  0  0  0  0
  2 22  1  0  0  0  0
  3  4  1  0  0  0  0
  3 23  1  0  0  0  0
  3 24  1  0  0  0  0
  4  8  1  0  0  0  0
  4  5  1  0  0  0  0
  5  6  2  0  0  0  0
  5 25  1  0  0  0  0
  6  7  1  0  0  0  0
  6 26  1  0  0  0  0
  7  8  2  0  0  0  0
  7 39  1  0  0  0  0
  8 27  1  0  0  0  0
  9 10  1  0  0  0  0
  9 28  1  0  0  0  0
 10 11  2  0  0  0  0
 10 12  1  0  0  0  0
 12 13  1  0  0  0  0
 12 29  1  0  0  0  0
 13 14  1  0  0  0  0
 13 30  1  0  0  0  0
 13 31  1  0  0  0  0
 14 18  1  0  0  0  0
 14 15  1  0  0  0  0
 14 32  1  0  0  0  0
 15 16  1  0  0  0  0
 15 33  1  0  0  0  0
 15 34  1  0  0  0  0
 16 17  1  0  0  0  0
 16 35  1  0  0  0  0
 16 36  1  0  0  0  0
 17 18  1  0  0  0  0
 18 37  1  0  0  0  0
 18 38  1  0  0  0  0
M  CHG  1   7   1
M  END
> <s_m_source_file>
AV-unprocessed.smi

> <i_m_source_file_index>
3292

> <i_lp_mmshare_version>
43012

> <i_f3d_flags>
0

> <s_epik_input>
W2NIXTFuW2NIXVtjSF1uMVtDSDJdW0NAQEhdKFtDSDNdKVtOSF1DKD1PKVtOSF1bQ0gyXVtDQEBIXTJbQ0gyXVtDSDJdT1tDSDJdMg==

> <s_epik_cmdline>
J2VwaWtfcHl0aG9uJywgJy1waCcsICc3LjAnLCAnLXRuJywgJzgnLCAnLW1hJywgJzIwMCcsICctbWV0YWxfYmluZGluZycsICctaW1hZScsICc8aW5maWxlLm1hZT4nLCAnLW9tYWUnLCAnPG91dGZpbGUubWFlPic=

> <r_lp_tautomer_probability>
1

> <r_epik_Ionization_Penalty>
0.255703

> <r_epik_Ionization_Penalty_Charging>
0

> <r_epik_Ionization_Penalty_Neutral>
0.255703

> <r_epik_State_Penalty>
0.247169

> <r_epik_Charging_Adjusted_Penalty>
0.247169

> <i_epik_Tot_Q>
1

> <i_epik_Tot_abs_Q>
1

> <r_epik_Metal_State_Penalty>
0.536791

> <b_epik_Metal_Only>
0

> <s_lp_Force_Field>
OPLS_2005

> <r_lp_Energy>
19.2817

> <b_lp_Chiralities_Consistent>
1

> <s_lp_Variant>
AV-unprocessed.smi:3292-4

> <Gold.Version>
5.8.1

> <Gold.Id.Protein>
6NUR|6NUR_protein|mol2

> <Gold.PLP.Fitness>
43.4337

> <Gold.PLP.PLP>
-32.9810

> <Gold.PLP.part.hbond>
-2.8357

> <Gold.PLP.part.metal>
0.0000

> <Gold.PLP.part.buried>
-5.5759

> <Gold.PLP.part.nonpolar>
-26.1974

> <Gold.PLP.part.repulsive>
0.6353

> <Gold.PLP.ligand.clash>
0.0000

> <Gold.PLP.ligand.torsion>
0.5532

> <Gold.PLP.Chemscore.Hbond>
3.8233

> <Gold.PLP.Chemscore.CHOScore>
0.0000

> <Gold.PLP.Chemscore.Metal>
0.0000

> <Gold.Chemscore.Hbonds>
donor molecule, donor type, donor heavy atom, donor atom, acceptor molecule, acceptor atom, score
      L1  H     7    39       P1  8028  2.00
      L1  H     9    28       P1  7948  1.00
      L1  H    12    29       P1  7948  0.85

> <Gold.PLP.Chemscore.Internal.Correction>
0.0894

> <Gold.Rescore>
     Score         DG    S(hbond)    S(metal)    S(lipo)     H(rot)  DE(clash)    DE(int)     intcor
     14.23     -16.03       2.84        0.00      57.97       2.24       0.02       1.78       ----

> <Gold.Chemscore.Fitness>
14.2344

> <Gold.Chemscore.DG>
-16.0338

> <Gold.Chemscore.ZeroCoef>
-5.4800

> <Gold.Chemscore.Hbond>
2.8435

> <Gold.Chemscore.Metal>
0.0000

> <Gold.Chemscore.Lipo>
57.9677

> <Gold.Chemscore.Internal_Hbond>
0.0000

> <Gold.Chemscore.DEClash>
0.0158

> <Gold.Chemscore.DEInternal>
1.7836

> <Gold.Chemscore.Rot>
2.2367

> <Gold.Chemscore.Internal.Correction>
   9.000000E+99

> <Gold.Chemscore.Hbonds>
donor molecule, donor type, donor heavy atom, donor atom, acceptor molecule, acceptor atom, score
      L1  H     7    39       P1  8028  0.95
      L1  H     9    28       P1  7948  0.98
      L1  H    12    29       P1  7948  0.83

> <Gold.Chemscore.Hbond.Weighted>
-9.4975

> <Gold.Chemscore.Metal.Weighted>
-0.0000

> <Gold.Chemscore.Lipo.Weighted>
-6.7822

> <Gold.Chemscore.Internal_Hbond.Weighted>
0.0000

> <Gold.Chemscore.DEClash.Weighted>
0.0158

> <Gold.Chemscore.DEInternal.Weighted>
1.7836

> <Gold.Chemscore.Rot.Weighted>
5.7259

> <Gold.Chemscore.Internal.Correction.Weighted>
   9.000000E+99

> <Gold.Protein.RotatedTorsions>
[ 6907 6896 6895 6894 ] final   38.80 input  -60.11 | X-H torsion
[ 7974 7965 7964 7962 ] final   98.41 input  175.53 | X-H torsion
[ 8008 7997 7996 7995 ] final  176.34 input   59.86 | X-H torsion
[ 10167 10162 10161 10158 ] final  162.15 input  -65.29 | X-H torsion
[ 10718 10713 10712 10709 ] final  -20.79 input   66.30 | X-H torsion
[ 10763 10752 10751 10750 ] final   93.84 input  -60.55 | X-H torsion
[ 11005 11000 10999 10996 ] final    8.18 input  -57.11 | X-H torsion

> <Gold.Protein.ActiveResidues>
 VAL166  LYS551  ARG553  GLY616  TRP617  ASP618  TYR619  PRO620  LYS621  CYS622 
 ASP623  PHE694  ASN695  SER759  ASP760  ASP761  ALA762  ILE779  LEU786  VAL792 
 PHE793  MET794  SER795  GLU796  ALA797  LYS798  CYS799  TRP800  GLU811  SER814 

> <Gold.Protein.RotatedAtoms>
  152.1612  134.8910  160.0541 H   0  0  0  0  0  0  0  0  0  0  0  0  # atno 6907 bound_to 6896
  151.9905  133.3784  159.4151 H   0  0  0  0  0  0  0  0  0  0  0  0  # atno 6908 bound_to 6896
  150.6888  134.3864  159.5101 H   0  0  0  0  0  0  0  0  0  0  0  0  # atno 6909 bound_to 6896
  145.4125  139.2332  143.3240 H   0  0  0  0  0  0  0  0  0  0  0  0  # atno 7974 bound_to 7965
  156.0775  140.1386  156.9753 H   0  0  0  0  0  0  0  0  0  0  0  0  # atno 8008 bound_to 7997
  154.4566  140.0959  156.6825 H   0  0  0  0  0  0  0  0  0  0  0  0  # atno 8009 bound_to 7997
  155.5129  140.3454  155.4394 H   0  0  0  0  0  0  0  0  0  0  0  0  # atno 8010 bound_to 7997
  139.4857  144.4466  151.8884 H   0  0  0  0  0  0  0  0  0  0  0  0  # atno 10167 bound_to 10162
  156.5270  130.4646  149.6567 H   0  0  0  0  0  0  0  0  0  0  0  0  # atno 10718 bound_to 10713
  153.2348  135.4311  155.0635 H   0  0  0  0  0  0  0  0  0  0  0  0  # atno 10763 bound_to 10752
  154.8314  135.3388  154.6734 H   0  0  0  0  0  0  0  0  0  0  0  0  # atno 10764 bound_to 10752
  153.7160  135.7020  153.5081 H   0  0  0  0  0  0  0  0  0  0  0  0  # atno 10765 bound_to 10752
  140.5399  134.0385  155.7900 H   0  0  0  0  0  0  0  0  0  0  0  0  # atno 11005 bound_to 11000
  146.2698  140.4838  142.8819 LP  0  0  0  0  0  0  0  0  0  0  0  0  # atno 17320 bound_to 7965
  144.8299  140.6690  143.6297 LP  0  0  0  0  0  0  0  0  0  0  0  0  # atno 17321 bound_to 7965
  140.3920  144.2603  150.5899 LP  0  0  0  0  0  0  0  0  0  0  0  0  # atno 17342 bound_to 10162
  140.5137  143.2284  151.8496 LP  0  0  0  0  0  0  0  0  0  0  0  0  # atno 17343 bound_to 10162
  156.3096  130.7221  151.2111 LP  0  0  0  0  0  0  0  0  0  0  0  0  # atno 17370 bound_to 10713
  157.7428  131.0485  150.4997 LP  0  0  0  0  0  0  0  0  0  0  0  0  # atno 17371 bound_to 10713
  141.1233  133.9425  157.2685 LP  0  0  0  0  0  0  0  0  0  0  0  0  # atno 17394 bound_to 11000
  139.9510  135.0175  156.8992 LP  0  0  0  0  0  0  0  0  0  0  0  0  # atno 17395 bound_to 11000

$$$$
