AV-unprocessed.smi:1830|AV-procd|sdf|7437|dock5
  -GOLD-   22720 9123D 1   1.00000     0.00000
 Structure written by MMmdl.
 53 56  0  0  0  0  0  0  0  0  2 V2000
  151.0051  136.8080  159.1158 O   0  0  0  0  0  0  0  0  0  0  0  0
  149.9867  137.3844  158.7332 C   0  0  0  0  0  0  0  0  0  0  0  0
  148.8313  137.3667  159.4121 N   0  0  0  0  0  0  0  0  0  0  0  0
  148.6218  136.6824  160.6838 C   0  0  0  0  0  0  0  0  0  0  0  0
  147.1268  136.5086  161.0062 C   0  0  1  0  0  0  0  0  0  0  0  0
  146.9110  135.7944  162.3540 C   0  0  0  0  0  0  0  0  0  0  0  0
  145.4781  135.7402  162.7268 N   0  3  2  0  0  0  0  0  0  0  0  0
  144.6685  134.6820  162.0830 C   0  0  0  0  0  0  0  0  0  0  0  0
  143.2432  135.2435  161.9595 C   0  0  0  0  0  0  0  0  0  0  0  0
  143.2852  136.6172  162.6368 C   0  0  0  0  0  0  0  0  0  0  0  0
  144.7590  137.0217  162.5726 C   0  0  2  0  0  0  0  0  0  0  0  0
  145.1177  137.7140  161.2380 C   0  0  0  0  0  0  0  0  0  0  0  0
  146.5279  137.7970  161.0861 O   0  0  0  0  0  0  0  0  0  0  0  0
  149.8820  138.1163  157.6115 N   0  0  0  0  0  0  0  0  0  0  0  0
  150.8849  138.3930  156.6384 C   0  0  0  0  0  0  0  0  0  0  0  0
  152.1545  137.7650  156.6777 C   0  0  0  0  0  0  0  0  0  0  0  0
  153.1159  138.0881  155.7050 C   0  0  0  0  0  0  0  0  0  0  0  0
  152.7737  139.0287  154.7199 C   0  0  0  0  0  0  0  0  0  0  0  0
  151.5643  139.6199  154.6557 N   0  0  0  0  0  0  0  0  0  0  0  0
  150.6204  139.3074  155.5777 C   0  0  0  0  0  0  0  0  0  0  0  0
  149.3651  139.9450  155.4442 N   0  0  0  0  0  0  0  0  0  0  0  0
  148.2107  139.1277  155.0821 C   0  0  0  0  0  0  0  0  0  0  0  0
  147.3350  139.9926  154.1688 C   0  0  0  0  0  0  0  0  0  0  0  0
  147.7741  141.4178  154.4898 C   0  0  0  0  0  0  0  0  0  0  0  0
  149.2611  141.2411  154.7820 C   0  0  0  0  0  0  0  0  0  0  0  0
  148.0436  137.8686  159.0285 H   0  0  0  0  0  0  0  0  0  0  0  0
  149.1188  135.7112  160.6564 H   0  0  0  0  0  0  0  0  0  0  0  0
  149.1118  137.2576  161.4699 H   0  0  0  0  0  0  0  0  0  0  0  0
  146.6545  135.9328  160.2088 H   0  0  0  0  0  0  0  0  0  0  0  0
  147.3279  134.7866  162.3357 H   0  0  0  0  0  0  0  0  0  0  0  0
  147.4390  136.3371  163.1391 H   0  0  0  0  0  0  0  0  0  0  0  0
  145.0576  134.4304  161.0957 H   0  0  0  0  0  0  0  0  0  0  0  0
  144.6970  133.7768  162.6899 H   0  0  0  0  0  0  0  0  0  0  0  0
  142.9796  135.3524  160.9066 H   0  0  0  0  0  0  0  0  0  0  0  0
  142.5004  134.5890  162.4166 H   0  0  0  0  0  0  0  0  0  0  0  0
  142.6185  137.3428  162.1693 H   0  0  0  0  0  0  0  0  0  0  0  0
  142.9816  136.5160  163.6798 H   0  0  0  0  0  0  0  0  0  0  0  0
  145.0204  137.6828  163.3999 H   0  0  0  0  0  0  0  0  0  0  0  0
  144.6903  137.1856  160.3841 H   0  0  0  0  0  0  0  0  0  0  0  0
  144.7016  138.7216  161.2184 H   0  0  0  0  0  0  0  0  0  0  0  0
  149.0121  138.6123  157.4847 H   0  0  0  0  0  0  0  0  0  0  0  0
  152.4055  137.0355  157.4322 H   0  0  0  0  0  0  0  0  0  0  0  0
  154.0926  137.6273  155.7160 H   0  0  0  0  0  0  0  0  0  0  0  0
  153.4860  139.3085  153.9580 H   0  0  0  0  0  0  0  0  0  0  0  0
  148.5017  138.1982  154.5908 H   0  0  0  0  0  0  0  0  0  0  0  0
  147.6614  138.8750  155.9891 H   0  0  0  0  0  0  0  0  0  0  0  0
  147.5594  139.7674  153.1254 H   0  0  0  0  0  0  0  0  0  0  0  0
  146.2685  139.8296  154.3259 H   0  0  0  0  0  0  0  0  0  0  0  0
  147.5804  142.1193  153.6779 H   0  0  0  0  0  0  0  0  0  0  0  0
  147.2576  141.7762  155.3813 H   0  0  0  0  0  0  0  0  0  0  0  0
  149.6487  142.0423  155.4117 H   0  0  0  0  0  0  0  0  0  0  0  0
  149.8162  141.2427  153.8432 H   0  0  0  0  0  0  0  0  0  0  0  0
  145.4446  135.5251  163.7133 H   0  0  0  0  0  0  0  0  0  0  0  0
  1  2  2  0  0  0  0
  2  3  1  0  0  0  0
  2 14  1  0  0  0  0
  3  4  1  0  0  0  0
  3 26  1  0  0  0  0
  4  5  1  0  0  0  0
  4 27  1  0  0  0  0
  4 28  1  0  0  0  0
  5 13  1  0  0  0  0
  5  6  1  0  0  0  0
  5 29  1  0  0  0  0
  6  7  1  0  0  0  0
  6 30  1  0  0  0  0
  6 31  1  0  0  0  0
  7 11  1  0  0  0  0
  7  8  1  0  0  0  0
  7 53  1  0  0  0  0
  8  9  1  0  0  0  0
  8 32  1  0  0  0  0
  8 33  1  0  0  0  0
  9 10  1  0  0  0  0
  9 34  1  0  0  0  0
  9 35  1  0  0  0  0
 10 11  1  0  0  0  0
 10 36  1  0  0  0  0
 10 37  1  0  0  0  0
 11 12  1  0  0  0  0
 11 38  1  0  0  0  0
 12 13  1  0  0  0  0
 12 39  1  0  0  0  0
 12 40  1  0  0  0  0
 14 15  1  0  0  0  0
 14 41  1  0  0  0  0
 15 20  1  0  0  0  0
 15 16  2  0  0  0  0
 16 17  1  0  0  0  0
 16 42  1  0  0  0  0
 17 18  2  0  0  0  0
 17 43  1  0  0  0  0
 18 19  1  0  0  0  0
 18 44  1  0  0  0  0
 19 20  2  0  0  0  0
 20 21  1  0  0  0  0
 21 25  1  0  0  0  0
 21 22  1  0  0  0  0
 22 23  1  0  0  0  0
 22 45  1  0  0  0  0
 22 46  1  0  0  0  0
 23 24  1  0  0  0  0
 23 47  1  0  0  0  0
 23 48  1  0  0  0  0
 24 25  1  0  0  0  0
 24 49  1  0  0  0  0
 24 50  1  0  0  0  0
 25 51  1  0  0  0  0
 25 52  1  0  0  0  0
M  CHG  1   7   1
M  END
> <s_m_source_file>
AV-unprocessed.smi

> <i_m_source_file_index>
1830

> <i_lp_mmshare_version>
43012

> <i_f3d_flags>
0

> <s_epik_input>
W0NIMl0xW0NIMl1bQ0gyXVtDQEhdKE4xMilbQ0gyXU9bQ0BASF0oW0NIMl0yKVtDSDJdW05IXUMoPU8pW05IXWMzW2NIXVtjSF1bY0hdbmMzTjRbQ0gyXVtDSDJdW0NIMl1bQ0gyXTQ=

> <s_epik_cmdline>
J2VwaWtfcHl0aG9uJywgJy1waCcsICc3LjAnLCAnLXRuJywgJzgnLCAnLW1hJywgJzIwMCcsICctbWV0YWxfYmluZGluZycsICctaW1hZScsICc8aW5maWxlLm1hZT4nLCAnLW9tYWUnLCAnPG91dGZpbGUubWFlPic=

> <r_lp_tautomer_probability>
1

> <r_epik_Ionization_Penalty>
0.193547

> <r_epik_Ionization_Penalty_Charging>
0.10673

> <r_epik_Ionization_Penalty_Neutral>
0.0868166

> <r_epik_State_Penalty>
0.173595

> <r_epik_Charging_Adjusted_Penalty>
0.280326

> <i_epik_Tot_Q>
1

> <i_epik_Tot_abs_Q>
1

> <r_epik_Metal_State_Penalty>
0.164683

> <b_epik_Metal_Only>
0

> <s_lp_Force_Field>
OPLS_2005

> <r_lp_Energy>
64.4771

> <b_lp_Chiralities_Consistent>
1

> <s_lp_Variant>
AV-unprocessed.smi:1830-6

> <Gold.Version>
5.8.1

> <Gold.Id.Protein>
6NUR|6NUR_protein|mol2

> <Gold.PLP.Fitness>
43.5493

> <Gold.PLP.PLP>
-35.3070

> <Gold.PLP.part.hbond>
-3.0000

> <Gold.PLP.part.metal>
0.0000

> <Gold.PLP.part.buried>
-5.3447

> <Gold.PLP.part.nonpolar>
-27.9694

> <Gold.PLP.part.repulsive>
0.4237

> <Gold.PLP.ligand.clash>
0.0000

> <Gold.PLP.ligand.torsion>
0.5424

> <Gold.PLP.Chemscore.Hbond>
3.0000

> <Gold.PLP.Chemscore.CHOScore>
0.0000

> <Gold.PLP.Chemscore.Metal>
0.0000

> <Gold.Chemscore.Hbonds>
donor molecule, donor type, donor heavy atom, donor atom, acceptor molecule, acceptor atom, score
      P1  H  6896  6908       L1     1  1.00
      P1  H  6934  6947       L1    13  0.65
      P1  H  7989  7998       L1    19  1.00

> <Gold.PLP.Chemscore.Internal.Correction>
0.3271

> <Gold.Rescore>
     Score         DG    S(hbond)    S(metal)    S(lipo)     H(rot)  DE(clash)    DE(int)     intcor
     19.67     -21.54       2.81        0.00      87.91       1.41       0.05       1.81       ----

> <Gold.Chemscore.Fitness>
19.6744

> <Gold.Chemscore.DG>
-21.5366

> <Gold.Chemscore.ZeroCoef>
-5.4800

> <Gold.Chemscore.Hbond>
2.8061

> <Gold.Chemscore.Metal>
0.0000

> <Gold.Chemscore.Lipo>
87.9085

> <Gold.Chemscore.Internal_Hbond>
0.0000

> <Gold.Chemscore.DEClash>
0.0497

> <Gold.Chemscore.DEInternal>
1.8125

> <Gold.Chemscore.Rot>
1.4067

> <Gold.Chemscore.Internal.Correction>
   9.000000E+99

> <Gold.Chemscore.Hbonds>
donor molecule, donor type, donor heavy atom, donor atom, acceptor molecule, acceptor atom, score
      P1  H  6896  6908       L1     1  0.97
      P1  H  6934  6947       L1    13  0.64
      P1  H  7989  7998       L1    19  0.65

> <Gold.Chemscore.Hbond.Weighted>
-9.3724

> <Gold.Chemscore.Metal.Weighted>
-0.0000

> <Gold.Chemscore.Lipo.Weighted>
-10.2853

> <Gold.Chemscore.Internal_Hbond.Weighted>
0.0000

> <Gold.Chemscore.DEClash.Weighted>
0.0497

> <Gold.Chemscore.DEInternal.Weighted>
1.8125

> <Gold.Chemscore.Rot.Weighted>
3.6011

> <Gold.Chemscore.Internal.Correction.Weighted>
   9.000000E+99

> <Gold.Protein.RotatedTorsions>
[ 6907 6896 6895 6894 ] final -149.94 input  -60.11 | X-H torsion
[ 7974 7965 7964 7962 ] final  -38.06 input  175.53 | X-H torsion
[ 8008 7997 7996 7995 ] final -104.25 input   59.86 | X-H torsion
[ 10167 10162 10161 10158 ] final  146.65 input  -65.29 | X-H torsion
[ 10718 10713 10712 10709 ] final   53.91 input   66.30 | X-H torsion
[ 10763 10752 10751 10750 ] final  130.17 input  -60.55 | X-H torsion
[ 11005 11000 10999 10996 ] final  -76.09 input  -57.11 | X-H torsion

> <Gold.Protein.ActiveResidues>
 VAL166  LYS551  ARG553  GLY616  TRP617  ASP618  TYR619  PRO620  LYS621  CYS622 
 ASP623  PHE694  ASN695  SER759  ASP760  ASP761  ALA762  ILE779  LEU786  VAL792 
 PHE793  MET794  SER795  GLU796  ALA797  LYS798  CYS799  TRP800  GLU811  SER814 

> <Gold.Protein.RotatedAtoms>
  151.1913  133.4665  159.2594 H   0  0  0  0  0  0  0  0  0  0  0  0  # atno 6907 bound_to 6896
  151.1160  135.0053  159.8526 H   0  0  0  0  0  0  0  0  0  0  0  0  # atno 6908 bound_to 6896
  152.5453  134.1829  159.8695 H   0  0  0  0  0  0  0  0  0  0  0  0  # atno 6909 bound_to 6896
  146.0520  140.6468  142.9037 H   0  0  0  0  0  0  0  0  0  0  0  0  # atno 7974 bound_to 7965
  154.8827  140.0418  157.1792 H   0  0  0  0  0  0  0  0  0  0  0  0  # atno 8008 bound_to 7997
  154.8623  140.2946  155.5511 H   0  0  0  0  0  0  0  0  0  0  0  0  # atno 8009 bound_to 7997
  156.2998  140.2444  156.3599 H   0  0  0  0  0  0  0  0  0  0  0  0  # atno 8010 bound_to 7997
  139.4903  144.5813  151.6865 H   0  0  0  0  0  0  0  0  0  0  0  0  # atno 10167 bound_to 10162
  157.5209  130.8564  149.8558 H   0  0  0  0  0  0  0  0  0  0  0  0  # atno 10718 bound_to 10713
  153.7536  135.3206  155.3325 H   0  0  0  0  0  0  0  0  0  0  0  0  # atno 10763 bound_to 10752
  154.8254  135.4573  154.0907 H   0  0  0  0  0  0  0  0  0  0  0  0  # atno 10764 bound_to 10752
  153.2117  135.6936  153.8188 H   0  0  0  0  0  0  0  0  0  0  0  0  # atno 10765 bound_to 10752
  141.1651  133.6971  156.7616 H   0  0  0  0  0  0  0  0  0  0  0  0  # atno 11005 bound_to 11000
  144.7127  140.4099  143.7068 LP  0  0  0  0  0  0  0  0  0  0  0  0  # atno 17320 bound_to 7965
  145.6709  139.1599  143.2755 LP  0  0  0  0  0  0  0  0  0  0  0  0  # atno 17321 bound_to 7965
  140.5420  144.0563  150.6092 LP  0  0  0  0  0  0  0  0  0  0  0  0  # atno 17342 bound_to 10162
  140.3589  143.2919  152.0406 LP  0  0  0  0  0  0  0  0  0  0  0  0  # atno 17343 bound_to 10162
  156.0353  130.3753  150.1577 LP  0  0  0  0  0  0  0  0  0  0  0  0  # atno 17370 bound_to 10713
  156.9765  130.9851  151.3447 LP  0  0  0  0  0  0  0  0  0  0  0  0  # atno 17371 bound_to 10713
  140.2529  134.8526  157.3685 LP  0  0  0  0  0  0  0  0  0  0  0  0  # atno 17394 bound_to 11000
  140.1685  134.4639  155.7847 LP  0  0  0  0  0  0  0  0  0  0  0  0  # atno 17395 bound_to 11000

$$$$
