AV-unprocessed.smi:2620|AV-procd|sdf|10224|dock5
  -GOLD-   2272014233D 1   1.00000     0.00000
 Structure written by MMmdl.
 35 36  0  0  0  0  0  0  0  0  2 V2000
  152.2132  143.7772  158.8999 C   0  0  0  0  0  0  0  0  0  0  0  0
  150.9028  143.2607  159.0536 O   0  0  0  0  0  0  0  0  0  0  0  0
  150.6775  142.1087  158.2594 C   0  0  0  0  0  0  0  0  0  0  0  0
  150.7457  142.5064  156.7776 C   0  0  0  0  0  0  0  0  0  0  0  0
  150.3276  141.4003  155.9063 N   0  0  0  0  0  0  0  0  0  0  0  0
  149.1302  141.5766  155.1866 C   0  0  0  0  0  0  0  0  0  0  0  0
  148.6455  140.6339  154.3564 C   0  0  0  0  0  0  0  0  0  0  0  0
  147.3737  140.8581  153.6264 C   0  0  0  0  0  0  0  0  0  0  0  0
  147.0953  140.2035  152.6204 O   0  0  0  0  0  0  0  0  0  0  0  0
  146.4294  141.8839  154.1637 C   0  0  0  0  0  0  0  0  0  0  0  0
  145.7850  142.7613  153.2593 C   0  0  0  0  0  0  0  0  0  0  0  0
  144.8975  143.7501  153.7236 C   0  0  0  0  0  0  0  0  0  0  0  0
  144.6426  143.8743  155.1006 C   0  0  0  0  0  0  0  0  0  0  0  0
  145.2738  143.0072  156.0110 C   0  0  0  0  0  0  0  0  0  0  0  0
  146.1636  142.0133  155.5543 C   0  0  0  0  0  0  0  0  0  0  0  0
  146.7299  141.1844  156.4840 O   0  5  0  0  0  0  0  0  0  0  0  0
  149.3961  139.3994  154.2301 C   0  0  0  0  0  0  0  0  0  0  0  0
  150.5370  139.2201  154.9249 C   0  0  0  0  0  0  0  0  0  0  0  0
  151.2854  138.0114  154.8222 C   0  0  0  0  0  0  0  0  0  0  0  0
  151.8788  137.0223  154.7241 N   0  0  0  0  0  0  0  0  0  0  0  0
  151.0662  140.2520  155.8278 C   0  0  0  0  0  0  0  0  0  0  0  0
  152.1025  140.0998  156.4771 O   0  0  0  0  0  0  0  0  0  0  0  0
  152.3363  144.6576  159.5307 H   0  0  0  0  0  0  0  0  0  0  0  0
  152.4017  144.0740  157.8673 H   0  0  0  0  0  0  0  0  0  0  0  0
  152.9640  143.0437  159.1962 H   0  0  0  0  0  0  0  0  0  0  0  0
  151.4286  141.3495  158.4838 H   0  0  0  0  0  0  0  0  0  0  0  0
  149.6991  141.6834  158.4895 H   0  0  0  0  0  0  0  0  0  0  0  0
  150.1133  143.3787  156.6055 H   0  0  0  0  0  0  0  0  0  0  0  0
  151.7552  142.8367  156.5266 H   0  0  0  0  0  0  0  0  0  0  0  0
  148.6384  142.5241  155.3583 H   0  0  0  0  0  0  0  0  0  0  0  0
  145.9747  142.6880  152.1982 H   0  0  0  0  0  0  0  0  0  0  0  0
  144.4150  144.4154  153.0231 H   0  0  0  0  0  0  0  0  0  0  0  0
  143.9630  144.6330  155.4594 H   0  0  0  0  0  0  0  0  0  0  0  0
  145.0693  143.1053  157.0675 H   0  0  0  0  0  0  0  0  0  0  0  0
  149.0412  138.6054  153.5886 H   0  0  0  0  0  0  0  0  0  0  0  0
  1  2  1  0  0  0  0
  1 23  1  0  0  0  0
  1 24  1  0  0  0  0
  1 25  1  0  0  0  0
  2  3  1  0  0  0  0
  3  4  1  0  0  0  0
  3 26  1  0  0  0  0
  3 27  1  0  0  0  0
  4  5  1  0  0  0  0
  4 28  1  0  0  0  0
  4 29  1  0  0  0  0
  5 21  1  0  0  0  0
  5  6  1  0  0  0  0
  6  7  2  0  0  0  0
  6 30  1  0  0  0  0
  7  8  1  0  0  0  0
  7 17  1  0  0  0  0
  8  9  2  0  0  0  0
  8 10  1  0  0  0  0
 10 15  1  0  0  0  0
 10 11  2  0  0  0  0
 11 12  1  0  0  0  0
 11 31  1  0  0  0  0
 12 13  2  0  0  0  0
 12 32  1  0  0  0  0
 13 14  1  0  0  0  0
 13 33  1  0  0  0  0
 14 15  2  0  0  0  0
 14 34  1  0  0  0  0
 15 16  1  0  0  0  0
 17 18  2  0  0  0  0
 17 35  1  0  0  0  0
 18 19  1  0  0  0  0
 18 21  1  0  0  0  0
 19 20  3  0  0  0  0
 21 22  2  0  0  0  0
M  CHG  1  16  -1
M  END
> <s_m_source_file>
AV-unprocessed.smi

> <i_m_source_file_index>
2620

> <i_lp_mmshare_version>
43012

> <i_f3d_flags>
0

> <s_epik_input>
W0NIM11PW0NIMl1bQ0gyXW4xW2NIXWMoW2NIXWMoQyNOKWMxPU8pQyg9TyljMltjSF1bY0hdW2NIXVtjSF1jMltPSF0=

> <s_epik_cmdline>
J2VwaWtfcHl0aG9uJywgJy1waCcsICc3LjAnLCAnLXRuJywgJzgnLCAnLW1hJywgJzIwMCcsICctbWV0YWxfYmluZGluZycsICctaW1hZScsICc8aW5maWxlLm1hZT4nLCAnLW9tYWUnLCAnPG91dGZpbGUubWFlPic=

> <r_epik_Ionization_Penalty>
0.694682

> <r_epik_Ionization_Penalty_Charging>
0.694682

> <r_epik_Ionization_Penalty_Neutral>
1.08437e-11

> <r_epik_State_Penalty>
0.716871

> <r_epik_Charging_Adjusted_Penalty>
1.41155

> <i_epik_Tot_Q>
-1

> <i_epik_Tot_abs_Q>
1

> <r_epik_Metal_State_Penalty>
0.716871

> <b_epik_Metal_Only>
0

> <s_lp_Force_Field>
OPLS_2005

> <r_lp_Energy>
23.3851

> <b_lp_Chiralities_Consistent>
1

> <s_lp_Variant>
AV-unprocessed.smi:2620-2

> <Gold.Version>
5.8.1

> <Gold.Id.Protein>
6NUR|6NUR_protein|mol2

> <Gold.PLP.Fitness>
54.7355

> <Gold.PLP.PLP>
-45.9059

> <Gold.PLP.part.hbond>
-2.0000

> <Gold.PLP.part.metal>
0.0000

> <Gold.PLP.part.buried>
-6.1640

> <Gold.PLP.part.nonpolar>
-39.1881

> <Gold.PLP.part.repulsive>
1.3684

> <Gold.PLP.ligand.clash>
0.0000

> <Gold.PLP.ligand.torsion>
0.9485

> <Gold.PLP.Chemscore.Hbond>
2.0000

> <Gold.PLP.Chemscore.CHOScore>
1.0000

> <Gold.PLP.Chemscore.Metal>
0.0000

> <Gold.Chemscore.Hbonds>
donor molecule, donor type, donor heavy atom, donor atom, acceptor molecule, acceptor atom, score
      P1  H  7997  8008       L1    22  0.47
      P1  H 10752 10765       L1    20  0.94
      L1  C     6    30       P1  8028  1.00

> <Gold.PLP.Chemscore.Internal.Correction>
1.7265

> <Gold.Rescore>
     Score         DG    S(hbond)    S(metal)    S(lipo)     H(rot)  DE(clash)    DE(int)     intcor
     14.87     -17.64       1.64        0.00      88.55       1.44       0.49       2.28       ----

> <Gold.Chemscore.Fitness>
14.8701

> <Gold.Chemscore.DG>
-17.6447

> <Gold.Chemscore.ZeroCoef>
-5.4800

> <Gold.Chemscore.Hbond>
1.6419

> <Gold.Chemscore.Metal>
0.0000

> <Gold.Chemscore.Lipo>
88.5503

> <Gold.Chemscore.Internal_Hbond>
0.0000

> <Gold.Chemscore.DEClash>
0.4920

> <Gold.Chemscore.DEInternal>
2.2826

> <Gold.Chemscore.Rot>
1.4374

> <Gold.Chemscore.Internal.Correction>
   9.000000E+99

> <Gold.Chemscore.Hbonds>
donor molecule, donor type, donor heavy atom, donor atom, acceptor molecule, acceptor atom, score
      P1  H  7997  8008       L1    22  0.47
      P1  H 10752 10765       L1    20  0.91

> <Gold.Chemscore.Hbond.Weighted>
-5.4841

> <Gold.Chemscore.Metal.Weighted>
-0.0000

> <Gold.Chemscore.Lipo.Weighted>
-10.3604

> <Gold.Chemscore.Internal_Hbond.Weighted>
0.0000

> <Gold.Chemscore.DEClash.Weighted>
0.4920

> <Gold.Chemscore.DEInternal.Weighted>
2.2826

> <Gold.Chemscore.Rot.Weighted>
3.6797

> <Gold.Chemscore.Internal.Correction.Weighted>
   9.000000E+99

> <Gold.Protein.RotatedTorsions>
[ 6907 6896 6895 6894 ] final   -4.80 input  -60.11 | X-H torsion
[ 7974 7965 7964 7962 ] final  145.51 input  175.53 | X-H torsion
[ 8008 7997 7996 7995 ] final  -53.78 input   59.86 | X-H torsion
[ 10167 10162 10161 10158 ] final  -64.09 input  -65.29 | X-H torsion
[ 10718 10713 10712 10709 ] final -127.60 input   66.30 | X-H torsion
[ 10763 10752 10751 10750 ] final  157.12 input  -60.55 | X-H torsion
[ 11005 11000 10999 10996 ] final  -42.85 input  -57.11 | X-H torsion

> <Gold.Protein.ActiveResidues>
 VAL166  LYS551  ARG553  GLY616  TRP617  ASP618  TYR619  PRO620  LYS621  CYS622 
 ASP623  PHE694  ASN695  SER759  ASP760  ASP761  ALA762  ILE779  LEU786  VAL792 
 PHE793  MET794  SER795  GLU796  ALA797  LYS798  CYS799  TRP800  GLU811  SER814 

> <Gold.Protein.RotatedAtoms>
  151.4918  135.1058  159.9805 H   0  0  0  0  0  0  0  0  0  0  0  0  # atno 6907 bound_to 6896
  152.4738  133.8086  159.7002 H   0  0  0  0  0  0  0  0  0  0  0  0  # atno 6908 bound_to 6896
  150.8763  133.7372  159.2972 H   0  0  0  0  0  0  0  0  0  0  0  0  # atno 6909 bound_to 6896
  144.8747  139.5791  143.5870 H   0  0  0  0  0  0  0  0  0  0  0  0  # atno 7974 bound_to 7965
  154.4143  140.1192  156.5209 H   0  0  0  0  0  0  0  0  0  0  0  0  # atno 8008 bound_to 7997
  155.6703  140.3496  155.4796 H   0  0  0  0  0  0  0  0  0  0  0  0  # atno 8009 bound_to 7997
  155.9638  140.1128  157.0862 H   0  0  0  0  0  0  0  0  0  0  0  0  # atno 8010 bound_to 7997
  140.5825  143.2329  151.6312 H   0  0  0  0  0  0  0  0  0  0  0  0  # atno 10167 bound_to 10162
  156.1873  130.6771  151.0380 H   0  0  0  0  0  0  0  0  0  0  0  0  # atno 10718 bound_to 10713
  154.1952  135.2793  155.3009 H   0  0  0  0  0  0  0  0  0  0  0  0  # atno 10763 bound_to 10752
  154.5898  135.5563  153.7270 H   0  0  0  0  0  0  0  0  0  0  0  0  # atno 10764 bound_to 10752
  153.0102  135.6365  154.2090 H   0  0  0  0  0  0  0  0  0  0  0  0  # atno 10765 bound_to 10752
  141.0344  133.6806  156.2652 H   0  0  0  0  0  0  0  0  0  0  0  0  # atno 11005 bound_to 11000
  146.2954  139.7263  142.9130 LP  0  0  0  0  0  0  0  0  0  0  0  0  # atno 17320 bound_to 7965
  145.4065  141.0391  143.3041 LP  0  0  0  0  0  0  0  0  0  0  0  0  # atno 17321 bound_to 7965
  139.5178  144.3304  152.0832 LP  0  0  0  0  0  0  0  0  0  0  0  0  # atno 17342 bound_to 10162
  140.2456  144.4223  150.6242 LP  0  0  0  0  0  0  0  0  0  0  0  0  # atno 17343 bound_to 10162
  157.6906  131.0811  150.7117 LP  0  0  0  0  0  0  0  0  0  0  0  0  # atno 17370 bound_to 10713
  156.7173  130.4670  149.5532 LP  0  0  0  0  0  0  0  0  0  0  0  0  # atno 17371 bound_to 10713
  140.6348  134.5226  157.5563 LP  0  0  0  0  0  0  0  0  0  0  0  0  # atno 17394 bound_to 11000
  139.9230  134.8111  156.1152 LP  0  0  0  0  0  0  0  0  0  0  0  0  # atno 17395 bound_to 11000

$$$$
