AV-unprocessed.smi:2063|AV-procd|sdf|8410|dock10
  -GOLD-   2272011103D 1   1.00000     0.00000
 Structure written by MMmdl.
 39 40  0  0  0  0  0  0  0  0  1 V2000
  151.9495  140.5246  156.0734 C   0  0  0  0  0  0  0  0  0  0  0  0
  150.6600  141.3435  155.9150 C   0  0  0  0  0  0  0  0  0  0  0  0
  150.1156  141.8747  157.2490 C   0  0  0  0  0  0  0  0  0  0  0  0
  149.6169  140.6077  155.1328 C   0  0  0  0  0  0  0  0  0  0  0  0
  148.3884  141.0966  154.9154 N   0  0  0  0  0  0  0  0  0  0  0  0
  147.6011  140.2337  154.1667 N   0  0  0  0  0  0  0  0  0  0  0  0
  148.2596  139.1140  153.8386 C   0  0  0  0  0  0  0  0  0  0  0  0
  147.6925  138.0599  153.0745 N   0  0  0  0  0  0  0  0  0  0  0  0
  146.4123  137.6502  153.0405 C   0  0  0  0  0  0  0  0  0  0  0  0
  145.4915  138.1386  153.6961 O   0  0  0  0  0  0  0  0  0  0  0  0
  146.2557  136.6250  152.1898 N   0  0  0  0  0  0  0  0  0  0  0  0
  144.9957  135.9431  151.9019 C   0  0  2  0  0  0  0  0  0  0  0  0
  144.3585  135.5142  153.2327 C   0  0  0  0  0  0  0  0  0  0  0  0
  145.2481  134.7449  150.9630 C   0  0  1  0  0  0  0  0  0  0  0  0
  146.2475  133.7154  151.4925 C   0  0  0  0  0  0  0  0  0  0  0  0
  145.8651  132.4371  150.7634 C   0  0  0  0  0  0  0  0  0  0  0  0
  144.4590  132.7200  150.2285 C   0  0  0  0  0  0  0  0  0  0  0  0
  144.0775  133.9552  150.8168 O   0  0  0  0  0  0  0  0  0  0  0  0
  149.9122  139.0239  154.4228 S   0  0  0  0  0  0  0  0  0  0  0  0
  152.3517  140.2348  155.1021 H   0  0  0  0  0  0  0  0  0  0  0  0
  151.7742  139.6136  156.6466 H   0  0  0  0  0  0  0  0  0  0  0  0
  152.7181  141.0990  156.5910 H   0  0  0  0  0  0  0  0  0  0  0  0
  150.9260  142.2202  155.3230 H   0  0  0  0  0  0  0  0  0  0  0  0
  149.2535  142.5235  157.0898 H   0  0  0  0  0  0  0  0  0  0  0  0
  150.8717  142.4548  157.7786 H   0  0  0  0  0  0  0  0  0  0  0  0
  149.8040  141.0598  157.9035 H   0  0  0  0  0  0  0  0  0  0  0  0
  148.3385  137.5579  152.4838 H   0  0  0  0  0  0  0  0  0  0  0  0
  147.0700  136.2935  151.6941 H   0  0  0  0  0  0  0  0  0  0  0  0
  144.3073  136.6359  151.4143 H   0  0  0  0  0  0  0  0  0  0  0  0
  143.3827  135.0539  153.0767 H   0  0  0  0  0  0  0  0  0  0  0  0
  144.2101  136.3712  153.8905 H   0  0  0  0  0  0  0  0  0  0  0  0
  144.9856  134.7945  153.7600 H   0  0  0  0  0  0  0  0  0  0  0  0
  145.5626  135.0931  149.9768 H   0  0  0  0  0  0  0  0  0  0  0  0
  147.2844  134.0051  151.3203 H   0  0  0  0  0  0  0  0  0  0  0  0
  146.1104  133.5766  152.5660 H   0  0  0  0  0  0  0  0  0  0  0  0
  146.5514  132.2276  149.9421 H   0  0  0  0  0  0  0  0  0  0  0  0
  145.8785  131.5814  151.4395 H   0  0  0  0  0  0  0  0  0  0  0  0
  144.4759  132.8292  149.1433 H   0  0  0  0  0  0  0  0  0  0  0  0
  143.7484  131.9324  150.4804 H   0  0  0  0  0  0  0  0  0  0  0  0
  1  2  1  0  0  0  0
  1 20  1  0  0  0  0
  1 21  1  0  0  0  0
  1 22  1  0  0  0  0
  2  3  1  0  0  0  0
  2  4  1  0  0  0  0
  2 23  1  0  0  0  0
  3 24  1  0  0  0  0
  3 25  1  0  0  0  0
  3 26  1  0  0  0  0
  4 19  1  0  0  0  0
  4  5  2  0  0  0  0
  5  6  1  0  0  0  0
  6  7  2  0  0  0  0
  7  8  1  0  0  0  0
  7 19  1  0  0  0  0
  8  9  1  0  0  0  0
  8 27  1  0  0  0  0
  9 10  2  0  0  0  0
  9 11  1  0  0  0  0
 11 12  1  0  0  0  0
 11 28  1  0  0  0  0
 12 13  1  0  0  0  0
 12 14  1  0  0  0  0
 12 29  1  0  0  0  0
 13 30  1  0  0  0  0
 13 31  1  0  0  0  0
 13 32  1  0  0  0  0
 14 18  1  0  0  0  0
 14 15  1  0  0  0  0
 14 33  1  0  0  0  0
 15 16  1  0  0  0  0
 15 34  1  0  0  0  0
 15 35  1  0  0  0  0
 16 17  1  0  0  0  0
 16 36  1  0  0  0  0
 16 37  1  0  0  0  0
 17 18  1  0  0  0  0
 17 38  1  0  0  0  0
 17 39  1  0  0  0  0
M  END
> <s_m_source_file>
AV-unprocessed.smi

> <i_m_source_file_index>
2063

> <i_lp_mmshare_version>
43012

> <i_f3d_flags>
0

> <s_epik_input>
W0NIM11bQ0hdKFtDSDNdKWMxbm5jKHMxKVtOSF1DKD1PKVtOSF1bQ0BIXShbQ0gzXSlbQ0BASF0yW0NIMl1bQ0gyXVtDSDJdTzI=

> <s_epik_cmdline>
J2VwaWtfcHl0aG9uJywgJy1waCcsICc3LjAnLCAnLXRuJywgJzgnLCAnLW1hJywgJzIwMCcsICctbWV0YWxfYmluZGluZycsICctaW1hZScsICc8aW5maWxlLm1hZT4nLCAnLW9tYWUnLCAnPG91dGZpbGUubWFlPic=

> <r_lp_tautomer_probability>
1

> <r_epik_Ionization_Penalty>
0.00050567

> <r_epik_Ionization_Penalty_Charging>
0

> <r_epik_Ionization_Penalty_Neutral>
0.00050567

> <r_epik_State_Penalty>
-0

> <r_epik_Charging_Adjusted_Penalty>
0

> <i_epik_Tot_Q>
0

> <i_epik_Tot_abs_Q>
0

> <r_epik_Metal_State_Penalty>
0.219912

> <b_epik_Metal_Only>
0

> <s_lp_Force_Field>
OPLS_2005

> <r_lp_Energy>
10.8912

> <b_lp_Chiralities_Consistent>
1

> <s_lp_Variant>
AV-unprocessed.smi:2063-3

> <Gold.Version>
5.8.1

> <Gold.Id.Protein>
6NUR|6NUR_protein|mol2

> <Gold.PLP.Fitness>
35.3624

> <Gold.PLP.PLP>
-30.6153

> <Gold.PLP.part.hbond>
-2.1776

> <Gold.PLP.part.metal>
0.0000

> <Gold.PLP.part.buried>
-4.5367

> <Gold.PLP.part.nonpolar>
-25.3061

> <Gold.PLP.part.repulsive>
1.2308

> <Gold.PLP.ligand.clash>
0.0000

> <Gold.PLP.ligand.torsion>
0.4231

> <Gold.PLP.Chemscore.Hbond>
1.8320

> <Gold.PLP.Chemscore.CHOScore>
0.0000

> <Gold.PLP.Chemscore.Metal>
0.0000

> <Gold.Chemscore.Hbonds>
donor molecule, donor type, donor heavy atom, donor atom, acceptor molecule, acceptor atom, score
      L1  H     8    27       P1  7948  1.00
      L1  H    11    28       P1  7948  0.85

> <Gold.PLP.Chemscore.Internal.Correction>
0.0973

> <Gold.Rescore>
     Score         DG    S(hbond)    S(metal)    S(lipo)     H(rot)  DE(clash)    DE(int)     intcor
     13.47     -16.11       1.92        0.00      67.17       1.42       0.12       2.52       ----

> <Gold.Chemscore.Fitness>
13.4731

> <Gold.Chemscore.DG>
-16.1147

> <Gold.Chemscore.ZeroCoef>
-5.4800

> <Gold.Chemscore.Hbond>
1.9158

> <Gold.Chemscore.Metal>
0.0000

> <Gold.Chemscore.Lipo>
67.1704

> <Gold.Chemscore.Internal_Hbond>
0.0000

> <Gold.Chemscore.DEClash>
0.1199

> <Gold.Chemscore.DEInternal>
2.5217

> <Gold.Chemscore.Rot>
1.4152

> <Gold.Chemscore.Internal.Correction>
   9.000000E+99

> <Gold.Chemscore.Hbonds>
donor molecule, donor type, donor heavy atom, donor atom, acceptor molecule, acceptor atom, score
      L1  H     8    27       P1  7948  0.95
      L1  H    11    28       P1  7948  0.83

> <Gold.Chemscore.Hbond.Weighted>
-6.3987

> <Gold.Chemscore.Metal.Weighted>
-0.0000

> <Gold.Chemscore.Lipo.Weighted>
-7.8589

> <Gold.Chemscore.Internal_Hbond.Weighted>
0.0000

> <Gold.Chemscore.DEClash.Weighted>
0.1199

> <Gold.Chemscore.DEInternal.Weighted>
2.5217

> <Gold.Chemscore.Rot.Weighted>
3.6229

> <Gold.Chemscore.Internal.Correction.Weighted>
   9.000000E+99

> <Gold.Protein.RotatedTorsions>
[ 6907 6896 6895 6894 ] final   12.84 input  -60.11 | X-H torsion
[ 7974 7965 7964 7962 ] final   58.40 input  175.53 | X-H torsion
[ 8008 7997 7996 7995 ] final  -48.29 input   59.86 | X-H torsion
[ 10167 10162 10161 10158 ] final   62.86 input  -65.29 | X-H torsion
[ 10718 10713 10712 10709 ] final -103.02 input   66.30 | X-H torsion
[ 10763 10752 10751 10750 ] final   78.68 input  -60.55 | X-H torsion
[ 11005 11000 10999 10996 ] final  -95.90 input  -57.11 | X-H torsion

> <Gold.Protein.ActiveResidues>
 VAL166  LYS551  ARG553  GLY616  TRP617  ASP618  TYR619  PRO620  LYS621  CYS622 
 ASP623  PHE694  ASN695  SER759  ASP760  ASP761  ALA762  ILE779  LEU786  VAL792 
 PHE793  MET794  SER795  GLU796  ALA797  LYS798  CYS799  TRP800  GLU811  SER814 

> <Gold.Protein.RotatedAtoms>
  151.7768  135.0772  160.0367 H   0  0  0  0  0  0  0  0  0  0  0  0  # atno 6907 bound_to 6896
  152.3250  133.5891  159.5779 H   0  0  0  0  0  0  0  0  0  0  0  0  # atno 6908 bound_to 6896
  150.7391  133.9869  159.3636 H   0  0  0  0  0  0  0  0  0  0  0  0  # atno 6909 bound_to 6896
  145.9186  139.3711  143.0492 H   0  0  0  0  0  0  0  0  0  0  0  0  # atno 7974 bound_to 7965
  154.4027  140.1325  156.4315 H   0  0  0  0  0  0  0  0  0  0  0  0  # atno 8008 bound_to 7997
  155.7546  140.3487  155.5147 H   0  0  0  0  0  0  0  0  0  0  0  0  # atno 8009 bound_to 7997
  155.8916  140.1004  157.1404 H   0  0  0  0  0  0  0  0  0  0  0  0  # atno 8010 bound_to 7997
  140.1393  144.4569  150.6820 H   0  0  0  0  0  0  0  0  0  0  0  0  # atno 10167 bound_to 10162
  156.0250  130.5448  150.7193 H   0  0  0  0  0  0  0  0  0  0  0  0  # atno 10718 bound_to 10713
  153.0893  135.4868  154.8658 H   0  0  0  0  0  0  0  0  0  0  0  0  # atno 10763 bound_to 10752
  154.7249  135.3047  154.8989 H   0  0  0  0  0  0  0  0  0  0  0  0  # atno 10764 bound_to 10752
  153.9642  135.6809  153.4799 H   0  0  0  0  0  0  0  0  0  0  0  0  # atno 10765 bound_to 10752
  141.1428  133.8059  157.0498 H   0  0  0  0  0  0  0  0  0  0  0  0  # atno 11005 bound_to 11000
  145.8579  140.9492  143.0715 LP  0  0  0  0  0  0  0  0  0  0  0  0  # atno 17320 bound_to 7965
  144.6750  140.0492  143.7479 LP  0  0  0  0  0  0  0  0  0  0  0  0  # atno 17321 bound_to 7965
  140.6770  143.2309  151.5481 LP  0  0  0  0  0  0  0  0  0  0  0  0  # atno 17342 bound_to 10162
  139.5480  144.2470  152.1478 LP  0  0  0  0  0  0  0  0  0  0  0  0  # atno 17343 bound_to 10162
  157.4812  131.0902  151.0533 LP  0  0  0  0  0  0  0  0  0  0  0  0  # atno 17370 bound_to 10713
  157.0966  130.5964  149.5451 LP  0  0  0  0  0  0  0  0  0  0  0  0  # atno 17371 bound_to 10713
  140.0639  134.9739  157.1352 LP  0  0  0  0  0  0  0  0  0  0  0  0  # atno 17394 bound_to 11000
  140.3808  134.2289  155.7171 LP  0  0  0  0  0  0  0  0  0  0  0  0  # atno 17395 bound_to 11000

$$$$
