AV-unprocessed.smi:1346|AV-procd|sdf|5512|dock9
  -GOLD-   22720 5 93D 1   1.00000     0.00000
 Structure written by MMmdl.
 47 48  0  0  0  0  0  0  0  0  1 V2000
  152.9623  139.0242  154.0227 C   0  0  0  0  0  0  0  0  0  0  0  0
  152.2344  139.0772  155.3354 C   0  0  0  0  0  0  0  0  0  0  0  0
  152.8020  139.6764  156.3684 N   0  0  0  0  0  0  0  0  0  0  0  0
  151.8936  139.5614  157.4247 O   0  0  0  0  0  0  0  0  0  0  0  0
  150.8027  138.8864  156.9823 C   0  0  0  0  0  0  0  0  0  0  0  0
  149.7120  138.6671  157.9758 C   0  0  0  0  0  0  0  0  0  0  0  0
  150.9526  138.5490  155.6645 C   0  0  0  0  0  0  0  0  0  0  0  0
  150.0014  137.8006  154.7650 C   0  0  0  0  0  0  0  0  0  0  0  0
  150.4554  136.3487  154.6110 C   0  0  0  0  0  0  0  0  0  0  0  0
  151.5862  136.0180  154.9669 O   0  0  0  0  0  0  0  0  0  0  0  0
  149.5615  135.4931  154.0904 N   0  0  0  0  0  0  0  0  0  0  0  0
  149.7747  134.0628  153.8997 C   0  0  0  0  0  0  0  0  0  0  0  0
  148.4432  133.3244  153.7066 C   0  0  0  0  0  0  0  0  0  0  0  0
  147.7707  133.8598  152.5767 O   0  0  0  0  0  0  0  0  0  0  0  0
  146.4880  133.2983  152.3356 C   0  0  2  0  0  0  0  0  0  0  0  0
  146.6652  131.8409  151.8593 C   0  0  0  0  0  0  0  0  0  0  0  0
  145.3254  131.2147  151.4461 C   0  0  0  0  0  0  0  0  0  0  0  0
  144.6330  132.0599  150.3679 C   0  0  0  0  0  0  0  0  0  0  0  0
  144.4470  133.5102  150.8394 C   0  0  0  0  0  0  0  0  0  0  0  0
  145.7850  134.1533  151.2570 C   0  0  1  0  0  0  0  0  0  0  0  0
  145.5666  135.5995  151.7306 C   0  0  0  0  0  0  0  0  0  0  0  0
  152.2664  138.9506  153.1866 H   0  0  0  0  0  0  0  0  0  0  0  0
  153.6255  138.1601  153.9798 H   0  0  0  0  0  0  0  0  0  0  0  0
  153.5672  139.9179  153.8665 H   0  0  0  0  0  0  0  0  0  0  0  0
  148.9562  137.9845  157.5878 H   0  0  0  0  0  0  0  0  0  0  0  0
  149.2208  139.6085  158.2218 H   0  0  0  0  0  0  0  0  0  0  0  0
  150.1084  138.2411  158.8975 H   0  0  0  0  0  0  0  0  0  0  0  0
  148.9874  137.8158  155.1662 H   0  0  0  0  0  0  0  0  0  0  0  0
  149.9377  138.2568  153.7767 H   0  0  0  0  0  0  0  0  0  0  0  0
  148.6592  135.8585  153.8231 H   0  0  0  0  0  0  0  0  0  0  0  0
  150.3897  133.9399  153.0080 H   0  0  0  0  0  0  0  0  0  0  0  0
  150.3413  133.6323  154.7269 H   0  0  0  0  0  0  0  0  0  0  0  0
  148.6244  132.2545  153.5976 H   0  0  0  0  0  0  0  0  0  0  0  0
  147.8138  133.4570  154.5874 H   0  0  0  0  0  0  0  0  0  0  0  0
  145.8848  133.3210  153.2457 H   0  0  0  0  0  0  0  0  0  0  0  0
  147.3527  131.8161  151.0125 H   0  0  0  0  0  0  0  0  0  0  0  0
  147.1217  131.2333  152.6406 H   0  0  0  0  0  0  0  0  0  0  0  0
  145.4863  130.2010  151.0781 H   0  0  0  0  0  0  0  0  0  0  0  0
  144.6766  131.1289  152.3188 H   0  0  0  0  0  0  0  0  0  0  0  0
  145.2264  132.0450  149.4528 H   0  0  0  0  0  0  0  0  0  0  0  0
  143.6659  131.6234  150.1168 H   0  0  0  0  0  0  0  0  0  0  0  0
  143.9847  134.0942  150.0427 H   0  0  0  0  0  0  0  0  0  0  0  0
  143.7505  133.5307  151.6788 H   0  0  0  0  0  0  0  0  0  0  0  0
  146.4293  134.1863  150.3768 H   0  0  0  0  0  0  0  0  0  0  0  0
  144.9405  135.6338  152.6227 H   0  0  0  0  0  0  0  0  0  0  0  0
  145.0793  136.1958  150.9584 H   0  0  0  0  0  0  0  0  0  0  0  0
  146.5126  136.0863  151.9695 H   0  0  0  0  0  0  0  0  0  0  0  0
  1  2  1  0  0  0  0
  1 22  1  0  0  0  0
  1 23  1  0  0  0  0
  1 24  1  0  0  0  0
  2  7  1  0  0  0  0
  2  3  2  0  0  0  0
  3  4  1  0  0  0  0
  4  5  1  0  0  0  0
  5  6  1  0  0  0  0
  5  7  2  0  0  0  0
  6 25  1  0  0  0  0
  6 26  1  0  0  0  0
  6 27  1  0  0  0  0
  7  8  1  0  0  0  0
  8  9  1  0  0  0  0
  8 28  1  0  0  0  0
  8 29  1  0  0  0  0
  9 10  2  0  0  0  0
  9 11  1  0  0  0  0
 11 12  1  0  0  0  0
 11 30  1  0  0  0  0
 12 13  1  0  0  0  0
 12 31  1  0  0  0  0
 12 32  1  0  0  0  0
 13 14  1  0  0  0  0
 13 33  1  0  0  0  0
 13 34  1  0  0  0  0
 14 15  1  0  0  0  0
 15 20  1  0  0  0  0
 15 16  1  0  0  0  0
 15 35  1  0  0  0  0
 16 17  1  0  0  0  0
 16 36  1  0  0  0  0
 16 37  1  0  0  0  0
 17 18  1  0  0  0  0
 17 38  1  0  0  0  0
 17 39  1  0  0  0  0
 18 19  1  0  0  0  0
 18 40  1  0  0  0  0
 18 41  1  0  0  0  0
 19 20  1  0  0  0  0
 19 42  1  0  0  0  0
 19 43  1  0  0  0  0
 20 21  1  0  0  0  0
 20 44  1  0  0  0  0
 21 45  1  0  0  0  0
 21 46  1  0  0  0  0
 21 47  1  0  0  0  0
M  END
> <s_m_source_file>
AV-unprocessed.smi

> <i_m_source_file_index>
1346

> <i_lp_mmshare_version>
43012

> <i_f3d_flags>
0

> <s_epik_input>
W0NIM11jMW5vYyhbQ0gzXSljMVtDSDJdQyg9TylbTkhdW0NIMl1bQ0gyXU9bQ0BASF0yW0NIMl1bQ0gyXVtDSDJdW0NIMl1bQ0BIXTJbQ0gzXQ==

> <s_epik_cmdline>
J2VwaWtfcHl0aG9uJywgJy1waCcsICc3LjAnLCAnLXRuJywgJzgnLCAnLW1hJywgJzIwMCcsICctbWV0YWxfYmluZGluZycsICctaW1hZScsICc8aW5maWxlLm1hZT4nLCAnLW9tYWUnLCAnPG91dGZpbGUubWFlPic=

> <r_lp_tautomer_probability>
1

> <r_epik_Ionization_Penalty>
3.26154e-08

> <r_epik_Ionization_Penalty_Charging>
0

> <r_epik_Ionization_Penalty_Neutral>
3.26154e-08

> <r_epik_State_Penalty>
-0

> <r_epik_Charging_Adjusted_Penalty>
0

> <i_epik_Tot_Q>
0

> <i_epik_Tot_abs_Q>
0

> <r_epik_Metal_State_Penalty>
-0

> <b_epik_Metal_Only>
0

> <s_lp_Force_Field>
OPLS_2005

> <r_lp_Energy>
5.71646

> <b_lp_Chiralities_Consistent>
1

> <s_lp_Variant>
AV-unprocessed.smi:1346-1

> <Gold.Version>
5.8.1

> <Gold.Id.Protein>
6NUR|6NUR_protein|mol2

> <Gold.PLP.Fitness>
40.1992

> <Gold.PLP.PLP>
-34.6477

> <Gold.PLP.part.hbond>
-3.0000

> <Gold.PLP.part.metal>
0.0000

> <Gold.PLP.part.buried>
-5.6753

> <Gold.PLP.part.nonpolar>
-26.7711

> <Gold.PLP.part.repulsive>
1.5377

> <Gold.PLP.ligand.clash>
0.0000

> <Gold.PLP.ligand.torsion>
0.5943

> <Gold.PLP.Chemscore.Hbond>
2.2122

> <Gold.PLP.Chemscore.CHOScore>
0.0000

> <Gold.PLP.Chemscore.Metal>
0.0000

> <Gold.Chemscore.Hbonds>
donor molecule, donor type, donor heavy atom, donor atom, acceptor molecule, acceptor atom, score
      P1  H  7997  8009       L1     3  1.00
      P1  H 10752 10763       L1    10  1.00

> <Gold.PLP.Chemscore.Internal.Correction>
0.1036

> <Gold.Rescore>
     Score         DG    S(hbond)    S(metal)    S(lipo)     H(rot)  DE(clash)    DE(int)     intcor
     17.74     -19.11       2.24        0.00      90.52       1.74       0.16       1.21       ----

> <Gold.Chemscore.Fitness>
17.7387

> <Gold.Chemscore.DG>
-19.1113

> <Gold.Chemscore.ZeroCoef>
-5.4800

> <Gold.Chemscore.Hbond>
2.2401

> <Gold.Chemscore.Metal>
0.0000

> <Gold.Chemscore.Lipo>
90.5240

> <Gold.Chemscore.Internal_Hbond>
0.0000

> <Gold.Chemscore.DEClash>
0.1606

> <Gold.Chemscore.DEInternal>
1.2120

> <Gold.Chemscore.Rot>
1.7352

> <Gold.Chemscore.Internal.Correction>
   9.000000E+99

> <Gold.Chemscore.Hbonds>
donor molecule, donor type, donor heavy atom, donor atom, acceptor molecule, acceptor atom, score
      L1  H    11    30       P1  7948  0.05
      P1  H  7997  8009       L1     3  0.97
      P1  H 10752 10763       L1    10  0.89

> <Gold.Chemscore.Hbond.Weighted>
-7.4820

> <Gold.Chemscore.Metal.Weighted>
-0.0000

> <Gold.Chemscore.Lipo.Weighted>
-10.5913

> <Gold.Chemscore.Internal_Hbond.Weighted>
0.0000

> <Gold.Chemscore.DEClash.Weighted>
0.1606

> <Gold.Chemscore.DEInternal.Weighted>
1.2120

> <Gold.Chemscore.Rot.Weighted>
4.4420

> <Gold.Chemscore.Internal.Correction.Weighted>
   9.000000E+99

> <Gold.Protein.RotatedTorsions>
[ 6907 6896 6895 6894 ] final   15.09 input  -60.11 | X-H torsion
[ 7974 7965 7964 7962 ] final  -18.56 input  175.53 | X-H torsion
[ 8008 7997 7996 7995 ] final -161.85 input   59.86 | X-H torsion
[ 10167 10162 10161 10158 ] final   92.39 input  -65.29 | X-H torsion
[ 10718 10713 10712 10709 ] final -161.08 input   66.30 | X-H torsion
[ 10763 10752 10751 10750 ] final   80.21 input  -60.55 | X-H torsion
[ 11005 11000 10999 10996 ] final   37.62 input  -57.11 | X-H torsion

> <Gold.Protein.ActiveResidues>
 VAL166  LYS551  ARG553  GLY616  TRP617  ASP618  TYR619  PRO620  LYS621  CYS622 
 ASP623  PHE694  ASN695  SER759  ASP760  ASP761  ALA762  ILE779  LEU786  VAL792 
 PHE793  MET794  SER795  GLU796  ALA797  LYS798  CYS799  TRP800  GLU811  SER814 

> <Gold.Protein.RotatedAtoms>
  151.8125  135.0676  160.0414 H   0  0  0  0  0  0  0  0  0  0  0  0  # atno 6907 bound_to 6896
  152.3010  133.5651  159.5627 H   0  0  0  0  0  0  0  0  0  0  0  0  # atno 6908 bound_to 6896
  150.7273  134.0208  159.3742 H   0  0  0  0  0  0  0  0  0  0  0  0  # atno 6909 bound_to 6896
  146.1886  140.3938  142.8467 H   0  0  0  0  0  0  0  0  0  0  0  0  # atno 7974 bound_to 7965
  155.7982  140.0888  157.1972 H   0  0  0  0  0  0  0  0  0  0  0  0  # atno 8008 bound_to 7997
  154.3983  140.1477  156.3302 H   0  0  0  0  0  0  0  0  0  0  0  0  # atno 8009 bound_to 7997
  155.8489  140.3435  155.5683 H   0  0  0  0  0  0  0  0  0  0  0  0  # atno 8010 bound_to 7997
  139.8282  144.6700  150.9433 H   0  0  0  0  0  0  0  0  0  0  0  0  # atno 10167 bound_to 10162
  156.5912  130.8771  151.2890 H   0  0  0  0  0  0  0  0  0  0  0  0  # atno 10718 bound_to 10713
  153.1015  135.4811  154.8875 H   0  0  0  0  0  0  0  0  0  0  0  0  # atno 10763 bound_to 10752
  154.7383  135.3076  154.8774 H   0  0  0  0  0  0  0  0  0  0  0  0  # atno 10764 bound_to 10752
  153.9390  135.6836  153.4798 H   0  0  0  0  0  0  0  0  0  0  0  0  # atno 10765 bound_to 10752
  140.2207  134.3644  155.8006 H   0  0  0  0  0  0  0  0  0  0  0  0  # atno 11005 bound_to 11000
  144.8444  140.6906  143.6209 LP  0  0  0  0  0  0  0  0  0  0  0  0  # atno 17320 bound_to 7965
  145.3862  139.1626  143.4253 LP  0  0  0  0  0  0  0  0  0  0  0  0  # atno 17321 bound_to 7965
  140.7808  143.4026  151.1123 LP  0  0  0  0  0  0  0  0  0  0  0  0  # atno 17342 bound_to 10162
  139.7682  143.8534  152.3115 LP  0  0  0  0  0  0  0  0  0  0  0  0  # atno 17343 bound_to 10162
  157.7303  130.9684  150.1827 LP  0  0  0  0  0  0  0  0  0  0  0  0  # atno 17370 bound_to 10713
  156.2548  130.3704  149.8193 LP  0  0  0  0  0  0  0  0  0  0  0  0  # atno 17371 bound_to 10713
  141.2223  133.7192  156.8571 LP  0  0  0  0  0  0  0  0  0  0  0  0  # atno 17394 bound_to 11000
  140.1852  134.9005  157.2996 LP  0  0  0  0  0  0  0  0  0  0  0  0  # atno 17395 bound_to 11000

$$$$
