AV-unprocessed.smi:525|AV-procd|sdf|2809|dock8
  -GOLD-   2262023283D 1   1.00000     0.00000
 Structure written by MMmdl.
 44 46  0  0  0  0  0  0  0  0  2 V2000
  141.5578  138.1029  153.4504 C   0  0  0  0  0  0  0  0  0  0  0  0
  141.5285  136.7956  153.9961 O   0  0  0  0  0  0  0  0  0  0  0  0
  142.7455  136.0976  153.7979 C   0  0  0  0  0  0  0  0  0  0  0  0
  142.9492  135.8796  152.2938 C   0  0  0  0  0  0  0  0  0  0  0  0
  144.3299  135.4904  151.9807 N   0  0  0  0  0  0  0  0  0  0  0  0
  145.5035  136.1491  152.1911 C   0  0  0  0  0  0  0  0  0  0  0  0
  145.6828  137.7406  152.9354 S   0  0  0  0  0  0  0  0  0  0  0  0
  147.4068  137.8520  153.5196 C   0  0  2  0  0  0  0  0  0  0  0  0
  147.7197  136.9119  154.6913 C   0  0  0  0  0  0  0  0  0  0  0  0
  148.6126  135.9369  154.4948 N   0  0  0  0  0  0  0  0  0  0  0  0
  147.1482  137.0614  155.7691 O   0  0  0  0  0  0  0  0  0  0  0  0
  147.7705  139.2905  153.8792 C   0  0  0  0  0  0  0  0  0  0  0  0
  146.8303  140.3393  153.7526 C   0  0  0  0  0  0  0  0  0  0  0  0
  147.1904  141.6613  154.0770 C   0  0  0  0  0  0  0  0  0  0  0  0
  148.4916  141.9461  154.5320 C   0  0  0  0  0  0  0  0  0  0  0  0
  149.4321  140.9071  154.6649 C   0  0  0  0  0  0  0  0  0  0  0  0
  149.0726  139.5850  154.3402 C   0  0  0  0  0  0  0  0  0  0  0  0
  146.5079  135.3618  151.7153 N   0  3  0  0  0  0  0  0  0  0  0  0
  145.9706  134.1891  151.1835 C   0  0  0  0  0  0  0  0  0  0  0  0
  146.5862  133.0956  150.5826 C   0  0  0  0  0  0  0  0  0  0  0  0
  145.7399  132.0575  150.1404 C   0  0  0  0  0  0  0  0  0  0  0  0
  144.3410  132.1310  150.3018 C   0  0  0  0  0  0  0  0  0  0  0  0
  143.7278  133.2445  150.9134 C   0  0  0  0  0  0  0  0  0  0  0  0
  144.5716  134.2657  151.3489 C   0  0  0  0  0  0  0  0  0  0  0  0
  140.6039  138.5976  153.6326 H   0  0  0  0  0  0  0  0  0  0  0  0
  141.7223  138.0760  152.3724 H   0  0  0  0  0  0  0  0  0  0  0  0
  142.3425  138.7054  153.9098 H   0  0  0  0  0  0  0  0  0  0  0  0
  143.5763  136.6705  154.2129 H   0  0  0  0  0  0  0  0  0  0  0  0
  142.7143  135.1371  154.3153 H   0  0  0  0  0  0  0  0  0  0  0  0
  142.2884  135.0902  151.9345 H   0  0  0  0  0  0  0  0  0  0  0  0
  142.6959  136.7762  151.7274 H   0  0  0  0  0  0  0  0  0  0  0  0
  148.0298  137.5358  152.6816 H   0  0  0  0  0  0  0  0  0  0  0  0
  148.8392  135.3006  155.2453 H   0  0  0  0  0  0  0  0  0  0  0  0
  149.0572  135.8392  153.5933 H   0  0  0  0  0  0  0  0  0  0  0  0
  145.8277  140.1363  153.4056 H   0  0  0  0  0  0  0  0  0  0  0  0
  146.4673  142.4576  153.9772 H   0  0  0  0  0  0  0  0  0  0  0  0
  148.7676  142.9601  154.7813 H   0  0  0  0  0  0  0  0  0  0  0  0
  150.4296  141.1246  155.0175 H   0  0  0  0  0  0  0  0  0  0  0  0
  149.8028  138.7962  154.4478 H   0  0  0  0  0  0  0  0  0  0  0  0
  147.6576  133.0382  150.4563 H   0  0  0  0  0  0  0  0  0  0  0  0
  146.1722  131.1880  149.6667 H   0  0  0  0  0  0  0  0  0  0  0  0
  143.7250  131.3166  149.9488 H   0  0  0  0  0  0  0  0  0  0  0  0
  142.6551  133.2924  151.0302 H   0  0  0  0  0  0  0  0  0  0  0  0
  147.4869  135.6160  151.7426 H   0  0  0  0  0  0  0  0  0  0  0  0
  1  2  1  0  0  0  0
  1 25  1  0  0  0  0
  1 26  1  0  0  0  0
  1 27  1  0  0  0  0
  2  3  1  0  0  0  0
  3  4  1  0  0  0  0
  3 28  1  0  0  0  0
  3 29  1  0  0  0  0
  4  5  1  0  0  0  0
  4 30  1  0  0  0  0
  4 31  1  0  0  0  0
  5 24  1  0  0  0  0
  5  6  1  0  0  0  0
  6  7  1  0  0  0  0
  6 18  2  0  0  0  0
  7  8  1  0  0  0  0
  8  9  1  0  0  0  0
  8 12  1  0  0  0  0
  8 32  1  0  0  0  0
  9 10  1  0  0  0  0
  9 11  2  0  0  0  0
 10 33  1  0  0  0  0
 10 34  1  0  0  0  0
 12 17  1  0  0  0  0
 12 13  2  0  0  0  0
 13 14  1  0  0  0  0
 13 35  1  0  0  0  0
 14 15  2  0  0  0  0
 14 36  1  0  0  0  0
 15 16  1  0  0  0  0
 15 37  1  0  0  0  0
 16 17  2  0  0  0  0
 16 38  1  0  0  0  0
 17 39  1  0  0  0  0
 18 19  1  0  0  0  0
 18 44  1  0  0  0  0
 19 24  2  0  0  0  0
 19 20  1  0  0  0  0
 20 21  2  0  0  0  0
 20 40  1  0  0  0  0
 21 22  1  0  0  0  0
 21 41  1  0  0  0  0
 22 23  2  0  0  0  0
 22 42  1  0  0  0  0
 23 24  1  0  0  0  0
 23 43  1  0  0  0  0
M  CHG  1  18   1
M  END
> <s_m_source_file>
AV-unprocessed.smi

> <i_m_source_file_index>
525

> <i_lp_mmshare_version>
43012

> <i_f3d_flags>
0

> <s_epik_input>
W2NIXTFbY0hdW2NIXVtjSF1jKGMxMiluKFtDSDJdW0NIMl1PW0NIM10pYyhuMilTW0NASF0oQyg9TylbTkgyXSljM1tjSF1bY0hdW2NIXVtjSF1bY0hdMw==

> <s_epik_cmdline>
J2VwaWtfcHl0aG9uJywgJy1waCcsICc3LjAnLCAnLXRuJywgJzgnLCAnLW1hJywgJzIwMCcsICctbWV0YWxfYmluZGluZycsICctaW1hZScsICc8aW5maWxlLm1hZT4nLCAnLW9tYWUnLCAnPG91dGZpbGUubWFlPic=

> <r_epik_Ionization_Penalty>
1.29485

> <r_epik_Ionization_Penalty_Charging>
1.29485

> <r_epik_Ionization_Penalty_Neutral>
1.02965e-06

> <r_epik_State_Penalty>
1.36828

> <r_epik_Charging_Adjusted_Penalty>
2.66313

> <i_epik_Tot_Q>
1

> <i_epik_Tot_abs_Q>
1

> <r_epik_Metal_State_Penalty>
1.43316

> <b_epik_Metal_Only>
0

> <s_lp_Force_Field>
OPLS_2005

> <r_lp_Energy>
14.4741

> <b_lp_Chiralities_Consistent>
1

> <s_lp_Variant>
AV-unprocessed.smi:525-3

> <Gold.Version>
5.8.1

> <Gold.Id.Protein>
6NUR|6NUR_protein|mol2

> <Gold.PLP.Fitness>
47.6036

> <Gold.PLP.PLP>
-39.5335

> <Gold.PLP.part.hbond>
-2.0000

> <Gold.PLP.part.metal>
0.0000

> <Gold.PLP.part.buried>
-1.0703

> <Gold.PLP.part.nonpolar>
-37.0092

> <Gold.PLP.part.repulsive>
0.1602

> <Gold.PLP.ligand.clash>
0.0000

> <Gold.PLP.ligand.torsion>
0.4806

> <Gold.PLP.Chemscore.Hbond>
2.9440

> <Gold.PLP.Chemscore.CHOScore>
0.0000

> <Gold.PLP.Chemscore.Metal>
0.0000

> <Gold.Chemscore.Hbonds>
donor molecule, donor type, donor heavy atom, donor atom, acceptor molecule, acceptor atom, score
      L1  H    10    34       P1  7948  0.94
      L1  H    18    44       P1  7948  2.00

> <Gold.PLP.Chemscore.Internal.Correction>
0.1993

> <Gold.Rescore>
     Score         DG    S(hbond)    S(metal)    S(lipo)     H(rot)  DE(clash)    DE(int)     intcor
     16.31     -17.90       1.80        0.00     109.78       2.51       1.10       0.49       ----

> <Gold.Chemscore.Fitness>
16.3062

> <Gold.Chemscore.DG>
-17.9012

> <Gold.Chemscore.ZeroCoef>
-5.4800

> <Gold.Chemscore.Hbond>
1.8008

> <Gold.Chemscore.Metal>
0.0000

> <Gold.Chemscore.Lipo>
109.7757

> <Gold.Chemscore.Internal_Hbond>
0.0000

> <Gold.Chemscore.DEClash>
1.1017

> <Gold.Chemscore.DEInternal>
0.4932

> <Gold.Chemscore.Rot>
2.5145

> <Gold.Chemscore.Internal.Correction>
   9.000000E+99

> <Gold.Chemscore.Hbonds>
donor molecule, donor type, donor heavy atom, donor atom, acceptor molecule, acceptor atom, score
      L1  H    10    34       P1  7948  0.80
      L1  H    18    44       P1  7948  0.96

> <Gold.Chemscore.Hbond.Weighted>
-6.0146

> <Gold.Chemscore.Metal.Weighted>
-0.0000

> <Gold.Chemscore.Lipo.Weighted>
-12.8438

> <Gold.Chemscore.Internal_Hbond.Weighted>
0.0000

> <Gold.Chemscore.DEClash.Weighted>
1.1017

> <Gold.Chemscore.DEInternal.Weighted>
0.4932

> <Gold.Chemscore.Rot.Weighted>
6.4372

> <Gold.Chemscore.Internal.Correction.Weighted>
   9.000000E+99

> <Gold.Protein.RotatedTorsions>
[ 6907 6896 6895 6894 ] final   -0.23 input  -60.11 | X-H torsion
[ 7974 7965 7964 7962 ] final    8.71 input  175.53 | X-H torsion
[ 8008 7997 7996 7995 ] final  -43.78 input   59.86 | X-H torsion
[ 10167 10162 10161 10158 ] final   64.07 input  -65.29 | X-H torsion
[ 10718 10713 10712 10709 ] final   39.28 input   66.30 | X-H torsion
[ 10763 10752 10751 10750 ] final   93.68 input  -60.55 | X-H torsion
[ 11005 11000 10999 10996 ] final  -50.01 input  -57.11 | X-H torsion

> <Gold.Protein.ActiveResidues>
 VAL166  LYS551  ARG553  GLY616  TRP617  ASP618  TYR619  PRO620  LYS621  CYS622 
 ASP623  PHE694  ASN695  SER759  ASP760  ASP761  ALA762  ILE779  LEU786  VAL792 
 PHE793  MET794  SER795  GLU796  ALA797  LYS798  CYS799  TRP800  GLU811  SER814 

> <Gold.Protein.RotatedAtoms>
  151.5656  135.1064  159.9982 H   0  0  0  0  0  0  0  0  0  0  0  0  # atno 6907 bound_to 6896
  152.4426  133.7472  159.6684 H   0  0  0  0  0  0  0  0  0  0  0  0  # atno 6908 bound_to 6896
  150.8334  133.7984  159.3113 H   0  0  0  0  0  0  0  0  0  0  0  0  # atno 6909 bound_to 6896
  146.2413  139.9892  142.8427 H   0  0  0  0  0  0  0  0  0  0  0  0  # atno 7974 bound_to 7965
  154.3997  140.1439  156.3575 H   0  0  0  0  0  0  0  0  0  0  0  0  # atno 8008 bound_to 7997
  155.8211  140.3469  155.5494 H   0  0  0  0  0  0  0  0  0  0  0  0  # atno 8009 bound_to 7997
  155.8286  140.0909  157.1796 H   0  0  0  0  0  0  0  0  0  0  0  0  # atno 8010 bound_to 7997
  140.1261  144.4686  150.6891 H   0  0  0  0  0  0  0  0  0  0  0  0  # atno 10167 bound_to 10162
  157.3688  130.7689  149.7103 H   0  0  0  0  0  0  0  0  0  0  0  0  # atno 10718 bound_to 10713
  153.2331  135.4316  155.0616 H   0  0  0  0  0  0  0  0  0  0  0  0  # atno 10763 bound_to 10752
  154.8306  135.3384  154.6759 H   0  0  0  0  0  0  0  0  0  0  0  0  # atno 10764 bound_to 10752
  153.7185  135.7018  153.5075 H   0  0  0  0  0  0  0  0  0  0  0  0  # atno 10765 bound_to 10752
  141.0791  133.6658  156.3668 H   0  0  0  0  0  0  0  0  0  0  0  0  # atno 11005 bound_to 11000
  145.1519  140.9627  143.4428 LP  0  0  0  0  0  0  0  0  0  0  0  0  # atno 17320 bound_to 7965
  145.0197  139.3435  143.6078 LP  0  0  0  0  0  0  0  0  0  0  0  0  # atno 17321 bound_to 7965
  140.6844  143.2342  151.5300 LP  0  0  0  0  0  0  0  0  0  0  0  0  # atno 17342 bound_to 10162
  139.5543  144.2315  152.1585 LP  0  0  0  0  0  0  0  0  0  0  0  0  # atno 17343 bound_to 10162
  155.9751  130.4093  150.3872 LP  0  0  0  0  0  0  0  0  0  0  0  0  # atno 17370 bound_to 10713
  157.1960  131.0426  151.2675 LP  0  0  0  0  0  0  0  0  0  0  0  0  # atno 17371 bound_to 10713
  140.5507  134.6030  157.5407 LP  0  0  0  0  0  0  0  0  0  0  0  0  # atno 17394 bound_to 11000
  139.9605  134.7461  156.0248 LP  0  0  0  0  0  0  0  0  0  0  0  0  # atno 17395 bound_to 11000

$$$$
