AV-unprocessed.smi:562|AV-procd|sdf|2945|dock7
  -GOLD-   2262023443D 1   1.00000     0.00000
 Structure written by MMmdl.
 40 42  0  0  0  0  0  0  0  0  2 V2000
  148.3323  141.4816  154.0665 C   0  0  0  0  0  0  0  0  0  0  0  0
  149.6200  141.7232  154.6031 O   0  0  0  0  0  0  0  0  0  0  0  0
  149.6366  141.6863  156.0206 C   0  0  0  0  0  0  0  0  0  0  0  0
  151.0367  142.0597  156.5269 C   0  0  0  0  0  0  0  0  0  0  0  0
  151.6448  140.9816  157.3030 N   0  0  0  0  0  0  0  0  0  0  0  0
  152.1190  141.0298  158.5751 C   0  0  0  0  0  0  0  0  0  0  0  0
  152.0627  142.2114  159.3445 N   0  0  0  0  0  0  0  0  0  0  0  0
  151.1839  143.1885  159.0304 N   0  0  0  0  0  0  0  0  0  0  0  0
  151.3998  144.1393  159.9242 C   0  0  0  0  0  0  0  0  0  0  0  0
  150.5743  145.3913  159.8835 C   0  0  0  0  0  0  0  0  0  0  0  0
  152.4430  143.8002  160.8305 C   0  0  0  0  0  0  0  0  0  0  0  0
  152.8528  142.5615  160.4245 C   0  0  0  0  0  0  0  0  0  0  0  0
  153.9270  141.6754  160.9664 C   0  0  0  0  0  0  0  0  0  0  0  0
  152.6004  139.8760  159.0417 N   0  0  0  0  0  0  0  0  0  0  0  0
  152.4196  139.0154  157.9686 C   0  0  0  0  0  0  0  0  0  0  0  0
  151.8418  139.6535  156.9150 C   0  0  0  0  0  0  0  0  0  0  0  0
  151.5001  138.9920  155.6371 C   0  0  0  0  0  0  0  0  0  0  0  0
  150.9676  139.6165  154.7217 O   0  0  0  0  0  0  0  0  0  0  0  0
  151.8404  137.6643  155.6360 N   0  5  0  0  0  0  0  0  0  0  0  0
  152.4269  136.9773  156.6775 C   0  0  0  0  0  0  0  0  0  0  0  0
  152.6959  135.7780  156.5950 O   0  0  0  0  0  0  0  0  0  0  0  0
  152.7233  137.6320  157.8444 N   0  0  0  0  0  0  0  0  0  0  0  0
  153.3421  136.9255  158.9697 C   0  0  0  0  0  0  0  0  0  0  0  0
  148.3781  141.5172  152.9780 H   0  0  0  0  0  0  0  0  0  0  0  0
  147.6198  142.2378  154.3981 H   0  0  0  0  0  0  0  0  0  0  0  0
  147.9621  140.4976  154.3572 H   0  0  0  0  0  0  0  0  0  0  0  0
  148.8944  142.3777  156.4223 H   0  0  0  0  0  0  0  0  0  0  0  0
  149.3729  140.6865  156.3684 H   0  0  0  0  0  0  0  0  0  0  0  0
  151.6914  142.3123  155.6941 H   0  0  0  0  0  0  0  0  0  0  0  0
  150.9794  142.9645  157.1292 H   0  0  0  0  0  0  0  0  0  0  0  0
  150.8960  146.1001  160.6466 H   0  0  0  0  0  0  0  0  0  0  0  0
  149.5206  145.1721  160.0575 H   0  0  0  0  0  0  0  0  0  0  0  0
  150.6581  145.8863  158.9155 H   0  0  0  0  0  0  0  0  0  0  0  0
  152.8348  144.3808  161.6525 H   0  0  0  0  0  0  0  0  0  0  0  0
  154.2097  141.9786  161.9745 H   0  0  0  0  0  0  0  0  0  0  0  0
  154.8165  141.7205  160.3379 H   0  0  0  0  0  0  0  0  0  0  0  0
  153.5988  140.6369  161.0102 H   0  0  0  0  0  0  0  0  0  0  0  0
  154.2877  136.4742  158.6662 H   0  0  0  0  0  0  0  0  0  0  0  0
  152.6846  136.1329  159.3287 H   0  0  0  0  0  0  0  0  0  0  0  0
  153.5527  137.5814  159.8138 H   0  0  0  0  0  0  0  0  0  0  0  0
  1  2  1  0  0  0  0
  1 24  1  0  0  0  0
  1 25  1  0  0  0  0
  1 26  1  0  0  0  0
  2  3  1  0  0  0  0
  3  4  1  0  0  0  0
  3 27  1  0  0  0  0
  3 28  1  0  0  0  0
  4  5  1  0  0  0  0
  4 29  1  0  0  0  0
  4 30  1  0  0  0  0
  5 16  1  0  0  0  0
  5  6  1  0  0  0  0
  6  7  1  0  0  0  0
  6 14  2  0  0  0  0
  7 12  1  0  0  0  0
  7  8  1  0  0  0  0
  8  9  2  0  0  0  0
  9 10  1  0  0  0  0
  9 11  1  0  0  0  0
 10 31  1  0  0  0  0
 10 32  1  0  0  0  0
 10 33  1  0  0  0  0
 11 12  2  0  0  0  0
 11 34  1  0  0  0  0
 12 13  1  0  0  0  0
 13 35  1  0  0  0  0
 13 36  1  0  0  0  0
 13 37  1  0  0  0  0
 14 15  1  0  0  0  0
 15 22  1  0  0  0  0
 15 16  2  0  0  0  0
 16 17  1  0  0  0  0
 17 18  2  0  0  0  0
 17 19  1  0  0  0  0
 19 20  1  0  0  0  0
 20 21  2  0  0  0  0
 20 22  1  0  0  0  0
 22 23  1  0  0  0  0
 23 38  1  0  0  0  0
 23 39  1  0  0  0  0
 23 40  1  0  0  0  0
M  CHG  1  19  -1
M  END
> <s_m_source_file>
AV-unprocessed.smi

> <i_m_source_file_index>
562

> <i_lp_mmshare_version>
43012

> <i_f3d_flags>
0

> <s_epik_input>
W0NIM11uMWMoPU8pW25IXWMoPU8pYyhjMTIpbihbQ0gyXVtDSDJdT1tDSDNdKWMobjIpLW4zbmMoW0NIM10pW2NIXWMzW0NIM10=

> <s_epik_cmdline>
J2VwaWtfcHl0aG9uJywgJy1waCcsICc3LjAnLCAnLXRuJywgJzgnLCAnLW1hJywgJzIwMCcsICctbWV0YWxfYmluZGluZycsICctaW1hZScsICc8aW5maWxlLm1hZT4nLCAnLW9tYWUnLCAnPG91dGZpbGUubWFlPic=

> <r_lp_tautomer_probability>
1

> <r_epik_Ionization_Penalty>
3.9873

> <r_epik_Ionization_Penalty_Charging>
0.0180637

> <r_epik_Ionization_Penalty_Neutral>
3.96924

> <r_epik_State_Penalty>
3.96767

> <r_epik_Charging_Adjusted_Penalty>
3.98573

> <i_epik_Tot_Q>
-1

> <i_epik_Tot_abs_Q>
1

> <r_epik_Metal_State_Penalty>
0.612149

> <b_epik_Metal_Only>
1

> <s_lp_Force_Field>
OPLS_2005

> <r_lp_Energy>
28.5769

> <b_lp_Chiralities_Consistent>
1

> <s_lp_Variant>
AV-unprocessed.smi:562-2

> <Gold.Version>
5.8.1

> <Gold.Id.Protein>
6NUR|6NUR_protein|mol2

> <Gold.PLP.Fitness>
46.7614

> <Gold.PLP.PLP>
-41.6666

> <Gold.PLP.part.hbond>
-3.9620

> <Gold.PLP.part.metal>
0.0000

> <Gold.PLP.part.buried>
-4.0105

> <Gold.PLP.part.nonpolar>
-33.4323

> <Gold.PLP.part.repulsive>
0.3255

> <Gold.PLP.ligand.clash>
0.0000

> <Gold.PLP.ligand.torsion>
0.6330

> <Gold.PLP.Chemscore.Hbond>
2.0000

> <Gold.PLP.Chemscore.CHOScore>
0.0000

> <Gold.PLP.Chemscore.Metal>
0.0000

> <Gold.Chemscore.Hbonds>
donor molecule, donor type, donor heavy atom, donor atom, acceptor molecule, acceptor atom, score
      P1  H  7989  7998       L1    18  1.00
      P1  H 10752 10763       L1    21  1.00

> <Gold.PLP.Chemscore.Internal.Correction>
0.3609

> <Gold.Rescore>
     Score         DG    S(hbond)    S(metal)    S(lipo)     H(rot)  DE(clash)    DE(int)     intcor
     11.85     -17.92       1.83        0.00      87.27       1.52       0.07       6.00       ----

> <Gold.Chemscore.Fitness>
11.8537

> <Gold.Chemscore.DG>
-17.9240

> <Gold.Chemscore.ZeroCoef>
-5.4800

> <Gold.Chemscore.Hbond>
1.8304

> <Gold.Chemscore.Metal>
0.0000

> <Gold.Chemscore.Lipo>
87.2731

> <Gold.Chemscore.Internal_Hbond>
0.0000

> <Gold.Chemscore.DEClash>
0.0683

> <Gold.Chemscore.DEInternal>
6.0020

> <Gold.Chemscore.Rot>
1.5159

> <Gold.Chemscore.Internal.Correction>
   9.000000E+99

> <Gold.Chemscore.Hbonds>
donor molecule, donor type, donor heavy atom, donor atom, acceptor molecule, acceptor atom, score
      P1  H  7989  7998       L1    18  1.00
      P1  H 10752 10763       L1    21  0.83

> <Gold.Chemscore.Hbond.Weighted>
-6.1136

> <Gold.Chemscore.Metal.Weighted>
-0.0000

> <Gold.Chemscore.Lipo.Weighted>
-10.2110

> <Gold.Chemscore.Internal_Hbond.Weighted>
0.0000

> <Gold.Chemscore.DEClash.Weighted>
0.0683

> <Gold.Chemscore.DEInternal.Weighted>
6.0020

> <Gold.Chemscore.Rot.Weighted>
3.8806

> <Gold.Chemscore.Internal.Correction.Weighted>
   9.000000E+99

> <Gold.Protein.RotatedTorsions>
[ 6907 6896 6895 6894 ] final  -57.73 input  -60.11 | X-H torsion
[ 7974 7965 7964 7962 ] final -158.47 input  175.53 | X-H torsion
[ 8008 7997 7996 7995 ] final  -88.45 input   59.86 | X-H torsion
[ 10167 10162 10161 10158 ] final  -12.53 input  -65.29 | X-H torsion
[ 10718 10713 10712 10709 ] final -177.83 input   66.30 | X-H torsion
[ 10763 10752 10751 10750 ] final  111.28 input  -60.55 | X-H torsion
[ 11005 11000 10999 10996 ] final   26.44 input  -57.11 | X-H torsion

> <Gold.Protein.ActiveResidues>
 VAL166  LYS551  ARG553  GLY616  TRP617  ASP618  TYR619  PRO620  LYS621  CYS622 
 ASP623  PHE694  ASN695  SER759  ASP760  ASP761  ALA762  ILE779  LEU786  VAL792 
 PHE793  MET794  SER795  GLU796  ALA797  LYS798  CYS799  TRP800  GLU811  SER814 

> <Gold.Protein.RotatedAtoms>
  150.8062  134.7189  159.6646 H   0  0  0  0  0  0  0  0  0  0  0  0  # atno 6907 bound_to 6896
  152.4182  134.6000  160.0007 H   0  0  0  0  0  0  0  0  0  0  0  0  # atno 6908 bound_to 6896
  151.6223  133.3301  159.3127 H   0  0  0  0  0  0  0  0  0  0  0  0  # atno 6909 bound_to 6896
  144.7504  140.3823  143.6052 H   0  0  0  0  0  0  0  0  0  0  0  0  # atno 7974 bound_to 7965
  154.6750  140.0553  157.0206 H   0  0  0  0  0  0  0  0  0  0  0  0  # atno 8008 bound_to 7997
  155.1034  140.3231  155.4522 H   0  0  0  0  0  0  0  0  0  0  0  0  # atno 8009 bound_to 7997
  156.2672  140.2027  156.6159 H   0  0  0  0  0  0  0  0  0  0  0  0  # atno 8010 bound_to 7997
  140.7163  143.5523  150.9287 H   0  0  0  0  0  0  0  0  0  0  0  0  # atno 10167 bound_to 10162
  156.8353  130.9667  151.3104 H   0  0  0  0  0  0  0  0  0  0  0  0  # atno 10718 bound_to 10713
  153.4611  135.3722  155.2338 H   0  0  0  0  0  0  0  0  0  0  0  0  # atno 10763 bound_to 10752
  154.8757  135.3909  154.3924 H   0  0  0  0  0  0  0  0  0  0  0  0  # atno 10764 bound_to 10752
  153.4497  135.7085  153.6181 H   0  0  0  0  0  0  0  0  0  0  0  0  # atno 10765 bound_to 10752
  140.3370  134.2375  155.7695 H   0  0  0  0  0  0  0  0  0  0  0  0  # atno 11005 bound_to 11000
  145.6964  139.1651  143.2618 LP  0  0  0  0  0  0  0  0  0  0  0  0  # atno 17320 bound_to 7965
  146.1447  140.7009  142.9350 LP  0  0  0  0  0  0  0  0  0  0  0  0  # atno 17321 bound_to 7965
  139.9247  143.6564  152.3089 LP  0  0  0  0  0  0  0  0  0  0  0  0  # atno 17342 bound_to 10162
  139.6993  144.7637  151.1301 LP  0  0  0  0  0  0  0  0  0  0  0  0  # atno 17343 bound_to 10162
  157.6385  130.8786  149.9403 LP  0  0  0  0  0  0  0  0  0  0  0  0  # atno 17370 bound_to 10713
  156.0911  130.3663  150.0394 LP  0  0  0  0  0  0  0  0  0  0  0  0  # atno 17371 bound_to 10713
  141.2048  133.7875  157.0264 LP  0  0  0  0  0  0  0  0  0  0  0  0  # atno 17394 bound_to 11000
  140.0813  134.9646  157.1628 LP  0  0  0  0  0  0  0  0  0  0  0  0  # atno 17395 bound_to 11000

$$$$
