AV-unprocessed.smi:1033|AV-procd|sdf|4499|dock3
  -GOLD-   22720 2493D 1   1.00000     0.00000
 Structure written by MMmdl.
 57 59  0  0  0  0  0  0  0  0  3 V2000
  145.8214  129.4695  150.9284 C   0  0  0  0  0  0  0  0  0  0  0  0
  145.7753  130.9532  151.2520 C   0  0  0  0  0  0  0  0  0  0  0  0
  145.2820  131.8423  150.2711 C   0  0  0  0  0  0  0  0  0  0  0  0
  145.2642  133.1941  150.5920 C   0  0  0  0  0  0  0  0  0  0  0  0
  144.8546  134.3029  149.8494 N   0  3  0  0  0  0  0  0  0  0  0  0
  145.0369  135.4347  150.5836 C   0  0  0  0  0  0  0  0  0  0  0  0
  145.5662  135.0667  151.7826 N   0  0  0  0  0  0  0  0  0  0  0  0
  145.9567  135.9075  152.9246 C   0  0  0  0  0  0  0  0  0  0  0  0
  145.9066  137.4201  152.6134 C   0  0  1  0  0  0  0  0  0  0  0  0
  144.5484  137.7777  152.4729 O   0  0  0  0  0  0  0  0  0  0  0  0
  146.5220  138.3379  153.6959 C   0  0  0  0  0  0  0  0  0  0  0  0
  147.9805  138.1383  153.8829 N   0  3  0  0  0  0  0  0  0  0  0  0
  148.2990  137.1850  154.9744 C   0  0  0  0  0  0  0  0  0  0  0  0
  149.8161  136.9166  155.0046 C   0  0  0  0  0  0  0  0  0  0  0  0
  150.6131  138.1288  155.1972 N   0  0  0  0  0  0  0  0  0  0  0  0
  150.4995  138.6654  156.5627 C   0  0  0  0  0  0  0  0  0  0  0  0
  151.3451  139.9162  156.8931 C   0  0  2  0  0  0  0  0  0  0  0  0
  150.9330  141.2316  156.2187 C   0  0  0  0  0  0  0  0  0  0  0  0
  152.7070  139.6489  156.6331 O   0  0  0  0  0  0  0  0  0  0  0  0
  150.2650  139.0769  154.1315 C   0  0  0  0  0  0  0  0  0  0  0  0
  148.7566  139.3942  154.0466 C   0  0  0  0  0  0  0  0  0  0  0  0
  145.7086  133.6738  151.8401 C   0  0  0  0  0  0  0  0  0  0  0  0
  146.1862  132.8085  152.8224 C   0  0  0  0  0  0  0  0  0  0  0  0
  146.2211  131.4305  152.5114 C   0  0  0  0  0  0  0  0  0  0  0  0
  146.7554  130.4661  153.5566 C   0  0  0  0  0  0  0  0  0  0  0  0
  145.4684  129.2705  149.9161 H   0  0  0  0  0  0  0  0  0  0  0  0
  145.1906  128.9073  151.6174 H   0  0  0  0  0  0  0  0  0  0  0  0
  146.8413  129.0921  151.0049 H   0  0  0  0  0  0  0  0  0  0  0  0
  144.9392  131.4851  149.3106 H   0  0  0  0  0  0  0  0  0  0  0  0
  144.8087  136.4434  150.2687 H   0  0  0  0  0  0  0  0  0  0  0  0
  145.2552  135.6757  153.7277 H   0  0  0  0  0  0  0  0  0  0  0  0
  146.9386  135.6084  153.2900 H   0  0  0  0  0  0  0  0  0  0  0  0
  146.3677  137.6080  151.6444 H   0  0  0  0  0  0  0  0  0  0  0  0
  144.4073  138.1132  151.6006 H   0  0  0  0  0  0  0  0  0  0  0  0
  146.3431  139.3871  153.4550 H   0  0  0  0  0  0  0  0  0  0  0  0
  146.0069  138.1493  154.6392 H   0  0  0  0  0  0  0  0  0  0  0  0
  147.9501  137.5785  155.9305 H   0  0  0  0  0  0  0  0  0  0  0  0
  147.7731  136.2443  154.8072 H   0  0  0  0  0  0  0  0  0  0  0  0
  150.0497  136.1896  155.7834 H   0  0  0  0  0  0  0  0  0  0  0  0
  150.1099  136.4438  154.0667 H   0  0  0  0  0  0  0  0  0  0  0  0
  149.4568  138.8573  156.8124 H   0  0  0  0  0  0  0  0  0  0  0  0
  150.8163  137.8952  157.2680 H   0  0  0  0  0  0  0  0  0  0  0  0
  151.2663  140.0724  157.9695 H   0  0  0  0  0  0  0  0  0  0  0  0
  149.8644  141.4161  156.3312 H   0  0  0  0  0  0  0  0  0  0  0  0
  151.1771  141.2383  155.1568 H   0  0  0  0  0  0  0  0  0  0  0  0
  151.4600  142.0735  156.6686 H   0  0  0  0  0  0  0  0  0  0  0  0
  152.7786  138.7807  156.2669 H   0  0  0  0  0  0  0  0  0  0  0  0
  150.8191  140.0052  154.2348 H   0  0  0  0  0  0  0  0  0  0  0  0
  150.5833  138.6583  153.1757 H   0  0  0  0  0  0  0  0  0  0  0  0
  148.5892  140.0534  153.1961 H   0  0  0  0  0  0  0  0  0  0  0  0
  148.4145  139.9344  154.9296 H   0  0  0  0  0  0  0  0  0  0  0  0
  146.5309  133.1647  153.7816 H   0  0  0  0  0  0  0  0  0  0  0  0
  147.0290  130.9841  154.4761 H   0  0  0  0  0  0  0  0  0  0  0  0
  147.6437  129.9543  153.1855 H   0  0  0  0  0  0  0  0  0  0  0  0
  146.0037  129.7177  153.8085 H   0  0  0  0  0  0  0  0  0  0  0  0
  148.3123  137.7041  153.0338 H   0  0  0  0  0  0  0  0  0  0  0  0
  144.4730  134.2906  148.9116 H   0  0  0  0  0  0  0  0  0  0  0  0
  1  2  1  0  0  0  0
  1 26  1  0  0  0  0
  1 27  1  0  0  0  0
  1 28  1  0  0  0  0
  2 24  1  0  0  0  0
  2  3  2  0  0  0  0
  3  4  1  0  0  0  0
  3 29  1  0  0  0  0
  4 22  2  0  0  0  0
  4  5  1  0  0  0  0
  5  6  2  0  0  0  0
  5 57  1  0  0  0  0
  6  7  1  0  0  0  0
  6 30  1  0  0  0  0
  7  8  1  0  0  0  0
  7 22  1  0  0  0  0
  8  9  1  0  0  0  0
  8 31  1  0  0  0  0
  8 32  1  0  0  0  0
  9 10  1  0  0  0  0
  9 11  1  0  0  0  0
  9 33  1  0  0  0  0
 10 34  1  0  0  0  0
 11 12  1  0  0  0  0
 11 35  1  0  0  0  0
 11 36  1  0  0  0  0
 12 21  1  0  0  0  0
 12 13  1  0  0  0  0
 12 56  1  0  0  0  0
 13 14  1  0  0  0  0
 13 37  1  0  0  0  0
 13 38  1  0  0  0  0
 14 15  1  0  0  0  0
 14 39  1  0  0  0  0
 14 40  1  0  0  0  0
 15 16  1  0  0  0  0
 15 20  1  0  0  0  0
 16 17  1  0  0  0  0
 16 41  1  0  0  0  0
 16 42  1  0  0  0  0
 17 18  1  0  0  0  0
 17 19  1  0  0  0  0
 17 43  1  0  0  0  0
 18 44  1  0  0  0  0
 18 45  1  0  0  0  0
 18 46  1  0  0  0  0
 19 47  1  0  0  0  0
 20 21  1  0  0  0  0
 20 48  1  0  0  0  0
 20 49  1  0  0  0  0
 21 50  1  0  0  0  0
 21 51  1  0  0  0  0
 22 23  1  0  0  0  0
 23 24  2  0  0  0  0
 23 52  1  0  0  0  0
 24 25  1  0  0  0  0
 25 53  1  0  0  0  0
 25 54  1  0  0  0  0
 25 55  1  0  0  0  0
M  CHG  1   5   1
M  CHG  1  12   1
M  END
> <s_m_source_file>
AV-unprocessed.smi

> <i_m_source_file_index>
1033

> <i_lp_mmshare_version>
43012

> <i_f3d_flags>
0

> <s_epik_input>
W0NIM11jKFtjSF0xKWMoW0NIM10pW2NIXWMoYzEyKW4oW2NIXW4yKVtDSDJdW0NASF0oW09IXSlbQ0gyXU4zW0NIMl1bQ0gyXU4oW0NIMl1bQ0gyXTMpW0NIMl1bQ0BIXShbQ0gzXSlbT0hd

> <s_epik_cmdline>
J2VwaWtfcHl0aG9uJywgJy1waCcsICc3LjAnLCAnLXRuJywgJzgnLCAnLW1hJywgJzIwMCcsICctbWV0YWxfYmluZGluZycsICctaW1hZScsICc8aW5maWxlLm1hZT4nLCAnLW9tYWUnLCAnPG91dGZpbGUubWFlPic=

> <r_epik_Ionization_Penalty>
1.22049

> <r_epik_Ionization_Penalty_Charging>
1.17952

> <r_epik_Ionization_Penalty_Neutral>
0.0409743

> <r_epik_State_Penalty>
1.61468

> <r_epik_Charging_Adjusted_Penalty>
2.7942

> <i_epik_Tot_Q>
2

> <i_epik_Tot_abs_Q>
2

> <r_epik_Metal_State_Penalty>
5.63169

> <b_epik_Metal_Only>
0

> <s_lp_Force_Field>
OPLS_2005

> <r_lp_Energy>
50.4079

> <b_lp_Chiralities_Consistent>
1

> <s_lp_Variant>
AV-unprocessed.smi:1033-10

> <Gold.Version>
5.8.1

> <Gold.Id.Protein>
6NUR|6NUR_protein|mol2

> <Gold.PLP.Fitness>
53.7520

> <Gold.PLP.PLP>
-39.6034

> <Gold.PLP.part.hbond>
-5.0000

> <Gold.PLP.part.metal>
0.0000

> <Gold.PLP.part.buried>
-5.7897

> <Gold.PLP.part.nonpolar>
-28.8742

> <Gold.PLP.part.repulsive>
0.1722

> <Gold.PLP.ligand.clash>
0.0000

> <Gold.PLP.ligand.torsion>
0.6710

> <Gold.PLP.Chemscore.Hbond>
4.0707

> <Gold.PLP.Chemscore.CHOScore>
1.0000

> <Gold.PLP.Chemscore.Metal>
0.0000

> <Gold.Chemscore.Hbonds>
donor molecule, donor type, donor heavy atom, donor atom, acceptor molecule, acceptor atom, score
      L1  H     5    57       P1  7921  0.08
      L1  H    10    34       P1 10171  1.00
      L1  H    12    56       P1  7948  2.00
      P1  H  7997  8009       L1    19  0.80
      L1  C     6    30       P1 10171  1.00

> <Gold.PLP.Chemscore.Internal.Correction>
0.2785

> <Gold.Rescore>
     Score         DG    S(hbond)    S(metal)    S(lipo)     H(rot)  DE(clash)    DE(int)     intcor
     18.67     -20.90       3.24        0.00     108.15       3.15       1.56       0.67       ----

> <Gold.Chemscore.Fitness>
18.6700

> <Gold.Chemscore.DG>
-20.8983

> <Gold.Chemscore.ZeroCoef>
-5.4800

> <Gold.Chemscore.Hbond>
3.2409

> <Gold.Chemscore.Metal>
0.0000

> <Gold.Chemscore.Lipo>
108.1476

> <Gold.Chemscore.Internal_Hbond>
0.0000

> <Gold.Chemscore.DEClash>
1.5563

> <Gold.Chemscore.DEInternal>
0.6719

> <Gold.Chemscore.Rot>
3.1483

> <Gold.Chemscore.Internal.Correction>
   9.000000E+99

> <Gold.Chemscore.Hbonds>
donor molecule, donor type, donor heavy atom, donor atom, acceptor molecule, acceptor atom, score
      L1  H     5    57       P1  7921  0.08
      L1  H    10    34       P1 10171  1.00
      L1  H    12    56       P1  7948  0.97
      P1  H  7997  8009       L1    19  0.12

> <Gold.Chemscore.Hbond.Weighted>
-10.8247

> <Gold.Chemscore.Metal.Weighted>
-0.0000

> <Gold.Chemscore.Lipo.Weighted>
-12.6533

> <Gold.Chemscore.Internal_Hbond.Weighted>
0.0000

> <Gold.Chemscore.DEClash.Weighted>
1.5563

> <Gold.Chemscore.DEInternal.Weighted>
0.6719

> <Gold.Chemscore.Rot.Weighted>
8.0597

> <Gold.Chemscore.Internal.Correction.Weighted>
   9.000000E+99

> <Gold.Protein.RotatedTorsions>
[ 6907 6896 6895 6894 ] final  121.22 input  -60.11 | X-H torsion
[ 7974 7965 7964 7962 ] final    6.09 input  175.53 | X-H torsion
[ 8008 7997 7996 7995 ] final -159.53 input   59.86 | X-H torsion
[ 10167 10162 10161 10158 ] final   76.39 input  -65.29 | X-H torsion
[ 10718 10713 10712 10709 ] final -123.10 input   66.30 | X-H torsion
[ 10763 10752 10751 10750 ] final -179.24 input  -60.55 | X-H torsion
[ 11005 11000 10999 10996 ] final -108.79 input  -57.11 | X-H torsion

> <Gold.Protein.ActiveResidues>
 VAL166  LYS551  ARG553  GLY616  TRP617  ASP618  TYR619  PRO620  LYS621  CYS622 
 ASP623  PHE694  ASN695  SER759  ASP760  ASP761  ALA762  ILE779  LEU786  VAL792 
 PHE793  MET794  SER795  GLU796  ALA797  LYS798  CYS799  TRP800  GLU811  SER814 

> <Gold.Protein.RotatedAtoms>
  152.4338  133.7324  159.6594 H   0  0  0  0  0  0  0  0  0  0  0  0  # atno 6907 bound_to 6896
  150.8220  133.8226  159.3141 H   0  0  0  0  0  0  0  0  0  0  0  0  # atno 6908 bound_to 6896
  151.5906  135.1056  160.0089 H   0  0  0  0  0  0  0  0  0  0  0  0  # atno 6909 bound_to 6896
  146.2437  140.0285  142.8392 H   0  0  0  0  0  0  0  0  0  0  0  0  # atno 7974 bound_to 7965
  155.7639  140.0843  157.2141 H   0  0  0  0  0  0  0  0  0  0  0  0  # atno 8008 bound_to 7997
  154.4001  140.1538  156.2921 H   0  0  0  0  0  0  0  0  0  0  0  0  # atno 8009 bound_to 7997
  155.8813  140.3420  155.5892 H   0  0  0  0  0  0  0  0  0  0  0  0  # atno 8010 bound_to 7997
  139.9928  144.5744  150.7803 H   0  0  0  0  0  0  0  0  0  0  0  0  # atno 10167 bound_to 10162
  156.1474  130.6510  150.9862 H   0  0  0  0  0  0  0  0  0  0  0  0  # atno 10718 bound_to 10713
  154.5376  135.2804  155.1124 H   0  0  0  0  0  0  0  0  0  0  0  0  # atno 10763 bound_to 10752
  154.2619  135.6320  153.5281 H   0  0  0  0  0  0  0  0  0  0  0  0  # atno 10764 bound_to 10752
  152.9971  135.5607  154.5907 H   0  0  0  0  0  0  0  0  0  0  0  0  # atno 10765 bound_to 10752
  141.0883  133.9100  157.2135 H   0  0  0  0  0  0  0  0  0  0  0  0  # atno 11005 bound_to 11000
  145.1176  140.9443  143.4619 LP  0  0  0  0  0  0  0  0  0  0  0  0  # atno 17320 bound_to 7965
  145.0513  139.3179  143.5927 LP  0  0  0  0  0  0  0  0  0  0  0  0  # atno 17321 bound_to 7965
  140.7448  143.2866  151.3446 LP  0  0  0  0  0  0  0  0  0  0  0  0  # atno 17342 bound_to 10162
  139.6328  144.0689  152.2490 LP  0  0  0  0  0  0  0  0  0  0  0  0  # atno 17343 bound_to 10162
  157.6628  131.0877  150.7799 LP  0  0  0  0  0  0  0  0  0  0  0  0  # atno 17370 bound_to 10713
  156.7869  130.4877  149.5391 LP  0  0  0  0  0  0  0  0  0  0  0  0  # atno 17371 bound_to 10713
  139.9704  135.0130  156.9497 LP  0  0  0  0  0  0  0  0  0  0  0  0  # atno 17394 bound_to 11000
  140.5312  134.0811  155.7316 LP  0  0  0  0  0  0  0  0  0  0  0  0  # atno 17395 bound_to 11000

$$$$
