AV-unprocessed.smi:162|AV-procd|sdf|1376|dock1
  -GOLD-   2262019 93D 1   1.00000     0.00000
 Structure written by MMmdl.
 54 57  0  0  0  0  0  0  0  0  1 V2000
  146.4782  141.8131  155.7950 C   0  0  0  0  0  0  0  0  0  0  0  0
  147.5576  141.5534  156.6788 O   0  0  0  0  0  0  0  0  0  0  0  0
  148.7419  141.1073  156.0327 C   0  0  0  0  0  0  0  0  0  0  0  0
  149.9409  141.0380  157.0037 C   0  0  2  0  0  0  0  0  0  0  0  0
  150.1958  142.3537  157.7487 C   0  0  0  0  0  0  0  0  0  0  0  0
  151.7123  142.3762  158.0054 C   0  0  1  0  0  0  0  0  0  0  0  0
  152.0364  142.3332  159.3881 O   0  0  0  0  0  0  0  0  0  0  0  0
  153.4257  142.4574  159.6477 C   0  0  0  0  0  0  0  0  0  0  0  0
  152.2295  141.1046  157.3234 C   0  0  0  0  0  0  0  0  0  0  0  0
  151.2086  140.7408  156.3504 N   0  0  0  0  0  0  0  0  0  0  0  0
  151.3004  139.5057  155.8027 C   0  0  0  0  0  0  0  0  0  0  0  0
  150.9484  139.2948  154.5063 N   0  0  0  0  0  0  0  0  0  0  0  0
  151.0736  138.0777  153.9680 C   0  0  0  0  0  0  0  0  0  0  0  0
  151.5269  136.9568  154.5337 N   0  0  0  0  0  0  0  0  0  0  0  0
  151.8821  137.1669  155.8337 C   0  0  0  0  0  0  0  0  0  0  0  0
  151.7995  138.3992  156.5396 C   0  0  0  0  0  0  0  0  0  0  0  0
  152.2549  138.2344  157.8413 N   0  0  0  0  0  0  0  0  0  0  0  0
  152.5961  136.9760  157.8996 C   0  0  0  0  0  0  0  0  0  0  0  0
  152.3964  136.2576  156.7416 N   0  0  0  0  0  0  0  0  0  0  0  0
  152.6966  134.8511  156.5240 C   0  0  0  0  0  0  0  0  0  0  0  0
  151.4512  133.9349  156.4200 C   0  0  0  0  0  0  0  0  0  0  0  0
  150.8795  133.9343  157.7158 O   0  0  0  0  0  0  0  0  0  0  0  0
  150.3957  134.4662  155.4263 C   0  0  0  0  0  0  0  0  0  0  0  0
  149.2093  133.4962  155.2787 C   0  0  0  0  0  0  0  0  0  0  0  0
  149.6778  132.2100  154.8891 O   0  0  0  0  0  0  0  0  0  0  0  0
  150.5366  131.6175  155.8569 C   0  0  0  0  0  0  0  0  0  0  0  0
  151.7992  132.4793  156.0397 C   0  0  0  0  0  0  0  0  0  0  0  0
  149.7682  140.2517  157.7401 H   0  0  0  0  0  0  0  0  0  0  0  0
  152.1622  143.2482  157.5274 H   0  0  0  0  0  0  0  0  0  0  0  0
  145.6358  142.2108  156.3604 H   0  0  0  0  0  0  0  0  0  0  0  0
  146.1387  140.9075  155.2930 H   0  0  0  0  0  0  0  0  0  0  0  0
  146.7517  142.5511  155.0401 H   0  0  0  0  0  0  0  0  0  0  0  0
  148.5573  140.1439  155.5557 H   0  0  0  0  0  0  0  0  0  0  0  0
  148.9666  141.8096  155.2292 H   0  0  0  0  0  0  0  0  0  0  0  0
  149.9237  143.2072  157.1263 H   0  0  0  0  0  0  0  0  0  0  0  0
  149.6024  142.4105  158.6615 H   0  0  0  0  0  0  0  0  0  0  0  0
  153.5998  142.4208  160.7228 H   0  0  0  0  0  0  0  0  0  0  0  0
  153.8243  143.4020  159.2769 H   0  0  0  0  0  0  0  0  0  0  0  0
  153.9846  141.6398  159.1910 H   0  0  0  0  0  0  0  0  0  0  0  0
  153.1941  141.2697  156.8427 H   0  0  0  0  0  0  0  0  0  0  0  0
  152.3556  140.3150  158.0658 H   0  0  0  0  0  0  0  0  0  0  0  0
  150.7704  137.9902  152.9352 H   0  0  0  0  0  0  0  0  0  0  0  0
  153.0034  136.5330  158.7970 H   0  0  0  0  0  0  0  0  0  0  0  0
  153.2947  134.7737  155.6149 H   0  0  0  0  0  0  0  0  0  0  0  0
  153.3418  134.5162  157.3377 H   0  0  0  0  0  0  0  0  0  0  0  0
  150.0038  134.2849  157.6579 H   0  0  0  0  0  0  0  0  0  0  0  0
  150.0406  135.4508  155.7331 H   0  0  0  0  0  0  0  0  0  0  0  0
  150.8443  134.5943  154.4415 H   0  0  0  0  0  0  0  0  0  0  0  0
  148.6400  133.4240  156.2067 H   0  0  0  0  0  0  0  0  0  0  0  0
  148.5216  133.8634  154.5168 H   0  0  0  0  0  0  0  0  0  0  0  0
  150.0059  131.4886  156.8013 H   0  0  0  0  0  0  0  0  0  0  0  0
  150.8137  130.6205  155.5142 H   0  0  0  0  0  0  0  0  0  0  0  0
  152.3513  132.4636  155.1000 H   0  0  0  0  0  0  0  0  0  0  0  0
  152.4551  132.0328  156.7880 H   0  0  0  0  0  0  0  0  0  0  0  0
  1  2  1  0  0  0  0
  1 30  1  0  0  0  0
  1 31  1  0  0  0  0
  1 32  1  0  0  0  0
  2  3  1  0  0  0  0
  3  4  1  0  0  0  0
  3 33  1  0  0  0  0
  3 34  1  0  0  0  0
  4 28  1  0  0  0  0
  4 10  1  0  0  0  0
  4  5  1  0  0  0  0
  5  6  1  0  0  0  0
  5 35  1  0  0  0  0
  5 36  1  0  0  0  0
  6 29  1  0  0  0  0
  6  7  1  0  0  0  0
  6  9  1  0  0  0  0
  7  8  1  0  0  0  0
  8 37  1  0  0  0  0
  8 38  1  0  0  0  0
  8 39  1  0  0  0  0
  9 10  1  0  0  0  0
  9 40  1  0  0  0  0
  9 41  1  0  0  0  0
 10 11  1  0  0  0  0
 11 16  1  0  0  0  0
 11 12  2  0  0  0  0
 12 13  1  0  0  0  0
 13 14  2  0  0  0  0
 13 42  1  0  0  0  0
 14 15  1  0  0  0  0
 15 19  1  0  0  0  0
 15 16  2  0  0  0  0
 16 17  1  0  0  0  0
 17 18  2  0  0  0  0
 18 19  1  0  0  0  0
 18 43  1  0  0  0  0
 19 20  1  0  0  0  0
 20 21  1  0  0  0  0
 20 44  1  0  0  0  0
 20 45  1  0  0  0  0
 21 27  1  0  0  0  0
 21 22  1  0  0  0  0
 21 23  1  0  0  0  0
 22 46  1  0  0  0  0
 23 24  1  0  0  0  0
 23 47  1  0  0  0  0
 23 48  1  0  0  0  0
 24 25  1  0  0  0  0
 24 49  1  0  0  0  0
 24 50  1  0  0  0  0
 25 26  1  0  0  0  0
 26 27  1  0  0  0  0
 26 51  1  0  0  0  0
 26 52  1  0  0  0  0
 27 53  1  0  0  0  0
 27 54  1  0  0  0  0
M  END
> <s_m_source_file>
AV-unprocessed.smi

> <i_m_source_file_index>
162

> <i_lp_mmshare_version>
43012

> <i_f3d_flags>
0

> <s_epik_input>
W0NIM11PW0NIMl1bQ0BASF0xW0NIMl1bQ0BASF0oT1tDSDNdKVtDSDJdTjFjKG5bY0hdbjIpYyhjMjMpbltjSF1uM1tDSDJdQzQoW09IXSlbQ0gyXVtDSDJdT1tDSDJdW0NIMl00

> <s_epik_cmdline>
J2VwaWtfcHl0aG9uJywgJy1waCcsICc3LjAnLCAnLXRuJywgJzgnLCAnLW1hJywgJzIwMCcsICctbWV0YWxfYmluZGluZycsICctaW1hZScsICc8aW5maWxlLm1hZT4nLCAnLW9tYWUnLCAnPG91dGZpbGUubWFlPic=

> <r_lp_tautomer_probability>
1

> <r_epik_Ionization_Penalty>
0.00660334

> <r_epik_Ionization_Penalty_Charging>
0

> <r_epik_Ionization_Penalty_Neutral>
0.00660334

> <r_epik_State_Penalty>
0.00469459

> <r_epik_Charging_Adjusted_Penalty>
0.00469459

> <i_epik_Tot_Q>
0

> <i_epik_Tot_abs_Q>
0

> <r_epik_Metal_State_Penalty>
-0

> <b_epik_Metal_Only>
0

> <s_lp_Force_Field>
OPLS_2005

> <r_lp_Energy>
45.7705

> <b_lp_Chiralities_Consistent>
1

> <s_lp_Variant>
AV-unprocessed.smi:162-1

> <Gold.Version>
5.8.1

> <Gold.Id.Protein>
6NUR|6NUR_protein|mol2

> <Gold.PLP.Fitness>
45.8700

> <Gold.PLP.PLP>
-35.7788

> <Gold.PLP.part.hbond>
-3.6831

> <Gold.PLP.part.metal>
0.0000

> <Gold.PLP.part.buried>
-2.7583

> <Gold.PLP.part.nonpolar>
-30.9418

> <Gold.PLP.part.repulsive>
1.3489

> <Gold.PLP.ligand.clash>
0.0000

> <Gold.PLP.ligand.torsion>
0.9809

> <Gold.PLP.Chemscore.Hbond>
2.9913

> <Gold.PLP.Chemscore.CHOScore>
0.9733

> <Gold.PLP.Chemscore.Metal>
0.0000

> <Gold.Chemscore.Hbonds>
donor molecule, donor type, donor heavy atom, donor atom, acceptor molecule, acceptor atom, score
      P1  H  6896  6907       L1    22  0.21
      P1  H  7989  7998       L1    12  1.00
      P1  H 10752 10765       L1    14  0.20
      L1  C    13    42       P1  7948  0.21
      L1  C    13    42       P1  7949  0.72
      L1  C    13    42       P1  7957  0.02

> <Gold.PLP.Chemscore.Internal.Correction>
0.1593

> <Gold.Rescore>
     Score         DG    S(hbond)    S(metal)    S(lipo)     H(rot)  DE(clash)    DE(int)     intcor
     14.07     -16.55       2.71        0.00      79.93       2.86       1.92       0.56       ----

> <Gold.Chemscore.Fitness>
14.0682

> <Gold.Chemscore.DG>
-16.5481

> <Gold.Chemscore.ZeroCoef>
-5.4800

> <Gold.Chemscore.Hbond>
2.7092

> <Gold.Chemscore.Metal>
0.0000

> <Gold.Chemscore.Lipo>
79.9286

> <Gold.Chemscore.Internal_Hbond>
0.0000

> <Gold.Chemscore.DEClash>
1.9178

> <Gold.Chemscore.DEInternal>
0.5621

> <Gold.Chemscore.Rot>
2.8642

> <Gold.Chemscore.Internal.Correction>
   9.000000E+99

> <Gold.Chemscore.Hbonds>
donor molecule, donor type, donor heavy atom, donor atom, acceptor molecule, acceptor atom, score
      P1  H  6896  6907       L1    22  0.01
      P1  H  7989  7998       L1    12  0.51

> <Gold.Chemscore.Hbond.Weighted>
-9.0488

> <Gold.Chemscore.Metal.Weighted>
-0.0000

> <Gold.Chemscore.Lipo.Weighted>
-9.3517

> <Gold.Chemscore.Internal_Hbond.Weighted>
0.0000

> <Gold.Chemscore.DEClash.Weighted>
1.9178

> <Gold.Chemscore.DEInternal.Weighted>
0.5621

> <Gold.Chemscore.Rot.Weighted>
7.3324

> <Gold.Chemscore.Internal.Correction.Weighted>
   9.000000E+99

> <Gold.Protein.RotatedTorsions>
[ 6907 6896 6895 6894 ] final -109.63 input  -60.11 | X-H torsion
[ 7974 7965 7964 7962 ] final  -18.09 input  175.53 | X-H torsion
[ 8008 7997 7996 7995 ] final   46.39 input   59.86 | X-H torsion
[ 10167 10162 10161 10158 ] final  102.57 input  -65.29 | X-H torsion
[ 10718 10713 10712 10709 ] final   14.50 input   66.30 | X-H torsion
[ 10763 10752 10751 10750 ] final -179.59 input  -60.55 | X-H torsion
[ 11005 11000 10999 10996 ] final    0.20 input  -57.11 | X-H torsion

> <Gold.Protein.ActiveResidues>
 VAL166  LYS551  ARG553  GLY616  TRP617  ASP618  TYR619  PRO620  LYS621  CYS622 
 ASP623  PHE694  ASN695  SER759  ASP760  ASP761  ALA762  ILE779  LEU786  VAL792 
 PHE793  MET794  SER795  GLU796  ALA797  LYS798  CYS799  TRP800  GLU811  SER814 

> <Gold.Protein.RotatedAtoms>
  150.7574  133.9500  159.3482 H   0  0  0  0  0  0  0  0  0  0  0  0  # atno 6907 bound_to 6896
  151.7417  135.0851  160.0326 H   0  0  0  0  0  0  0  0  0  0  0  0  # atno 6908 bound_to 6896
  152.3524  133.6159  159.5990 H   0  0  0  0  0  0  0  0  0  0  0  0  # atno 6909 bound_to 6896
  146.1909  140.3872  142.8458 H   0  0  0  0  0  0  0  0  0  0  0  0  # atno 7974 bound_to 7965
  155.3516  140.3414  155.4239 H   0  0  0  0  0  0  0  0  0  0  0  0  # atno 8008 bound_to 7997
  156.1760  140.1648  156.8396 H   0  0  0  0  0  0  0  0  0  0  0  0  # atno 8009 bound_to 7997
  154.5283  140.0751  156.8281 H   0  0  0  0  0  0  0  0  0  0  0  0  # atno 8010 bound_to 7997
  139.7339  144.7029  151.0680 H   0  0  0  0  0  0  0  0  0  0  0  0  # atno 10167 bound_to 10162
  157.0400  130.6227  149.5749 H   0  0  0  0  0  0  0  0  0  0  0  0  # atno 10718 bound_to 10713
  154.5331  135.2801  155.1163 H   0  0  0  0  0  0  0  0  0  0  0  0  # atno 10763 bound_to 10752
  154.2675  135.6310  153.5301 H   0  0  0  0  0  0  0  0  0  0  0  0  # atno 10764 bound_to 10752
  152.9961  135.5620  154.5850 H   0  0  0  0  0  0  0  0  0  0  0  0  # atno 10765 bound_to 10752
  140.6292  133.9590  155.8265 H   0  0  0  0  0  0  0  0  0  0  0  0  # atno 11005 bound_to 11000
  144.8485  140.6966  143.6183 LP  0  0  0  0  0  0  0  0  0  0  0  0  # atno 17320 bound_to 7965
  145.3795  139.1640  143.4288 LP  0  0  0  0  0  0  0  0  0  0  0  0  # atno 17321 bound_to 7965
  140.7775  143.5009  150.9773 LP  0  0  0  0  0  0  0  0  0  0  0  0  # atno 17342 bound_to 10162
  139.8697  143.7208  152.3167 LP  0  0  0  0  0  0  0  0  0  0  0  0  # atno 17343 bound_to 10162
  156.0041  130.5125  150.7768 LP  0  0  0  0  0  0  0  0  0  0  0  0  # atno 17370 bound_to 10713
  157.5112  131.0925  151.0196 LP  0  0  0  0  0  0  0  0  0  0  0  0  # atno 17371 bound_to 10713
  141.0687  134.0238  157.3557 LP  0  0  0  0  0  0  0  0  0  0  0  0  # atno 17394 bound_to 11000
  139.9123  135.0192  156.7740 LP  0  0  0  0  0  0  0  0  0  0  0  0  # atno 17395 bound_to 11000

$$$$
