AV-unprocessed.smi:2763|AV-procd|sdf|10638|dock8
  -GOLD-   2272015 83D 1   1.00000     0.00000
 Structure written by MMmdl.
 37 38  0  0  0  0  0  0  0  0  1 V2000
  144.9890  137.3900  153.3151 O   0  0  0  0  0  0  0  0  0  0  0  0
  146.1120  137.2270  152.8368 C   0  0  0  0  0  0  0  0  0  0  0  0
  147.1091  138.1131  152.9726 N   0  0  0  0  0  0  0  0  0  0  0  0
  147.0155  139.3756  153.6959 C   0  0  0  0  0  0  0  0  0  0  0  0
  148.3139  140.1918  153.5777 C   0  0  0  0  0  0  0  0  0  0  0  0
  149.1074  140.2406  154.8930 C   0  0  2  0  0  0  0  0  0  0  0  0
  148.6425  141.3926  155.8051 C   0  0  0  0  0  0  0  0  0  0  0  0
  149.5037  141.4582  157.0717 C   0  0  0  0  0  0  0  0  0  0  0  0
  150.9854  141.5211  156.6864 C   0  0  0  0  0  0  0  0  0  0  0  0
  151.3359  140.3720  155.7278 C   0  0  0  0  0  0  0  0  0  0  0  0
  150.4887  140.4204  154.5838 O   0  0  0  0  0  0  0  0  0  0  0  0
  146.5045  136.1616  152.1163 N   0  0  0  0  0  0  0  0  0  0  0  0
  145.7543  135.0042  151.7779 C   0  0  0  0  0  0  0  0  0  0  0  0
  146.5259  133.8810  151.4020 C   0  0  0  0  0  0  0  0  0  0  0  0
  145.8780  132.6809  151.0505 C   0  0  0  0  0  0  0  0  0  0  0  0
  144.4730  132.6365  151.0855 C   0  0  0  0  0  0  0  0  0  0  0  0
  143.8060  131.5048  150.7568 F   0  0  0  0  0  0  0  0  0  0  0  0
  143.7787  133.7980  151.4711 C   0  0  0  0  0  0  0  0  0  0  0  0
  144.3988  134.9491  151.8080 N   0  0  0  0  0  0  0  0  0  0  0  0
  147.9987  137.8999  152.5459 H   0  0  0  0  0  0  0  0  0  0  0  0
  146.1641  139.9550  153.3347 H   0  0  0  0  0  0  0  0  0  0  0  0
  146.8116  139.1463  154.7420 H   0  0  0  0  0  0  0  0  0  0  0  0
  148.9406  139.7774  152.7868 H   0  0  0  0  0  0  0  0  0  0  0  0
  148.0695  141.2104  153.2732 H   0  0  0  0  0  0  0  0  0  0  0  0
  148.9771  139.2912  155.4159 H   0  0  0  0  0  0  0  0  0  0  0  0
  148.7115  142.3395  155.2678 H   0  0  0  0  0  0  0  0  0  0  0  0
  147.5943  141.2625  156.0756 H   0  0  0  0  0  0  0  0  0  0  0  0
  149.2287  142.3234  157.6755 H   0  0  0  0  0  0  0  0  0  0  0  0
  149.3207  140.5755  157.6858 H   0  0  0  0  0  0  0  0  0  0  0  0
  151.1986  142.4754  156.2032 H   0  0  0  0  0  0  0  0  0  0  0  0
  151.6110  141.4741  157.5781 H   0  0  0  0  0  0  0  0  0  0  0  0
  152.3727  140.4580  155.4021 H   0  0  0  0  0  0  0  0  0  0  0  0
  151.2384  139.4055  156.2248 H   0  0  0  0  0  0  0  0  0  0  0  0
  147.4550  136.1762  151.7773 H   0  0  0  0  0  0  0  0  0  0  0  0
  147.6049  133.9339  151.3817 H   0  0  0  0  0  0  0  0  0  0  0  0
  146.4494  131.8115  150.7602 H   0  0  0  0  0  0  0  0  0  0  0  0
  142.6995  133.8049  151.5110 H   0  0  0  0  0  0  0  0  0  0  0  0
  1  2  2  0  0  0  0
  2  3  1  0  0  0  0
  2 12  1  0  0  0  0
  3  4  1  0  0  0  0
  3 20  1  0  0  0  0
  4  5  1  0  0  0  0
  4 21  1  0  0  0  0
  4 22  1  0  0  0  0
  5  6  1  0  0  0  0
  5 23  1  0  0  0  0
  5 24  1  0  0  0  0
  6 11  1  0  0  0  0
  6  7  1  0  0  0  0
  6 25  1  0  0  0  0
  7  8  1  0  0  0  0
  7 26  1  0  0  0  0
  7 27  1  0  0  0  0
  8  9  1  0  0  0  0
  8 28  1  0  0  0  0
  8 29  1  0  0  0  0
  9 10  1  0  0  0  0
  9 30  1  0  0  0  0
  9 31  1  0  0  0  0
 10 11  1  0  0  0  0
 10 32  1  0  0  0  0
 10 33  1  0  0  0  0
 12 13  1  0  0  0  0
 12 34  1  0  0  0  0
 13 19  1  0  0  0  0
 13 14  2  0  0  0  0
 14 15  1  0  0  0  0
 14 35  1  0  0  0  0
 15 16  2  0  0  0  0
 15 36  1  0  0  0  0
 16 17  1  0  0  0  0
 16 18  1  0  0  0  0
 18 19  2  0  0  0  0
 18 37  1  0  0  0  0
M  END
> <s_m_source_file>
AV-unprocessed.smi

> <i_m_source_file_index>
2763

> <i_lp_mmshare_version>
43012

> <i_f3d_flags>
0

> <s_epik_input>
bjFbY0hdYyhGKVtjSF1bY0hdYzFbTkhdQyg9TylbTkhdW0NIMl1bQ0gyXVtDQEBIXTJbQ0gyXVtDSDJdW0NIMl1bQ0gyXU8y

> <s_epik_cmdline>
J2VwaWtfcHl0aG9uJywgJy1waCcsICc3LjAnLCAnLXRuJywgJzgnLCAnLW1hJywgJzIwMCcsICctbWV0YWxfYmluZGluZycsICctaW1hZScsICc8aW5maWxlLm1hZT4nLCAnLW9tYWUnLCAnPG91dGZpbGUubWFlPic=

> <r_lp_tautomer_probability>
1

> <r_epik_Ionization_Penalty>
3.67849e-05

> <r_epik_Ionization_Penalty_Charging>
0

> <r_epik_Ionization_Penalty_Neutral>
3.67849e-05

> <r_epik_State_Penalty>
-0

> <r_epik_Charging_Adjusted_Penalty>
0

> <i_epik_Tot_Q>
0

> <i_epik_Tot_abs_Q>
0

> <r_epik_Metal_State_Penalty>
-0

> <b_epik_Metal_Only>
0

> <s_lp_Force_Field>
OPLS_2005

> <r_lp_Energy>
12.1233

> <b_lp_Chiralities_Consistent>
1

> <s_lp_Variant>
AV-unprocessed.smi:2763-1

> <Gold.Version>
5.8.1

> <Gold.Id.Protein>
6NUR|6NUR_protein|mol2

> <Gold.PLP.Fitness>
39.8307

> <Gold.PLP.PLP>
-30.5420

> <Gold.PLP.part.hbond>
-2.6845

> <Gold.PLP.part.metal>
0.0000

> <Gold.PLP.part.buried>
-2.1800

> <Gold.PLP.part.nonpolar>
-27.6667

> <Gold.PLP.part.repulsive>
0.5186

> <Gold.PLP.ligand.clash>
0.0000

> <Gold.PLP.ligand.torsion>
0.7516

> <Gold.PLP.Chemscore.Hbond>
2.5970

> <Gold.PLP.Chemscore.CHOScore>
0.9984

> <Gold.PLP.Chemscore.Metal>
0.0000

> <Gold.Chemscore.Hbonds>
donor molecule, donor type, donor heavy atom, donor atom, acceptor molecule, acceptor atom, score
      L1  H     3    20       P1  7948  0.75
      L1  H    12    34       P1  7948  0.86
      P1  H  7989  7998       L1    11  0.90
      L1  C    18    37       P1 10186  0.68

> <Gold.PLP.Chemscore.Internal.Correction>
0.0059

> <Gold.Rescore>
     Score         DG    S(hbond)    S(metal)    S(lipo)     H(rot)  DE(clash)    DE(int)     intcor
     15.28     -17.95       2.77        0.00      61.20       1.54       0.68       1.98       ----

> <Gold.Chemscore.Fitness>
15.2827

> <Gold.Chemscore.DG>
-17.9483

> <Gold.Chemscore.ZeroCoef>
-5.4800

> <Gold.Chemscore.Hbond>
2.7682

> <Gold.Chemscore.Metal>
0.0000

> <Gold.Chemscore.Lipo>
61.2030

> <Gold.Chemscore.Internal_Hbond>
0.0000

> <Gold.Chemscore.DEClash>
0.6810

> <Gold.Chemscore.DEInternal>
1.9846

> <Gold.Chemscore.Rot>
1.5384

> <Gold.Chemscore.Internal.Correction>
   9.000000E+99

> <Gold.Chemscore.Hbonds>
donor molecule, donor type, donor heavy atom, donor atom, acceptor molecule, acceptor atom, score
      L1  H     3    20       P1  7948  0.72
      L1  H    12    34       P1  7948  0.83
      P1  H  7989  7998       L1    11  0.17

> <Gold.Chemscore.Hbond.Weighted>
-9.2458

> <Gold.Chemscore.Metal.Weighted>
-0.0000

> <Gold.Chemscore.Lipo.Weighted>
-7.1607

> <Gold.Chemscore.Internal_Hbond.Weighted>
0.0000

> <Gold.Chemscore.DEClash.Weighted>
0.6810

> <Gold.Chemscore.DEInternal.Weighted>
1.9846

> <Gold.Chemscore.Rot.Weighted>
3.9382

> <Gold.Chemscore.Internal.Correction.Weighted>
   9.000000E+99

> <Gold.Protein.RotatedTorsions>
[ 6907 6896 6895 6894 ] final -159.75 input  -60.11 | X-H torsion
[ 7974 7965 7964 7962 ] final  -86.37 input  175.53 | X-H torsion
[ 8008 7997 7996 7995 ] final  161.33 input   59.86 | X-H torsion
[ 10167 10162 10161 10158 ] final  156.52 input  -65.29 | X-H torsion
[ 10718 10713 10712 10709 ] final   16.62 input   66.30 | X-H torsion
[ 10763 10752 10751 10750 ] final -155.10 input  -60.55 | X-H torsion
[ 11005 11000 10999 10996 ] final -113.18 input  -57.11 | X-H torsion

> <Gold.Protein.ActiveResidues>
 VAL166  LYS551  ARG553  GLY616  TRP617  ASP618  TYR619  PRO620  LYS621  CYS622 
 ASP623  PHE694  ASN695  SER759  ASP760  ASP761  ALA762  ILE779  LEU786  VAL792 
 PHE793  MET794  SER795  GLU796  ALA797  LYS798  CYS799  TRP800  GLU811  SER814 

> <Gold.Protein.RotatedAtoms>
  151.3383  133.3972  159.2668 H   0  0  0  0  0  0  0  0  0  0  0  0  # atno 6907 bound_to 6896
  150.9898  134.9236  159.7903 H   0  0  0  0  0  0  0  0  0  0  0  0  # atno 6908 bound_to 6896
  152.5244  134.3348  159.9248 H   0  0  0  0  0  0  0  0  0  0  0  0  # atno 6909 bound_to 6896
  145.4808  140.9557  143.1866 H   0  0  0  0  0  0  0  0  0  0  0  0  # atno 7974 bound_to 7965
  156.2111  140.1780  156.7694 H   0  0  0  0  0  0  0  0  0  0  0  0  # atno 8008 bound_to 7997
  154.5723  140.0680  156.9012 H   0  0  0  0  0  0  0  0  0  0  0  0  # atno 8009 bound_to 7997
  155.2650  140.3338  155.4272 H   0  0  0  0  0  0  0  0  0  0  0  0  # atno 8010 bound_to 7997
  139.4821  144.5001  151.8180 H   0  0  0  0  0  0  0  0  0  0  0  0  # atno 10167 bound_to 10162
  157.0705  130.6346  149.5804 H   0  0  0  0  0  0  0  0  0  0  0  0  # atno 10718 bound_to 10713
  154.7811  135.3175  154.7986 H   0  0  0  0  0  0  0  0  0  0  0  0  # atno 10763 bound_to 10752
  153.8697  135.6845  153.4779 H   0  0  0  0  0  0  0  0  0  0  0  0  # atno 10764 bound_to 10752
  153.1448  135.4724  154.9488 H   0  0  0  0  0  0  0  0  0  0  0  0  # atno 10765 bound_to 10752
  141.0630  133.9505  157.2632 H   0  0  0  0  0  0  0  0  0  0  0  0  # atno 11005 bound_to 11000
  144.7890  139.6367  143.7121 LP  0  0  0  0  0  0  0  0  0  0  0  0  # atno 17320 bound_to 7965
  146.2342  139.5873  142.9535 LP  0  0  0  0  0  0  0  0  0  0  0  0  # atno 17321 bound_to 7965
  140.4494  144.1876  150.5896 LP  0  0  0  0  0  0  0  0  0  0  0  0  # atno 17342 bound_to 10162
  140.4601  143.2452  151.9232 LP  0  0  0  0  0  0  0  0  0  0  0  0  # atno 17343 bound_to 10162
  155.9952  130.5018  150.7448 LP  0  0  0  0  0  0  0  0  0  0  0  0  # atno 17370 bound_to 10713
  157.4882  131.0908  151.0458 LP  0  0  0  0  0  0  0  0  0  0  0  0  # atno 17371 bound_to 10713
  139.9450  135.0185  156.8824 LP  0  0  0  0  0  0  0  0  0  0  0  0  # atno 17394 bound_to 11000
  140.5831  134.0333  155.7471 LP  0  0  0  0  0  0  0  0  0  0  0  0  # atno 17395 bound_to 11000

$$$$
