AV-unprocessed.smi:2959|AV-procd|sdf|11310|dock7
  -GOLD-   2272016213D 1   1.00000     0.00000
 Structure written by MMmdl.
 46 48  0  0  0  0  0  0  0  0  2 V2000
  151.1257  138.3107  154.3215 C   0  0  0  0  0  0  0  0  0  0  0  0
  151.4600  137.8276  155.7286 C   0  0  0  0  0  0  0  0  0  0  0  0
  151.8493  136.6748  155.9112 O   0  0  0  0  0  0  0  0  0  0  0  0
  151.3044  138.7204  156.7161 N   0  0  0  0  0  0  0  0  0  0  0  0
  151.5805  138.4458  158.1193 C   0  0  0  0  0  0  0  0  0  0  0  0
  152.8605  139.1615  158.5696 C   0  0  0  0  0  0  0  0  0  0  0  0
  152.6289  140.6246  158.7676 C   0  0  0  0  0  0  0  0  0  0  0  0
  152.0225  141.4641  157.8812 N   0  3  0  0  0  0  0  0  0  0  0  0
  151.9805  142.7565  158.4066 C   0  0  0  0  0  0  0  0  0  0  0  0
  151.4726  143.9396  157.8787 C   0  0  0  0  0  0  0  0  0  0  0  0
  151.5930  145.0935  158.6808 C   0  0  0  0  0  0  0  0  0  0  0  0
  152.1996  145.0438  159.9529 C   0  0  0  0  0  0  0  0  0  0  0  0
  152.7111  143.8383  160.4775 C   0  0  0  0  0  0  0  0  0  0  0  0
  152.5862  142.7021  159.6785 C   0  0  0  0  0  0  0  0  0  0  0  0
  152.9659  141.3683  159.8612 N   0  0  0  0  0  0  0  0  0  0  0  0
  153.6434  140.9802  161.1068 C   0  0  0  0  0  0  0  0  0  0  0  0
  155.0763  140.4893  160.8566 C   0  0  0  0  0  0  0  0  0  0  0  0
  155.6492  140.0898  162.0947 O   0  0  0  0  0  0  0  0  0  0  0  0
  155.1615  138.9576  162.7088 C   0  0  0  0  0  0  0  0  0  0  0  0
  155.6224  138.6921  164.0149 C   0  0  0  0  0  0  0  0  0  0  0  0
  155.1762  137.5580  164.7198 C   0  0  0  0  0  0  0  0  0  0  0  0
  154.2608  136.6731  164.1210 C   0  0  0  0  0  0  0  0  0  0  0  0
  153.7937  136.9252  162.8177 C   0  0  0  0  0  0  0  0  0  0  0  0
  154.2398  138.0601  162.1125 C   0  0  0  0  0  0  0  0  0  0  0  0
  150.0874  138.6393  154.2674 H   0  0  0  0  0  0  0  0  0  0  0  0
  151.2690  137.5120  153.5933 H   0  0  0  0  0  0  0  0  0  0  0  0
  151.7684  139.1461  154.0425 H   0  0  0  0  0  0  0  0  0  0  0  0
  150.9830  139.6479  156.4790 H   0  0  0  0  0  0  0  0  0  0  0  0
  150.7356  138.7720  158.7282 H   0  0  0  0  0  0  0  0  0  0  0  0
  151.6812  137.3684  158.2586 H   0  0  0  0  0  0  0  0  0  0  0  0
  153.2294  138.7286  159.5000 H   0  0  0  0  0  0  0  0  0  0  0  0
  153.6491  139.0250  157.8285 H   0  0  0  0  0  0  0  0  0  0  0  0
  151.0087  143.9810  156.9041 H   0  0  0  0  0  0  0  0  0  0  0  0
  151.2138  146.0359  158.3127 H   0  0  0  0  0  0  0  0  0  0  0  0
  152.2747  145.9486  160.5385 H   0  0  0  0  0  0  0  0  0  0  0  0
  153.1758  143.8107  161.4519 H   0  0  0  0  0  0  0  0  0  0  0  0
  153.6299  141.8239  161.7975 H   0  0  0  0  0  0  0  0  0  0  0  0
  153.0559  140.1899  161.5747 H   0  0  0  0  0  0  0  0  0  0  0  0
  155.0603  139.6501  160.1593 H   0  0  0  0  0  0  0  0  0  0  0  0
  155.6642  141.2910  160.4076 H   0  0  0  0  0  0  0  0  0  0  0  0
  156.3255  139.3663  164.4817 H   0  0  0  0  0  0  0  0  0  0  0  0
  155.5366  137.3669  165.7198 H   0  0  0  0  0  0  0  0  0  0  0  0
  153.9176  135.8027  164.6605 H   0  0  0  0  0  0  0  0  0  0  0  0
  153.0916  136.2460  162.3568 H   0  0  0  0  0  0  0  0  0  0  0  0
  153.8611  138.2190  161.1145 H   0  0  0  0  0  0  0  0  0  0  0  0
  151.6676  141.1719  156.9797 H   0  0  0  0  0  0  0  0  0  0  0  0
  1  2  1  0  0  0  0
  1 25  1  0  0  0  0
  1 26  1  0  0  0  0
  1 27  1  0  0  0  0
  2  3  2  0  0  0  0
  2  4  1  0  0  0  0
  4  5  1  0  0  0  0
  4 28  1  0  0  0  0
  5  6  1  0  0  0  0
  5 29  1  0  0  0  0
  5 30  1  0  0  0  0
  6  7  1  0  0  0  0
  6 31  1  0  0  0  0
  6 32  1  0  0  0  0
  7 15  1  0  0  0  0
  7  8  2  0  0  0  0
  8  9  1  0  0  0  0
  8 46  1  0  0  0  0
  9 14  2  0  0  0  0
  9 10  1  0  0  0  0
 10 11  2  0  0  0  0
 10 33  1  0  0  0  0
 11 12  1  0  0  0  0
 11 34  1  0  0  0  0
 12 13  2  0  0  0  0
 12 35  1  0  0  0  0
 13 14  1  0  0  0  0
 13 36  1  0  0  0  0
 14 15  1  0  0  0  0
 15 16  1  0  0  0  0
 16 17  1  0  0  0  0
 16 37  1  0  0  0  0
 16 38  1  0  0  0  0
 17 18  1  0  0  0  0
 17 39  1  0  0  0  0
 17 40  1  0  0  0  0
 18 19  1  0  0  0  0
 19 24  1  0  0  0  0
 19 20  2  0  0  0  0
 20 21  1  0  0  0  0
 20 41  1  0  0  0  0
 21 22  2  0  0  0  0
 21 42  1  0  0  0  0
 22 23  1  0  0  0  0
 22 43  1  0  0  0  0
 23 24  2  0  0  0  0
 23 44  1  0  0  0  0
 24 45  1  0  0  0  0
M  CHG  1   8   1
M  END
> <s_m_source_file>
AV-unprocessed.smi

> <i_m_source_file_index>
2959

> <i_lp_mmshare_version>
43012

> <i_f3d_flags>
0

> <s_epik_input>
W0NIM11DKD1PKVtOSF1bQ0gyXVtDSDJdYyhuMSluKGMoYzEyKVtjSF1bY0hdW2NIXVtjSF0yKVtDSDJdW0NIMl1PYzNbY0hdW2NIXVtjSF1bY0hdW2NIXTM=

> <s_epik_cmdline>
J2VwaWtfcHl0aG9uJywgJy1waCcsICc3LjAnLCAnLXRuJywgJzgnLCAnLW1hJywgJzIwMCcsICctbWV0YWxfYmluZGluZycsICctaW1hZScsICc8aW5maWxlLm1hZT4nLCAnLW9tYWUnLCAnPG91dGZpbGUubWFlPic=

> <r_lp_tautomer_probability>
1

> <r_epik_Ionization_Penalty>
1.04698

> <r_epik_Ionization_Penalty_Charging>
1.04698

> <r_epik_Ionization_Penalty_Neutral>
3.05925e-07

> <r_epik_State_Penalty>
1.0995

> <r_epik_Charging_Adjusted_Penalty>
2.14648

> <i_epik_Tot_Q>
1

> <i_epik_Tot_abs_Q>
1

> <r_epik_Metal_State_Penalty>
1.19436

> <b_epik_Metal_Only>
0

> <s_lp_Force_Field>
OPLS_2005

> <r_lp_Energy>
17.9669

> <b_lp_Chiralities_Consistent>
1

> <s_lp_Variant>
AV-unprocessed.smi:2959-2

> <Gold.Version>
5.8.1

> <Gold.Id.Protein>
6NUR|6NUR_protein|mol2

> <Gold.PLP.Fitness>
57.7205

> <Gold.PLP.PLP>
-55.2792

> <Gold.PLP.part.hbond>
-1.8167

> <Gold.PLP.part.metal>
0.0000

> <Gold.PLP.part.buried>
-5.5257

> <Gold.PLP.part.nonpolar>
-47.0547

> <Gold.PLP.part.repulsive>
0.1448

> <Gold.PLP.ligand.clash>
0.0000

> <Gold.PLP.ligand.torsion>
0.3286

> <Gold.PLP.Chemscore.Hbond>
1.0000

> <Gold.PLP.Chemscore.CHOScore>
0.0000

> <Gold.PLP.Chemscore.Metal>
0.0000

> <Gold.Chemscore.Hbonds>
donor molecule, donor type, donor heavy atom, donor atom, acceptor molecule, acceptor atom, score
      P1  H 10752 10765       L1     3  1.00

> <Gold.PLP.Chemscore.Internal.Correction>
0.0985

> <Gold.Rescore>
     Score         DG    S(hbond)    S(metal)    S(lipo)     H(rot)  DE(clash)    DE(int)     intcor
     20.51     -20.86       1.00        0.00     151.24       2.21       0.08       0.27       ----

> <Gold.Chemscore.Fitness>
20.5094

> <Gold.Chemscore.DG>
-20.8560

> <Gold.Chemscore.ZeroCoef>
-5.4800

> <Gold.Chemscore.Hbond>
0.9991

> <Gold.Chemscore.Metal>
0.0000

> <Gold.Chemscore.Lipo>
151.2394

> <Gold.Chemscore.Internal_Hbond>
0.0000

> <Gold.Chemscore.DEClash>
0.0814

> <Gold.Chemscore.DEInternal>
0.2652

> <Gold.Chemscore.Rot>
2.2093

> <Gold.Chemscore.Internal.Correction>
   9.000000E+99

> <Gold.Chemscore.Hbonds>
donor molecule, donor type, donor heavy atom, donor atom, acceptor molecule, acceptor atom, score
      P1  H 10752 10765       L1     3  0.95

> <Gold.Chemscore.Hbond.Weighted>
-3.3369

> <Gold.Chemscore.Metal.Weighted>
-0.0000

> <Gold.Chemscore.Lipo.Weighted>
-17.6950

> <Gold.Chemscore.Internal_Hbond.Weighted>
0.0000

> <Gold.Chemscore.DEClash.Weighted>
0.0814

> <Gold.Chemscore.DEInternal.Weighted>
0.2652

> <Gold.Chemscore.Rot.Weighted>
5.6559

> <Gold.Chemscore.Internal.Correction.Weighted>
   9.000000E+99

> <Gold.Protein.RotatedTorsions>
[ 6907 6896 6895 6894 ] final   59.69 input  -60.11 | X-H torsion
[ 7974 7965 7964 7962 ] final   47.02 input  175.53 | X-H torsion
[ 8008 7997 7996 7995 ] final   -0.02 input   59.86 | X-H torsion
[ 10167 10162 10161 10158 ] final   53.10 input  -65.29 | X-H torsion
[ 10718 10713 10712 10709 ] final  150.85 input   66.30 | X-H torsion
[ 10763 10752 10751 10750 ] final -145.71 input  -60.55 | X-H torsion
[ 11005 11000 10999 10996 ] final  178.31 input  -57.11 | X-H torsion

> <Gold.Protein.ActiveResidues>
 VAL166  LYS551  ARG553  GLY616  TRP617  ASP618  TYR619  PRO620  LYS621  CYS622 
 ASP623  PHE694  ASN695  SER759  ASP760  ASP761  ALA762  ILE779  LEU786  VAL792 
 PHE793  MET794  SER795  GLU796  ALA797  LYS798  CYS799  TRP800  GLU811  SER814 

> <Gold.Protein.RotatedAtoms>
  152.3937  134.6400  160.0097 H   0  0  0  0  0  0  0  0  0  0  0  0  # atno 6907 bound_to 6896
  151.6626  133.3311  159.3185 H   0  0  0  0  0  0  0  0  0  0  0  0  # atno 6908 bound_to 6896
  150.7848  134.6868  159.6519 H   0  0  0  0  0  0  0  0  0  0  0  0  # atno 6909 bound_to 6896
  146.0336  139.4793  142.9822 H   0  0  0  0  0  0  0  0  0  0  0  0  # atno 7974 bound_to 7965
  154.6628  140.2594  155.7090 H   0  0  0  0  0  0  0  0  0  0  0  0  # atno 8008 bound_to 7997
  156.2626  140.2845  156.1028 H   0  0  0  0  0  0  0  0  0  0  0  0  # atno 8009 bound_to 7997
  155.1283  140.0378  157.2758 H   0  0  0  0  0  0  0  0  0  0  0  0  # atno 8010 bound_to 7997
  140.2443  144.3549  150.6369 H   0  0  0  0  0  0  0  0  0  0  0  0  # atno 10167 bound_to 10162
  157.2781  131.0830  151.1551 H   0  0  0  0  0  0  0  0  0  0  0  0  # atno 10718 bound_to 10713
  154.8371  135.3406  154.6547 H   0  0  0  0  0  0  0  0  0  0  0  0  # atno 10763 bound_to 10752
  153.7161  135.6961  153.5029 H   0  0  0  0  0  0  0  0  0  0  0  0  # atno 10764 bound_to 10752
  153.2416  135.4383  155.0657 H   0  0  0  0  0  0  0  0  0  0  0  0  # atno 10765 bound_to 10752
  140.3937  134.6839  157.4522 H   0  0  0  0  0  0  0  0  0  0  0  0  # atno 11005 bound_to 11000
  145.7000  141.0138  143.1509 LP  0  0  0  0  0  0  0  0  0  0  0  0  # atno 17320 bound_to 7965
  144.7041  139.8634  143.7435 LP  0  0  0  0  0  0  0  0  0  0  0  0  # atno 17321 bound_to 7965
  140.6089  143.2168  151.6925 LP  0  0  0  0  0  0  0  0  0  0  0  0  # atno 17342 bound_to 10162
  139.5067  144.3673  152.0504 LP  0  0  0  0  0  0  0  0  0  0  0  0  # atno 17343 bound_to 10162
  157.2996  130.6836  149.6157 LP  0  0  0  0  0  0  0  0  0  0  0  0  # atno 17370 bound_to 10713
  155.9664  130.4396  150.5265 LP  0  0  0  0  0  0  0  0  0  0  0  0  # atno 17371 bound_to 10713
  140.0387  134.6299  155.9009 LP  0  0  0  0  0  0  0  0  0  0  0  0  # atno 17394 bound_to 11000
  141.1882  133.6562  156.5312 LP  0  0  0  0  0  0  0  0  0  0  0  0  # atno 17395 bound_to 11000

$$$$
