AV-unprocessed.smi:3292|AV-procd|sdf|12622|dock1
  -GOLD-   2272018553D 1   1.00000     0.00000
 Structure written by MMmdl.
 39 40  0  0  0  0  0  0  0  0  2 V2000
  147.6336  131.8647  154.1195 C   0  0  0  0  0  0  0  0  0  0  0  0
  147.1957  133.0828  153.2898 C   0  0  1  0  0  0  0  0  0  0  0  0
  145.7640  133.5585  153.6207 C   0  0  0  0  0  0  0  0  0  0  0  0
  145.0508  134.0741  152.4485 N   0  0  0  0  0  0  0  0  0  0  0  0
  145.4970  135.0161  151.5576 C   0  0  0  0  0  0  0  0  0  0  0  0
  144.4972  135.1857  150.6348 C   0  0  0  0  0  0  0  0  0  0  0  0
  143.4822  134.3441  151.0037 N   0  3  0  0  0  0  0  0  0  0  0  0
  143.8192  133.6714  152.1091 C   0  0  0  0  0  0  0  0  0  0  0  0
  148.1500  134.1694  153.4911 N   0  0  0  0  0  0  0  0  0  0  0  0
  148.6266  134.5657  154.6800 C   0  0  0  0  0  0  0  0  0  0  0  0
  148.3224  134.0419  155.7519 O   0  0  0  0  0  0  0  0  0  0  0  0
  149.4699  135.6005  154.5589 N   0  0  0  0  0  0  0  0  0  0  0  0
  150.1503  136.2686  155.6641 C   0  0  0  0  0  0  0  0  0  0  0  0
  151.0211  137.4417  155.1763 C   0  0  2  0  0  0  0  0  0  0  0  0
  151.6925  138.2119  156.2948 C   0  0  0  0  0  0  0  0  0  0  0  0
  152.0702  139.5182  155.6019 C   0  0  0  0  0  0  0  0  0  0  0  0
  151.0944  139.7186  154.5830 O   0  0  0  0  0  0  0  0  0  0  0  0
  150.2641  138.5675  154.4693 C   0  0  0  0  0  0  0  0  0  0  0  0
  146.9994  130.9994  153.9261 H   0  0  0  0  0  0  0  0  0  0  0  0
  147.5919  132.0771  155.1882 H   0  0  0  0  0  0  0  0  0  0  0  0
  148.6566  131.5740  153.8777 H   0  0  0  0  0  0  0  0  0  0  0  0
  147.2306  132.7889  152.2387 H   0  0  0  0  0  0  0  0  0  0  0  0
  145.1786  132.7445  154.0518 H   0  0  0  0  0  0  0  0  0  0  0  0
  145.7836  134.3592  154.3612 H   0  0  0  0  0  0  0  0  0  0  0  0
  146.4685  135.4817  151.6443 H   0  0  0  0  0  0  0  0  0  0  0  0
  144.4336  135.8262  149.7671 H   0  0  0  0  0  0  0  0  0  0  0  0
  143.2159  132.9441  152.6227 H   0  0  0  0  0  0  0  0  0  0  0  0
  148.4586  134.6641  152.6668 H   0  0  0  0  0  0  0  0  0  0  0  0
  149.6530  135.9581  153.6327 H   0  0  0  0  0  0  0  0  0  0  0  0
  149.4343  136.6055  156.4157 H   0  0  0  0  0  0  0  0  0  0  0  0
  150.7818  135.5293  156.1574 H   0  0  0  0  0  0  0  0  0  0  0  0
  151.7949  137.0645  154.5053 H   0  0  0  0  0  0  0  0  0  0  0  0
  150.9829  138.4094  157.0999 H   0  0  0  0  0  0  0  0  0  0  0  0
  152.5526  137.6925  156.7183 H   0  0  0  0  0  0  0  0  0  0  0  0
  152.1028  140.3600  156.2938 H   0  0  0  0  0  0  0  0  0  0  0  0
  153.0493  139.4300  155.1299 H   0  0  0  0  0  0  0  0  0  0  0  0
  150.0461  138.3369  153.4262 H   0  0  0  0  0  0  0  0  0  0  0  0
  149.3194  138.7744  154.9743 H   0  0  0  0  0  0  0  0  0  0  0  0
  142.6019  134.2447  150.5139 H   0  0  0  0  0  0  0  0  0  0  0  0
  1  2  1  0  0  0  0
  1 19  1  0  0  0  0
  1 20  1  0  0  0  0
  1 21  1  0  0  0  0
  2  3  1  0  0  0  0
  2  9  1  0  0  0  0
  2 22  1  0  0  0  0
  3  4  1  0  0  0  0
  3 23  1  0  0  0  0
  3 24  1  0  0  0  0
  4  8  1  0  0  0  0
  4  5  1  0  0  0  0
  5  6  2  0  0  0  0
  5 25  1  0  0  0  0
  6  7  1  0  0  0  0
  6 26  1  0  0  0  0
  7  8  2  0  0  0  0
  7 39  1  0  0  0  0
  8 27  1  0  0  0  0
  9 10  1  0  0  0  0
  9 28  1  0  0  0  0
 10 11  2  0  0  0  0
 10 12  1  0  0  0  0
 12 13  1  0  0  0  0
 12 29  1  0  0  0  0
 13 14  1  0  0  0  0
 13 30  1  0  0  0  0
 13 31  1  0  0  0  0
 14 18  1  0  0  0  0
 14 15  1  0  0  0  0
 14 32  1  0  0  0  0
 15 16  1  0  0  0  0
 15 33  1  0  0  0  0
 15 34  1  0  0  0  0
 16 17  1  0  0  0  0
 16 35  1  0  0  0  0
 16 36  1  0  0  0  0
 17 18  1  0  0  0  0
 18 37  1  0  0  0  0
 18 38  1  0  0  0  0
M  CHG  1   7   1
M  END
> <s_m_source_file>
AV-unprocessed.smi

> <i_m_source_file_index>
3292

> <i_lp_mmshare_version>
43012

> <i_f3d_flags>
0

> <s_epik_input>
W2NIXTFuW2NIXVtjSF1uMVtDSDJdW0NAQEhdKFtDSDNdKVtOSF1DKD1PKVtOSF1bQ0gyXVtDQEBIXTJbQ0gyXVtDSDJdT1tDSDJdMg==

> <s_epik_cmdline>
J2VwaWtfcHl0aG9uJywgJy1waCcsICc3LjAnLCAnLXRuJywgJzgnLCAnLW1hJywgJzIwMCcsICctbWV0YWxfYmluZGluZycsICctaW1hZScsICc8aW5maWxlLm1hZT4nLCAnLW9tYWUnLCAnPG91dGZpbGUubWFlPic=

> <r_lp_tautomer_probability>
1

> <r_epik_Ionization_Penalty>
0.255703

> <r_epik_Ionization_Penalty_Charging>
0

> <r_epik_Ionization_Penalty_Neutral>
0.255703

> <r_epik_State_Penalty>
0.247169

> <r_epik_Charging_Adjusted_Penalty>
0.247169

> <i_epik_Tot_Q>
1

> <i_epik_Tot_abs_Q>
1

> <r_epik_Metal_State_Penalty>
0.536791

> <b_epik_Metal_Only>
0

> <s_lp_Force_Field>
OPLS_2005

> <r_lp_Energy>
19.451

> <b_lp_Chiralities_Consistent>
1

> <s_lp_Variant>
AV-unprocessed.smi:3292-2

> <Gold.Version>
5.8.1

> <Gold.Id.Protein>
6NUR|6NUR_protein|mol2

> <Gold.PLP.Fitness>
46.8688

> <Gold.PLP.PLP>
-27.9318

> <Gold.PLP.part.hbond>
-4.0000

> <Gold.PLP.part.metal>
0.0000

> <Gold.PLP.part.buried>
-5.0758

> <Gold.PLP.part.nonpolar>
-20.4907

> <Gold.PLP.part.repulsive>
0.1529

> <Gold.PLP.ligand.clash>
0.0000

> <Gold.PLP.ligand.torsion>
0.7387

> <Gold.PLP.Chemscore.Hbond>
4.7352

> <Gold.PLP.Chemscore.CHOScore>
2.0000

> <Gold.PLP.Chemscore.Metal>
0.0000

> <Gold.Chemscore.Hbonds>
donor molecule, donor type, donor heavy atom, donor atom, acceptor molecule, acceptor atom, score
      L1  H     7    39       P1 10186  2.00
      L1  H     9    28       P1  7948  0.95
      L1  H    12    29       P1  7948  0.94
      P1  H  7989  7998       L1    17  1.00
      L1  C     5    25       P1  7948  0.91
      L1  C     8    27       P1 10957  0.99

> <Gold.PLP.Chemscore.Internal.Correction>
0.2087

> <Gold.Rescore>
     Score         DG    S(hbond)    S(metal)    S(lipo)     H(rot)  DE(clash)    DE(int)     intcor
     15.21     -17.53       3.61        0.00      48.86       2.24       0.05       2.27       ----

> <Gold.Chemscore.Fitness>
15.2072

> <Gold.Chemscore.DG>
-17.5301

> <Gold.Chemscore.ZeroCoef>
-5.4800

> <Gold.Chemscore.Hbond>
3.6106

> <Gold.Chemscore.Metal>
0.0000

> <Gold.Chemscore.Lipo>
48.8602

> <Gold.Chemscore.Internal_Hbond>
0.0000

> <Gold.Chemscore.DEClash>
0.0491

> <Gold.Chemscore.DEInternal>
2.2738

> <Gold.Chemscore.Rot>
2.2367

> <Gold.Chemscore.Internal.Correction>
   9.000000E+99

> <Gold.Chemscore.Hbonds>
donor molecule, donor type, donor heavy atom, donor atom, acceptor molecule, acceptor atom, score
      L1  H     7    39       P1 10186  0.65
      L1  H     9    28       P1  7948  0.21
      L1  H    12    29       P1  7948  0.23
      P1  H  7989  7998       L1    17  0.74

> <Gold.Chemscore.Hbond.Weighted>
-12.0593

> <Gold.Chemscore.Metal.Weighted>
-0.0000

> <Gold.Chemscore.Lipo.Weighted>
-5.7166

> <Gold.Chemscore.Internal_Hbond.Weighted>
0.0000

> <Gold.Chemscore.DEClash.Weighted>
0.0491

> <Gold.Chemscore.DEInternal.Weighted>
2.2738

> <Gold.Chemscore.Rot.Weighted>
5.7259

> <Gold.Chemscore.Internal.Correction.Weighted>
   9.000000E+99

> <Gold.Protein.RotatedTorsions>
[ 6907 6896 6895 6894 ] final   49.89 input  -60.11 | X-H torsion
[ 7974 7965 7964 7962 ] final   11.19 input  175.53 | X-H torsion
[ 8008 7997 7996 7995 ] final   -2.19 input   59.86 | X-H torsion
[ 10167 10162 10161 10158 ] final  -21.81 input  -65.29 | X-H torsion
[ 10718 10713 10712 10709 ] final  173.85 input   66.30 | X-H torsion
[ 10763 10752 10751 10750 ] final -151.22 input  -60.55 | X-H torsion
[ 11005 11000 10999 10996 ] final  121.52 input  -57.11 | X-H torsion

> <Gold.Protein.ActiveResidues>
 VAL166  LYS551  ARG553  GLY616  TRP617  ASP618  TYR619  PRO620  LYS621  CYS622 
 ASP623  PHE694  ASN695  SER759  ASP760  ASP761  ALA762  ILE779  LEU786  VAL792 
 PHE793  MET794  SER795  GLU796  ALA797  LYS798  CYS799  TRP800  GLU811  SER814 

> <Gold.Protein.RotatedAtoms>
  152.2957  134.7669  160.0368 H   0  0  0  0  0  0  0  0  0  0  0  0  # atno 6907 bound_to 6896
  151.8200  133.3388  159.3589 H   0  0  0  0  0  0  0  0  0  0  0  0  # atno 6908 bound_to 6896
  150.7250  134.5512  159.5840 H   0  0  0  0  0  0  0  0  0  0  0  0  # atno 6909 bound_to 6896
  146.2375  139.9522  142.8469 H   0  0  0  0  0  0  0  0  0  0  0  0  # atno 7974 bound_to 7965
  154.6384  140.2540  155.7351 H   0  0  0  0  0  0  0  0  0  0  0  0  # atno 8008 bound_to 7997
  156.2516  140.2892  156.0687 H   0  0  0  0  0  0  0  0  0  0  0  0  # atno 8009 bound_to 7997
  155.1635  140.0385  157.2838 H   0  0  0  0  0  0  0  0  0  0  0  0  # atno 8010 bound_to 7997
  140.7283  143.4593  151.0403 H   0  0  0  0  0  0  0  0  0  0  0  0  # atno 10167 bound_to 10162
  156.9583  131.0052  151.2933 H   0  0  0  0  0  0  0  0  0  0  0  0  # atno 10718 bound_to 10713
  154.8071  135.3265  154.7402 H   0  0  0  0  0  0  0  0  0  0  0  0  # atno 10763 bound_to 10752
  153.8058  135.6900  153.4853 H   0  0  0  0  0  0  0  0  0  0  0  0  # atno 10764 bound_to 10752
  153.1824  135.4581  154.9990 H   0  0  0  0  0  0  0  0  0  0  0  0  # atno 10765 bound_to 10752
  139.9229  134.9639  156.7971 H   0  0  0  0  0  0  0  0  0  0  0  0  # atno 11005 bound_to 11000
  145.1850  140.9785  143.4244 LP  0  0  0  0  0  0  0  0  0  0  0  0  # atno 17320 bound_to 7965
  144.9908  139.3692  143.6216 LP  0  0  0  0  0  0  0  0  0  0  0  0  # atno 17321 bound_to 7965
  139.8276  143.7734  152.3179 LP  0  0  0  0  0  0  0  0  0  0  0  0  # atno 17342 bound_to 10162
  139.7839  144.7435  151.0049 LP  0  0  0  0  0  0  0  0  0  0  0  0  # atno 17343 bound_to 10162
  157.5675  130.8288  149.8347 LP  0  0  0  0  0  0  0  0  0  0  0  0  # atno 17370 bound_to 10713
  156.0333  130.3758  150.1628 LP  0  0  0  0  0  0  0  0  0  0  0  0  # atno 17371 bound_to 10713
  140.6420  133.9810  155.7712 LP  0  0  0  0  0  0  0  0  0  0  0  0  # atno 17394 bound_to 11000
  141.0765  134.0127  157.3450 LP  0  0  0  0  0  0  0  0  0  0  0  0  # atno 17395 bound_to 11000

$$$$
