AV-unprocessed.smi:2902|AV-procd|sdf|11152|dock8
  -GOLD-   2272016 33D 1   1.00000     0.00000
 Structure written by MMmdl.
 47 48  0  0  0  0  0  0  0  0  1 V2000
  151.8833  138.9399  155.6635 C   0  0  0  0  0  0  0  0  0  0  0  0
  151.8911  140.3779  156.1976 C   0  0  0  0  0  0  0  0  0  0  0  0
  150.4806  140.8930  156.5398 C   0  0  1  0  0  0  0  0  0  0  0  0
  150.5748  142.2963  156.7840 O   0  0  0  0  0  0  0  0  0  0  0  0
  151.4748  142.7068  157.8105 C   0  0  0  0  0  0  0  0  0  0  0  0
  151.1854  141.9440  159.1011 C   0  0  0  0  0  0  0  0  0  0  0  0
  151.7977  142.8099  160.2061 C   0  0  0  0  0  0  0  0  0  0  0  0
  151.8136  144.2473  159.6624 C   0  0  0  0  0  0  0  0  0  0  0  0
  151.2912  144.1701  158.2227 C   0  0  0  0  0  0  0  0  0  0  0  0
  149.4910  140.6250  155.3949 C   0  0  0  0  0  0  0  0  0  0  0  0
  149.7597  140.9791  154.2468 O   0  0  0  0  0  0  0  0  0  0  0  0
  148.3450  140.0137  155.7352 N   0  0  0  0  0  0  0  0  0  0  0  0
  147.2379  139.6942  154.8357 C   0  0  2  0  0  0  0  0  0  0  0  0
  147.8149  139.0729  153.5510 C   0  0  0  0  0  0  0  0  0  0  0  0
  146.3740  140.9570  154.5796 C   0  0  2  0  0  0  0  0  0  0  0  0
  147.1434  142.0714  153.8435 C   0  0  0  0  0  0  0  0  0  0  0  0
  145.7870  141.4736  155.8087 N   0  0  0  0  0  0  0  0  0  0  0  0
  146.3529  142.1189  156.8307 C   0  0  0  0  0  0  0  0  0  0  0  0
  145.5034  142.4515  157.7927 N   0  0  0  0  0  0  0  0  0  0  0  0
  144.3502  141.9446  157.2640 C   0  0  0  0  0  0  0  0  0  0  0  0
  144.4643  141.3482  156.0775 N   0  0  0  0  0  0  0  0  0  0  0  0
  152.8941  138.6099  155.4232 H   0  0  0  0  0  0  0  0  0  0  0  0
  151.2828  138.8593  154.7572 H   0  0  0  0  0  0  0  0  0  0  0  0
  151.4745  138.2469  156.3994 H   0  0  0  0  0  0  0  0  0  0  0  0
  152.5327  140.4305  157.0784 H   0  0  0  0  0  0  0  0  0  0  0  0
  152.3473  141.0248  155.4467 H   0  0  0  0  0  0  0  0  0  0  0  0
  150.1386  140.3775  157.4387 H   0  0  0  0  0  0  0  0  0  0  0  0
  152.5146  142.5266  157.5345 H   0  0  0  0  0  0  0  0  0  0  0  0
  150.1074  141.8718  159.2528 H   0  0  0  0  0  0  0  0  0  0  0  0
  151.5869  140.9304  159.0883 H   0  0  0  0  0  0  0  0  0  0  0  0
  151.2369  142.7283  161.1376 H   0  0  0  0  0  0  0  0  0  0  0  0
  152.8184  142.4843  160.4096 H   0  0  0  0  0  0  0  0  0  0  0  0
  151.1997  144.9154  160.2673 H   0  0  0  0  0  0  0  0  0  0  0  0
  152.8317  144.6380  159.6770 H   0  0  0  0  0  0  0  0  0  0  0  0
  151.8050  144.8634  157.5564 H   0  0  0  0  0  0  0  0  0  0  0  0
  150.2298  144.4229  158.2090 H   0  0  0  0  0  0  0  0  0  0  0  0
  148.2205  139.7667  156.7062 H   0  0  0  0  0  0  0  0  0  0  0  0
  146.5968  138.9393  155.2943 H   0  0  0  0  0  0  0  0  0  0  0  0
  147.0282  138.7257  152.8810 H   0  0  0  0  0  0  0  0  0  0  0  0
  148.4417  138.2109  153.7824 H   0  0  0  0  0  0  0  0  0  0  0  0
  148.4266  139.7910  153.0038 H   0  0  0  0  0  0  0  0  0  0  0  0
  145.5401  140.6639  153.9393 H   0  0  0  0  0  0  0  0  0  0  0  0
  147.4669  141.7495  152.8537 H   0  0  0  0  0  0  0  0  0  0  0  0
  148.0314  142.3758  154.3982 H   0  0  0  0  0  0  0  0  0  0  0  0
  146.5179  142.9540  153.7069 H   0  0  0  0  0  0  0  0  0  0  0  0
  147.4065  142.3531  156.8711 H   0  0  0  0  0  0  0  0  0  0  0  0
  143.3980  142.0176  157.7684 H   0  0  0  0  0  0  0  0  0  0  0  0
  1  2  1  0  0  0  0
  1 22  1  0  0  0  0
  1 23  1  0  0  0  0
  1 24  1  0  0  0  0
  2  3  1  0  0  0  0
  2 25  1  0  0  0  0
  2 26  1  0  0  0  0
  3  4  1  0  0  0  0
  3 10  1  0  0  0  0
  3 27  1  0  0  0  0
  4  5  1  0  0  0  0
  5  9  1  0  0  0  0
  5  6  1  0  0  0  0
  5 28  1  0  0  0  0
  6  7  1  0  0  0  0
  6 29  1  0  0  0  0
  6 30  1  0  0  0  0
  7  8  1  0  0  0  0
  7 31  1  0  0  0  0
  7 32  1  0  0  0  0
  8  9  1  0  0  0  0
  8 33  1  0  0  0  0
  8 34  1  0  0  0  0
  9 35  1  0  0  0  0
  9 36  1  0  0  0  0
 10 11  2  0  0  0  0
 10 12  1  0  0  0  0
 12 13  1  0  0  0  0
 12 37  1  0  0  0  0
 13 14  1  0  0  0  0
 13 15  1  0  0  0  0
 13 38  1  0  0  0  0
 14 39  1  0  0  0  0
 14 40  1  0  0  0  0
 14 41  1  0  0  0  0
 15 16  1  0  0  0  0
 15 17  1  0  0  0  0
 15 42  1  0  0  0  0
 16 43  1  0  0  0  0
 16 44  1  0  0  0  0
 16 45  1  0  0  0  0
 17 21  1  0  0  0  0
 17 18  1  0  0  0  0
 18 19  2  0  0  0  0
 18 46  1  0  0  0  0
 19 20  1  0  0  0  0
 20 21  2  0  0  0  0
 20 47  1  0  0  0  0
M  END
> <s_m_source_file>
AV-unprocessed.smi

> <i_m_source_file_index>
2902

> <i_lp_mmshare_version>
43012

> <i_f3d_flags>
0

> <s_epik_input>
W0NIMl0xW0NIMl1bQ0gyXVtDSDJdW0NIXTFPW0NAQEhdKFtDSDJdW0NIM10pQyg9TylbTkhdW0NASF0oW0NIM10pW0NASF0oW0NIM10pbjJbY0hdbltjSF1uMg==

> <s_epik_cmdline>
J2VwaWtfcHl0aG9uJywgJy1waCcsICc3LjAnLCAnLXRuJywgJzgnLCAnLW1hJywgJzIwMCcsICctbWV0YWxfYmluZGluZycsICctaW1hZScsICc8aW5maWxlLm1hZT4nLCAnLW9tYWUnLCAnPG91dGZpbGUubWFlPic=

> <r_lp_tautomer_probability>
1

> <r_epik_Ionization_Penalty>
6.95617e-05

> <r_epik_Ionization_Penalty_Charging>
0

> <r_epik_Ionization_Penalty_Neutral>
6.95617e-05

> <r_epik_State_Penalty>
-0

> <r_epik_Charging_Adjusted_Penalty>
0

> <i_epik_Tot_Q>
0

> <i_epik_Tot_abs_Q>
0

> <r_epik_Metal_State_Penalty>
-0

> <b_epik_Metal_Only>
0

> <s_lp_Force_Field>
OPLS_2005

> <r_lp_Energy>
28.6706

> <b_lp_Chiralities_Consistent>
1

> <s_lp_Variant>
AV-unprocessed.smi:2902-2

> <Gold.Version>
5.8.1

> <Gold.Id.Protein>
6NUR|6NUR_protein|mol2

> <Gold.PLP.Fitness>
39.9266

> <Gold.PLP.PLP>
-36.1590

> <Gold.PLP.part.hbond>
-2.0000

> <Gold.PLP.part.metal>
0.0000

> <Gold.PLP.part.buried>
-3.8363

> <Gold.PLP.part.nonpolar>
-30.4091

> <Gold.PLP.part.repulsive>
1.6006

> <Gold.PLP.ligand.clash>
0.0000

> <Gold.PLP.ligand.torsion>
0.6538

> <Gold.PLP.Chemscore.Hbond>
0.9914

> <Gold.PLP.Chemscore.CHOScore>
0.6306

> <Gold.PLP.Chemscore.Metal>
0.0000

> <Gold.Chemscore.Hbonds>
donor molecule, donor type, donor heavy atom, donor atom, acceptor molecule, acceptor atom, score
      P1  H  7989  7998       L1    11  0.53
      P1  H  8011  8017       L1    11  0.08

> <Gold.PLP.Chemscore.Internal.Correction>
0.2092

> <Gold.Rescore>
     Score         DG    S(hbond)    S(metal)    S(lipo)     H(rot)  DE(clash)    DE(int)     intcor
      7.51     -12.74       0.83        0.00      97.22       2.69       1.62       3.61       ----

> <Gold.Chemscore.Fitness>
7.5114

> <Gold.Chemscore.DG>
-12.7363

> <Gold.Chemscore.ZeroCoef>
-5.4800

> <Gold.Chemscore.Hbond>
0.8313

> <Gold.Chemscore.Metal>
0.0000

> <Gold.Chemscore.Lipo>
97.2218

> <Gold.Chemscore.Internal_Hbond>
0.0000

> <Gold.Chemscore.DEClash>
1.6195

> <Gold.Chemscore.DEInternal>
3.6054

> <Gold.Chemscore.Rot>
2.6935

> <Gold.Chemscore.Internal.Correction>
   9.000000E+99

> <Gold.Chemscore.Hbonds>
donor molecule, donor type, donor heavy atom, donor atom, acceptor molecule, acceptor atom, score
      P1  H  7989  7998       L1    11  0.52
      P1  H  8011  8017       L1    11  0.10

> <Gold.Chemscore.Hbond.Weighted>
-2.7767

> <Gold.Chemscore.Metal.Weighted>
-0.0000

> <Gold.Chemscore.Lipo.Weighted>
-11.3749

> <Gold.Chemscore.Internal_Hbond.Weighted>
0.0000

> <Gold.Chemscore.DEClash.Weighted>
1.6195

> <Gold.Chemscore.DEInternal.Weighted>
3.6054

> <Gold.Chemscore.Rot.Weighted>
6.8954

> <Gold.Chemscore.Internal.Correction.Weighted>
   9.000000E+99

> <Gold.Protein.RotatedTorsions>
[ 6907 6896 6895 6894 ] final  -81.75 input  -60.11 | X-H torsion
[ 7974 7965 7964 7962 ] final -146.73 input  175.53 | X-H torsion
[ 8008 7997 7996 7995 ] final   59.59 input   59.86 | X-H torsion
[ 10167 10162 10161 10158 ] final -149.20 input  -65.29 | X-H torsion
[ 10718 10713 10712 10709 ] final  -59.66 input   66.30 | X-H torsion
[ 10763 10752 10751 10750 ] final -117.97 input  -60.55 | X-H torsion
[ 11005 11000 10999 10996 ] final  175.28 input  -57.11 | X-H torsion

> <Gold.Protein.ActiveResidues>
 VAL166  LYS551  ARG553  GLY616  TRP617  ASP618  TYR619  PRO620  LYS621  CYS622 
 ASP623  PHE694  ASN695  SER759  ASP760  ASP761  ALA762  ILE779  LEU786  VAL792 
 PHE793  MET794  SER795  GLU796  ALA797  LYS798  CYS799  TRP800  GLU811  SER814 

> <Gold.Protein.RotatedAtoms>
  150.6907  134.3770  159.5016 H   0  0  0  0  0  0  0  0  0  0  0  0  # atno 6907 bound_to 6896
  152.1578  134.8934  160.0553 H   0  0  0  0  0  0  0  0  0  0  0  0  # atno 6908 bound_to 6896
  152.0008  133.3790  159.4218 H   0  0  0  0  0  0  0  0  0  0  0  0  # atno 6909 bound_to 6896
  144.8140  140.5418  143.5623 H   0  0  0  0  0  0  0  0  0  0  0  0  # atno 7974 bound_to 7965
  155.5687  140.3489  155.4509 H   0  0  0  0  0  0  0  0  0  0  0  0  # atno 8008 bound_to 7997
  156.0460  140.1307  157.0128 H   0  0  0  0  0  0  0  0  0  0  0  0  # atno 8009 bound_to 7997
  154.4413  140.1014  156.6292 H   0  0  0  0  0  0  0  0  0  0  0  0  # atno 8010 bound_to 7997
  139.7463  143.8585  152.2575 H   0  0  0  0  0  0  0  0  0  0  0  0  # atno 10167 bound_to 10162
  156.1046  130.4182  150.0746 H   0  0  0  0  0  0  0  0  0  0  0  0  # atno 10718 bound_to 10713
  154.8572  135.4290  154.2065 H   0  0  0  0  0  0  0  0  0  0  0  0  # atno 10763 bound_to 10752
  153.3100  135.6975  153.7130 H   0  0  0  0  0  0  0  0  0  0  0  0  # atno 10764 bound_to 10752
  153.6226  135.3499  155.2990 H   0  0  0  0  0  0  0  0  0  0  0  0  # atno 10765 bound_to 10752
  140.3605  134.7117  157.4328 H   0  0  0  0  0  0  0  0  0  0  0  0  # atno 11005 bound_to 11000
  145.5258  139.1476  143.3527 LP  0  0  0  0  0  0  0  0  0  0  0  0  # atno 17320 bound_to 7965
  146.2441  140.5399  142.8921 LP  0  0  0  0  0  0  0  0  0  0  0  0  # atno 17321 bound_to 7965
  139.8550  144.7145  150.9168 LP  0  0  0  0  0  0  0  0  0  0  0  0  # atno 17342 bound_to 10162
  140.7792  143.3866  151.1383 LP  0  0  0  0  0  0  0  0  0  0  0  0  # atno 17343 bound_to 10162
  156.8725  130.9529  151.3608 LP  0  0  0  0  0  0  0  0  0  0  0  0  # atno 17370 bound_to 10713
  157.6221  130.8663  149.9126 LP  0  0  0  0  0  0  0  0  0  0  0  0  # atno 17371 bound_to 10713
  140.0630  134.5968  155.8727 LP  0  0  0  0  0  0  0  0  0  0  0  0  # atno 17394 bound_to 11000
  141.1985  133.6602  156.5797 LP  0  0  0  0  0  0  0  0  0  0  0  0  # atno 17395 bound_to 11000

$$$$
