AV-unprocessed.smi:452|AV-procd|sdf|2610|dock1
  -GOLD-   2262023 03D 1   1.00000     0.00000
 Structure written by MMmdl.
 43 44  0  0  0  0  0  0  0  0  1 V2000
  155.1824  143.9105  168.2172 C   0  0  0  0  0  0  0  0  0  0  0  0
  155.4154  142.4392  167.8409 C   0  0  0  0  0  0  0  0  0  0  0  0
  155.1495  141.5324  169.0547 C   0  0  0  0  0  0  0  0  0  0  0  0
  156.8292  142.2442  167.2546 C   0  0  0  0  0  0  0  0  0  0  0  0
  156.9603  141.0261  166.3181 C   0  0  0  0  0  0  0  0  0  0  0  0
  156.4355  141.3074  164.9062 C   0  0  0  0  0  0  0  0  0  0  0  0
  157.1406  141.0527  163.9294 O   0  0  0  0  0  0  0  0  0  0  0  0
  155.1993  141.8370  164.8392 N   0  0  0  0  0  0  0  0  0  0  0  0
  154.4525  142.1915  163.6844 C   0  0  0  0  0  0  0  0  0  0  0  0
  153.6338  143.3331  163.8307 C   0  0  0  0  0  0  0  0  0  0  0  0
  152.8465  143.7652  162.7465 C   0  0  0  0  0  0  0  0  0  0  0  0
  152.8977  143.0487  161.5356 C   0  0  0  0  0  0  0  0  0  0  0  0
  152.1102  143.4573  160.4498 N   0  0  0  0  0  0  0  0  0  0  0  0
  152.5998  142.9521  159.1735 C   0  0  0  0  0  0  0  0  0  0  0  0
  151.6227  143.3305  158.0464 C   0  0  0  0  0  0  0  0  0  0  0  0
  151.4280  144.7421  158.0349 O   0  0  0  0  0  0  0  0  0  0  0  0
  150.8779  145.2155  159.2610 C   0  0  0  0  0  0  0  0  0  0  0  0
  151.8403  144.8896  160.4168 C   0  0  0  0  0  0  0  0  0  0  0  0
  153.7463  141.9210  161.4767 C   0  0  0  0  0  0  0  0  0  0  0  0
  154.4993  141.5047  162.5163 N   0  0  0  0  0  0  0  0  0  0  0  0
  155.8830  144.2376  168.9864 H   0  0  0  0  0  0  0  0  0  0  0  0
  154.1729  144.0648  168.5993 H   0  0  0  0  0  0  0  0  0  0  0  0
  155.3077  144.5640  167.3535 H   0  0  0  0  0  0  0  0  0  0  0  0
  154.6897  142.1849  167.0670 H   0  0  0  0  0  0  0  0  0  0  0  0
  155.8735  141.7132  169.8498 H   0  0  0  0  0  0  0  0  0  0  0  0
  155.1986  140.4765  168.7912 H   0  0  0  0  0  0  0  0  0  0  0  0
  154.1556  141.7117  169.4658 H   0  0  0  0  0  0  0  0  0  0  0  0
  157.0994  143.1429  166.6976 H   0  0  0  0  0  0  0  0  0  0  0  0
  157.5535  142.1664  168.0670 H   0  0  0  0  0  0  0  0  0  0  0  0
  158.0018  140.7107  166.2536 H   0  0  0  0  0  0  0  0  0  0  0  0
  156.4036  140.1821  166.7267 H   0  0  0  0  0  0  0  0  0  0  0  0
  154.7334  141.9922  165.7209 H   0  0  0  0  0  0  0  0  0  0  0  0
  153.6024  143.8744  164.7652 H   0  0  0  0  0  0  0  0  0  0  0  0
  152.2122  144.6338  162.8471 H   0  0  0  0  0  0  0  0  0  0  0  0
  153.5855  143.3705  158.9649 H   0  0  0  0  0  0  0  0  0  0  0  0
  152.7121  141.8682  159.2219 H   0  0  0  0  0  0  0  0  0  0  0  0
  152.0227  143.0182  157.0817 H   0  0  0  0  0  0  0  0  0  0  0  0
  150.6657  142.8221  158.1750 H   0  0  0  0  0  0  0  0  0  0  0  0
  150.7247  146.2923  159.1903 H   0  0  0  0  0  0  0  0  0  0  0  0
  149.8988  144.7643  159.4306 H   0  0  0  0  0  0  0  0  0  0  0  0
  151.4057  145.2061  161.3656 H   0  0  0  0  0  0  0  0  0  0  0  0
  152.7710  145.4429  160.2857 H   0  0  0  0  0  0  0  0  0  0  0  0
  153.8199  141.3287  160.5765 H   0  0  0  0  0  0  0  0  0  0  0  0
  1  2  1  0  0  0  0
  1 21  1  0  0  0  0
  1 22  1  0  0  0  0
  1 23  1  0  0  0  0
  2  3  1  0  0  0  0
  2  4  1  0  0  0  0
  2 24  1  0  0  0  0
  3 25  1  0  0  0  0
  3 26  1  0  0  0  0
  3 27  1  0  0  0  0
  4  5  1  0  0  0  0
  4 28  1  0  0  0  0
  4 29  1  0  0  0  0
  5  6  1  0  0  0  0
  5 30  1  0  0  0  0
  5 31  1  0  0  0  0
  6  7  2  0  0  0  0
  6  8  1  0  0  0  0
  8  9  1  0  0  0  0
  8 32  1  0  0  0  0
  9 20  1  0  0  0  0
  9 10  2  0  0  0  0
 10 11  1  0  0  0  0
 10 33  1  0  0  0  0
 11 12  2  0  0  0  0
 11 34  1  0  0  0  0
 12 13  1  0  0  0  0
 12 19  1  0  0  0  0
 13 18  1  0  0  0  0
 13 14  1  0  0  0  0
 14 15  1  0  0  0  0
 14 35  1  0  0  0  0
 14 36  1  0  0  0  0
 15 16  1  0  0  0  0
 15 37  1  0  0  0  0
 15 38  1  0  0  0  0
 16 17  1  0  0  0  0
 17 18  1  0  0  0  0
 17 39  1  0  0  0  0
 17 40  1  0  0  0  0
 18 41  1  0  0  0  0
 18 42  1  0  0  0  0
 19 20  2  0  0  0  0
 19 43  1  0  0  0  0
M  END
> <s_m_source_file>
AV-unprocessed.smi

> <i_m_source_file_index>
452

> <i_lp_mmshare_version>
43012

> <i_f3d_flags>
0

> <s_epik_input>
W0NIM11bQ0hdKFtDSDNdKVtDSDJdW0NIMl1DKD1PKVtOSF1jMVtjSF1bY0hdYyhbY0hdbjEpTjJbQ0gyXVtDSDJdT1tDSDJdW0NIMl0y

> <s_epik_cmdline>
J2VwaWtfcHl0aG9uJywgJy1waCcsICc3LjAnLCAnLXRuJywgJzgnLCAnLW1hJywgJzIwMCcsICctbWV0YWxfYmluZGluZycsICctaW1hZScsICc8aW5maWxlLm1hZT4nLCAnLW9tYWUnLCAnPG91dGZpbGUubWFlPic=

> <r_lp_tautomer_probability>
1

> <r_epik_Ionization_Penalty>
0.0030116

> <r_epik_Ionization_Penalty_Charging>
0

> <r_epik_Ionization_Penalty_Neutral>
0.0030116

> <r_epik_State_Penalty>
0.00263935

> <r_epik_Charging_Adjusted_Penalty>
0.00263935

> <i_epik_Tot_Q>
0

> <i_epik_Tot_abs_Q>
0

> <r_epik_Metal_State_Penalty>
-0

> <b_epik_Metal_Only>
0

> <s_lp_Force_Field>
OPLS_2005

> <r_lp_Energy>
28.4973

> <b_lp_Chiralities_Consistent>
1

> <s_lp_Variant>
AV-unprocessed.smi:452-1

> <Gold.Version>
5.8.1

> <Gold.Id.Protein>
6NUR|6NUR_protein|mol2

> <Gold.PLP.Fitness>
42.1050

> <Gold.PLP.PLP>
-44.6335

> <Gold.PLP.part.hbond>
-2.0000

> <Gold.PLP.part.metal>
0.0000

> <Gold.PLP.part.buried>
-5.1840

> <Gold.PLP.part.nonpolar>
-35.7655

> <Gold.PLP.part.repulsive>
0.2616

> <Gold.PLP.ligand.clash>
0.0000

> <Gold.PLP.ligand.torsion>
1.3344

> <Gold.PLP.Chemscore.Hbond>
0.0000

> <Gold.PLP.Chemscore.CHOScore>
0.0000

> <Gold.PLP.Chemscore.Metal>
0.0000

> <Gold.PLP.Chemscore.Internal.Correction>
0.1402

> <Gold.Rescore>
     Score         DG    S(hbond)    S(metal)    S(lipo)     H(rot)  DE(clash)    DE(int)     intcor
     13.24     -15.58       0.00        0.00     117.65       1.43       0.32       2.01       ----

> <Gold.Chemscore.Fitness>
13.2404

> <Gold.Chemscore.DG>
-15.5756

> <Gold.Chemscore.ZeroCoef>
-5.4800

> <Gold.Chemscore.Hbond>
0.0000

> <Gold.Chemscore.Metal>
0.0000

> <Gold.Chemscore.Lipo>
117.6460

> <Gold.Chemscore.Internal_Hbond>
0.0000

> <Gold.Chemscore.DEClash>
0.3209

> <Gold.Chemscore.DEInternal>
2.0143

> <Gold.Chemscore.Rot>
1.4332

> <Gold.Chemscore.Internal.Correction>
   9.000000E+99

> <Gold.Chemscore.Hbond.Weighted>
-0.0000

> <Gold.Chemscore.Metal.Weighted>
-0.0000

> <Gold.Chemscore.Lipo.Weighted>
-13.7646

> <Gold.Chemscore.Internal_Hbond.Weighted>
0.0000

> <Gold.Chemscore.DEClash.Weighted>
0.3209

> <Gold.Chemscore.DEInternal.Weighted>
2.0143

> <Gold.Chemscore.Rot.Weighted>
3.6689

> <Gold.Chemscore.Internal.Correction.Weighted>
   9.000000E+99

> <Gold.Protein.RotatedTorsions>
[ 6907 6896 6895 6894 ] final   40.31 input  -60.11 | X-H torsion
[ 7974 7965 7964 7962 ] final  169.24 input  175.53 | X-H torsion
[ 8008 7997 7996 7995 ] final -102.56 input   59.86 | X-H torsion
[ 10167 10162 10161 10158 ] final  167.40 input  -65.29 | X-H torsion
[ 10718 10713 10712 10709 ] final -163.57 input   66.30 | X-H torsion
[ 10763 10752 10751 10750 ] final -129.42 input  -60.55 | X-H torsion
[ 11005 11000 10999 10996 ] final   -4.38 input  -57.11 | X-H torsion

> <Gold.Protein.ActiveResidues>
 VAL166  LYS551  ARG553  GLY616  TRP617  ASP618  TYR619  PRO620  LYS621  CYS622 
 ASP623  PHE694  ASN695  SER759  ASP760  ASP761  ALA762  ILE779  LEU786  VAL792 
 PHE793  MET794  SER795  GLU796  ALA797  LYS798  CYS799  TRP800  GLU811  SER814 

> <Gold.Protein.RotatedAtoms>
  152.1809  134.8755  160.0526 H   0  0  0  0  0  0  0  0  0  0  0  0  # atno 6907 bound_to 6896
  151.9679  133.3711  159.4068 H   0  0  0  0  0  0  0  0  0  0  0  0  # atno 6908 bound_to 6896
  150.6917  134.4094  159.5199 H   0  0  0  0  0  0  0  0  0  0  0  0  # atno 6909 bound_to 6896
  144.7362  139.9025  143.6410 H   0  0  0  0  0  0  0  0  0  0  0  0  # atno 7974 bound_to 7965
  154.8585  140.0427  157.1650 H   0  0  0  0  0  0  0  0  0  0  0  0  # atno 8008 bound_to 7997
  154.8866  140.2980  155.5374 H   0  0  0  0  0  0  0  0  0  0  0  0  # atno 8009 bound_to 7997
  156.2998  140.2401  156.3876 H   0  0  0  0  0  0  0  0  0  0  0  0  # atno 8010 bound_to 7997
  139.4945  144.3925  151.9501 H   0  0  0  0  0  0  0  0  0  0  0  0  # atno 10167 bound_to 10162
  156.6266  130.8912  151.2969 H   0  0  0  0  0  0  0  0  0  0  0  0  # atno 10718 bound_to 10713
  154.8757  135.3896  154.3916 H   0  0  0  0  0  0  0  0  0  0  0  0  # atno 10763 bound_to 10752
  153.4651  135.7029  153.6032 H   0  0  0  0  0  0  0  0  0  0  0  0  # atno 10764 bound_to 10752
  153.4513  135.3833  155.2254 H   0  0  0  0  0  0  0  0  0  0  0  0  # atno 10765 bound_to 10752
  140.6797  133.9164  155.8547 H   0  0  0  0  0  0  0  0  0  0  0  0  # atno 11005 bound_to 11000
  146.1061  139.4061  143.0316 LP  0  0  0  0  0  0  0  0  0  0  0  0  # atno 17320 bound_to 7965
  145.7509  140.9972  143.1251 LP  0  0  0  0  0  0  0  0  0  0  0  0  # atno 17321 bound_to 7965
  140.3363  144.3257  150.5976 LP  0  0  0  0  0  0  0  0  0  0  0  0  # atno 17342 bound_to 10162
  140.5603  143.2193  151.7776 LP  0  0  0  0  0  0  0  0  0  0  0  0  # atno 17343 bound_to 10162
  157.7212  130.9561  150.1447 LP  0  0  0  0  0  0  0  0  0  0  0  0  # atno 17370 bound_to 10713
  156.2268  130.3678  149.8491 LP  0  0  0  0  0  0  0  0  0  0  0  0  # atno 17371 bound_to 10713
  141.0327  134.0733  157.3995 LP  0  0  0  0  0  0  0  0  0  0  0  0  # atno 17394 bound_to 11000
  139.8956  135.0141  156.7008 LP  0  0  0  0  0  0  0  0  0  0  0  0  # atno 17395 bound_to 11000

$$$$
