AV-unprocessed.smi:1835|AV-procd|sdf|7475|dock4
  -GOLD-   22720 9173D 1   1.00000     0.00000
 Structure written by MMmdl.
 42 43  0  0  0  0  0  0  0  0  2 V2000
  149.7651  132.2795  155.0244 C   0  0  0  0  0  0  0  0  0  0  0  0
  150.1100  133.5130  154.1542 C   0  0  2  0  0  0  0  0  0  0  0  0
  150.4195  134.7375  155.0636 C   0  0  0  0  0  0  0  0  0  0  0  0
  150.3547  136.0150  154.3586 N   0  0  0  0  0  0  0  0  0  0  0  0
  151.0002  137.1308  154.7310 C   0  0  0  0  0  0  0  0  0  0  0  0
  151.7042  137.1940  155.7397 O   0  0  0  0  0  0  0  0  0  0  0  0
  150.7978  138.3612  153.8351 C   0  0  0  0  0  0  0  0  0  0  0  0
  150.1270  139.4756  154.5255 N   0  0  0  0  0  0  0  0  0  0  0  0
  148.8882  139.9018  154.0059 C   0  0  0  0  0  0  0  0  0  0  0  0
  148.1917  140.9048  154.5636 C   0  0  0  0  0  0  0  0  0  0  0  0
  148.7436  141.5538  155.7294 C   0  0  0  0  0  0  0  0  0  0  0  0
  149.9264  141.1524  156.2362 C   0  0  0  0  0  0  0  0  0  0  0  0
  150.6909  140.0561  155.6300 C   0  0  0  0  0  0  0  0  0  0  0  0
  151.7712  139.6812  156.0872 O   0  0  0  0  0  0  0  0  0  0  0  0
  149.0285  133.7927  153.1501 N   0  3  0  0  0  0  0  0  0  0  0  0
  148.8189  132.7021  152.1555 C   0  0  0  0  0  0  0  0  0  0  0  0
  147.6904  133.0416  151.1671 C   0  0  0  0  0  0  0  0  0  0  0  0
  146.4928  133.3140  151.8761 O   0  0  0  0  0  0  0  0  0  0  0  0
  146.6457  134.4412  152.7232 C   0  0  0  0  0  0  0  0  0  0  0  0
  147.7254  134.1511  153.7787 C   0  0  0  0  0  0  0  0  0  0  0  0
  150.5119  132.1016  155.7977 H   0  0  0  0  0  0  0  0  0  0  0  0
  149.7306  131.3569  154.4471 H   0  0  0  0  0  0  0  0  0  0  0  0
  148.8032  132.4043  155.5226 H   0  0  0  0  0  0  0  0  0  0  0  0
  151.0158  133.2818  153.5912 H   0  0  0  0  0  0  0  0  0  0  0  0
  149.7217  134.8108  155.8974 H   0  0  0  0  0  0  0  0  0  0  0  0
  151.4156  134.6399  155.4962 H   0  0  0  0  0  0  0  0  0  0  0  0
  149.7923  136.0485  153.5204 H   0  0  0  0  0  0  0  0  0  0  0  0
  151.7622  138.6922  153.4450 H   0  0  0  0  0  0  0  0  0  0  0  0
  150.2265  138.0512  152.9589 H   0  0  0  0  0  0  0  0  0  0  0  0
  148.5413  139.3610  153.1373 H   0  0  0  0  0  0  0  0  0  0  0  0
  147.2418  141.2155  154.1539 H   0  0  0  0  0  0  0  0  0  0  0  0
  148.2047  142.3639  156.1982 H   0  0  0  0  0  0  0  0  0  0  0  0
  150.3226  141.6484  157.1101 H   0  0  0  0  0  0  0  0  0  0  0  0
  149.7157  132.5372  151.5612 H   0  0  0  0  0  0  0  0  0  0  0  0
  148.5932  131.7705  152.6767 H   0  0  0  0  0  0  0  0  0  0  0  0
  147.9623  133.8946  150.5431 H   0  0  0  0  0  0  0  0  0  0  0  0
  147.5169  132.2010  150.4951 H   0  0  0  0  0  0  0  0  0  0  0  0
  146.8987  135.3262  152.1369 H   0  0  0  0  0  0  0  0  0  0  0  0
  145.6921  134.6458  153.2099 H   0  0  0  0  0  0  0  0  0  0  0  0
  147.3980  133.3384  154.4291 H   0  0  0  0  0  0  0  0  0  0  0  0
  147.8190  135.0410  154.3979 H   0  0  0  0  0  0  0  0  0  0  0  0
  149.3267  134.6008  152.6226 H   0  0  0  0  0  0  0  0  0  0  0  0
  1  2  1  0  0  0  0
  1 21  1  0  0  0  0
  1 22  1  0  0  0  0
  1 23  1  0  0  0  0
  2  3  1  0  0  0  0
  2 15  1  0  0  0  0
  2 24  1  0  0  0  0
  3  4  1  0  0  0  0
  3 25  1  0  0  0  0
  3 26  1  0  0  0  0
  4  5  1  0  0  0  0
  4 27  1  0  0  0  0
  5  6  2  0  0  0  0
  5  7  1  0  0  0  0
  7  8  1  0  0  0  0
  7 28  1  0  0  0  0
  7 29  1  0  0  0  0
  8 13  1  0  0  0  0
  8  9  1  0  0  0  0
  9 10  2  0  0  0  0
  9 30  1  0  0  0  0
 10 11  1  0  0  0  0
 10 31  1  0  0  0  0
 11 12  2  0  0  0  0
 11 32  1  0  0  0  0
 12 13  1  0  0  0  0
 12 33  1  0  0  0  0
 13 14  2  0  0  0  0
 15 20  1  0  0  0  0
 15 16  1  0  0  0  0
 15 42  1  0  0  0  0
 16 17  1  0  0  0  0
 16 34  1  0  0  0  0
 16 35  1  0  0  0  0
 17 18  1  0  0  0  0
 17 36  1  0  0  0  0
 17 37  1  0  0  0  0
 18 19  1  0  0  0  0
 19 20  1  0  0  0  0
 19 38  1  0  0  0  0
 19 39  1  0  0  0  0
 20 40  1  0  0  0  0
 20 41  1  0  0  0  0
M  CHG  1  15   1
M  END
> <s_m_source_file>
AV-unprocessed.smi

> <i_m_source_file_index>
1835

> <i_lp_mmshare_version>
43012

> <i_f3d_flags>
0

> <s_epik_input>
W0NIMl0xW0NIMl1PW0NIMl1bQ0gyXU4xW0NASF0oW0NIM10pW0NIMl1bTkhdQyg9TylbQ0gyXW4yW2NIXVtjSF1bY0hdW2NIXWMyPU8=

> <s_epik_cmdline>
J2VwaWtfcHl0aG9uJywgJy1waCcsICc3LjAnLCAnLXRuJywgJzgnLCAnLW1hJywgJzIwMCcsICctbWV0YWxfYmluZGluZycsICctaW1hZScsICc8aW5maWxlLm1hZT4nLCAnLW9tYWUnLCAnPG91dGZpbGUubWFlPic=

> <r_lp_tautomer_probability>
1

> <r_epik_Ionization_Penalty>
0.656654

> <r_epik_Ionization_Penalty_Charging>
0.656654

> <r_epik_Ionization_Penalty_Neutral>
9.12373e-08

> <r_epik_State_Penalty>
0.675641

> <r_epik_Charging_Adjusted_Penalty>
1.33229

> <i_epik_Tot_Q>
1

> <i_epik_Tot_abs_Q>
1

> <r_epik_Metal_State_Penalty>
0.675692

> <b_epik_Metal_Only>
0

> <s_lp_Force_Field>
OPLS_2005

> <r_lp_Energy>
29.3587

> <b_lp_Chiralities_Consistent>
1

> <s_lp_Variant>
AV-unprocessed.smi:1835-3

> <Gold.Version>
5.8.1

> <Gold.Id.Protein>
6NUR|6NUR_protein|mol2

> <Gold.PLP.Fitness>
53.8209

> <Gold.PLP.PLP>
-36.8947

> <Gold.PLP.part.hbond>
-4.6753

> <Gold.PLP.part.metal>
0.0000

> <Gold.PLP.part.buried>
-0.3725

> <Gold.PLP.part.nonpolar>
-31.5863

> <Gold.PLP.part.repulsive>
0.1927

> <Gold.PLP.ligand.clash>
0.0000

> <Gold.PLP.ligand.torsion>
0.3924

> <Gold.PLP.Chemscore.Hbond>
5.0000

> <Gold.PLP.Chemscore.CHOScore>
0.8798

> <Gold.PLP.Chemscore.Metal>
0.0000

> <Gold.Chemscore.Hbonds>
donor molecule, donor type, donor heavy atom, donor atom, acceptor molecule, acceptor atom, score
      L1  H     4    27       P1  7948  0.80
      P1  H 10752 10764       L1     6  0.17
      L1  C     9    30       P1  7957  0.67

> <Gold.PLP.Chemscore.Internal.Correction>
0.0717

> <Gold.Rescore>
     Score         DG    S(hbond)    S(metal)    S(lipo)     H(rot)  DE(clash)    DE(int)     intcor
     17.03     -19.02       3.56        0.00      57.14       1.96       0.02       1.98       ----

> <Gold.Chemscore.Fitness>
17.0256

> <Gold.Chemscore.DG>
-19.0206

> <Gold.Chemscore.ZeroCoef>
-5.4800

> <Gold.Chemscore.Hbond>
3.5585

> <Gold.Chemscore.Metal>
0.0000

> <Gold.Chemscore.Lipo>
57.1382

> <Gold.Chemscore.Internal_Hbond>
0.0000

> <Gold.Chemscore.DEClash>
0.0174

> <Gold.Chemscore.DEInternal>
1.9776

> <Gold.Chemscore.Rot>
1.9649

> <Gold.Chemscore.Internal.Correction>
   9.000000E+99

> <Gold.Chemscore.Hbonds>
donor molecule, donor type, donor heavy atom, donor atom, acceptor molecule, acceptor atom, score
      L1  H     4    27       P1  7948  0.12
      P1  H 10752 10764       L1     6  0.01

> <Gold.Chemscore.Hbond.Weighted>
-11.8854

> <Gold.Chemscore.Metal.Weighted>
-0.0000

> <Gold.Chemscore.Lipo.Weighted>
-6.6852

> <Gold.Chemscore.Internal_Hbond.Weighted>
0.0000

> <Gold.Chemscore.DEClash.Weighted>
0.0174

> <Gold.Chemscore.DEInternal.Weighted>
1.9776

> <Gold.Chemscore.Rot.Weighted>
5.0300

> <Gold.Chemscore.Internal.Correction.Weighted>
   9.000000E+99

> <Gold.Protein.RotatedTorsions>
[ 6907 6896 6895 6894 ] final -124.57 input  -60.11 | X-H torsion
[ 7974 7965 7964 7962 ] final   60.64 input  175.53 | X-H torsion
[ 8008 7997 7996 7995 ] final -160.80 input   59.86 | X-H torsion
[ 10167 10162 10161 10158 ] final  -25.23 input  -65.29 | X-H torsion
[ 10718 10713 10712 10709 ] final  142.93 input   66.30 | X-H torsion
[ 10763 10752 10751 10750 ] final  -36.25 input  -60.55 | X-H torsion
[ 11005 11000 10999 10996 ] final  -19.02 input  -57.11 | X-H torsion

> <Gold.Protein.ActiveResidues>
 VAL166  LYS551  ARG553  GLY616  TRP617  ASP618  TYR619  PRO620  LYS621  CYS622 
 ASP623  PHE694  ASN695  SER759  ASP760  ASP761  ALA762  ILE779  LEU786  VAL792 
 PHE793  MET794  SER795  GLU796  ALA797  LYS798  CYS799  TRP800  GLU811  SER814 

> <Gold.Protein.RotatedAtoms>
  150.8781  133.7410  159.2940 H   0  0  0  0  0  0  0  0  0  0  0  0  # atno 6907 bound_to 6896
  151.5001  135.1060  159.9836 H   0  0  0  0  0  0  0  0  0  0  0  0  # atno 6908 bound_to 6896
  152.4741  133.8052  159.7030 H   0  0  0  0  0  0  0  0  0  0  0  0  # atno 6909 bound_to 6896
  145.8937  139.3530  143.0634 H   0  0  0  0  0  0  0  0  0  0  0  0  # atno 7974 bound_to 7965
  155.7827  140.0867  157.2050 H   0  0  0  0  0  0  0  0  0  0  0  0  # atno 8008 bound_to 7997
  154.3989  140.1504  156.3129 H   0  0  0  0  0  0  0  0  0  0  0  0  # atno 8009 bound_to 7997
  155.8637  140.3429  155.5776 H   0  0  0  0  0  0  0  0  0  0  0  0  # atno 8010 bound_to 7997
  140.7287  143.4283  151.0842 H   0  0  0  0  0  0  0  0  0  0  0  0  # atno 10167 bound_to 10162
  157.3749  131.0984  151.0794 H   0  0  0  0  0  0  0  0  0  0  0  0  # atno 10718 bound_to 10713
  153.8766  135.6826  153.4770 H   0  0  0  0  0  0  0  0  0  0  0  0  # atno 10763 bound_to 10752
  153.1257  135.4720  154.9266 H   0  0  0  0  0  0  0  0  0  0  0  0  # atno 10764 bound_to 10752
  154.7689  135.3232  154.8182 H   0  0  0  0  0  0  0  0  0  0  0  0  # atno 10765 bound_to 10752
  140.8326  133.7986  155.9774 H   0  0  0  0  0  0  0  0  0  0  0  0  # atno 11005 bound_to 11000
  145.8876  140.9324  143.0568 LP  0  0  0  0  0  0  0  0  0  0  0  0  # atno 17320 bound_to 7965
  144.6732  140.0863  143.7467 LP  0  0  0  0  0  0  0  0  0  0  0  0  # atno 17321 bound_to 7965
  139.7937  143.8182  152.3155 LP  0  0  0  0  0  0  0  0  0  0  0  0  # atno 17342 bound_to 10162
  139.8175  144.7310  150.9616 LP  0  0  0  0  0  0  0  0  0  0  0  0  # atno 17343 bound_to 10162
  157.1884  130.6341  149.5696 LP  0  0  0  0  0  0  0  0  0  0  0  0  # atno 17370 bound_to 10713
  155.9763  130.4730  150.6519 LP  0  0  0  0  0  0  0  0  0  0  0  0  # atno 17371 bound_to 10713
  140.8982  134.2411  157.5057 LP  0  0  0  0  0  0  0  0  0  0  0  0  # atno 17394 bound_to 11000
  139.8704  134.9694  156.4664 LP  0  0  0  0  0  0  0  0  0  0  0  0  # atno 17395 bound_to 11000

$$$$
