AV-unprocessed.smi:99|AV-procd|sdf|893|dock8
  -GOLD-   2262017383D 1   1.00000     0.00000
 Structure written by MMmdl.
 52 55  0  0  0  0  0  0  0  0  2 V2000
  146.4185  132.1577  158.9311 O   0  0  0  0  0  0  0  0  0  0  0  0
  147.0369  133.2238  158.9638 C   0  0  0  0  0  0  0  0  0  0  0  0
  147.6947  133.7367  157.9054 O   0  0  0  0  0  0  0  0  0  0  0  0
  147.3652  133.3104  156.5936 C   0  0  0  0  0  0  0  0  0  0  0  0
  148.2898  132.1490  156.1890 C   0  0  2  0  0  0  0  0  0  0  0  0
  149.4669  132.2132  156.9952 O   0  0  0  0  0  0  0  0  0  0  0  0
  150.5551  132.7338  156.2794 C   0  0  1  0  0  0  0  0  0  0  0  0
  151.6365  131.6795  156.1792 N   0  0  0  0  0  0  0  0  0  0  0  0
  151.5075  130.6033  155.3167 C   0  0  0  0  0  0  0  0  0  0  0  0
  152.4736  129.6680  155.2112 C   0  0  0  0  0  0  0  0  0  0  0  0
  153.6823  129.7916  156.0203 C   0  0  0  0  0  0  0  0  0  0  0  0
  154.5524  128.9282  155.9265 O   0  0  0  0  0  0  0  0  0  0  0  0
  153.7930  130.8696  156.8488 N   0  5  0  0  0  0  0  0  0  0  0  0
  152.8209  131.8219  156.9522 C   0  0  0  0  0  0  0  0  0  0  0  0
  152.9213  132.8095  157.6804 O   0  0  0  0  0  0  0  0  0  0  0  0
  150.0632  133.1147  154.8768 C   0  0  2  0  0  0  0  0  0  0  0  0
  149.7696  134.4977  154.8123 O   0  0  0  0  0  0  0  0  0  0  0  0
  148.8272  132.2349  154.7592 C   0  0  2  0  0  0  0  0  0  0  0  0
  147.8852  132.6817  153.7904 O   0  0  0  0  0  0  0  0  0  0  0  0
  147.0698  131.8098  153.1604 C   0  0  0  0  0  0  0  0  0  0  0  0
  147.0738  130.5950  153.3683 O   0  0  0  0  0  0  0  0  0  0  0  0
  146.1611  132.4749  152.1830 C   0  0  0  0  0  0  0  0  0  0  0  0
  146.4268  133.8052  151.7827 C   0  0  0  0  0  0  0  0  0  0  0  0
  145.5873  134.4575  150.8590 C   0  0  0  0  0  0  0  0  0  0  0  0
  144.4717  133.7870  150.3244 C   0  0  0  0  0  0  0  0  0  0  0  0
  144.1957  132.4640  150.7157 C   0  0  0  0  0  0  0  0  0  0  0  0
  145.0339  131.8102  151.6394 C   0  0  0  0  0  0  0  0  0  0  0  0
  147.1315  134.0820  160.1803 C   0  0  0  0  0  0  0  0  0  0  0  0
  146.4564  133.6889  161.3598 C   0  0  0  0  0  0  0  0  0  0  0  0
  146.5250  134.4794  162.5235 C   0  0  0  0  0  0  0  0  0  0  0  0
  147.2714  135.6720  162.5228 C   0  0  0  0  0  0  0  0  0  0  0  0
  147.9486  136.0734  161.3567 C   0  0  0  0  0  0  0  0  0  0  0  0
  147.8799  135.2849  160.1913 C   0  0  0  0  0  0  0  0  0  0  0  0
  146.3246  132.9839  156.5905 H   0  0  0  0  0  0  0  0  0  0  0  0
  147.4523  134.1397  155.8909 H   0  0  0  0  0  0  0  0  0  0  0  0
  147.7749  131.1995  156.3389 H   0  0  0  0  0  0  0  0  0  0  0  0
  150.9939  133.5586  156.8434 H   0  0  0  0  0  0  0  0  0  0  0  0
  150.6238  130.5006  154.7052 H   0  0  0  0  0  0  0  0  0  0  0  0
  152.3573  128.8366  154.5317 H   0  0  0  0  0  0  0  0  0  0  0  0
  150.8084  132.8823  154.1149 H   0  0  0  0  0  0  0  0  0  0  0  0
  150.5191  134.9786  155.1274 H   0  0  0  0  0  0  0  0  0  0  0  0
  149.1572  131.2292  154.4931 H   0  0  0  0  0  0  0  0  0  0  0  0
  147.2778  134.3397  152.1797 H   0  0  0  0  0  0  0  0  0  0  0  0
  145.8007  135.4734  150.5605 H   0  0  0  0  0  0  0  0  0  0  0  0
  143.8279  134.2866  149.6155 H   0  0  0  0  0  0  0  0  0  0  0  0
  143.3394  131.9483  150.3069 H   0  0  0  0  0  0  0  0  0  0  0  0
  144.7928  130.7949  151.9185 H   0  0  0  0  0  0  0  0  0  0  0  0
  145.8768  132.7771  161.3846 H   0  0  0  0  0  0  0  0  0  0  0  0
  146.0038  134.1701  163.4175 H   0  0  0  0  0  0  0  0  0  0  0  0
  147.3244  136.2777  163.4156 H   0  0  0  0  0  0  0  0  0  0  0  0
  148.5224  136.9884  161.3552 H   0  0  0  0  0  0  0  0  0  0  0  0
  148.4118  135.6220  159.3136 H   0  0  0  0  0  0  0  0  0  0  0  0
  1  2  2  0  0  0  0
  2  3  1  0  0  0  0
  2 28  1  0  0  0  0
  3  4  1  0  0  0  0
  4  5  1  0  0  0  0
  4 34  1  0  0  0  0
  4 35  1  0  0  0  0
  5 18  1  0  0  0  0
  5  6  1  0  0  0  0
  5 36  1  0  0  0  0
  6  7  1  0  0  0  0
  7  8  1  0  0  0  0
  7 16  1  0  0  0  0
  7 37  1  0  0  0  0
  8 14  1  0  0  0  0
  8  9  1  0  0  0  0
  9 10  2  0  0  0  0
  9 38  1  0  0  0  0
 10 11  1  0  0  0  0
 10 39  1  0  0  0  0
 11 12  2  0  0  0  0
 11 13  1  0  0  0  0
 13 14  1  0  0  0  0
 14 15  2  0  0  0  0
 16 17  1  0  0  0  0
 16 18  1  0  0  0  0
 16 40  1  0  0  0  0
 17 41  1  0  0  0  0
 18 19  1  0  0  0  0
 18 42  1  0  0  0  0
 19 20  1  0  0  0  0
 20 21  2  0  0  0  0
 20 22  1  0  0  0  0
 22 27  1  0  0  0  0
 22 23  2  0  0  0  0
 23 24  1  0  0  0  0
 23 43  1  0  0  0  0
 24 25  2  0  0  0  0
 24 44  1  0  0  0  0
 25 26  1  0  0  0  0
 25 45  1  0  0  0  0
 26 27  2  0  0  0  0
 26 46  1  0  0  0  0
 27 47  1  0  0  0  0
 28 33  1  0  0  0  0
 28 29  2  0  0  0  0
 29 30  1  0  0  0  0
 29 48  1  0  0  0  0
 30 31  2  0  0  0  0
 30 49  1  0  0  0  0
 31 32  1  0  0  0  0
 31 50  1  0  0  0  0
 32 33  2  0  0  0  0
 32 51  1  0  0  0  0
 33 52  1  0  0  0  0
M  CHG  1  13  -1
M  END
> <s_m_source_file>
AV-unprocessed.smi

> <i_m_source_file_index>
99

> <i_lp_mmshare_version>
43012

> <i_f3d_flags>
0

> <s_epik_input>
W2NIXTFbY0hdW2NIXVtjSF1bY0hdYzFDKD1PKU9bQ0gyXVtDQEBIXTJPW0NAQEhdKG4zW2NIXVtjSF1jKD1PKVtuSF1jMz1PKVtDQEBIXShbT0hdKVtDQEhdMk9DKD1PKWM0W2NIXVtjSF1bY0hdW2NIXVtjSF00

> <s_epik_cmdline>
J2VwaWtfcHl0aG9uJywgJy1waCcsICc3LjAnLCAnLXRuJywgJzgnLCAnLW1hJywgJzIwMCcsICctbWV0YWxfYmluZGluZycsICctaW1hZScsICc8aW5maWxlLm1hZT4nLCAnLW9tYWUnLCAnPG91dGZpbGUubWFlPic=

> <r_lp_tautomer_probability>
1

> <r_epik_Ionization_Penalty>
2.89159

> <r_epik_Ionization_Penalty_Charging>
2.1077e-08

> <r_epik_Ionization_Penalty_Neutral>
2.89159

> <r_epik_State_Penalty>
2.88671

> <r_epik_Charging_Adjusted_Penalty>
2.88671

> <i_epik_Tot_Q>
-1

> <i_epik_Tot_abs_Q>
1

> <r_epik_Metal_State_Penalty>
0.0727308

> <b_epik_Metal_Only>
1

> <s_epik_Chemistry_Notes>
This compound has an ester and may undergo hydrolysis at high or low pH. This compound contains an acetal/aminal-like group ( X-CH(R)-Y where X, Y are N, S, or O) that may be acid/base labile, releasing an aldehyde.

> <s_lp_Force_Field>
OPLS_2005

> <r_lp_Energy>
46.9153

> <b_lp_Chiralities_Consistent>
1

> <s_lp_Variant>
AV-unprocessed.smi:99-29

> <Gold.Version>
5.8.1

> <Gold.Id.Protein>
6NUR|6NUR_protein|mol2

> <Gold.PLP.Fitness>
47.9372

> <Gold.PLP.PLP>
-48.7846

> <Gold.PLP.part.hbond>
-1.0000

> <Gold.PLP.part.metal>
0.0000

> <Gold.PLP.part.buried>
-8.2046

> <Gold.PLP.part.nonpolar>
-39.7013

> <Gold.PLP.part.repulsive>
0.2163

> <Gold.PLP.ligand.clash>
0.0000

> <Gold.PLP.ligand.torsion>
1.8637

> <Gold.PLP.Chemscore.Hbond>
0.9199

> <Gold.PLP.Chemscore.CHOScore>
0.0000

> <Gold.PLP.Chemscore.Metal>
0.0000

> <Gold.Chemscore.Hbonds>
donor molecule, donor type, donor heavy atom, donor atom, acceptor molecule, acceptor atom, score
      P1  H  6896  6907       L1    15  0.93

> <Gold.PLP.Chemscore.Internal.Correction>
0.1203

> <Gold.Rescore>
     Score         DG    S(hbond)    S(metal)    S(lipo)     H(rot)  DE(clash)    DE(int)     intcor
     12.46     -14.27       0.95        0.00     116.52       3.13       0.01       1.80       ----

> <Gold.Chemscore.Fitness>
12.4620

> <Gold.Chemscore.DG>
-14.2654

> <Gold.Chemscore.ZeroCoef>
-5.4800

> <Gold.Chemscore.Hbond>
0.9514

> <Gold.Chemscore.Metal>
0.0000

> <Gold.Chemscore.Lipo>
116.5155

> <Gold.Chemscore.Internal_Hbond>
0.0000

> <Gold.Chemscore.DEClash>
0.0073

> <Gold.Chemscore.DEInternal>
1.7960

> <Gold.Chemscore.Rot>
3.1346

> <Gold.Chemscore.Internal.Correction>
   9.000000E+99

> <Gold.Chemscore.Hbonds>
donor molecule, donor type, donor heavy atom, donor atom, acceptor molecule, acceptor atom, score
      P1  H  6896  6907       L1    15  0.86

> <Gold.Chemscore.Hbond.Weighted>
-3.1776

> <Gold.Chemscore.Metal.Weighted>
-0.0000

> <Gold.Chemscore.Lipo.Weighted>
-13.6323

> <Gold.Chemscore.Internal_Hbond.Weighted>
0.0000

> <Gold.Chemscore.DEClash.Weighted>
0.0073

> <Gold.Chemscore.DEInternal.Weighted>
1.7960

> <Gold.Chemscore.Rot.Weighted>
8.0246

> <Gold.Chemscore.Internal.Correction.Weighted>
   9.000000E+99

> <Gold.Protein.RotatedTorsions>
[ 6907 6896 6895 6894 ] final  145.38 input  -60.11 | X-H torsion
[ 7974 7965 7964 7962 ] final   60.36 input  175.53 | X-H torsion
[ 8008 7997 7996 7995 ] final  -23.24 input   59.86 | X-H torsion
[ 10167 10162 10161 10158 ] final  149.23 input  -65.29 | X-H torsion
[ 10718 10713 10712 10709 ] final   87.73 input   66.30 | X-H torsion
[ 10763 10752 10751 10750 ] final    5.11 input  -60.55 | X-H torsion
[ 11005 11000 10999 10996 ] final  -94.23 input  -57.11 | X-H torsion

> <Gold.Protein.ActiveResidues>
 VAL166  LYS551  ARG553  GLY616  TRP617  ASP618  TYR619  PRO620  LYS621  CYS622 
 ASP623  PHE694  ASN695  SER759  ASP760  ASP761  ALA762  ILE779  LEU786  VAL792 
 PHE793  MET794  SER795  GLU796  ALA797  LYS798  CYS799  TRP800  GLU811  SER814 

> <Gold.Protein.RotatedAtoms>
  152.1816  133.4711  159.4960 H   0  0  0  0  0  0  0  0  0  0  0  0  # atno 6907 bound_to 6896
  150.6935  134.1827  159.4264 H   0  0  0  0  0  0  0  0  0  0  0  0  # atno 6908 bound_to 6896
  151.9738  135.0063  160.0605 H   0  0  0  0  0  0  0  0  0  0  0  0  # atno 6909 bound_to 6896
  145.8968  139.3552  143.0616 H   0  0  0  0  0  0  0  0  0  0  0  0  # atno 7974 bound_to 7965
  154.4597  140.1986  156.0280 H   0  0  0  0  0  0  0  0  0  0  0  0  # atno 8008 bound_to 7997
  156.0815  140.3271  155.7672 H   0  0  0  0  0  0  0  0  0  0  0  0  # atno 8009 bound_to 7997
  155.5103  140.0561  157.2915 H   0  0  0  0  0  0  0  0  0  0  0  0  # atno 8010 bound_to 7997
  139.4864  144.5617  151.7218 H   0  0  0  0  0  0  0  0  0  0  0  0  # atno 10167 bound_to 10162
  157.6943  131.0267  150.3168 H   0  0  0  0  0  0  0  0  0  0  0  0  # atno 10718 bound_to 10713
  153.2633  135.6925  153.7556 H   0  0  0  0  0  0  0  0  0  0  0  0  # atno 10763 bound_to 10752
  153.6607  135.3361  155.3127 H   0  0  0  0  0  0  0  0  0  0  0  0  # atno 10764 bound_to 10752
  154.8438  135.4476  154.1630 H   0  0  0  0  0  0  0  0  0  0  0  0  # atno 10765 bound_to 10752
  141.1476  133.7942  157.0269 H   0  0  0  0  0  0  0  0  0  0  0  0  # atno 11005 bound_to 11000
  145.8840  140.9345  143.0586 LP  0  0  0  0  0  0  0  0  0  0  0  0  # atno 17320 bound_to 7965
  144.6733  140.0817  143.7469 LP  0  0  0  0  0  0  0  0  0  0  0  0  # atno 17321 bound_to 7965
  140.5189  144.0910  150.6016 LP  0  0  0  0  0  0  0  0  0  0  0  0  # atno 17342 bound_to 10162
  140.3861  143.2777  152.0114 LP  0  0  0  0  0  0  0  0  0  0  0  0  # atno 17343 bound_to 10162
  156.3661  130.3855  149.7212 LP  0  0  0  0  0  0  0  0  0  0  0  0  # atno 17370 bound_to 10713
  156.4643  130.7966  151.2986 LP  0  0  0  0  0  0  0  0  0  0  0  0  # atno 17371 bound_to 10713
  140.0779  134.9665  157.1576 LP  0  0  0  0  0  0  0  0  0  0  0  0  # atno 17394 bound_to 11000
  140.3618  134.2486  155.7186 LP  0  0  0  0  0  0  0  0  0  0  0  0  # atno 17395 bound_to 11000

$$$$
