AV-unprocessed.smi:3185|AV-procd|sdf|12172|dock5
  -GOLD-   2272018 13D 1   1.00000     0.00000
 Structure written by MMmdl.
 37 38  0  0  0  0  0  0  0  0  1 V2000
  154.3727  135.4838  160.2800 N   0  0  0  0  0  0  0  0  0  0  0  0
  154.1010  136.5230  160.7099 C   0  0  0  0  0  0  0  0  0  0  0  0
  153.7561  137.8441  161.2556 C   0  0  0  0  0  0  0  0  0  0  0  0
  154.5993  138.9704  160.6443 C   0  0  0  0  0  0  0  0  0  0  0  0
  153.9643  140.3568  160.8145 C   0  0  0  0  0  0  0  0  0  0  0  0
  153.4558  140.8228  159.5327 N   0  0  0  0  0  0  0  0  0  0  0  0
  152.5305  141.9428  159.6822 C   0  0  1  0  0  0  0  0  0  0  0  0
  153.0847  142.9613  160.7049 C   0  0  0  0  0  0  0  0  0  0  0  0
  152.1944  144.2097  160.8017 C   0  0  0  0  0  0  0  0  0  0  0  0
  152.0081  144.8692  159.4284 C   0  0  0  0  0  0  0  0  0  0  0  0
  151.4388  143.8685  158.4129 C   0  0  0  0  0  0  0  0  0  0  0  0
  152.3281  142.6129  158.2975 C   0  0  2  0  0  0  0  0  0  0  0  0
  151.7858  141.6869  157.3099 N   0  0  0  0  0  0  0  0  0  0  0  0
  150.6639  141.8462  156.5228 C   0  0  0  0  0  0  0  0  0  0  0  0
  150.5450  140.7282  155.7482 C   0  0  0  0  0  0  0  0  0  0  0  0
  151.6538  139.9274  156.1389 C   0  0  0  0  0  0  0  0  0  0  0  0
  152.3945  140.5026  157.0720 N   0  0  0  0  0  0  0  0  0  0  0  0
  152.6954  138.0164  161.0714 H   0  0  0  0  0  0  0  0  0  0  0  0
  153.8951  137.8009  162.3361 H   0  0  0  0  0  0  0  0  0  0  0  0
  155.6021  138.9630  161.0737 H   0  0  0  0  0  0  0  0  0  0  0  0
  154.7253  138.7721  159.5796 H   0  0  0  0  0  0  0  0  0  0  0  0
  153.1382  140.2869  161.5233 H   0  0  0  0  0  0  0  0  0  0  0  0
  154.6907  141.0564  161.2273 H   0  0  0  0  0  0  0  0  0  0  0  0
  152.9632  140.0598  159.0902 H   0  0  0  0  0  0  0  0  0  0  0  0
  151.5657  141.5703  160.0302 H   0  0  0  0  0  0  0  0  0  0  0  0
  153.1647  142.5124  161.6943 H   0  0  0  0  0  0  0  0  0  0  0  0
  154.0941  143.2612  160.4196 H   0  0  0  0  0  0  0  0  0  0  0  0
  151.2217  143.9334  161.2101 H   0  0  0  0  0  0  0  0  0  0  0  0
  152.6311  144.9241  161.5002 H   0  0  0  0  0  0  0  0  0  0  0  0
  151.3424  145.7285  159.5161 H   0  0  0  0  0  0  0  0  0  0  0  0
  152.9647  145.2525  159.0711 H   0  0  0  0  0  0  0  0  0  0  0  0
  150.4297  143.5870  158.7170 H   0  0  0  0  0  0  0  0  0  0  0  0
  151.3447  144.3495  157.4387 H   0  0  0  0  0  0  0  0  0  0  0  0
  153.3042  142.9354  157.9298 H   0  0  0  0  0  0  0  0  0  0  0  0
  150.0507  142.7337  156.5768 H   0  0  0  0  0  0  0  0  0  0  0  0
  149.7816  140.5147  155.0147 H   0  0  0  0  0  0  0  0  0  0  0  0
  151.9412  138.9522  155.7744 H   0  0  0  0  0  0  0  0  0  0  0  0
  1  2  3  0  0  0  0
  2  3  1  0  0  0  0
  3  4  1  0  0  0  0
  3 18  1  0  0  0  0
  3 19  1  0  0  0  0
  4  5  1  0  0  0  0
  4 20  1  0  0  0  0
  4 21  1  0  0  0  0
  5  6  1  0  0  0  0
  5 22  1  0  0  0  0
  5 23  1  0  0  0  0
  6  7  1  0  0  0  0
  6 24  1  0  0  0  0
  7 12  1  0  0  0  0
  7  8  1  0  0  0  0
  7 25  1  0  0  0  0
  8  9  1  0  0  0  0
  8 26  1  0  0  0  0
  8 27  1  0  0  0  0
  9 10  1  0  0  0  0
  9 28  1  0  0  0  0
  9 29  1  0  0  0  0
 10 11  1  0  0  0  0
 10 30  1  0  0  0  0
 10 31  1  0  0  0  0
 11 12  1  0  0  0  0
 11 32  1  0  0  0  0
 11 33  1  0  0  0  0
 12 13  1  0  0  0  0
 12 34  1  0  0  0  0
 13 17  1  0  0  0  0
 13 14  1  0  0  0  0
 14 15  2  0  0  0  0
 14 35  1  0  0  0  0
 15 16  1  0  0  0  0
 15 36  1  0  0  0  0
 16 17  2  0  0  0  0
 16 37  1  0  0  0  0
M  END
> <s_m_source_file>
AV-unprocessed.smi

> <i_m_source_file_index>
3185

> <i_lp_mmshare_version>
43012

> <i_f3d_flags>
0

> <s_epik_input>
TiNDW0NIMl1bQ0gyXVtDSDJdW05IXVtDQEBIXTFbQ0gyXVtDSDJdW0NIMl1bQ0gyXVtDQEhdMW4yW2NIXVtjSF1bY0hdbjI=

> <s_epik_cmdline>
J2VwaWtfcHl0aG9uJywgJy1waCcsICc3LjAnLCAnLXRuJywgJzgnLCAnLW1hJywgJzIwMCcsICctbWV0YWxfYmluZGluZycsICctaW1hZScsICc8aW5maWxlLm1hZT4nLCAnLW9tYWUnLCAnPG91dGZpbGUubWFlPic=

> <r_lp_tautomer_probability>
1

> <r_epik_Ionization_Penalty>
2.21326

> <r_epik_Ionization_Penalty_Charging>
0

> <r_epik_Ionization_Penalty_Neutral>
2.21326

> <r_epik_State_Penalty>
2.35651

> <r_epik_Charging_Adjusted_Penalty>
2.35651

> <i_epik_Tot_Q>
0

> <i_epik_Tot_abs_Q>
0

> <r_epik_Metal_State_Penalty>
2.3555

> <b_epik_Metal_Only>
0

> <s_lp_Force_Field>
OPLS_2005

> <r_lp_Energy>
16.6477

> <b_lp_Chiralities_Consistent>
1

> <s_lp_Variant>
AV-unprocessed.smi:3185-8

> <Gold.Version>
5.8.1

> <Gold.Id.Protein>
6NUR|6NUR_protein|mol2

> <Gold.PLP.Fitness>
44.2441

> <Gold.PLP.PLP>
-36.9149

> <Gold.PLP.part.hbond>
-2.0000

> <Gold.PLP.part.metal>
0.0000

> <Gold.PLP.part.buried>
-3.3096

> <Gold.PLP.part.nonpolar>
-30.5082

> <Gold.PLP.part.repulsive>
0.0000

> <Gold.PLP.ligand.clash>
0.0000

> <Gold.PLP.ligand.torsion>
0.6431

> <Gold.PLP.Chemscore.Hbond>
1.8596

> <Gold.PLP.Chemscore.CHOScore>
0.9968

> <Gold.PLP.Chemscore.Metal>
0.0000

> <Gold.Chemscore.Hbonds>
donor molecule, donor type, donor heavy atom, donor atom, acceptor molecule, acceptor atom, score
      P1  H  6896  6909       L1     1  0.84
      P1  H  7997  8009       L1    17  0.84
      L1  C    14    35       P1  8028  1.00

> <Gold.PLP.Chemscore.Internal.Correction>
0.0463

> <Gold.Rescore>
     Score         DG    S(hbond)    S(metal)    S(lipo)     H(rot)  DE(clash)    DE(int)     intcor
     16.54     -18.98       1.60        0.00     109.25       1.81       0.41       2.02       ----

> <Gold.Chemscore.Fitness>
16.5420

> <Gold.Chemscore.DG>
-18.9779

> <Gold.Chemscore.ZeroCoef>
-5.4800

> <Gold.Chemscore.Hbond>
1.6023

> <Gold.Chemscore.Metal>
0.0000

> <Gold.Chemscore.Lipo>
109.2527

> <Gold.Chemscore.Internal_Hbond>
0.0000

> <Gold.Chemscore.DEClash>
0.4123

> <Gold.Chemscore.DEInternal>
2.0236

> <Gold.Chemscore.Rot>
1.8110

> <Gold.Chemscore.Internal.Correction>
   9.000000E+99

> <Gold.Chemscore.Hbonds>
donor molecule, donor type, donor heavy atom, donor atom, acceptor molecule, acceptor atom, score
      P1  H  6896  6909       L1     1  0.37
      P1  H  7997  8009       L1    17  0.44

> <Gold.Chemscore.Hbond.Weighted>
-5.3515

> <Gold.Chemscore.Metal.Weighted>
-0.0000

> <Gold.Chemscore.Lipo.Weighted>
-12.7826

> <Gold.Chemscore.Internal_Hbond.Weighted>
0.0000

> <Gold.Chemscore.DEClash.Weighted>
0.4123

> <Gold.Chemscore.DEInternal.Weighted>
2.0236

> <Gold.Chemscore.Rot.Weighted>
4.6362

> <Gold.Chemscore.Internal.Correction.Weighted>
   9.000000E+99

> <Gold.Protein.RotatedTorsions>
[ 6907 6896 6895 6894 ] final -172.31 input  -60.11 | X-H torsion
[ 7974 7965 7964 7962 ] final   54.60 input  175.53 | X-H torsion
[ 8008 7997 7996 7995 ] final -175.64 input   59.86 | X-H torsion
[ 10167 10162 10161 10158 ] final  -16.52 input  -65.29 | X-H torsion
[ 10718 10713 10712 10709 ] final   79.27 input   66.30 | X-H torsion
[ 10763 10752 10751 10750 ] final  -19.62 input  -60.55 | X-H torsion
[ 11005 11000 10999 10996 ] final  110.65 input  -57.11 | X-H torsion

> <Gold.Protein.ActiveResidues>
 VAL166  LYS551  ARG553  GLY616  TRP617  ASP618  TYR619  PRO620  LYS621  CYS622 
 ASP623  PHE694  ASN695  SER759  ASP760  ASP761  ALA762  ILE779  LEU786  VAL792 
 PHE793  MET794  SER795  GLU796  ALA797  LYS798  CYS799  TRP800  GLU811  SER814 

> <Gold.Protein.RotatedAtoms>
  151.5379  133.3437  159.2929 H   0  0  0  0  0  0  0  0  0  0  0  0  # atno 6907 bound_to 6896
  150.8553  134.7893  159.7052 H   0  0  0  0  0  0  0  0  0  0  0  0  # atno 6908 bound_to 6896
  152.4588  134.5239  159.9842 H   0  0  0  0  0  0  0  0  0  0  0  0  # atno 6909 bound_to 6896
  145.9591  139.4042  143.0259 H   0  0  0  0  0  0  0  0  0  0  0  0  # atno 7974 bound_to 7965
  155.9850  140.1189  157.0691 H   0  0  0  0  0  0  0  0  0  0  0  0  # atno 8008 bound_to 7997
  154.4194  140.1137  156.5555 H   0  0  0  0  0  0  0  0  0  0  0  0  # atno 8009 bound_to 7997
  155.6420  140.3473  155.4720 H   0  0  0  0  0  0  0  0  0  0  0  0  # atno 8010 bound_to 7997
  140.7235  143.5107  150.9753 H   0  0  0  0  0  0  0  0  0  0  0  0  # atno 10167 bound_to 10162
  157.6771  130.9907  150.1909 H   0  0  0  0  0  0  0  0  0  0  0  0  # atno 10718 bound_to 10713
  153.6076  135.6997  153.5359 H   0  0  0  0  0  0  0  0  0  0  0  0  # atno 10763 bound_to 10752
  153.3044  135.4119  155.1280 H   0  0  0  0  0  0  0  0  0  0  0  0  # atno 10764 bound_to 10752
  154.8570  135.3656  154.5613 H   0  0  0  0  0  0  0  0  0  0  0  0  # atno 10765 bound_to 10752
  139.8886  134.9489  156.6312 H   0  0  0  0  0  0  0  0  0  0  0  0  # atno 11005 bound_to 11000
  145.8064  140.9746  143.0971 LP  0  0  0  0  0  0  0  0  0  0  0  0  # atno 17320 bound_to 7965
  144.6811  139.9866  143.7484 LP  0  0  0  0  0  0  0  0  0  0  0  0  # atno 17321 bound_to 7965
  139.8821  143.7059  152.3156 LP  0  0  0  0  0  0  0  0  0  0  0  0  # atno 17342 bound_to 10162
  139.7345  144.7574  151.0749 LP  0  0  0  0  0  0  0  0  0  0  0  0  # atno 17343 bound_to 10162
  156.2620  130.3712  149.8120 LP  0  0  0  0  0  0  0  0  0  0  0  0  # atno 17370 bound_to 10713
  156.5862  130.8487  151.3396 LP  0  0  0  0  0  0  0  0  0  0  0  0  # atno 17371 bound_to 10713
  140.7665  133.8774  155.8458 LP  0  0  0  0  0  0  0  0  0  0  0  0  # atno 17394 bound_to 11000
  140.9878  134.1320  157.4436 LP  0  0  0  0  0  0  0  0  0  0  0  0  # atno 17395 bound_to 11000

$$$$
