AV-unprocessed.smi:283|AV-procd|sdf|2140|dock8
  -GOLD-   2262021463D 1   1.00000     0.00000
 Structure written by MMmdl.
 48 51  0  0  0  0  0  0  0  0  1 V2000
  154.0902  139.9753  159.5835 C   0  0  0  0  0  0  0  0  0  0  0  0
  152.9910  140.8501  158.9659 C   0  0  1  0  0  0  0  0  0  0  0  0
  151.8231  140.0282  158.6549 N   0  0  0  0  0  0  0  0  0  0  0  0
  151.4834  139.7554  157.3754 C   0  0  0  0  0  0  0  0  0  0  0  0
  152.4991  139.7922  156.4804 N   0  0  0  0  0  0  0  0  0  0  0  0
  152.2718  139.5052  155.1961 C   0  0  0  0  0  0  0  0  0  0  0  0
  151.1238  139.1648  154.6089 N   0  0  0  0  0  0  0  0  0  0  0  0
  150.0896  139.1437  155.4994 C   0  0  0  0  0  0  0  0  0  0  0  0
  150.1814  139.4305  156.8917 C   0  0  0  0  0  0  0  0  0  0  0  0
  148.9198  139.3196  157.4656 N   0  0  0  0  0  0  0  0  0  0  0  0
  148.1423  138.9667  156.4794 C   0  0  0  0  0  0  0  0  0  0  0  0
  148.7655  138.8305  155.2611 N   0  0  0  0  0  0  0  0  0  0  0  0
  148.1422  138.4233  153.9629 C   0  0  1  0  0  0  0  0  0  0  0  0
  147.0178  137.6453  154.2139 O   0  0  0  0  0  0  0  0  0  0  0  0
  146.0864  137.8016  153.1483 C   0  0  1  0  0  0  0  0  0  0  0  0
  144.6669  137.9017  153.7368 C   0  0  0  0  0  0  0  0  0  0  0  0
  143.6835  138.0181  152.7296 O   0  0  0  0  0  0  0  0  0  0  0  0
  146.5507  139.0057  152.3010 C   0  0  2  0  0  0  0  0  0  0  0  0
  147.0505  138.5417  151.0609 O   0  0  0  0  0  0  0  0  0  0  0  0
  147.6842  139.6180  153.1143 C   0  0  1  0  0  0  0  0  0  0  0  0
  147.2259  140.7154  153.8830 O   0  0  0  0  0  0  0  0  0  0  0  0
  152.7068  142.0588  159.8633 C   0  0  0  0  0  0  0  0  0  0  0  0
  153.0593  142.0208  161.2329 C   0  0  0  0  0  0  0  0  0  0  0  0
  152.7980  143.1191  162.0730 C   0  0  0  0  0  0  0  0  0  0  0  0
  152.1900  144.2744  161.5504 C   0  0  0  0  0  0  0  0  0  0  0  0
  151.8504  144.3307  160.1863 C   0  0  0  0  0  0  0  0  0  0  0  0
  152.1082  143.2332  159.3408 C   0  0  0  0  0  0  0  0  0  0  0  0
  151.6805  143.3648  157.6705 Cl  0  0  0  0  0  0  0  0  0  0  0  0
  148.8962  137.8161  153.4596 H   0  0  0  0  0  0  0  0  0  0  0  0
  146.1358  136.8857  152.5567 H   0  0  0  0  0  0  0  0  0  0  0  0
  145.7524  139.7198  152.0940 H   0  0  0  0  0  0  0  0  0  0  0  0
  148.5127  139.9659  152.4957 H   0  0  0  0  0  0  0  0  0  0  0  0
  155.0036  140.5487  159.7446 H   0  0  0  0  0  0  0  0  0  0  0  0
  154.3404  139.1378  158.9315 H   0  0  0  0  0  0  0  0  0  0  0  0
  153.7798  139.5682  160.5466 H   0  0  0  0  0  0  0  0  0  0  0  0
  153.3718  141.2011  158.0084 H   0  0  0  0  0  0  0  0  0  0  0  0
  151.1578  139.9418  159.4094 H   0  0  0  0  0  0  0  0  0  0  0  0
  153.1332  139.5501  154.5462 H   0  0  0  0  0  0  0  0  0  0  0  0
  147.0857  138.7880  156.6170 H   0  0  0  0  0  0  0  0  0  0  0  0
  144.4446  137.0050  154.3158 H   0  0  0  0  0  0  0  0  0  0  0  0
  144.5928  138.7492  154.4187 H   0  0  0  0  0  0  0  0  0  0  0  0
  143.7555  138.8768  152.3393 H   0  0  0  0  0  0  0  0  0  0  0  0
  146.3611  138.6054  150.4174 H   0  0  0  0  0  0  0  0  0  0  0  0
  146.9402  140.3923  154.7239 H   0  0  0  0  0  0  0  0  0  0  0  0
  153.5304  141.1433  161.6511 H   0  0  0  0  0  0  0  0  0  0  0  0
  153.0652  143.0744  163.1185 H   0  0  0  0  0  0  0  0  0  0  0  0
  151.9891  145.1185  162.1934 H   0  0  0  0  0  0  0  0  0  0  0  0
  151.3909  145.2227  159.7866 H   0  0  0  0  0  0  0  0  0  0  0  0
  1  2  1  0  0  0  0
  1 33  1  0  0  0  0
  1 34  1  0  0  0  0
  1 35  1  0  0  0  0
  2  3  1  0  0  0  0
  2 22  1  0  0  0  0
  2 36  1  0  0  0  0
  3  4  1  0  0  0  0
  3 37  1  0  0  0  0
  4  9  1  0  0  0  0
  4  5  2  0  0  0  0
  5  6  1  0  0  0  0
  6  7  2  0  0  0  0
  6 38  1  0  0  0  0
  7  8  1  0  0  0  0
  8 12  1  0  0  0  0
  8  9  2  0  0  0  0
  9 10  1  0  0  0  0
 10 11  2  0  0  0  0
 11 12  1  0  0  0  0
 11 39  1  0  0  0  0
 12 13  1  0  0  0  0
 13 29  1  0  0  0  0
 13 20  1  0  0  0  0
 13 14  1  0  0  0  0
 14 15  1  0  0  0  0
 15 30  1  0  0  0  0
 15 16  1  0  0  0  0
 15 18  1  0  0  0  0
 16 17  1  0  0  0  0
 16 40  1  0  0  0  0
 16 41  1  0  0  0  0
 17 42  1  0  0  0  0
 18 31  1  0  0  0  0
 18 19  1  0  0  0  0
 18 20  1  0  0  0  0
 19 43  1  0  0  0  0
 20 32  1  0  0  0  0
 20 21  1  0  0  0  0
 21 44  1  0  0  0  0
 22 27  1  0  0  0  0
 22 23  2  0  0  0  0
 23 24  1  0  0  0  0
 23 45  1  0  0  0  0
 24 25  2  0  0  0  0
 24 46  1  0  0  0  0
 25 26  1  0  0  0  0
 25 47  1  0  0  0  0
 26 27  2  0  0  0  0
 26 48  1  0  0  0  0
 27 28  1  0  0  0  0
M  END
> <s_m_source_file>
AV-unprocessed.smi

> <i_m_source_file_index>
283

> <i_lp_mmshare_version>
43012

> <i_f3d_flags>
0

> <s_epik_input>
Q2xjMVtjSF1bY0hdW2NIXVtjSF1jMVtDQEhdKFtDSDNdKVtOSF1jKG5bY0hdbjIpYyhjMjMpbltjSF1uM1tDQEBIXTRPW0NASF0oW0NIMl1bT0hdKVtDQEBIXShbT0hdKVtDQEhdNFtPSF0=

> <s_epik_cmdline>
J2VwaWtfcHl0aG9uJywgJy1waCcsICc3LjAnLCAnLXRuJywgJzgnLCAnLW1hJywgJzIwMCcsICctbWV0YWxfYmluZGluZycsICctaW1hZScsICc8aW5maWxlLm1hZT4nLCAnLW9tYWUnLCAnPG91dGZpbGUubWFlPic=

> <r_lp_tautomer_probability>
1

> <r_epik_Ionization_Penalty>
0.000266407

> <r_epik_Ionization_Penalty_Charging>
0

> <r_epik_Ionization_Penalty_Neutral>
0.000266407

> <r_epik_State_Penalty>
-0

> <r_epik_Charging_Adjusted_Penalty>
0

> <i_epik_Tot_Q>
0

> <i_epik_Tot_abs_Q>
0

> <r_epik_Metal_State_Penalty>
-0

> <b_epik_Metal_Only>
0

> <s_epik_Chemistry_Notes>
This compound contains an acetal/aminal-like group ( X-CH(R)-Y where X, Y are N, S, or O) that may be acid/base labile, releasing an aldehyde.

> <s_lp_Force_Field>
OPLS_2005

> <r_lp_Energy>
47.3301

> <b_lp_Chiralities_Consistent>
1

> <s_lp_Variant>
AV-unprocessed.smi:283-16

> <Gold.Version>
5.8.1

> <Gold.Id.Protein>
6NUR|6NUR_protein|mol2

> <Gold.PLP.Fitness>
53.6712

> <Gold.PLP.PLP>
-48.4503

> <Gold.PLP.part.hbond>
-6.7129

> <Gold.PLP.part.metal>
0.0000

> <Gold.PLP.part.buried>
-0.1058

> <Gold.PLP.part.nonpolar>
-41.3375

> <Gold.PLP.part.repulsive>
0.3454

> <Gold.PLP.ligand.clash>
0.0000

> <Gold.PLP.ligand.torsion>
1.4742

> <Gold.PLP.Chemscore.Hbond>
2.7000

> <Gold.PLP.Chemscore.CHOScore>
0.0000

> <Gold.PLP.Chemscore.Metal>
0.0000

> <Gold.Chemscore.Hbonds>
donor molecule, donor type, donor heavy atom, donor atom, acceptor molecule, acceptor atom, score
      L1  H    17    42       P1 10175  1.00
      P1  H  7954  7966       L1    19  0.60
      P1  H  7997  8008       L1     5  1.00

> <Gold.PLP.Chemscore.Internal.Correction>
0.0694

> <Gold.Rescore>
     Score         DG    S(hbond)    S(metal)    S(lipo)     H(rot)  DE(clash)    DE(int)     intcor
     14.46     -16.39       2.35        0.00     115.72       4.10       0.60       1.32       ----

> <Gold.Chemscore.Fitness>
14.4645

> <Gold.Chemscore.DG>
-16.3858

> <Gold.Chemscore.ZeroCoef>
-5.4800

> <Gold.Chemscore.Hbond>
2.3518

> <Gold.Chemscore.Metal>
0.0000

> <Gold.Chemscore.Lipo>
115.7160

> <Gold.Chemscore.Internal_Hbond>
0.0000

> <Gold.Chemscore.DEClash>
0.5968

> <Gold.Chemscore.DEInternal>
1.3245

> <Gold.Chemscore.Rot>
4.0968

> <Gold.Chemscore.Internal.Correction>
   9.000000E+99

> <Gold.Chemscore.Hbonds>
donor molecule, donor type, donor heavy atom, donor atom, acceptor molecule, acceptor atom, score
      L1  H    17    42       P1 10175  0.92
      P1  H  7954  7966       L1    19  0.04
      P1  H  7997  8008       L1     5  0.26

> <Gold.Chemscore.Hbond.Weighted>
-7.8550

> <Gold.Chemscore.Metal.Weighted>
-0.0000

> <Gold.Chemscore.Lipo.Weighted>
-13.5388

> <Gold.Chemscore.Internal_Hbond.Weighted>
0.0000

> <Gold.Chemscore.DEClash.Weighted>
0.5968

> <Gold.Chemscore.DEInternal.Weighted>
1.3245

> <Gold.Chemscore.Rot.Weighted>
10.4879

> <Gold.Chemscore.Internal.Correction.Weighted>
   9.000000E+99

> <Gold.Protein.RotatedTorsions>
[ 6907 6896 6895 6894 ] final  163.84 input  -60.11 | X-H torsion
[ 7974 7965 7964 7962 ] final   55.11 input  175.53 | X-H torsion
[ 8008 7997 7996 7995 ] final  -47.19 input   59.86 | X-H torsion
[ 10167 10162 10161 10158 ] final -160.18 input  -65.29 | X-H torsion
[ 10718 10713 10712 10709 ] final -109.44 input   66.30 | X-H torsion
[ 10763 10752 10751 10750 ] final -176.93 input  -60.55 | X-H torsion
[ 11005 11000 10999 10996 ] final    8.29 input  -57.11 | X-H torsion

> <Gold.Protein.ActiveResidues>
 VAL166  LYS551  ARG553  GLY616  TRP617  ASP618  TYR619  PRO620  LYS621  CYS622 
 ASP623  PHE694  ASN695  SER759  ASP760  ASP761  ALA762  ILE779  LEU786  VAL792 
 PHE793  MET794  SER795  GLU796  ALA797  LYS798  CYS799  TRP800  GLU811  SER814 

> <Gold.Protein.RotatedAtoms>
  151.9190  133.3580  159.3890 H   0  0  0  0  0  0  0  0  0  0  0  0  # atno 6907 bound_to 6896
  150.7041  134.4654  159.5410 H   0  0  0  0  0  0  0  0  0  0  0  0  # atno 6908 bound_to 6896
  152.2274  134.8355  160.0529 H   0  0  0  0  0  0  0  0  0  0  0  0  # atno 6909 bound_to 6896
  145.9538  139.3996  143.0290 H   0  0  0  0  0  0  0  0  0  0  0  0  # atno 7974 bound_to 7965
  154.4014  140.1353  156.4134 H   0  0  0  0  0  0  0  0  0  0  0  0  # atno 8008 bound_to 7997
  155.7712  140.3484  155.5228 H   0  0  0  0  0  0  0  0  0  0  0  0  # atno 8009 bound_to 7997
  155.8765  140.0980  157.1505 H   0  0  0  0  0  0  0  0  0  0  0  0  # atno 8010 bound_to 7997
  139.6559  144.0000  152.2193 H   0  0  0  0  0  0  0  0  0  0  0  0  # atno 10167 bound_to 10162
  156.0537  130.5764  150.8100 H   0  0  0  0  0  0  0  0  0  0  0  0  # atno 10718 bound_to 10713
  154.5664  135.2824  155.0870 H   0  0  0  0  0  0  0  0  0  0  0  0  # atno 10763 bound_to 10752
  154.2259  135.6383  153.5163 H   0  0  0  0  0  0  0  0  0  0  0  0  # atno 10764 bound_to 10752
  153.0044  135.5525  154.6273 H   0  0  0  0  0  0  0  0  0  0  0  0  # atno 10765 bound_to 10752
  140.5386  134.0396  155.7896 H   0  0  0  0  0  0  0  0  0  0  0  0  # atno 11005 bound_to 11000
  145.8135  140.9714  143.0936 LP  0  0  0  0  0  0  0  0  0  0  0  0  # atno 17320 bound_to 7965
  144.6801  139.9950  143.7484 LP  0  0  0  0  0  0  0  0  0  0  0  0  # atno 17321 bound_to 7965
  139.9727  144.6483  150.7974 LP  0  0  0  0  0  0  0  0  0  0  0  0  # atno 17342 bound_to 10162
  140.7558  143.3054  151.2974 LP  0  0  0  0  0  0  0  0  0  0  0  0  # atno 17343 bound_to 10162
  157.5488  131.0943  150.9725 LP  0  0  0  0  0  0  0  0  0  0  0  0  # atno 17370 bound_to 10713
  156.9990  130.5592  149.5310 LP  0  0  0  0  0  0  0  0  0  0  0  0  # atno 17371 bound_to 10713
  141.1240  133.9414  157.2672 LP  0  0  0  0  0  0  0  0  0  0  0  0  # atno 17394 bound_to 11000
  139.9516  135.0174  156.9009 LP  0  0  0  0  0  0  0  0  0  0  0  0  # atno 17395 bound_to 11000

$$$$
