AV-unprocessed.smi:3331|AV-procd|sdf|12817|dock6
  -GOLD-   2272019193D 1   1.00000     0.00000
 Structure written by MMmdl.
 47 48  0  0  0  0  0  0  0  0  2 V2000
  146.8593  142.1173  153.7885 C   0  0  0  0  0  0  0  0  0  0  0  0
  147.7753  141.0751  154.4451 C   0  0  2  0  0  0  0  0  0  0  0  0
  149.1396  141.6886  154.8353 C   0  0  0  0  0  0  0  0  0  0  0  0
  150.1413  140.6410  155.3715 C   0  0  1  0  0  0  0  0  0  0  0  0
  149.8352  140.2328  156.8238 C   0  0  0  0  0  0  0  0  0  0  0  0
  150.2031  139.4341  154.4096 C   0  0  0  0  0  0  0  0  0  0  0  0
  148.8533  138.8826  154.2195 N   0  0  0  0  0  0  0  0  0  0  0  0
  148.3963  137.6921  154.6855 C   0  0  0  0  0  0  0  0  0  0  0  0
  149.1130  136.9302  155.3377 O   0  0  0  0  0  0  0  0  0  0  0  0
  146.9438  137.2569  154.4047 C   0  0  2  0  0  0  0  0  0  0  0  0
  146.5595  136.0591  155.2932 C   0  0  0  0  0  0  0  0  0  0  0  0
  146.7751  136.9281  152.9707 N   0  3  0  0  0  0  0  0  0  0  0  0
  145.5167  136.2383  152.6140 C   0  0  0  0  0  0  0  0  0  0  0  0
  145.4601  135.9221  151.1112 C   0  0  0  0  0  0  0  0  0  0  0  0
  145.3964  134.4936  150.8566 N   0  0  0  0  0  0  0  0  0  0  0  0
  144.3897  133.7756  150.2460 C   0  0  0  0  0  0  0  0  0  0  0  0
  144.7819  132.4680  150.2201 C   0  0  0  0  0  0  0  0  0  0  0  0
  146.0589  132.4846  150.8476 C   0  0  0  0  0  0  0  0  0  0  0  0
  146.4249  133.6991  151.2252 N   0  0  0  0  0  0  0  0  0  0  0  0
  147.9816  139.8468  153.5339 C   0  0  0  0  0  0  0  0  0  0  0  0
  147.2905  142.4970  152.8618 H   0  0  0  0  0  0  0  0  0  0  0  0
  146.6932  142.9667  154.4516 H   0  0  0  0  0  0  0  0  0  0  0  0
  145.8848  141.6897  153.5512 H   0  0  0  0  0  0  0  0  0  0  0  0
  147.2803  140.7378  155.3570 H   0  0  0  0  0  0  0  0  0  0  0  0
  149.5749  142.1594  153.9526 H   0  0  0  0  0  0  0  0  0  0  0  0
  149.0021  142.4890  155.5635 H   0  0  0  0  0  0  0  0  0  0  0  0
  151.1277  141.1064  155.3813 H   0  0  0  0  0  0  0  0  0  0  0  0
  148.8619  139.7512  156.9180 H   0  0  0  0  0  0  0  0  0  0  0  0
  149.8363  141.1021  157.4816 H   0  0  0  0  0  0  0  0  0  0  0  0
  150.5865  139.5387  157.2006 H   0  0  0  0  0  0  0  0  0  0  0  0
  150.5801  139.7650  153.4405 H   0  0  0  0  0  0  0  0  0  0  0  0
  150.9381  138.7087  154.7520 H   0  0  0  0  0  0  0  0  0  0  0  0
  146.2791  138.0963  154.6007 H   0  0  0  0  0  0  0  0  0  0  0  0
  146.7209  136.2736  156.3502 H   0  0  0  0  0  0  0  0  0  0  0  0
  147.1489  135.1755  155.0446 H   0  0  0  0  0  0  0  0  0  0  0  0
  145.5075  135.7984  155.1792 H   0  0  0  0  0  0  0  0  0  0  0  0
  146.7866  137.8016  152.4623 H   0  0  0  0  0  0  0  0  0  0  0  0
  145.4396  135.3134  153.1855 H   0  0  0  0  0  0  0  0  0  0  0  0
  144.6612  136.8570  152.8892 H   0  0  0  0  0  0  0  0  0  0  0  0
  144.6023  136.4086  150.6439 H   0  0  0  0  0  0  0  0  0  0  0  0
  146.3492  136.3154  150.6170 H   0  0  0  0  0  0  0  0  0  0  0  0
  143.4893  134.2492  149.8833 H   0  0  0  0  0  0  0  0  0  0  0  0
  144.2388  131.6266  149.8155 H   0  0  0  0  0  0  0  0  0  0  0  0
  146.7265  131.6568  151.0370 H   0  0  0  0  0  0  0  0  0  0  0  0
  147.0145  139.4223  153.2610 H   0  0  0  0  0  0  0  0  0  0  0  0
  148.4437  140.1474  152.5925 H   0  0  0  0  0  0  0  0  0  0  0  0
  147.5638  136.3779  152.6618 H   0  0  0  0  0  0  0  0  0  0  0  0
  1  2  1  0  0  0  0
  1 21  1  0  0  0  0
  1 22  1  0  0  0  0
  1 23  1  0  0  0  0
  2 20  1  0  0  0  0
  2  3  1  0  0  0  0
  2 24  1  0  0  0  0
  3  4  1  0  0  0  0
  3 25  1  0  0  0  0
  3 26  1  0  0  0  0
  4  5  1  0  0  0  0
  4  6  1  0  0  0  0
  4 27  1  0  0  0  0
  5 28  1  0  0  0  0
  5 29  1  0  0  0  0
  5 30  1  0  0  0  0
  6  7  1  0  0  0  0
  6 31  1  0  0  0  0
  6 32  1  0  0  0  0
  7  8  1  0  0  0  0
  7 20  1  0  0  0  0
  8  9  2  0  0  0  0
  8 10  1  0  0  0  0
 10 11  1  0  0  0  0
 10 12  1  0  0  0  0
 10 33  1  0  0  0  0
 11 34  1  0  0  0  0
 11 35  1  0  0  0  0
 11 36  1  0  0  0  0
 12 13  1  0  0  0  0
 12 37  1  0  0  0  0
 12 47  1  0  0  0  0
 13 14  1  0  0  0  0
 13 38  1  0  0  0  0
 13 39  1  0  0  0  0
 14 15  1  0  0  0  0
 14 40  1  0  0  0  0
 14 41  1  0  0  0  0
 15 19  1  0  0  0  0
 15 16  1  0  0  0  0
 16 17  2  0  0  0  0
 16 42  1  0  0  0  0
 17 18  1  0  0  0  0
 17 43  1  0  0  0  0
 18 19  2  0  0  0  0
 18 44  1  0  0  0  0
 20 45  1  0  0  0  0
 20 46  1  0  0  0  0
M  CHG  1  12   1
M  END
> <s_m_source_file>
AV-unprocessed.smi

> <i_m_source_file_index>
3331

> <i_lp_mmshare_version>
43012

> <i_f3d_flags>
0

> <s_epik_input>
W0NIM11bQ0BASF0xW0NIMl1bQ0BASF0oW0NIM10pW0NIMl1OKFtDSDJdMSlDKD1PKVtDQEhdKFtDSDNdKVtOSF1bQ0gyXVtDSDJdbjJbY0hdW2NIXVtjSF1uMg==

> <s_epik_cmdline>
J2VwaWtfcHl0aG9uJywgJy1waCcsICc3LjAnLCAnLXRuJywgJzgnLCAnLW1hJywgJzIwMCcsICctbWV0YWxfYmluZGluZycsICctaW1hZScsICc8aW5maWxlLm1hZT4nLCAnLW9tYWUnLCAnPG91dGZpbGUubWFlPic=

> <r_lp_tautomer_probability>
1

> <r_epik_Ionization_Penalty>
0.189706

> <r_epik_Ionization_Penalty_Charging>
0.189703

> <r_epik_Ionization_Penalty_Neutral>
2.45875e-06

> <r_epik_State_Penalty>
0.179341

> <r_epik_Charging_Adjusted_Penalty>
0.369044

> <i_epik_Tot_Q>
1

> <i_epik_Tot_abs_Q>
1

> <r_epik_Metal_State_Penalty>
0.179578

> <b_epik_Metal_Only>
0

> <s_lp_Force_Field>
OPLS_2005

> <r_lp_Energy>
28.246

> <b_lp_Chiralities_Consistent>
1

> <s_lp_Variant>
AV-unprocessed.smi:3331-1

> <Gold.Version>
5.8.1

> <Gold.Id.Protein>
6NUR|6NUR_protein|mol2

> <Gold.PLP.Fitness>
44.4128

> <Gold.PLP.PLP>
-33.8119

> <Gold.PLP.part.hbond>
-0.9919

> <Gold.PLP.part.metal>
0.0000

> <Gold.PLP.part.buried>
-1.3399

> <Gold.PLP.part.nonpolar>
-31.1867

> <Gold.PLP.part.repulsive>
0.3297

> <Gold.PLP.ligand.clash>
0.0000

> <Gold.PLP.ligand.torsion>
0.7295

> <Gold.PLP.Chemscore.Hbond>
2.0000

> <Gold.PLP.Chemscore.CHOScore>
2.0000

> <Gold.PLP.Chemscore.Metal>
0.0000

> <Gold.Chemscore.Hbonds>
donor molecule, donor type, donor heavy atom, donor atom, acceptor molecule, acceptor atom, score
      L1  H    12    47       P1  7948  2.00
      L1  C    16    42       P1 10186  1.00
      L1  C    18    44       P1 10747  1.00

> <Gold.PLP.Chemscore.Internal.Correction>
0.0598

> <Gold.Rescore>
     Score         DG    S(hbond)    S(metal)    S(lipo)     H(rot)  DE(clash)    DE(int)     intcor
     13.03     -13.94       0.98        0.00      82.01       1.73       0.20       0.71       ----

> <Gold.Chemscore.Fitness>
13.0291

> <Gold.Chemscore.DG>
-13.9448

> <Gold.Chemscore.ZeroCoef>
-5.4800

> <Gold.Chemscore.Hbond>
0.9839

> <Gold.Chemscore.Metal>
0.0000

> <Gold.Chemscore.Lipo>
82.0136

> <Gold.Chemscore.Internal_Hbond>
0.0000

> <Gold.Chemscore.DEClash>
0.2023

> <Gold.Chemscore.DEInternal>
0.7134

> <Gold.Chemscore.Rot>
1.7254

> <Gold.Chemscore.Internal.Correction>
   9.000000E+99

> <Gold.Chemscore.Hbonds>
donor molecule, donor type, donor heavy atom, donor atom, acceptor molecule, acceptor atom, score
      L1  H    12    47       P1  7948  0.94

> <Gold.Chemscore.Hbond.Weighted>
-3.2862

> <Gold.Chemscore.Metal.Weighted>
-0.0000

> <Gold.Chemscore.Lipo.Weighted>
-9.5956

> <Gold.Chemscore.Internal_Hbond.Weighted>
0.0000

> <Gold.Chemscore.DEClash.Weighted>
0.2023

> <Gold.Chemscore.DEInternal.Weighted>
0.7134

> <Gold.Chemscore.Rot.Weighted>
4.4170

> <Gold.Chemscore.Internal.Correction.Weighted>
   9.000000E+99

> <Gold.Protein.RotatedTorsions>
[ 6907 6896 6895 6894 ] final  -92.62 input  -60.11 | X-H torsion
[ 7974 7965 7964 7962 ] final  -16.39 input  175.53 | X-H torsion
[ 8008 7997 7996 7995 ] final   45.08 input   59.86 | X-H torsion
[ 10167 10162 10161 10158 ] final   63.33 input  -65.29 | X-H torsion
[ 10718 10713 10712 10709 ] final   36.81 input   66.30 | X-H torsion
[ 10763 10752 10751 10750 ] final  175.75 input  -60.55 | X-H torsion
[ 11005 11000 10999 10996 ] final -138.70 input  -57.11 | X-H torsion

> <Gold.Protein.ActiveResidues>
 VAL166  LYS551  ARG553  GLY616  TRP617  ASP618  TYR619  PRO620  LYS621  CYS622 
 ASP623  PHE694  ASN695  SER759  ASP760  ASP761  ALA762  ILE779  LEU786  VAL792 
 PHE793  MET794  SER795  GLU796  ALA797  LYS798  CYS799  TRP800  GLU811  SER814 

> <Gold.Protein.RotatedAtoms>
  150.6909  134.2093  159.4352 H   0  0  0  0  0  0  0  0  0  0  0  0  # atno 6907 bound_to 6896
  152.0056  134.9902  160.0576 H   0  0  0  0  0  0  0  0  0  0  0  0  # atno 6908 bound_to 6896
  152.1537  133.4503  159.4863 H   0  0  0  0  0  0  0  0  0  0  0  0  # atno 6909 bound_to 6896
  146.1989  140.3630  142.8430 H   0  0  0  0  0  0  0  0  0  0  0  0  # atno 7974 bound_to 7965
  155.3299  140.3402  155.4239 H   0  0  0  0  0  0  0  0  0  0  0  0  # atno 8008 bound_to 7997
  156.1867  140.1683  156.8209 H   0  0  0  0  0  0  0  0  0  0  0  0  # atno 8009 bound_to 7997
  154.5394  140.0728  156.8467 H   0  0  0  0  0  0  0  0  0  0  0  0  # atno 8010 bound_to 7997
  140.1342  144.4614  150.6847 H   0  0  0  0  0  0  0  0  0  0  0  0  # atno 10167 bound_to 10162
  157.3394  130.7540  149.6901 H   0  0  0  0  0  0  0  0  0  0  0  0  # atno 10718 bound_to 10713
  154.4718  135.2771  155.1637 H   0  0  0  0  0  0  0  0  0  0  0  0  # atno 10763 bound_to 10752
  154.3382  135.6175  153.5587 H   0  0  0  0  0  0  0  0  0  0  0  0  # atno 10764 bound_to 10752
  152.9865  135.5782  154.5101 H   0  0  0  0  0  0  0  0  0  0  0  0  # atno 10765 bound_to 10752
  140.8590  134.2192  157.4718 H   0  0  0  0  0  0  0  0  0  0  0  0  # atno 11005 bound_to 11000
  144.8641  140.7180  143.6089 LP  0  0  0  0  0  0  0  0  0  0  0  0  # atno 17320 bound_to 7965
  145.3550  139.1696  143.4414 LP  0  0  0  0  0  0  0  0  0  0  0  0  # atno 17321 bound_to 7965
  140.6799  143.2322  151.5411 LP  0  0  0  0  0  0  0  0  0  0  0  0  # atno 17342 bound_to 10162
  139.5504  144.2410  152.1520 LP  0  0  0  0  0  0  0  0  0  0  0  0  # atno 17343 bound_to 10162
  155.9705  130.4172  150.4268 LP  0  0  0  0  0  0  0  0  0  0  0  0  # atno 17370 bound_to 10713
  157.2313  131.0505  151.2490 LP  0  0  0  0  0  0  0  0  0  0  0  0  # atno 17371 bound_to 10713
  139.8706  134.9720  156.4759 LP  0  0  0  0  0  0  0  0  0  0  0  0  # atno 17394 bound_to 11000
  140.8704  133.7993  155.9358 LP  0  0  0  0  0  0  0  0  0  0  0  0  # atno 17395 bound_to 11000

$$$$
