AV-unprocessed.smi:2395|AV-procd|sdf|9491|dock9
  -GOLD-   2272013123D 1   1.00000     0.00000
 Structure written by MMmdl.
 39 40  0  0  0  0  0  0  0  0  1 V2000
  147.0598  141.8053  153.8501 C   0  0  0  0  0  0  0  0  0  0  0  0
  148.1853  140.9498  154.3570 C   0  0  0  0  0  0  0  0  0  0  0  0
  149.2074  141.5223  154.9700 N   0  0  0  0  0  0  0  0  0  0  0  0
  150.0257  140.5033  155.3049 N   0  0  0  0  0  0  0  0  0  0  0  0
  151.2651  140.7932  156.0128 C   0  0  0  0  0  0  0  0  0  0  0  0
  151.0358  141.5690  157.3156 C   0  0  0  0  0  0  0  0  0  0  0  0
  149.9031  141.9076  157.6624 O   0  0  0  0  0  0  0  0  0  0  0  0
  152.1347  141.8412  158.0348 N   0  0  0  0  0  0  0  0  0  0  0  0
  152.1457  142.5415  159.3124 C   0  0  0  0  0  0  0  0  0  0  0  0
  152.3628  144.0396  159.2165 C   0  0  0  0  0  0  0  0  0  0  0  0
  151.8184  144.9603  160.2832 C   0  0  0  0  0  0  0  0  0  0  0  0
  151.2194  144.9736  158.8968 C   0  0  0  0  0  0  0  0  0  0  0  0
  149.5190  139.2831  154.8938 C   0  0  0  0  0  0  0  0  0  0  0  0
  150.2311  137.9927  155.1478 C   0  0  0  0  0  0  0  0  0  0  0  0
  148.3262  139.5342  154.2701 C   0  0  0  0  0  0  0  0  0  0  0  0
  147.3681  138.5573  153.6417 C   0  0  0  0  0  0  0  0  0  0  0  0
  146.8977  139.0415  152.2641 C   0  0  0  0  0  0  0  0  0  0  0  0
  147.3725  138.1711  151.2599 O   0  0  0  0  0  0  0  0  0  0  0  0
  146.0981  141.3123  153.9931 H   0  0  0  0  0  0  0  0  0  0  0  0
  147.1744  142.0076  152.7853 H   0  0  0  0  0  0  0  0  0  0  0  0
  147.0176  142.7636  154.3692 H   0  0  0  0  0  0  0  0  0  0  0  0
  151.7717  139.8505  156.2234 H   0  0  0  0  0  0  0  0  0  0  0  0
  151.9263  141.3717  155.3657 H   0  0  0  0  0  0  0  0  0  0  0  0
  153.0265  141.5313  157.6764 H   0  0  0  0  0  0  0  0  0  0  0  0
  151.1956  142.3485  159.8115 H   0  0  0  0  0  0  0  0  0  0  0  0
  152.9184  142.1171  159.9554 H   0  0  0  0  0  0  0  0  0  0  0  0
  153.3354  144.3180  158.8144 H   0  0  0  0  0  0  0  0  0  0  0  0
  151.2248  144.5184  161.0810 H   0  0  0  0  0  0  0  0  0  0  0  0
  152.4330  145.8096  160.5747 H   0  0  0  0  0  0  0  0  0  0  0  0
  151.4347  145.8318  158.2635 H   0  0  0  0  0  0  0  0  0  0  0  0
  150.2291  144.5395  158.7729 H   0  0  0  0  0  0  0  0  0  0  0  0
  149.6663  137.1453  154.7598 H   0  0  0  0  0  0  0  0  0  0  0  0
  150.3744  137.8327  156.2164 H   0  0  0  0  0  0  0  0  0  0  0  0
  151.2107  137.9885  154.6698 H   0  0  0  0  0  0  0  0  0  0  0  0
  147.8350  137.5771  153.5378 H   0  0  0  0  0  0  0  0  0  0  0  0
  146.5020  138.4001  154.2856 H   0  0  0  0  0  0  0  0  0  0  0  0
  145.8087  139.0759  152.2185 H   0  0  0  0  0  0  0  0  0  0  0  0
  147.2657  140.0484  152.0641 H   0  0  0  0  0  0  0  0  0  0  0  0
  147.4787  137.3102  151.6349 H   0  0  0  0  0  0  0  0  0  0  0  0
  1  2  1  0  0  0  0
  1 19  1  0  0  0  0
  1 20  1  0  0  0  0
  1 21  1  0  0  0  0
  2 15  1  0  0  0  0
  2  3  2  0  0  0  0
  3  4  1  0  0  0  0
  4  5  1  0  0  0  0
  4 13  1  0  0  0  0
  5  6  1  0  0  0  0
  5 22  1  0  0  0  0
  5 23  1  0  0  0  0
  6  7  2  0  0  0  0
  6  8  1  0  0  0  0
  8  9  1  0  0  0  0
  8 24  1  0  0  0  0
  9 10  1  0  0  0  0
  9 25  1  0  0  0  0
  9 26  1  0  0  0  0
 10 12  1  0  0  0  0
 10 11  1  0  0  0  0
 10 27  1  0  0  0  0
 11 12  1  0  0  0  0
 11 28  1  0  0  0  0
 11 29  1  0  0  0  0
 12 30  1  0  0  0  0
 12 31  1  0  0  0  0
 13 14  1  0  0  0  0
 13 15  2  0  0  0  0
 14 32  1  0  0  0  0
 14 33  1  0  0  0  0
 14 34  1  0  0  0  0
 15 16  1  0  0  0  0
 16 17  1  0  0  0  0
 16 35  1  0  0  0  0
 16 36  1  0  0  0  0
 17 18  1  0  0  0  0
 17 37  1  0  0  0  0
 17 38  1  0  0  0  0
 18 39  1  0  0  0  0
M  END
> <s_m_source_file>
AV-unprocessed.smi

> <i_m_source_file_index>
2395

> <i_lp_mmshare_version>
43012

> <i_f3d_flags>
0

> <s_epik_input>
W09IXVtDSDJdW0NIMl1jMWMoW0NIM10pbihuYzFbQ0gzXSlbQ0gyXUMoPU8pW05IXVtDSDJdW0NIXTJbQ0gyXVtDSDJdMg==

> <s_epik_cmdline>
J2VwaWtfcHl0aG9uJywgJy1waCcsICc3LjAnLCAnLXRuJywgJzgnLCAnLW1hJywgJzIwMCcsICctbWV0YWxfYmluZGluZycsICctaW1hZScsICc8aW5maWxlLm1hZT4nLCAnLW9tYWUnLCAnPG91dGZpbGUubWFlPic=

> <r_lp_tautomer_probability>
1

> <r_epik_Ionization_Penalty>
0.000725848

> <r_epik_Ionization_Penalty_Charging>
0

> <r_epik_Ionization_Penalty_Neutral>
0.000725848

> <r_epik_State_Penalty>
-0

> <r_epik_Charging_Adjusted_Penalty>
0

> <i_epik_Tot_Q>
0

> <i_epik_Tot_abs_Q>
0

> <r_epik_Metal_State_Penalty>
-0

> <b_epik_Metal_Only>
0

> <s_lp_Force_Field>
OPLS_2005

> <r_lp_Energy>
10.6696

> <b_lp_Chiralities_Consistent>
1

> <s_lp_Variant>
AV-unprocessed.smi:2395-1

> <Gold.Version>
5.8.1

> <Gold.Id.Protein>
6NUR|6NUR_protein|mol2

> <Gold.PLP.Fitness>
44.6174

> <Gold.PLP.PLP>
-41.3119

> <Gold.PLP.part.hbond>
-2.8738

> <Gold.PLP.part.metal>
0.0000

> <Gold.PLP.part.buried>
-4.0278

> <Gold.PLP.part.nonpolar>
-34.9489

> <Gold.PLP.part.repulsive>
0.3177

> <Gold.PLP.ligand.clash>
0.0000

> <Gold.PLP.ligand.torsion>
1.0010

> <Gold.PLP.Chemscore.Hbond>
1.5760

> <Gold.PLP.Chemscore.CHOScore>
0.0000

> <Gold.PLP.Chemscore.Metal>
0.0000

> <Gold.Chemscore.Hbonds>
donor molecule, donor type, donor heavy atom, donor atom, acceptor molecule, acceptor atom, score
      L1  H    18    39       P1  7948  0.62
      P1  H  7954  7966       L1    18  0.80

> <Gold.PLP.Chemscore.Internal.Correction>
0.5795

> <Gold.Rescore>
     Score         DG    S(hbond)    S(metal)    S(lipo)     H(rot)  DE(clash)    DE(int)     intcor
     12.04     -14.45       1.24        0.00      96.72       2.53       0.16       2.25       ----

> <Gold.Chemscore.Fitness>
12.0376

> <Gold.Chemscore.DG>
-14.4485

> <Gold.Chemscore.ZeroCoef>
-5.4800

> <Gold.Chemscore.Hbond>
1.2368

> <Gold.Chemscore.Metal>
0.0000

> <Gold.Chemscore.Lipo>
96.7227

> <Gold.Chemscore.Internal_Hbond>
0.0000

> <Gold.Chemscore.DEClash>
0.1627

> <Gold.Chemscore.DEInternal>
2.2482

> <Gold.Chemscore.Rot>
2.5309

> <Gold.Chemscore.Internal.Correction>
   9.000000E+99

> <Gold.Chemscore.Hbonds>
donor molecule, donor type, donor heavy atom, donor atom, acceptor molecule, acceptor atom, score
      L1  H    18    39       P1  7948  0.62
      P1  H  7954  7966       L1    18  0.12

> <Gold.Chemscore.Hbond.Weighted>
-4.1309

> <Gold.Chemscore.Metal.Weighted>
-0.0000

> <Gold.Chemscore.Lipo.Weighted>
-11.3166

> <Gold.Chemscore.Internal_Hbond.Weighted>
0.0000

> <Gold.Chemscore.DEClash.Weighted>
0.1627

> <Gold.Chemscore.DEInternal.Weighted>
2.2482

> <Gold.Chemscore.Rot.Weighted>
6.4790

> <Gold.Chemscore.Internal.Correction.Weighted>
   9.000000E+99

> <Gold.Protein.RotatedTorsions>
[ 6907 6896 6895 6894 ] final -148.62 input  -60.11 | X-H torsion
[ 7974 7965 7964 7962 ] final  114.29 input  175.53 | X-H torsion
[ 8008 7997 7996 7995 ] final  124.39 input   59.86 | X-H torsion
[ 10167 10162 10161 10158 ] final -116.67 input  -65.29 | X-H torsion
[ 10718 10713 10712 10709 ] final -100.30 input   66.30 | X-H torsion
[ 10763 10752 10751 10750 ] final   55.31 input  -60.55 | X-H torsion
[ 11005 11000 10999 10996 ] final  145.47 input  -57.11 | X-H torsion

> <Gold.Protein.ActiveResidues>
 VAL166  LYS551  ARG553  GLY616  TRP617  ASP618  TYR619  PRO620  LYS621  CYS622 
 ASP623  PHE694  ASN695  SER759  ASP760  ASP761  ALA762  ILE779  LEU786  VAL792 
 PHE793  MET794  SER795  GLU796  ALA797  LYS798  CYS799  TRP800  GLU811  SER814 

> <Gold.Protein.RotatedAtoms>
  151.1725  133.4775  159.2593 H   0  0  0  0  0  0  0  0  0  0  0  0  # atno 6907 bound_to 6896
  151.1342  135.0146  159.8606 H   0  0  0  0  0  0  0  0  0  0  0  0  # atno 6908 bound_to 6896
  152.5461  134.1625  159.8616 H   0  0  0  0  0  0  0  0  0  0  0  0  # atno 6909 bound_to 6896
  145.2063  139.2928  143.4292 H   0  0  0  0  0  0  0  0  0  0  0  0  # atno 7974 bound_to 7965
  156.2800  140.2740  156.1781 H   0  0  0  0  0  0  0  0  0  0  0  0  # atno 8008 bound_to 7997
  155.0585  140.0386  157.2586 H   0  0  0  0  0  0  0  0  0  0  0  0  # atno 8009 bound_to 7997
  154.7137  140.2674  155.6611 H   0  0  0  0  0  0  0  0  0  0  0  0  # atno 8010 bound_to 7997
  140.0767  143.4826  152.1949 H   0  0  0  0  0  0  0  0  0  0  0  0  # atno 10167 bound_to 10162
  156.0159  130.5321  150.6796 H   0  0  0  0  0  0  0  0  0  0  0  0  # atno 10718 bound_to 10713
  152.9815  135.5715  154.5046 H   0  0  0  0  0  0  0  0  0  0  0  0  # atno 10763 bound_to 10752
  154.4560  135.2780  155.1749 H   0  0  0  0  0  0  0  0  0  0  0  0  # atno 10764 bound_to 10752
  154.3357  135.6240  153.5626 H   0  0  0  0  0  0  0  0  0  0  0  0  # atno 10765 bound_to 10752
  140.0715  134.9149  157.1352 H   0  0  0  0  0  0  0  0  0  0  0  0  # atno 11005 bound_to 11000
  146.3407  140.2324  142.8593 LP  0  0  0  0  0  0  0  0  0  0  0  0  # atno 17320 bound_to 7965
  144.9899  140.8537  143.5345 LP  0  0  0  0  0  0  0  0  0  0  0  0  # atno 17321 bound_to 7965
  139.5804  144.7507  151.3656 LP  0  0  0  0  0  0  0  0  0  0  0  0  # atno 17342 bound_to 10162
  140.7098  143.7419  150.7547 LP  0  0  0  0  0  0  0  0  0  0  0  0  # atno 17343 bound_to 10162
  157.4501  131.0871  151.0854 LP  0  0  0  0  0  0  0  0  0  0  0  0  # atno 17370 bound_to 10713
  157.1373  130.6128  149.5545 LP  0  0  0  0  0  0  0  0  0  0  0  0  # atno 17371 bound_to 10713
  140.3620  134.2483  155.7186 LP  0  0  0  0  0  0  0  0  0  0  0  0  # atno 17394 bound_to 11000
  141.2013  133.7965  157.0445 LP  0  0  0  0  0  0  0  0  0  0  0  0  # atno 17395 bound_to 11000

$$$$
