AV-unprocessed.smi:2883|AV-procd|sdf|11077|dock1
  -GOLD-   2272015553D 1   1.00000     0.00000
 Structure written by MMmdl.
 40 42  0  0  0  0  0  0  0  0  2 V2000
  151.1016  137.2105  154.3925 C   0  0  0  0  0  0  0  0  0  0  0  0
  151.7045  138.3773  155.2092 C   0  0  0  0  0  0  0  0  0  0  0  0
  151.8229  137.8717  156.6651 C   0  0  0  0  0  0  0  0  0  0  0  0
  153.1033  138.7246  154.6678 C   0  0  0  0  0  0  0  0  0  0  0  0
  150.8046  139.6188  155.1336 C   0  0  0  0  0  0  0  0  0  0  0  0
  149.7474  139.6157  154.3018 N   0  3  0  0  0  0  0  0  0  0  0  0
  148.8805  140.6574  154.2985 C   0  0  0  0  0  0  0  0  0  0  0  0
  149.0575  141.7339  155.1863 C   0  0  0  0  0  0  0  0  0  0  0  0
  150.1521  141.6591  156.0628 C   0  0  0  0  0  0  0  0  0  0  0  0
  150.3732  142.6915  156.9846 N   0  0  0  0  0  0  0  0  0  0  0  0
  151.6429  142.8015  157.6976 C   0  0  2  0  0  0  0  0  0  0  0  0
  151.5763  142.2663  159.1300 C   0  0  0  0  0  0  0  0  0  0  0  0
  152.1150  143.4568  159.9362 C   0  0  2  0  0  0  0  0  0  0  0  0
  151.0763  144.5805  160.0421 C   0  0  0  0  0  0  0  0  0  0  0  0
  151.0863  145.1464  158.6233 C   0  0  0  0  0  0  0  0  0  0  0  0
  152.1246  144.2483  157.9287 C   0  0  1  0  0  0  0  0  0  0  0  0
  153.0195  144.0284  159.0055 O   0  0  0  0  0  0  0  0  0  0  0  0
  150.9871  140.5980  156.0331 N   0  0  0  0  0  0  0  0  0  0  0  0
  151.7121  136.3106  154.4762 H   0  0  0  0  0  0  0  0  0  0  0  0
  151.0334  137.4469  153.3299 H   0  0  0  0  0  0  0  0  0  0  0  0
  150.0984  136.9586  154.7391 H   0  0  0  0  0  0  0  0  0  0  0  0
  150.8436  137.6410  157.0866 H   0  0  0  0  0  0  0  0  0  0  0  0
  152.3000  138.6056  157.3155 H   0  0  0  0  0  0  0  0  0  0  0  0
  152.4244  136.9636  156.7214 H   0  0  0  0  0  0  0  0  0  0  0  0
  153.7714  137.8635  154.7082 H   0  0  0  0  0  0  0  0  0  0  0  0
  153.5647  139.5263  155.2459 H   0  0  0  0  0  0  0  0  0  0  0  0
  153.0552  139.0545  153.6292 H   0  0  0  0  0  0  0  0  0  0  0  0
  148.0676  140.5908  153.5905 H   0  0  0  0  0  0  0  0  0  0  0  0
  148.3746  142.5711  155.1968 H   0  0  0  0  0  0  0  0  0  0  0  0
  149.7493  143.4854  156.9965 H   0  0  0  0  0  0  0  0  0  0  0  0
  152.4106  142.2451  157.1573 H   0  0  0  0  0  0  0  0  0  0  0  0
  150.5730  141.9792  159.4485 H   0  0  0  0  0  0  0  0  0  0  0  0
  152.2257  141.3969  159.2381 H   0  0  0  0  0  0  0  0  0  0  0  0
  152.5645  143.1793  160.8899 H   0  0  0  0  0  0  0  0  0  0  0  0
  150.0955  144.2133  160.3461 H   0  0  0  0  0  0  0  0  0  0  0  0
  151.3952  145.3385  160.7586 H   0  0  0  0  0  0  0  0  0  0  0  0
  150.1063  145.1189  158.1462 H   0  0  0  0  0  0  0  0  0  0  0  0
  151.4245  146.1832  158.6335 H   0  0  0  0  0  0  0  0  0  0  0  0
  152.5888  144.7069  157.0551 H   0  0  0  0  0  0  0  0  0  0  0  0
  149.5946  138.8341  153.6641 H   0  0  0  0  0  0  0  0  0  0  0  0
  1  2  1  0  0  0  0
  1 19  1  0  0  0  0
  1 20  1  0  0  0  0
  1 21  1  0  0  0  0
  2  3  1  0  0  0  0
  2  4  1  0  0  0  0
  2  5  1  0  0  0  0
  3 22  1  0  0  0  0
  3 23  1  0  0  0  0
  3 24  1  0  0  0  0
  4 25  1  0  0  0  0
  4 26  1  0  0  0  0
  4 27  1  0  0  0  0
  5 18  1  0  0  0  0
  5  6  2  0  0  0  0
  6  7  1  0  0  0  0
  6 40  1  0  0  0  0
  7  8  2  0  0  0  0
  7 28  1  0  0  0  0
  8  9  1  0  0  0  0
  8 29  1  0  0  0  0
  9 10  1  0  0  0  0
  9 18  2  0  0  0  0
 10 11  1  0  0  0  0
 10 30  1  0  0  0  0
 11 16  1  0  0  0  0
 11 12  1  0  0  0  0
 11 31  1  0  0  0  0
 12 13  1  0  0  0  0
 12 32  1  0  0  0  0
 12 33  1  0  0  0  0
 13 17  1  0  0  0  0
 13 14  1  0  0  0  0
 13 34  1  0  0  0  0
 14 15  1  0  0  0  0
 14 35  1  0  0  0  0
 14 36  1  0  0  0  0
 15 16  1  0  0  0  0
 15 37  1  0  0  0  0
 15 38  1  0  0  0  0
 16 17  1  0  0  0  0
 16 39  1  0  0  0  0
M  CHG  1   6   1
M  END
> <s_m_source_file>
AV-unprocessed.smi

> <i_m_source_file_index>
2883

> <i_lp_mmshare_version>
43012

> <i_f3d_flags>
0

> <s_epik_input>
W0NIM11DKFtDSDNdKShbQ0gzXSljMW5bY0hdW2NIXWMobjEpW05IXVtDQEhdKFtDSDJdW0NAQEhdMjMpW0NAQEhdKE8zKVtDSDJdW0NIMl0y

> <s_epik_cmdline>
J2VwaWtfcHl0aG9uJywgJy1waCcsICc3LjAnLCAnLXRuJywgJzgnLCAnLW1hJywgJzIwMCcsICctbWV0YWxfYmluZGluZycsICctaW1hZScsICc8aW5maWxlLm1hZT4nLCAnLW9tYWUnLCAnPG91dGZpbGUubWFlPic=

> <r_lp_tautomer_probability>
0.999336

> <r_epik_Ionization_Penalty>
0.371831

> <r_epik_Ionization_Penalty_Charging>
0.371821

> <r_epik_Ionization_Penalty_Neutral>
1.06897e-05

> <r_epik_State_Penalty>
0.369311

> <r_epik_Charging_Adjusted_Penalty>
0.741132

> <i_epik_Tot_Q>
1

> <i_epik_Tot_abs_Q>
1

> <r_epik_Metal_State_Penalty>
0.621338

> <b_epik_Metal_Only>
0

> <s_lp_Force_Field>
OPLS_2005

> <r_lp_Energy>
39.227

> <b_lp_Chiralities_Consistent>
1

> <s_lp_Variant>
AV-unprocessed.smi:2883-3

> <Gold.Version>
5.8.1

> <Gold.Id.Protein>
6NUR|6NUR_protein|mol2

> <Gold.PLP.Fitness>
41.2129

> <Gold.PLP.PLP>
-40.0766

> <Gold.PLP.part.hbond>
-1.5159

> <Gold.PLP.part.metal>
0.0000

> <Gold.PLP.part.buried>
-3.8791

> <Gold.PLP.part.nonpolar>
-35.6856

> <Gold.PLP.part.repulsive>
0.1559

> <Gold.PLP.ligand.clash>
0.0000

> <Gold.PLP.ligand.torsion>
0.6829

> <Gold.PLP.Chemscore.Hbond>
0.7840

> <Gold.PLP.Chemscore.CHOScore>
0.0000

> <Gold.PLP.Chemscore.Metal>
0.0000

> <Gold.Chemscore.Hbonds>
donor molecule, donor type, donor heavy atom, donor atom, acceptor molecule, acceptor atom, score
      L1  H    10    30       P1  8028  0.77

> <Gold.PLP.Chemscore.Internal.Correction>
0.1502

> <Gold.Rescore>
     Score         DG    S(hbond)    S(metal)    S(lipo)     H(rot)  DE(clash)    DE(int)     intcor
     17.59     -18.33       0.94        0.00     108.39       1.16       0.18       0.56       ----

> <Gold.Chemscore.Fitness>
17.5872

> <Gold.Chemscore.DG>
-18.3272

> <Gold.Chemscore.ZeroCoef>
-5.4800

> <Gold.Chemscore.Hbond>
0.9405

> <Gold.Chemscore.Metal>
0.0000

> <Gold.Chemscore.Lipo>
108.3942

> <Gold.Chemscore.Internal_Hbond>
0.0000

> <Gold.Chemscore.DEClash>
0.1791

> <Gold.Chemscore.DEInternal>
0.5609

> <Gold.Chemscore.Rot>
1.1626

> <Gold.Chemscore.Internal.Correction>
   9.000000E+99

> <Gold.Chemscore.Hbonds>
donor molecule, donor type, donor heavy atom, donor atom, acceptor molecule, acceptor atom, score
      L1  H    10    30       P1  8028  0.72

> <Gold.Chemscore.Hbond.Weighted>
-3.1414

> <Gold.Chemscore.Metal.Weighted>
-0.0000

> <Gold.Chemscore.Lipo.Weighted>
-12.6821

> <Gold.Chemscore.Internal_Hbond.Weighted>
0.0000

> <Gold.Chemscore.DEClash.Weighted>
0.1791

> <Gold.Chemscore.DEInternal.Weighted>
0.5609

> <Gold.Chemscore.Rot.Weighted>
2.9763

> <Gold.Chemscore.Internal.Correction.Weighted>
   9.000000E+99

> <Gold.Protein.RotatedTorsions>
[ 6907 6896 6895 6894 ] final   10.91 input  -60.11 | X-H torsion
[ 7974 7965 7964 7962 ] final -132.00 input  175.53 | X-H torsion
[ 8008 7997 7996 7995 ] final -152.14 input   59.86 | X-H torsion
[ 10167 10162 10161 10158 ] final  -98.04 input  -65.29 | X-H torsion
[ 10718 10713 10712 10709 ] final -166.36 input   66.30 | X-H torsion
[ 10763 10752 10751 10750 ] final  -58.15 input  -60.55 | X-H torsion
[ 11005 11000 10999 10996 ] final -110.58 input  -57.11 | X-H torsion

> <Gold.Protein.ActiveResidues>
 VAL166  LYS551  ARG553  GLY616  TRP617  ASP618  TYR619  PRO620  LYS621  CYS622 
 ASP623  PHE694  ASN695  SER759  ASP760  ASP761  ALA762  ILE779  LEU786  VAL792 
 PHE793  MET794  SER795  GLU796  ALA797  LYS798  CYS799  TRP800  GLU811  SER814 

> <Gold.Protein.RotatedAtoms>
  151.7459  135.0844  160.0322 H   0  0  0  0  0  0  0  0  0  0  0  0  # atno 6907 bound_to 6896
  152.3449  133.6106  159.5911 H   0  0  0  0  0  0  0  0  0  0  0  0  # atno 6908 bound_to 6896
  150.7502  133.9581  159.3548 H   0  0  0  0  0  0  0  0  0  0  0  0  # atno 6909 bound_to 6896
  144.9326  140.7146  143.4896 H   0  0  0  0  0  0  0  0  0  0  0  0  # atno 7974 bound_to 7965
  155.6505  140.0711  157.2588 H   0  0  0  0  0  0  0  0  0  0  0  0  # atno 8008 bound_to 7997
  154.4163  140.1734  156.1719 H   0  0  0  0  0  0  0  0  0  0  0  0  # atno 8009 bound_to 7997
  155.9781  140.3356  155.6641 H   0  0  0  0  0  0  0  0  0  0  0  0  # atno 8010 bound_to 7997
  140.2771  143.3306  152.0478 H   0  0  0  0  0  0  0  0  0  0  0  0  # atno 10167 bound_to 10162
  156.6668  130.9068  151.3037 H   0  0  0  0  0  0  0  0  0  0  0  0  # atno 10718 bound_to 10713
  154.2335  135.6356  153.5183 H   0  0  0  0  0  0  0  0  0  0  0  0  # atno 10763 bound_to 10752
  152.9944  135.5525  154.5987 H   0  0  0  0  0  0  0  0  0  0  0  0  # atno 10764 bound_to 10752
  154.5475  135.2899  155.1013 H   0  0  0  0  0  0  0  0  0  0  0  0  # atno 10765 bound_to 10752
  141.0784  133.9262  157.2342 H   0  0  0  0  0  0  0  0  0  0  0  0  # atno 11005 bound_to 11000
  145.3118  139.1816  143.4635 LP  0  0  0  0  0  0  0  0  0  0  0  0  # atno 17320 bound_to 7965
  146.3253  140.3123  142.8627 LP  0  0  0  0  0  0  0  0  0  0  0  0  # atno 17321 bound_to 7965
  139.4972  144.6617  151.6449 LP  0  0  0  0  0  0  0  0  0  0  0  0  # atno 17342 bound_to 10162
  140.5842  143.9893  150.6286 LP  0  0  0  0  0  0  0  0  0  0  0  0  # atno 17343 bound_to 10162
  157.7091  130.9419  150.1028 LP  0  0  0  0  0  0  0  0  0  0  0  0  # atno 17370 bound_to 10713
  156.1969  130.3658  149.8838 LP  0  0  0  0  0  0  0  0  0  0  0  0  # atno 17371 bound_to 10713
  139.9596  135.0157  156.9225 LP  0  0  0  0  0  0  0  0  0  0  0  0  # atno 17394 bound_to 11000
  140.5523  134.0615  155.7373 LP  0  0  0  0  0  0  0  0  0  0  0  0  # atno 17395 bound_to 11000

$$$$
