AV-unprocessed.smi:2453|AV-procd|sdf|9692|dock3
  -GOLD-   2272013333D 1   1.00000     0.00000
 Structure written by MMmdl.
 41 42  0  0  0  0  0  0  0  0  2 V2000
  150.4693  138.6547  154.3131 C   0  0  0  0  0  0  0  0  0  0  0  0
  149.3177  139.6449  154.3258 C   0  0  0  0  0  0  0  0  0  0  0  0
  149.5423  140.9662  154.7702 C   0  0  0  0  0  0  0  0  0  0  0  0
  148.5283  141.8565  154.7906 N   0  3  0  0  0  0  0  0  0  0  0  0
  147.2746  141.5434  154.4030 C   0  0  0  0  0  0  0  0  0  0  0  0
  146.9840  140.2417  153.9490 C   0  0  0  0  0  0  0  0  0  0  0  0
  148.0188  139.2729  153.8934 C   0  0  0  0  0  0  0  0  0  0  0  0
  147.7985  137.9317  153.4697 N   0  0  0  0  0  0  0  0  0  0  0  0
  146.7487  137.1333  153.7285 C   0  0  0  0  0  0  0  0  0  0  0  0
  145.7462  137.4644  154.3606 O   0  0  0  0  0  0  0  0  0  0  0  0
  146.9256  135.9179  153.1905 N   0  0  0  0  0  0  0  0  0  0  0  0
  146.0000  134.7866  153.2858 C   0  0  1  0  0  0  0  0  0  0  0  0
  144.6273  135.1757  152.7009 C   0  0  0  0  0  0  0  0  0  0  0  0
  144.6726  135.3494  151.1732 C   0  0  0  0  0  0  0  0  0  0  0  0
  145.2360  134.0957  150.4881 C   0  0  0  0  0  0  0  0  0  0  0  0
  146.6154  133.7202  151.0532 C   0  0  0  0  0  0  0  0  0  0  0  0
  146.5719  133.5253  152.5841 C   0  0  1  0  0  0  0  0  0  0  0  0
  147.9477  133.0850  153.1282 C   0  0  0  0  0  0  0  0  0  0  0  0
  148.3480  131.8606  152.5499 O   0  0  0  0  0  0  0  0  0  0  0  0
  151.3897  139.1125  154.6769 H   0  0  0  0  0  0  0  0  0  0  0  0
  150.6501  138.2946  153.2998 H   0  0  0  0  0  0  0  0  0  0  0  0
  150.2443  137.7990  154.9502 H   0  0  0  0  0  0  0  0  0  0  0  0
  150.4981  141.3369  155.1113 H   0  0  0  0  0  0  0  0  0  0  0  0
  146.5438  142.3358  154.4735 H   0  0  0  0  0  0  0  0  0  0  0  0
  145.9693  140.0074  153.6652 H   0  0  0  0  0  0  0  0  0  0  0  0
  148.5013  137.5521  152.8525 H   0  0  0  0  0  0  0  0  0  0  0  0
  147.7798  135.7497  152.6797 H   0  0  0  0  0  0  0  0  0  0  0  0
  145.8392  134.5381  154.3360 H   0  0  0  0  0  0  0  0  0  0  0  0
  143.9024  134.3988  152.9477 H   0  0  0  0  0  0  0  0  0  0  0  0
  144.2619  136.0896  153.1711 H   0  0  0  0  0  0  0  0  0  0  0  0
  143.6719  135.5601  150.7951 H   0  0  0  0  0  0  0  0  0  0  0  0
  145.2858  136.2141  150.9166 H   0  0  0  0  0  0  0  0  0  0  0  0
  144.5457  133.2627  150.6269 H   0  0  0  0  0  0  0  0  0  0  0  0
  145.3073  134.2607  149.4127 H   0  0  0  0  0  0  0  0  0  0  0  0
  146.9634  132.8058  150.5717 H   0  0  0  0  0  0  0  0  0  0  0  0
  147.3391  134.4946  150.7956 H   0  0  0  0  0  0  0  0  0  0  0  0
  145.8773  132.7054  152.7761 H   0  0  0  0  0  0  0  0  0  0  0  0
  148.7044  133.8326  152.8887 H   0  0  0  0  0  0  0  0  0  0  0  0
  147.9356  132.9851  154.2137 H   0  0  0  0  0  0  0  0  0  0  0  0
  148.4408  131.9833  151.6175 H   0  0  0  0  0  0  0  0  0  0  0  0
  148.7163  142.8047  155.1179 H   0  0  0  0  0  0  0  0  0  0  0  0
  1  2  1  0  0  0  0
  1 20  1  0  0  0  0
  1 21  1  0  0  0  0
  1 22  1  0  0  0  0
  2  7  1  0  0  0  0
  2  3  2  0  0  0  0
  3  4  1  0  0  0  0
  3 23  1  0  0  0  0
  4  5  2  0  0  0  0
  4 41  1  0  0  0  0
  5  6  1  0  0  0  0
  5 24  1  0  0  0  0
  6  7  2  0  0  0  0
  6 25  1  0  0  0  0
  7  8  1  0  0  0  0
  8  9  1  0  0  0  0
  8 26  1  0  0  0  0
  9 10  2  0  0  0  0
  9 11  1  0  0  0  0
 11 12  1  0  0  0  0
 11 27  1  0  0  0  0
 12 17  1  0  0  0  0
 12 13  1  0  0  0  0
 12 28  1  0  0  0  0
 13 14  1  0  0  0  0
 13 29  1  0  0  0  0
 13 30  1  0  0  0  0
 14 15  1  0  0  0  0
 14 31  1  0  0  0  0
 14 32  1  0  0  0  0
 15 16  1  0  0  0  0
 15 33  1  0  0  0  0
 15 34  1  0  0  0  0
 16 17  1  0  0  0  0
 16 35  1  0  0  0  0
 16 36  1  0  0  0  0
 17 18  1  0  0  0  0
 17 37  1  0  0  0  0
 18 19  1  0  0  0  0
 18 38  1  0  0  0  0
 18 39  1  0  0  0  0
 19 40  1  0  0  0  0
M  CHG  1   4   1
M  END
> <s_m_source_file>
AV-unprocessed.smi

> <i_m_source_file_index>
2453

> <i_lp_mmshare_version>
43012

> <i_f3d_flags>
0

> <s_epik_input>
W0NIM11jMVtjSF1uW2NIXVtjSF1jMVtOSF1DKD1PKVtOSF1bQ0BASF0yW0NIMl1bQ0gyXVtDSDJdW0NIMl1bQ0BIXTJbQ0gyXVtPSF0=

> <s_epik_cmdline>
J2VwaWtfcHl0aG9uJywgJy1waCcsICc3LjAnLCAnLXRuJywgJzgnLCAnLW1hJywgJzIwMCcsICctbWV0YWxfYmluZGluZycsICctaW1hZScsICc8aW5maWxlLm1hZT4nLCAnLW9tYWUnLCAnPG91dGZpbGUubWFlPic=

> <r_epik_Ionization_Penalty>
0.71493

> <r_epik_Ionization_Penalty_Charging>
0.714909

> <r_epik_Ionization_Penalty_Neutral>
2.10174e-05

> <r_epik_State_Penalty>
0.738815

> <r_epik_Charging_Adjusted_Penalty>
1.45372

> <i_epik_Tot_Q>
1

> <i_epik_Tot_abs_Q>
1

> <r_epik_Metal_State_Penalty>
0.896004

> <b_epik_Metal_Only>
0

> <s_lp_Force_Field>
OPLS_2005

> <r_lp_Energy>
23.1527

> <b_lp_Chiralities_Consistent>
1

> <s_lp_Variant>
AV-unprocessed.smi:2453-6

> <Gold.Version>
5.8.1

> <Gold.Id.Protein>
6NUR|6NUR_protein|mol2

> <Gold.PLP.Fitness>
45.8409

> <Gold.PLP.PLP>
-32.1566

> <Gold.PLP.part.hbond>
-3.9393

> <Gold.PLP.part.metal>
0.0000

> <Gold.PLP.part.buried>
-2.4898

> <Gold.PLP.part.nonpolar>
-26.0829

> <Gold.PLP.part.repulsive>
0.3217

> <Gold.PLP.ligand.clash>
0.0000

> <Gold.PLP.ligand.torsion>
0.3282

> <Gold.PLP.Chemscore.Hbond>
4.7737

> <Gold.PLP.Chemscore.CHOScore>
0.0000

> <Gold.PLP.Chemscore.Metal>
0.0000

> <Gold.Chemscore.Hbonds>
donor molecule, donor type, donor heavy atom, donor atom, acceptor molecule, acceptor atom, score
      L1  H     4    41       P1  8028  2.00
      L1  H     8    26       P1  7948  0.94
      L1  H    11    27       P1  7948  0.91
      L1  H    19    40       P1 10747  0.64

> <Gold.PLP.Chemscore.Internal.Correction>
0.0196

> <Gold.Rescore>
     Score         DG    S(hbond)    S(metal)    S(lipo)     H(rot)  DE(clash)    DE(int)     intcor
     19.66     -21.69       3.55        0.00      76.16       1.77       0.93       1.10       ----

> <Gold.Chemscore.Fitness>
19.6595

> <Gold.Chemscore.DG>
-21.6891

> <Gold.Chemscore.ZeroCoef>
-5.4800

> <Gold.Chemscore.Hbond>
3.5450

> <Gold.Chemscore.Metal>
0.0000

> <Gold.Chemscore.Lipo>
76.1594

> <Gold.Chemscore.Internal_Hbond>
0.0000

> <Gold.Chemscore.DEClash>
0.9343

> <Gold.Chemscore.DEInternal>
1.0953

> <Gold.Chemscore.Rot>
1.7742

> <Gold.Chemscore.Internal.Correction>
   9.000000E+99

> <Gold.Chemscore.Hbonds>
donor molecule, donor type, donor heavy atom, donor atom, acceptor molecule, acceptor atom, score
      L1  H     4    41       P1  8028  0.97
      L1  H     8    26       P1  7948  0.91
      L1  H    11    27       P1  7948  0.86
      L1  H    19    40       P1 10747  0.64

> <Gold.Chemscore.Hbond.Weighted>
-11.8404

> <Gold.Chemscore.Metal.Weighted>
-0.0000

> <Gold.Chemscore.Lipo.Weighted>
-8.9106

> <Gold.Chemscore.Internal_Hbond.Weighted>
0.0000

> <Gold.Chemscore.DEClash.Weighted>
0.9343

> <Gold.Chemscore.DEInternal.Weighted>
1.0953

> <Gold.Chemscore.Rot.Weighted>
4.5419

> <Gold.Chemscore.Internal.Correction.Weighted>
   9.000000E+99

> <Gold.Protein.RotatedTorsions>
[ 6907 6896 6895 6894 ] final  -23.53 input  -60.11 | X-H torsion
[ 7974 7965 7964 7962 ] final  -77.93 input  175.53 | X-H torsion
[ 8008 7997 7996 7995 ] final -177.31 input   59.86 | X-H torsion
[ 10167 10162 10161 10158 ] final  140.06 input  -65.29 | X-H torsion
[ 10718 10713 10712 10709 ] final   11.04 input   66.30 | X-H torsion
[ 10763 10752 10751 10750 ] final   -5.02 input  -60.55 | X-H torsion
[ 11005 11000 10999 10996 ] final   13.64 input  -57.11 | X-H torsion

> <Gold.Protein.ActiveResidues>
 VAL166  LYS551  ARG553  GLY616  TRP617  ASP618  TYR619  PRO620  LYS621  CYS622 
 ASP623  PHE694  ASN695  SER759  ASP760  ASP761  ALA762  ILE779  LEU786  VAL792 
 PHE793  MET794  SER795  GLU796  ALA797  LYS798  CYS799  TRP800  GLU811  SER814 

> <Gold.Protein.RotatedAtoms>
  151.2027  135.0449  159.8878 H   0  0  0  0  0  0  0  0  0  0  0  0  # atno 6907 bound_to 6896
  152.5431  134.0832  159.8255 H   0  0  0  0  0  0  0  0  0  0  0  0  # atno 6908 bound_to 6896
  151.0975  133.5221  159.2643 H   0  0  0  0  0  0  0  0  0  0  0  0  # atno 6909 bound_to 6896
  145.5932  140.9425  143.1281 H   0  0  0  0  0  0  0  0  0  0  0  0  # atno 7974 bound_to 7965
  156.0054  140.1229  157.0506 H   0  0  0  0  0  0  0  0  0  0  0  0  # atno 8008 bound_to 7997
  154.4257  140.1098  156.5824 H   0  0  0  0  0  0  0  0  0  0  0  0  # atno 8009 bound_to 7997
  155.6154  140.3472  155.4637 H   0  0  0  0  0  0  0  0  0  0  0  0  # atno 8010 bound_to 7997
  139.5060  144.6257  151.5942 H   0  0  0  0  0  0  0  0  0  0  0  0  # atno 10167 bound_to 10162
  156.9898  130.6038  149.5685 H   0  0  0  0  0  0  0  0  0  0  0  0  # atno 10718 bound_to 10713
  153.3928  135.7002  153.6482 H   0  0  0  0  0  0  0  0  0  0  0  0  # atno 10763 bound_to 10752
  153.5047  135.3644  155.2558 H   0  0  0  0  0  0  0  0  0  0  0  0  # atno 10764 bound_to 10752
  154.8704  135.4120  154.3249 H   0  0  0  0  0  0  0  0  0  0  0  0  # atno 10765 bound_to 10752
  140.4784  134.0960  155.7746 H   0  0  0  0  0  0  0  0  0  0  0  0  # atno 11005 bound_to 11000
  144.7342  139.7635  143.7335 LP  0  0  0  0  0  0  0  0  0  0  0  0  # atno 17320 bound_to 7965
  146.1631  139.4753  142.9975 LP  0  0  0  0  0  0  0  0  0  0  0  0  # atno 17321 bound_to 7965
  140.5973  143.9672  150.6363 LP  0  0  0  0  0  0  0  0  0  0  0  0  # atno 17342 bound_to 10162
  140.2872  143.3348  152.1096 LP  0  0  0  0  0  0  0  0  0  0  0  0  # atno 17343 bound_to 10162
  156.0211  130.5306  150.8279 LP  0  0  0  0  0  0  0  0  0  0  0  0  # atno 17370 bound_to 10713
  157.5467  131.0942  150.9753 LP  0  0  0  0  0  0  0  0  0  0  0  0  # atno 17371 bound_to 10713
  141.1543  133.8912  157.2018 LP  0  0  0  0  0  0  0  0  0  0  0  0  # atno 17394 bound_to 11000
  139.9841  135.0088  156.9821 LP  0  0  0  0  0  0  0  0  0  0  0  0  # atno 17395 bound_to 11000

$$$$
