AV-unprocessed.smi:49|AV-procd|sdf|487|dock6
  -GOLD-   2262016353D 1   1.00000     0.00000
 Structure written by MMmdl.
 26 27  0  0  0  0  0  0  0  0  2 V2000
  152.4579  142.9124  160.3721 C   0  0  0  0  0  0  0  0  0  0  0  0
  153.3465  141.7277  159.9801 C   0  0  0  0  0  0  0  0  0  0  0  0
  152.7039  140.8612  158.9194 C   0  0  0  0  0  0  0  0  0  0  0  0
  151.4636  140.9863  158.4589 N   0  0  0  0  0  0  0  0  0  0  0  0
  151.3257  140.0417  157.5157 C   0  0  0  0  0  0  0  0  0  0  0  0
  150.0812  139.8172  156.6759 C   0  0  2  0  0  0  0  0  0  0  0  0
  150.3722  139.9818  155.1731 C   0  0  0  0  0  0  0  0  0  0  0  0
  149.6580  141.2762  154.7979 C   0  0  1  0  0  0  0  0  0  0  0  0
  149.2658  141.3151  153.4422 O   0  0  0  0  0  0  0  0  0  0  0  0
  148.4683  141.2744  155.7486 C   0  0  0  0  0  0  0  0  0  0  0  0
  149.0048  140.7611  157.0009 N   0  0  0  0  0  0  0  0  0  0  0  0
  152.4684  139.3544  157.3652 N   0  0  0  0  0  0  0  0  0  0  0  0
  153.3078  139.8706  158.2395 N   0  5  0  0  0  0  0  0  0  0  0  0
  149.7380  138.7981  156.8579 H   0  0  0  0  0  0  0  0  0  0  0  0
  150.3015  142.1304  155.0149 H   0  0  0  0  0  0  0  0  0  0  0  0
  152.9383  143.5236  161.1360 H   0  0  0  0  0  0  0  0  0  0  0  0
  151.5017  142.5704  160.7688 H   0  0  0  0  0  0  0  0  0  0  0  0
  152.2551  143.5504  159.5116 H   0  0  0  0  0  0  0  0  0  0  0  0
  154.3058  142.0878  159.6073 H   0  0  0  0  0  0  0  0  0  0  0  0
  153.5589  141.1142  160.8562 H   0  0  0  0  0  0  0  0  0  0  0  0
  151.4359  139.9990  154.9316 H   0  0  0  0  0  0  0  0  0  0  0  0
  149.9274  139.1442  154.6333 H   0  0  0  0  0  0  0  0  0  0  0  0
  149.6121  140.5492  153.0106 H   0  0  0  0  0  0  0  0  0  0  0  0
  148.0226  142.2619  155.8693 H   0  0  0  0  0  0  0  0  0  0  0  0
  147.6957  140.5998  155.3773 H   0  0  0  0  0  0  0  0  0  0  0  0
  148.2678  140.2845  157.5094 H   0  0  0  0  0  0  0  0  0  0  0  0
  1  2  1  0  0  0  0
  1 16  1  0  0  0  0
  1 17  1  0  0  0  0
  1 18  1  0  0  0  0
  2  3  1  0  0  0  0
  2 19  1  0  0  0  0
  2 20  1  0  0  0  0
  3 13  1  0  0  0  0
  3  4  2  0  0  0  0
  4  5  1  0  0  0  0
  5  6  1  0  0  0  0
  5 12  2  0  0  0  0
  6 14  1  0  0  0  0
  6 11  1  0  0  0  0
  6  7  1  0  0  0  0
  7  8  1  0  0  0  0
  7 21  1  0  0  0  0
  7 22  1  0  0  0  0
  8 15  1  0  0  0  0
  8  9  1  0  0  0  0
  8 10  1  0  0  0  0
  9 23  1  0  0  0  0
 10 11  1  0  0  0  0
 10 24  1  0  0  0  0
 10 25  1  0  0  0  0
 11 26  1  0  0  0  0
 12 13  1  0  0  0  0
M  CHG  1  13  -1
M  END
> <s_m_source_file>
AV-unprocessed.smi

> <i_m_source_file_index>
49

> <i_lp_mmshare_version>
43012

> <i_f3d_flags>
0

> <s_epik_input>
W0NIM11bQ0gyXWMxbmMobltuSF0xKVtDQEBIXTJbQ0gyXVtDQEBIXShbT0hdKVtDSDJdW05IXTI=

> <s_epik_cmdline>
J2VwaWtfcHl0aG9uJywgJy1waCcsICc3LjAnLCAnLXRuJywgJzgnLCAnLW1hJywgJzIwMCcsICctbWV0YWxfYmluZGluZycsICctaW1hZScsICc8aW5maWxlLm1hZT4nLCAnLW9tYWUnLCAnPG91dGZpbGUubWFlPic=

> <r_lp_tautomer_probability>
0.948284

> <r_epik_Ionization_Penalty>
20.726

> <r_epik_Ionization_Penalty_Charging>
17.6814

> <r_epik_Ionization_Penalty_Neutral>
3.04463

> <r_epik_State_Penalty>
7.95092

> <r_epik_Charging_Adjusted_Penalty>
25.6323

> <i_epik_Tot_Q>
-1

> <i_epik_Tot_abs_Q>
1

> <r_epik_Metal_State_Penalty>
4.146

> <b_epik_Metal_Only>
1

> <s_lp_Force_Field>
OPLS_2005

> <r_lp_Energy>
17.7922

> <b_lp_Chiralities_Consistent>
1

> <s_lp_Variant>
AV-unprocessed.smi:49-25

> <Gold.Version>
5.8.1

> <Gold.Id.Protein>
6NUR|6NUR_protein|mol2

> <Gold.PLP.Fitness>
34.3316

> <Gold.PLP.PLP>
-23.8019

> <Gold.PLP.part.hbond>
-4.2861

> <Gold.PLP.part.metal>
0.0000

> <Gold.PLP.part.buried>
-2.5377

> <Gold.PLP.part.nonpolar>
-17.1555

> <Gold.PLP.part.repulsive>
0.0000

> <Gold.PLP.ligand.clash>
0.0000

> <Gold.PLP.ligand.torsion>
0.0837

> <Gold.PLP.Chemscore.Hbond>
3.5600

> <Gold.PLP.Chemscore.CHOScore>
0.0000

> <Gold.PLP.Chemscore.Metal>
0.0000

> <Gold.Chemscore.Hbonds>
donor molecule, donor type, donor heavy atom, donor atom, acceptor molecule, acceptor atom, score
      L1  H     9    23       P1  7957  0.61
      P1  H  7997  8008       L1    13  1.80
      P1  H  8011  8017       L1     9  0.83

> <Gold.PLP.Chemscore.Internal.Correction>
0.0170

> <Gold.Rescore>
     Score         DG    S(hbond)    S(metal)    S(lipo)     H(rot)  DE(clash)    DE(int)     intcor
     12.07     -12.20       1.84        0.00      44.91       1.82       0.01       0.12       ----

> <Gold.Chemscore.Fitness>
12.0674

> <Gold.Chemscore.DG>
-12.2018

> <Gold.Chemscore.ZeroCoef>
-5.4800

> <Gold.Chemscore.Hbond>
1.8364

> <Gold.Chemscore.Metal>
0.0000

> <Gold.Chemscore.Lipo>
44.9060

> <Gold.Chemscore.Internal_Hbond>
0.0000

> <Gold.Chemscore.DEClash>
0.0137

> <Gold.Chemscore.DEInternal>
0.1207

> <Gold.Chemscore.Rot>
1.8226

> <Gold.Chemscore.Internal.Correction>
   9.000000E+99

> <Gold.Chemscore.Hbonds>
donor molecule, donor type, donor heavy atom, donor atom, acceptor molecule, acceptor atom, score
      L1  H     9    23       P1  7957  0.62
      P1  H  7997  8008       L1    13  0.17
      P1  H  8011  8017       L1     9  0.14

> <Gold.Chemscore.Hbond.Weighted>
-6.1336

> <Gold.Chemscore.Metal.Weighted>
-0.0000

> <Gold.Chemscore.Lipo.Weighted>
-5.2540

> <Gold.Chemscore.Internal_Hbond.Weighted>
0.0000

> <Gold.Chemscore.DEClash.Weighted>
0.0137

> <Gold.Chemscore.DEInternal.Weighted>
0.1207

> <Gold.Chemscore.Rot.Weighted>
4.6658

> <Gold.Chemscore.Internal.Correction.Weighted>
   9.000000E+99

> <Gold.Protein.RotatedTorsions>
[ 6907 6896 6895 6894 ] final  -83.09 input  -60.11 | X-H torsion
[ 7974 7965 7964 7962 ] final  -90.18 input  175.53 | X-H torsion
[ 8008 7997 7996 7995 ] final  -95.99 input   59.86 | X-H torsion
[ 10167 10162 10161 10158 ] final  128.10 input  -65.29 | X-H torsion
[ 10718 10713 10712 10709 ] final  -22.35 input   66.30 | X-H torsion
[ 10763 10752 10751 10750 ] final   15.54 input  -60.55 | X-H torsion
[ 11005 11000 10999 10996 ] final   95.61 input  -57.11 | X-H torsion

> <Gold.Protein.ActiveResidues>
 VAL166  LYS551  ARG553  GLY616  TRP617  ASP618  TYR619  PRO620  LYS621  CYS622 
 ASP623  PHE694  ASN695  SER759  ASP760  ASP761  ALA762  ILE779  LEU786  VAL792 
 PHE793  MET794  SER795  GLU796  ALA797  LYS798  CYS799  TRP800  GLU811  SER814 

> <Gold.Protein.RotatedAtoms>
  150.6889  134.3564  159.4931 H   0  0  0  0  0  0  0  0  0  0  0  0  # atno 6907 bound_to 6896
  152.1399  134.9068  160.0563 H   0  0  0  0  0  0  0  0  0  0  0  0  # atno 6908 bound_to 6896
  152.0205  133.3862  159.4293 H   0  0  0  0  0  0  0  0  0  0  0  0  # atno 6909 bound_to 6896
  145.4299  140.9555  143.2133 H   0  0  0  0  0  0  0  0  0  0  0  0  # atno 7974 bound_to 7965
  154.7686  140.0475  157.1033 H   0  0  0  0  0  0  0  0  0  0  0  0  # atno 8008 bound_to 7997
  154.9848  140.3106  155.4911 H   0  0  0  0  0  0  0  0  0  0  0  0  # atno 8009 bound_to 7997
  156.2917  140.2229  156.4949 H   0  0  0  0  0  0  0  0  0  0  0  0  # atno 8010 bound_to 7997
  139.5544  144.6838  151.4226 H   0  0  0  0  0  0  0  0  0  0  0  0  # atno 10167 bound_to 10162
  156.5058  130.4598  149.6676 H   0  0  0  0  0  0  0  0  0  0  0  0  # atno 10718 bound_to 10713
  153.1515  135.6779  153.8874 H   0  0  0  0  0  0  0  0  0  0  0  0  # atno 10763 bound_to 10752
  153.8299  135.3119  155.3419 H   0  0  0  0  0  0  0  0  0  0  0  0  # atno 10764 bound_to 10752
  154.7866  135.4858  154.0046 H   0  0  0  0  0  0  0  0  0  0  0  0  # atno 10765 bound_to 10752
  139.8787  134.8908  156.4037 H   0  0  0  0  0  0  0  0  0  0  0  0  # atno 11005 bound_to 11000
  144.8189  139.5826  143.6996 LP  0  0  0  0  0  0  0  0  0  0  0  0  # atno 17320 bound_to 7965
  146.2612  139.6415  142.9360 LP  0  0  0  0  0  0  0  0  0  0  0  0  # atno 17321 bound_to 7965
  140.6814  143.8073  150.7127 LP  0  0  0  0  0  0  0  0  0  0  0  0  # atno 17342 bound_to 10162
  140.1527  143.4343  152.2120 LP  0  0  0  0  0  0  0  0  0  0  0  0  # atno 17343 bound_to 10162
  156.3288  130.7320  151.2246 LP  0  0  0  0  0  0  0  0  0  0  0  0  # atno 17370 bound_to 10713
  157.7457  131.0435  150.4748 LP  0  0  0  0  0  0  0  0  0  0  0  0  # atno 17371 bound_to 10713
  140.9249  133.7619  155.9952 LP  0  0  0  0  0  0  0  0  0  0  0  0  # atno 17394 bound_to 11000
  140.8397  134.3081  157.5318 LP  0  0  0  0  0  0  0  0  0  0  0  0  # atno 17395 bound_to 11000

$$$$
