AV-unprocessed.smi:2217|AV-procd|sdf|8974|dock5
  -GOLD-   2272012183D 1   1.00000     0.00000
 Structure written by MMmdl.
 45 48  0  0  0  0  0  0  0  0  1 V2000
  147.8238  128.5422  153.9350 C   0  0  0  0  0  0  0  0  0  0  0  0
  147.9910  130.0464  153.9836 C   0  0  0  0  0  0  0  0  0  0  0  0
  147.1631  130.8980  153.2279 C   0  0  0  0  0  0  0  0  0  0  0  0
  147.3654  132.2892  153.3099 C   0  0  0  0  0  0  0  0  0  0  0  0
  148.3859  132.7999  154.1437 C   0  0  0  0  0  0  0  0  0  0  0  0
  148.5002  134.2220  154.1353 N   0  0  0  0  0  0  0  0  0  0  0  0
  148.7968  135.0982  155.1191 C   0  0  0  0  0  0  0  0  0  0  0  0
  149.0302  134.7166  156.2647 O   0  0  0  0  0  0  0  0  0  0  0  0
  148.8223  136.3923  154.7684 N   0  0  0  0  0  0  0  0  0  0  0  0
  149.0902  137.5111  155.6764 C   0  0  2  0  0  0  0  0  0  0  0  0
  148.3114  138.7851  155.3353 C   0  0  2  0  0  0  0  0  0  0  0  0
  147.0801  139.1019  154.5654 C   0  0  0  0  0  0  0  0  0  0  0  0
  147.6184  140.3655  153.8437 C   0  0  0  0  0  0  0  0  0  0  0  0
  149.0421  140.4050  154.1176 O   0  0  0  0  0  0  0  0  0  0  0  0
  149.3947  139.0485  154.3099 C   0  0  1  0  0  0  0  0  0  0  0  0
  150.3656  138.3591  155.2983 C   0  0  0  0  0  0  0  0  0  0  0  0
  150.9951  139.2462  156.3917 C   0  0  0  0  0  0  0  0  0  0  0  0
  152.4834  138.9086  156.4859 C   0  0  0  0  0  0  0  0  0  0  0  0
  152.8305  138.3522  155.1132 C   0  0  0  0  0  0  0  0  0  0  0  0
  151.5628  137.6141  154.6925 C   0  0  0  0  0  0  0  0  0  0  0  0
  149.1805  131.9673  154.8642 N   0  0  0  0  0  0  0  0  0  0  0  0
  148.9871  130.6342  154.7862 C   0  0  0  0  0  0  0  0  0  0  0  0
  146.8981  128.2635  153.4305 H   0  0  0  0  0  0  0  0  0  0  0  0
  147.7981  128.1298  154.9441 H   0  0  0  0  0  0  0  0  0  0  0  0
  148.6569  128.0875  153.3986 H   0  0  0  0  0  0  0  0  0  0  0  0
  146.3857  130.4967  152.5943 H   0  0  0  0  0  0  0  0  0  0  0  0
  146.7383  132.9556  152.7352 H   0  0  0  0  0  0  0  0  0  0  0  0
  148.3743  134.6434  153.2266 H   0  0  0  0  0  0  0  0  0  0  0  0
  148.6207  136.6226  153.8054 H   0  0  0  0  0  0  0  0  0  0  0  0
  149.0491  137.2411  156.7329 H   0  0  0  0  0  0  0  0  0  0  0  0
  148.3793  139.4635  156.1919 H   0  0  0  0  0  0  0  0  0  0  0  0
  146.8175  138.3112  153.8614 H   0  0  0  0  0  0  0  0  0  0  0  0
  146.2225  139.3146  155.2040 H   0  0  0  0  0  0  0  0  0  0  0  0
  147.4396  140.3032  152.7694 H   0  0  0  0  0  0  0  0  0  0  0  0
  147.1491  141.2778  154.2129 H   0  0  0  0  0  0  0  0  0  0  0  0
  149.2783  138.4895  153.3754 H   0  0  0  0  0  0  0  0  0  0  0  0
  150.8863  140.2993  156.1286 H   0  0  0  0  0  0  0  0  0  0  0  0
  150.5117  139.1163  157.3605 H   0  0  0  0  0  0  0  0  0  0  0  0
  153.0954  139.7682  156.7609 H   0  0  0  0  0  0  0  0  0  0  0  0
  152.6350  138.1359  157.2409 H   0  0  0  0  0  0  0  0  0  0  0  0
  153.0250  139.1733  154.4219 H   0  0  0  0  0  0  0  0  0  0  0  0
  153.7105  137.7086  155.1269 H   0  0  0  0  0  0  0  0  0  0  0  0
  151.6025  136.5954  155.0804 H   0  0  0  0  0  0  0  0  0  0  0  0
  151.4982  137.5331  153.6068 H   0  0  0  0  0  0  0  0  0  0  0  0
  149.6479  130.0214  155.3815 H   0  0  0  0  0  0  0  0  0  0  0  0
  1  2  1  0  0  0  0
  1 23  1  0  0  0  0
  1 24  1  0  0  0  0
  1 25  1  0  0  0  0
  2 22  1  0  0  0  0
  2  3  2  0  0  0  0
  3  4  1  0  0  0  0
  3 26  1  0  0  0  0
  4  5  2  0  0  0  0
  4 27  1  0  0  0  0
  5  6  1  0  0  0  0
  5 21  1  0  0  0  0
  6  7  1  0  0  0  0
  6 28  1  0  0  0  0
  7  8  2  0  0  0  0
  7  9  1  0  0  0  0
  9 10  1  0  0  0  0
  9 29  1  0  0  0  0
 10 16  1  0  0  0  0
 10 11  1  0  0  0  0
 10 30  1  0  0  0  0
 11 15  1  0  0  0  0
 11 12  1  0  0  0  0
 11 31  1  0  0  0  0
 12 13  1  0  0  0  0
 12 32  1  0  0  0  0
 12 33  1  0  0  0  0
 13 14  1  0  0  0  0
 13 34  1  0  0  0  0
 13 35  1  0  0  0  0
 14 15  1  0  0  0  0
 15 16  1  0  0  0  0
 15 36  1  0  0  0  0
 16 20  1  0  0  0  0
 16 17  1  0  0  0  0
 17 18  1  0  0  0  0
 17 37  1  0  0  0  0
 17 38  1  0  0  0  0
 18 19  1  0  0  0  0
 18 39  1  0  0  0  0
 18 40  1  0  0  0  0
 19 20  1  0  0  0  0
 19 41  1  0  0  0  0
 19 42  1  0  0  0  0
 20 43  1  0  0  0  0
 20 44  1  0  0  0  0
 21 22  2  0  0  0  0
 22 45  1  0  0  0  0
M  END
> <s_m_source_file>
AV-unprocessed.smi

> <i_m_source_file_index>
2217

> <i_lp_mmshare_version>
43012

> <i_f3d_flags>
0

> <s_epik_input>
W0NIM11jMVtjSF1bY0hdYyhuW2NIXTEpW05IXUMoPU8pW05IXVtDQEBIXTJbQ0BASF0oW0NIMl1bQ0gyXU8zKVtDQEhdM0MyNFtDSDJdW0NIMl1bQ0gyXVtDSDJdNA==

> <s_epik_cmdline>
J2VwaWtfcHl0aG9uJywgJy1waCcsICc3LjAnLCAnLXRuJywgJzgnLCAnLW1hJywgJzIwMCcsICctbWV0YWxfYmluZGluZycsICctaW1hZScsICc8aW5maWxlLm1hZT4nLCAnLW9tYWUnLCAnPG91dGZpbGUubWFlPic=

> <r_lp_tautomer_probability>
1

> <r_epik_Ionization_Penalty>
6.14796e-05

> <r_epik_Ionization_Penalty_Charging>
0

> <r_epik_Ionization_Penalty_Neutral>
6.14796e-05

> <r_epik_State_Penalty>
-0

> <r_epik_Charging_Adjusted_Penalty>
0

> <i_epik_Tot_Q>
0

> <i_epik_Tot_abs_Q>
0

> <r_epik_Metal_State_Penalty>
-0

> <b_epik_Metal_Only>
0

> <s_lp_Force_Field>
OPLS_2005

> <r_lp_Energy>
82.2768

> <b_lp_Chiralities_Consistent>
1

> <s_lp_Variant>
AV-unprocessed.smi:2217-7

> <Gold.Version>
5.8.1

> <Gold.Id.Protein>
6NUR|6NUR_protein|mol2

> <Gold.PLP.Fitness>
37.5130

> <Gold.PLP.PLP>
-32.7123

> <Gold.PLP.part.hbond>
-2.0000

> <Gold.PLP.part.metal>
0.0000

> <Gold.PLP.part.buried>
-1.7368

> <Gold.PLP.part.nonpolar>
-29.6283

> <Gold.PLP.part.repulsive>
0.4080

> <Gold.PLP.ligand.clash>
0.0000

> <Gold.PLP.ligand.torsion>
0.4496

> <Gold.PLP.Chemscore.Hbond>
1.8088

> <Gold.PLP.Chemscore.CHOScore>
0.0000

> <Gold.PLP.Chemscore.Metal>
0.0000

> <Gold.Chemscore.Hbonds>
donor molecule, donor type, donor heavy atom, donor atom, acceptor molecule, acceptor atom, score
      L1  H     6    28       P1  7948  0.69
      L1  H     9    29       P1  7948  0.94

> <Gold.PLP.Chemscore.Internal.Correction>
0.2736

> <Gold.Rescore>
     Score         DG    S(hbond)    S(metal)    S(lipo)     H(rot)  DE(clash)    DE(int)     intcor
     16.36     -17.04       1.49        0.00      78.10       1.00       0.24       0.43       ----

> <Gold.Chemscore.Fitness>
16.3642

> <Gold.Chemscore.DG>
-17.0368

> <Gold.Chemscore.ZeroCoef>
-5.4800

> <Gold.Chemscore.Hbond>
1.4908

> <Gold.Chemscore.Metal>
0.0000

> <Gold.Chemscore.Lipo>
78.0973

> <Gold.Chemscore.Internal_Hbond>
0.0000

> <Gold.Chemscore.DEClash>
0.2430

> <Gold.Chemscore.DEInternal>
0.4296

> <Gold.Chemscore.Rot>
1.0000

> <Gold.Chemscore.Internal.Correction>
   9.000000E+99

> <Gold.Chemscore.Hbonds>
donor molecule, donor type, donor heavy atom, donor atom, acceptor molecule, acceptor atom, score
      L1  H     6    28       P1  7948  0.40
      L1  H     9    29       P1  7948  0.87

> <Gold.Chemscore.Hbond.Weighted>
-4.9794

> <Gold.Chemscore.Metal.Weighted>
-0.0000

> <Gold.Chemscore.Lipo.Weighted>
-9.1374

> <Gold.Chemscore.Internal_Hbond.Weighted>
0.0000

> <Gold.Chemscore.DEClash.Weighted>
0.2430

> <Gold.Chemscore.DEInternal.Weighted>
0.4296

> <Gold.Chemscore.Rot.Weighted>
2.5600

> <Gold.Chemscore.Internal.Correction.Weighted>
   9.000000E+99

> <Gold.Protein.RotatedTorsions>
[ 6907 6896 6895 6894 ] final -149.92 input  -60.11 | X-H torsion
[ 7974 7965 7964 7962 ] final -155.71 input  175.53 | X-H torsion
[ 8008 7997 7996 7995 ] final   -6.13 input   59.86 | X-H torsion
[ 10167 10162 10161 10158 ] final  -82.15 input  -65.29 | X-H torsion
[ 10718 10713 10712 10709 ] final   62.67 input   66.30 | X-H torsion
[ 10763 10752 10751 10750 ] final  131.75 input  -60.55 | X-H torsion
[ 11005 11000 10999 10996 ] final -164.04 input  -57.11 | X-H torsion

> <Gold.Protein.ActiveResidues>
 VAL166  LYS551  ARG553  GLY616  TRP617  ASP618  TYR619  PRO620  LYS621  CYS622 
 ASP623  PHE694  ASN695  SER759  ASP760  ASP761  ALA762  ILE779  LEU786  VAL792 
 PHE793  MET794  SER795  GLU796  ALA797  LYS798  CYS799  TRP800  GLU811  SER814 

> <Gold.Protein.RotatedAtoms>
  151.1910  133.4667  159.2594 H   0  0  0  0  0  0  0  0  0  0  0  0  # atno 6907 bound_to 6896
  151.1163  135.0055  159.8528 H   0  0  0  0  0  0  0  0  0  0  0  0  # atno 6908 bound_to 6896
  152.5453  134.1825  159.8694 H   0  0  0  0  0  0  0  0  0  0  0  0  # atno 6909 bound_to 6896
  144.7627  140.4211  143.5965 H   0  0  0  0  0  0  0  0  0  0  0  0  # atno 7974 bound_to 7965
  154.5968  140.2440  155.7845 H   0  0  0  0  0  0  0  0  0  0  0  0  # atno 8008 bound_to 7997
  156.2285  140.2974  156.0080 H   0  0  0  0  0  0  0  0  0  0  0  0  # atno 8009 bound_to 7997
  155.2278  140.0402  157.2948 H   0  0  0  0  0  0  0  0  0  0  0  0  # atno 8010 bound_to 7997
  140.4346  143.2536  151.8711 H   0  0  0  0  0  0  0  0  0  0  0  0  # atno 10167 bound_to 10162
  157.5917  130.9063  149.9618 H   0  0  0  0  0  0  0  0  0  0  0  0  # atno 10718 bound_to 10713
  153.7794  135.3170  155.3363 H   0  0  0  0  0  0  0  0  0  0  0  0  # atno 10763 bound_to 10752
  154.8167  135.4631  154.0666 H   0  0  0  0  0  0  0  0  0  0  0  0  # atno 10764 bound_to 10752
  153.1950  135.6914  153.8389 H   0  0  0  0  0  0  0  0  0  0  0  0  # atno 10765 bound_to 10752
  140.5913  134.5042  157.5193 H   0  0  0  0  0  0  0  0  0  0  0  0  # atno 11005 bound_to 11000
  145.6568  139.1574  143.2831 LP  0  0  0  0  0  0  0  0  0  0  0  0  # atno 17320 bound_to 7965
  146.1705  140.6652  142.9235 LP  0  0  0  0  0  0  0  0  0  0  0  0  # atno 17321 bound_to 7965
  139.4786  144.5297  151.8685 LP  0  0  0  0  0  0  0  0  0  0  0  0  # atno 17342 bound_to 10162
  140.4388  144.2015  150.5890 LP  0  0  0  0  0  0  0  0  0  0  0  0  # atno 17343 bound_to 10162
  156.0973  130.3658  150.0283 LP  0  0  0  0  0  0  0  0  0  0  0  0  # atno 17370 bound_to 10713
  156.8404  130.9424  151.3632 LP  0  0  0  0  0  0  0  0  0  0  0  0  # atno 17371 bound_to 10713
  139.9273  134.8032  156.1032 LP  0  0  0  0  0  0  0  0  0  0  0  0  # atno 17394 bound_to 11000
  141.0933  133.6705  156.2588 LP  0  0  0  0  0  0  0  0  0  0  0  0  # atno 17395 bound_to 11000

$$$$
