AV-unprocessed.smi:90|AV-procd|sdf|831|dock5
  -GOLD-   2262017253D 1   1.00000     0.00000
 Structure written by MMmdl.
 64 67  0  0  0  0  0  0  0  0  2 V2000
  148.6744  134.1540  154.7214 C   0  0  0  0  0  0  0  0  0  0  0  0
  148.2059  132.9917  153.9717 N   0  0  0  0  0  0  0  0  0  0  0  0
  146.8799  133.0033  153.3574 C   0  0  0  0  0  0  0  0  0  0  0  0
  146.8728  132.3927  151.9429 C   0  0  0  0  0  0  0  0  0  0  0  0
  146.6947  133.4425  150.8124 C   0  0  2  0  0  0  0  0  0  0  0  0
  146.0905  134.7812  151.2981 C   0  0  0  0  0  0  0  0  0  0  0  0
  144.6044  134.6429  151.6656 C   0  0  0  0  0  0  0  0  0  0  0  0
  143.8199  134.0562  150.4840 C   0  0  0  0  0  0  0  0  0  0  0  0
  144.4510  132.7451  149.9857 C   0  0  0  0  0  0  0  0  0  0  0  0
  145.8873  132.9401  149.6606 N   0  3  2  0  0  0  0  0  0  0  0  0
  146.4800  131.7882  148.9433 C   0  0  0  0  0  0  0  0  0  0  0  0
  148.7946  131.8066  154.2789 C   0  0  0  0  0  0  0  0  0  0  0  0
  148.3261  130.6954  153.6530 N   0  0  0  0  0  0  0  0  0  0  0  0
  148.8577  129.4976  153.9108 C   0  0  0  0  0  0  0  0  0  0  0  0
  149.8558  129.1900  154.7396 N   0  0  0  0  0  0  0  0  0  0  0  0
  150.3447  130.3000  155.3620 C   0  0  0  0  0  0  0  0  0  0  0  0
  149.8742  131.6353  155.1973 C   0  0  0  0  0  0  0  0  0  0  0  0
  150.6234  132.4934  155.9956 N   0  0  0  0  0  0  0  0  0  0  0  0
  151.4721  131.7120  156.6038 C   0  0  0  0  0  0  0  0  0  0  0  0
  151.3902  130.3802  156.2669 N   0  0  0  0  0  0  0  0  0  0  0  0
  152.2168  129.2983  156.7864 C   0  0  0  0  0  0  0  0  0  0  0  0
  153.7522  129.5619  156.7378 C   0  0  0  0  0  0  0  0  0  0  0  0
  154.1293  130.7745  157.6363 C   0  0  0  0  0  0  0  0  0  0  0  0
  153.7614  130.5757  158.9864 O   0  0  0  0  0  0  0  0  0  0  0  0
  154.5210  128.3041  157.2183 C   0  0  0  0  0  0  0  0  0  0  0  0
  156.0260  128.3510  156.8938 C   0  0  0  0  0  0  0  0  0  0  0  0
  156.2223  128.5583  155.5016 O   0  0  0  0  0  0  0  0  0  0  0  0
  155.6829  129.7930  155.0492 C   0  0  0  0  0  0  0  0  0  0  0  0
  154.1591  129.8035  155.2617 C   0  0  0  0  0  0  0  0  0  0  0  0
  149.1087  133.8669  155.6801 H   0  0  0  0  0  0  0  0  0  0  0  0
  147.8557  134.8419  154.9310 H   0  0  0  0  0  0  0  0  0  0  0  0
  149.4323  134.6886  154.1485 H   0  0  0  0  0  0  0  0  0  0  0  0
  146.1991  132.4281  153.9823 H   0  0  0  0  0  0  0  0  0  0  0  0
  146.5089  134.0285  153.3314 H   0  0  0  0  0  0  0  0  0  0  0  0
  147.8149  131.8673  151.7997 H   0  0  0  0  0  0  0  0  0  0  0  0
  146.0963  131.6305  151.8878 H   0  0  0  0  0  0  0  0  0  0  0  0
  147.6884  133.6644  150.4201 H   0  0  0  0  0  0  0  0  0  0  0  0
  146.6496  135.1909  152.1381 H   0  0  0  0  0  0  0  0  0  0  0  0
  146.1852  135.5197  150.5008 H   0  0  0  0  0  0  0  0  0  0  0  0
  144.4895  134.0059  152.5430 H   0  0  0  0  0  0  0  0  0  0  0  0
  144.1947  135.6161  151.9379 H   0  0  0  0  0  0  0  0  0  0  0  0
  142.7819  133.8859  150.7720 H   0  0  0  0  0  0  0  0  0  0  0  0
  143.7985  134.7806  149.6688 H   0  0  0  0  0  0  0  0  0  0  0  0
  144.3363  131.9564  150.7299 H   0  0  0  0  0  0  0  0  0  0  0  0
  143.9205  132.4095  149.0937 H   0  0  0  0  0  0  0  0  0  0  0  0
  146.3868  130.8643  149.5141 H   0  0  0  0  0  0  0  0  0  0  0  0
  147.5354  131.9614  148.7312 H   0  0  0  0  0  0  0  0  0  0  0  0
  145.9722  131.6396  147.9899 H   0  0  0  0  0  0  0  0  0  0  0  0
  148.4223  128.6668  153.3751 H   0  0  0  0  0  0  0  0  0  0  0  0
  152.1949  132.0911  157.3116 H   0  0  0  0  0  0  0  0  0  0  0  0
  151.9025  129.1140  157.8147 H   0  0  0  0  0  0  0  0  0  0  0  0
  151.9697  128.3876  156.2398 H   0  0  0  0  0  0  0  0  0  0  0  0
  155.2011  130.9694  157.5953 H   0  0  0  0  0  0  0  0  0  0  0  0
  153.6468  131.6906  157.3002 H   0  0  0  0  0  0  0  0  0  0  0  0
  153.0122  130.0005  159.0126 H   0  0  0  0  0  0  0  0  0  0  0  0
  154.3926  128.1604  158.2915 H   0  0  0  0  0  0  0  0  0  0  0  0
  154.1006  127.4187  156.7398 H   0  0  0  0  0  0  0  0  0  0  0  0
  156.5375  129.1256  157.4655 H   0  0  0  0  0  0  0  0  0  0  0  0
  156.4918  127.4054  157.1713 H   0  0  0  0  0  0  0  0  0  0  0  0
  156.1661  130.6283  155.5570 H   0  0  0  0  0  0  0  0  0  0  0  0
  155.9087  129.9011  153.9883 H   0  0  0  0  0  0  0  0  0  0  0  0
  153.7295  129.0207  154.6350 H   0  0  0  0  0  0  0  0  0  0  0  0
  153.7400  130.7394  154.8910 H   0  0  0  0  0  0  0  0  0  0  0  0
  145.9036  133.6950  148.9895 H   0  0  0  0  0  0  0  0  0  0  0  0
  1  2  1  0  0  0  0
  1 30  1  0  0  0  0
  1 31  1  0  0  0  0
  1 32  1  0  0  0  0
  2  3  1  0  0  0  0
  2 12  1  0  0  0  0
  3  4  1  0  0  0  0
  3 33  1  0  0  0  0
  3 34  1  0  0  0  0
  4  5  1  0  0  0  0
  4 35  1  0  0  0  0
  4 36  1  0  0  0  0
  5 10  1  0  0  0  0
  5  6  1  0  0  0  0
  5 37  1  0  0  0  0
  6  7  1  0  0  0  0
  6 38  1  0  0  0  0
  6 39  1  0  0  0  0
  7  8  1  0  0  0  0
  7 40  1  0  0  0  0
  7 41  1  0  0  0  0
  8  9  1  0  0  0  0
  8 42  1  0  0  0  0
  8 43  1  0  0  0  0
  9 10  1  0  0  0  0
  9 44  1  0  0  0  0
  9 45  1  0  0  0  0
 10 11  1  0  0  0  0
 10 64  1  0  0  0  0
 11 46  1  0  0  0  0
 11 47  1  0  0  0  0
 11 48  1  0  0  0  0
 12 17  1  0  0  0  0
 12 13  2  0  0  0  0
 13 14  1  0  0  0  0
 14 15  2  0  0  0  0
 14 49  1  0  0  0  0
 15 16  1  0  0  0  0
 16 20  1  0  0  0  0
 16 17  2  0  0  0  0
 17 18  1  0  0  0  0
 18 19  2  0  0  0  0
 19 20  1  0  0  0  0
 19 50  1  0  0  0  0
 20 21  1  0  0  0  0
 21 22  1  0  0  0  0
 21 51  1  0  0  0  0
 21 52  1  0  0  0  0
 22 29  1  0  0  0  0
 22 23  1  0  0  0  0
 22 25  1  0  0  0  0
 23 24  1  0  0  0  0
 23 53  1  0  0  0  0
 23 54  1  0  0  0  0
 24 55  1  0  0  0  0
 25 26  1  0  0  0  0
 25 56  1  0  0  0  0
 25 57  1  0  0  0  0
 26 27  1  0  0  0  0
 26 58  1  0  0  0  0
 26 59  1  0  0  0  0
 27 28  1  0  0  0  0
 28 29  1  0  0  0  0
 28 60  1  0  0  0  0
 28 61  1  0  0  0  0
 29 62  1  0  0  0  0
 29 63  1  0  0  0  0
M  CHG  1  10   1
M  END
> <s_m_source_file>
AV-unprocessed.smi

> <i_m_source_file_index>
90

> <i_lp_mmshare_version>
43012

> <i_f3d_flags>
0

> <s_epik_input>
W0NIM11OMVtDSDJdW0NIMl1bQ0gyXVtDSDJdW0NASF0xW0NIMl1bQ0gyXU4oW0NIM10pYyhuW2NIXW4yKWMoYzIzKW5bY0hdbjNbQ0gyXUM0KFtDSDJdW09IXSlbQ0gyXVtDSDJdT1tDSDJdW0NIMl00

> <s_epik_cmdline>
J2VwaWtfcHl0aG9uJywgJy1waCcsICc3LjAnLCAnLXRuJywgJzgnLCAnLW1hJywgJzIwMCcsICctbWV0YWxfYmluZGluZycsICctaW1hZScsICc8aW5maWxlLm1hZT4nLCAnLW9tYWUnLCAnPG91dGZpbGUubWFlPic=

> <r_lp_tautomer_probability>
1

> <r_epik_Ionization_Penalty>
0.00234895

> <r_epik_Ionization_Penalty_Charging>
0.00106647

> <r_epik_Ionization_Penalty_Neutral>
0.00128248

> <r_epik_State_Penalty>
-0

> <r_epik_Charging_Adjusted_Penalty>
0.00106647

> <i_epik_Tot_Q>
1

> <i_epik_Tot_abs_Q>
1

> <r_epik_Metal_State_Penalty>
-0

> <b_epik_Metal_Only>
0

> <s_lp_Force_Field>
OPLS_2005

> <r_lp_Energy>
45.3808

> <b_lp_Chiralities_Consistent>
1

> <s_lp_Variant>
AV-unprocessed.smi:90-3

> <Gold.Version>
5.8.1

> <Gold.Id.Protein>
6NUR|6NUR_protein|mol2

> <Gold.PLP.Fitness>
44.7540

> <Gold.PLP.PLP>
-43.5680

> <Gold.PLP.part.hbond>
-1.0000

> <Gold.PLP.part.metal>
0.0000

> <Gold.PLP.part.buried>
-2.8096

> <Gold.PLP.part.nonpolar>
-39.8861

> <Gold.PLP.part.repulsive>
0.3419

> <Gold.PLP.ligand.clash>
0.0000

> <Gold.PLP.ligand.torsion>
1.2019

> <Gold.PLP.Chemscore.Hbond>
1.0000

> <Gold.PLP.Chemscore.CHOScore>
0.0000

> <Gold.PLP.Chemscore.Metal>
0.0000

> <Gold.Chemscore.Hbonds>
donor molecule, donor type, donor heavy atom, donor atom, acceptor molecule, acceptor atom, score
      L1  H    10    64       P1  7921  0.70

> <Gold.PLP.Chemscore.Internal.Correction>
0.5897

> <Gold.Rescore>
     Score         DG    S(hbond)    S(metal)    S(lipo)     H(rot)  DE(clash)    DE(int)     intcor
      6.52     -12.15       0.64        0.00      98.64       2.73       1.90       3.72       ----

> <Gold.Chemscore.Fitness>
6.5225

> <Gold.Chemscore.DG>
-12.1466

> <Gold.Chemscore.ZeroCoef>
-5.4800

> <Gold.Chemscore.Hbond>
0.6367

> <Gold.Chemscore.Metal>
0.0000

> <Gold.Chemscore.Lipo>
98.6417

> <Gold.Chemscore.Internal_Hbond>
0.0000

> <Gold.Chemscore.DEClash>
1.8995

> <Gold.Chemscore.DEInternal>
3.7246

> <Gold.Chemscore.Rot>
2.7347

> <Gold.Chemscore.Internal.Correction>
   9.000000E+99

> <Gold.Chemscore.Hbonds>
donor molecule, donor type, donor heavy atom, donor atom, acceptor molecule, acceptor atom, score
      L1  H    10    64       P1  7921  0.07

> <Gold.Chemscore.Hbond.Weighted>
-2.1264

> <Gold.Chemscore.Metal.Weighted>
-0.0000

> <Gold.Chemscore.Lipo.Weighted>
-11.5411

> <Gold.Chemscore.Internal_Hbond.Weighted>
0.0000

> <Gold.Chemscore.DEClash.Weighted>
1.8995

> <Gold.Chemscore.DEInternal.Weighted>
3.7246

> <Gold.Chemscore.Rot.Weighted>
7.0009

> <Gold.Chemscore.Internal.Correction.Weighted>
   9.000000E+99

> <Gold.Protein.RotatedTorsions>
[ 6907 6896 6895 6894 ] final   42.80 input  -60.11 | X-H torsion
[ 7974 7965 7964 7962 ] final   50.82 input  175.53 | X-H torsion
[ 8008 7997 7996 7995 ] final  141.77 input   59.86 | X-H torsion
[ 10167 10162 10161 10158 ] final  157.95 input  -65.29 | X-H torsion
[ 10718 10713 10712 10709 ] final -149.82 input   66.30 | X-H torsion
[ 10763 10752 10751 10750 ] final  120.19 input  -60.55 | X-H torsion
[ 11005 11000 10999 10996 ] final -147.42 input  -57.11 | X-H torsion

> <Gold.Protein.ActiveResidues>
 VAL166  LYS551  ARG553  GLY616  TRP617  ASP618  TYR619  PRO620  LYS621  CYS622 
 ASP623  PHE694  ASN695  SER759  ASP760  ASP761  ALA762  ILE779  LEU786  VAL792 
 PHE793  MET794  SER795  GLU796  ALA797  LYS798  CYS799  TRP800  GLU811  SER814 

> <Gold.Protein.RotatedAtoms>
  152.2123  134.8490  160.0495 H   0  0  0  0  0  0  0  0  0  0  0  0  # atno 6907 bound_to 6896
  151.9303  133.3604  159.3936 H   0  0  0  0  0  0  0  0  0  0  0  0  # atno 6908 bound_to 6896
  150.6979  134.4469  159.5362 H   0  0  0  0  0  0  0  0  0  0  0  0  # atno 6909 bound_to 6896
  145.9975  139.4403  143.0035 H   0  0  0  0  0  0  0  0  0  0  0  0  # atno 7974 bound_to 7965
  156.2960  140.2306  156.4619 H   0  0  0  0  0  0  0  0  0  0  0  0  # atno 8008 bound_to 7997
  154.8011  140.0448  157.1294 H   0  0  0  0  0  0  0  0  0  0  0  0  # atno 8009 bound_to 7997
  154.9533  140.3045  155.5068 H   0  0  0  0  0  0  0  0  0  0  0  0  # atno 8010 bound_to 7997
  139.4825  144.4870  151.8363 H   0  0  0  0  0  0  0  0  0  0  0  0  # atno 10167 bound_to 10162
  156.4381  130.8108  151.2337 H   0  0  0  0  0  0  0  0  0  0  0  0  # atno 10718 bound_to 10713
  153.5946  135.3459  155.2923 H   0  0  0  0  0  0  0  0  0  0  0  0  # atno 10763 bound_to 10752
  154.8647  135.4213  154.2479 H   0  0  0  0  0  0  0  0  0  0  0  0  # atno 10764 bound_to 10752
  153.3294  135.7043  153.7032 H   0  0  0  0  0  0  0  0  0  0  0  0  # atno 10765 bound_to 10752
  140.7719  134.3179  157.5072 H   0  0  0  0  0  0  0  0  0  0  0  0  # atno 11005 bound_to 11000
  145.7538  140.9962  143.1236 LP  0  0  0  0  0  0  0  0  0  0  0  0  # atno 17320 bound_to 7965
  144.6908  139.9247  143.7469 LP  0  0  0  0  0  0  0  0  0  0  0  0  # atno 17321 bound_to 7965
  140.4351  144.2063  150.5889 LP  0  0  0  0  0  0  0  0  0  0  0  0  # atno 17342 bound_to 10162
  140.4740  143.2402  151.9049 LP  0  0  0  0  0  0  0  0  0  0  0  0  # atno 17343 bound_to 10162
  157.7507  131.0177  150.3596 LP  0  0  0  0  0  0  0  0  0  0  0  0  # atno 17370 bound_to 10713
  156.3947  130.3904  149.7003 LP  0  0  0  0  0  0  0  0  0  0  0  0  # atno 17371 bound_to 10713
  139.8754  134.9266  156.3403 LP  0  0  0  0  0  0  0  0  0  0  0  0  # atno 17394 bound_to 11000
  140.9566  133.7416  156.0343 LP  0  0  0  0  0  0  0  0  0  0  0  0  # atno 17395 bound_to 11000

$$$$
