AV-unprocessed.smi:3204|AV-procd|sdf|12250|dock1
  -GOLD-   2272018 83D 1   1.00000     0.00000
 Structure written by MMmdl.
 30 31  0  0  0  0  0  0  0  0  1 V2000
  153.9876  141.7004  160.6707 C   0  0  0  0  0  0  0  0  0  0  0  0
  153.0693  142.6119  159.8488 C   0  0  0  0  0  0  0  0  0  0  0  0
  152.1660  141.8296  158.9135 C   0  0  0  0  0  0  0  0  0  0  0  0
  152.3374  140.4889  158.8835 N   0  0  0  0  0  0  0  0  0  0  0  0
  151.5410  139.7993  158.0631 C   0  0  0  0  0  0  0  0  0  0  0  0
  150.5887  140.2962  157.2694 N   0  0  0  0  0  0  0  0  0  0  0  0
  150.4006  141.6375  157.2916 C   0  0  0  0  0  0  0  0  0  0  0  0
  149.4151  142.2127  156.4767 N   0  0  0  0  0  0  0  0  0  0  0  0
  148.6687  141.4210  155.5051 C   0  0  2  0  0  0  0  0  0  0  0  0
  147.8151  140.3564  156.1963 C   0  0  0  0  0  0  0  0  0  0  0  0
  147.7053  139.3328  155.2243 O   0  0  0  0  0  0  0  0  0  0  0  0
  148.9895  139.1785  154.6406 C   0  0  0  0  0  0  0  0  0  0  0  0
  149.5655  140.5987  154.5735 C   0  0  1  0  0  0  0  0  0  0  0  0
  149.4727  141.0788  153.2478 O   0  0  0  0  0  0  0  0  0  0  0  0
  151.1858  142.4670  158.1212 C   0  0  0  0  0  0  0  0  0  0  0  0
  151.0047  143.8099  158.1564 F   0  0  0  0  0  0  0  0  0  0  0  0
  154.6234  142.2868  161.3343 H   0  0  0  0  0  0  0  0  0  0  0  0
  154.6369  141.1084  160.0250 H   0  0  0  0  0  0  0  0  0  0  0  0
  153.4081  141.0121  161.2866 H   0  0  0  0  0  0  0  0  0  0  0  0
  152.4622  143.2242  160.5162 H   0  0  0  0  0  0  0  0  0  0  0  0
  153.6709  143.3075  159.2620 H   0  0  0  0  0  0  0  0  0  0  0  0
  151.6809  138.7288  158.0387 H   0  0  0  0  0  0  0  0  0  0  0  0
  149.1621  143.1808  156.6129 H   0  0  0  0  0  0  0  0  0  0  0  0
  148.0067  142.0664  154.9252 H   0  0  0  0  0  0  0  0  0  0  0  0
  148.3142  139.9511  157.0787 H   0  0  0  0  0  0  0  0  0  0  0  0
  146.8377  140.7328  156.4992 H   0  0  0  0  0  0  0  0  0  0  0  0
  149.5977  138.5575  155.3000 H   0  0  0  0  0  0  0  0  0  0  0  0
  148.9334  138.6799  153.6722 H   0  0  0  0  0  0  0  0  0  0  0  0
  150.6118  140.6006  154.8827 H   0  0  0  0  0  0  0  0  0  0  0  0
  149.5224  140.3396  152.6608 H   0  0  0  0  0  0  0  0  0  0  0  0
  1  2  1  0  0  0  0
  1 17  1  0  0  0  0
  1 18  1  0  0  0  0
  1 19  1  0  0  0  0
  2  3  1  0  0  0  0
  2 20  1  0  0  0  0
  2 21  1  0  0  0  0
  3 15  1  0  0  0  0
  3  4  2  0  0  0  0
  4  5  1  0  0  0  0
  5  6  2  0  0  0  0
  5 22  1  0  0  0  0
  6  7  1  0  0  0  0
  7  8  1  0  0  0  0
  7 15  2  0  0  0  0
  8  9  1  0  0  0  0
  8 23  1  0  0  0  0
  9 13  1  0  0  0  0
  9 10  1  0  0  0  0
  9 24  1  0  0  0  0
 10 11  1  0  0  0  0
 10 25  1  0  0  0  0
 10 26  1  0  0  0  0
 11 12  1  0  0  0  0
 12 13  1  0  0  0  0
 12 27  1  0  0  0  0
 12 28  1  0  0  0  0
 13 14  1  0  0  0  0
 13 29  1  0  0  0  0
 14 30  1  0  0  0  0
 15 16  1  0  0  0  0
M  END
> <s_m_source_file>
AV-unprocessed.smi

> <i_m_source_file_index>
3204

> <i_lp_mmshare_version>
43012

> <i_f3d_flags>
0

> <s_epik_input>
W0NIM11bQ0gyXWMxbltjSF1uYyhjMUYpW05IXVtDQEBIXTJbQ0gyXU9bQ0gyXVtDQEhdMltPSF0=

> <s_epik_cmdline>
J2VwaWtfcHl0aG9uJywgJy1waCcsICc3LjAnLCAnLXRuJywgJzgnLCAnLW1hJywgJzIwMCcsICctbWV0YWxfYmluZGluZycsICctaW1hZScsICc8aW5maWxlLm1hZT4nLCAnLW9tYWUnLCAnPG91dGZpbGUubWFlPic=

> <r_lp_tautomer_probability>
1

> <r_epik_Ionization_Penalty>
0.000484964

> <r_epik_Ionization_Penalty_Charging>
0

> <r_epik_Ionization_Penalty_Neutral>
0.000484964

> <r_epik_State_Penalty>
-0

> <r_epik_Charging_Adjusted_Penalty>
0

> <i_epik_Tot_Q>
0

> <i_epik_Tot_abs_Q>
0

> <r_epik_Metal_State_Penalty>
-0

> <b_epik_Metal_Only>
0

> <s_lp_Force_Field>
OPLS_2005

> <r_lp_Energy>
13.6654

> <b_lp_Chiralities_Consistent>
1

> <s_lp_Variant>
AV-unprocessed.smi:3204-1

> <Gold.Version>
5.8.1

> <Gold.Id.Protein>
6NUR|6NUR_protein|mol2

> <Gold.PLP.Fitness>
36.8643

> <Gold.PLP.PLP>
-29.1000

> <Gold.PLP.part.hbond>
-3.3204

> <Gold.PLP.part.metal>
0.0000

> <Gold.PLP.part.buried>
-3.2361

> <Gold.PLP.part.nonpolar>
-22.2080

> <Gold.PLP.part.repulsive>
0.0789

> <Gold.PLP.ligand.clash>
0.0000

> <Gold.PLP.ligand.torsion>
0.0625

> <Gold.PLP.Chemscore.Hbond>
2.6250

> <Gold.PLP.Chemscore.CHOScore>
0.0000

> <Gold.PLP.Chemscore.Metal>
0.0000

> <Gold.Chemscore.Hbonds>
donor molecule, donor type, donor heavy atom, donor atom, acceptor molecule, acceptor atom, score
      L1  H     8    23       P1  8028  0.83
      L1  H    14    30       P1  7957  0.78
      P1  H  8011  8017       L1    14  1.00

> <Gold.PLP.Chemscore.Internal.Correction>
0.0142

> <Gold.Rescore>
     Score         DG    S(hbond)    S(metal)    S(lipo)     H(rot)  DE(clash)    DE(int)     intcor
     13.58     -15.13       2.30        0.00      56.97       1.83       0.00       1.55       ----

> <Gold.Chemscore.Fitness>
13.5774

> <Gold.Chemscore.DG>
-15.1296

> <Gold.Chemscore.ZeroCoef>
-5.4800

> <Gold.Chemscore.Hbond>
2.2990

> <Gold.Chemscore.Metal>
0.0000

> <Gold.Chemscore.Lipo>
56.9666

> <Gold.Chemscore.Internal_Hbond>
0.0000

> <Gold.Chemscore.DEClash>
0.0000

> <Gold.Chemscore.DEInternal>
1.5522

> <Gold.Chemscore.Rot>
1.8337

> <Gold.Chemscore.Internal.Correction>
   9.000000E+99

> <Gold.Chemscore.Hbonds>
donor molecule, donor type, donor heavy atom, donor atom, acceptor molecule, acceptor atom, score
      L1  H     8    23       P1  8028  0.80
      L1  H    14    30       P1  7957  0.73
      P1  H  8011  8017       L1    14  0.55

> <Gold.Chemscore.Hbond.Weighted>
-7.6787

> <Gold.Chemscore.Metal.Weighted>
-0.0000

> <Gold.Chemscore.Lipo.Weighted>
-6.6651

> <Gold.Chemscore.Internal_Hbond.Weighted>
0.0000

> <Gold.Chemscore.DEClash.Weighted>
0.0000

> <Gold.Chemscore.DEInternal.Weighted>
1.5522

> <Gold.Chemscore.Rot.Weighted>
4.6942

> <Gold.Chemscore.Internal.Correction.Weighted>
   9.000000E+99

> <Gold.Protein.RotatedTorsions>
[ 6907 6896 6895 6894 ] final  -77.63 input  -60.11 | X-H torsion
[ 7974 7965 7964 7962 ] final -124.40 input  175.53 | X-H torsion
[ 8008 7997 7996 7995 ] final -120.07 input   59.86 | X-H torsion
[ 10167 10162 10161 10158 ] final -169.81 input  -65.29 | X-H torsion
[ 10718 10713 10712 10709 ] final   26.40 input   66.30 | X-H torsion
[ 10763 10752 10751 10750 ] final   81.02 input  -60.55 | X-H torsion
[ 11005 11000 10999 10996 ] final -123.05 input  -57.11 | X-H torsion

> <Gold.Protein.ActiveResidues>
 VAL166  LYS551  ARG553  GLY616  TRP617  ASP618  TYR619  PRO620  LYS621  CYS622 
 ASP623  PHE694  ASN695  SER759  ASP760  ASP761  ALA762  ILE779  LEU786  VAL792 
 PHE793  MET794  SER795  GLU796  ALA797  LYS798  CYS799  TRP800  GLU811  SER814 

> <Gold.Protein.RotatedAtoms>
  150.6994  134.4394  159.5284 H   0  0  0  0  0  0  0  0  0  0  0  0  # atno 6907 bound_to 6896
  152.2106  134.8502  160.0507 H   0  0  0  0  0  0  0  0  0  0  0  0  # atno 6908 bound_to 6896
  151.9388  133.3597  159.3994 H   0  0  0  0  0  0  0  0  0  0  0  0  # atno 6909 bound_to 6896
  145.0084  140.7884  143.4453 H   0  0  0  0  0  0  0  0  0  0  0  0  # atno 7974 bound_to 7965
  155.1259  140.0399  157.2762 H   0  0  0  0  0  0  0  0  0  0  0  0  # atno 8008 bound_to 7997
  154.6579  140.2584  155.7115 H   0  0  0  0  0  0  0  0  0  0  0  0  # atno 8009 bound_to 7997
  156.2606  140.2823  156.1039 H   0  0  0  0  0  0  0  0  0  0  0  0  # atno 8010 bound_to 7997
  139.5900  144.1235  152.1622 H   0  0  0  0  0  0  0  0  0  0  0  0  # atno 10167 bound_to 10162
  157.2063  130.6913  149.6209 H   0  0  0  0  0  0  0  0  0  0  0  0  # atno 10718 bound_to 10713
  153.1081  135.4781  154.8988 H   0  0  0  0  0  0  0  0  0  0  0  0  # atno 10763 bound_to 10752
  154.7452  135.3092  154.8660 H   0  0  0  0  0  0  0  0  0  0  0  0  # atno 10764 bound_to 10752
  153.9256  135.6850  153.4800 H   0  0  0  0  0  0  0  0  0  0  0  0  # atno 10765 bound_to 10752
  140.9948  134.0487  157.3610 H   0  0  0  0  0  0  0  0  0  0  0  0  # atno 11005 bound_to 11000
  145.2056  139.2230  143.5170 LP  0  0  0  0  0  0  0  0  0  0  0  0  # atno 17320 bound_to 7965
  146.3465  140.1883  142.8589 LP  0  0  0  0  0  0  0  0  0  0  0  0  # atno 17321 bound_to 7965
  140.0807  144.5703  150.7124 LP  0  0  0  0  0  0  0  0  0  0  0  0  # atno 17342 bound_to 10162
  140.7164  143.2549  151.4419 LP  0  0  0  0  0  0  0  0  0  0  0  0  # atno 17343 bound_to 10162
  155.9695  130.4566  150.5931 LP  0  0  0  0  0  0  0  0  0  0  0  0  # atno 17370 bound_to 10713
  157.3717  131.0766  151.1552 LP  0  0  0  0  0  0  0  0  0  0  0  0  # atno 17371 bound_to 10713
  139.9009  135.0164  156.7266 LP  0  0  0  0  0  0  0  0  0  0  0  0  # atno 17394 bound_to 11000
  140.6982  133.9329  155.8008 LP  0  0  0  0  0  0  0  0  0  0  0  0  # atno 17395 bound_to 11000

$$$$
