AV-unprocessed.smi:1695|AV-procd|sdf|6798|dock2
  -GOLD-   22720 7563D 1   1.00000     0.00000
 Structure written by MMmdl.
 50 52  0  0  0  0  0  0  0  0  1 V2000
  153.5757  143.0090  163.6433 C   0  0  0  0  0  0  0  0  0  0  0  0
  153.0986  142.8252  162.2135 C   0  0  0  0  0  0  0  0  0  0  0  0
  152.2558  143.8035  161.6393 C   0  0  0  0  0  0  0  0  0  0  0  0
  151.7887  143.6694  160.3135 C   0  0  0  0  0  0  0  0  0  0  0  0
  150.9684  144.4932  159.5617 N   0  0  0  0  0  0  0  0  0  0  0  0
  150.9017  143.8275  158.4121 C   0  0  0  0  0  0  0  0  0  0  0  0
  151.5836  142.6687  158.3305 N   0  0  0  0  0  0  0  0  0  0  0  0
  151.6637  141.7756  157.1886 C   0  0  0  0  0  0  0  0  0  0  0  0
  150.2948  141.5504  156.5193 C   0  0  1  0  0  0  0  0  0  0  0  0
  150.0166  142.6369  155.6575 O   0  0  0  0  0  0  0  0  0  0  0  0
  150.2807  140.2515  155.6886 C   0  0  0  0  0  0  0  0  0  0  0  0
  149.7881  139.0590  156.3823 N   0  0  0  0  0  0  0  0  0  0  0  0
  148.4657  139.2653  156.9826 C   0  0  0  0  0  0  0  0  0  0  0  0
  147.9272  138.0026  157.6770 C   0  0  0  0  0  0  0  0  0  0  0  0
  148.9093  137.5158  158.7609 C   0  0  0  0  0  0  0  0  0  0  0  0
  148.4283  136.2086  159.4052 C   0  0  0  0  0  0  0  0  0  0  0  0
  147.3166  136.2667  160.1431 N   0  0  0  0  0  0  0  0  0  0  0  0
  149.0485  135.1596  159.2407 O   0  0  0  0  0  0  0  0  0  0  0  0
  150.3063  137.3497  158.1316 C   0  0  0  0  0  0  0  0  0  0  0  0
  150.7345  138.6431  157.4180 C   0  0  0  0  0  0  0  0  0  0  0  0
  152.1912  142.5205  159.5721 C   0  0  0  0  0  0  0  0  0  0  0  0
  153.0290  141.5399  160.1320 C   0  0  0  0  0  0  0  0  0  0  0  0
  153.4865  141.6894  161.4581 C   0  0  0  0  0  0  0  0  0  0  0  0
  154.3915  140.6256  162.0539 C   0  0  0  0  0  0  0  0  0  0  0  0
  153.2353  143.9581  164.0580 H   0  0  0  0  0  0  0  0  0  0  0  0
  154.6647  142.9972  163.6893 H   0  0  0  0  0  0  0  0  0  0  0  0
  153.1929  142.2095  164.2777 H   0  0  0  0  0  0  0  0  0  0  0  0
  151.9592  144.6680  162.2149 H   0  0  0  0  0  0  0  0  0  0  0  0
  150.3226  144.2023  157.5807 H   0  0  0  0  0  0  0  0  0  0  0  0
  152.3783  142.1843  156.4725 H   0  0  0  0  0  0  0  0  0  0  0  0
  152.0755  140.8258  157.5322 H   0  0  0  0  0  0  0  0  0  0  0  0
  149.5339  141.5245  157.2976 H   0  0  0  0  0  0  0  0  0  0  0  0
  149.5939  143.3149  156.1627 H   0  0  0  0  0  0  0  0  0  0  0  0
  149.6729  140.4310  154.8003 H   0  0  0  0  0  0  0  0  0  0  0  0
  151.2876  140.0524  155.3177 H   0  0  0  0  0  0  0  0  0  0  0  0
  148.5094  140.0850  157.7016 H   0  0  0  0  0  0  0  0  0  0  0  0
  147.7441  139.5611  156.2233 H   0  0  0  0  0  0  0  0  0  0  0  0
  146.9526  138.2138  158.1191 H   0  0  0  0  0  0  0  0  0  0  0  0
  147.7666  137.2238  156.9295 H   0  0  0  0  0  0  0  0  0  0  0  0
  148.9725  138.2836  159.5345 H   0  0  0  0  0  0  0  0  0  0  0  0
  146.9616  135.4331  160.5884 H   0  0  0  0  0  0  0  0  0  0  0  0
  146.8350  137.1474  160.2541 H   0  0  0  0  0  0  0  0  0  0  0  0
  151.0377  137.0956  158.8995 H   0  0  0  0  0  0  0  0  0  0  0  0
  150.3083  136.5260  157.4156 H   0  0  0  0  0  0  0  0  0  0  0  0
  151.7178  138.4854  156.9734 H   0  0  0  0  0  0  0  0  0  0  0  0
  150.8536  139.4411  158.1524 H   0  0  0  0  0  0  0  0  0  0  0  0
  153.3159  140.6802  159.5447 H   0  0  0  0  0  0  0  0  0  0  0  0
  154.5557  139.8056  161.3543 H   0  0  0  0  0  0  0  0  0  0  0  0
  153.9496  140.2087  162.9592 H   0  0  0  0  0  0  0  0  0  0  0  0
  155.3636  141.0503  162.3058 H   0  0  0  0  0  0  0  0  0  0  0  0
  1  2  1  0  0  0  0
  1 25  1  0  0  0  0
  1 26  1  0  0  0  0
  1 27  1  0  0  0  0
  2 23  1  0  0  0  0
  2  3  2  0  0  0  0
  3  4  1  0  0  0  0
  3 28  1  0  0  0  0
  4 21  2  0  0  0  0
  4  5  1  0  0  0  0
  5  6  2  0  0  0  0
  6  7  1  0  0  0  0
  6 29  1  0  0  0  0
  7  8  1  0  0  0  0
  7 21  1  0  0  0  0
  8  9  1  0  0  0  0
  8 30  1  0  0  0  0
  8 31  1  0  0  0  0
  9 10  1  0  0  0  0
  9 11  1  0  0  0  0
  9 32  1  0  0  0  0
 10 33  1  0  0  0  0
 11 12  1  0  0  0  0
 11 34  1  0  0  0  0
 11 35  1  0  0  0  0
 12 20  1  0  0  0  0
 12 13  1  0  0  0  0
 13 14  1  0  0  0  0
 13 36  1  0  0  0  0
 13 37  1  0  0  0  0
 14 15  1  0  0  0  0
 14 38  1  0  0  0  0
 14 39  1  0  0  0  0
 15 16  1  0  0  0  0
 15 19  1  0  0  0  0
 15 40  1  0  0  0  0
 16 17  1  0  0  0  0
 16 18  2  0  0  0  0
 17 41  1  0  0  0  0
 17 42  1  0  0  0  0
 19 20  1  0  0  0  0
 19 43  1  0  0  0  0
 19 44  1  0  0  0  0
 20 45  1  0  0  0  0
 20 46  1  0  0  0  0
 21 22  1  0  0  0  0
 22 23  2  0  0  0  0
 22 47  1  0  0  0  0
 23 24  1  0  0  0  0
 24 48  1  0  0  0  0
 24 49  1  0  0  0  0
 24 50  1  0  0  0  0
M  END
> <s_m_source_file>
AV-unprocessed.smi

> <i_m_source_file_index>
1695

> <i_lp_mmshare_version>
43012

> <i_f3d_flags>
0

> <s_epik_input>
W0NIM11jKFtjSF0xKWMoW0NIM10pW2NIXWMoYzEyKW4oW2NIXW4yKVtDSDJdW0NASF0oW09IXSlbQ0gyXU4zW0NIMl1bQ0gyXVtDSF0oQyg9TylbTkgyXSlbQ0gyXVtDSDJdMw==

> <s_epik_cmdline>
J2VwaWtfcHl0aG9uJywgJy1waCcsICc3LjAnLCAnLXRuJywgJzgnLCAnLW1hJywgJzIwMCcsICctbWV0YWxfYmluZGluZycsICctaW1hZScsICc8aW5maWxlLm1hZT4nLCAnLW9tYWUnLCAnPG91dGZpbGUubWFlPic=

> <r_epik_Ionization_Penalty>
1.9508

> <r_epik_Ionization_Penalty_Charging>
0

> <r_epik_Ionization_Penalty_Neutral>
1.9508

> <r_epik_State_Penalty>
2.03746

> <r_epik_Charging_Adjusted_Penalty>
2.03746

> <i_epik_Tot_Q>
0

> <i_epik_Tot_abs_Q>
0

> <r_epik_Metal_State_Penalty>
2.03012

> <b_epik_Metal_Only>
0

> <s_lp_Force_Field>
OPLS_2005

> <r_lp_Energy>
30.7191

> <b_lp_Chiralities_Consistent>
1

> <s_lp_Variant>
AV-unprocessed.smi:1695-10

> <Gold.Version>
5.8.1

> <Gold.Id.Protein>
6NUR|6NUR_protein|mol2

> <Gold.PLP.Fitness>
52.4101

> <Gold.PLP.PLP>
-46.2629

> <Gold.PLP.part.hbond>
-1.5156

> <Gold.PLP.part.metal>
0.0000

> <Gold.PLP.part.buried>
-6.7969

> <Gold.PLP.part.nonpolar>
-37.7046

> <Gold.PLP.part.repulsive>
0.2515

> <Gold.PLP.ligand.clash>
0.0000

> <Gold.PLP.ligand.torsion>
1.0294

> <Gold.PLP.Chemscore.Hbond>
1.6720

> <Gold.PLP.Chemscore.CHOScore>
1.0000

> <Gold.PLP.Chemscore.Metal>
0.0000

> <Gold.Chemscore.Hbonds>
donor molecule, donor type, donor heavy atom, donor atom, acceptor molecule, acceptor atom, score
      L1  H    10    33       P1  8028  0.59
      P1  H  6896  6907       L1    18  1.00
      L1  C     6    29       P1  8028  1.00

> <Gold.PLP.Chemscore.Internal.Correction>
0.1900

> <Gold.Rescore>
     Score         DG    S(hbond)    S(metal)    S(lipo)     H(rot)  DE(clash)    DE(int)     intcor
     16.53     -17.79       1.74        0.00     116.37       2.78       0.30       0.96       ----

> <Gold.Chemscore.Fitness>
16.5273

> <Gold.Chemscore.DG>
-17.7860

> <Gold.Chemscore.ZeroCoef>
-5.4800

> <Gold.Chemscore.Hbond>
1.7424

> <Gold.Chemscore.Metal>
0.0000

> <Gold.Chemscore.Lipo>
116.3741

> <Gold.Chemscore.Internal_Hbond>
0.0000

> <Gold.Chemscore.DEClash>
0.2958

> <Gold.Chemscore.DEInternal>
0.9629

> <Gold.Chemscore.Rot>
2.7849

> <Gold.Chemscore.Internal.Correction>
   9.000000E+99

> <Gold.Chemscore.Hbonds>
donor molecule, donor type, donor heavy atom, donor atom, acceptor molecule, acceptor atom, score
      L1  H    10    33       P1  8028  0.60
      P1  H  6896  6907       L1    18  0.99

> <Gold.Chemscore.Hbond.Weighted>
-5.8196

> <Gold.Chemscore.Metal.Weighted>
-0.0000

> <Gold.Chemscore.Lipo.Weighted>
-13.6158

> <Gold.Chemscore.Internal_Hbond.Weighted>
0.0000

> <Gold.Chemscore.DEClash.Weighted>
0.2958

> <Gold.Chemscore.DEInternal.Weighted>
0.9629

> <Gold.Chemscore.Rot.Weighted>
7.1294

> <Gold.Chemscore.Internal.Correction.Weighted>
   9.000000E+99

> <Gold.Protein.RotatedTorsions>
[ 6907 6896 6895 6894 ] final  -82.03 input  -60.11 | X-H torsion
[ 7974 7965 7964 7962 ] final -156.13 input  175.53 | X-H torsion
[ 8008 7997 7996 7995 ] final  -92.69 input   59.86 | X-H torsion
[ 10167 10162 10161 10158 ] final  -42.81 input  -65.29 | X-H torsion
[ 10718 10713 10712 10709 ] final   25.05 input   66.30 | X-H torsion
[ 10763 10752 10751 10750 ] final   44.67 input  -60.55 | X-H torsion
[ 11005 11000 10999 10996 ] final  -31.47 input  -57.11 | X-H torsion

> <Gold.Protein.ActiveResidues>
 VAL166  LYS551  ARG553  GLY616  TRP617  ASP618  TYR619  PRO620  LYS621  CYS622 
 ASP623  PHE694  ASN695  SER759  ASP760  ASP761  ALA762  ILE779  LEU786  VAL792 
 PHE793  MET794  SER795  GLU796  ALA797  LYS798  CYS799  TRP800  GLU811  SER814 

> <Gold.Protein.RotatedAtoms>
  150.6903  134.3726  159.4998 H   0  0  0  0  0  0  0  0  0  0  0  0  # atno 6907 bound_to 6896
  152.1540  134.8963  160.0555 H   0  0  0  0  0  0  0  0  0  0  0  0  # atno 6908 bound_to 6896
  152.0050  133.3805  159.4234 H   0  0  0  0  0  0  0  0  0  0  0  0  # atno 6909 bound_to 6896
  144.7607  140.4153  143.5978 H   0  0  0  0  0  0  0  0  0  0  0  0  # atno 7974 bound_to 7965
  154.7263  140.0506  157.0685 H   0  0  0  0  0  0  0  0  0  0  0  0  # atno 8008 bound_to 7997
  155.0361  140.3163  155.4722 H   0  0  0  0  0  0  0  0  0  0  0  0  # atno 8009 bound_to 7997
  156.2830  140.2141  156.5483 H   0  0  0  0  0  0  0  0  0  0  0  0  # atno 8010 bound_to 7997
  140.6956  143.3017  151.3262 H   0  0  0  0  0  0  0  0  0  0  0  0  # atno 10167 bound_to 10162
  157.1881  130.6833  149.6139 H   0  0  0  0  0  0  0  0  0  0  0  0  # atno 10718 bound_to 10713
  152.9837  135.6063  154.3311 H   0  0  0  0  0  0  0  0  0  0  0  0  # atno 10763 bound_to 10752
  154.3015  135.2773  155.2611 H   0  0  0  0  0  0  0  0  0  0  0  0  # atno 10764 bound_to 10752
  154.4861  135.5904  153.6481 H   0  0  0  0  0  0  0  0  0  0  0  0  # atno 10765 bound_to 10752
  140.9470  133.7244  156.1162 H   0  0  0  0  0  0  0  0  0  0  0  0  # atno 11005 bound_to 11000
  145.6628  139.1584  143.2798 LP  0  0  0  0  0  0  0  0  0  0  0  0  # atno 17320 bound_to 7965
  146.1667  140.6707  142.9252 LP  0  0  0  0  0  0  0  0  0  0  0  0  # atno 17321 bound_to 7965
  139.6407  144.0544  152.2552 LP  0  0  0  0  0  0  0  0  0  0  0  0  # atno 17342 bound_to 10162
  140.0049  144.6267  150.7698 LP  0  0  0  0  0  0  0  0  0  0  0  0  # atno 17343 bound_to 10162
  155.9715  130.4624  150.6144 LP  0  0  0  0  0  0  0  0  0  0  0  0  # atno 17370 bound_to 10713
  157.3888  131.0792  151.1412 LP  0  0  0  0  0  0  0  0  0  0  0  0  # atno 17371 bound_to 10713
  140.7655  134.3891  157.5518 LP  0  0  0  0  0  0  0  0  0  0  0  0  # atno 17394 bound_to 11000
  139.8836  134.8988  156.2754 LP  0  0  0  0  0  0  0  0  0  0  0  0  # atno 17395 bound_to 11000

$$$$
