AV-unprocessed.smi:2201|AV-procd|sdf|8927|dock2
  -GOLD-   2272012143D 1   1.00000     0.00000
 Structure written by MMmdl.
 31 31  0  0  0  0  0  0  0  0  1 V2000
  150.4153  144.3093  159.0845 C   0  0  0  0  0  0  0  0  0  0  0  0
  151.7828  143.7861  158.5983 C   0  0  0  0  0  0  0  0  0  0  0  0
  152.4098  144.8270  157.6475 C   0  0  0  0  0  0  0  0  0  0  0  0
  152.7124  143.6043  159.8223 C   0  0  0  0  0  0  0  0  0  0  0  0
  151.5597  142.4684  157.8144 C   0  0  0  0  0  0  0  0  0  0  0  0
  152.1480  141.4500  158.1813 O   0  0  0  0  0  0  0  0  0  0  0  0
  150.7229  142.5025  156.7576 N   0  0  0  0  0  0  0  0  0  0  0  0
  150.3548  141.4461  155.8840 C   0  0  0  0  0  0  0  0  0  0  0  0
  151.2015  140.5226  155.4154 N   0  0  0  0  0  0  0  0  0  0  0  0
  150.5702  139.6034  154.5705 C   0  0  0  0  0  0  0  0  0  0  0  0
  151.3622  138.4904  153.9475 C   0  0  0  0  0  0  0  0  0  0  0  0
  151.1500  137.1874  154.7215 C   0  0  0  0  0  0  0  0  0  0  0  0
  150.1564  136.3909  154.3174 N   0  0  0  0  0  0  0  0  0  0  0  0
  151.8707  136.9042  155.6760 O   0  0  0  0  0  0  0  0  0  0  0  0
  149.2257  139.8448  154.4176 C   0  0  0  0  0  0  0  0  0  0  0  0
  148.7044  141.2431  155.3184 S   0  0  0  0  0  0  0  0  0  0  0  0
  150.5240  145.2438  159.6361 H   0  0  0  0  0  0  0  0  0  0  0  0
  149.9288  143.5940  159.7488 H   0  0  0  0  0  0  0  0  0  0  0  0
  149.7345  144.5035  158.2546 H   0  0  0  0  0  0  0  0  0  0  0  0
  151.7694  145.0322  156.7882 H   0  0  0  0  0  0  0  0  0  0  0  0
  153.3739  144.4882  157.2661 H   0  0  0  0  0  0  0  0  0  0  0  0
  152.5771  145.7764  158.1573 H   0  0  0  0  0  0  0  0  0  0  0  0
  152.8495  144.5475  160.3522 H   0  0  0  0  0  0  0  0  0  0  0  0
  153.7043  143.2560  159.5304 H   0  0  0  0  0  0  0  0  0  0  0  0
  152.3035  142.8921  160.5406 H   0  0  0  0  0  0  0  0  0  0  0  0
  150.2996  143.3968  156.5573 H   0  0  0  0  0  0  0  0  0  0  0  0
  151.0674  138.3412  152.9076 H   0  0  0  0  0  0  0  0  0  0  0  0
  152.4251  138.7352  153.9314 H   0  0  0  0  0  0  0  0  0  0  0  0
  149.9766  135.5224  154.7993 H   0  0  0  0  0  0  0  0  0  0  0  0
  149.5857  136.6641  153.5304 H   0  0  0  0  0  0  0  0  0  0  0  0
  148.5129  139.2872  153.8285 H   0  0  0  0  0  0  0  0  0  0  0  0
  1  2  1  0  0  0  0
  1 17  1  0  0  0  0
  1 18  1  0  0  0  0
  1 19  1  0  0  0  0
  2  3  1  0  0  0  0
  2  4  1  0  0  0  0
  2  5  1  0  0  0  0
  3 20  1  0  0  0  0
  3 21  1  0  0  0  0
  3 22  1  0  0  0  0
  4 23  1  0  0  0  0
  4 24  1  0  0  0  0
  4 25  1  0  0  0  0
  5  6  2  0  0  0  0
  5  7  1  0  0  0  0
  7  8  1  0  0  0  0
  7 26  1  0  0  0  0
  8 16  1  0  0  0  0
  8  9  2  0  0  0  0
  9 10  1  0  0  0  0
 10 11  1  0  0  0  0
 10 15  2  0  0  0  0
 11 12  1  0  0  0  0
 11 27  1  0  0  0  0
 11 28  1  0  0  0  0
 12 13  1  0  0  0  0
 12 14  2  0  0  0  0
 13 29  1  0  0  0  0
 13 30  1  0  0  0  0
 15 16  1  0  0  0  0
 15 31  1  0  0  0  0
M  END
> <s_m_source_file>
AV-unprocessed.smi

> <i_m_source_file_index>
2201

> <i_lp_mmshare_version>
43012

> <i_f3d_flags>
0

> <s_epik_input>
W0NIM11DKFtDSDNdKShbQ0gzXSlDKD1PKVtOSF1jMW5jKFtjSF1zMSlbQ0gyXUMoPU8pW05IMl0=

> <s_epik_cmdline>
J2VwaWtfcHl0aG9uJywgJy1waCcsICc3LjAnLCAnLXRuJywgJzgnLCAnLW1hJywgJzIwMCcsICctbWV0YWxfYmluZGluZycsICctaW1hZScsICc8aW5maWxlLm1hZT4nLCAnLW9tYWUnLCAnPG91dGZpbGUubWFlPic=

> <r_lp_tautomer_probability>
1

> <r_epik_Ionization_Penalty>
0.000136028

> <r_epik_Ionization_Penalty_Charging>
0

> <r_epik_Ionization_Penalty_Neutral>
0.000136028

> <r_epik_State_Penalty>
-0

> <r_epik_Charging_Adjusted_Penalty>
0

> <i_epik_Tot_Q>
0

> <i_epik_Tot_abs_Q>
0

> <r_epik_Metal_State_Penalty>
0.0818114

> <b_epik_Metal_Only>
0

> <s_lp_Force_Field>
OPLS_2005

> <r_lp_Energy>
8.92215

> <b_lp_Chiralities_Consistent>
1

> <s_lp_Variant>
AV-unprocessed.smi:2201-1

> <Gold.Version>
5.8.1

> <Gold.Id.Protein>
6NUR|6NUR_protein|mol2

> <Gold.PLP.Fitness>
40.9134

> <Gold.PLP.PLP>
-34.3859

> <Gold.PLP.part.hbond>
-4.7134

> <Gold.PLP.part.metal>
0.0000

> <Gold.PLP.part.buried>
-3.8650

> <Gold.PLP.part.nonpolar>
-25.9919

> <Gold.PLP.part.repulsive>
0.1729

> <Gold.PLP.ligand.clash>
0.0000

> <Gold.PLP.ligand.torsion>
0.9870

> <Gold.PLP.Chemscore.Hbond>
2.8288

> <Gold.PLP.Chemscore.CHOScore>
0.0000

> <Gold.PLP.Chemscore.Metal>
0.0000

> <Gold.Chemscore.Hbonds>
donor molecule, donor type, donor heavy atom, donor atom, acceptor molecule, acceptor atom, score
      L1  H     7    26       P1  8028  0.76
      L1  H    13    30       P1  7948  0.93
      P1  H 10752 10764       L1    14  1.00

> <Gold.PLP.Chemscore.Internal.Correction>
0.0153

> <Gold.Rescore>
     Score         DG    S(hbond)    S(metal)    S(lipo)     H(rot)  DE(clash)    DE(int)     intcor
     15.19     -17.70       2.49        0.00      75.19       1.91       0.81       1.70       ----

> <Gold.Chemscore.Fitness>
15.1907

> <Gold.Chemscore.DG>
-17.7011

> <Gold.Chemscore.ZeroCoef>
-5.4800

> <Gold.Chemscore.Hbond>
2.4884

> <Gold.Chemscore.Metal>
0.0000

> <Gold.Chemscore.Lipo>
75.1914

> <Gold.Chemscore.Internal_Hbond>
0.0000

> <Gold.Chemscore.DEClash>
0.8117

> <Gold.Chemscore.DEInternal>
1.6987

> <Gold.Chemscore.Rot>
1.9092

> <Gold.Chemscore.Internal.Correction>
   9.000000E+99

> <Gold.Chemscore.Hbonds>
donor molecule, donor type, donor heavy atom, donor atom, acceptor molecule, acceptor atom, score
      L1  H     7    26       P1  8028  0.74
      L1  H    13    30       P1  7948  0.63
      P1  H 10752 10764       L1    14  0.38

> <Gold.Chemscore.Hbond.Weighted>
-8.3114

> <Gold.Chemscore.Metal.Weighted>
-0.0000

> <Gold.Chemscore.Lipo.Weighted>
-8.7974

> <Gold.Chemscore.Internal_Hbond.Weighted>
0.0000

> <Gold.Chemscore.DEClash.Weighted>
0.8117

> <Gold.Chemscore.DEInternal.Weighted>
1.6987

> <Gold.Chemscore.Rot.Weighted>
4.8877

> <Gold.Chemscore.Internal.Correction.Weighted>
   9.000000E+99

> <Gold.Protein.RotatedTorsions>
[ 6907 6896 6895 6894 ] final   30.83 input  -60.11 | X-H torsion
[ 7974 7965 7964 7962 ] final   20.71 input  175.53 | X-H torsion
[ 8008 7997 7996 7995 ] final  150.43 input   59.86 | X-H torsion
[ 10167 10162 10161 10158 ] final   19.06 input  -65.29 | X-H torsion
[ 10718 10713 10712 10709 ] final  -75.41 input   66.30 | X-H torsion
[ 10763 10752 10751 10750 ] final  -38.46 input  -60.55 | X-H torsion
[ 11005 11000 10999 10996 ] final  -76.60 input  -57.11 | X-H torsion

> <Gold.Protein.ActiveResidues>
 VAL166  LYS551  ARG553  GLY616  TRP617  ASP618  TYR619  PRO620  LYS621  CYS622 
 ASP623  PHE694  ASN695  SER759  ASP760  ASP761  ALA762  ILE779  LEU786  VAL792 
 PHE793  MET794  SER795  GLU796  ALA797  LYS798  CYS799  TRP800  GLU811  SER814 

> <Gold.Protein.RotatedAtoms>
  152.0516  134.9650  160.0574 H   0  0  0  0  0  0  0  0  0  0  0  0  # atno 6907 bound_to 6896
  152.1049  133.4264  159.4612 H   0  0  0  0  0  0  0  0  0  0  0  0  # atno 6908 bound_to 6896
  150.6841  134.2636  159.4602 H   0  0  0  0  0  0  0  0  0  0  0  0  # atno 6909 bound_to 6896
  146.2101  139.8131  142.8696 H   0  0  0  0  0  0  0  0  0  0  0  0  # atno 7974 bound_to 7965
  156.2716  140.2075  156.6016 H   0  0  0  0  0  0  0  0  0  0  0  0  # atno 8008 bound_to 7997
  154.6902  140.0531  157.0379 H   0  0  0  0  0  0  0  0  0  0  0  0  # atno 8009 bound_to 7997
  155.0877  140.3193  155.4585 H   0  0  0  0  0  0  0  0  0  0  0  0  # atno 8010 bound_to 7997
  140.5607  143.9342  150.6641 H   0  0  0  0  0  0  0  0  0  0  0  0  # atno 10167 bound_to 10162
  156.0208  130.4440  150.3039 H   0  0  0  0  0  0  0  0  0  0  0  0  # atno 10718 bound_to 10713
  153.9133  135.6790  153.4750 H   0  0  0  0  0  0  0  0  0  0  0  0  # atno 10763 bound_to 10752
  153.1067  135.4802  154.8961 H   0  0  0  0  0  0  0  0  0  0  0  0  # atno 10764 bound_to 10752
  154.7516  135.3186  154.8503 H   0  0  0  0  0  0  0  0  0  0  0  0  # atno 10765 bound_to 10752
  141.1655  133.6990  156.7694 H   0  0  0  0  0  0  0  0  0  0  0  0  # atno 11005 bound_to 11000
  145.3175  141.0235  143.3519 LP  0  0  0  0  0  0  0  0  0  0  0  0  # atno 17320 bound_to 7965
  144.8891  139.4799  143.6686 LP  0  0  0  0  0  0  0  0  0  0  0  0  # atno 17321 bound_to 7965
  140.2792  143.3401  152.1167 LP  0  0  0  0  0  0  0  0  0  0  0  0  # atno 17342 bound_to 10162
  139.5069  144.6822  151.5979 LP  0  0  0  0  0  0  0  0  0  0  0  0  # atno 17343 bound_to 10162
  157.1142  131.0229  151.3036 LP  0  0  0  0  0  0  0  0  0  0  0  0  # atno 17370 bound_to 10713
  157.4680  130.7692  149.7297 LP  0  0  0  0  0  0  0  0  0  0  0  0  # atno 17371 bound_to 10713
  140.2475  134.8566  157.3635 LP  0  0  0  0  0  0  0  0  0  0  0  0  # atno 17394 bound_to 11000
  140.1735  134.4579  155.7816 LP  0  0  0  0  0  0  0  0  0  0  0  0  # atno 17395 bound_to 11000

$$$$
