AV-unprocessed.smi:1412|AV-procd|sdf|5744|dock1
  -GOLD-   22720 5383D 1   1.00000     0.00000
 Structure written by MMmdl.
 40 41  0  0  0  0  0  0  0  0  2 V2000
  152.1687  138.9766  155.6723 C   0  0  0  0  0  0  0  0  0  0  0  0
  151.1080  140.0421  156.0041 C   0  0  0  0  0  0  0  0  0  0  0  0
  150.4111  139.8964  157.3944 C   0  0  1  0  0  0  0  0  0  0  0  0
  149.1700  140.8289  157.3604 C   0  0  0  0  0  0  0  0  0  0  0  0
  149.9095  138.4241  157.5540 C   0  0  0  0  0  0  0  0  0  0  0  0
  149.0654  138.2083  158.7303 N   0  0  0  0  0  0  0  0  0  0  0  0
  148.8423  137.0420  159.3536 C   0  0  0  0  0  0  0  0  0  0  0  0
  149.3786  136.0096  158.9452 O   0  0  0  0  0  0  0  0  0  0  0  0
  148.0004  137.1433  160.4070 N   0  5  0  0  0  0  0  0  0  0  0  0
  147.5919  136.0363  161.0487 C   0  0  0  0  0  0  0  0  0  0  0  0
  147.3323  134.8869  160.4052 N   0  0  0  0  0  0  0  0  0  0  0  0
  146.9288  133.8652  161.2543 N   0  0  0  0  0  0  0  0  0  0  0  0
  146.9047  134.2695  162.5240 C   0  0  0  0  0  0  0  0  0  0  0  0
  147.3722  135.9344  162.7980 S   0  0  0  0  0  0  0  0  0  0  0  0
  151.3348  140.2937  158.4951 N   0  0  0  0  0  0  0  0  0  0  0  0
  152.5384  139.4656  158.6347 C   0  0  0  0  0  0  0  0  0  0  0  0
  153.3584  139.8485  159.8787 C   0  0  0  0  0  0  0  0  0  0  0  0
  153.7042  141.2273  159.8222 O   0  0  0  0  0  0  0  0  0  0  0  0
  152.5618  142.0711  159.7372 C   0  0  0  0  0  0  0  0  0  0  0  0
  151.7380  141.7053  158.4913 C   0  0  0  0  0  0  0  0  0  0  0  0
  152.5903  139.1568  154.6834 H   0  0  0  0  0  0  0  0  0  0  0  0
  151.7483  137.9711  155.6669 H   0  0  0  0  0  0  0  0  0  0  0  0
  152.9939  138.9922  156.3836 H   0  0  0  0  0  0  0  0  0  0  0  0
  151.5980  141.0136  155.9341 H   0  0  0  0  0  0  0  0  0  0  0  0
  150.3631  140.0567  155.2085 H   0  0  0  0  0  0  0  0  0  0  0  0
  148.5997  140.7186  156.4374 H   0  0  0  0  0  0  0  0  0  0  0  0
  149.4521  141.8790  157.4395 H   0  0  0  0  0  0  0  0  0  0  0  0
  148.4773  140.6160  158.1748 H   0  0  0  0  0  0  0  0  0  0  0  0
  149.3857  138.0895  156.6585 H   0  0  0  0  0  0  0  0  0  0  0  0
  150.7535  137.7454  157.6688 H   0  0  0  0  0  0  0  0  0  0  0  0
  148.5994  139.0219  159.1042 H   0  0  0  0  0  0  0  0  0  0  0  0
  146.6120  133.5828  163.3041 H   0  0  0  0  0  0  0  0  0  0  0  0
  152.2792  138.4117  158.7198 H   0  0  0  0  0  0  0  0  0  0  0  0
  153.1724  139.5667  157.7541 H   0  0  0  0  0  0  0  0  0  0  0  0
  152.7943  139.6452  160.7904 H   0  0  0  0  0  0  0  0  0  0  0  0
  154.2710  139.2546  159.9280 H   0  0  0  0  0  0  0  0  0  0  0  0
  151.9583  141.9726  160.6409 H   0  0  0  0  0  0  0  0  0  0  0  0
  152.8898  143.1092  159.6824 H   0  0  0  0  0  0  0  0  0  0  0  0
  152.3325  141.9264  157.6049 H   0  0  0  0  0  0  0  0  0  0  0  0
  150.8699  142.3608  158.4603 H   0  0  0  0  0  0  0  0  0  0  0  0
  1  2  1  0  0  0  0
  1 21  1  0  0  0  0
  1 22  1  0  0  0  0
  1 23  1  0  0  0  0
  2  3  1  0  0  0  0
  2 24  1  0  0  0  0
  2 25  1  0  0  0  0
  3  4  1  0  0  0  0
  3  5  1  0  0  0  0
  3 15  1  0  0  0  0
  4 26  1  0  0  0  0
  4 27  1  0  0  0  0
  4 28  1  0  0  0  0
  5  6  1  0  0  0  0
  5 29  1  0  0  0  0
  5 30  1  0  0  0  0
  6  7  1  0  0  0  0
  6 31  1  0  0  0  0
  7  8  2  0  0  0  0
  7  9  1  0  0  0  0
  9 10  1  0  0  0  0
 10 14  1  0  0  0  0
 10 11  2  0  0  0  0
 11 12  1  0  0  0  0
 12 13  2  0  0  0  0
 13 14  1  0  0  0  0
 13 32  1  0  0  0  0
 15 20  1  0  0  0  0
 15 16  1  0  0  0  0
 16 17  1  0  0  0  0
 16 33  1  0  0  0  0
 16 34  1  0  0  0  0
 17 18  1  0  0  0  0
 17 35  1  0  0  0  0
 17 36  1  0  0  0  0
 18 19  1  0  0  0  0
 19 20  1  0  0  0  0
 19 37  1  0  0  0  0
 19 38  1  0  0  0  0
 20 39  1  0  0  0  0
 20 40  1  0  0  0  0
M  CHG  1   9  -1
M  END
> <s_m_source_file>
AV-unprocessed.smi

> <i_m_source_file_index>
1412

> <i_lp_mmshare_version>
43012

> <i_f3d_flags>
0

> <s_epik_input>
W0NIMl0xW0NIMl1PW0NIMl1bQ0gyXU4xW0NAQF0oW0NIM10pKFtDSDJdW0NIM10pW0NIMl1bTkhdQyg9TylbTkhdYzJubltjSF1zMg==

> <s_epik_cmdline>
J2VwaWtfcHl0aG9uJywgJy1waCcsICc3LjAnLCAnLXRuJywgJzgnLCAnLW1hJywgJzIwMCcsICctbWV0YWxfYmluZGluZycsICctaW1hZScsICc8aW5maWxlLm1hZT4nLCAnLW9tYWUnLCAnPG91dGZpbGUubWFlPic=

> <r_lp_tautomer_probability>
1

> <r_epik_Ionization_Penalty>
4.84662

> <r_epik_Ionization_Penalty_Charging>
4.3852

> <r_epik_Ionization_Penalty_Neutral>
0.461421

> <r_epik_State_Penalty>
4.67356

> <r_epik_Charging_Adjusted_Penalty>
9.05877

> <i_epik_Tot_Q>
-1

> <i_epik_Tot_abs_Q>
1

> <r_epik_Metal_State_Penalty>
1.08474

> <b_epik_Metal_Only>
1

> <s_lp_Force_Field>
OPLS_2005

> <r_lp_Energy>
39.8978

> <b_lp_Chiralities_Consistent>
1

> <s_lp_Variant>
AV-unprocessed.smi:1412-5

> <Gold.Version>
5.8.1

> <Gold.Id.Protein>
6NUR|6NUR_protein|mol2

> <Gold.PLP.Fitness>
45.7033

> <Gold.PLP.PLP>
-35.4159

> <Gold.PLP.part.hbond>
-3.0000

> <Gold.PLP.part.metal>
0.0000

> <Gold.PLP.part.buried>
-6.5572

> <Gold.PLP.part.nonpolar>
-28.0463

> <Gold.PLP.part.repulsive>
0.2118

> <Gold.PLP.ligand.clash>
0.0000

> <Gold.PLP.ligand.torsion>
0.6227

> <Gold.PLP.Chemscore.Hbond>
3.7356

> <Gold.PLP.Chemscore.CHOScore>
0.0000

> <Gold.PLP.Chemscore.Metal>
0.0000

> <Gold.Chemscore.Hbonds>
donor molecule, donor type, donor heavy atom, donor atom, acceptor molecule, acceptor atom, score
      P1  H  6896  6908       L1     8  1.00
      P1  H  6931  6943       L1     9  1.15
      P1  H  6934  6947       L1     9  1.25

> <Gold.PLP.Chemscore.Internal.Correction>
0.3259

> <Gold.Rescore>
     Score         DG    S(hbond)    S(metal)    S(lipo)     H(rot)  DE(clash)    DE(int)     intcor
     13.86     -15.95       1.99        0.00      72.50       1.82       0.00       2.08       ----

> <Gold.Chemscore.Fitness>
13.8624

> <Gold.Chemscore.DG>
-15.9465

> <Gold.Chemscore.ZeroCoef>
-5.4800

> <Gold.Chemscore.Hbond>
1.9922

> <Gold.Chemscore.Metal>
0.0000

> <Gold.Chemscore.Lipo>
72.5018

> <Gold.Chemscore.Internal_Hbond>
0.0000

> <Gold.Chemscore.DEClash>
0.0029

> <Gold.Chemscore.DEInternal>
2.0811

> <Gold.Chemscore.Rot>
1.8243

> <Gold.Chemscore.Internal.Correction>
   9.000000E+99

> <Gold.Chemscore.Hbonds>
donor molecule, donor type, donor heavy atom, donor atom, acceptor molecule, acceptor atom, score
      P1  H  6896  6908       L1     8  0.95
      P1  H  6931  6943       L1     9  0.16
      P1  H  6934  6947       L1     9  0.58

> <Gold.Chemscore.Hbond.Weighted>
-6.6540

> <Gold.Chemscore.Metal.Weighted>
-0.0000

> <Gold.Chemscore.Lipo.Weighted>
-8.4827

> <Gold.Chemscore.Internal_Hbond.Weighted>
0.0000

> <Gold.Chemscore.DEClash.Weighted>
0.0029

> <Gold.Chemscore.DEInternal.Weighted>
2.0811

> <Gold.Chemscore.Rot.Weighted>
4.6702

> <Gold.Chemscore.Internal.Correction.Weighted>
   9.000000E+99

> <Gold.Protein.RotatedTorsions>
[ 6907 6896 6895 6894 ] final -166.32 input  -60.11 | X-H torsion
[ 7974 7965 7964 7962 ] final  103.65 input  175.53 | X-H torsion
[ 8008 7997 7996 7995 ] final  -41.09 input   59.86 | X-H torsion
[ 10167 10162 10161 10158 ] final -149.18 input  -65.29 | X-H torsion
[ 10718 10713 10712 10709 ] final  164.78 input   66.30 | X-H torsion
[ 10763 10752 10751 10750 ] final   35.15 input  -60.55 | X-H torsion
[ 11005 11000 10999 10996 ] final  -28.23 input  -57.11 | X-H torsion

> <Gold.Protein.ActiveResidues>
 VAL166  LYS551  ARG553  GLY616  TRP617  ASP618  TYR619  PRO620  LYS621  CYS622 
 ASP623  PHE694  ASN695  SER759  ASP760  ASP761  ALA762  ILE779  LEU786  VAL792 
 PHE793  MET794  SER795  GLU796  ALA797  LYS798  CYS799  TRP800  GLU811  SER814 

> <Gold.Protein.RotatedAtoms>
  151.4417  133.3641  159.2782 H   0  0  0  0  0  0  0  0  0  0  0  0  # atno 6907 bound_to 6896
  150.9153  134.8572  159.7463 H   0  0  0  0  0  0  0  0  0  0  0  0  # atno 6908 bound_to 6896
  152.4954  134.4350  159.9577 H   0  0  0  0  0  0  0  0  0  0  0  0  # atno 6909 bound_to 6896
  145.3431  139.2457  143.3599 H   0  0  0  0  0  0  0  0  0  0  0  0  # atno 7974 bound_to 7965
  154.4006  140.1508  156.3134 H   0  0  0  0  0  0  0  0  0  0  0  0  # atno 8008 bound_to 7997
  155.8595  140.3454  155.5725 H   0  0  0  0  0  0  0  0  0  0  0  0  # atno 8009 bound_to 7997
  155.7896  140.0855  157.2007 H   0  0  0  0  0  0  0  0  0  0  0  0  # atno 8010 bound_to 7997
  139.7466  143.8582  152.2576 H   0  0  0  0  0  0  0  0  0  0  0  0  # atno 10167 bound_to 10162
  157.0895  131.0414  151.2543 H   0  0  0  0  0  0  0  0  0  0  0  0  # atno 10718 bound_to 10713
  153.0132  135.6341  154.1782 H   0  0  0  0  0  0  0  0  0  0  0  0  # atno 10763 bound_to 10752
  154.1522  135.2828  155.3133 H   0  0  0  0  0  0  0  0  0  0  0  0  # atno 10764 bound_to 10752
  154.6044  135.5577  153.7469 H   0  0  0  0  0  0  0  0  0  0  0  0  # atno 10765 bound_to 10752
  140.9190  133.7411  156.0775 H   0  0  0  0  0  0  0  0  0  0  0  0  # atno 11005 bound_to 11000
  146.2999  140.4032  142.8708 LP  0  0  0  0  0  0  0  0  0  0  0  0  # atno 17320 bound_to 7965
  144.8775  140.7356  143.6008 LP  0  0  0  0  0  0  0  0  0  0  0  0  # atno 17321 bound_to 7965
  139.8548  144.7147  150.9170 LP  0  0  0  0  0  0  0  0  0  0  0  0  # atno 17342 bound_to 10162
  140.7793  143.3868  151.1379 LP  0  0  0  0  0  0  0  0  0  0  0  0  # atno 17343 bound_to 10162
  157.4733  130.7722  149.7344 LP  0  0  0  0  0  0  0  0  0  0  0  0  # atno 17370 bound_to 10713
  155.9902  130.3946  150.3040 LP  0  0  0  0  0  0  0  0  0  0  0  0  # atno 17371 bound_to 10713
  140.8013  134.3506  157.5439 LP  0  0  0  0  0  0  0  0  0  0  0  0  # atno 17394 bound_to 11000
  139.8771  134.9199  156.3238 LP  0  0  0  0  0  0  0  0  0  0  0  0  # atno 17395 bound_to 11000

$$$$
