AV-unprocessed.smi:1533|AV-procd|sdf|6164|dock5
  -GOLD-   22720 6313D 1   1.00000     0.00000
 Structure written by MMmdl.
 37 39  0  0  0  0  0  0  0  0  1 V2000
  152.9209  143.1783  162.7040 C   0  0  0  0  0  0  0  0  0  0  0  0
  152.8344  142.4618  161.3996 C   0  0  0  0  0  0  0  0  0  0  0  0
  153.8230  141.6877  160.9682 N   0  0  0  0  0  0  0  0  0  0  0  0
  153.3470  141.2106  159.7384 O   0  0  0  0  0  0  0  0  0  0  0  0
  152.1276  141.7764  159.5698 C   0  0  0  0  0  0  0  0  0  0  0  0
  151.3323  141.4246  158.3577 C   0  0  0  0  0  0  0  0  0  0  0  0
  151.5381  142.4272  157.2111 C   0  0  0  0  0  0  0  0  0  0  0  0
  150.4126  142.4232  156.2837 N   0  0  0  0  0  0  0  0  0  0  0  0
  150.1820  141.4838  155.3537 C   0  0  0  0  0  0  0  0  0  0  0  0
  150.9119  140.5044  155.1959 O   0  0  0  0  0  0  0  0  0  0  0  0
  148.9181  141.6787  154.4971 C   0  0  2  0  0  0  0  0  0  0  0  0
  147.5940  141.7321  155.2987 C   0  0  0  0  0  0  0  0  0  0  0  0
  146.7232  140.6714  154.5991 C   0  0  2  0  0  0  0  0  0  0  0  0
  147.2357  139.2647  154.9610 C   0  0  0  0  0  0  0  0  0  0  0  0
  148.5309  139.1534  154.1362 C   0  0  0  0  0  0  0  0  0  0  0  0
  148.6341  140.5458  153.4749 C   0  0  1  0  0  0  0  0  0  0  0  0
  147.1673  140.8090  153.1471 C   0  0  0  0  0  0  0  0  0  0  0  0
  151.7490  142.5520  160.5829 N   0  0  0  0  0  0  0  0  0  0  0  0
  153.8412  142.9222  163.2304 H   0  0  0  0  0  0  0  0  0  0  0  0
  152.0757  142.9094  163.3380 H   0  0  0  0  0  0  0  0  0  0  0  0
  152.9040  144.2563  162.5428 H   0  0  0  0  0  0  0  0  0  0  0  0
  151.6128  140.4194  158.0404 H   0  0  0  0  0  0  0  0  0  0  0  0
  150.2783  141.3818  158.6353 H   0  0  0  0  0  0  0  0  0  0  0  0
  151.6380  143.4356  157.6141 H   0  0  0  0  0  0  0  0  0  0  0  0
  152.4658  142.2130  156.6772 H   0  0  0  0  0  0  0  0  0  0  0  0
  149.7609  143.1917  156.3527 H   0  0  0  0  0  0  0  0  0  0  0  0
  149.0207  142.6184  153.9507 H   0  0  0  0  0  0  0  0  0  0  0  0
  147.7026  141.5290  156.3650 H   0  0  0  0  0  0  0  0  0  0  0  0
  147.1392  142.7190  155.2054 H   0  0  0  0  0  0  0  0  0  0  0  0
  145.6544  140.8038  154.7695 H   0  0  0  0  0  0  0  0  0  0  0  0
  147.4148  139.1551  156.0313 H   0  0  0  0  0  0  0  0  0  0  0  0
  146.5220  138.4968  154.6599 H   0  0  0  0  0  0  0  0  0  0  0  0
  149.3974  138.8821  154.7379 H   0  0  0  0  0  0  0  0  0  0  0  0
  148.4220  138.3823  153.3724 H   0  0  0  0  0  0  0  0  0  0  0  0
  149.2957  140.5684  152.6085 H   0  0  0  0  0  0  0  0  0  0  0  0
  146.7267  140.0593  152.4872 H   0  0  0  0  0  0  0  0  0  0  0  0
  146.9851  141.8012  152.7300 H   0  0  0  0  0  0  0  0  0  0  0  0
  1  2  1  0  0  0  0
  1 19  1  0  0  0  0
  1 20  1  0  0  0  0
  1 21  1  0  0  0  0
  2 18  1  0  0  0  0
  2  3  2  0  0  0  0
  3  4  1  0  0  0  0
  4  5  1  0  0  0  0
  5  6  1  0  0  0  0
  5 18  2  0  0  0  0
  6  7  1  0  0  0  0
  6 22  1  0  0  0  0
  6 23  1  0  0  0  0
  7  8  1  0  0  0  0
  7 24  1  0  0  0  0
  7 25  1  0  0  0  0
  8  9  1  0  0  0  0
  8 26  1  0  0  0  0
  9 10  2  0  0  0  0
  9 11  1  0  0  0  0
 11 16  1  0  0  0  0
 11 12  1  0  0  0  0
 11 27  1  0  0  0  0
 12 13  1  0  0  0  0
 12 28  1  0  0  0  0
 12 29  1  0  0  0  0
 13 17  1  0  0  0  0
 13 14  1  0  0  0  0
 13 30  1  0  0  0  0
 14 15  1  0  0  0  0
 14 31  1  0  0  0  0
 14 32  1  0  0  0  0
 15 16  1  0  0  0  0
 15 33  1  0  0  0  0
 15 34  1  0  0  0  0
 16 17  1  0  0  0  0
 16 35  1  0  0  0  0
 17 36  1  0  0  0  0
 17 37  1  0  0  0  0
M  END
> <s_m_source_file>
AV-unprocessed.smi

> <i_m_source_file_index>
1533

> <i_lp_mmshare_version>
43012

> <i_f3d_flags>
0

> <s_epik_input>
W0NIM11jMW5vYyhuMSlbQ0gyXVtDSDJdW05IXUMoPU8pW0NASF0oW0NIMl1bQ0BASF0yMylbQ0BASF0oW0NIMl0zKVtDSDJdW0NIMl0y

> <s_epik_cmdline>
J2VwaWtfcHl0aG9uJywgJy1waCcsICc3LjAnLCAnLXRuJywgJzgnLCAnLW1hJywgJzIwMCcsICctbWV0YWxfYmluZGluZycsICctaW1hZScsICc8aW5maWxlLm1hZT4nLCAnLW9tYWUnLCAnPG91dGZpbGUubWFlPic=

> <r_lp_tautomer_probability>
1

> <r_epik_Ionization_Penalty>
1.90116e-08

> <r_epik_Ionization_Penalty_Charging>
0

> <r_epik_Ionization_Penalty_Neutral>
1.90116e-08

> <r_epik_State_Penalty>
-0

> <r_epik_Charging_Adjusted_Penalty>
0

> <i_epik_Tot_Q>
0

> <i_epik_Tot_abs_Q>
0

> <r_epik_Metal_State_Penalty>
-0

> <b_epik_Metal_Only>
0

> <s_lp_Force_Field>
OPLS_2005

> <r_lp_Energy>
42.9891

> <b_lp_Chiralities_Consistent>
1

> <s_lp_Variant>
AV-unprocessed.smi:1533-3

> <Gold.Version>
5.8.1

> <Gold.Id.Protein>
6NUR|6NUR_protein|mol2

> <Gold.PLP.Fitness>
37.7348

> <Gold.PLP.PLP>
-33.0466

> <Gold.PLP.part.hbond>
-2.9502

> <Gold.PLP.part.metal>
0.0000

> <Gold.PLP.part.buried>
-1.3382

> <Gold.PLP.part.nonpolar>
-26.7024

> <Gold.PLP.part.repulsive>
0.1745

> <Gold.PLP.ligand.clash>
0.0000

> <Gold.PLP.ligand.torsion>
0.6064

> <Gold.PLP.Chemscore.Hbond>
1.9600

> <Gold.PLP.Chemscore.CHOScore>
0.0000

> <Gold.PLP.Chemscore.Metal>
0.0000

> <Gold.Chemscore.Hbonds>
donor molecule, donor type, donor heavy atom, donor atom, acceptor molecule, acceptor atom, score
      L1  H     8    26       P1  8028  1.00
      P1  H  7989  7998       L1    10  0.99

> <Gold.PLP.Chemscore.Internal.Correction>
0.0210

> <Gold.Rescore>
     Score         DG    S(hbond)    S(metal)    S(lipo)     H(rot)  DE(clash)    DE(int)     intcor
     10.91     -14.28       1.66        0.00      68.28       1.85       1.51       1.86       ----

> <Gold.Chemscore.Fitness>
10.9139

> <Gold.Chemscore.DG>
-14.2826

> <Gold.Chemscore.ZeroCoef>
-5.4800

> <Gold.Chemscore.Hbond>
1.6607

> <Gold.Chemscore.Metal>
0.0000

> <Gold.Chemscore.Lipo>
68.2828

> <Gold.Chemscore.Internal_Hbond>
0.0000

> <Gold.Chemscore.DEClash>
1.5093

> <Gold.Chemscore.DEInternal>
1.8594

> <Gold.Chemscore.Rot>
1.8490

> <Gold.Chemscore.Internal.Correction>
   9.000000E+99

> <Gold.Chemscore.Hbonds>
donor molecule, donor type, donor heavy atom, donor atom, acceptor molecule, acceptor atom, score
      L1  H     8    26       P1  8028  0.97
      P1  H  7989  7998       L1    10  0.24

> <Gold.Chemscore.Hbond.Weighted>
-5.5469

> <Gold.Chemscore.Metal.Weighted>
-0.0000

> <Gold.Chemscore.Lipo.Weighted>
-7.9891

> <Gold.Chemscore.Internal_Hbond.Weighted>
0.0000

> <Gold.Chemscore.DEClash.Weighted>
1.5093

> <Gold.Chemscore.DEInternal.Weighted>
1.8594

> <Gold.Chemscore.Rot.Weighted>
4.7334

> <Gold.Chemscore.Internal.Correction.Weighted>
   9.000000E+99

> <Gold.Protein.RotatedTorsions>
[ 6907 6896 6895 6894 ] final  169.37 input  -60.11 | X-H torsion
[ 7974 7965 7964 7962 ] final   67.59 input  175.53 | X-H torsion
[ 8008 7997 7996 7995 ] final  -66.71 input   59.86 | X-H torsion
[ 10167 10162 10161 10158 ] final  -87.95 input  -65.29 | X-H torsion
[ 10718 10713 10712 10709 ] final  121.19 input   66.30 | X-H torsion
[ 10763 10752 10751 10750 ] final   27.44 input  -60.55 | X-H torsion
[ 11005 11000 10999 10996 ] final -114.56 input  -57.11 | X-H torsion

> <Gold.Protein.ActiveResidues>
 VAL166  LYS551  ARG553  GLY616  TRP617  ASP618  TYR619  PRO620  LYS621  CYS622 
 ASP623  PHE694  ASN695  SER759  ASP760  ASP761  ALA762  ILE779  LEU786  VAL792 
 PHE793  MET794  SER795  GLU796  ALA797  LYS798  CYS799  TRP800  GLU811  SER814 

> <Gold.Protein.RotatedAtoms>
  151.8330  133.3411  159.3618 H   0  0  0  0  0  0  0  0  0  0  0  0  # atno 6907 bound_to 6896
  150.7258  134.5465  159.5782 H   0  0  0  0  0  0  0  0  0  0  0  0  # atno 6908 bound_to 6896
  152.2922  134.7709  160.0426 H   0  0  0  0  0  0  0  0  0  0  0  0  # atno 6909 bound_to 6896
  145.8128  139.3042  143.1089 H   0  0  0  0  0  0  0  0  0  0  0  0  # atno 7974 bound_to 7965
  154.4752  140.0907  156.7244 H   0  0  0  0  0  0  0  0  0  0  0  0  # atno 8008 bound_to 7997
  155.4615  140.3461  155.4295 H   0  0  0  0  0  0  0  0  0  0  0  0  # atno 8009 bound_to 7997
  156.1105  140.1446  156.9333 H   0  0  0  0  0  0  0  0  0  0  0  0  # atno 8010 bound_to 7997
  140.3795  143.2755  151.9401 H   0  0  0  0  0  0  0  0  0  0  0  0  # atno 10167 bound_to 10162
  157.5836  131.1072  150.8138 H   0  0  0  0  0  0  0  0  0  0  0  0  # atno 10718 bound_to 10713
  153.0556  135.6537  154.0586 H   0  0  0  0  0  0  0  0  0  0  0  0  # atno 10763 bound_to 10752
  154.0265  135.2915  155.3375 H   0  0  0  0  0  0  0  0  0  0  0  0  # atno 10764 bound_to 10752
  154.6869  135.5298  153.8406 H   0  0  0  0  0  0  0  0  0  0  0  0  # atno 10765 bound_to 10752
  141.0544  133.9636  157.2780 H   0  0  0  0  0  0  0  0  0  0  0  0  # atno 11005 bound_to 11000
  145.9759  140.8722  143.0139 LP  0  0  0  0  0  0  0  0  0  0  0  0  # atno 17320 bound_to 7965
  144.6755  140.2011  143.7387 LP  0  0  0  0  0  0  0  0  0  0  0  0  # atno 17321 bound_to 7965
  139.4796  144.5832  151.7898 LP  0  0  0  0  0  0  0  0  0  0  0  0  # atno 17342 bound_to 10162
  140.4952  144.1251  150.5958 LP  0  0  0  0  0  0  0  0  0  0  0  0  # atno 17343 bound_to 10162
  156.8578  130.5103  149.5306 LP  0  0  0  0  0  0  0  0  0  0  0  0  # atno 17370 bound_to 10713
  156.0883  130.5876  150.9688 LP  0  0  0  0  0  0  0  0  0  0  0  0  # atno 17371 bound_to 10713
  139.9377  135.0194  156.8610 LP  0  0  0  0  0  0  0  0  0  0  0  0  # atno 17394 bound_to 11000
  140.5993  134.0187  155.7530 LP  0  0  0  0  0  0  0  0  0  0  0  0  # atno 17395 bound_to 11000

$$$$
