AV-unprocessed.smi:153|AV-procd|sdf|1251|dock5
  -GOLD-   2262018483D 1   1.00000     0.00000
 Structure written by MMmdl.
 60 63  0  0  0  0  0  0  0  0  2 V2000
  151.0888  145.1817  158.4283 C   0  0  0  0  0  0  0  0  0  0  0  0
  151.7034  143.7811  158.2746 C   0  0  1  0  0  0  0  0  0  0  0  0
  152.1305  143.3085  159.5469 O   0  0  0  0  0  0  0  0  0  0  0  0
  152.1551  141.8938  159.5000 C   0  0  0  0  0  0  0  0  0  0  0  0
  150.8629  141.5734  158.7645 C   0  0  0  0  0  0  0  0  0  0  0  0
  150.7841  142.6692  157.6969 C   0  0  1  0  0  0  0  0  0  0  0  0
  149.4343  143.0897  157.5938 O   0  0  0  0  0  0  0  0  0  0  0  0
  151.2723  142.2175  156.2948 C   0  0  0  0  0  0  0  0  0  0  0  0
  150.4638  141.1739  155.6798 N   0  0  0  0  0  0  0  0  0  0  0  0
  150.8430  139.8742  155.4370 C   0  0  0  0  0  0  0  0  0  0  0  0
  149.9352  139.1280  154.8714 N   0  0  0  0  0  0  0  0  0  0  0  0
  148.8514  139.9796  154.6809 C   0  0  0  0  0  0  0  0  0  0  0  0
  147.5414  139.8320  154.1294 C   0  0  0  0  0  0  0  0  0  0  0  0
  147.0381  138.6784  153.6094 N   0  0  0  0  0  0  0  0  0  0  0  0
  146.6850  137.5774  154.4966 C   0  0  0  0  0  0  0  0  0  0  0  0
  146.5321  138.6548  152.2348 C   0  0  0  0  0  0  0  0  0  0  0  0
  146.6872  137.2748  151.5640 C   0  0  2  0  0  0  0  0  0  0  0  0
  146.7669  137.4973  150.1704 O   0  0  0  0  0  0  0  0  0  0  0  0
  145.4966  136.3294  151.8413 C   0  0  0  0  0  0  0  0  0  0  0  0
  145.5715  135.0592  151.0762 N   0  3  0  0  0  0  0  0  0  0  0  0
  146.5912  134.1134  151.5960 C   0  0  0  0  0  0  0  0  0  0  0  0
  146.6264  132.8350  150.7412 C   0  0  0  0  0  0  0  0  0  0  0  0
  145.3348  132.2409  150.7165 O   0  0  0  0  0  0  0  0  0  0  0  0
  144.3649  133.1031  150.1355 C   0  0  0  0  0  0  0  0  0  0  0  0
  144.2530  134.3896  150.9709 C   0  0  0  0  0  0  0  0  0  0  0  0
  146.7389  140.9290  154.1477 N   0  0  0  0  0  0  0  0  0  0  0  0
  147.1747  142.0876  154.6481 C   0  0  0  0  0  0  0  0  0  0  0  0
  148.3614  142.3672  155.1860 N   0  0  0  0  0  0  0  0  0  0  0  0
  149.1735  141.2728  155.1877 C   0  0  0  0  0  0  0  0  0  0  0  0
  150.7454  145.5682  157.4682 H   0  0  0  0  0  0  0  0  0  0  0  0
  151.8228  145.8841  158.8234 H   0  0  0  0  0  0  0  0  0  0  0  0
  150.2409  145.1731  159.1137 H   0  0  0  0  0  0  0  0  0  0  0  0
  152.6007  143.8675  157.6593 H   0  0  0  0  0  0  0  0  0  0  0  0
  153.0255  141.5537  158.9368 H   0  0  0  0  0  0  0  0  0  0  0  0
  152.1933  141.4580  160.4986 H   0  0  0  0  0  0  0  0  0  0  0  0
  150.8440  140.5564  158.3765 H   0  0  0  0  0  0  0  0  0  0  0  0
  150.0353  141.6639  159.4702 H   0  0  0  0  0  0  0  0  0  0  0  0
  149.3022  143.4658  156.7372 H   0  0  0  0  0  0  0  0  0  0  0  0
  151.2954  143.0712  155.6159 H   0  0  0  0  0  0  0  0  0  0  0  0
  152.2989  141.8528  156.3558 H   0  0  0  0  0  0  0  0  0  0  0  0
  151.8181  139.4914  155.7015 H   0  0  0  0  0  0  0  0  0  0  0  0
  147.4566  137.4200  155.2510 H   0  0  0  0  0  0  0  0  0  0  0  0
  146.5828  136.6490  153.9340 H   0  0  0  0  0  0  0  0  0  0  0  0
  145.7361  137.7730  154.9964 H   0  0  0  0  0  0  0  0  0  0  0  0
  145.4976  138.9926  152.1699 H   0  0  0  0  0  0  0  0  0  0  0  0
  147.1058  139.3912  151.6706 H   0  0  0  0  0  0  0  0  0  0  0  0
  147.6287  136.8310  151.8847 H   0  0  0  0  0  0  0  0  0  0  0  0
  146.0863  138.1009  149.9159 H   0  0  0  0  0  0  0  0  0  0  0  0
  145.4307  136.0796  152.8998 H   0  0  0  0  0  0  0  0  0  0  0  0
  144.5718  136.8558  151.5992 H   0  0  0  0  0  0  0  0  0  0  0  0
  147.5789  134.5732  151.5936 H   0  0  0  0  0  0  0  0  0  0  0  0
  146.3617  133.8587  152.6323 H   0  0  0  0  0  0  0  0  0  0  0  0
  146.9596  133.0536  149.7253 H   0  0  0  0  0  0  0  0  0  0  0  0
  147.3351  132.1216  151.1620 H   0  0  0  0  0  0  0  0  0  0  0  0
  144.6336  133.3303  149.1025 H   0  0  0  0  0  0  0  0  0  0  0  0
  143.4044  132.5883  150.1087 H   0  0  0  0  0  0  0  0  0  0  0  0
  143.8801  134.1558  151.9694 H   0  0  0  0  0  0  0  0  0  0  0  0
  143.5312  135.0635  150.5081 H   0  0  0  0  0  0  0  0  0  0  0  0
  146.4716  142.9069  154.6139 H   0  0  0  0  0  0  0  0  0  0  0  0
  145.8403  135.3028  150.1336 H   0  0  0  0  0  0  0  0  0  0  0  0
  1  2  1  0  0  0  0
  1 30  1  0  0  0  0
  1 31  1  0  0  0  0
  1 32  1  0  0  0  0
  2  6  1  0  0  0  0
  2  3  1  0  0  0  0
  2 33  1  0  0  0  0
  3  4  1  0  0  0  0
  4  5  1  0  0  0  0
  4 34  1  0  0  0  0
  4 35  1  0  0  0  0
  5  6  1  0  0  0  0
  5 36  1  0  0  0  0
  5 37  1  0  0  0  0
  6  7  1  0  0  0  0
  6  8  1  0  0  0  0
  7 38  1  0  0  0  0
  8  9  1  0  0  0  0
  8 39  1  0  0  0  0
  8 40  1  0  0  0  0
  9 29  1  0  0  0  0
  9 10  1  0  0  0  0
 10 11  2  0  0  0  0
 10 41  1  0  0  0  0
 11 12  1  0  0  0  0
 12 29  2  0  0  0  0
 12 13  1  0  0  0  0
 13 14  1  0  0  0  0
 13 26  2  0  0  0  0
 14 15  1  0  0  0  0
 14 16  1  0  0  0  0
 15 42  1  0  0  0  0
 15 43  1  0  0  0  0
 15 44  1  0  0  0  0
 16 17  1  0  0  0  0
 16 45  1  0  0  0  0
 16 46  1  0  0  0  0
 17 18  1  0  0  0  0
 17 19  1  0  0  0  0
 17 47  1  0  0  0  0
 18 48  1  0  0  0  0
 19 20  1  0  0  0  0
 19 49  1  0  0  0  0
 19 50  1  0  0  0  0
 20 25  1  0  0  0  0
 20 21  1  0  0  0  0
 20 60  1  0  0  0  0
 21 22  1  0  0  0  0
 21 51  1  0  0  0  0
 21 52  1  0  0  0  0
 22 23  1  0  0  0  0
 22 53  1  0  0  0  0
 22 54  1  0  0  0  0
 23 24  1  0  0  0  0
 24 25  1  0  0  0  0
 24 55  1  0  0  0  0
 24 56  1  0  0  0  0
 25 57  1  0  0  0  0
 25 58  1  0  0  0  0
 26 27  1  0  0  0  0
 27 28  2  0  0  0  0
 27 59  1  0  0  0  0
 28 29  1  0  0  0  0
M  CHG  1  20   1
M  END
> <s_m_source_file>
AV-unprocessed.smi

> <i_m_source_file_index>
153

> <i_lp_mmshare_version>
43012

> <i_f3d_flags>
0

> <s_epik_input>
W0NIMl0xW0NIMl1PW0NAQEhdKFtDSDNdKVtDQEBdMShbT0hdKVtDSDJdbihbY0hdbjIpYyhjMjMpbltjSF1uYzNOKFtDSDNdKVtDSDJdW0NASF0oW09IXSlbQ0gyXU40W0NIMl1bQ0gyXU9bQ0gyXVtDSDJdNA==

> <s_epik_cmdline>
J2VwaWtfcHl0aG9uJywgJy1waCcsICc3LjAnLCAnLXRuJywgJzgnLCAnLW1hJywgJzIwMCcsICctbWV0YWxfYmluZGluZycsICctaW1hZScsICc8aW5maWxlLm1hZT4nLCAnLW9tYWUnLCAnPG91dGZpbGUubWFlPic=

> <r_lp_tautomer_probability>
1

> <r_epik_Ionization_Penalty>
0.403509

> <r_epik_Ionization_Penalty_Charging>
0.40072

> <r_epik_Ionization_Penalty_Neutral>
0.00278876

> <r_epik_State_Penalty>
0.400058

> <r_epik_Charging_Adjusted_Penalty>
0.800778

> <i_epik_Tot_Q>
1

> <i_epik_Tot_abs_Q>
1

> <r_epik_Metal_State_Penalty>
0.400321

> <b_epik_Metal_Only>
0

> <s_lp_Force_Field>
OPLS_2005

> <r_lp_Energy>
45.7554

> <b_lp_Chiralities_Consistent>
1

> <s_lp_Variant>
AV-unprocessed.smi:153-2

> <Gold.Version>
5.8.1

> <Gold.Id.Protein>
6NUR|6NUR_protein|mol2

> <Gold.PLP.Fitness>
50.8777

> <Gold.PLP.PLP>
-46.1286

> <Gold.PLP.part.hbond>
-3.2080

> <Gold.PLP.part.metal>
0.0000

> <Gold.PLP.part.buried>
-4.5539

> <Gold.PLP.part.nonpolar>
-41.8015

> <Gold.PLP.part.repulsive>
4.4694

> <Gold.PLP.ligand.clash>
0.0000

> <Gold.PLP.ligand.torsion>
2.0351

> <Gold.PLP.Chemscore.Hbond>
2.7520

> <Gold.PLP.Chemscore.CHOScore>
0.0000

> <Gold.PLP.Chemscore.Metal>
0.0000

> <Gold.Chemscore.Hbonds>
donor molecule, donor type, donor heavy atom, donor atom, acceptor molecule, acceptor atom, score
      L1  H     7    38       P1  8028  1.00
      L1  H    18    48       P1 10171  0.47
      P1  H  7954  7966       L1    18  0.62

> <Gold.PLP.Chemscore.Internal.Correction>
0.5633

> <Gold.Rescore>
     Score         DG    S(hbond)    S(metal)    S(lipo)     H(rot)  DE(clash)    DE(int)     intcor
      9.68     -17.73       2.61        0.00     109.33       3.62       3.24       4.82       ----

> <Gold.Chemscore.Fitness>
9.6759

> <Gold.Chemscore.DG>
-17.7299

> <Gold.Chemscore.ZeroCoef>
-5.4800

> <Gold.Chemscore.Hbond>
2.6109

> <Gold.Chemscore.Metal>
0.0000

> <Gold.Chemscore.Lipo>
109.3331

> <Gold.Chemscore.Internal_Hbond>
0.0000

> <Gold.Chemscore.DEClash>
3.2377

> <Gold.Chemscore.DEInternal>
4.8163

> <Gold.Chemscore.Rot>
3.6182

> <Gold.Chemscore.Internal.Correction>
   9.000000E+99

> <Gold.Chemscore.Hbonds>
donor molecule, donor type, donor heavy atom, donor atom, acceptor molecule, acceptor atom, score
      L1  H     7    38       P1  8028  0.94
      L1  H    18    48       P1 10171  0.43
      P1  H  7954  7966       L1    18  0.39

> <Gold.Chemscore.Hbond.Weighted>
-8.7204

> <Gold.Chemscore.Metal.Weighted>
-0.0000

> <Gold.Chemscore.Lipo.Weighted>
-12.7920

> <Gold.Chemscore.Internal_Hbond.Weighted>
0.0000

> <Gold.Chemscore.DEClash.Weighted>
3.2377

> <Gold.Chemscore.DEInternal.Weighted>
4.8163

> <Gold.Chemscore.Rot.Weighted>
9.2625

> <Gold.Chemscore.Internal.Correction.Weighted>
   9.000000E+99

> <Gold.Protein.RotatedTorsions>
[ 6907 6896 6895 6894 ] final -149.39 input  -60.11 | X-H torsion
[ 7974 7965 7964 7962 ] final   49.58 input  175.53 | X-H torsion
[ 8008 7997 7996 7995 ] final   38.53 input   59.86 | X-H torsion
[ 10167 10162 10161 10158 ] final  100.36 input  -65.29 | X-H torsion
[ 10718 10713 10712 10709 ] final  -55.15 input   66.30 | X-H torsion
[ 10763 10752 10751 10750 ] final  177.75 input  -60.55 | X-H torsion
[ 11005 11000 10999 10996 ] final -120.52 input  -57.11 | X-H torsion

> <Gold.Protein.ActiveResidues>
 VAL166  LYS551  ARG553  GLY616  TRP617  ASP618  TYR619  PRO620  LYS621  CYS622 
 ASP623  PHE694  ASN695  SER759  ASP760  ASP761  ALA762  ILE779  LEU786  VAL792 
 PHE793  MET794  SER795  GLU796  ALA797  LYS798  CYS799  TRP800  GLU811  SER814 

> <Gold.Protein.RotatedAtoms>
  151.1835  133.4710  159.2594 H   0  0  0  0  0  0  0  0  0  0  0  0  # atno 6907 bound_to 6896
  151.1235  135.0092  159.8559 H   0  0  0  0  0  0  0  0  0  0  0  0  # atno 6908 bound_to 6896
  152.5457  134.1744  159.8663 H   0  0  0  0  0  0  0  0  0  0  0  0  # atno 6909 bound_to 6896
  146.0095  139.4528  142.9965 H   0  0  0  0  0  0  0  0  0  0  0  0  # atno 7974 bound_to 7965
  155.2216  140.3331  155.4315 H   0  0  0  0  0  0  0  0  0  0  0  0  # atno 8008 bound_to 7997
  156.2331  140.1859  156.7239 H   0  0  0  0  0  0  0  0  0  0  0  0  # atno 8009 bound_to 7997
  154.6011  140.0623  156.9355 H   0  0  0  0  0  0  0  0  0  0  0  0  # atno 8010 bound_to 7997
  139.7534  144.6977  151.0398 H   0  0  0  0  0  0  0  0  0  0  0  0  # atno 10167 bound_to 10162
  156.1392  130.4155  150.0132 H   0  0  0  0  0  0  0  0  0  0  0  0  # atno 10718 bound_to 10713
  154.4986  135.2782  155.1439 H   0  0  0  0  0  0  0  0  0  0  0  0  # atno 10763 bound_to 10752
  154.3082  135.6234  153.5458 H   0  0  0  0  0  0  0  0  0  0  0  0  # atno 10764 bound_to 10752
  152.9899  135.5713  154.5423 H   0  0  0  0  0  0  0  0  0  0  0  0  # atno 10765 bound_to 10752
  141.0137  134.0226  157.3378 H   0  0  0  0  0  0  0  0  0  0  0  0  # atno 11005 bound_to 11000
  145.7364  141.0024  143.1324 LP  0  0  0  0  0  0  0  0  0  0  0  0  # atno 17320 bound_to 7965
  144.6948  139.9046  143.7460 LP  0  0  0  0  0  0  0  0  0  0  0  0  # atno 17321 bound_to 7965
  140.7800  143.4781  151.0055 LP  0  0  0  0  0  0  0  0  0  0  0  0  # atno 17342 bound_to 10162
  139.8469  143.7490  152.3179 LP  0  0  0  0  0  0  0  0  0  0  0  0  # atno 17343 bound_to 10162
  156.8022  130.9295  151.3645 LP  0  0  0  0  0  0  0  0  0  0  0  0  # atno 17370 bound_to 10713
  157.6560  130.8925  149.9730 LP  0  0  0  0  0  0  0  0  0  0  0  0  # atno 17371 bound_to 10713
  139.9105  135.0189  156.7670 LP  0  0  0  0  0  0  0  0  0  0  0  0  # atno 17394 bound_to 11000
  140.6690  133.9577  155.7846 LP  0  0  0  0  0  0  0  0  0  0  0  0  # atno 17395 bound_to 11000

$$$$
