AV-unprocessed.smi:2320|AV-procd|sdf|9279|dock1
  -GOLD-   2272012503D 1   1.00000     0.00000
 Structure written by MMmdl.
 41 42  0  0  0  0  0  0  0  0  1 V2000
  151.7085  145.8737  160.1360 C   0  0  0  0  0  0  0  0  0  0  0  0
  151.7867  144.5055  159.4908 C   0  0  0  0  0  0  0  0  0  0  0  0
  152.4426  143.4438  160.1449 C   0  0  0  0  0  0  0  0  0  0  0  0
  152.5130  142.1758  159.5368 C   0  0  0  0  0  0  0  0  0  0  0  0
  151.9332  141.9473  158.2718 C   0  0  0  0  0  0  0  0  0  0  0  0
  152.0505  140.6767  157.7510 O   0  0  0  0  0  0  0  0  0  0  0  0
  151.5799  140.4424  156.4287 C   0  0  0  0  0  0  0  0  0  0  0  0
  151.8523  138.9838  156.0231 C   0  0  2  0  0  0  0  0  0  0  0  0
  153.2533  138.7977  155.9897 O   0  0  0  0  0  0  0  0  0  0  0  0
  151.2229  138.6077  154.6627 C   0  0  0  0  0  0  0  0  0  0  0  0
  149.7597  138.7720  154.6598 N   0  0  0  0  0  0  0  0  0  0  0  0
  149.0040  137.6226  154.9430 C   0  0  0  0  0  0  0  0  0  0  0  0
  147.7116  137.6486  154.9673 N   0  0  0  0  0  0  0  0  0  0  0  0
  147.0331  138.8429  154.7077 C   0  0  0  0  0  0  0  0  0  0  0  0
  145.5179  138.7613  154.7605 C   0  0  0  0  0  0  0  0  0  0  0  0
  147.7065  139.9925  154.4297 C   0  0  0  0  0  0  0  0  0  0  0  0
  147.0215  141.3224  154.1408 C   0  0  0  0  0  0  0  0  0  0  0  0
  149.1782  139.9797  154.4046 C   0  0  0  0  0  0  0  0  0  0  0  0
  149.8517  140.9855  154.1731 O   0  0  0  0  0  0  0  0  0  0  0  0
  151.2750  143.0201  157.6189 C   0  0  0  0  0  0  0  0  0  0  0  0
  151.2046  144.2890  158.2264 C   0  0  0  0  0  0  0  0  0  0  0  0
  151.9802  145.8302  161.1911 H   0  0  0  0  0  0  0  0  0  0  0  0
  150.6962  146.2722  160.0637 H   0  0  0  0  0  0  0  0  0  0  0  0
  152.3869  146.5649  159.6356 H   0  0  0  0  0  0  0  0  0  0  0  0
  152.8943  143.5966  161.1141 H   0  0  0  0  0  0  0  0  0  0  0  0
  153.0182  141.3689  160.0471 H   0  0  0  0  0  0  0  0  0  0  0  0
  150.5160  140.6709  156.3424 H   0  0  0  0  0  0  0  0  0  0  0  0
  152.1159  141.0984  155.7408 H   0  0  0  0  0  0  0  0  0  0  0  0
  151.4595  138.3429  156.8133 H   0  0  0  0  0  0  0  0  0  0  0  0
  153.4964  138.2123  156.6903 H   0  0  0  0  0  0  0  0  0  0  0  0
  151.6407  139.2489  153.8843 H   0  0  0  0  0  0  0  0  0  0  0  0
  151.5245  137.6000  154.3684 H   0  0  0  0  0  0  0  0  0  0  0  0
  149.5807  136.7178  155.1424 H   0  0  0  0  0  0  0  0  0  0  0  0
  145.0875  139.0198  153.7928 H   0  0  0  0  0  0  0  0  0  0  0  0
  145.1240  139.4455  155.5123 H   0  0  0  0  0  0  0  0  0  0  0  0
  145.1830  137.7555  155.0171 H   0  0  0  0  0  0  0  0  0  0  0  0
  147.2987  142.0590  154.8954 H   0  0  0  0  0  0  0  0  0  0  0  0
  145.9352  141.2530  154.1323 H   0  0  0  0  0  0  0  0  0  0  0  0
  147.3314  141.7023  153.1668 H   0  0  0  0  0  0  0  0  0  0  0  0
  150.8160  142.8962  156.6501 H   0  0  0  0  0  0  0  0  0  0  0  0
  150.7012  145.0978  157.7172 H   0  0  0  0  0  0  0  0  0  0  0  0
  1  2  1  0  0  0  0
  1 22  1  0  0  0  0
  1 23  1  0  0  0  0
  1 24  1  0  0  0  0
  2 21  1  0  0  0  0
  2  3  2  0  0  0  0
  3  4  1  0  0  0  0
  3 25  1  0  0  0  0
  4  5  2  0  0  0  0
  4 26  1  0  0  0  0
  5  6  1  0  0  0  0
  5 20  1  0  0  0  0
  6  7  1  0  0  0  0
  7  8  1  0  0  0  0
  7 27  1  0  0  0  0
  7 28  1  0  0  0  0
  8  9  1  0  0  0  0
  8 10  1  0  0  0  0
  8 29  1  0  0  0  0
  9 30  1  0  0  0  0
 10 11  1  0  0  0  0
 10 31  1  0  0  0  0
 10 32  1  0  0  0  0
 11 18  1  0  0  0  0
 11 12  1  0  0  0  0
 12 13  2  0  0  0  0
 12 33  1  0  0  0  0
 13 14  1  0  0  0  0
 14 15  1  0  0  0  0
 14 16  2  0  0  0  0
 15 34  1  0  0  0  0
 15 35  1  0  0  0  0
 15 36  1  0  0  0  0
 16 17  1  0  0  0  0
 16 18  1  0  0  0  0
 17 37  1  0  0  0  0
 17 38  1  0  0  0  0
 17 39  1  0  0  0  0
 18 19  2  0  0  0  0
 20 21  2  0  0  0  0
 20 40  1  0  0  0  0
 21 41  1  0  0  0  0
M  END
> <s_m_source_file>
AV-unprocessed.smi

> <i_m_source_file_index>
2320

> <i_lp_mmshare_version>
43012

> <i_f3d_flags>
0

> <s_epik_input>
W0NIM11jMVtjSF1bY0hdYyhbY0hdW2NIXTEpT1tDSDJdW0NASF0oW09IXSlbQ0gyXW4yW2NIXW5jKFtDSDNdKWMoW0NIM10pYzI9Tw==

> <s_epik_cmdline>
J2VwaWtfcHl0aG9uJywgJy1waCcsICc3LjAnLCAnLXRuJywgJzgnLCAnLW1hJywgJzIwMCcsICctbWV0YWxfYmluZGluZycsICctaW1hZScsICc8aW5maWxlLm1hZT4nLCAnLW9tYWUnLCAnPG91dGZpbGUubWFlPic=

> <r_lp_tautomer_probability>
1

> <r_epik_Ionization_Penalty>
3.74127e-05

> <r_epik_Ionization_Penalty_Charging>
8.43242e-08

> <r_epik_Ionization_Penalty_Neutral>
3.73284e-05

> <r_epik_State_Penalty>
-0

> <r_epik_Charging_Adjusted_Penalty>
8.43242e-08

> <i_epik_Tot_Q>
0

> <i_epik_Tot_abs_Q>
0

> <r_epik_Metal_State_Penalty>
-0

> <b_epik_Metal_Only>
0

> <s_lp_Force_Field>
OPLS_2005

> <r_lp_Energy>
24.611

> <b_lp_Chiralities_Consistent>
1

> <s_lp_Variant>
AV-unprocessed.smi:2320-1

> <Gold.Version>
5.8.1

> <Gold.Id.Protein>
6NUR|6NUR_protein|mol2

> <Gold.PLP.Fitness>
49.2963

> <Gold.PLP.PLP>
-44.2186

> <Gold.PLP.part.hbond>
-2.7864

> <Gold.PLP.part.metal>
0.0000

> <Gold.PLP.part.buried>
-3.0980

> <Gold.PLP.part.nonpolar>
-38.3381

> <Gold.PLP.part.repulsive>
0.3086

> <Gold.PLP.ligand.clash>
0.0000

> <Gold.PLP.ligand.torsion>
0.3921

> <Gold.PLP.Chemscore.Hbond>
1.9208

> <Gold.PLP.Chemscore.CHOScore>
0.0000

> <Gold.PLP.Chemscore.Metal>
0.0000

> <Gold.Chemscore.Hbonds>
donor molecule, donor type, donor heavy atom, donor atom, acceptor molecule, acceptor atom, score
      P1  H  7989  7998       L1    19  0.51
      P1  H  7997  8009       L1     9  1.00
      P1  H  8011  8017       L1    19  0.21

> <Gold.PLP.Chemscore.Internal.Correction>
0.0994

> <Gold.Rescore>
     Score         DG    S(hbond)    S(metal)    S(lipo)     H(rot)  DE(clash)    DE(int)     intcor
     16.46     -18.54       1.68        0.00     114.92       2.35       1.66       0.42       ----

> <Gold.Chemscore.Fitness>
16.4636

> <Gold.Chemscore.DG>
-18.5380

> <Gold.Chemscore.ZeroCoef>
-5.4800

> <Gold.Chemscore.Hbond>
1.6845

> <Gold.Chemscore.Metal>
0.0000

> <Gold.Chemscore.Lipo>
114.9176

> <Gold.Chemscore.Internal_Hbond>
0.0000

> <Gold.Chemscore.DEClash>
1.6557

> <Gold.Chemscore.DEInternal>
0.4187

> <Gold.Chemscore.Rot>
2.3490

> <Gold.Chemscore.Internal.Correction>
   9.000000E+99

> <Gold.Chemscore.Hbonds>
donor molecule, donor type, donor heavy atom, donor atom, acceptor molecule, acceptor atom, score
      P1  H  7989  7998       L1    19  0.52
      P1  H  7997  8009       L1     9  0.42
      P1  H  8011  8017       L1    19  0.21

> <Gold.Chemscore.Hbond.Weighted>
-5.6262

> <Gold.Chemscore.Metal.Weighted>
-0.0000

> <Gold.Chemscore.Lipo.Weighted>
-13.4454

> <Gold.Chemscore.Internal_Hbond.Weighted>
0.0000

> <Gold.Chemscore.DEClash.Weighted>
1.6557

> <Gold.Chemscore.DEInternal.Weighted>
0.4187

> <Gold.Chemscore.Rot.Weighted>
6.0136

> <Gold.Chemscore.Internal.Correction.Weighted>
   9.000000E+99

> <Gold.Protein.RotatedTorsions>
[ 6907 6896 6895 6894 ] final   83.41 input  -60.11 | X-H torsion
[ 7974 7965 7964 7962 ] final  -84.91 input  175.53 | X-H torsion
[ 8008 7997 7996 7995 ] final -151.71 input   59.86 | X-H torsion
[ 10167 10162 10161 10158 ] final  -52.08 input  -65.29 | X-H torsion
[ 10718 10713 10712 10709 ] final -119.94 input   66.30 | X-H torsion
[ 10763 10752 10751 10750 ] final  -26.64 input  -60.55 | X-H torsion
[ 11005 11000 10999 10996 ] final   81.70 input  -57.11 | X-H torsion

> <Gold.Protein.ActiveResidues>
 VAL166  LYS551  ARG553  GLY616  TRP617  ASP618  TYR619  PRO620  LYS621  CYS622 
 ASP623  PHE694  ASN695  SER759  ASP760  ASP761  ALA762  ILE779  LEU786  VAL792 
 PHE793  MET794  SER795  GLU796  ALA797  LYS798  CYS799  TRP800  GLU811  SER814 

> <Gold.Protein.RotatedAtoms>
  152.5326  134.2899  159.9038 H   0  0  0  0  0  0  0  0  0  0  0  0  # atno 6907 bound_to 6896
  151.2851  133.4185  159.2637 H   0  0  0  0  0  0  0  0  0  0  0  0  # atno 6908 bound_to 6896
  151.0249  134.9512  159.8136 H   0  0  0  0  0  0  0  0  0  0  0  0  # atno 6909 bound_to 6896
  145.5003  140.9547  143.1763 H   0  0  0  0  0  0  0  0  0  0  0  0  # atno 7974 bound_to 7965
  155.6436  140.0704  157.2610 H   0  0  0  0  0  0  0  0  0  0  0  0  # atno 8008 bound_to 7997
  154.4178  140.1746  156.1649 H   0  0  0  0  0  0  0  0  0  0  0  0  # atno 8009 bound_to 7997
  155.9835  140.3351  155.6688 H   0  0  0  0  0  0  0  0  0  0  0  0  # atno 8010 bound_to 7997
  140.6555  143.2596  151.4597 H   0  0  0  0  0  0  0  0  0  0  0  0  # atno 10167 bound_to 10162
  156.1220  130.6330  150.9479 H   0  0  0  0  0  0  0  0  0  0  0  0  # atno 10718 bound_to 10713
  153.7193  135.6946  153.5017 H   0  0  0  0  0  0  0  0  0  0  0  0  # atno 10763 bound_to 10752
  153.2215  135.4368  155.0494 H   0  0  0  0  0  0  0  0  0  0  0  0  # atno 10764 bound_to 10752
  154.8289  135.3462  154.6727 H   0  0  0  0  0  0  0  0  0  0  0  0  # atno 10765 bound_to 10752
  139.9089  134.8016  156.2076 H   0  0  0  0  0  0  0  0  0  0  0  0  # atno 11005 bound_to 11000
  144.7784  139.6579  143.7165 LP  0  0  0  0  0  0  0  0  0  0  0  0  # atno 17320 bound_to 7965
  146.2230  139.5671  142.9606 LP  0  0  0  0  0  0  0  0  0  0  0  0  # atno 17321 bound_to 7965
  139.5778  144.1780  152.1926 LP  0  0  0  0  0  0  0  0  0  0  0  0  # atno 17342 bound_to 10162
  140.1096  144.5469  150.6934 LP  0  0  0  0  0  0  0  0  0  0  0  0  # atno 17343 bound_to 10162
  157.6403  131.0911  150.8265 LP  0  0  0  0  0  0  0  0  0  0  0  0  # atno 17370 bound_to 10713
  156.8361  130.5032  149.5326 LP  0  0  0  0  0  0  0  0  0  0  0  0  # atno 17371 bound_to 10713
  141.0486  133.6900  156.1729 LP  0  0  0  0  0  0  0  0  0  0  0  0  # atno 17394 bound_to 11000
  140.6846  134.4731  157.5589 LP  0  0  0  0  0  0  0  0  0  0  0  0  # atno 17395 bound_to 11000

$$$$
