AV-unprocessed.smi:3211|AV-procd|sdf|12276|dock7
  -GOLD-   2272018113D 1   1.00000     0.00000
 Structure written by MMmdl.
 34 35  0  0  0  0  0  0  0  0  1 V2000
  152.7648  142.9734  162.0491 C   0  0  0  0  0  0  0  0  0  0  0  0
  153.3696  142.3942  160.7655 C   0  0  0  0  0  0  0  0  0  0  0  0
  152.6711  142.8706  159.5362 C   0  0  0  0  0  0  0  0  0  0  0  0
  152.1112  142.0514  158.6417 N   0  0  0  0  0  0  0  0  0  0  0  0
  151.4961  142.7399  157.5912 C   0  0  0  0  0  0  0  0  0  0  0  0
  150.8327  141.9798  156.4831 C   0  0  0  0  0  0  0  0  0  0  0  0
  149.5257  141.3125  156.9413 C   0  0  0  0  0  0  0  0  0  0  0  0
  148.3643  142.1432  156.6437 N   0  0  0  0  0  0  0  0  0  0  0  0
  147.1343  141.9567  157.1465 C   0  0  0  0  0  0  0  0  0  0  0  0
  146.8657  141.0410  157.9251 O   0  0  0  0  0  0  0  0  0  0  0  0
  146.1330  142.9681  156.6804 C   0  0  2  0  0  0  0  0  0  0  0  0
  144.8794  142.4604  155.9950 C   0  0  0  0  0  0  0  0  0  0  0  0
  145.9166  143.2075  155.1912 C   0  0  2  0  0  0  0  0  0  0  0  0
  146.6925  142.5103  154.0874 C   0  0  0  0  0  0  0  0  0  0  0  0
  151.5850  144.1042  157.7133 C   0  0  0  0  0  0  0  0  0  0  0  0
  152.4457  144.5735  159.1532 S   0  0  0  0  0  0  0  0  0  0  0  0
  153.2931  142.6045  162.9285 H   0  0  0  0  0  0  0  0  0  0  0  0
  151.7153  142.6950  162.1495 H   0  0  0  0  0  0  0  0  0  0  0  0
  152.8249  144.0622  162.0557 H   0  0  0  0  0  0  0  0  0  0  0  0
  154.4233  142.6661  160.6953 H   0  0  0  0  0  0  0  0  0  0  0  0
  153.3299  141.3046  160.7942 H   0  0  0  0  0  0  0  0  0  0  0  0
  150.6257  142.6481  155.6463 H   0  0  0  0  0  0  0  0  0  0  0  0
  151.5158  141.2219  156.0972 H   0  0  0  0  0  0  0  0  0  0  0  0
  149.4150  140.3315  156.4760 H   0  0  0  0  0  0  0  0  0  0  0  0
  149.5524  141.1423  158.0180 H   0  0  0  0  0  0  0  0  0  0  0  0
  148.5076  142.9192  156.0136 H   0  0  0  0  0  0  0  0  0  0  0  0
  146.0208  143.8456  157.3157 H   0  0  0  0  0  0  0  0  0  0  0  0
  144.7784  141.3906  155.8201 H   0  0  0  0  0  0  0  0  0  0  0  0
  143.9483  142.9736  156.2263 H   0  0  0  0  0  0  0  0  0  0  0  0
  145.6831  144.2404  154.9398 H   0  0  0  0  0  0  0  0  0  0  0  0
  146.7286  141.4322  154.2393 H   0  0  0  0  0  0  0  0  0  0  0  0
  147.7115  142.8950  154.0446 H   0  0  0  0  0  0  0  0  0  0  0  0
  146.2127  142.6950  153.1263 H   0  0  0  0  0  0  0  0  0  0  0  0
  151.1965  144.8590  157.0458 H   0  0  0  0  0  0  0  0  0  0  0  0
  1  2  1  0  0  0  0
  1 17  1  0  0  0  0
  1 18  1  0  0  0  0
  1 19  1  0  0  0  0
  2  3  1  0  0  0  0
  2 20  1  0  0  0  0
  2 21  1  0  0  0  0
  3 16  1  0  0  0  0
  3  4  2  0  0  0  0
  4  5  1  0  0  0  0
  5  6  1  0  0  0  0
  5 15  2  0  0  0  0
  6  7  1  0  0  0  0
  6 22  1  0  0  0  0
  6 23  1  0  0  0  0
  7  8  1  0  0  0  0
  7 24  1  0  0  0  0
  7 25  1  0  0  0  0
  8  9  1  0  0  0  0
  8 26  1  0  0  0  0
  9 10  2  0  0  0  0
  9 11  1  0  0  0  0
 11 13  1  0  0  0  0
 11 12  1  0  0  0  0
 11 27  1  0  0  0  0
 12 13  1  0  0  0  0
 12 28  1  0  0  0  0
 12 29  1  0  0  0  0
 13 14  1  0  0  0  0
 13 30  1  0  0  0  0
 14 31  1  0  0  0  0
 14 32  1  0  0  0  0
 14 33  1  0  0  0  0
 15 16  1  0  0  0  0
 15 34  1  0  0  0  0
M  END
> <s_m_source_file>
AV-unprocessed.smi

> <i_m_source_file_index>
3211

> <i_lp_mmshare_version>
43012

> <i_f3d_flags>
0

> <s_epik_input>
W0NIM11bQ0gyXWMxbmMoW2NIXXMxKVtDSDJdW0NIMl1bTkhdQyg9TylbQ0BASF0yW0NIMl1bQ0BIXTJbQ0gzXQ==

> <s_epik_cmdline>
J2VwaWtfcHl0aG9uJywgJy1waCcsICc3LjAnLCAnLXRuJywgJzgnLCAnLW1hJywgJzIwMCcsICctbWV0YWxfYmluZGluZycsICctaW1hZScsICc8aW5maWxlLm1hZT4nLCAnLW9tYWUnLCAnPG91dGZpbGUubWFlPic=

> <r_epik_Ionization_Penalty>
0.00109667

> <r_epik_Ionization_Penalty_Charging>
0

> <r_epik_Ionization_Penalty_Neutral>
0.00109667

> <r_epik_State_Penalty>
0.000719322

> <r_epik_Charging_Adjusted_Penalty>
0.000719322

> <i_epik_Tot_Q>
0

> <i_epik_Tot_abs_Q>
0

> <r_epik_Metal_State_Penalty>
-0

> <b_epik_Metal_Only>
0

> <s_lp_Force_Field>
OPLS_2005

> <r_lp_Energy>
-0.716075

> <b_lp_Chiralities_Consistent>
1

> <s_lp_Variant>
AV-unprocessed.smi:3211-3

> <Gold.Version>
5.8.1

> <Gold.Id.Protein>
6NUR|6NUR_protein|mol2

> <Gold.PLP.Fitness>
44.0102

> <Gold.PLP.PLP>
-39.0361

> <Gold.PLP.part.hbond>
-1.2452

> <Gold.PLP.part.metal>
0.0000

> <Gold.PLP.part.buried>
-5.5056

> <Gold.PLP.part.nonpolar>
-32.6362

> <Gold.PLP.part.repulsive>
0.0094

> <Gold.PLP.ligand.clash>
0.0000

> <Gold.PLP.ligand.torsion>
0.5032

> <Gold.PLP.Chemscore.Hbond>
1.0000

> <Gold.PLP.Chemscore.CHOScore>
0.9590

> <Gold.PLP.Chemscore.Metal>
0.0000

> <Gold.Chemscore.Hbonds>
donor molecule, donor type, donor heavy atom, donor atom, acceptor molecule, acceptor atom, score
      L1  H     8    26       P1  8028  1.00
      L1  C    15    34       P1  8028  0.65

> <Gold.PLP.Chemscore.Internal.Correction>
0.1035

> <Gold.Rescore>
     Score         DG    S(hbond)    S(metal)    S(lipo)     H(rot)  DE(clash)    DE(int)     intcor
     16.72     -17.20       0.93        0.00     106.51       1.51       0.10       0.37       ----

> <Gold.Chemscore.Fitness>
16.7242

> <Gold.Chemscore.DG>
-17.1950

> <Gold.Chemscore.ZeroCoef>
-5.4800

> <Gold.Chemscore.Hbond>
0.9333

> <Gold.Chemscore.Metal>
0.0000

> <Gold.Chemscore.Lipo>
106.5149

> <Gold.Chemscore.Internal_Hbond>
0.0000

> <Gold.Chemscore.DEClash>
0.0971

> <Gold.Chemscore.DEInternal>
0.3737

> <Gold.Chemscore.Rot>
1.5096

> <Gold.Chemscore.Internal.Correction>
   9.000000E+99

> <Gold.Chemscore.Hbonds>
donor molecule, donor type, donor heavy atom, donor atom, acceptor molecule, acceptor atom, score
      L1  H     8    26       P1  8028  0.94

> <Gold.Chemscore.Hbond.Weighted>
-3.1174

> <Gold.Chemscore.Metal.Weighted>
-0.0000

> <Gold.Chemscore.Lipo.Weighted>
-12.4622

> <Gold.Chemscore.Internal_Hbond.Weighted>
0.0000

> <Gold.Chemscore.DEClash.Weighted>
0.0971

> <Gold.Chemscore.DEInternal.Weighted>
0.3737

> <Gold.Chemscore.Rot.Weighted>
3.8646

> <Gold.Chemscore.Internal.Correction.Weighted>
   9.000000E+99

> <Gold.Protein.RotatedTorsions>
[ 6907 6896 6895 6894 ] final  -77.88 input  -60.11 | X-H torsion
[ 7974 7965 7964 7962 ] final  -74.86 input  175.53 | X-H torsion
[ 8008 7997 7996 7995 ] final   69.40 input   59.86 | X-H torsion
[ 10167 10162 10161 10158 ] final  160.89 input  -65.29 | X-H torsion
[ 10718 10713 10712 10709 ] final   84.94 input   66.30 | X-H torsion
[ 10763 10752 10751 10750 ] final  130.50 input  -60.55 | X-H torsion
[ 11005 11000 10999 10996 ] final  109.58 input  -57.11 | X-H torsion

> <Gold.Protein.ActiveResidues>
 VAL166  LYS551  ARG553  GLY616  TRP617  ASP618  TYR619  PRO620  LYS621  CYS622 
 ASP623  PHE694  ASN695  SER759  ASP760  ASP761  ALA762  ILE779  LEU786  VAL792 
 PHE793  MET794  SER795  GLU796  ALA797  LYS798  CYS799  TRP800  GLU811  SER814 

> <Gold.Protein.RotatedAtoms>
  150.6987  134.4356  159.5268 H   0  0  0  0  0  0  0  0  0  0  0  0  # atno 6907 bound_to 6896
  152.2075  134.8529  160.0510 H   0  0  0  0  0  0  0  0  0  0  0  0  # atno 6908 bound_to 6896
  151.9426  133.3607  159.4007 H   0  0  0  0  0  0  0  0  0  0  0  0  # atno 6909 bound_to 6896
  145.6336  140.9331  143.1073 H   0  0  0  0  0  0  0  0  0  0  0  0  # atno 7974 bound_to 7965
  155.7231  140.3493  155.5025 H   0  0  0  0  0  0  0  0  0  0  0  0  # atno 8008 bound_to 7997
  155.9251  140.1074  157.1198 H   0  0  0  0  0  0  0  0  0  0  0  0  # atno 8009 bound_to 7997
  154.4076  140.1242  156.4717 H   0  0  0  0  0  0  0  0  0  0  0  0  # atno 8010 bound_to 7997
  139.4844  144.4590  151.8730 H   0  0  0  0  0  0  0  0  0  0  0  0  # atno 10167 bound_to 10162
  157.6907  131.0154  150.2748 H   0  0  0  0  0  0  0  0  0  0  0  0  # atno 10718 bound_to 10713
  153.7590  135.3198  155.3334 H   0  0  0  0  0  0  0  0  0  0  0  0  # atno 10763 bound_to 10752
  154.8237  135.4585  154.0857 H   0  0  0  0  0  0  0  0  0  0  0  0  # atno 10764 bound_to 10752
  153.2082  135.6932  153.8230 H   0  0  0  0  0  0  0  0  0  0  0  0  # atno 10765 bound_to 10752
  139.8865  134.9462  156.6147 H   0  0  0  0  0  0  0  0  0  0  0  0  # atno 11005 bound_to 11000
  144.7184  139.8115  143.7390 LP  0  0  0  0  0  0  0  0  0  0  0  0  # atno 17320 bound_to 7965
  146.1337  139.4378  143.0152 LP  0  0  0  0  0  0  0  0  0  0  0  0  # atno 17321 bound_to 7965
  140.4051  144.2442  150.5891 LP  0  0  0  0  0  0  0  0  0  0  0  0  # atno 17342 bound_to 10162
  140.5020  143.2315  151.8665 LP  0  0  0  0  0  0  0  0  0  0  0  0  # atno 17343 bound_to 10162
  156.3305  130.3799  149.7495 LP  0  0  0  0  0  0  0  0  0  0  0  0  # atno 17370 bound_to 10713
  156.5036  130.8140  151.3142 LP  0  0  0  0  0  0  0  0  0  0  0  0  # atno 17371 bound_to 10713
  140.7785  133.8680  155.8548 LP  0  0  0  0  0  0  0  0  0  0  0  0  # atno 17394 bound_to 11000
  140.9781  134.1442  157.4518 LP  0  0  0  0  0  0  0  0  0  0  0  0  # atno 17395 bound_to 11000

$$$$
