AV-unprocessed.smi:3181|AV-procd|sdf|12145|dock9
  -GOLD-   2272017583D 1   1.00000     0.00000
 Structure written by MMmdl.
 42 43  0  0  0  0  0  0  0  0  2 V2000
  148.6177  142.8252  154.6250 C   0  0  0  0  0  0  0  0  0  0  0  0
  149.1035  141.3723  154.4839 C   0  0  2  0  0  0  0  0  0  0  0  0
  147.9424  140.3597  154.4078 C   0  0  0  0  0  0  0  0  0  0  0  0
  148.3881  138.9790  154.4597 N   0  0  0  0  0  0  0  0  0  0  0  0
  147.7092  137.8403  154.3108 C   0  0  0  0  0  0  0  0  0  0  0  0
  148.4566  136.7523  154.4333 N   0  0  0  0  0  0  0  0  0  0  0  0
  149.6679  137.3334  154.6822 C   0  0  0  0  0  0  0  0  0  0  0  0
  149.6808  138.6664  154.7123 N   0  0  0  0  0  0  0  0  0  0  0  0
  149.9897  141.0252  155.6181 N   0  3  0  0  0  0  0  0  0  0  0  0
  149.4786  141.3559  156.9698 C   0  0  1  0  0  0  0  0  0  0  0  0
  148.7532  140.1684  157.6326 C   0  0  0  0  0  0  0  0  0  0  0  0
  149.7261  139.0439  158.0172 C   0  0  0  0  0  0  0  0  0  0  0  0
  150.8597  139.5456  158.9337 C   0  0  1  0  0  0  0  0  0  0  0  0
  151.7891  138.3747  159.2998 C   0  0  0  0  0  0  0  0  0  0  0  0
  151.6108  140.7338  158.2764 C   0  0  2  0  0  0  0  0  0  0  0  0
  152.7134  141.3167  159.1786 C   0  0  0  0  0  0  0  0  0  0  0  0
  150.6231  141.8517  157.8723 C   0  0  0  0  0  0  0  0  0  0  0  0
  148.0253  143.1351  153.7638 H   0  0  0  0  0  0  0  0  0  0  0  0
  149.4567  143.5169  154.7021 H   0  0  0  0  0  0  0  0  0  0  0  0
  148.0006  142.9520  155.5151 H   0  0  0  0  0  0  0  0  0  0  0  0
  149.6679  141.2992  153.5528 H   0  0  0  0  0  0  0  0  0  0  0  0
  147.2446  140.5217  155.2308 H   0  0  0  0  0  0  0  0  0  0  0  0
  147.3765  140.5020  153.4858 H   0  0  0  0  0  0  0  0  0  0  0  0
  146.6491  137.8053  154.1057 H   0  0  0  0  0  0  0  0  0  0  0  0
  150.5664  136.7570  154.8468 H   0  0  0  0  0  0  0  0  0  0  0  0
  150.1998  140.0379  155.5816 H   0  0  0  0  0  0  0  0  0  0  0  0
  148.7726  142.1797  156.8541 H   0  0  0  0  0  0  0  0  0  0  0  0
  148.2499  140.5202  158.5343 H   0  0  0  0  0  0  0  0  0  0  0  0
  147.9657  139.7782  156.9882 H   0  0  0  0  0  0  0  0  0  0  0  0
  149.1719  138.2481  158.5161 H   0  0  0  0  0  0  0  0  0  0  0  0
  150.1492  138.5996  157.1154 H   0  0  0  0  0  0  0  0  0  0  0  0
  150.4040  139.9026  159.8586 H   0  0  0  0  0  0  0  0  0  0  0  0
  152.3354  138.0124  158.4283 H   0  0  0  0  0  0  0  0  0  0  0  0
  151.2206  137.5371  159.7048 H   0  0  0  0  0  0  0  0  0  0  0  0
  152.5168  138.6566  160.0600 H   0  0  0  0  0  0  0  0  0  0  0  0
  152.0944  140.3689  157.3692 H   0  0  0  0  0  0  0  0  0  0  0  0
  152.3121  141.6359  160.1409 H   0  0  0  0  0  0  0  0  0  0  0  0
  153.1829  142.1833  158.7127 H   0  0  0  0  0  0  0  0  0  0  0  0
  153.5063  140.5940  159.3684 H   0  0  0  0  0  0  0  0  0  0  0  0
  151.1573  142.6626  157.3751 H   0  0  0  0  0  0  0  0  0  0  0  0
  150.1932  142.2879  158.7753 H   0  0  0  0  0  0  0  0  0  0  0  0
  150.8518  141.5354  155.4899 H   0  0  0  0  0  0  0  0  0  0  0  0
  1  2  1  0  0  0  0
  1 18  1  0  0  0  0
  1 19  1  0  0  0  0
  1 20  1  0  0  0  0
  2  3  1  0  0  0  0
  2  9  1  0  0  0  0
  2 21  1  0  0  0  0
  3  4  1  0  0  0  0
  3 22  1  0  0  0  0
  3 23  1  0  0  0  0
  4  8  1  0  0  0  0
  4  5  1  0  0  0  0
  5  6  2  0  0  0  0
  5 24  1  0  0  0  0
  6  7  1  0  0  0  0
  7  8  2  0  0  0  0
  7 25  1  0  0  0  0
  9 10  1  0  0  0  0
  9 26  1  0  0  0  0
  9 42  1  0  0  0  0
 10 17  1  0  0  0  0
 10 11  1  0  0  0  0
 10 27  1  0  0  0  0
 11 12  1  0  0  0  0
 11 28  1  0  0  0  0
 11 29  1  0  0  0  0
 12 13  1  0  0  0  0
 12 30  1  0  0  0  0
 12 31  1  0  0  0  0
 13 14  1  0  0  0  0
 13 15  1  0  0  0  0
 13 32  1  0  0  0  0
 14 33  1  0  0  0  0
 14 34  1  0  0  0  0
 14 35  1  0  0  0  0
 15 16  1  0  0  0  0
 15 17  1  0  0  0  0
 15 36  1  0  0  0  0
 16 37  1  0  0  0  0
 16 38  1  0  0  0  0
 16 39  1  0  0  0  0
 17 40  1  0  0  0  0
 17 41  1  0  0  0  0
M  CHG  1   9   1
M  END
> <s_m_source_file>
AV-unprocessed.smi

> <i_m_source_file_index>
3181

> <i_lp_mmshare_version>
43012

> <i_f3d_flags>
0

> <s_epik_input>
bjFbY0hdbltjSF1uMVtDSDJdW0NAQEhdKFtDSDNdKVtOSF1bQ0BASF0yW0NIMl1bQ0gyXVtDQEBIXShbQ0gzXSlbQ0BASF0oW0NIM10pW0NIMl0y

> <s_epik_cmdline>
J2VwaWtfcHl0aG9uJywgJy1waCcsICc3LjAnLCAnLXRuJywgJzgnLCAnLW1hJywgJzIwMCcsICctbWV0YWxfYmluZGluZycsICctaW1hZScsICc8aW5maWxlLm1hZT4nLCAnLW9tYWUnLCAnPG91dGZpbGUubWFlPic=

> <r_lp_tautomer_probability>
1

> <r_epik_Ionization_Penalty>
0.000617007

> <r_epik_Ionization_Penalty_Charging>
0.000616215

> <r_epik_Ionization_Penalty_Neutral>
7.92544e-07

> <r_epik_State_Penalty>
0.000388807

> <r_epik_Charging_Adjusted_Penalty>
0.00100502

> <i_epik_Tot_Q>
1

> <i_epik_Tot_abs_Q>
1

> <r_epik_Metal_State_Penalty>
-0

> <b_epik_Metal_Only>
0

> <s_lp_Force_Field>
OPLS_2005

> <r_lp_Energy>
23.0816

> <b_lp_Chiralities_Consistent>
1

> <s_lp_Variant>
AV-unprocessed.smi:3181-11

> <Gold.Version>
5.8.1

> <Gold.Id.Protein>
6NUR|6NUR_protein|mol2

> <Gold.PLP.Fitness>
43.1323

> <Gold.PLP.PLP>
-36.4213

> <Gold.PLP.part.hbond>
-2.0000

> <Gold.PLP.part.metal>
0.0000

> <Gold.PLP.part.buried>
-4.3401

> <Gold.PLP.part.nonpolar>
-30.7450

> <Gold.PLP.part.repulsive>
0.3235

> <Gold.PLP.ligand.clash>
0.0000

> <Gold.PLP.ligand.torsion>
0.6661

> <Gold.PLP.Chemscore.Hbond>
1.7840

> <Gold.PLP.Chemscore.CHOScore>
0.8904

> <Gold.PLP.Chemscore.Metal>
0.0000

> <Gold.PLP.Chemscore.Internal.Correction>
0.0202

> <Gold.Rescore>
     Score         DG    S(hbond)    S(metal)    S(lipo)     H(rot)  DE(clash)    DE(int)     intcor
     14.12     -15.11       1.89        0.00      74.49       2.11       0.05       0.94       ----

> <Gold.Chemscore.Fitness>
14.1163

> <Gold.Chemscore.DG>
-15.1127

> <Gold.Chemscore.ZeroCoef>
-5.4800

> <Gold.Chemscore.Hbond>
1.8915

> <Gold.Chemscore.Metal>
0.0000

> <Gold.Chemscore.Lipo>
74.4908

> <Gold.Chemscore.Internal_Hbond>
0.0000

> <Gold.Chemscore.DEClash>
0.0538

> <Gold.Chemscore.DEInternal>
0.9426

> <Gold.Chemscore.Rot>
2.1095

> <Gold.Chemscore.Internal.Correction>
   9.000000E+99

> <Gold.Chemscore.Hbond.Weighted>
-6.3176

> <Gold.Chemscore.Metal.Weighted>
-0.0000

> <Gold.Chemscore.Lipo.Weighted>
-8.7154

> <Gold.Chemscore.Internal_Hbond.Weighted>
0.0000

> <Gold.Chemscore.DEClash.Weighted>
0.0538

> <Gold.Chemscore.DEInternal.Weighted>
0.9426

> <Gold.Chemscore.Rot.Weighted>
5.4003

> <Gold.Chemscore.Internal.Correction.Weighted>
   9.000000E+99

> <Gold.Protein.RotatedTorsions>
[ 6907 6896 6895 6894 ] final -147.85 input  -60.11 | X-H torsion
[ 7974 7965 7964 7962 ] final  178.56 input  175.53 | X-H torsion
[ 8008 7997 7996 7995 ] final -133.09 input   59.86 | X-H torsion
[ 10167 10162 10161 10158 ] final  -76.70 input  -65.29 | X-H torsion
[ 10718 10713 10712 10709 ] final  -30.90 input   66.30 | X-H torsion
[ 10763 10752 10751 10750 ] final  -83.17 input  -60.55 | X-H torsion
[ 11005 11000 10999 10996 ] final    5.36 input  -57.11 | X-H torsion

> <Gold.Protein.ActiveResidues>
 VAL166  LYS551  ARG553  GLY616  TRP617  ASP618  TYR619  PRO620  LYS621  CYS622 
 ASP623  PHE694  ASN695  SER759  ASP760  ASP761  ALA762  ILE779  LEU786  VAL792 
 PHE793  MET794  SER795  GLU796  ALA797  LYS798  CYS799  TRP800  GLU811  SER814 

> <Gold.Protein.RotatedAtoms>
  151.1615  133.4842  159.2594 H   0  0  0  0  0  0  0  0  0  0  0  0  # atno 6907 bound_to 6896
  151.1449  135.0198  159.8652 H   0  0  0  0  0  0  0  0  0  0  0  0  # atno 6908 bound_to 6896
  152.5463  134.1505  159.8569 H   0  0  0  0  0  0  0  0  0  0  0  0  # atno 6909 bound_to 6896
  144.7155  140.0415  143.6437 H   0  0  0  0  0  0  0  0  0  0  0  0  # atno 7974 bound_to 7965
  155.3397  140.0471  157.3044 H   0  0  0  0  0  0  0  0  0  0  0  0  # atno 8008 bound_to 7997
  154.5284  140.2248  155.8814 H   0  0  0  0  0  0  0  0  0  0  0  0  # atno 8009 bound_to 7997
  156.1763  140.3084  155.9071 H   0  0  0  0  0  0  0  0  0  0  0  0  # atno 8010 bound_to 7997
  140.4834  143.2397  151.8022 H   0  0  0  0  0  0  0  0  0  0  0  0  # atno 10167 bound_to 10162
  156.3940  130.4378  149.7373 H   0  0  0  0  0  0  0  0  0  0  0  0  # atno 10718 bound_to 10713
  154.5845  135.5565  153.7218 H   0  0  0  0  0  0  0  0  0  0  0  0  # atno 10763 bound_to 10752
  153.0094  135.6328  154.1935 H   0  0  0  0  0  0  0  0  0  0  0  0  # atno 10764 bound_to 10752
  154.1876  135.2884  155.3012 H   0  0  0  0  0  0  0  0  0  0  0  0  # atno 10765 bound_to 10752
  140.5716  134.0097  155.8011 H   0  0  0  0  0  0  0  0  0  0  0  0  # atno 11005 bound_to 11000
  146.0019  139.3098  143.0922 LP  0  0  0  0  0  0  0  0  0  0  0  0  # atno 17320 bound_to 7965
  145.8783  140.9378  143.0614 LP  0  0  0  0  0  0  0  0  0  0  0  0  # atno 17321 bound_to 7965
  139.4837  144.4743  151.9386 LP  0  0  0  0  0  0  0  0  0  0  0  0  # atno 17342 bound_to 10162
  140.3829  144.2713  150.5907 LP  0  0  0  0  0  0  0  0  0  0  0  0  # atno 17343 bound_to 10162
  156.4415  130.7863  151.2884 LP  0  0  0  0  0  0  0  0  0  0  0  0  # atno 17370 bound_to 10713
  157.7500  131.0123  150.3380 LP  0  0  0  0  0  0  0  0  0  0  0  0  # atno 17371 bound_to 10713
  141.1052  133.9704  157.3008 LP  0  0  0  0  0  0  0  0  0  0  0  0  # atno 17394 bound_to 11000
  139.9359  135.0196  156.8554 LP  0  0  0  0  0  0  0  0  0  0  0  0  # atno 17395 bound_to 11000

$$$$
