AV-unprocessed.smi:3168|AV-procd|sdf|12099|dock2
  -GOLD-   2272017533D 1   1.00000     0.00000
 Structure written by MMmdl.
 33 34  0  0  0  0  0  0  0  0  1 V2000
  150.8085  138.3137  154.0765 C   0  0  0  0  0  0  0  0  0  0  0  0
  150.9278  139.8119  154.4254 C   0  0  2  0  0  0  0  0  0  0  0  0
  151.5112  140.0591  155.8275 C   0  0  0  0  0  0  0  0  0  0  0  0
  152.6523  139.6913  156.1090 O   0  0  0  0  0  0  0  0  0  0  0  0
  150.7132  140.6994  156.6976 N   0  0  0  0  0  0  0  0  0  0  0  0
  151.0566  141.0390  158.0747 C   0  0  0  0  0  0  0  0  0  0  0  0
  150.7788  142.5196  158.3840 C   0  0  2  0  0  0  0  0  0  0  0  0
  151.6048  143.5195  157.5719 C   0  0  0  0  0  0  0  0  0  0  0  0
  151.6187  144.7200  158.4891 C   0  0  0  0  0  0  0  0  0  0  0  0
  151.7541  144.0567  159.8557 C   0  0  0  0  0  0  0  0  0  0  0  0
  151.0854  142.8026  159.7474 O   0  0  0  0  0  0  0  0  0  0  0  0
  149.6576  140.5118  154.2655 N   0  0  0  0  0  0  0  0  0  0  0  0
  148.4360  139.9802  153.9048 C   0  0  0  0  0  0  0  0  0  0  0  0
  147.5405  141.0091  153.8469 C   0  0  0  0  0  0  0  0  0  0  0  0
  148.3178  142.1520  154.1823 C   0  0  0  0  0  0  0  0  0  0  0  0
  149.5835  141.8538  154.4253 N   0  0  0  0  0  0  0  0  0  0  0  0
  151.7784  137.8180  154.1312 H   0  0  0  0  0  0  0  0  0  0  0  0
  150.4318  138.1801  153.0622 H   0  0  0  0  0  0  0  0  0  0  0  0
  150.1311  137.7887  154.7511 H   0  0  0  0  0  0  0  0  0  0  0  0
  151.6275  140.2514  153.7125 H   0  0  0  0  0  0  0  0  0  0  0  0
  149.7918  140.9665  156.3833 H   0  0  0  0  0  0  0  0  0  0  0  0
  150.4497  140.4131  158.7291 H   0  0  0  0  0  0  0  0  0  0  0  0
  152.0957  140.7898  158.2959 H   0  0  0  0  0  0  0  0  0  0  0  0
  149.7184  142.7352  158.2418 H   0  0  0  0  0  0  0  0  0  0  0  0
  152.6222  143.1526  157.4272 H   0  0  0  0  0  0  0  0  0  0  0  0
  151.1753  143.7327  156.5927 H   0  0  0  0  0  0  0  0  0  0  0  0
  152.4262  145.4194  158.2715 H   0  0  0  0  0  0  0  0  0  0  0  0
  150.6711  145.2558  158.4211 H   0  0  0  0  0  0  0  0  0  0  0  0
  152.8039  143.8691  160.0836 H   0  0  0  0  0  0  0  0  0  0  0  0
  151.3365  144.6655  160.6579 H   0  0  0  0  0  0  0  0  0  0  0  0
  148.3071  138.9239  153.7205 H   0  0  0  0  0  0  0  0  0  0  0  0
  146.4912  140.9542  153.5987 H   0  0  0  0  0  0  0  0  0  0  0  0
  148.0029  143.1827  154.2520 H   0  0  0  0  0  0  0  0  0  0  0  0
  1  2  1  0  0  0  0
  1 17  1  0  0  0  0
  1 18  1  0  0  0  0
  1 19  1  0  0  0  0
  2  3  1  0  0  0  0
  2 12  1  0  0  0  0
  2 20  1  0  0  0  0
  3  4  2  0  0  0  0
  3  5  1  0  0  0  0
  5  6  1  0  0  0  0
  5 21  1  0  0  0  0
  6  7  1  0  0  0  0
  6 22  1  0  0  0  0
  6 23  1  0  0  0  0
  7 11  1  0  0  0  0
  7  8  1  0  0  0  0
  7 24  1  0  0  0  0
  8  9  1  0  0  0  0
  8 25  1  0  0  0  0
  8 26  1  0  0  0  0
  9 10  1  0  0  0  0
  9 27  1  0  0  0  0
  9 28  1  0  0  0  0
 10 11  1  0  0  0  0
 10 29  1  0  0  0  0
 10 30  1  0  0  0  0
 12 16  1  0  0  0  0
 12 13  1  0  0  0  0
 13 14  2  0  0  0  0
 13 31  1  0  0  0  0
 14 15  1  0  0  0  0
 14 32  1  0  0  0  0
 15 16  2  0  0  0  0
 15 33  1  0  0  0  0
M  END
> <s_m_source_file>
AV-unprocessed.smi

> <i_m_source_file_index>
3168

> <i_lp_mmshare_version>
43012

> <i_f3d_flags>
0

> <s_epik_input>
bjFbY0hdW2NIXVtjSF1uMVtDQEhdKFtDSDNdKUMoPU8pW05IXVtDSDJdW0NAQEhdMltDSDJdW0NIMl1bQ0gyXU8y

> <s_epik_cmdline>
J2VwaWtfcHl0aG9uJywgJy1waCcsICc3LjAnLCAnLXRuJywgJzgnLCAnLW1hJywgJzIwMCcsICctbWV0YWxfYmluZGluZycsICctaW1hZScsICc8aW5maWxlLm1hZT4nLCAnLW9tYWUnLCAnPG91dGZpbGUubWFlPic=

> <r_lp_tautomer_probability>
1

> <r_epik_Ionization_Penalty>
4.14877e-05

> <r_epik_Ionization_Penalty_Charging>
0

> <r_epik_Ionization_Penalty_Neutral>
4.14877e-05

> <r_epik_State_Penalty>
-0

> <r_epik_Charging_Adjusted_Penalty>
0

> <i_epik_Tot_Q>
0

> <i_epik_Tot_abs_Q>
0

> <r_epik_Metal_State_Penalty>
-0

> <b_epik_Metal_Only>
0

> <s_lp_Force_Field>
OPLS_2005

> <r_lp_Energy>
21.6016

> <b_lp_Chiralities_Consistent>
1

> <s_lp_Variant>
AV-unprocessed.smi:3168-1

> <Gold.Version>
5.8.1

> <Gold.Id.Protein>
6NUR|6NUR_protein|mol2

> <Gold.PLP.Fitness>
40.9640

> <Gold.PLP.PLP>
-35.1870

> <Gold.PLP.part.hbond>
-3.3246

> <Gold.PLP.part.metal>
0.0000

> <Gold.PLP.part.buried>
0.6270

> <Gold.PLP.part.nonpolar>
-31.2582

> <Gold.PLP.part.repulsive>
0.2461

> <Gold.PLP.ligand.clash>
0.0000

> <Gold.PLP.ligand.torsion>
0.1488

> <Gold.PLP.Chemscore.Hbond>
1.0508

> <Gold.PLP.Chemscore.CHOScore>
0.9370

> <Gold.PLP.Chemscore.Metal>
0.0000

> <Gold.Chemscore.Hbonds>
donor molecule, donor type, donor heavy atom, donor atom, acceptor molecule, acceptor atom, score
      P1  H  7997  8008       L1     4  1.00
      P1  H  8011  8017       L1    16  0.03
      L1  C    15    33       P1  8028  0.93

> <Gold.PLP.Chemscore.Internal.Correction>
0.1115

> <Gold.Rescore>
     Score         DG    S(hbond)    S(metal)    S(lipo)     H(rot)  DE(clash)    DE(int)     intcor
     12.79     -14.52       1.01        0.00      83.57       1.61       0.18       1.55       ----

> <Gold.Chemscore.Fitness>
12.7890

> <Gold.Chemscore.DG>
-14.5158

> <Gold.Chemscore.ZeroCoef>
-5.4800

> <Gold.Chemscore.Hbond>
1.0113

> <Gold.Chemscore.Metal>
0.0000

> <Gold.Chemscore.Lipo>
83.5741

> <Gold.Chemscore.Internal_Hbond>
0.0000

> <Gold.Chemscore.DEClash>
0.1765

> <Gold.Chemscore.DEInternal>
1.5502

> <Gold.Chemscore.Rot>
1.6094

> <Gold.Chemscore.Internal.Correction>
   9.000000E+99

> <Gold.Chemscore.Hbonds>
donor molecule, donor type, donor heavy atom, donor atom, acceptor molecule, acceptor atom, score
      P1  H  7997  8008       L1     4  1.00

> <Gold.Chemscore.Hbond.Weighted>
-3.3777

> <Gold.Chemscore.Metal.Weighted>
-0.0000

> <Gold.Chemscore.Lipo.Weighted>
-9.7782

> <Gold.Chemscore.Internal_Hbond.Weighted>
0.0000

> <Gold.Chemscore.DEClash.Weighted>
0.1765

> <Gold.Chemscore.DEInternal.Weighted>
1.5502

> <Gold.Chemscore.Rot.Weighted>
4.1201

> <Gold.Chemscore.Internal.Correction.Weighted>
   9.000000E+99

> <Gold.Protein.RotatedTorsions>
[ 6907 6896 6895 6894 ] final   94.36 input  -60.11 | X-H torsion
[ 7974 7965 7964 7962 ] final   89.51 input  175.53 | X-H torsion
[ 8008 7997 7996 7995 ] final  -39.42 input   59.86 | X-H torsion
[ 10167 10162 10161 10158 ] final    1.48 input  -65.29 | X-H torsion
[ 10718 10713 10712 10709 ] final  -70.60 input   66.30 | X-H torsion
[ 10763 10752 10751 10750 ] final -129.92 input  -60.55 | X-H torsion
[ 11005 11000 10999 10996 ] final  128.27 input  -57.11 | X-H torsion

> <Gold.Protein.ActiveResidues>
 VAL166  LYS551  ARG553  GLY616  TRP617  ASP618  TYR619  PRO620  LYS621  CYS622 
 ASP623  PHE694  ASN695  SER759  ASP760  ASP761  ALA762  ILE779  LEU786  VAL792 
 PHE793  MET794  SER795  GLU796  ALA797  LYS798  CYS799  TRP800  GLU811  SER814 

> <Gold.Protein.RotatedAtoms>
  152.5450  134.1206  159.8396 H   0  0  0  0  0  0  0  0  0  0  0  0  # atno 6907 bound_to 6896
  151.1262  133.5061  159.2608 H   0  0  0  0  0  0  0  0  0  0  0  0  # atno 6908 bound_to 6896
  151.1725  135.0334  159.8812 H   0  0  0  0  0  0  0  0  0  0  0  0  # atno 6909 bound_to 6896
  145.5314  139.2283  143.2617 H   0  0  0  0  0  0  0  0  0  0  0  0  # atno 7974 bound_to 7965
  154.4023  140.1552  156.2860 H   0  0  0  0  0  0  0  0  0  0  0  0  # atno 8008 bound_to 7997
  155.8827  140.3443  155.5877 H   0  0  0  0  0  0  0  0  0  0  0  0  # atno 8009 bound_to 7997
  155.7648  140.0822  157.2128 H   0  0  0  0  0  0  0  0  0  0  0  0  # atno 8010 bound_to 7997
  140.6681  143.7125  150.7867 H   0  0  0  0  0  0  0  0  0  0  0  0  # atno 10167 bound_to 10162
  156.0400  130.4335  150.2320 H   0  0  0  0  0  0  0  0  0  0  0  0  # atno 10718 bound_to 10713
  154.8757  135.3879  154.3998 H   0  0  0  0  0  0  0  0  0  0  0  0  # atno 10763 bound_to 10752
  153.4724  135.7030  153.5991 H   0  0  0  0  0  0  0  0  0  0  0  0  # atno 10764 bound_to 10752
  153.4442  135.3849  155.2214 H   0  0  0  0  0  0  0  0  0  0  0  0  # atno 10765 bound_to 10752
  139.9551  134.9614  156.8976 H   0  0  0  0  0  0  0  0  0  0  0  0  # atno 11005 bound_to 11000
  146.2042  140.6130  142.9089 LP  0  0  0  0  0  0  0  0  0  0  0  0  # atno 17320 bound_to 7965
  144.7624  140.5453  143.6726 LP  0  0  0  0  0  0  0  0  0  0  0  0  # atno 17321 bound_to 7965
  140.0805  143.4973  152.2532 LP  0  0  0  0  0  0  0  0  0  0  0  0  # atno 17342 bound_to 10162
  139.5937  144.7559  151.3337 LP  0  0  0  0  0  0  0  0  0  0  0  0  # atno 17343 bound_to 10162
  157.0415  131.0036  151.3282 LP  0  0  0  0  0  0  0  0  0  0  0  0  # atno 17370 bound_to 10713
  157.5206  130.7995  149.7804 LP  0  0  0  0  0  0  0  0  0  0  0  0  # atno 17371 bound_to 10713
  140.5627  134.0519  155.7404 LP  0  0  0  0  0  0  0  0  0  0  0  0  # atno 17394 bound_to 11000
  141.1221  133.9443  157.2708 LP  0  0  0  0  0  0  0  0  0  0  0  0  # atno 17395 bound_to 11000

$$$$
