AV-unprocessed.smi:12|AV-procd|sdf|65|dock2
  -GOLD-   2262015183D 1   1.00000     0.00000
 Structure written by MMmdl.
 41 44  0  0  0  0  0  0  0  0  1 V2000
  151.9627  145.1432  159.3285 C   0  0  0  0  0  0  0  0  0  0  0  0
  151.9501  143.7262  158.7831 C   0  0  0  0  0  0  0  0  0  0  0  0
  151.3312  143.4175  157.6192 C   0  0  0  0  0  0  0  0  0  0  0  0
  151.3438  142.1250  157.1748 N   0  0  0  0  0  0  0  0  0  0  0  0
  152.0205  141.1337  157.9213 C   0  0  0  0  0  0  0  0  0  0  0  0
  152.6366  141.3504  159.0416 N   0  0  0  0  0  0  0  0  0  0  0  0
  152.6368  142.6612  159.5565 C   0  0  0  0  0  0  0  0  0  0  0  0
  153.1982  142.9130  160.6218 O   0  0  0  0  0  0  0  0  0  0  0  0
  151.9263  139.9427  157.2662 O   0  0  0  0  0  0  0  0  0  0  0  0
  151.1508  140.1146  156.0712 C   0  0  1  0  0  0  0  0  0  0  0  0
  149.8057  139.3834  156.1060 C   0  0  1  0  0  0  0  0  0  0  0  0
  149.4425  138.9915  157.4187 O   0  0  0  0  0  0  0  0  0  0  0  0
  148.8313  140.4417  155.5672 C   0  0  1  0  0  0  0  0  0  0  0  0
  147.3540  140.2953  155.9648 C   0  0  0  0  0  0  0  0  0  0  0  0
  146.6733  141.5167  155.7255 O   0  0  0  0  0  0  0  0  0  0  0  0
  146.5620  141.9887  154.4680 C   0  0  0  0  0  0  0  0  0  0  0  0
  147.1538  141.5025  153.5022 O   0  0  0  0  0  0  0  0  0  0  0  0
  145.6450  143.1606  154.3650 C   0  0  0  0  0  0  0  0  0  0  0  0
  145.6483  143.9396  153.1843 C   0  0  0  0  0  0  0  0  0  0  0  0
  144.7913  145.0497  153.0544 C   0  0  0  0  0  0  0  0  0  0  0  0
  143.9208  145.3950  154.1044 C   0  0  0  0  0  0  0  0  0  0  0  0
  143.9087  144.6289  155.2845 C   0  0  0  0  0  0  0  0  0  0  0  0
  144.7651  143.5182  155.4164 C   0  0  0  0  0  0  0  0  0  0  0  0
  149.3679  141.6671  156.0437 O   0  0  0  0  0  0  0  0  0  0  0  0
  150.7541  141.5968  155.9450 C   0  0  1  0  0  0  0  0  0  0  0  0
  151.4285  145.8268  158.6680 H   0  0  0  0  0  0  0  0  0  0  0  0
  152.9864  145.5047  159.4306 H   0  0  0  0  0  0  0  0  0  0  0  0
  151.4847  145.1793  160.3080 H   0  0  0  0  0  0  0  0  0  0  0  0
  150.8239  144.1750  157.0396 H   0  0  0  0  0  0  0  0  0  0  0  0
  151.7320  139.8353  155.1916 H   0  0  0  0  0  0  0  0  0  0  0  0
  149.8158  138.4930  155.4766 H   0  0  0  0  0  0  0  0  0  0  0  0
  150.2188  138.6992  157.8717 H   0  0  0  0  0  0  0  0  0  0  0  0
  148.9038  140.4638  154.4780 H   0  0  0  0  0  0  0  0  0  0  0  0
  146.8812  139.4793  155.4170 H   0  0  0  0  0  0  0  0  0  0  0  0
  147.2843  140.0515  157.0258 H   0  0  0  0  0  0  0  0  0  0  0  0
  146.3076  143.6935  152.3644 H   0  0  0  0  0  0  0  0  0  0  0  0
  144.8016  145.6361  152.1475 H   0  0  0  0  0  0  0  0  0  0  0  0
  143.2630  146.2458  154.0044 H   0  0  0  0  0  0  0  0  0  0  0  0
  143.2402  144.8930  156.0905 H   0  0  0  0  0  0  0  0  0  0  0  0
  144.7303  142.9515  156.3355 H   0  0  0  0  0  0  0  0  0  0  0  0
  151.2024  142.1447  155.1156 H   0  0  0  0  0  0  0  0  0  0  0  0
  1  2  1  0  0  0  0
  1 26  1  0  0  0  0
  1 27  1  0  0  0  0
  1 28  1  0  0  0  0
  2  7  1  0  0  0  0
  2  3  2  0  0  0  0
  3  4  1  0  0  0  0
  3 29  1  0  0  0  0
  4 25  1  0  0  0  0
  4  5  1  0  0  0  0
  5  6  2  0  0  0  0
  5  9  1  0  0  0  0
  6  7  1  0  0  0  0
  7  8  2  0  0  0  0
  9 10  1  0  0  0  0
 10 25  1  0  0  0  0
 10 11  1  0  0  0  0
 10 30  1  0  0  0  0
 11 12  1  0  0  0  0
 11 13  1  0  0  0  0
 11 31  1  0  0  0  0
 12 32  1  0  0  0  0
 13 14  1  0  0  0  0
 13 24  1  0  0  0  0
 13 33  1  0  0  0  0
 14 15  1  0  0  0  0
 14 34  1  0  0  0  0
 14 35  1  0  0  0  0
 15 16  1  0  0  0  0
 16 17  2  0  0  0  0
 16 18  1  0  0  0  0
 18 23  1  0  0  0  0
 18 19  2  0  0  0  0
 19 20  1  0  0  0  0
 19 36  1  0  0  0  0
 20 21  2  0  0  0  0
 20 37  1  0  0  0  0
 21 22  1  0  0  0  0
 21 38  1  0  0  0  0
 22 23  2  0  0  0  0
 22 39  1  0  0  0  0
 23 40  1  0  0  0  0
 24 25  1  0  0  0  0
 25 41  1  0  0  0  0
M  END
> <s_m_source_file>
AV-unprocessed.smi

> <i_m_source_file_index>
12

> <i_lp_mmshare_version>
43012

> <i_f3d_flags>
0

> <s_epik_input>
W0NIM11jKFtjSF0xKWMoPU8pbmMobjEyKU9bQ0BIXTNbQ0BASF0yT1tDQEBIXShbQ0BASF0zW09IXSlbQ0gyXU9DKD1PKWM0W2NIXVtjSF1bY0hdW2NIXVtjSF00

> <s_epik_cmdline>
J2VwaWtfcHl0aG9uJywgJy1waCcsICc3LjAnLCAnLXRuJywgJzgnLCAnLW1hJywgJzIwMCcsICctbWV0YWxfYmluZGluZycsICctaW1hZScsICc8aW5maWxlLm1hZT4nLCAnLW9tYWUnLCAnPG91dGZpbGUubWFlPic=

> <r_lp_tautomer_probability>
0.933681

> <r_epik_Ionization_Penalty>
0.00399549

> <r_epik_Ionization_Penalty_Charging>
3.09373e-09

> <r_epik_Ionization_Penalty_Neutral>
0.00399549

> <r_epik_State_Penalty>
0.00284953

> <r_epik_Charging_Adjusted_Penalty>
0.00284953

> <i_epik_Tot_Q>
0

> <i_epik_Tot_abs_Q>
0

> <r_epik_Metal_State_Penalty>
-0

> <b_epik_Metal_Only>
0

> <s_epik_Chemistry_Notes>
This compound has an ester and may undergo hydrolysis at high or low pH. This compound contains an acetal/aminal-like group ( X-CH(R)-Y where X, Y are N, S, or O) that may be acid/base labile, releasing an aldehyde.

> <s_lp_Force_Field>
OPLS_2005

> <r_lp_Energy>
52.4365

> <b_lp_Chiralities_Consistent>
1

> <s_lp_Variant>
AV-unprocessed.smi:12-5

> <Gold.Version>
5.8.1

> <Gold.Id.Protein>
6NUR|6NUR_protein|mol2

> <Gold.PLP.Fitness>
49.4764

> <Gold.PLP.PLP>
-47.0197

> <Gold.PLP.part.hbond>
0.0000

> <Gold.PLP.part.metal>
0.0000

> <Gold.PLP.part.buried>
-7.7274

> <Gold.PLP.part.nonpolar>
-39.9030

> <Gold.PLP.part.repulsive>
0.6902

> <Gold.PLP.ligand.clash>
0.0000

> <Gold.PLP.ligand.torsion>
0.2888

> <Gold.PLP.Chemscore.Hbond>
0.0000

> <Gold.PLP.Chemscore.CHOScore>
1.0000

> <Gold.PLP.Chemscore.Metal>
0.0000

> <Gold.Chemscore.Hbonds>
donor molecule, donor type, donor heavy atom, donor atom, acceptor molecule, acceptor atom, score
      L1  C     3    29       P1  8028  1.00

> <Gold.PLP.Chemscore.Internal.Correction>
0.0343

> <Gold.Rescore>
     Score         DG    S(hbond)    S(metal)    S(lipo)     H(rot)  DE(clash)    DE(int)     intcor
      9.40     -10.64       0.00        0.00      91.76       2.18       0.15       1.08       ----

> <Gold.Chemscore.Fitness>
9.4037

> <Gold.Chemscore.DG>
-10.6352

> <Gold.Chemscore.ZeroCoef>
-5.4800

> <Gold.Chemscore.Hbond>
0.0000

> <Gold.Chemscore.Metal>
0.0000

> <Gold.Chemscore.Lipo>
91.7598

> <Gold.Chemscore.Internal_Hbond>
0.0000

> <Gold.Chemscore.DEClash>
0.1497

> <Gold.Chemscore.DEInternal>
1.0817

> <Gold.Chemscore.Rot>
2.1800

> <Gold.Chemscore.Internal.Correction>
   9.000000E+99

> <Gold.Chemscore.Hbond.Weighted>
-0.0000

> <Gold.Chemscore.Metal.Weighted>
-0.0000

> <Gold.Chemscore.Lipo.Weighted>
-10.7359

> <Gold.Chemscore.Internal_Hbond.Weighted>
0.0000

> <Gold.Chemscore.DEClash.Weighted>
0.1497

> <Gold.Chemscore.DEInternal.Weighted>
1.0817

> <Gold.Chemscore.Rot.Weighted>
5.5807

> <Gold.Chemscore.Internal.Correction.Weighted>
   9.000000E+99

> <Gold.Protein.RotatedTorsions>
[ 6907 6896 6895 6894 ] final  157.83 input  -60.11 | X-H torsion
[ 7974 7965 7964 7962 ] final  156.43 input  175.53 | X-H torsion
[ 8008 7997 7996 7995 ] final  149.49 input   59.86 | X-H torsion
[ 10167 10162 10161 10158 ] final  -15.92 input  -65.29 | X-H torsion
[ 10718 10713 10712 10709 ] final -135.19 input   66.30 | X-H torsion
[ 10763 10752 10751 10750 ] final   71.57 input  -60.55 | X-H torsion
[ 11005 11000 10999 10996 ] final   -2.98 input  -57.11 | X-H torsion

> <Gold.Protein.ActiveResidues>
 VAL166  LYS551  ARG553  GLY616  TRP617  ASP618  TYR619  PRO620  LYS621  CYS622 
 ASP623  PHE694  ASN695  SER759  ASP760  ASP761  ALA762  ILE779  LEU786  VAL792 
 PHE793  MET794  SER795  GLU796  ALA797  LYS798  CYS799  TRP800  GLU811  SER814 

> <Gold.Protein.RotatedAtoms>
  152.0094  133.3855  159.4213 H   0  0  0  0  0  0  0  0  0  0  0  0  # atno 6907 bound_to 6896
  150.6901  134.3747  159.5017 H   0  0  0  0  0  0  0  0  0  0  0  0  # atno 6908 bound_to 6896
  152.1505  134.8991  160.0599 H   0  0  0  0  0  0  0  0  0  0  0  0  # atno 6909 bound_to 6896
  144.7964  139.7202  143.6200 H   0  0  0  0  0  0  0  0  0  0  0  0  # atno 7974 bound_to 7965
  156.2753  140.2100  156.5867 H   0  0  0  0  0  0  0  0  0  0  0  0  # atno 8008 bound_to 7997
  154.7015  140.0520  157.0486 H   0  0  0  0  0  0  0  0  0  0  0  0  # atno 8009 bound_to 7997
  155.0728  140.3178  155.4628 H   0  0  0  0  0  0  0  0  0  0  0  0  # atno 8010 bound_to 7997
  140.7226  143.5169  150.9681 H   0  0  0  0  0  0  0  0  0  0  0  0  # atno 10167 bound_to 10162
  156.2635  130.7223  151.1166 H   0  0  0  0  0  0  0  0  0  0  0  0  # atno 10718 bound_to 10713
  153.0407  135.5132  154.7613 H   0  0  0  0  0  0  0  0  0  0  0  0  # atno 10763 bound_to 10752
  154.6553  135.2931  154.9938 H   0  0  0  0  0  0  0  0  0  0  0  0  # atno 10764 bound_to 10752
  154.0808  135.6664  153.4890 H   0  0  0  0  0  0  0  0  0  0  0  0  # atno 10765 bound_to 10752
  140.6643  133.9293  155.8455 H   0  0  0  0  0  0  0  0  0  0  0  0  # atno 11005 bound_to 11000
  146.2233  139.5676  142.9604 LP  0  0  0  0  0  0  0  0  0  0  0  0  # atno 17320 bound_to 7965
  145.5663  141.0399  143.2198 LP  0  0  0  0  0  0  0  0  0  0  0  0  # atno 17321 bound_to 7965
  139.8885  143.6983  152.3148 LP  0  0  0  0  0  0  0  0  0  0  0  0  # atno 17342 bound_to 10162
  139.7290  144.7586  151.0832 LP  0  0  0  0  0  0  0  0  0  0  0  0  # atno 17343 bound_to 10162
  157.7259  131.0650  150.5933 LP  0  0  0  0  0  0  0  0  0  0  0  0  # atno 17370 bound_to 10713
  156.6023  130.4358  149.5892 LP  0  0  0  0  0  0  0  0  0  0  0  0  # atno 17371 bound_to 10713
  141.0441  134.0579  157.3865 LP  0  0  0  0  0  0  0  0  0  0  0  0  # atno 17394 bound_to 11000
  139.9002  135.0161  156.7233 LP  0  0  0  0  0  0  0  0  0  0  0  0  # atno 17395 bound_to 11000

$$$$
