AV-unprocessed.smi:2110|AV-procd|sdf|8611|dock3
  -GOLD-   2272011353D 1   1.00000     0.00000
 Structure written by MMmdl.
 46 47  0  0  0  0  0  0  0  0  3 V2000
  145.7631  137.1697  162.3934 C   0  0  0  0  0  0  0  0  0  0  0  0
  146.9705  136.2499  162.6305 C   0  0  0  0  0  0  0  0  0  0  0  0
  147.2762  135.4005  161.4619 N   0  0  0  0  0  0  0  0  0  0  0  0
  147.1223  133.9405  161.6281 C   0  0  0  0  0  0  0  0  0  0  0  0
  145.7276  133.5355  162.1313 C   0  0  0  0  0  0  0  0  0  0  0  0
  147.5502  136.1078  159.8883 S   0  0  0  0  0  0  0  0  0  0  0  0
  147.8011  137.5352  160.1406 O   0  0  0  0  0  0  0  0  0  0  0  0
  148.6331  135.3268  159.2642 O   0  0  0  0  0  0  0  0  0  0  0  0
  146.0694  135.8598  159.2559 N   0  5  0  0  0  0  0  0  0  0  0  0
  145.8209  134.8216  158.2686 C   0  0  0  0  0  0  0  0  0  0  0  0
  146.4684  135.1666  156.9361 C   0  0  0  0  0  0  0  0  0  0  0  0
  146.3636  134.2841  155.8371 C   0  0  0  0  0  0  0  0  0  0  0  0
  146.9816  134.6306  154.6217 C   0  0  0  0  0  0  0  0  0  0  0  0
  147.6627  135.7911  154.5196 N   0  3  0  0  0  0  0  0  0  0  0  0
  147.8058  136.6779  155.5354 C   0  0  0  0  0  0  0  0  0  0  0  0
  148.5462  137.8578  155.2905 N   0  0  0  0  0  0  0  0  0  0  0  0
  149.9816  137.7344  155.0466 C   0  0  0  0  0  0  0  0  0  0  0  0
  150.6663  139.1105  155.1073 C   0  0  0  0  0  0  0  0  0  0  0  0
  150.0201  140.0114  154.2161 O   0  0  0  0  0  0  0  0  0  0  0  0
  148.6605  140.2199  154.5781 C   0  0  0  0  0  0  0  0  0  0  0  0
  147.8900  138.8922  154.4899 C   0  0  0  0  0  0  0  0  0  0  0  0
  147.1969  136.3709  156.7797 C   0  0  0  0  0  0  0  0  0  0  0  0
  145.5225  137.7259  163.2992 H   0  0  0  0  0  0  0  0  0  0  0  0
  144.8751  136.6080  162.1052 H   0  0  0  0  0  0  0  0  0  0  0  0
  145.9664  137.8996  161.6100 H   0  0  0  0  0  0  0  0  0  0  0  0
  147.8476  136.8519  162.8676 H   0  0  0  0  0  0  0  0  0  0  0  0
  146.7957  135.6233  163.5053 H   0  0  0  0  0  0  0  0  0  0  0  0
  147.3222  133.4417  160.6803 H   0  0  0  0  0  0  0  0  0  0  0  0
  147.8827  133.5856  162.3240 H   0  0  0  0  0  0  0  0  0  0  0  0
  145.6328  132.4502  162.1603 H   0  0  0  0  0  0  0  0  0  0  0  0
  144.9417  133.9162  161.4812 H   0  0  0  0  0  0  0  0  0  0  0  0
  145.5373  133.9033  163.1392 H   0  0  0  0  0  0  0  0  0  0  0  0
  146.2028  133.8536  158.5946 H   0  0  0  0  0  0  0  0  0  0  0  0
  144.7543  134.6730  158.0969 H   0  0  0  0  0  0  0  0  0  0  0  0
  145.8247  133.3487  155.9104 H   0  0  0  0  0  0  0  0  0  0  0  0
  146.9532  134.0170  153.7332 H   0  0  0  0  0  0  0  0  0  0  0  0
  150.4431  137.0905  155.7952 H   0  0  0  0  0  0  0  0  0  0  0  0
  150.1418  137.2752  154.0701 H   0  0  0  0  0  0  0  0  0  0  0  0
  150.6476  139.5101  156.1226 H   0  0  0  0  0  0  0  0  0  0  0  0
  151.7143  139.0198  154.8219 H   0  0  0  0  0  0  0  0  0  0  0  0
  148.5996  140.6397  155.5836 H   0  0  0  0  0  0  0  0  0  0  0  0
  148.2221  140.9532  153.9013 H   0  0  0  0  0  0  0  0  0  0  0  0
  147.8410  138.5554  153.4536 H   0  0  0  0  0  0  0  0  0  0  0  0
  146.8661  139.0665  154.8197 H   0  0  0  0  0  0  0  0  0  0  0  0
  147.2948  137.0421  157.6205 H   0  0  0  0  0  0  0  0  0  0  0  0
  148.0975  136.0124  153.6241 H   0  0  0  0  0  0  0  0  0  0  0  0
  1  2  1  0  0  0  0
  1 23  1  0  0  0  0
  1 24  1  0  0  0  0
  1 25  1  0  0  0  0
  2  3  1  0  0  0  0
  2 26  1  0  0  0  0
  2 27  1  0  0  0  0
  3  4  1  0  0  0  0
  3  6  1  0  0  0  0
  4  5  1  0  0  0  0
  4 28  1  0  0  0  0
  4 29  1  0  0  0  0
  5 30  1  0  0  0  0
  5 31  1  0  0  0  0
  5 32  1  0  0  0  0
  6  7  2  0  0  0  0
  6  8  2  0  0  0  0
  6  9  1  0  0  0  0
  9 10  1  0  0  0  0
 10 11  1  0  0  0  0
 10 33  1  0  0  0  0
 10 34  1  0  0  0  0
 11 22  1  0  0  0  0
 11 12  2  0  0  0  0
 12 13  1  0  0  0  0
 12 35  1  0  0  0  0
 13 14  2  0  0  0  0
 13 36  1  0  0  0  0
 14 15  1  0  0  0  0
 14 46  1  0  0  0  0
 15 16  1  0  0  0  0
 15 22  2  0  0  0  0
 16 21  1  0  0  0  0
 16 17  1  0  0  0  0
 17 18  1  0  0  0  0
 17 37  1  0  0  0  0
 17 38  1  0  0  0  0
 18 19  1  0  0  0  0
 18 39  1  0  0  0  0
 18 40  1  0  0  0  0
 19 20  1  0  0  0  0
 20 21  1  0  0  0  0
 20 41  1  0  0  0  0
 20 42  1  0  0  0  0
 21 43  1  0  0  0  0
 21 44  1  0  0  0  0
 22 45  1  0  0  0  0
M  CHG  1   9  -1
M  CHG  1  14   1
M  END
> <s_m_source_file>
AV-unprocessed.smi

> <i_m_source_file_index>
2110

> <i_lp_mmshare_version>
43012

> <i_f3d_flags>
0

> <s_epik_input>
W0NIM11bQ0gyXU4oW0NIMl1bQ0gzXSlTKD1PKSg9TylbTkhdW0NIMl1jMVtjSF1bY0hdbmMoW2NIXTEpTjJbQ0gyXVtDSDJdT1tDSDJdW0NIMl0y

> <s_epik_cmdline>
J2VwaWtfcHl0aG9uJywgJy1waCcsICc3LjAnLCAnLXRuJywgJzgnLCAnLW1hJywgJzIwMCcsICctbWV0YWxfYmluZGluZycsICctaW1hZScsICc8aW5maWxlLm1hZT4nLCAnLW9tYWUnLCAnPG91dGZpbGUubWFlPic=

> <r_lp_tautomer_probability>
0.999994

> <r_epik_Ionization_Penalty>
2.03784

> <r_epik_Ionization_Penalty_Charging>
2.03784

> <r_epik_Ionization_Penalty_Neutral>
4.07977e-08

> <r_epik_State_Penalty>
3.04665

> <r_epik_Charging_Adjusted_Penalty>
5.08449

> <i_epik_Tot_Q>
0

> <i_epik_Tot_abs_Q>
2

> <r_epik_Metal_State_Penalty>
1.92951

> <b_epik_Metal_Only>
1

> <s_lp_Force_Field>
OPLS_2005

> <r_lp_Energy>
13.8127

> <b_lp_Chiralities_Consistent>
1

> <s_lp_Variant>
AV-unprocessed.smi:2110-4

> <Gold.Version>
5.8.1

> <Gold.Id.Protein>
6NUR|6NUR_protein|mol2

> <Gold.PLP.Fitness>
45.8745

> <Gold.PLP.PLP>
-30.9923

> <Gold.PLP.part.hbond>
-5.0000

> <Gold.PLP.part.metal>
0.0000

> <Gold.PLP.part.buried>
-4.2376

> <Gold.PLP.part.nonpolar>
-22.9174

> <Gold.PLP.part.repulsive>
0.4870

> <Gold.PLP.ligand.clash>
0.0000

> <Gold.PLP.ligand.torsion>
1.9007

> <Gold.PLP.Chemscore.Hbond>
4.9880

> <Gold.PLP.Chemscore.CHOScore>
0.0000

> <Gold.PLP.Chemscore.Metal>
0.0000

> <Gold.Chemscore.Hbonds>
donor molecule, donor type, donor heavy atom, donor atom, acceptor molecule, acceptor atom, score
      L1  H    14    46       P1  7948  2.00
      P1  H  6896  6909       L1     8  0.52
      P1  H  6931  6943       L1     7  0.22
      P1  H  6934  6947       L1     7  0.75
      P1  H  7989  7998       L1    19  0.94

> <Gold.PLP.Chemscore.Internal.Correction>
3.7197

> <Gold.Rescore>
     Score         DG    S(hbond)    S(metal)    S(lipo)     H(rot)  DE(clash)    DE(int)     intcor
     20.52     -22.54       4.49        0.00      55.17       1.72       0.03       2.00       ----

> <Gold.Chemscore.Fitness>
20.5151

> <Gold.Chemscore.DG>
-22.5412

> <Gold.Chemscore.ZeroCoef>
-5.4800

> <Gold.Chemscore.Hbond>
4.4908

> <Gold.Chemscore.Metal>
0.0000

> <Gold.Chemscore.Lipo>
55.1676

> <Gold.Chemscore.Internal_Hbond>
0.0000

> <Gold.Chemscore.DEClash>
0.0263

> <Gold.Chemscore.DEInternal>
1.9998

> <Gold.Chemscore.Rot>
1.7159

> <Gold.Chemscore.Internal.Correction>
   9.000000E+99

> <Gold.Chemscore.Hbonds>
donor molecule, donor type, donor heavy atom, donor atom, acceptor molecule, acceptor atom, score
      L1  H    14    46       P1  7948  0.98
      P1  H  6896  6909       L1     8  0.51
      P1  H  6931  6943       L1     7  0.22
      P1  H  6934  6947       L1     7  0.74
      P1  H  7989  7998       L1    19  0.20

> <Gold.Chemscore.Hbond.Weighted>
-14.9991

> <Gold.Chemscore.Metal.Weighted>
-0.0000

> <Gold.Chemscore.Lipo.Weighted>
-6.4546

> <Gold.Chemscore.Internal_Hbond.Weighted>
0.0000

> <Gold.Chemscore.DEClash.Weighted>
0.0263

> <Gold.Chemscore.DEInternal.Weighted>
1.9998

> <Gold.Chemscore.Rot.Weighted>
4.3926

> <Gold.Chemscore.Internal.Correction.Weighted>
   9.000000E+99

> <Gold.Protein.RotatedTorsions>
[ 6907 6896 6895 6894 ] final   35.55 input  -60.11 | X-H torsion
[ 7974 7965 7964 7962 ] final -146.88 input  175.53 | X-H torsion
[ 8008 7997 7996 7995 ] final -105.47 input   59.86 | X-H torsion
[ 10167 10162 10161 10158 ] final  -48.42 input  -65.29 | X-H torsion
[ 10718 10713 10712 10709 ] final -162.08 input   66.30 | X-H torsion
[ 10763 10752 10751 10750 ] final -139.73 input  -60.55 | X-H torsion
[ 11005 11000 10999 10996 ] final  -72.96 input  -57.11 | X-H torsion

> <Gold.Protein.ActiveResidues>
 VAL166  LYS551  ARG553  GLY616  TRP617  ASP618  TYR619  PRO620  LYS621  CYS622 
 ASP623  PHE694  ASN695  SER759  ASP760  ASP761  ALA762  ILE779  LEU786  VAL792 
 PHE793  MET794  SER795  GLU796  ALA797  LYS798  CYS799  TRP800  GLU811  SER814 

> <Gold.Protein.RotatedAtoms>
  152.1177  134.9228  160.0564 H   0  0  0  0  0  0  0  0  0  0  0  0  # atno 6907 bound_to 6896
  152.0381  133.3961  159.4333 H   0  0  0  0  0  0  0  0  0  0  0  0  # atno 6908 bound_to 6896
  150.6847  134.3366  159.4893 H   0  0  0  0  0  0  0  0  0  0  0  0  # atno 6909 bound_to 6896
  144.8130  140.5398  143.5630 H   0  0  0  0  0  0  0  0  0  0  0  0  # atno 7974 bound_to 7965
  154.9003  140.0413  157.1889 H   0  0  0  0  0  0  0  0  0  0  0  0  # atno 8008 bound_to 7997
  154.8451  140.2920  155.5613 H   0  0  0  0  0  0  0  0  0  0  0  0  # atno 8009 bound_to 7997
  156.2994  140.2475  156.3400 H   0  0  0  0  0  0  0  0  0  0  0  0  # atno 8010 bound_to 7997
  140.6732  143.2741  151.4068 H   0  0  0  0  0  0  0  0  0  0  0  0  # atno 10167 bound_to 10162
  156.6054  130.8828  151.2924 H   0  0  0  0  0  0  0  0  0  0  0  0  # atno 10718 bound_to 10713
  154.8600  135.3574  154.5594 H   0  0  0  0  0  0  0  0  0  0  0  0  # atno 10763 bound_to 10752
  153.6210  135.7006  153.5315 H   0  0  0  0  0  0  0  0  0  0  0  0  # atno 10764 bound_to 10752
  153.3129  135.4173  155.1311 H   0  0  0  0  0  0  0  0  0  0  0  0  # atno 10765 bound_to 10752
  141.1616  133.6863  156.7138 H   0  0  0  0  0  0  0  0  0  0  0  0  # atno 11005 bound_to 11000
  145.5280  139.1475  143.3515 LP  0  0  0  0  0  0  0  0  0  0  0  0  # atno 17320 bound_to 7965
  146.2430  140.5421  142.8926 LP  0  0  0  0  0  0  0  0  0  0  0  0  # atno 17321 bound_to 7965
  139.6010  144.1295  152.2198 LP  0  0  0  0  0  0  0  0  0  0  0  0  # atno 17342 bound_to 10162
  140.0679  144.5803  150.7213 LP  0  0  0  0  0  0  0  0  0  0  0  0  # atno 17343 bound_to 10162
  157.7268  130.9635  150.1673 LP  0  0  0  0  0  0  0  0  0  0  0  0  # atno 17370 bound_to 10713
  156.2434  130.3693  149.8312 LP  0  0  0  0  0  0  0  0  0  0  0  0  # atno 17371 bound_to 10713
  140.2867  134.8273  157.3981 LP  0  0  0  0  0  0  0  0  0  0  0  0  # atno 17394 bound_to 11000
  140.1384  134.5004  155.8050 LP  0  0  0  0  0  0  0  0  0  0  0  0  # atno 17395 bound_to 11000

$$$$
