AV-unprocessed.smi:2902|AV-procd|sdf|11152|dock9
  -GOLD-   2272016 33D 1   1.00000     0.00000
 Structure written by MMmdl.
 47 48  0  0  0  0  0  0  0  0  1 V2000
  155.0452  140.4948  163.3236 C   0  0  0  0  0  0  0  0  0  0  0  0
  154.8281  139.8573  161.9453 C   0  0  0  0  0  0  0  0  0  0  0  0
  153.6508  140.4868  161.1774 C   0  0  1  0  0  0  0  0  0  0  0  0
  154.0052  141.8329  160.8607 O   0  0  0  0  0  0  0  0  0  0  0  0
  152.9517  142.6818  160.4117 C   0  0  0  0  0  0  0  0  0  0  0  0
  153.3572  143.3864  159.1193 C   0  0  0  0  0  0  0  0  0  0  0  0
  152.4383  144.6093  159.0424 C   0  0  0  0  0  0  0  0  0  0  0  0
  152.0404  144.9359  160.4905 C   0  0  0  0  0  0  0  0  0  0  0  0
  152.6664  143.8442  161.3669 C   0  0  0  0  0  0  0  0  0  0  0  0
  153.3397  139.7092  159.8889 C   0  0  0  0  0  0  0  0  0  0  0  0
  154.2447  139.4156  159.1074 O   0  0  0  0  0  0  0  0  0  0  0  0
  152.0493  139.4023  159.6808 N   0  0  0  0  0  0  0  0  0  0  0  0
  151.5047  138.7103  158.5139 C   0  0  2  0  0  0  0  0  0  0  0  0
  152.1478  137.3144  158.4284 C   0  0  0  0  0  0  0  0  0  0  0  0
  151.7121  139.5674  157.2376 C   0  0  2  0  0  0  0  0  0  0  0  0
  151.2719  141.0331  157.4209 C   0  0  0  0  0  0  0  0  0  0  0  0
  151.0549  138.9828  156.0763 N   0  0  0  0  0  0  0  0  0  0  0  0
  150.0959  139.4740  155.2889 C   0  0  0  0  0  0  0  0  0  0  0  0
  149.7364  138.6585  154.3074 N   0  0  0  0  0  0  0  0  0  0  0  0
  150.5701  137.6078  154.5668 C   0  0  0  0  0  0  0  0  0  0  0  0
  151.3803  137.7501  155.6155 N   0  0  0  0  0  0  0  0  0  0  0  0
  155.8783  140.0213  163.8431 H   0  0  0  0  0  0  0  0  0  0  0  0
  154.1593  140.3899  163.9503 H   0  0  0  0  0  0  0  0  0  0  0  0
  155.2702  141.5582  163.2364 H   0  0  0  0  0  0  0  0  0  0  0  0
  155.7453  139.9438  161.3610 H   0  0  0  0  0  0  0  0  0  0  0  0
  154.6504  138.7893  162.0808 H   0  0  0  0  0  0  0  0  0  0  0  0
  152.7740  140.4722  161.8268 H   0  0  0  0  0  0  0  0  0  0  0  0
  152.0339  142.1237  160.2217 H   0  0  0  0  0  0  0  0  0  0  0  0
  154.3947  143.7167  159.1894 H   0  0  0  0  0  0  0  0  0  0  0  0
  153.2734  142.7403  158.2451 H   0  0  0  0  0  0  0  0  0  0  0  0
  152.9284  145.4499  158.5506 H   0  0  0  0  0  0  0  0  0  0  0  0
  151.5463  144.3670  158.4637 H   0  0  0  0  0  0  0  0  0  0  0  0
  152.3848  145.9259  160.7912 H   0  0  0  0  0  0  0  0  0  0  0  0
  150.9543  144.9254  160.5880 H   0  0  0  0  0  0  0  0  0  0  0  0
  152.0218  143.5582  162.1983 H   0  0  0  0  0  0  0  0  0  0  0  0
  153.6046  144.2108  161.7864 H   0  0  0  0  0  0  0  0  0  0  0  0
  151.3836  139.6915  160.3826 H   0  0  0  0  0  0  0  0  0  0  0  0
  150.4315  138.5591  158.6430 H   0  0  0  0  0  0  0  0  0  0  0  0
  151.7085  136.7148  157.6310 H   0  0  0  0  0  0  0  0  0  0  0  0
  152.0066  136.7626  159.3586 H   0  0  0  0  0  0  0  0  0  0  0  0
  153.2202  137.3830  158.2425 H   0  0  0  0  0  0  0  0  0  0  0  0
  152.7805  139.5771  157.0148 H   0  0  0  0  0  0  0  0  0  0  0  0
  151.8571  141.5347  158.1917 H   0  0  0  0  0  0  0  0  0  0  0  0
  150.2220  141.1011  157.7072 H   0  0  0  0  0  0  0  0  0  0  0  0
  151.4022  141.5990  156.4981 H   0  0  0  0  0  0  0  0  0  0  0  0
  149.6537  140.4487  155.4340 H   0  0  0  0  0  0  0  0  0  0  0  0
  150.5806  136.7113  153.9645 H   0  0  0  0  0  0  0  0  0  0  0  0
  1  2  1  0  0  0  0
  1 22  1  0  0  0  0
  1 23  1  0  0  0  0
  1 24  1  0  0  0  0
  2  3  1  0  0  0  0
  2 25  1  0  0  0  0
  2 26  1  0  0  0  0
  3  4  1  0  0  0  0
  3 10  1  0  0  0  0
  3 27  1  0  0  0  0
  4  5  1  0  0  0  0
  5  9  1  0  0  0  0
  5  6  1  0  0  0  0
  5 28  1  0  0  0  0
  6  7  1  0  0  0  0
  6 29  1  0  0  0  0
  6 30  1  0  0  0  0
  7  8  1  0  0  0  0
  7 31  1  0  0  0  0
  7 32  1  0  0  0  0
  8  9  1  0  0  0  0
  8 33  1  0  0  0  0
  8 34  1  0  0  0  0
  9 35  1  0  0  0  0
  9 36  1  0  0  0  0
 10 11  2  0  0  0  0
 10 12  1  0  0  0  0
 12 13  1  0  0  0  0
 12 37  1  0  0  0  0
 13 14  1  0  0  0  0
 13 15  1  0  0  0  0
 13 38  1  0  0  0  0
 14 39  1  0  0  0  0
 14 40  1  0  0  0  0
 14 41  1  0  0  0  0
 15 16  1  0  0  0  0
 15 17  1  0  0  0  0
 15 42  1  0  0  0  0
 16 43  1  0  0  0  0
 16 44  1  0  0  0  0
 16 45  1  0  0  0  0
 17 21  1  0  0  0  0
 17 18  1  0  0  0  0
 18 19  2  0  0  0  0
 18 46  1  0  0  0  0
 19 20  1  0  0  0  0
 20 21  2  0  0  0  0
 20 47  1  0  0  0  0
M  END
> <s_m_source_file>
AV-unprocessed.smi

> <i_m_source_file_index>
2902

> <i_lp_mmshare_version>
43012

> <i_f3d_flags>
0

> <s_epik_input>
W0NIMl0xW0NIMl1bQ0gyXVtDSDJdW0NIXTFPW0NAQEhdKFtDSDJdW0NIM10pQyg9TylbTkhdW0NASF0oW0NIM10pW0NASF0oW0NIM10pbjJbY0hdbltjSF1uMg==

> <s_epik_cmdline>
J2VwaWtfcHl0aG9uJywgJy1waCcsICc3LjAnLCAnLXRuJywgJzgnLCAnLW1hJywgJzIwMCcsICctbWV0YWxfYmluZGluZycsICctaW1hZScsICc8aW5maWxlLm1hZT4nLCAnLW9tYWUnLCAnPG91dGZpbGUubWFlPic=

> <r_lp_tautomer_probability>
1

> <r_epik_Ionization_Penalty>
6.95617e-05

> <r_epik_Ionization_Penalty_Charging>
0

> <r_epik_Ionization_Penalty_Neutral>
6.95617e-05

> <r_epik_State_Penalty>
-0

> <r_epik_Charging_Adjusted_Penalty>
0

> <i_epik_Tot_Q>
0

> <i_epik_Tot_abs_Q>
0

> <r_epik_Metal_State_Penalty>
-0

> <b_epik_Metal_Only>
0

> <s_lp_Force_Field>
OPLS_2005

> <r_lp_Energy>
28.6706

> <b_lp_Chiralities_Consistent>
1

> <s_lp_Variant>
AV-unprocessed.smi:2902-2

> <Gold.Version>
5.8.1

> <Gold.Id.Protein>
6NUR|6NUR_protein|mol2

> <Gold.PLP.Fitness>
47.4987

> <Gold.PLP.PLP>
-43.6598

> <Gold.PLP.part.hbond>
-1.4132

> <Gold.PLP.part.metal>
0.0000

> <Gold.PLP.part.buried>
-2.3103

> <Gold.PLP.part.nonpolar>
-38.4540

> <Gold.PLP.part.repulsive>
0.3946

> <Gold.PLP.ligand.clash>
0.0000

> <Gold.PLP.ligand.torsion>
1.1851

> <Gold.PLP.Chemscore.Hbond>
1.0000

> <Gold.PLP.Chemscore.CHOScore>
1.0000

> <Gold.PLP.Chemscore.Metal>
0.0000

> <Gold.Chemscore.Hbonds>
donor molecule, donor type, donor heavy atom, donor atom, acceptor molecule, acceptor atom, score
      P1  H  7997  8010       L1    11  0.64
      L1  C    20    47       P1  7948  0.37
      L1  C    20    47       P1  7949  0.44

> <Gold.PLP.Chemscore.Internal.Correction>
0.2092

> <Gold.Rescore>
     Score         DG    S(hbond)    S(metal)    S(lipo)     H(rot)  DE(clash)    DE(int)     intcor
     10.46     -14.13       0.98        0.00     104.87       2.69       0.15       3.52       ----

> <Gold.Chemscore.Fitness>
10.4645

> <Gold.Chemscore.DG>
-14.1304

> <Gold.Chemscore.ZeroCoef>
-5.4800

> <Gold.Chemscore.Hbond>
0.9807

> <Gold.Chemscore.Metal>
0.0000

> <Gold.Chemscore.Lipo>
104.8743

> <Gold.Chemscore.Internal_Hbond>
0.0000

> <Gold.Chemscore.DEClash>
0.1475

> <Gold.Chemscore.DEInternal>
3.5185

> <Gold.Chemscore.Rot>
2.6935

> <Gold.Chemscore.Internal.Correction>
   9.000000E+99

> <Gold.Chemscore.Hbonds>
donor molecule, donor type, donor heavy atom, donor atom, acceptor molecule, acceptor atom, score
      P1  H  7997  8010       L1    11  0.62

> <Gold.Chemscore.Hbond.Weighted>
-3.2755

> <Gold.Chemscore.Metal.Weighted>
-0.0000

> <Gold.Chemscore.Lipo.Weighted>
-12.2703

> <Gold.Chemscore.Internal_Hbond.Weighted>
0.0000

> <Gold.Chemscore.DEClash.Weighted>
0.1475

> <Gold.Chemscore.DEInternal.Weighted>
3.5185

> <Gold.Chemscore.Rot.Weighted>
6.8954

> <Gold.Chemscore.Internal.Correction.Weighted>
   9.000000E+99

> <Gold.Protein.RotatedTorsions>
[ 6907 6896 6895 6894 ] final  -77.33 input  -60.11 | X-H torsion
[ 7974 7965 7964 7962 ] final  126.59 input  175.53 | X-H torsion
[ 8008 7997 7996 7995 ] final  -15.00 input   59.86 | X-H torsion
[ 10167 10162 10161 10158 ] final   67.04 input  -65.29 | X-H torsion
[ 10718 10713 10712 10709 ] final  141.18 input   66.30 | X-H torsion
[ 10763 10752 10751 10750 ] final -167.97 input  -60.55 | X-H torsion
[ 11005 11000 10999 10996 ] final -140.19 input  -57.11 | X-H torsion

> <Gold.Protein.ActiveResidues>
 VAL166  LYS551  ARG553  GLY616  TRP617  ASP618  TYR619  PRO620  LYS621  CYS622 
 ASP623  PHE694  ASN695  SER759  ASP760  ASP761  ALA762  ILE779  LEU786  VAL792 
 PHE793  MET794  SER795  GLU796  ALA797  LYS798  CYS799  TRP800  GLU811  SER814 

> <Gold.Protein.RotatedAtoms>
  150.7002  134.4439  159.5304 H   0  0  0  0  0  0  0  0  0  0  0  0  # atno 6907 bound_to 6896
  152.2144  134.8469  160.0502 H   0  0  0  0  0  0  0  0  0  0  0  0  # atno 6908 bound_to 6896
  151.9342  133.3585  159.3979 H   0  0  0  0  0  0  0  0  0  0  0  0  # atno 6909 bound_to 6896
  145.0600  139.3812  143.5010 H   0  0  0  0  0  0  0  0  0  0  0  0  # atno 7974 bound_to 7965
  154.5165  140.2208  155.9057 H   0  0  0  0  0  0  0  0  0  0  0  0  # atno 8008 bound_to 7997
  156.1613  140.3141  155.8777 H   0  0  0  0  0  0  0  0  0  0  0  0  # atno 8009 bound_to 7997
  155.3746  140.0468  157.3035 H   0  0  0  0  0  0  0  0  0  0  0  0  # atno 8010 bound_to 7997
  140.0938  144.4964  150.7081 H   0  0  0  0  0  0  0  0  0  0  0  0  # atno 10167 bound_to 10162
  157.3949  131.1009  151.0609 H   0  0  0  0  0  0  0  0  0  0  0  0  # atno 10718 bound_to 10713
  154.6677  135.2934  154.9784 H   0  0  0  0  0  0  0  0  0  0  0  0  # atno 10763 bound_to 10752
  154.0822  135.6603  153.4843 H   0  0  0  0  0  0  0  0  0  0  0  0  # atno 10764 bound_to 10752
  153.0467  135.5200  154.7657 H   0  0  0  0  0  0  0  0  0  0  0  0  # atno 10765 bound_to 10752
  140.8447  134.2359  157.4792 H   0  0  0  0  0  0  0  0  0  0  0  0  # atno 11005 bound_to 11000
  146.3524  140.0294  142.8652 LP  0  0  0  0  0  0  0  0  0  0  0  0  # atno 17320 bound_to 7965
  145.1420  140.9576  143.4483 LP  0  0  0  0  0  0  0  0  0  0  0  0  # atno 17321 bound_to 7965
  140.7014  143.2437  151.4853 LP  0  0  0  0  0  0  0  0  0  0  0  0  # atno 17342 bound_to 10162
  139.5709  144.1930  152.1835 LP  0  0  0  0  0  0  0  0  0  0  0  0  # atno 17343 bound_to 10162
  157.1629  130.6233  149.5616 LP  0  0  0  0  0  0  0  0  0  0  0  0  # atno 17370 bound_to 10713
  155.9808  130.4811  150.6792 LP  0  0  0  0  0  0  0  0  0  0  0  0  # atno 17371 bound_to 10713
  139.8703  134.9653  156.4525 LP  0  0  0  0  0  0  0  0  0  0  0  0  # atno 17394 bound_to 11000
  140.8856  133.7885  155.9515 LP  0  0  0  0  0  0  0  0  0  0  0  0  # atno 17395 bound_to 11000

$$$$
