AV-unprocessed.smi:1296|AV-procd|sdf|5414|dock1
  -GOLD-   22720 4573D 1   1.00000     0.00000
 Structure written by MMmdl.
 36 36  0  0  0  0  0  0  0  0  1 V2000
  146.7903  138.7060  152.5994 C   0  0  0  0  0  0  0  0  0  0  0  0
  147.9333  139.2193  153.4484 C   0  0  0  0  0  0  0  0  0  0  0  0
  149.0480  138.3971  153.4363 N   0  0  0  0  0  0  0  0  0  0  0  0
  150.1410  138.7772  154.1950 C   0  0  0  0  0  0  0  0  0  0  0  0
  151.3174  137.8187  154.1320 C   0  0  0  0  0  0  0  0  0  0  0  0
  150.1270  139.9227  154.9228 C   0  0  0  0  0  0  0  0  0  0  0  0
  151.3112  140.3772  155.7757 C   0  0  0  0  0  0  0  0  0  0  0  0
  151.0125  140.6944  157.2435 C   0  0  0  0  0  0  0  0  0  0  0  0
  150.3998  139.8938  157.9503 O   0  0  0  0  0  0  0  0  0  0  0  0
  151.4583  141.8768  157.6897 N   0  0  0  0  0  0  0  0  0  0  0  0
  151.2925  142.3603  159.0544 C   0  0  0  0  0  0  0  0  0  0  0  0
  152.4659  143.2625  159.4839 C   0  0  0  0  0  0  0  0  0  0  0  0
  152.4508  143.5671  160.9922 C   0  0  0  0  0  0  0  0  0  0  0  0
  152.4777  144.5642  158.6692 C   0  0  0  0  0  0  0  0  0  0  0  0
  148.9114  140.7694  154.8833 C   0  0  0  0  0  0  0  0  0  0  0  0
  148.8450  141.8298  155.5035 O   0  0  0  0  0  0  0  0  0  0  0  0
  147.8249  140.3323  154.1081 N   0  0  0  0  0  0  0  0  0  0  0  0
  149.1008  137.5375  152.9092 H   0  0  0  0  0  0  0  0  0  0  0  0
  145.9605  139.4138  152.5934 H   0  0  0  0  0  0  0  0  0  0  0  0
  146.4253  137.7555  152.9896 H   0  0  0  0  0  0  0  0  0  0  0  0
  147.1172  138.5559  151.5701 H   0  0  0  0  0  0  0  0  0  0  0  0
  151.5250  137.4044  155.1187 H   0  0  0  0  0  0  0  0  0  0  0  0
  152.2106  138.3347  153.7791 H   0  0  0  0  0  0  0  0  0  0  0  0
  151.1222  136.9870  153.4540 H   0  0  0  0  0  0  0  0  0  0  0  0
  151.7390  141.2719  155.3228 H   0  0  0  0  0  0  0  0  0  0  0  0
  152.1121  139.6380  155.7378 H   0  0  0  0  0  0  0  0  0  0  0  0
  151.9535  142.4765  157.0457 H   0  0  0  0  0  0  0  0  0  0  0  0
  150.3543  142.9137  159.1187 H   0  0  0  0  0  0  0  0  0  0  0  0
  151.2069  141.5089  159.7318 H   0  0  0  0  0  0  0  0  0  0  0  0
  153.3941  142.7333  159.2628 H   0  0  0  0  0  0  0  0  0  0  0  0
  151.5303  144.0738  161.2838 H   0  0  0  0  0  0  0  0  0  0  0  0
  153.2860  144.2107  161.2699 H   0  0  0  0  0  0  0  0  0  0  0  0
  152.5333  142.6578  161.5877 H   0  0  0  0  0  0  0  0  0  0  0  0
  151.5713  145.1462  158.8397 H   0  0  0  0  0  0  0  0  0  0  0  0
  152.5458  144.3590  157.6006 H   0  0  0  0  0  0  0  0  0  0  0  0
  153.3298  145.1893  158.9376 H   0  0  0  0  0  0  0  0  0  0  0  0
  1 19  1  0  0  0  0
  1 20  1  0  0  0  0
  1 21  1  0  0  0  0
  1  2  1  0  0  0  0
  2  3  1  0  0  0  0
  2 17  2  0  0  0  0
  3  4  1  0  0  0  0
  3 18  1  0  0  0  0
  4  6  2  0  0  0  0
  4  5  1  0  0  0  0
  5 22  1  0  0  0  0
  5 23  1  0  0  0  0
  5 24  1  0  0  0  0
  6 15  1  0  0  0  0
  6  7  1  0  0  0  0
  7  8  1  0  0  0  0
  7 25  1  0  0  0  0
  7 26  1  0  0  0  0
  8  9  2  0  0  0  0
  8 10  1  0  0  0  0
 10 11  1  0  0  0  0
 10 27  1  0  0  0  0
 11 12  1  0  0  0  0
 11 28  1  0  0  0  0
 11 29  1  0  0  0  0
 12 13  1  0  0  0  0
 12 14  1  0  0  0  0
 12 30  1  0  0  0  0
 13 31  1  0  0  0  0
 13 32  1  0  0  0  0
 13 33  1  0  0  0  0
 14 34  1  0  0  0  0
 14 35  1  0  0  0  0
 14 36  1  0  0  0  0
 15 16  2  0  0  0  0
 15 17  1  0  0  0  0
M  END
> <s_m_source_file>
AV-unprocessed.smi

> <i_m_source_file_index>
1296

> <i_lp_mmshare_version>
43012

> <i_f3d_flags>
0

> <s_epik_input>
W0NIM11jMW5jKFtDSDNdKWMoYyg9TylbbkhdMSlbQ0gyXUMoPU8pW05IXVtDSDJdW0NIXShbQ0gzXSlbQ0gzXQ==

> <s_epik_cmdline>
J2VwaWtfcHl0aG9uJywgJy1waCcsICc3LjAnLCAnLXRuJywgJzgnLCAnLW1hJywgJzIwMCcsICctbWV0YWxfYmluZGluZycsICctaW1hZScsICc8aW5maWxlLm1hZT4nLCAnLW9tYWUnLCAnPG91dGZpbGUubWFlPic=

> <r_lp_tautomer_probability>
0.156392

> <r_epik_Ionization_Penalty>
0.0142343

> <r_epik_Ionization_Penalty_Charging>
0.0141145

> <r_epik_Ionization_Penalty_Neutral>
0.000119779

> <r_epik_State_Penalty>
1.52879

> <r_epik_Charging_Adjusted_Penalty>
1.5429

> <i_epik_Tot_Q>
0

> <i_epik_Tot_abs_Q>
0

> <r_epik_Metal_State_Penalty>
1.70685

> <b_epik_Metal_Only>
0

> <s_lp_Force_Field>
OPLS_2005

> <r_lp_Energy>
9.70595

> <b_lp_Chiralities_Consistent>
1

> <s_lp_Variant>
AV-unprocessed.smi:1296-2

> <Gold.Version>
5.8.1

> <Gold.Id.Protein>
6NUR|6NUR_protein|mol2

> <Gold.PLP.Fitness>
38.1092

> <Gold.PLP.PLP>
-35.7972

> <Gold.PLP.part.hbond>
-2.0000

> <Gold.PLP.part.metal>
0.0000

> <Gold.PLP.part.buried>
-2.2036

> <Gold.PLP.part.nonpolar>
-32.9704

> <Gold.PLP.part.repulsive>
1.7438

> <Gold.PLP.ligand.clash>
0.0000

> <Gold.PLP.ligand.torsion>
0.3512

> <Gold.PLP.Chemscore.Hbond>
1.0000

> <Gold.PLP.Chemscore.CHOScore>
0.0000

> <Gold.PLP.Chemscore.Metal>
0.0000

> <Gold.Chemscore.Hbonds>
donor molecule, donor type, donor heavy atom, donor atom, acceptor molecule, acceptor atom, score
      L1  H     3    18       P1  7948  1.00

> <Gold.PLP.Chemscore.Internal.Correction>
0.0144

> <Gold.Rescore>
     Score         DG    S(hbond)    S(metal)    S(lipo)     H(rot)  DE(clash)    DE(int)     intcor
     13.05     -14.29       0.98        0.00      85.15       1.73       0.11       1.13       ----

> <Gold.Chemscore.Fitness>
13.0510

> <Gold.Chemscore.DG>
-14.2937

> <Gold.Chemscore.ZeroCoef>
-5.4800

> <Gold.Chemscore.Hbond>
0.9818

> <Gold.Chemscore.Metal>
0.0000

> <Gold.Chemscore.Lipo>
85.1468

> <Gold.Chemscore.Internal_Hbond>
0.0000

> <Gold.Chemscore.DEClash>
0.1111

> <Gold.Chemscore.DEInternal>
1.1316

> <Gold.Chemscore.Rot>
1.7296

> <Gold.Chemscore.Internal.Correction>
   9.000000E+99

> <Gold.Chemscore.Hbonds>
donor molecule, donor type, donor heavy atom, donor atom, acceptor molecule, acceptor atom, score
      L1  H     3    18       P1  7948  0.99

> <Gold.Chemscore.Hbond.Weighted>
-3.2792

> <Gold.Chemscore.Metal.Weighted>
-0.0000

> <Gold.Chemscore.Lipo.Weighted>
-9.9622

> <Gold.Chemscore.Internal_Hbond.Weighted>
0.0000

> <Gold.Chemscore.DEClash.Weighted>
0.1111

> <Gold.Chemscore.DEInternal.Weighted>
1.1316

> <Gold.Chemscore.Rot.Weighted>
4.4277

> <Gold.Chemscore.Internal.Correction.Weighted>
   9.000000E+99

> <Gold.Protein.RotatedTorsions>
[ 6907 6896 6895 6894 ] final -121.44 input  -60.11 | X-H torsion
[ 7974 7965 7964 7962 ] final  106.10 input  175.53 | X-H torsion
[ 8008 7997 7996 7995 ] final  -51.90 input   59.86 | X-H torsion
[ 10167 10162 10161 10158 ] final   66.96 input  -65.29 | X-H torsion
[ 10718 10713 10712 10709 ] final -178.74 input   66.30 | X-H torsion
[ 10763 10752 10751 10750 ] final   64.93 input  -60.55 | X-H torsion
[ 11005 11000 10999 10996 ] final   48.76 input  -57.11 | X-H torsion

> <Gold.Protein.ActiveResidues>
 VAL166  LYS551  ARG553  GLY616  TRP617  ASP618  TYR619  PRO620  LYS621  CYS622 
 ASP623  PHE694  ASN695  SER759  ASP760  ASP761  ALA762  ILE779  LEU786  VAL792 
 PHE793  MET794  SER795  GLU796  ALA797  LYS798  CYS799  TRP800  GLU811  SER814 

> <Gold.Protein.RotatedAtoms>
  150.8483  133.7826  159.3034 H   0  0  0  0  0  0  0  0  0  0  0  0  # atno 6907 bound_to 6896
  151.5506  135.1066  159.9958 H   0  0  0  0  0  0  0  0  0  0  0  0  # atno 6908 bound_to 6896
  152.4532  133.7627  159.6812 H   0  0  0  0  0  0  0  0  0  0  0  0  # atno 6909 bound_to 6896
  145.3110  139.2540  143.3763 H   0  0  0  0  0  0  0  0  0  0  0  0  # atno 7974 bound_to 7965
  154.4093  140.1237  156.4903 H   0  0  0  0  0  0  0  0  0  0  0  0  # atno 8008 bound_to 7997
  155.6996  140.3495  155.4908 H   0  0  0  0  0  0  0  0  0  0  0  0  # atno 8009 bound_to 7997
  155.9396  140.1084  157.1056 H   0  0  0  0  0  0  0  0  0  0  0  0  # atno 8010 bound_to 7997
  140.0947  144.4957  150.7076 H   0  0  0  0  0  0  0  0  0  0  0  0  # atno 10167 bound_to 10162
  156.8488  130.9712  151.3094 H   0  0  0  0  0  0  0  0  0  0  0  0  # atno 10718 bound_to 10713
  153.0076  135.5375  154.6588 H   0  0  0  0  0  0  0  0  0  0  0  0  # atno 10763 bound_to 10752
  154.5802  135.2849  155.0743 H   0  0  0  0  0  0  0  0  0  0  0  0  # atno 10764 bound_to 10752
  154.1875  135.6506  153.5103 H   0  0  0  0  0  0  0  0  0  0  0  0  # atno 10765 bound_to 10752
  140.1162  134.4889  155.8635 H   0  0  0  0  0  0  0  0  0  0  0  0  # atno 11005 bound_to 11000
  146.3118  140.3646  142.8668 LP  0  0  0  0  0  0  0  0  0  0  0  0  # atno 17320 bound_to 7965
  144.9016  140.7649  143.5863 LP  0  0  0  0  0  0  0  0  0  0  0  0  # atno 17321 bound_to 7965
  140.7010  143.2434  151.4865 LP  0  0  0  0  0  0  0  0  0  0  0  0  # atno 17342 bound_to 10162
  139.5704  144.1941  152.1828 LP  0  0  0  0  0  0  0  0  0  0  0  0  # atno 17343 bound_to 10162
  157.6315  130.8733  149.9282 LP  0  0  0  0  0  0  0  0  0  0  0  0  # atno 17370 bound_to 10713
  156.0839  130.3670  150.0525 LP  0  0  0  0  0  0  0  0  0  0  0  0  # atno 17371 bound_to 10713
  141.2142  133.6744  156.6801 LP  0  0  0  0  0  0  0  0  0  0  0  0  # atno 17394 bound_to 11000
  140.3025  134.8152  157.4109 LP  0  0  0  0  0  0  0  0  0  0  0  0  # atno 17395 bound_to 11000

$$$$
