AV-unprocessed.smi:682|AV-procd|sdf|3327|dock9
  -GOLD-   22720 0293D 1   1.00000     0.00000
 Structure written by MMmdl.
 41 42  0  0  0  0  0  0  0  0  1 V2000
  145.2219  130.4654  151.5102 C   0  0  0  0  0  0  0  0  0  0  0  0
  144.6162  131.7450  151.6474 O   0  0  0  0  0  0  0  0  0  0  0  0
  145.0784  132.7888  150.7791 C   0  0  2  0  0  0  0  0  0  0  0  0
  144.7771  132.4456  149.3148 C   0  0  0  0  0  0  0  0  0  0  0  0
  146.5038  133.2191  151.1762 C   0  0  0  0  0  0  0  0  0  0  0  0
  145.8597  134.1098  152.2368 C   0  0  1  0  0  0  0  0  0  0  0  0
  146.5479  135.3864  152.3967 N   0  0  0  0  0  0  0  0  0  0  0  0
  146.0932  136.3990  153.1469 C   0  0  0  0  0  0  0  0  0  0  0  0
  145.0501  136.3469  153.7989 O   0  0  0  0  0  0  0  0  0  0  0  0
  146.9123  137.4614  153.0833 N   0  0  0  0  0  0  0  0  0  0  0  0
  146.7476  138.7135  153.7281 C   0  0  0  0  0  0  0  0  0  0  0  0
  145.9432  138.9335  154.8764 C   0  0  0  0  0  0  0  0  0  0  0  0
  145.9846  140.2023  155.2547 N   0  0  0  0  0  0  0  0  0  0  0  0
  146.8072  140.8070  154.3635 N   0  0  0  0  0  0  0  0  0  0  0  0
  147.0746  142.2233  154.4941 C   0  0  0  0  0  0  0  0  0  0  0  0
  147.2910  139.9275  153.4155 C   0  0  0  0  0  0  0  0  0  0  0  0
  144.5880  134.1596  151.3508 C   0  0  0  0  0  0  0  0  0  0  0  0
  144.4934  135.3169  150.3382 C   0  0  0  0  0  0  0  0  0  0  0  0
  143.2502  134.1524  152.0990 C   0  0  0  0  0  0  0  0  0  0  0  0
  144.8983  129.8293  152.3339 H   0  0  0  0  0  0  0  0  0  0  0  0
  146.3100  130.5144  151.5386 H   0  0  0  0  0  0  0  0  0  0  0  0
  144.9168  129.9746  150.5861 H   0  0  0  0  0  0  0  0  0  0  0  0
  145.0355  133.2650  148.6450 H   0  0  0  0  0  0  0  0  0  0  0  0
  143.7193  132.2259  149.1693 H   0  0  0  0  0  0  0  0  0  0  0  0
  145.3495  131.5845  148.9707 H   0  0  0  0  0  0  0  0  0  0  0  0
  147.1471  132.4379  151.5799 H   0  0  0  0  0  0  0  0  0  0  0  0
  147.0133  133.7761  150.3878 H   0  0  0  0  0  0  0  0  0  0  0  0
  145.7047  133.5699  153.1740 H   0  0  0  0  0  0  0  0  0  0  0  0
  147.4146  135.5086  151.8939 H   0  0  0  0  0  0  0  0  0  0  0  0
  147.7344  137.3691  152.5050 H   0  0  0  0  0  0  0  0  0  0  0  0
  145.3445  138.2309  155.4372 H   0  0  0  0  0  0  0  0  0  0  0  0
  147.7471  142.5521  153.7012 H   0  0  0  0  0  0  0  0  0  0  0  0
  147.5412  142.4232  155.4590 H   0  0  0  0  0  0  0  0  0  0  0  0
  146.1421  142.7839  154.4226 H   0  0  0  0  0  0  0  0  0  0  0  0
  147.9601  140.2421  152.6284 H   0  0  0  0  0  0  0  0  0  0  0  0
  144.3176  136.2726  150.8332 H   0  0  0  0  0  0  0  0  0  0  0  0
  143.6746  135.1649  149.6343 H   0  0  0  0  0  0  0  0  0  0  0  0
  145.4050  135.4266  149.7506 H   0  0  0  0  0  0  0  0  0  0  0  0
  143.0235  135.1302  152.5249 H   0  0  0  0  0  0  0  0  0  0  0  0
  143.2496  133.4447  152.9281 H   0  0  0  0  0  0  0  0  0  0  0  0
  142.4263  133.8799  151.4390 H   0  0  0  0  0  0  0  0  0  0  0  0
  1  2  1  0  0  0  0
  1 20  1  0  0  0  0
  1 21  1  0  0  0  0
  1 22  1  0  0  0  0
  2  3  1  0  0  0  0
  3 17  1  0  0  0  0
  3  4  1  0  0  0  0
  3  5  1  0  0  0  0
  4 23  1  0  0  0  0
  4 24  1  0  0  0  0
  4 25  1  0  0  0  0
  5  6  1  0  0  0  0
  5 26  1  0  0  0  0
  5 27  1  0  0  0  0
  6  7  1  0  0  0  0
  6 17  1  0  0  0  0
  6 28  1  0  0  0  0
  7  8  1  0  0  0  0
  7 29  1  0  0  0  0
  8  9  2  0  0  0  0
  8 10  1  0  0  0  0
 10 11  1  0  0  0  0
 10 30  1  0  0  0  0
 11 16  2  0  0  0  0
 11 12  1  0  0  0  0
 12 13  2  0  0  0  0
 12 31  1  0  0  0  0
 13 14  1  0  0  0  0
 14 15  1  0  0  0  0
 14 16  1  0  0  0  0
 15 32  1  0  0  0  0
 15 33  1  0  0  0  0
 15 34  1  0  0  0  0
 16 35  1  0  0  0  0
 17 18  1  0  0  0  0
 17 19  1  0  0  0  0
 18 36  1  0  0  0  0
 18 37  1  0  0  0  0
 18 38  1  0  0  0  0
 19 39  1  0  0  0  0
 19 40  1  0  0  0  0
 19 41  1  0  0  0  0
M  END
> <s_m_source_file>
AV-unprocessed.smi

> <i_m_source_file_index>
682

> <i_lp_mmshare_version>
43012

> <i_f3d_flags>
0

> <s_epik_input>
W0NIM11PW0NAQF0xKFtDSDNdKVtDSDJdW0NASF0oQzEoW0NIM10pW0NIM10pW05IXUMoPU8pW05IXWMyW2NIXW5uKFtDSDNdKVtjSF0y

> <s_epik_cmdline>
J2VwaWtfcHl0aG9uJywgJy1waCcsICc3LjAnLCAnLXRuJywgJzgnLCAnLW1hJywgJzIwMCcsICctbWV0YWxfYmluZGluZycsICctaW1hZScsICc8aW5maWxlLm1hZT4nLCAnLW9tYWUnLCAnPG91dGZpbGUubWFlPic=

> <r_lp_tautomer_probability>
1

> <r_epik_Ionization_Penalty>
0.000192302

> <r_epik_Ionization_Penalty_Charging>
0

> <r_epik_Ionization_Penalty_Neutral>
0.000192302

> <r_epik_State_Penalty>
-0

> <r_epik_Charging_Adjusted_Penalty>
0

> <i_epik_Tot_Q>
0

> <i_epik_Tot_abs_Q>
0

> <r_epik_Metal_State_Penalty>
-0

> <b_epik_Metal_Only>
0

> <s_lp_Force_Field>
OPLS_2005

> <r_lp_Energy>
24.7984

> <b_lp_Chiralities_Consistent>
1

> <s_lp_Variant>
AV-unprocessed.smi:682-2

> <Gold.Version>
5.8.1

> <Gold.Id.Protein>
6NUR|6NUR_protein|mol2

> <Gold.PLP.Fitness>
40.3890

> <Gold.PLP.PLP>
-32.4696

> <Gold.PLP.part.hbond>
-2.0000

> <Gold.PLP.part.metal>
0.0000

> <Gold.PLP.part.buried>
-4.0544

> <Gold.PLP.part.nonpolar>
-26.7488

> <Gold.PLP.part.repulsive>
0.3905

> <Gold.PLP.ligand.clash>
0.0000

> <Gold.PLP.ligand.torsion>
0.2954

> <Gold.PLP.Chemscore.Hbond>
1.7120

> <Gold.PLP.Chemscore.CHOScore>
1.0000

> <Gold.PLP.Chemscore.Metal>
0.0000

> <Gold.Chemscore.Hbonds>
donor molecule, donor type, donor heavy atom, donor atom, acceptor molecule, acceptor atom, score
      L1  H     7    29       P1  7948  0.98
      L1  H    10    30       P1  7948  0.93
      L1  C    16    35       P1  7957  1.00

> <Gold.PLP.Chemscore.Internal.Correction>
0.3742

> <Gold.Rescore>
     Score         DG    S(hbond)    S(metal)    S(lipo)     H(rot)  DE(clash)    DE(int)     intcor
     16.15     -17.66       1.93        0.00      75.93       1.23       0.02       1.49       ----

> <Gold.Chemscore.Fitness>
16.1534

> <Gold.Chemscore.DG>
-17.6621

> <Gold.Chemscore.ZeroCoef>
-5.4800

> <Gold.Chemscore.Hbond>
1.9331

> <Gold.Chemscore.Metal>
0.0000

> <Gold.Chemscore.Lipo>
75.9284

> <Gold.Chemscore.Internal_Hbond>
0.0000

> <Gold.Chemscore.DEClash>
0.0234

> <Gold.Chemscore.DEInternal>
1.4852

> <Gold.Chemscore.Rot>
1.2336

> <Gold.Chemscore.Internal.Correction>
   9.000000E+99

> <Gold.Chemscore.Hbonds>
donor molecule, donor type, donor heavy atom, donor atom, acceptor molecule, acceptor atom, score
      L1  H     7    29       P1  7948  0.93
      L1  H    10    30       P1  7948  0.90

> <Gold.Chemscore.Hbond.Weighted>
-6.4566

> <Gold.Chemscore.Metal.Weighted>
-0.0000

> <Gold.Chemscore.Lipo.Weighted>
-8.8836

> <Gold.Chemscore.Internal_Hbond.Weighted>
0.0000

> <Gold.Chemscore.DEClash.Weighted>
0.0234

> <Gold.Chemscore.DEInternal.Weighted>
1.4852

> <Gold.Chemscore.Rot.Weighted>
3.1581

> <Gold.Chemscore.Internal.Correction.Weighted>
   9.000000E+99

> <Gold.Protein.RotatedTorsions>
[ 6907 6896 6895 6894 ] final   21.29 input  -60.11 | X-H torsion
[ 7974 7965 7964 7962 ] final  170.11 input  175.53 | X-H torsion
[ 8008 7997 7996 7995 ] final   37.77 input   59.86 | X-H torsion
[ 10167 10162 10161 10158 ] final  -25.50 input  -65.29 | X-H torsion
[ 10718 10713 10712 10709 ] final -166.01 input   66.30 | X-H torsion
[ 10763 10752 10751 10750 ] final  115.71 input  -60.55 | X-H torsion
[ 11005 11000 10999 10996 ] final  -38.11 input  -57.11 | X-H torsion

> <Gold.Protein.ActiveResidues>
 VAL166  LYS551  ARG553  GLY616  TRP617  ASP618  TYR619  PRO620  LYS621  CYS622 
 ASP623  PHE694  ASN695  SER759  ASP760  ASP761  ALA762  ILE779  LEU786  VAL792 
 PHE793  MET794  SER795  GLU796  ALA797  LYS798  CYS799  TRP800  GLU811  SER814 

> <Gold.Protein.RotatedAtoms>
  151.9095  135.0344  160.0513 H   0  0  0  0  0  0  0  0  0  0  0  0  # atno 6907 bound_to 6896
  152.2291  133.5039  159.5214 H   0  0  0  0  0  0  0  0  0  0  0  0  # atno 6908 bound_to 6896
  150.7020  134.1157  159.4059 H   0  0  0  0  0  0  0  0  0  0  0  0  # atno 6909 bound_to 6896
  144.7334  139.9154  143.6417 H   0  0  0  0  0  0  0  0  0  0  0  0  # atno 7974 bound_to 7965
  155.2093  140.3322  155.4331 H   0  0  0  0  0  0  0  0  0  0  0  0  # atno 8008 bound_to 7997
  156.2377  140.1880  156.7124 H   0  0  0  0  0  0  0  0  0  0  0  0  # atno 8009 bound_to 7997
  154.6089  140.0612  156.9453 H   0  0  0  0  0  0  0  0  0  0  0  0  # atno 8010 bound_to 7997
  140.7286  143.4260  151.0877 H   0  0  0  0  0  0  0  0  0  0  0  0  # atno 10167 bound_to 10162
  156.6617  130.9048  151.3030 H   0  0  0  0  0  0  0  0  0  0  0  0  # atno 10718 bound_to 10713
  153.5263  135.3587  155.2655 H   0  0  0  0  0  0  0  0  0  0  0  0  # atno 10763 bound_to 10752
  154.8731  135.4057  154.3202 H   0  0  0  0  0  0  0  0  0  0  0  0  # atno 10764 bound_to 10752
  153.3882  135.7071  153.6582 H   0  0  0  0  0  0  0  0  0  0  0  0  # atno 10765 bound_to 10752
  141.0003  133.6959  156.2010 H   0  0  0  0  0  0  0  0  0  0  0  0  # atno 11005 bound_to 11000
  146.0969  139.3962  143.0371 LP  0  0  0  0  0  0  0  0  0  0  0  0  # atno 17320 bound_to 7965
  145.7632  140.9927  143.1188 LP  0  0  0  0  0  0  0  0  0  0  0  0  # atno 17321 bound_to 7965
  139.7911  143.8217  152.3152 LP  0  0  0  0  0  0  0  0  0  0  0  0  # atno 17342 bound_to 10162
  139.8201  144.7299  150.9583 LP  0  0  0  0  0  0  0  0  0  0  0  0  # atno 17343 bound_to 10162
  157.7107  130.9437  150.1081 LP  0  0  0  0  0  0  0  0  0  0  0  0  # atno 17370 bound_to 10713
  156.2006  130.3660  149.8793 LP  0  0  0  0  0  0  0  0  0  0  0  0  # atno 17371 bound_to 10713
  140.6900  134.4676  157.5588 LP  0  0  0  0  0  0  0  0  0  0  0  0  # atno 17394 bound_to 11000
  139.9035  134.8501  156.1798 LP  0  0  0  0  0  0  0  0  0  0  0  0  # atno 17395 bound_to 11000

$$$$
