AV-unprocessed.smi:1439|AV-procd|sdf|5870|dock1
  -GOLD-   22720 5543D 1   1.00000     0.00000
 Structure written by MMmdl.
 36 37  0  0  0  0  0  0  0  0  1 V2000
  150.5280  138.3570  153.2836 N   0  0  0  0  0  0  0  0  0  0  0  0
  150.9821  138.9759  154.3767 C   0  0  0  0  0  0  0  0  0  0  0  0
  150.6975  140.1429  154.6375 O   0  0  0  0  0  0  0  0  0  0  0  0
  151.8887  138.1720  155.3102 C   0  0  0  0  0  0  0  0  0  0  0  0
  151.2944  136.8194  155.5768 C   0  0  0  0  0  0  0  0  0  0  0  0
  151.4098  136.0829  156.7317 C   0  0  0  0  0  0  0  0  0  0  0  0
  150.5692  134.5605  156.6254 S   0  0  0  0  0  0  0  0  0  0  0  0
  150.0899  134.9886  154.9822 C   0  0  0  0  0  0  0  0  0  0  0  0
  149.3090  134.2194  154.0843 N   0  0  0  0  0  0  0  0  0  0  0  0
  149.0288  132.9061  154.1469 C   0  0  0  0  0  0  0  0  0  0  0  0
  149.4215  132.1512  155.0367 O   0  0  0  0  0  0  0  0  0  0  0  0
  148.1516  132.3705  153.0101 C   0  0  0  0  0  0  0  0  0  0  0  0
  147.0523  133.3529  152.5639 C   0  0  0  0  0  0  0  0  0  0  0  0
  146.1885  132.7919  151.4245 C   0  0  1  0  0  0  0  0  0  0  0  0
  145.4440  131.5088  151.7874 C   0  0  0  0  0  0  0  0  0  0  0  0
  144.3004  131.5340  150.7993 C   0  0  0  0  0  0  0  0  0  0  0  0
  143.9570  133.0207  150.7566 C   0  0  0  0  0  0  0  0  0  0  0  0
  145.1649  133.7148  151.0601 O   0  0  0  0  0  0  0  0  0  0  0  0
  150.5398  136.1804  154.5858 N   0  0  0  0  0  0  0  0  0  0  0  0
  149.9217  138.8502  152.6444 H   0  0  0  0  0  0  0  0  0  0  0  0
  150.7867  137.3977  153.1031 H   0  0  0  0  0  0  0  0  0  0  0  0
  152.8822  138.0837  154.8677 H   0  0  0  0  0  0  0  0  0  0  0  0
  152.0176  138.7217  156.2433 H   0  0  0  0  0  0  0  0  0  0  0  0
  151.9357  136.3468  157.6374 H   0  0  0  0  0  0  0  0  0  0  0  0
  148.9216  134.7252  153.3012 H   0  0  0  0  0  0  0  0  0  0  0  0
  148.7980  132.1283  152.1659 H   0  0  0  0  0  0  0  0  0  0  0  0
  147.6922  131.4347  153.3317 H   0  0  0  0  0  0  0  0  0  0  0  0
  146.4089  133.5867  153.4134 H   0  0  0  0  0  0  0  0  0  0  0  0
  147.4999  134.2958  152.2457 H   0  0  0  0  0  0  0  0  0  0  0  0
  146.8030  132.6068  150.5419 H   0  0  0  0  0  0  0  0  0  0  0  0
  146.0655  130.6170  151.7016 H   0  0  0  0  0  0  0  0  0  0  0  0
  145.0569  131.5607  152.8062 H   0  0  0  0  0  0  0  0  0  0  0  0
  144.6450  131.1985  149.8202 H   0  0  0  0  0  0  0  0  0  0  0  0
  143.4583  130.9094  151.0988 H   0  0  0  0  0  0  0  0  0  0  0  0
  143.5555  133.3250  149.7897 H   0  0  0  0  0  0  0  0  0  0  0  0
  143.2187  133.2642  151.5215 H   0  0  0  0  0  0  0  0  0  0  0  0
  1  2  1  0  0  0  0
  1 20  1  0  0  0  0
  1 21  1  0  0  0  0
  2  3  2  0  0  0  0
  2  4  1  0  0  0  0
  4  5  1  0  0  0  0
  4 22  1  0  0  0  0
  4 23  1  0  0  0  0
  5 19  1  0  0  0  0
  5  6  2  0  0  0  0
  6  7  1  0  0  0  0
  6 24  1  0  0  0  0
  7  8  1  0  0  0  0
  8  9  1  0  0  0  0
  8 19  2  0  0  0  0
  9 10  1  0  0  0  0
  9 25  1  0  0  0  0
 10 11  2  0  0  0  0
 10 12  1  0  0  0  0
 12 13  1  0  0  0  0
 12 26  1  0  0  0  0
 12 27  1  0  0  0  0
 13 14  1  0  0  0  0
 13 28  1  0  0  0  0
 13 29  1  0  0  0  0
 14 18  1  0  0  0  0
 14 15  1  0  0  0  0
 14 30  1  0  0  0  0
 15 16  1  0  0  0  0
 15 31  1  0  0  0  0
 15 32  1  0  0  0  0
 16 17  1  0  0  0  0
 16 33  1  0  0  0  0
 16 34  1  0  0  0  0
 17 18  1  0  0  0  0
 17 35  1  0  0  0  0
 17 36  1  0  0  0  0
M  END
> <s_m_source_file>
AV-unprocessed.smi

> <i_m_source_file_index>
1439

> <i_lp_mmshare_version>
43012

> <i_f3d_flags>
0

> <s_epik_input>
W05IMl1DKD1PKVtDSDJdYzFbY0hdc2MobjEpW05IXUMoPU8pW0NIMl1bQ0gyXVtDQEBIXTJbQ0gyXVtDSDJdW0NIMl1PMg==

> <s_epik_cmdline>
J2VwaWtfcHl0aG9uJywgJy1waCcsICc3LjAnLCAnLXRuJywgJzgnLCAnLW1hJywgJzIwMCcsICctbWV0YWxfYmluZGluZycsICctaW1hZScsICc8aW5maWxlLm1hZT4nLCAnLW9tYWUnLCAnPG91dGZpbGUubWFlPic=

> <r_lp_tautomer_probability>
1

> <r_epik_Ionization_Penalty>
0.000300833

> <r_epik_Ionization_Penalty_Charging>
0

> <r_epik_Ionization_Penalty_Neutral>
0.000300833

> <r_epik_State_Penalty>
-0

> <r_epik_Charging_Adjusted_Penalty>
0

> <i_epik_Tot_Q>
0

> <i_epik_Tot_abs_Q>
0

> <r_epik_Metal_State_Penalty>
0.167159

> <b_epik_Metal_Only>
0

> <s_lp_Force_Field>
OPLS_2005

> <r_lp_Energy>
15.0487

> <b_lp_Chiralities_Consistent>
1

> <s_lp_Variant>
AV-unprocessed.smi:1439-2

> <Gold.Version>
5.8.1

> <Gold.Id.Protein>
6NUR|6NUR_protein|mol2

> <Gold.PLP.Fitness>
41.1067

> <Gold.PLP.PLP>
-33.1468

> <Gold.PLP.part.hbond>
-4.9443

> <Gold.PLP.part.metal>
0.0000

> <Gold.PLP.part.buried>
-2.3490

> <Gold.PLP.part.nonpolar>
-26.2639

> <Gold.PLP.part.repulsive>
0.6335

> <Gold.PLP.ligand.clash>
0.0000

> <Gold.PLP.ligand.torsion>
0.8986

> <Gold.PLP.Chemscore.Hbond>
3.2110

> <Gold.PLP.Chemscore.CHOScore>
0.0000

> <Gold.PLP.Chemscore.Metal>
0.0000

> <Gold.Chemscore.Hbonds>
donor molecule, donor type, donor heavy atom, donor atom, acceptor molecule, acceptor atom, score
      L1  H     1    20       P1  7957  1.00
      L1  H     1    21       P1  7949  0.44
      L1  H     9    25       P1  7948  0.88
      P1  H  7989  7998       L1     3  0.90

> <Gold.PLP.Chemscore.Internal.Correction>
0.1239

> <Gold.Rescore>
     Score         DG    S(hbond)    S(metal)    S(lipo)     H(rot)  DE(clash)    DE(int)     intcor
      7.45     -11.44       1.45        0.00      65.61       2.56       1.65       2.33       ----

> <Gold.Chemscore.Fitness>
7.4532

> <Gold.Chemscore.DG>
-11.4350

> <Gold.Chemscore.ZeroCoef>
-5.4800

> <Gold.Chemscore.Hbond>
1.4467

> <Gold.Chemscore.Metal>
0.0000

> <Gold.Chemscore.Lipo>
65.6079

> <Gold.Chemscore.Internal_Hbond>
0.0000

> <Gold.Chemscore.DEClash>
1.6490

> <Gold.Chemscore.DEInternal>
2.3328

> <Gold.Chemscore.Rot>
2.5598

> <Gold.Chemscore.Internal.Correction>
   9.000000E+99

> <Gold.Chemscore.Hbonds>
donor molecule, donor type, donor heavy atom, donor atom, acceptor molecule, acceptor atom, score
      L1  H     1    20       P1  7957  0.58
      L1  H     1    21       P1  7949  0.06
      L1  H     9    25       P1  7948  0.16
      P1  H  7989  7998       L1     3  0.18

> <Gold.Chemscore.Hbond.Weighted>
-4.8321

> <Gold.Chemscore.Metal.Weighted>
-0.0000

> <Gold.Chemscore.Lipo.Weighted>
-7.6761

> <Gold.Chemscore.Internal_Hbond.Weighted>
0.0000

> <Gold.Chemscore.DEClash.Weighted>
1.6490

> <Gold.Chemscore.DEInternal.Weighted>
2.3328

> <Gold.Chemscore.Rot.Weighted>
6.5532

> <Gold.Chemscore.Internal.Correction.Weighted>
   9.000000E+99

> <Gold.Protein.RotatedTorsions>
[ 6907 6896 6895 6894 ] final  -78.31 input  -60.11 | X-H torsion
[ 7974 7965 7964 7962 ] final  -15.08 input  175.53 | X-H torsion
[ 8008 7997 7996 7995 ] final  -62.35 input   59.86 | X-H torsion
[ 10167 10162 10161 10158 ] final   17.73 input  -65.29 | X-H torsion
[ 10718 10713 10712 10709 ] final  149.34 input   66.30 | X-H torsion
[ 10763 10752 10751 10750 ] final  -81.86 input  -60.55 | X-H torsion
[ 11005 11000 10999 10996 ] final   23.13 input  -57.11 | X-H torsion

> <Gold.Protein.ActiveResidues>
 VAL166  LYS551  ARG553  GLY616  TRP617  ASP618  TYR619  PRO620  LYS621  CYS622 
 ASP623  PHE694  ASN695  SER759  ASP760  ASP761  ALA762  ILE779  LEU786  VAL792 
 PHE793  MET794  SER795  GLU796  ALA797  LYS798  CYS799  TRP800  GLU811  SER814 

> <Gold.Protein.RotatedAtoms>
  150.6976  134.4290  159.5239 H   0  0  0  0  0  0  0  0  0  0  0  0  # atno 6907 bound_to 6896
  152.2020  134.8576  160.0516 H   0  0  0  0  0  0  0  0  0  0  0  0  # atno 6908 bound_to 6896
  151.9493  133.3626  159.4031 H   0  0  0  0  0  0  0  0  0  0  0  0  # atno 6909 bound_to 6896
  146.2047  140.3441  142.8411 H   0  0  0  0  0  0  0  0  0  0  0  0  # atno 7974 bound_to 7965
  154.4495  140.0998  156.6574 H   0  0  0  0  0  0  0  0  0  0  0  0  # atno 8008 bound_to 7997
  155.5331  140.3482  155.4412 H   0  0  0  0  0  0  0  0  0  0  0  0  # atno 8009 bound_to 7997
  156.0650  140.1335  156.9885 H   0  0  0  0  0  0  0  0  0  0  0  0  # atno 8010 bound_to 7997
  140.5705  143.9170  150.6709 H   0  0  0  0  0  0  0  0  0  0  0  0  # atno 10167 bound_to 10162
  157.2973  131.0864  151.1417 H   0  0  0  0  0  0  0  0  0  0  0  0  # atno 10718 bound_to 10713
  154.5687  135.5611  153.7075 H   0  0  0  0  0  0  0  0  0  0  0  0  # atno 10763 bound_to 10752
  153.0041  135.6291  154.2144 H   0  0  0  0  0  0  0  0  0  0  0  0  # atno 10764 bound_to 10752
  154.2083  135.2875  155.2947 H   0  0  0  0  0  0  0  0  0  0  0  0  # atno 10765 bound_to 10752
  140.3730  134.2002  155.7666 H   0  0  0  0  0  0  0  0  0  0  0  0  # atno 11005 bound_to 11000
  144.8765  140.7343  143.6014 LP  0  0  0  0  0  0  0  0  0  0  0  0  # atno 17320 bound_to 7965
  145.3361  139.1745  143.4511 LP  0  0  0  0  0  0  0  0  0  0  0  0  # atno 17321 bound_to 7965
  140.2644  143.3500  152.1294 LP  0  0  0  0  0  0  0  0  0  0  0  0  # atno 17342 bound_to 10162
  139.5115  144.6901  151.5782 LP  0  0  0  0  0  0  0  0  0  0  0  0  # atno 17343 bound_to 10162
  157.2790  130.6741  149.6056 LP  0  0  0  0  0  0  0  0  0  0  0  0  # atno 17370 bound_to 10713
  155.9670  130.4455  150.5506 LP  0  0  0  0  0  0  0  0  0  0  0  0  # atno 17371 bound_to 10713
  141.1948  133.8119  157.0740 LP  0  0  0  0  0  0  0  0  0  0  0  0  # atno 17394 bound_to 11000
  140.0537  134.9792  157.1182 LP  0  0  0  0  0  0  0  0  0  0  0  0  # atno 17395 bound_to 11000

$$$$
