AV-unprocessed.smi:1775|AV-procd|sdf|7171|dock5
  -GOLD-   22720 8413D 1   1.00000     0.00000
 Structure written by MMmdl.
 38 40  0  0  0  0  0  0  0  0  1 V2000
  149.7677  142.8361  158.4890 O   0  0  0  0  0  0  0  0  0  0  0  0
  150.6802  142.1169  158.0833 C   0  0  0  0  0  0  0  0  0  0  0  0
  150.6493  141.3659  156.9672 N   0  0  0  0  0  0  0  0  0  0  0  0
  149.6347  141.2561  156.0021 C   0  0  0  0  0  0  0  0  0  0  0  0
  148.4156  141.8494  156.0898 C   0  0  0  0  0  0  0  0  0  0  0  0
  147.4121  141.7078  155.0483 C   0  0  0  0  0  0  0  0  0  0  0  0
  146.0237  142.3105  155.1964 C   0  0  0  0  0  0  0  0  0  0  0  0
  145.0866  141.3631  155.2517 F   0  0  0  0  0  0  0  0  0  0  0  0
  145.9395  143.0478  156.3038 F   0  0  0  0  0  0  0  0  0  0  0  0
  145.7585  143.0970  154.1544 F   0  0  0  0  0  0  0  0  0  0  0  0
  147.7490  140.9477  153.9897 C   0  0  0  0  0  0  0  0  0  0  0  0
  149.0085  140.3536  153.8812 N   0  0  0  0  0  0  0  0  0  0  0  0
  149.9811  140.4582  154.8144 C   0  0  0  0  0  0  0  0  0  0  0  0
  151.0677  139.9064  154.6434 O   0  0  0  0  0  0  0  0  0  0  0  0
  151.8485  141.9658  158.7259 N   0  0  0  0  0  0  0  0  0  0  0  0
  152.2456  142.5996  159.9818 C   0  0  0  0  0  0  0  0  0  0  0  0
  152.4265  144.1067  159.8773 C   0  0  0  0  0  0  0  0  0  0  0  0
  151.3091  144.9969  159.3880 C   0  0  0  0  0  0  0  0  0  0  0  0
  152.5407  144.7888  158.5353 C   0  0  0  0  0  0  0  0  0  0  0  0
  153.4524  141.9515  160.6448 C   0  0  0  0  0  0  0  0  0  0  0  0
  154.5743  141.3676  159.8208 C   0  0  0  0  0  0  0  0  0  0  0  0
  153.6592  140.4560  160.6081 C   0  0  0  0  0  0  0  0  0  0  0  0
  149.1904  139.8123  153.0482 H   0  0  0  0  0  0  0  0  0  0  0  0
  151.4437  140.7624  156.8104 H   0  0  0  0  0  0  0  0  0  0  0  0
  148.1603  142.4695  156.9338 H   0  0  0  0  0  0  0  0  0  0  0  0
  147.0916  140.7346  153.1594 H   0  0  0  0  0  0  0  0  0  0  0  0
  152.5293  141.3484  158.3084 H   0  0  0  0  0  0  0  0  0  0  0  0
  151.3969  142.4327  160.6468 H   0  0  0  0  0  0  0  0  0  0  0  0
  153.0401  144.5287  160.6715 H   0  0  0  0  0  0  0  0  0  0  0  0
  150.3869  144.5242  159.0561 H   0  0  0  0  0  0  0  0  0  0  0  0
  151.1890  145.9632  159.8736 H   0  0  0  0  0  0  0  0  0  0  0  0
  153.2426  145.6161  158.4519 H   0  0  0  0  0  0  0  0  0  0  0  0
  152.4362  144.1741  157.6433 H   0  0  0  0  0  0  0  0  0  0  0  0
  153.7527  142.4345  161.5730 H   0  0  0  0  0  0  0  0  0  0  0  0
  154.4651  141.3750  158.7379 H   0  0  0  0  0  0  0  0  0  0  0  0
  155.5891  141.5054  160.1884 H   0  0  0  0  0  0  0  0  0  0  0  0
  154.0649  139.9841  161.5008 H   0  0  0  0  0  0  0  0  0  0  0  0
  152.9480  139.8547  160.0452 H   0  0  0  0  0  0  0  0  0  0  0  0
  1  2  2  0  0  0  0
  2  3  1  0  0  0  0
  2 15  1  0  0  0  0
  3  4  1  0  0  0  0
  3 24  1  0  0  0  0
  4 13  1  0  0  0  0
  4  5  2  0  0  0  0
  5  6  1  0  0  0  0
  5 25  1  0  0  0  0
  6  7  1  0  0  0  0
  6 11  2  0  0  0  0
  7  8  1  0  0  0  0
  7  9  1  0  0  0  0
  7 10  1  0  0  0  0
 11 12  1  0  0  0  0
 11 26  1  0  0  0  0
 12 23  1  0  0  0  0
 12 13  1  0  0  0  0
 13 14  2  0  0  0  0
 15 16  1  0  0  0  0
 15 27  1  0  0  0  0
 16 17  1  0  0  0  0
 16 20  1  0  0  0  0
 16 28  1  0  0  0  0
 17 19  1  0  0  0  0
 17 18  1  0  0  0  0
 17 29  1  0  0  0  0
 18 19  1  0  0  0  0
 18 30  1  0  0  0  0
 18 31  1  0  0  0  0
 19 32  1  0  0  0  0
 19 33  1  0  0  0  0
 20 22  1  0  0  0  0
 20 21  1  0  0  0  0
 20 34  1  0  0  0  0
 21 22  1  0  0  0  0
 21 35  1  0  0  0  0
 21 36  1  0  0  0  0
 22 37  1  0  0  0  0
 22 38  1  0  0  0  0
M  END
> <s_m_source_file>
AV-unprocessed.smi

> <i_m_source_file_index>
1775

> <i_lp_mmshare_version>
43012

> <i_f3d_flags>
0

> <s_epik_input>
W0NIMl0xW0NIMl1bQ0hdMVtDSF0oW0NIXTJbQ0gyXVtDSDJdMilbTkhdQyg9TylbTkhdYzNbY0hdYyhDKEYpKEYpRilbY0hdW25IXWMzPU8=

> <s_epik_cmdline>
J2VwaWtfcHl0aG9uJywgJy1waCcsICc3LjAnLCAnLXRuJywgJzgnLCAnLW1hJywgJzIwMCcsICctbWV0YWxfYmluZGluZycsICctaW1hZScsICc8aW5maWxlLm1hZT4nLCAnLW9tYWUnLCAnPG91dGZpbGUubWFlPic=

> <r_lp_tautomer_probability>
1

> <r_epik_Ionization_Penalty>
0.00370881

> <r_epik_Ionization_Penalty_Charging>
0.00368697

> <r_epik_Ionization_Penalty_Neutral>
2.18468e-05

> <r_epik_State_Penalty>
-0

> <r_epik_Charging_Adjusted_Penalty>
0.00368697

> <i_epik_Tot_Q>
0

> <i_epik_Tot_abs_Q>
0

> <r_epik_Metal_State_Penalty>
0.370005

> <b_epik_Metal_Only>
0

> <s_lp_Force_Field>
OPLS_2005

> <r_lp_Energy>
35.723

> <b_lp_Chiralities_Consistent>
1

> <s_lp_Variant>
AV-unprocessed.smi:1775-1

> <Gold.Version>
5.8.1

> <Gold.Id.Protein>
6NUR|6NUR_protein|mol2

> <Gold.PLP.Fitness>
51.9883

> <Gold.PLP.PLP>
-46.9970

> <Gold.PLP.part.hbond>
-2.0000

> <Gold.PLP.part.metal>
0.0000

> <Gold.PLP.part.buried>
-4.5450

> <Gold.PLP.part.nonpolar>
-41.2102

> <Gold.PLP.part.repulsive>
0.5100

> <Gold.PLP.ligand.clash>
0.0000

> <Gold.PLP.ligand.torsion>
1.4244

> <Gold.PLP.Chemscore.Hbond>
1.8480

> <Gold.PLP.Chemscore.CHOScore>
0.0000

> <Gold.PLP.Chemscore.Metal>
0.0000

> <Gold.Chemscore.Hbonds>
donor molecule, donor type, donor heavy atom, donor atom, acceptor molecule, acceptor atom, score
      L1  H    12    23       P1  7957  0.82
      P1  H  7989  7998       L1    14  0.90

> <Gold.PLP.Chemscore.Internal.Correction>
2.2961

> <Gold.Rescore>
     Score         DG    S(hbond)    S(metal)    S(lipo)     H(rot)  DE(clash)    DE(int)     intcor
     14.68     -19.29       1.81        0.00      99.33       1.51       0.47       4.14       ----

> <Gold.Chemscore.Fitness>
14.6774

> <Gold.Chemscore.DG>
-19.2884

> <Gold.Chemscore.ZeroCoef>
-5.4800

> <Gold.Chemscore.Hbond>
1.8087

> <Gold.Chemscore.Metal>
0.0000

> <Gold.Chemscore.Lipo>
99.3296

> <Gold.Chemscore.Internal_Hbond>
0.0000

> <Gold.Chemscore.DEClash>
0.4745

> <Gold.Chemscore.DEInternal>
4.1365

> <Gold.Chemscore.Rot>
1.5056

> <Gold.Chemscore.Internal.Correction>
   9.000000E+99

> <Gold.Chemscore.Hbonds>
donor molecule, donor type, donor heavy atom, donor atom, acceptor molecule, acceptor atom, score
      L1  H    12    23       P1  7957  0.81
      P1  H  7989  7998       L1    14  0.18

> <Gold.Chemscore.Hbond.Weighted>
-6.0410

> <Gold.Chemscore.Metal.Weighted>
-0.0000

> <Gold.Chemscore.Lipo.Weighted>
-11.6216

> <Gold.Chemscore.Internal_Hbond.Weighted>
0.0000

> <Gold.Chemscore.DEClash.Weighted>
0.4745

> <Gold.Chemscore.DEInternal.Weighted>
4.1365

> <Gold.Chemscore.Rot.Weighted>
3.8542

> <Gold.Chemscore.Internal.Correction.Weighted>
   9.000000E+99

> <Gold.Protein.RotatedTorsions>
[ 6907 6896 6895 6894 ] final  -43.41 input  -60.11 | X-H torsion
[ 7974 7965 7964 7962 ] final  -57.20 input  175.53 | X-H torsion
[ 8008 7997 7996 7995 ] final   59.73 input   59.86 | X-H torsion
[ 10167 10162 10161 10158 ] final -142.66 input  -65.29 | X-H torsion
[ 10718 10713 10712 10709 ] final  139.17 input   66.30 | X-H torsion
[ 10763 10752 10751 10750 ] final  126.40 input  -60.55 | X-H torsion
[ 11005 11000 10999 10996 ] final   73.70 input  -57.11 | X-H torsion

> <Gold.Protein.ActiveResidues>
 VAL166  LYS551  ARG553  GLY616  TRP617  ASP618  TYR619  PRO620  LYS621  CYS622 
 ASP623  PHE694  ASN695  SER759  ASP760  ASP761  ALA762  ILE779  LEU786  VAL792 
 PHE793  MET794  SER795  GLU796  ALA797  LYS798  CYS799  TRP800  GLU811  SER814 

> <Gold.Protein.RotatedAtoms>
  150.9443  134.8849  159.7631 H   0  0  0  0  0  0  0  0  0  0  0  0  # atno 6907 bound_to 6896
  152.5093  134.3897  159.9390 H   0  0  0  0  0  0  0  0  0  0  0  0  # atno 6908 bound_to 6896
  151.3917  133.3746  159.2756 H   0  0  0  0  0  0  0  0  0  0  0  0  # atno 6909 bound_to 6896
  145.8538  140.8334  142.9972 H   0  0  0  0  0  0  0  0  0  0  0  0  # atno 7974 bound_to 7965
  155.5709  140.3490  155.4515 H   0  0  0  0  0  0  0  0  0  0  0  0  # atno 8008 bound_to 7997
  156.0445  140.1303  157.0144 H   0  0  0  0  0  0  0  0  0  0  0  0  # atno 8009 bound_to 7997
  154.4406  140.1017  156.6271 H   0  0  0  0  0  0  0  0  0  0  0  0  # atno 8010 bound_to 7997
  139.8068  143.7758  152.2661 H   0  0  0  0  0  0  0  0  0  0  0  0  # atno 10167 bound_to 10162
  157.4173  131.1035  151.0391 H   0  0  0  0  0  0  0  0  0  0  0  0  # atno 10718 bound_to 10713
  153.6928  135.3296  155.3206 H   0  0  0  0  0  0  0  0  0  0  0  0  # atno 10763 bound_to 10752
  154.8435  135.4435  154.1491 H   0  0  0  0  0  0  0  0  0  0  0  0  # atno 10764 bound_to 10752
  153.2537  135.6984  153.7729 H   0  0  0  0  0  0  0  0  0  0  0  0  # atno 10765 bound_to 10752
  139.9427  134.7369  156.1058 H   0  0  0  0  0  0  0  0  0  0  0  0  # atno 11005 bound_to 11000
  144.6728  140.0992  143.7461 LP  0  0  0  0  0  0  0  0  0  0  0  0  # atno 17320 bound_to 7965
  145.9327  139.2617  143.1315 LP  0  0  0  0  0  0  0  0  0  0  0  0  # atno 17321 bound_to 7965
  139.7895  144.7415  150.9975 LP  0  0  0  0  0  0  0  0  0  0  0  0  # atno 17342 bound_to 10162
  140.7819  143.4457  151.0486 LP  0  0  0  0  0  0  0  0  0  0  0  0  # atno 17343 bound_to 10162
  157.1334  130.6112  149.5535 LP  0  0  0  0  0  0  0  0  0  0  0  0  # atno 17370 bound_to 10713
  155.9869  130.4906  150.7101 LP  0  0  0  0  0  0  0  0  0  0  0  0  # atno 17371 bound_to 10713
  141.1067  133.6657  156.2881 LP  0  0  0  0  0  0  0  0  0  0  0  0  # atno 17394 bound_to 11000
  140.5911  134.5649  157.5499 LP  0  0  0  0  0  0  0  0  0  0  0  0  # atno 17395 bound_to 11000

$$$$
