AV-unprocessed.smi:29|AV-procd|sdf|191|dock2
  -GOLD-   2262015453D 1   1.00000     0.00000
 Structure written by MMmdl.
 56 59  0  0  0  0  0  0  0  0  1 V2000
  151.7401  136.7494  159.1558 O   0  0  0  0  0  0  0  0  0  0  0  0
  151.1036  137.7838  158.9547 C   0  0  0  0  0  0  0  0  0  0  0  0
  149.7120  137.7188  158.3070 C   0  0  0  0  0  0  0  0  0  0  0  0
  148.9406  136.5246  158.7129 N   0  0  0  0  0  0  0  0  0  0  0  0
  148.9416  135.3855  157.8694 C   0  0  0  0  0  0  0  0  0  0  0  0
  149.5565  135.3812  156.8022 O   0  0  0  0  0  0  0  0  0  0  0  0
  148.1835  134.2392  158.3582 C   0  0  0  0  0  0  0  0  0  0  0  0
  148.1376  133.1117  157.6285 F   0  0  0  0  0  0  0  0  0  0  0  0
  147.5300  134.2900  159.5369 C   0  0  0  0  0  0  0  0  0  0  0  0
  147.5320  135.4113  160.3463 N   0  0  0  0  0  0  0  0  0  0  0  0
  146.7993  135.4303  161.6693 C   0  0  2  0  0  0  0  0  0  0  0  0
  147.3060  134.2994  162.5716 C   0  0  0  0  0  0  0  0  0  0  0  0
  146.3136  133.1966  162.2740 C   0  0  0  0  0  0  0  0  0  0  0  0
  145.0297  133.9896  162.0578 C   0  0  0  0  0  0  0  0  0  0  0  0
  145.4370  135.2089  161.4414 O   0  0  0  0  0  0  0  0  0  0  0  0
  148.2574  136.5560  159.9520 C   0  0  0  0  0  0  0  0  0  0  0  0
  148.3018  137.5537  160.6755 O   0  0  0  0  0  0  0  0  0  0  0  0
  151.5479  139.0239  159.2265 N   0  0  0  0  0  0  0  0  0  0  0  0
  152.7825  139.4439  159.8030 C   0  0  0  0  0  0  0  0  0  0  0  0
  153.6513  138.5612  160.4912 C   0  0  0  0  0  0  0  0  0  0  0  0
  154.8567  139.0248  161.0575 C   0  0  0  0  0  0  0  0  0  0  0  0
  155.7654  138.0459  161.7862 C   0  0  0  0  0  0  0  0  0  0  0  0
  156.8507  138.6446  162.2787 F   0  0  0  0  0  0  0  0  0  0  0  0
  155.1017  137.4829  162.7959 F   0  0  0  0  0  0  0  0  0  0  0  0
  156.1536  137.0910  160.9414 F   0  0  0  0  0  0  0  0  0  0  0  0
  155.1987  140.3873  160.9374 C   0  0  0  0  0  0  0  0  0  0  0  0
  154.3354  141.2764  160.2726 C   0  0  0  0  0  0  0  0  0  0  0  0
  153.1229  140.8171  159.7101 C   0  0  0  0  0  0  0  0  0  0  0  0
  152.2551  141.7136  159.0637 N   0  0  0  0  0  0  0  0  0  0  0  0
  152.4872  143.1104  159.4073 C   0  0  0  0  0  0  0  0  0  0  0  0
  151.3923  143.9919  158.7823 C   0  0  0  0  0  0  0  0  0  0  0  0
  151.3484  143.7729  157.3748 O   0  0  0  0  0  0  0  0  0  0  0  0
  151.0447  142.4182  157.0520 C   0  0  0  0  0  0  0  0  0  0  0  0
  152.1316  141.4943  157.6287 C   0  0  0  0  0  0  0  0  0  0  0  0
  149.1557  138.6280  158.5438 H   0  0  0  0  0  0  0  0  0  0  0  0
  149.8414  137.7648  157.2248 H   0  0  0  0  0  0  0  0  0  0  0  0
  146.9918  133.4083  159.8512 H   0  0  0  0  0  0  0  0  0  0  0  0
  146.9444  136.4292  162.0840 H   0  0  0  0  0  0  0  0  0  0  0  0
  148.3438  134.0332  162.3661 H   0  0  0  0  0  0  0  0  0  0  0  0
  147.2217  134.6196  163.6109 H   0  0  0  0  0  0  0  0  0  0  0  0
  146.5947  132.6722  161.3599 H   0  0  0  0  0  0  0  0  0  0  0  0
  146.2327  132.4643  163.0777 H   0  0  0  0  0  0  0  0  0  0  0  0
  144.3029  133.4550  161.4459 H   0  0  0  0  0  0  0  0  0  0  0  0
  144.5626  134.2225  163.0156 H   0  0  0  0  0  0  0  0  0  0  0  0
  150.9460  139.7769  158.9253 H   0  0  0  0  0  0  0  0  0  0  0  0
  153.4095  137.5176  160.6140 H   0  0  0  0  0  0  0  0  0  0  0  0
  156.1184  140.7638  161.3595 H   0  0  0  0  0  0  0  0  0  0  0  0
  154.6094  142.3189  160.2010 H   0  0  0  0  0  0  0  0  0  0  0  0
  152.4905  143.2298  160.4915 H   0  0  0  0  0  0  0  0  0  0  0  0
  153.4662  143.4248  159.0434 H   0  0  0  0  0  0  0  0  0  0  0  0
  150.4188  143.7752  159.2252 H   0  0  0  0  0  0  0  0  0  0  0  0
  151.6020  145.0445  158.9729 H   0  0  0  0  0  0  0  0  0  0  0  0
  150.0610  142.1525  157.4430 H   0  0  0  0  0  0  0  0  0  0  0  0
  150.9965  142.3123  155.9682 H   0  0  0  0  0  0  0  0  0  0  0  0
  153.0850  141.6951  157.1386 H   0  0  0  0  0  0  0  0  0  0  0  0
  151.8794  140.4513  157.4338 H   0  0  0  0  0  0  0  0  0  0  0  0
  1  2  2  0  0  0  0
  2  3  1  0  0  0  0
  2 18  1  0  0  0  0
  3  4  1  0  0  0  0
  3 35  1  0  0  0  0
  3 36  1  0  0  0  0
  4 16  1  0  0  0  0
  4  5  1  0  0  0  0
  5  6  2  0  0  0  0
  5  7  1  0  0  0  0
  7  8  1  0  0  0  0
  7  9  2  0  0  0  0
  9 10  1  0  0  0  0
  9 37  1  0  0  0  0
 10 11  1  0  0  0  0
 10 16  1  0  0  0  0
 11 15  1  0  0  0  0
 11 12  1  0  0  0  0
 11 38  1  0  0  0  0
 12 13  1  0  0  0  0
 12 39  1  0  0  0  0
 12 40  1  0  0  0  0
 13 14  1  0  0  0  0
 13 41  1  0  0  0  0
 13 42  1  0  0  0  0
 14 15  1  0  0  0  0
 14 43  1  0  0  0  0
 14 44  1  0  0  0  0
 16 17  2  0  0  0  0
 18 19  1  0  0  0  0
 18 45  1  0  0  0  0
 19 28  1  0  0  0  0
 19 20  2  0  0  0  0
 20 21  1  0  0  0  0
 20 46  1  0  0  0  0
 21 22  1  0  0  0  0
 21 26  2  0  0  0  0
 22 23  1  0  0  0  0
 22 24  1  0  0  0  0
 22 25  1  0  0  0  0
 26 27  1  0  0  0  0
 26 47  1  0  0  0  0
 27 28  2  0  0  0  0
 27 48  1  0  0  0  0
 28 29  1  0  0  0  0
 29 34  1  0  0  0  0
 29 30  1  0  0  0  0
 30 31  1  0  0  0  0
 30 49  1  0  0  0  0
 30 50  1  0  0  0  0
 31 32  1  0  0  0  0
 31 51  1  0  0  0  0
 31 52  1  0  0  0  0
 32 33  1  0  0  0  0
 33 34  1  0  0  0  0
 33 53  1  0  0  0  0
 33 54  1  0  0  0  0
 34 55  1  0  0  0  0
 34 56  1  0  0  0  0
M  END
> <s_m_source_file>
AV-unprocessed.smi

> <i_m_source_file_index>
29

> <i_lp_mmshare_version>
43012

> <i_f3d_flags>
0

> <s_epik_input>
TzFbQ0gyXVtDSDJdW0NIMl1bQ0BIXTFuKGMyPU8pW2NIXWMoRiljKD1PKW4yW0NIMl1DKD1PKVtOSF1jM1tjSF1jKEMoRikoRilGKVtjSF1bY0hdYzNONFtDSDJdW0NIMl1PW0NIMl1bQ0gyXTQ=

> <s_epik_cmdline>
J2VwaWtfcHl0aG9uJywgJy1waCcsICc3LjAnLCAnLXRuJywgJzgnLCAnLW1hJywgJzIwMCcsICctbWV0YWxfYmluZGluZycsICctaW1hZScsICc8aW5maWxlLm1hZT4nLCAnLW9tYWUnLCAnPG91dGZpbGUubWFlPic=

> <r_lp_tautomer_probability>
1

> <r_epik_Ionization_Penalty>
3.5967e-06

> <r_epik_Ionization_Penalty_Charging>
3.88729e-08

> <r_epik_Ionization_Penalty_Neutral>
3.55783e-06

> <r_epik_State_Penalty>
-0

> <r_epik_Charging_Adjusted_Penalty>
3.88729e-08

> <i_epik_Tot_Q>
0

> <i_epik_Tot_abs_Q>
0

> <r_epik_Metal_State_Penalty>
-0

> <b_epik_Metal_Only>
0

> <s_epik_Chemistry_Notes>
This compound contains an acetal/aminal-like group ( X-CH(R)-Y where X, Y are N, S, or O) that may be acid/base labile, releasing an aldehyde.

> <s_lp_Force_Field>
OPLS_2005

> <r_lp_Energy>
49.5757

> <b_lp_Chiralities_Consistent>
1

> <s_lp_Variant>
AV-unprocessed.smi:29-1

> <Gold.Version>
5.8.1

> <Gold.Id.Protein>
6NUR|6NUR_protein|mol2

> <Gold.PLP.Fitness>
52.7632

> <Gold.PLP.PLP>
-48.2041

> <Gold.PLP.part.hbond>
-2.6171

> <Gold.PLP.part.metal>
0.0000

> <Gold.PLP.part.buried>
-5.6427

> <Gold.PLP.part.nonpolar>
-39.6987

> <Gold.PLP.part.repulsive>
0.3568

> <Gold.PLP.ligand.clash>
0.2461

> <Gold.PLP.ligand.torsion>
1.0422

> <Gold.PLP.Chemscore.Hbond>
2.1920

> <Gold.PLP.Chemscore.CHOScore>
0.0000

> <Gold.PLP.Chemscore.Metal>
0.0000

> <Gold.Chemscore.Hbonds>
donor molecule, donor type, donor heavy atom, donor atom, acceptor molecule, acceptor atom, score
      P1  H  6896  6907       L1     1  1.00
      P1  H  6931  6943       L1    17  0.64
      P1  H  6934  6947       L1    17  0.51

> <Gold.PLP.Chemscore.Internal.Correction>
0.3136

> <Gold.Rescore>
     Score         DG    S(hbond)    S(metal)    S(lipo)     H(rot)  DE(clash)    DE(int)     intcor
     18.63     -22.15       2.49        0.00     114.49       1.96       0.22       3.31       ----

> <Gold.Chemscore.Fitness>
18.6291

> <Gold.Chemscore.DG>
-22.1541

> <Gold.Chemscore.ZeroCoef>
-5.4800

> <Gold.Chemscore.Hbond>
2.4870

> <Gold.Chemscore.Metal>
0.0000

> <Gold.Chemscore.Lipo>
114.4914

> <Gold.Chemscore.Internal_Hbond>
0.0000

> <Gold.Chemscore.DEClash>
0.2171

> <Gold.Chemscore.DEInternal>
3.3079

> <Gold.Chemscore.Rot>
1.9641

> <Gold.Chemscore.Internal.Correction>
   9.000000E+99

> <Gold.Chemscore.Hbonds>
donor molecule, donor type, donor heavy atom, donor atom, acceptor molecule, acceptor atom, score
      P1  H  6896  6907       L1     1  0.95
      P1  H  6931  6943       L1    17  0.63
      P1  H  6934  6947       L1    17  0.50

> <Gold.Chemscore.Hbond.Weighted>
-8.3066

> <Gold.Chemscore.Metal.Weighted>
-0.0000

> <Gold.Chemscore.Lipo.Weighted>
-13.3955

> <Gold.Chemscore.Internal_Hbond.Weighted>
0.0000

> <Gold.Chemscore.DEClash.Weighted>
0.2171

> <Gold.Chemscore.DEInternal.Weighted>
3.3079

> <Gold.Chemscore.Rot.Weighted>
5.0280

> <Gold.Chemscore.Internal.Correction.Weighted>
   9.000000E+99

> <Gold.Protein.RotatedTorsions>
[ 6907 6896 6895 6894 ] final   -2.57 input  -60.11 | X-H torsion
[ 7974 7965 7964 7962 ] final  -19.24 input  175.53 | X-H torsion
[ 8008 7997 7996 7995 ] final  -81.57 input   59.86 | X-H torsion
[ 10167 10162 10161 10158 ] final  -33.30 input  -65.29 | X-H torsion
[ 10718 10713 10712 10709 ] final  -92.63 input   66.30 | X-H torsion
[ 10763 10752 10751 10750 ] final -179.50 input  -60.55 | X-H torsion
[ 11005 11000 10999 10996 ] final   -8.78 input  -57.11 | X-H torsion

> <Gold.Protein.ActiveResidues>
 VAL166  LYS551  ARG553  GLY616  TRP617  ASP618  TYR619  PRO620  LYS621  CYS622 
 ASP623  PHE694  ASN695  SER759  ASP760  ASP761  ALA762  ILE779  LEU786  VAL792 
 PHE793  MET794  SER795  GLU796  ALA797  LYS798  CYS799  TRP800  GLU811  SER814 

> <Gold.Protein.RotatedAtoms>
  151.5278  135.1068  159.9894 H   0  0  0  0  0  0  0  0  0  0  0  0  # atno 6907 bound_to 6896
  152.4592  133.7782  159.6847 H   0  0  0  0  0  0  0  0  0  0  0  0  # atno 6908 bound_to 6896
  150.8547  133.7668  159.3038 H   0  0  0  0  0  0  0  0  0  0  0  0  # atno 6909 bound_to 6896
  146.1851  140.4035  142.8479 H   0  0  0  0  0  0  0  0  0  0  0  0  # atno 7974 bound_to 7965
  154.5997  140.0646  156.9352 H   0  0  0  0  0  0  0  0  0  0  0  0  # atno 8008 bound_to 7997
  155.2153  140.3326  155.4305 H   0  0  0  0  0  0  0  0  0  0  0  0  # atno 8009 bound_to 7997
  156.2310  140.1841  156.7226 H   0  0  0  0  0  0  0  0  0  0  0  0  # atno 8010 bound_to 7997
  140.7206  143.3630  151.1925 H   0  0  0  0  0  0  0  0  0  0  0  0  # atno 10167 bound_to 10162
  156.0004  130.4994  150.5654 H   0  0  0  0  0  0  0  0  0  0  0  0  # atno 10718 bound_to 10713
  154.5343  135.2802  155.1153 H   0  0  0  0  0  0  0  0  0  0  0  0  # atno 10763 bound_to 10752
  154.2660  135.6312  153.5296 H   0  0  0  0  0  0  0  0  0  0  0  0  # atno 10764 bound_to 10752
  152.9964  135.5617  154.5864 H   0  0  0  0  0  0  0  0  0  0  0  0  # atno 10765 bound_to 10752
  140.7271  133.8779  155.8865 H   0  0  0  0  0  0  0  0  0  0  0  0  # atno 11005 bound_to 11000
  144.8383  140.6817  143.6246 LP  0  0  0  0  0  0  0  0  0  0  0  0  # atno 17320 bound_to 7965
  145.3962  139.1606  143.4202 LP  0  0  0  0  0  0  0  0  0  0  0  0  # atno 17321 bound_to 7965
  139.7186  143.9260  152.2976 LP  0  0  0  0  0  0  0  0  0  0  0  0  # atno 17342 bound_to 10162
  139.9009  144.6912  150.8666 LP  0  0  0  0  0  0  0  0  0  0  0  0  # atno 17343 bound_to 10162
  157.3557  131.0741  151.1677 LP  0  0  0  0  0  0  0  0  0  0  0  0  # atno 17370 bound_to 10713
  157.2479  130.6600  149.5918 LP  0  0  0  0  0  0  0  0  0  0  0  0  # atno 17371 bound_to 10713
  140.9953  134.1224  157.4370 LP  0  0  0  0  0  0  0  0  0  0  0  0  # atno 17394 bound_to 11000
  139.8834  135.0052  156.6301 LP  0  0  0  0  0  0  0  0  0  0  0  0  # atno 17395 bound_to 11000

$$$$
