AV-unprocessed.smi:1815|AV-procd|sdf|7352|dock3
  -GOLD-   22720 9 13D 1   1.00000     0.00000
 Structure written by MMmdl.
 39 40  0  0  0  0  0  0  0  0  1 V2000
  150.7767  137.5950  155.6720 C   0  0  0  0  0  0  0  0  0  0  0  0
  150.9950  138.6117  154.5384 C   0  0  1  0  0  0  0  0  0  0  0  0
  149.7719  138.7632  153.6122 C   0  0  0  0  0  0  0  0  0  0  0  0
  148.6823  139.5099  154.2364 N   0  0  0  0  0  0  0  0  0  0  0  0
  147.5306  139.6728  153.3484 C   0  0  0  0  0  0  0  0  0  0  0  0
  146.3765  138.6759  153.5744 C   0  0  0  0  0  0  0  0  0  0  0  0
  146.6055  137.4106  152.8840 N   0  0  0  0  0  0  0  0  0  0  0  0
  145.6471  136.5416  152.5329 C   0  0  0  0  0  0  0  0  0  0  0  0
  144.4486  136.7319  152.7426 O   0  0  0  0  0  0  0  0  0  0  0  0
  146.1695  135.4556  151.9364 N   0  0  0  0  0  0  0  0  0  0  0  0
  145.4855  134.3250  151.4174 C   0  0  0  0  0  0  0  0  0  0  0  0
  144.1571  134.2462  151.2741 N   0  0  0  0  0  0  0  0  0  0  0  0
  143.7592  133.0198  150.7358 C   0  0  0  0  0  0  0  0  0  0  0  0
  144.8051  132.1702  150.4733 C   0  0  0  0  0  0  0  0  0  0  0  0
  146.3406  132.8816  150.8928 S   0  0  0  0  0  0  0  0  0  0  0  0
  149.1862  140.8018  154.6825 C   0  0  0  0  0  0  0  0  0  0  0  0
  150.3669  140.6526  155.6587 C   0  0  2  0  0  0  0  0  0  0  0  0
  150.9576  142.0081  156.0606 C   0  0  0  0  0  0  0  0  0  0  0  0
  151.3993  139.8866  155.0402 O   0  0  0  0  0  0  0  0  0  0  0  0
  150.5814  136.6013  155.2682 H   0  0  0  0  0  0  0  0  0  0  0  0
  149.9300  137.8608  156.3045 H   0  0  0  0  0  0  0  0  0  0  0  0
  151.6600  137.5254  156.3068 H   0  0  0  0  0  0  0  0  0  0  0  0
  151.8262  138.2428  153.9368 H   0  0  0  0  0  0  0  0  0  0  0  0
  150.0824  139.2731  152.6991 H   0  0  0  0  0  0  0  0  0  0  0  0
  149.4334  137.7724  153.3114 H   0  0  0  0  0  0  0  0  0  0  0  0
  147.1291  140.6796  153.4719 H   0  0  0  0  0  0  0  0  0  0  0  0
  147.8578  139.6128  152.3094 H   0  0  0  0  0  0  0  0  0  0  0  0
  146.2497  138.4952  154.6429 H   0  0  0  0  0  0  0  0  0  0  0  0
  145.4297  139.0919  153.2313 H   0  0  0  0  0  0  0  0  0  0  0  0
  147.5646  137.1729  152.6787 H   0  0  0  0  0  0  0  0  0  0  0  0
  147.1740  135.4356  151.8407 H   0  0  0  0  0  0  0  0  0  0  0  0
  142.7078  132.8349  150.5723 H   0  0  0  0  0  0  0  0  0  0  0  0
  144.7647  131.1733  150.0600 H   0  0  0  0  0  0  0  0  0  0  0  0
  149.4968  141.3942  153.8203 H   0  0  0  0  0  0  0  0  0  0  0  0
  148.3865  141.3596  155.1717 H   0  0  0  0  0  0  0  0  0  0  0  0
  150.0302  140.1438  156.5623 H   0  0  0  0  0  0  0  0  0  0  0  0
  150.2104  142.6325  156.5507 H   0  0  0  0  0  0  0  0  0  0  0  0
  151.3287  142.5501  155.1903 H   0  0  0  0  0  0  0  0  0  0  0  0
  151.7899  141.8800  156.7530 H   0  0  0  0  0  0  0  0  0  0  0  0
  1  2  1  0  0  0  0
  1 20  1  0  0  0  0
  1 21  1  0  0  0  0
  1 22  1  0  0  0  0
  2 19  1  0  0  0  0
  2  3  1  0  0  0  0
  2 23  1  0  0  0  0
  3  4  1  0  0  0  0
  3 24  1  0  0  0  0
  3 25  1  0  0  0  0
  4  5  1  0  0  0  0
  4 16  1  0  0  0  0
  5  6  1  0  0  0  0
  5 26  1  0  0  0  0
  5 27  1  0  0  0  0
  6  7  1  0  0  0  0
  6 28  1  0  0  0  0
  6 29  1  0  0  0  0
  7  8  1  0  0  0  0
  7 30  1  0  0  0  0
  8  9  2  0  0  0  0
  8 10  1  0  0  0  0
 10 11  1  0  0  0  0
 10 31  1  0  0  0  0
 11 15  1  0  0  0  0
 11 12  2  0  0  0  0
 12 13  1  0  0  0  0
 13 14  2  0  0  0  0
 13 32  1  0  0  0  0
 14 15  1  0  0  0  0
 14 33  1  0  0  0  0
 16 17  1  0  0  0  0
 16 34  1  0  0  0  0
 16 35  1  0  0  0  0
 17 18  1  0  0  0  0
 17 19  1  0  0  0  0
 17 36  1  0  0  0  0
 18 37  1  0  0  0  0
 18 38  1  0  0  0  0
 18 39  1  0  0  0  0
M  END
> <s_m_source_file>
AV-unprocessed.smi

> <i_m_source_file_index>
1815

> <i_lp_mmshare_version>
43012

> <i_f3d_flags>
0

> <s_epik_input>
W0NIM11bQ0BASF0xW0NIMl1OKFtDSDJdW0NASF0oTzEpW0NIM10pW0NIMl1bQ0gyXVtOSF1DKD1PKVtOSF1jMm5bY0hdW2NIXXMy

> <s_epik_cmdline>
J2VwaWtfcHl0aG9uJywgJy1waCcsICc3LjAnLCAnLXRuJywgJzgnLCAnLW1hJywgJzIwMCcsICctbWV0YWxfYmluZGluZycsICctaW1hZScsICc8aW5maWxlLm1hZT4nLCAnLW9tYWUnLCAnPG91dGZpbGUubWFlPic=

> <r_lp_tautomer_probability>
0.999

> <r_epik_Ionization_Penalty>
0.219201

> <r_epik_Ionization_Penalty_Charging>
0

> <r_epik_Ionization_Penalty_Neutral>
0.219201

> <r_epik_State_Penalty>
0.209349

> <r_epik_Charging_Adjusted_Penalty>
0.209349

> <i_epik_Tot_Q>
0

> <i_epik_Tot_abs_Q>
0

> <r_epik_Metal_State_Penalty>
0.247737

> <b_epik_Metal_Only>
0

> <s_lp_Force_Field>
OPLS_2005

> <r_lp_Energy>
25.7567

> <b_lp_Chiralities_Consistent>
1

> <s_lp_Variant>
AV-unprocessed.smi:1815-3

> <Gold.Version>
5.8.1

> <Gold.Id.Protein>
6NUR|6NUR_protein|mol2

> <Gold.PLP.Fitness>
40.6852

> <Gold.PLP.PLP>
-30.4193

> <Gold.PLP.part.hbond>
-3.0000

> <Gold.PLP.part.metal>
0.0000

> <Gold.PLP.part.buried>
-0.5174

> <Gold.PLP.part.nonpolar>
-27.6519

> <Gold.PLP.part.repulsive>
0.6464

> <Gold.PLP.ligand.clash>
0.0000

> <Gold.PLP.ligand.torsion>
0.8685

> <Gold.PLP.Chemscore.Hbond>
3.0000

> <Gold.PLP.Chemscore.CHOScore>
1.0000

> <Gold.PLP.Chemscore.Metal>
0.0000

> <Gold.Chemscore.Hbonds>
donor molecule, donor type, donor heavy atom, donor atom, acceptor molecule, acceptor atom, score
      L1  H     7    30       P1  7948  1.00
      L1  H    10    31       P1  7948  1.00
      P1  H  7989  7998       L1    19  1.00
      L1  C    13    32       P1 10186  0.94

> <Gold.PLP.Chemscore.Internal.Correction>
0.0028

> <Gold.Rescore>
     Score         DG    S(hbond)    S(metal)    S(lipo)     H(rot)  DE(clash)    DE(int)     intcor
     14.28     -16.59       1.95        0.00      74.34       1.60       0.16       2.16       ----

> <Gold.Chemscore.Fitness>
14.2762

> <Gold.Chemscore.DG>
-16.5950

> <Gold.Chemscore.ZeroCoef>
-5.4800

> <Gold.Chemscore.Hbond>
1.9503

> <Gold.Chemscore.Metal>
0.0000

> <Gold.Chemscore.Lipo>
74.3352

> <Gold.Chemscore.Internal_Hbond>
0.0000

> <Gold.Chemscore.DEClash>
0.1596

> <Gold.Chemscore.DEInternal>
2.1592

> <Gold.Chemscore.Rot>
1.6001

> <Gold.Chemscore.Internal.Correction>
   9.000000E+99

> <Gold.Chemscore.Hbonds>
donor molecule, donor type, donor heavy atom, donor atom, acceptor molecule, acceptor atom, score
      L1  H     7    30       P1  7948  0.98
      L1  H    10    31       P1  7948  0.97
      P1  H  7989  7998       L1    19  0.10

> <Gold.Chemscore.Hbond.Weighted>
-6.5140

> <Gold.Chemscore.Metal.Weighted>
-0.0000

> <Gold.Chemscore.Lipo.Weighted>
-8.6972

> <Gold.Chemscore.Internal_Hbond.Weighted>
0.0000

> <Gold.Chemscore.DEClash.Weighted>
0.1596

> <Gold.Chemscore.DEInternal.Weighted>
2.1592

> <Gold.Chemscore.Rot.Weighted>
4.0963

> <Gold.Chemscore.Internal.Correction.Weighted>
   9.000000E+99

> <Gold.Protein.RotatedTorsions>
[ 6907 6896 6895 6894 ] final  118.23 input  -60.11 | X-H torsion
[ 7974 7965 7964 7962 ] final -179.32 input  175.53 | X-H torsion
[ 8008 7997 7996 7995 ] final -175.07 input   59.86 | X-H torsion
[ 10167 10162 10161 10158 ] final -154.17 input  -65.29 | X-H torsion
[ 10718 10713 10712 10709 ] final  -58.90 input   66.30 | X-H torsion
[ 10763 10752 10751 10750 ] final  -37.83 input  -60.55 | X-H torsion
[ 11005 11000 10999 10996 ] final   27.36 input  -57.11 | X-H torsion

> <Gold.Protein.ActiveResidues>
 VAL166  LYS551  ARG553  GLY616  TRP617  ASP618  TYR619  PRO620  LYS621  CYS622 
 ASP623  PHE694  ASN695  SER759  ASP760  ASP761  ALA762  ILE779  LEU786  VAL792 
 PHE793  MET794  SER795  GLU796  ALA797  LYS798  CYS799  TRP800  GLU811  SER814 

> <Gold.Protein.RotatedAtoms>
  152.4557  133.7718  159.6802 H   0  0  0  0  0  0  0  0  0  0  0  0  # atno 6907 bound_to 6896
  150.8483  133.7817  159.3041 H   0  0  0  0  0  0  0  0  0  0  0  0  # atno 6908 bound_to 6896
  151.5421  135.1071  159.9980 H   0  0  0  0  0  0  0  0  0  0  0  0  # atno 6909 bound_to 6896
  144.7136  140.0736  143.6428 H   0  0  0  0  0  0  0  0  0  0  0  0  # atno 7974 bound_to 7965
  155.9780  140.1176  157.0753 H   0  0  0  0  0  0  0  0  0  0  0  0  # atno 8008 bound_to 7997
  154.4174  140.1150  156.5464 H   0  0  0  0  0  0  0  0  0  0  0  0  # atno 8009 bound_to 7997
  155.6509  140.3473  155.4750 H   0  0  0  0  0  0  0  0  0  0  0  0  # atno 8010 bound_to 7997
  139.7036  143.9223  152.2439 H   0  0  0  0  0  0  0  0  0  0  0  0  # atno 10167 bound_to 10162
  156.1101  130.4176  150.0641 H   0  0  0  0  0  0  0  0  0  0  0  0  # atno 10718 bound_to 10713
  153.9028  135.6800  153.4754 H   0  0  0  0  0  0  0  0  0  0  0  0  # atno 10763 bound_to 10752
  153.1120  135.4778  154.9049 H   0  0  0  0  0  0  0  0  0  0  0  0  # atno 10764 bound_to 10752
  154.7567  135.3199  154.8411 H   0  0  0  0  0  0  0  0  0  0  0  0  # atno 10765 bound_to 10752
  140.3271  134.2479  155.7708 H   0  0  0  0  0  0  0  0  0  0  0  0  # atno 11005 bound_to 11000
  145.9762  139.2907  143.1069 LP  0  0  0  0  0  0  0  0  0  0  0  0  # atno 17320 bound_to 7965
  145.9061  140.9211  143.0478 LP  0  0  0  0  0  0  0  0  0  0  0  0  # atno 17321 bound_to 7965
  139.9072  144.6877  150.8601 LP  0  0  0  0  0  0  0  0  0  0  0  0  # atno 17342 bound_to 10162
  140.7716  143.3470  151.2091 LP  0  0  0  0  0  0  0  0  0  0  0  0  # atno 17343 bound_to 10162
  156.8607  130.9490  151.3618 LP  0  0  0  0  0  0  0  0  0  0  0  0  # atno 17370 bound_to 10713
  157.6281  130.8707  149.9225 LP  0  0  0  0  0  0  0  0  0  0  0  0  # atno 17371 bound_to 10713
  141.2072  133.7811  157.0130 LP  0  0  0  0  0  0  0  0  0  0  0  0  # atno 17394 bound_to 11000
  140.0892  134.9602  157.1749 LP  0  0  0  0  0  0  0  0  0  0  0  0  # atno 17395 bound_to 11000

$$$$
