AV-unprocessed.smi:2030|AV-procd|sdf|8225|dock1
  -GOLD-   2272010493D 1   1.00000     0.00000
 Structure written by MMmdl.
 36 37  0  0  0  0  0  0  0  0  2 V2000
  153.2273  138.3853  154.2193 C   0  0  0  0  0  0  0  0  0  0  0  0
  151.8860  138.0926  154.7209 N   0  0  0  0  0  0  0  0  0  0  0  0
  151.6260  136.7540  154.9337 N   0  0  0  0  0  0  0  0  0  0  0  0
  150.4279  136.3129  155.1588 C   0  0  0  0  0  0  0  0  0  0  0  0
  150.1973  134.8578  155.3679 C   0  0  0  0  0  0  0  0  0  0  0  0
  150.9187  134.1998  156.1184 O   0  0  0  0  0  0  0  0  0  0  0  0
  149.1654  134.3198  154.6922 N   0  0  0  0  0  0  0  0  0  0  0  0
  148.7616  132.9205  154.7555 C   0  0  0  0  0  0  0  0  0  0  0  0
  148.5640  132.3238  153.3521 C   0  0  0  0  0  0  0  0  0  0  0  0
  147.1047  132.2920  152.9427 C   0  0  0  0  0  0  0  0  0  0  0  0
  146.0890  132.8733  153.7324 C   0  0  0  0  0  0  0  0  0  0  0  0
  144.7501  132.8019  153.2938 C   0  0  0  0  0  0  0  0  0  0  0  0
  144.4559  132.1520  152.0770 C   0  0  0  0  0  0  0  0  0  0  0  0
  145.5095  131.5883  151.3286 C   0  0  0  0  0  0  0  0  0  0  0  0
  146.7789  131.6765  151.7828 N   0  3  0  0  0  0  0  0  0  0  0  0
  149.2482  137.2650  155.1795 C   0  0  0  0  0  0  0  0  0  0  0  0
  149.6643  138.6943  155.5801 C   0  0  0  0  0  0  0  0  0  0  0  0
  151.0109  139.0979  154.9728 C   0  0  0  0  0  0  0  0  0  0  0  0
  151.2553  140.2862  154.7646 O   0  0  0  0  0  0  0  0  0  0  0  0
  153.7730  139.0129  154.9255 H   0  0  0  0  0  0  0  0  0  0  0  0
  153.1747  138.9111  153.2650 H   0  0  0  0  0  0  0  0  0  0  0  0
  153.8135  137.4783  154.0629 H   0  0  0  0  0  0  0  0  0  0  0  0
  148.6203  134.9292  154.0986 H   0  0  0  0  0  0  0  0  0  0  0  0
  149.5011  132.3474  155.3174 H   0  0  0  0  0  0  0  0  0  0  0  0
  147.8300  132.8619  155.3188 H   0  0  0  0  0  0  0  0  0  0  0  0
  149.1295  132.9002  152.6187 H   0  0  0  0  0  0  0  0  0  0  0  0
  148.9574  131.3073  153.3122 H   0  0  0  0  0  0  0  0  0  0  0  0
  146.3300  133.3665  154.6630 H   0  0  0  0  0  0  0  0  0  0  0  0
  143.9586  133.2399  153.8840 H   0  0  0  0  0  0  0  0  0  0  0  0
  143.4374  132.0864  151.7235 H   0  0  0  0  0  0  0  0  0  0  0  0
  145.3762  131.0731  150.3884 H   0  0  0  0  0  0  0  0  0  0  0  0
  148.7786  137.2767  154.1953 H   0  0  0  0  0  0  0  0  0  0  0  0
  148.4862  136.9201  155.8794 H   0  0  0  0  0  0  0  0  0  0  0  0
  148.8930  139.4090  155.2915 H   0  0  0  0  0  0  0  0  0  0  0  0
  149.7620  138.7575  156.6645 H   0  0  0  0  0  0  0  0  0  0  0  0
  147.5257  131.2600  151.2257 H   0  0  0  0  0  0  0  0  0  0  0  0
  1  2  1  0  0  0  0
  1 20  1  0  0  0  0
  1 21  1  0  0  0  0
  1 22  1  0  0  0  0
  2 18  1  0  0  0  0
  2  3  1  0  0  0  0
  3  4  2  0  0  0  0
  4  5  1  0  0  0  0
  4 16  1  0  0  0  0
  5  6  2  0  0  0  0
  5  7  1  0  0  0  0
  7  8  1  0  0  0  0
  7 23  1  0  0  0  0
  8  9  1  0  0  0  0
  8 24  1  0  0  0  0
  8 25  1  0  0  0  0
  9 10  1  0  0  0  0
  9 26  1  0  0  0  0
  9 27  1  0  0  0  0
 10 15  1  0  0  0  0
 10 11  2  0  0  0  0
 11 12  1  0  0  0  0
 11 28  1  0  0  0  0
 12 13  2  0  0  0  0
 12 29  1  0  0  0  0
 13 14  1  0  0  0  0
 13 30  1  0  0  0  0
 14 15  2  0  0  0  0
 14 31  1  0  0  0  0
 15 36  1  0  0  0  0
 16 17  1  0  0  0  0
 16 32  1  0  0  0  0
 16 33  1  0  0  0  0
 17 18  1  0  0  0  0
 17 34  1  0  0  0  0
 17 35  1  0  0  0  0
 18 19  2  0  0  0  0
M  CHG  1  15   1
M  END
> <s_m_source_file>
AV-unprocessed.smi

> <i_m_source_file_index>
2030

> <i_lp_mmshare_version>
43012

> <i_f3d_flags>
0

> <s_epik_input>
Tz1DMVtDSDJdW0NIMl1DKD1OTjFbQ0gzXSlDKD1PKVtOSF1bQ0gyXVtDSDJdYzJbY0hdW2NIXVtjSF1bY0hdbjI=

> <s_epik_cmdline>
J2VwaWtfcHl0aG9uJywgJy1waCcsICc3LjAnLCAnLXRuJywgJzgnLCAnLW1hJywgJzIwMCcsICctbWV0YWxfYmluZGluZycsICctaW1hZScsICc8aW5maWxlLm1hZT4nLCAnLW9tYWUnLCAnPG91dGZpbGUubWFlPic=

> <r_epik_Ionization_Penalty>
2.09642

> <r_epik_Ionization_Penalty_Charging>
2.0963

> <r_epik_Ionization_Penalty_Neutral>
0.00011851

> <r_epik_State_Penalty>
2.23213

> <r_epik_Charging_Adjusted_Penalty>
4.32843

> <i_epik_Tot_Q>
1

> <i_epik_Tot_abs_Q>
1

> <r_epik_Metal_State_Penalty>
2.41268

> <b_epik_Metal_Only>
0

> <s_epik_Chemistry_Notes>
This compound has an imine and may undergo hydrolysis.

> <s_lp_Force_Field>
OPLS_2005

> <r_lp_Energy>
21.0672

> <b_lp_Chiralities_Consistent>
1

> <s_lp_Variant>
AV-unprocessed.smi:2030-2

> <Gold.Version>
5.8.1

> <Gold.Id.Protein>
6NUR|6NUR_protein|mol2

> <Gold.PLP.Fitness>
42.6312

> <Gold.PLP.PLP>
-33.7360

> <Gold.PLP.part.hbond>
-4.0000

> <Gold.PLP.part.metal>
0.0000

> <Gold.PLP.part.buried>
-4.1997

> <Gold.PLP.part.nonpolar>
-27.3380

> <Gold.PLP.part.repulsive>
0.2706

> <Gold.PLP.ligand.clash>
0.0000

> <Gold.PLP.ligand.torsion>
1.1289

> <Gold.PLP.Chemscore.Hbond>
3.7120

> <Gold.PLP.Chemscore.CHOScore>
0.0000

> <Gold.PLP.Chemscore.Metal>
0.0000

> <Gold.Chemscore.Hbonds>
donor molecule, donor type, donor heavy atom, donor atom, acceptor molecule, acceptor atom, score
      L1  H    15    36       P1 10747  1.00
      P1  H  7989  7998       L1    19  0.78
      P1  H 10752 10763       L1     3  1.00

> <Gold.PLP.Chemscore.Internal.Correction>
0.0170

> <Gold.Rescore>
     Score         DG    S(hbond)    S(metal)    S(lipo)     H(rot)  DE(clash)    DE(int)     intcor
     18.62     -20.50       3.33        0.00      66.53       1.52       0.38       1.51       ----

> <Gold.Chemscore.Fitness>
18.6214

> <Gold.Chemscore.DG>
-20.5046

> <Gold.Chemscore.ZeroCoef>
-5.4800

> <Gold.Chemscore.Hbond>
3.3296

> <Gold.Chemscore.Metal>
0.0000

> <Gold.Chemscore.Lipo>
66.5275

> <Gold.Chemscore.Internal_Hbond>
0.0000

> <Gold.Chemscore.DEClash>
0.3756

> <Gold.Chemscore.DEInternal>
1.5076

> <Gold.Chemscore.Rot>
1.5157

> <Gold.Chemscore.Internal.Correction>
   9.000000E+99

> <Gold.Chemscore.Hbonds>
donor molecule, donor type, donor heavy atom, donor atom, acceptor molecule, acceptor atom, score
      L1  H    15    36       P1 10747  1.00
      P1  H  7989  7998       L1    19  0.76
      P1  H 10752 10763       L1     3  0.90

> <Gold.Chemscore.Hbond.Weighted>
-11.1210

> <Gold.Chemscore.Metal.Weighted>
-0.0000

> <Gold.Chemscore.Lipo.Weighted>
-7.7837

> <Gold.Chemscore.Internal_Hbond.Weighted>
0.0000

> <Gold.Chemscore.DEClash.Weighted>
0.3756

> <Gold.Chemscore.DEInternal.Weighted>
1.5076

> <Gold.Chemscore.Rot.Weighted>
3.8801

> <Gold.Chemscore.Internal.Correction.Weighted>
   9.000000E+99

> <Gold.Protein.RotatedTorsions>
[ 6907 6896 6895 6894 ] final    7.40 input  -60.11 | X-H torsion
[ 7974 7965 7964 7962 ] final  166.18 input  175.53 | X-H torsion
[ 8008 7997 7996 7995 ] final  -59.77 input   59.86 | X-H torsion
[ 10167 10162 10161 10158 ] final  105.79 input  -65.29 | X-H torsion
[ 10718 10713 10712 10709 ] final  152.91 input   66.30 | X-H torsion
[ 10763 10752 10751 10750 ] final   53.68 input  -60.55 | X-H torsion
[ 11005 11000 10999 10996 ] final  112.49 input  -57.11 | X-H torsion

> <Gold.Protein.ActiveResidues>
 VAL166  LYS551  ARG553  GLY616  TRP617  ASP618  TYR619  PRO620  LYS621  CYS622 
 ASP623  PHE694  ASN695  SER759  ASP760  ASP761  ALA762  ILE779  LEU786  VAL792 
 PHE793  MET794  SER795  GLU796  ALA797  LYS798  CYS799  TRP800  GLU811  SER814 

> <Gold.Protein.RotatedAtoms>
  151.6893  135.0949  160.0230 H   0  0  0  0  0  0  0  0  0  0  0  0  # atno 6907 bound_to 6896
  152.3788  133.6513  159.6153 H   0  0  0  0  0  0  0  0  0  0  0  0  # atno 6908 bound_to 6896
  150.7730  133.9065  159.3398 H   0  0  0  0  0  0  0  0  0  0  0  0  # atno 6909 bound_to 6896
  144.7473  139.8577  143.6378 H   0  0  0  0  0  0  0  0  0  0  0  0  # atno 7974 bound_to 7965
  154.4368  140.1054  156.6168 H   0  0  0  0  0  0  0  0  0  0  0  0  # atno 8008 bound_to 7997
  155.5750  140.3490  155.4506 H   0  0  0  0  0  0  0  0  0  0  0  0  # atno 8009 bound_to 7997
  156.0361  140.1271  157.0195 H   0  0  0  0  0  0  0  0  0  0  0  0  # atno 8010 bound_to 7997
  139.7063  144.7085  151.1101 H   0  0  0  0  0  0  0  0  0  0  0  0  # atno 10167 bound_to 10162
  157.2517  131.0780  151.1725 H   0  0  0  0  0  0  0  0  0  0  0  0  # atno 10718 bound_to 10713
  152.9797  135.5770  154.4781 H   0  0  0  0  0  0  0  0  0  0  0  0  # atno 10763 bound_to 10752
  154.4333  135.2774  155.1899 H   0  0  0  0  0  0  0  0  0  0  0  0  # atno 10764 bound_to 10752
  154.3598  135.6191  153.5738 H   0  0  0  0  0  0  0  0  0  0  0  0  # atno 10765 bound_to 10752
  139.8929  134.9531  156.6593 H   0  0  0  0  0  0  0  0  0  0  0  0  # atno 11005 bound_to 11000
  146.1371  139.4418  143.0132 LP  0  0  0  0  0  0  0  0  0  0  0  0  # atno 17320 bound_to 7965
  145.7076  141.0116  143.1471 LP  0  0  0  0  0  0  0  0  0  0  0  0  # atno 17321 bound_to 7965
  140.7722  143.5354  150.9375 LP  0  0  0  0  0  0  0  0  0  0  0  0  # atno 17342 bound_to 10162
  139.9037  143.6804  152.3127 LP  0  0  0  0  0  0  0  0  0  0  0  0  # atno 17343 bound_to 10162
  157.3271  130.6966  149.6302 LP  0  0  0  0  0  0  0  0  0  0  0  0  # atno 17370 bound_to 10713
  155.9666  130.4318  150.4937 LP  0  0  0  0  0  0  0  0  0  0  0  0  # atno 17371 bound_to 10713
  140.7459  133.8938  155.8312 LP  0  0  0  0  0  0  0  0  0  0  0  0  # atno 17394 bound_to 11000
  141.0040  134.1112  157.4289 LP  0  0  0  0  0  0  0  0  0  0  0  0  # atno 17395 bound_to 11000

$$$$
