AV-unprocessed.smi:158|AV-procd|sdf|1323|dock5
  -GOLD-   2262019 13D 1   1.00000     0.00000
 Structure written by MMmdl.
 31 33  0  0  0  0  0  0  0  0  1 V2000
  145.2248  138.5861  153.0496 N   0  0  0  0  0  0  0  0  0  0  0  0
  146.4164  138.6201  153.6627 C   0  0  0  0  0  0  0  0  0  0  0  0
  146.9866  137.4488  154.0296 N   0  0  0  0  0  0  0  0  0  0  0  0
  148.1760  137.4399  154.6436 C   0  0  0  0  0  0  0  0  0  0  0  0
  148.8122  135.8945  155.0675 Cl  0  0  0  0  0  0  0  0  0  0  0  0
  148.9289  138.4961  154.9667 N   0  0  0  0  0  0  0  0  0  0  0  0
  148.3586  139.6797  154.5993 C   0  0  0  0  0  0  0  0  0  0  0  0
  147.1067  139.8245  153.9438 C   0  0  0  0  0  0  0  0  0  0  0  0
  146.8406  141.1686  153.7215 N   0  0  0  0  0  0  0  0  0  0  0  0
  147.8817  141.7804  154.2197 C   0  0  0  0  0  0  0  0  0  0  0  0
  148.8432  140.9613  154.7708 N   0  0  0  0  0  0  0  0  0  0  0  0
  150.1317  141.3747  155.4135 C   0  0  2  0  0  0  0  0  0  0  0  0
  151.1561  140.6150  154.8467 O   0  0  0  0  0  0  0  0  0  0  0  0
  151.9817  140.0654  155.8681 C   0  0  2  0  0  0  0  0  0  0  0  0
  152.6221  138.7619  155.3639 C   0  0  0  0  0  0  0  0  0  0  0  0
  153.7480  139.0414  154.5586 O   0  0  0  0  0  0  0  0  0  0  0  0
  151.0399  139.8979  157.0645 C   0  0  1  0  0  0  0  0  0  0  0  0
  151.7427  139.9364  158.2901 O   0  0  0  0  0  0  0  0  0  0  0  0
  150.1335  141.1084  156.9292 C   0  0  2  0  0  0  0  0  0  0  0  0
  148.9051  140.8810  157.4010 F   0  0  0  0  0  0  0  0  0  0  0  0
  150.2399  142.4305  155.1628 H   0  0  0  0  0  0  0  0  0  0  0  0
  152.7502  140.8083  156.0915 H   0  0  0  0  0  0  0  0  0  0  0  0
  150.4658  138.9745  156.9854 H   0  0  0  0  0  0  0  0  0  0  0  0
  150.5441  141.9839  157.4344 H   0  0  0  0  0  0  0  0  0  0  0  0
  144.7817  139.4484  152.7668 H   0  0  0  0  0  0  0  0  0  0  0  0
  144.7726  137.7008  152.8720 H   0  0  0  0  0  0  0  0  0  0  0  0
  147.9762  142.8565  154.2018 H   0  0  0  0  0  0  0  0  0  0  0  0
  152.9153  138.1196  156.1946 H   0  0  0  0  0  0  0  0  0  0  0  0
  151.9048  138.2028  154.7628 H   0  0  0  0  0  0  0  0  0  0  0  0
  153.4625  139.1193  153.6609 H   0  0  0  0  0  0  0  0  0  0  0  0
  151.5458  140.7555  158.7196 H   0  0  0  0  0  0  0  0  0  0  0  0
  1  2  1  0  0  0  0
  1 25  1  0  0  0  0
  1 26  1  0  0  0  0
  2  8  1  0  0  0  0
  2  3  2  0  0  0  0
  3  4  1  0  0  0  0
  4  5  1  0  0  0  0
  4  6  2  0  0  0  0
  6  7  1  0  0  0  0
  7 11  1  0  0  0  0
  7  8  2  0  0  0  0
  8  9  1  0  0  0  0
  9 10  2  0  0  0  0
 10 11  1  0  0  0  0
 10 27  1  0  0  0  0
 11 12  1  0  0  0  0
 12 21  1  0  0  0  0
 12 19  1  0  0  0  0
 12 13  1  0  0  0  0
 13 14  1  0  0  0  0
 14 22  1  0  0  0  0
 14 15  1  0  0  0  0
 14 17  1  0  0  0  0
 15 16  1  0  0  0  0
 15 28  1  0  0  0  0
 15 29  1  0  0  0  0
 16 30  1  0  0  0  0
 17 23  1  0  0  0  0
 17 18  1  0  0  0  0
 17 19  1  0  0  0  0
 18 31  1  0  0  0  0
 19 24  1  0  0  0  0
 19 20  1  0  0  0  0
M  END
> <s_m_source_file>
AV-unprocessed.smi

> <i_m_source_file_index>
158

> <i_lp_mmshare_version>
43012

> <i_f3d_flags>
0

> <s_epik_input>
Q2xjKG4xKW5jKFtOSDJdKWMoYzEyKW5bY0hdbjJbQ0BASF0zT1tDQEhdKFtDSDJdW09IXSlbQ0BASF0oW09IXSlbQ0BASF0zRg==

> <s_epik_cmdline>
J2VwaWtfcHl0aG9uJywgJy1waCcsICc3LjAnLCAnLXRuJywgJzgnLCAnLW1hJywgJzIwMCcsICctbWV0YWxfYmluZGluZycsICctaW1hZScsICc8aW5maWxlLm1hZT4nLCAnLW9tYWUnLCAnPG91dGZpbGUubWFlPic=

> <r_lp_tautomer_probability>
1

> <r_epik_Ionization_Penalty>
6.51543e-05

> <r_epik_Ionization_Penalty_Charging>
0

> <r_epik_Ionization_Penalty_Neutral>
6.51543e-05

> <r_epik_State_Penalty>
-0

> <r_epik_Charging_Adjusted_Penalty>
0

> <i_epik_Tot_Q>
0

> <i_epik_Tot_abs_Q>
0

> <r_epik_Metal_State_Penalty>
-0

> <b_epik_Metal_Only>
0

> <s_epik_Chemistry_Notes>
This compound contains an acetal/aminal-like group ( X-CH(R)-Y where X, Y are N, S, or O) that may be acid/base labile, releasing an aldehyde.

> <s_lp_Force_Field>
OPLS_2005

> <r_lp_Energy>
34.2201

> <b_lp_Chiralities_Consistent>
1

> <s_lp_Variant>
AV-unprocessed.smi:158-1

> <Gold.Version>
5.8.1

> <Gold.Id.Protein>
6NUR|6NUR_protein|mol2

> <Gold.PLP.Fitness>
36.9479

> <Gold.PLP.PLP>
-25.6761

> <Gold.PLP.part.hbond>
-2.7752

> <Gold.PLP.part.metal>
0.0000

> <Gold.PLP.part.buried>
-5.1034

> <Gold.PLP.part.nonpolar>
-19.3301

> <Gold.PLP.part.repulsive>
0.4420

> <Gold.PLP.ligand.clash>
0.0000

> <Gold.PLP.ligand.torsion>
0.3390

> <Gold.PLP.Chemscore.Hbond>
2.9760

> <Gold.PLP.Chemscore.CHOScore>
0.9971

> <Gold.PLP.Chemscore.Metal>
0.0000

> <Gold.Chemscore.Hbonds>
donor molecule, donor type, donor heavy atom, donor atom, acceptor molecule, acceptor atom, score
      L1  H     1    25       P1 10175  0.99
      P1  H  7989  7998       L1    13  0.76
      P1  H  7997  8009       L1    16  0.70
      L1  C    10    27       P1  8028  1.00

> <Gold.PLP.Chemscore.Internal.Correction>
0.0306

> <Gold.Rescore>
     Score         DG    S(hbond)    S(metal)    S(lipo)     H(rot)  DE(clash)    DE(int)     intcor
      8.72      -9.74       2.66        0.00      28.86       3.12       0.01       1.00       ----

> <Gold.Chemscore.Fitness>
8.7247

> <Gold.Chemscore.DG>
-9.7358

> <Gold.Chemscore.ZeroCoef>
-5.4800

> <Gold.Chemscore.Hbond>
2.6569

> <Gold.Chemscore.Metal>
0.0000

> <Gold.Chemscore.Lipo>
28.8600

> <Gold.Chemscore.Internal_Hbond>
0.0000

> <Gold.Chemscore.DEClash>
0.0126

> <Gold.Chemscore.DEInternal>
0.9984

> <Gold.Chemscore.Rot>
3.1230

> <Gold.Chemscore.Internal.Correction>
   9.000000E+99

> <Gold.Chemscore.Hbonds>
donor molecule, donor type, donor heavy atom, donor atom, acceptor molecule, acceptor atom, score
      L1  H     1    25       P1 10175  0.92
      P1  H  7989  7998       L1    13  0.71
      P1  H  7997  8009       L1    16  0.07

> <Gold.Chemscore.Hbond.Weighted>
-8.8741

> <Gold.Chemscore.Metal.Weighted>
-0.0000

> <Gold.Chemscore.Lipo.Weighted>
-3.3766

> <Gold.Chemscore.Internal_Hbond.Weighted>
0.0000

> <Gold.Chemscore.DEClash.Weighted>
0.0126

> <Gold.Chemscore.DEInternal.Weighted>
0.9984

> <Gold.Chemscore.Rot.Weighted>
7.9950

> <Gold.Chemscore.Internal.Correction.Weighted>
   9.000000E+99

> <Gold.Protein.RotatedTorsions>
[ 6907 6896 6895 6894 ] final   11.05 input  -60.11 | X-H torsion
[ 7974 7965 7964 7962 ] final  -69.65 input  175.53 | X-H torsion
[ 8008 7997 7996 7995 ] final -131.92 input   59.86 | X-H torsion
[ 10167 10162 10161 10158 ] final -118.49 input  -65.29 | X-H torsion
[ 10718 10713 10712 10709 ] final   11.82 input   66.30 | X-H torsion
[ 10763 10752 10751 10750 ] final  131.00 input  -60.55 | X-H torsion
[ 11005 11000 10999 10996 ] final  178.51 input  -57.11 | X-H torsion

> <Gold.Protein.ActiveResidues>
 VAL166  LYS551  ARG553  GLY616  TRP617  ASP618  TYR619  PRO620  LYS621  CYS622 
 ASP623  PHE694  ASN695  SER759  ASP760  ASP761  ALA762  ILE779  LEU786  VAL792 
 PHE793  MET794  SER795  GLU796  ALA797  LYS798  CYS799  TRP800  GLU811  SER814 

> <Gold.Protein.RotatedAtoms>
  151.7482  135.0839  160.0326 H   0  0  0  0  0  0  0  0  0  0  0  0  # atno 6907 bound_to 6896
  152.3435  133.6090  159.5901 H   0  0  0  0  0  0  0  0  0  0  0  0  # atno 6908 bound_to 6896
  150.7494  133.9602  159.3555 H   0  0  0  0  0  0  0  0  0  0  0  0  # atno 6909 bound_to 6896
  145.7010  140.9116  143.0731 H   0  0  0  0  0  0  0  0  0  0  0  0  # atno 7974 bound_to 7965
  155.3203  140.0462  157.3039 H   0  0  0  0  0  0  0  0  0  0  0  0  # atno 8008 bound_to 7997
  154.5384  140.2280  155.8649 H   0  0  0  0  0  0  0  0  0  0  0  0  # atno 8009 bound_to 7997
  156.1857  140.3063  155.9240 H   0  0  0  0  0  0  0  0  0  0  0  0  # atno 8010 bound_to 7997
  140.0569  143.5005  152.2052 H   0  0  0  0  0  0  0  0  0  0  0  0  # atno 10167 bound_to 10162
  157.0012  130.6080  149.5696 H   0  0  0  0  0  0  0  0  0  0  0  0  # atno 10718 bound_to 10713
  153.7671  135.3187  155.3346 H   0  0  0  0  0  0  0  0  0  0  0  0  # atno 10763 bound_to 10752
  154.8209  135.4604  154.0780 H   0  0  0  0  0  0  0  0  0  0  0  0  # atno 10764 bound_to 10752
  153.2029  135.6925  153.8293 H   0  0  0  0  0  0  0  0  0  0  0  0  # atno 10765 bound_to 10752
  140.3960  134.6820  157.4534 H   0  0  0  0  0  0  0  0  0  0  0  0  # atno 11005 bound_to 11000
  144.6968  139.8947  143.7455 LP  0  0  0  0  0  0  0  0  0  0  0  0  # atno 17320 bound_to 7965
  146.0798  139.3786  143.0471 LP  0  0  0  0  0  0  0  0  0  0  0  0  # atno 17321 bound_to 7965
  139.5918  144.7553  151.3382 LP  0  0  0  0  0  0  0  0  0  0  0  0  # atno 17342 bound_to 10162
  140.7190  143.7187  150.7713 LP  0  0  0  0  0  0  0  0  0  0  0  0  # atno 17343 bound_to 10162
  156.0170  130.5265  150.8165 LP  0  0  0  0  0  0  0  0  0  0  0  0  # atno 17370 bound_to 10713
  157.5389  131.0940  150.9855 LP  0  0  0  0  0  0  0  0  0  0  0  0  # atno 17371 bound_to 10713
  140.0372  134.6320  155.9028 LP  0  0  0  0  0  0  0  0  0  0  0  0  # atno 17394 bound_to 11000
  141.1874  133.6560  156.5280 LP  0  0  0  0  0  0  0  0  0  0  0  0  # atno 17395 bound_to 11000

$$$$
