AV-unprocessed.smi:1935|AV-procd|sdf|7827|dock4
  -GOLD-   22720 9573D 1   1.00000     0.00000
 Structure written by MMmdl.
 52 54  0  0  0  0  0  0  0  0  1 V2000
  150.8481  134.8672  155.7410 O   0  0  0  0  0  0  0  0  0  0  0  0
  150.2419  135.3049  154.7630 C   0  0  0  0  0  0  0  0  0  0  0  0
  150.1302  136.6100  154.4799 N   0  0  0  0  0  0  0  0  0  0  0  0
  150.6708  137.6909  155.2943 C   0  0  0  0  0  0  0  0  0  0  0  0
  150.5229  139.0494  154.5853 C   0  0  0  0  0  0  0  0  0  0  0  0
  150.4716  140.1554  155.5480 N   0  0  0  0  0  0  0  0  0  0  0  0
  149.2770  141.0115  155.4833 C   0  0  0  0  0  0  0  0  0  0  0  0
  148.3182  140.8338  156.6827 C   0  0  0  0  0  0  0  0  0  0  0  0
  148.9709  140.4389  158.0224 C   0  0  0  0  0  0  0  0  0  0  0  0
  150.1475  141.3331  158.4675 C   0  0  0  0  0  0  0  0  0  0  0  0
  151.3011  141.5176  157.4520 C   0  0  0  0  0  0  0  0  0  0  0  0
  151.4607  140.3607  156.4518 C   0  0  0  0  0  0  0  0  0  0  0  0
  152.4738  139.6636  156.5080 O   0  0  0  0  0  0  0  0  0  0  0  0
  149.5883  134.5549  153.8606 N   0  0  0  0  0  0  0  0  0  0  0  0
  149.4176  133.1432  153.8702 C   0  0  0  0  0  0  0  0  0  0  0  0
  150.3689  132.2960  154.4883 C   0  0  0  0  0  0  0  0  0  0  0  0
  150.2042  130.9024  154.4106 C   0  0  0  0  0  0  0  0  0  0  0  0
  149.0986  130.4031  153.7020 C   0  0  0  0  0  0  0  0  0  0  0  0
  148.1907  131.1963  153.0986 N   0  0  0  0  0  0  0  0  0  0  0  0
  148.3272  132.5433  153.1770 C   0  0  0  0  0  0  0  0  0  0  0  0
  147.3326  133.3243  152.5436 N   0  0  0  0  0  0  0  0  0  0  0  0
  146.5713  134.2650  153.3614 C   0  0  0  0  0  0  0  0  0  0  0  0
  145.1414  134.2614  152.8106 C   0  0  0  0  0  0  0  0  0  0  0  0
  145.3028  133.7271  151.3911 C   0  0  0  0  0  0  0  0  0  0  0  0
  146.4468  132.7296  151.5484 C   0  0  0  0  0  0  0  0  0  0  0  0
  149.6149  136.8757  153.6535 H   0  0  0  0  0  0  0  0  0  0  0  0
  150.1872  137.7055  156.2726 H   0  0  0  0  0  0  0  0  0  0  0  0
  151.7254  137.4794  155.4735 H   0  0  0  0  0  0  0  0  0  0  0  0
  151.3502  139.1975  153.8898 H   0  0  0  0  0  0  0  0  0  0  0  0
  149.6255  139.0543  153.9638 H   0  0  0  0  0  0  0  0  0  0  0  0
  149.5882  142.0539  155.4128 H   0  0  0  0  0  0  0  0  0  0  0  0
  148.7266  140.8413  154.5570 H   0  0  0  0  0  0  0  0  0  0  0  0
  147.7432  141.7510  156.8120 H   0  0  0  0  0  0  0  0  0  0  0  0
  147.5890  140.0631  156.4306 H   0  0  0  0  0  0  0  0  0  0  0  0
  148.2072  140.4495  158.8007 H   0  0  0  0  0  0  0  0  0  0  0  0
  149.3034  139.4012  157.9695 H   0  0  0  0  0  0  0  0  0  0  0  0
  149.7620  142.3172  158.7359 H   0  0  0  0  0  0  0  0  0  0  0  0
  150.5569  140.9198  159.3898 H   0  0  0  0  0  0  0  0  0  0  0  0
  151.1674  142.4467  156.8982 H   0  0  0  0  0  0  0  0  0  0  0  0
  152.2373  141.6514  157.9955 H   0  0  0  0  0  0  0  0  0  0  0  0
  149.0484  135.0543  153.1689 H   0  0  0  0  0  0  0  0  0  0  0  0
  151.2319  132.6956  154.9994 H   0  0  0  0  0  0  0  0  0  0  0  0
  150.9156  130.2335  154.8717 H   0  0  0  0  0  0  0  0  0  0  0  0
  148.9408  129.3384  153.6127 H   0  0  0  0  0  0  0  0  0  0  0  0
  146.5910  134.0009  154.4198 H   0  0  0  0  0  0  0  0  0  0  0  0
  147.0074  135.2581  153.2521 H   0  0  0  0  0  0  0  0  0  0  0  0
  144.5263  133.5732  153.3919 H   0  0  0  0  0  0  0  0  0  0  0  0
  144.6714  135.2445  152.8464 H   0  0  0  0  0  0  0  0  0  0  0  0
  144.3932  133.2724  150.9979 H   0  0  0  0  0  0  0  0  0  0  0  0
  145.5991  134.5342  150.7195 H   0  0  0  0  0  0  0  0  0  0  0  0
  146.9664  132.5561  150.6059 H   0  0  0  0  0  0  0  0  0  0  0  0
  146.0501  131.7778  151.9036 H   0  0  0  0  0  0  0  0  0  0  0  0
  1  2  2  0  0  0  0
  2  3  1  0  0  0  0
  2 14  1  0  0  0  0
  3  4  1  0  0  0  0
  3 26  1  0  0  0  0
  4  5  1  0  0  0  0
  4 27  1  0  0  0  0
  4 28  1  0  0  0  0
  5  6  1  0  0  0  0
  5 29  1  0  0  0  0
  5 30  1  0  0  0  0
  6 12  1  0  0  0  0
  6  7  1  0  0  0  0
  7  8  1  0  0  0  0
  7 31  1  0  0  0  0
  7 32  1  0  0  0  0
  8  9  1  0  0  0  0
  8 33  1  0  0  0  0
  8 34  1  0  0  0  0
  9 10  1  0  0  0  0
  9 35  1  0  0  0  0
  9 36  1  0  0  0  0
 10 11  1  0  0  0  0
 10 37  1  0  0  0  0
 10 38  1  0  0  0  0
 11 12  1  0  0  0  0
 11 39  1  0  0  0  0
 11 40  1  0  0  0  0
 12 13  2  0  0  0  0
 14 15  1  0  0  0  0
 14 41  1  0  0  0  0
 15 20  1  0  0  0  0
 15 16  2  0  0  0  0
 16 17  1  0  0  0  0
 16 42  1  0  0  0  0
 17 18  2  0  0  0  0
 17 43  1  0  0  0  0
 18 19  1  0  0  0  0
 18 44  1  0  0  0  0
 19 20  2  0  0  0  0
 20 21  1  0  0  0  0
 21 25  1  0  0  0  0
 21 22  1  0  0  0  0
 22 23  1  0  0  0  0
 22 45  1  0  0  0  0
 22 46  1  0  0  0  0
 23 24  1  0  0  0  0
 23 47  1  0  0  0  0
 23 48  1  0  0  0  0
 24 25  1  0  0  0  0
 24 49  1  0  0  0  0
 24 50  1  0  0  0  0
 25 51  1  0  0  0  0
 25 52  1  0  0  0  0
M  END
> <s_m_source_file>
AV-unprocessed.smi

> <i_m_source_file_index>
1935

> <i_lp_mmshare_version>
43012

> <i_f3d_flags>
0

> <s_epik_input>
Tz1DMVtDSDJdW0NIMl1bQ0gyXVtDSDJdW0NIMl1OMVtDSDJdW0NIMl1bTkhdQyg9TylbTkhdYzJbY0hdW2NIXVtjSF1uYzJOM1tDSDJdW0NIMl1bQ0gyXVtDSDJdMw==

> <s_epik_cmdline>
J2VwaWtfcHl0aG9uJywgJy1waCcsICc3LjAnLCAnLXRuJywgJzgnLCAnLW1hJywgJzIwMCcsICctbWV0YWxfYmluZGluZycsICctaW1hZScsICc8aW5maWxlLm1hZT4nLCAnLW9tYWUnLCAnPG91dGZpbGUubWFlPic=

> <r_lp_tautomer_probability>
1

> <r_epik_Ionization_Penalty>
0.0963547

> <r_epik_Ionization_Penalty_Charging>
0

> <r_epik_Ionization_Penalty_Neutral>
0.0963547

> <r_epik_State_Penalty>
0.0859578

> <r_epik_Charging_Adjusted_Penalty>
0.0859578

> <i_epik_Tot_Q>
0

> <i_epik_Tot_abs_Q>
0

> <r_epik_Metal_State_Penalty>
0.0738802

> <b_epik_Metal_Only>
0

> <s_lp_Force_Field>
OPLS_2005

> <r_lp_Energy>
50.6255

> <b_lp_Chiralities_Consistent>
1

> <s_lp_Variant>
AV-unprocessed.smi:1935-1

> <Gold.Version>
5.8.1

> <Gold.Id.Protein>
6NUR|6NUR_protein|mol2

> <Gold.PLP.Fitness>
49.7078

> <Gold.PLP.PLP>
-42.1079

> <Gold.PLP.part.hbond>
-3.7082

> <Gold.PLP.part.metal>
0.0000

> <Gold.PLP.part.buried>
-3.9484

> <Gold.PLP.part.nonpolar>
-34.8178

> <Gold.PLP.part.repulsive>
0.3941

> <Gold.PLP.ligand.clash>
0.0000

> <Gold.PLP.ligand.torsion>
0.5577

> <Gold.PLP.Chemscore.Hbond>
2.7920

> <Gold.PLP.Chemscore.CHOScore>
0.0000

> <Gold.PLP.Chemscore.Metal>
0.0000

> <Gold.Chemscore.Hbonds>
donor molecule, donor type, donor heavy atom, donor atom, acceptor molecule, acceptor atom, score
      L1  H     3    26       P1  7948  0.86
      L1  H    14    41       P1  7948  0.88
      P1  H  7997  8008       L1    13  1.00

> <Gold.PLP.Chemscore.Internal.Correction>
0.3393

> <Gold.Rescore>
     Score         DG    S(hbond)    S(metal)    S(lipo)     H(rot)  DE(clash)    DE(int)     intcor
     15.13     -18.28       2.59        0.00      71.02       1.63       0.12       3.03       ----

> <Gold.Chemscore.Fitness>
15.1335

> <Gold.Chemscore.DG>
-18.2760

> <Gold.Chemscore.ZeroCoef>
-5.4800

> <Gold.Chemscore.Hbond>
2.5897

> <Gold.Chemscore.Metal>
0.0000

> <Gold.Chemscore.Lipo>
71.0222

> <Gold.Chemscore.Internal_Hbond>
0.0000

> <Gold.Chemscore.DEClash>
0.1170

> <Gold.Chemscore.DEInternal>
3.0255

> <Gold.Chemscore.Rot>
1.6262

> <Gold.Chemscore.Internal.Correction>
   9.000000E+99

> <Gold.Chemscore.Hbonds>
donor molecule, donor type, donor heavy atom, donor atom, acceptor molecule, acceptor atom, score
      L1  H     3    26       P1  7948  0.63
      L1  H    14    41       P1  7948  0.17
      P1  H  7997  8008       L1    13  1.00

> <Gold.Chemscore.Hbond.Weighted>
-8.6496

> <Gold.Chemscore.Metal.Weighted>
-0.0000

> <Gold.Chemscore.Lipo.Weighted>
-8.3096

> <Gold.Chemscore.Internal_Hbond.Weighted>
0.0000

> <Gold.Chemscore.DEClash.Weighted>
0.1170

> <Gold.Chemscore.DEInternal.Weighted>
3.0255

> <Gold.Chemscore.Rot.Weighted>
4.1632

> <Gold.Chemscore.Internal.Correction.Weighted>
   9.000000E+99

> <Gold.Protein.RotatedTorsions>
[ 6907 6896 6895 6894 ] final  147.52 input  -60.11 | X-H torsion
[ 7974 7965 7964 7962 ] final  110.59 input  175.53 | X-H torsion
[ 8008 7997 7996 7995 ] final  -41.36 input   59.86 | X-H torsion
[ 10167 10162 10161 10158 ] final    6.54 input  -65.29 | X-H torsion
[ 10718 10713 10712 10709 ] final   -5.28 input   66.30 | X-H torsion
[ 10763 10752 10751 10750 ] final -142.35 input  -60.55 | X-H torsion
[ 11005 11000 10999 10996 ] final    3.15 input  -57.11 | X-H torsion

> <Gold.Protein.ActiveResidues>
 VAL166  LYS551  ARG553  GLY616  TRP617  ASP618  TYR619  PRO620  LYS621  CYS622 
 ASP623  PHE694  ASN695  SER759  ASP760  ASP761  ALA762  ILE779  LEU786  VAL792 
 PHE793  MET794  SER795  GLU796  ALA797  LYS798  CYS799  TRP800  GLU811  SER814 

> <Gold.Protein.RotatedAtoms>
  152.1537  133.4538  159.4825 H   0  0  0  0  0  0  0  0  0  0  0  0  # atno 6907 bound_to 6896
  150.6898  134.2157  159.4386 H   0  0  0  0  0  0  0  0  0  0  0  0  # atno 6908 bound_to 6896
  152.0055  134.9904  160.0617 H   0  0  0  0  0  0  0  0  0  0  0  0  # atno 6909 bound_to 6896
  145.2530  139.2732  143.4057 H   0  0  0  0  0  0  0  0  0  0  0  0  # atno 7974 bound_to 7965
  154.4005  140.1501  156.3179 H   0  0  0  0  0  0  0  0  0  0  0  0  # atno 8008 bound_to 7997
  155.8556  140.3456  155.5701 H   0  0  0  0  0  0  0  0  0  0  0  0  # atno 8009 bound_to 7997
  155.7936  140.0860  157.1986 H   0  0  0  0  0  0  0  0  0  0  0  0  # atno 8010 bound_to 7997
  140.6422  143.7747  150.7445 H   0  0  0  0  0  0  0  0  0  0  0  0  # atno 10167 bound_to 10162
  156.7489  130.5233  149.5808 H   0  0  0  0  0  0  0  0  0  0  0  0  # atno 10718 bound_to 10713
  154.8512  135.3498  154.6014 H   0  0  0  0  0  0  0  0  0  0  0  0  # atno 10763 bound_to 10752
  153.6623  135.6989  153.5178 H   0  0  0  0  0  0  0  0  0  0  0  0  # atno 10764 bound_to 10752
  153.2808  135.4264  155.1034 H   0  0  0  0  0  0  0  0  0  0  0  0  # atno 10765 bound_to 10752
  140.5963  133.9877  155.8111 H   0  0  0  0  0  0  0  0  0  0  0  0  # atno 11005 bound_to 11000
  146.3297  140.2926  142.8616 LP  0  0  0  0  0  0  0  0  0  0  0  0  # atno 17320 bound_to 7965
  144.9486  140.8154  143.5586 LP  0  0  0  0  0  0  0  0  0  0  0  0  # atno 17321 bound_to 7965
  140.1381  143.4466  152.2211 LP  0  0  0  0  0  0  0  0  0  0  0  0  # atno 17342 bound_to 10162
  139.5631  144.7418  151.4097 LP  0  0  0  0  0  0  0  0  0  0  0  0  # atno 17343 bound_to 10162
  156.1414  130.6247  151.0472 LP  0  0  0  0  0  0  0  0  0  0  0  0  # atno 17370 bound_to 10713
  157.6786  131.0844  150.7430 LP  0  0  0  0  0  0  0  0  0  0  0  0  # atno 17371 bound_to 10713
  141.0902  133.9929  157.3250 LP  0  0  0  0  0  0  0  0  0  0  0  0  # atno 17394 bound_to 11000
  139.9252  135.0201  156.8208 LP  0  0  0  0  0  0  0  0  0  0  0  0  # atno 17395 bound_to 11000

$$$$
