AV-unprocessed.smi:2521|AV-procd|sdf|9917|dock7
  -GOLD-   2272013553D 1   1.00000     0.00000
 Structure written by MMmdl.
 35 36  0  0  0  0  0  0  0  0  2 V2000
  147.6459  127.9930  151.7365 C   0  0  0  0  0  0  0  0  0  0  0  0
  146.6610  128.9943  152.3577 C   0  0  0  0  0  0  0  0  0  0  0  0
  145.5198  129.3860  151.4078 C   0  0  0  0  0  0  0  0  0  0  0  0
  147.3560  130.1909  152.9286 C   0  0  0  0  0  0  0  0  0  0  0  0
  148.3787  130.1042  153.7822 N   0  0  0  0  0  0  0  0  0  0  0  0
  148.8512  131.3511  154.1598 N   0  0  0  0  0  0  0  0  0  0  0  0
  148.1855  132.3749  153.5938 C   0  0  0  0  0  0  0  0  0  0  0  0
  148.4320  133.6917  153.7776 N   0  5  0  0  0  0  0  0  0  0  0  0
  148.9235  134.2498  154.9135 C   0  0  0  0  0  0  0  0  0  0  0  0
  148.9857  133.7414  156.0346 O   0  0  0  0  0  0  0  0  0  0  0  0
  149.3787  135.4972  154.7340 N   0  0  0  0  0  0  0  0  0  0  0  0
  149.9608  136.3381  155.7728 C   0  0  0  0  0  0  0  0  0  0  0  0
  150.7576  137.5002  155.1583 C   0  0  2  0  0  0  0  0  0  0  0  0
  151.6400  138.2506  156.1364 C   0  0  0  0  0  0  0  0  0  0  0  0
  151.8852  139.5628  155.3973 C   0  0  0  0  0  0  0  0  0  0  0  0
  150.7246  139.7876  154.6012 O   0  0  0  0  0  0  0  0  0  0  0  0
  149.8873  138.6352  154.6206 C   0  0  0  0  0  0  0  0  0  0  0  0
  146.8907  131.8346  152.5258 S   0  0  0  0  0  0  0  0  0  0  0  0
  148.3901  127.6723  152.4661 H   0  0  0  0  0  0  0  0  0  0  0  0
  148.1760  128.4308  150.8898 H   0  0  0  0  0  0  0  0  0  0  0  0
  147.1278  127.1028  151.3793 H   0  0  0  0  0  0  0  0  0  0  0  0
  146.1947  128.4812  153.1995 H   0  0  0  0  0  0  0  0  0  0  0  0
  144.7959  130.0285  151.9100 H   0  0  0  0  0  0  0  0  0  0  0  0
  144.9870  128.5048  151.0493 H   0  0  0  0  0  0  0  0  0  0  0  0
  145.8952  129.9241  150.5368 H   0  0  0  0  0  0  0  0  0  0  0  0
  149.3155  135.8892  153.8059 H   0  0  0  0  0  0  0  0  0  0  0  0
  149.1627  136.7298  156.4052 H   0  0  0  0  0  0  0  0  0  0  0  0
  150.6066  135.7313  156.4098 H   0  0  0  0  0  0  0  0  0  0  0  0
  151.3789  137.1244  154.3433 H   0  0  0  0  0  0  0  0  0  0  0  0
  151.1020  138.4400  157.0665 H   0  0  0  0  0  0  0  0  0  0  0  0
  152.5625  137.7217  156.3775 H   0  0  0  0  0  0  0  0  0  0  0  0
  152.0690  140.3943  156.0780 H   0  0  0  0  0  0  0  0  0  0  0  0
  152.7466  139.4711  154.7346 H   0  0  0  0  0  0  0  0  0  0  0  0
  149.4845  138.4192  153.6308 H   0  0  0  0  0  0  0  0  0  0  0  0
  149.0490  138.8318  155.2904 H   0  0  0  0  0  0  0  0  0  0  0  0
  1  2  1  0  0  0  0
  1 19  1  0  0  0  0
  1 20  1  0  0  0  0
  1 21  1  0  0  0  0
  2  3  1  0  0  0  0
  2  4  1  0  0  0  0
  2 22  1  0  0  0  0
  3 23  1  0  0  0  0
  3 24  1  0  0  0  0
  3 25  1  0  0  0  0
  4 18  1  0  0  0  0
  4  5  2  0  0  0  0
  5  6  1  0  0  0  0
  6  7  2  0  0  0  0
  7  8  1  0  0  0  0
  7 18  1  0  0  0  0
  8  9  1  0  0  0  0
  9 10  2  0  0  0  0
  9 11  1  0  0  0  0
 11 12  1  0  0  0  0
 11 26  1  0  0  0  0
 12 13  1  0  0  0  0
 12 27  1  0  0  0  0
 12 28  1  0  0  0  0
 13 17  1  0  0  0  0
 13 14  1  0  0  0  0
 13 29  1  0  0  0  0
 14 15  1  0  0  0  0
 14 30  1  0  0  0  0
 14 31  1  0  0  0  0
 15 16  1  0  0  0  0
 15 32  1  0  0  0  0
 15 33  1  0  0  0  0
 16 17  1  0  0  0  0
 17 34  1  0  0  0  0
 17 35  1  0  0  0  0
M  CHG  1   8  -1
M  END
> <s_m_source_file>
AV-unprocessed.smi

> <i_m_source_file_index>
2521

> <i_lp_mmshare_version>
43012

> <i_f3d_flags>
0

> <s_epik_input>
W0NIM11bQ0hdKFtDSDNdKWMxbm5jKHMxKVtOSF1DKD1PKVtOSF1bQ0gyXVtDQEBIXTJbQ0gyXVtDSDJdT1tDSDJdMg==

> <s_epik_cmdline>
J2VwaWtfcHl0aG9uJywgJy1waCcsICc3LjAnLCAnLXRuJywgJzgnLCAnLW1hJywgJzIwMCcsICctbWV0YWxfYmluZGluZycsICctaW1hZScsICc8aW5maWxlLm1hZT4nLCAnLW9tYWUnLCAnPG91dGZpbGUubWFlPic=

> <r_lp_tautomer_probability>
1

> <r_epik_Ionization_Penalty>
4.4451

> <r_epik_Ionization_Penalty_Charging>
4.28522

> <r_epik_Ionization_Penalty_Neutral>
0.159875

> <r_epik_State_Penalty>
4.28479

> <r_epik_Charging_Adjusted_Penalty>
8.57002

> <i_epik_Tot_Q>
-1

> <i_epik_Tot_abs_Q>
1

> <r_epik_Metal_State_Penalty>
0.721771

> <b_epik_Metal_Only>
1

> <s_lp_Force_Field>
OPLS_2005

> <r_lp_Energy>
14.6033

> <b_lp_Chiralities_Consistent>
1

> <s_lp_Variant>
AV-unprocessed.smi:2521-3

> <Gold.Version>
5.8.1

> <Gold.Id.Protein>
6NUR|6NUR_protein|mol2

> <Gold.PLP.Fitness>
36.6754

> <Gold.PLP.PLP>
-31.6738

> <Gold.PLP.part.hbond>
-2.0000

> <Gold.PLP.part.metal>
0.0000

> <Gold.PLP.part.buried>
-3.7758

> <Gold.PLP.part.nonpolar>
-26.7093

> <Gold.PLP.part.repulsive>
0.5125

> <Gold.PLP.ligand.clash>
0.0000

> <Gold.PLP.ligand.torsion>
0.5429

> <Gold.PLP.Chemscore.Hbond>
2.0000

> <Gold.PLP.Chemscore.CHOScore>
0.0000

> <Gold.PLP.Chemscore.Metal>
0.0000

> <Gold.Chemscore.Hbonds>
donor molecule, donor type, donor heavy atom, donor atom, acceptor molecule, acceptor atom, score
      L1  H    11    26       P1  7948  1.00
      P1  H  7989  7998       L1    16  0.60

> <Gold.PLP.Chemscore.Internal.Correction>
0.0875

> <Gold.Rescore>
     Score         DG    S(hbond)    S(metal)    S(lipo)     H(rot)  DE(clash)    DE(int)     intcor
     12.00     -14.12       0.99        0.00      76.79       1.42       0.95       1.17       ----

> <Gold.Chemscore.Fitness>
12.0027

> <Gold.Chemscore.DG>
-14.1245

> <Gold.Chemscore.ZeroCoef>
-5.4800

> <Gold.Chemscore.Hbond>
0.9861

> <Gold.Chemscore.Metal>
0.0000

> <Gold.Chemscore.Lipo>
76.7886

> <Gold.Chemscore.Internal_Hbond>
0.0000

> <Gold.Chemscore.DEClash>
0.9548

> <Gold.Chemscore.DEInternal>
1.1670

> <Gold.Chemscore.Rot>
1.4193

> <Gold.Chemscore.Internal.Correction>
   9.000000E+99

> <Gold.Chemscore.Hbonds>
donor molecule, donor type, donor heavy atom, donor atom, acceptor molecule, acceptor atom, score
      L1  H    11    26       P1  7948  0.68
      P1  H  7989  7998       L1    16  0.04

> <Gold.Chemscore.Hbond.Weighted>
-3.2935

> <Gold.Chemscore.Metal.Weighted>
-0.0000

> <Gold.Chemscore.Lipo.Weighted>
-8.9843

> <Gold.Chemscore.Internal_Hbond.Weighted>
0.0000

> <Gold.Chemscore.DEClash.Weighted>
0.9548

> <Gold.Chemscore.DEInternal.Weighted>
1.1670

> <Gold.Chemscore.Rot.Weighted>
3.6333

> <Gold.Chemscore.Internal.Correction.Weighted>
   9.000000E+99

> <Gold.Protein.RotatedTorsions>
[ 6907 6896 6895 6894 ] final   65.57 input  -60.11 | X-H torsion
[ 7974 7965 7964 7962 ] final   -5.48 input  175.53 | X-H torsion
[ 8008 7997 7996 7995 ] final   94.68 input   59.86 | X-H torsion
[ 10167 10162 10161 10158 ] final  175.99 input  -65.29 | X-H torsion
[ 10718 10713 10712 10709 ] final  -93.31 input   66.30 | X-H torsion
[ 10763 10752 10751 10750 ] final   45.67 input  -60.55 | X-H torsion
[ 11005 11000 10999 10996 ] final  162.21 input  -57.11 | X-H torsion

> <Gold.Protein.ActiveResidues>
 VAL166  LYS551  ARG553  GLY616  TRP617  ASP618  TYR619  PRO620  LYS621  CYS622 
 ASP623  PHE694  ASN695  SER759  ASP760  ASP761  ALA762  ILE779  LEU786  VAL792 
 PHE793  MET794  SER795  GLU796  ALA797  LYS798  CYS799  TRP800  GLU811  SER814 

> <Gold.Protein.RotatedAtoms>
  152.4417  134.5577  159.9884 H   0  0  0  0  0  0  0  0  0  0  0  0  # atno 6907 bound_to 6896
  151.5673  133.3389  159.2990 H   0  0  0  0  0  0  0  0  0  0  0  0  # atno 6908 bound_to 6896
  150.8324  134.7617  159.6929 H   0  0  0  0  0  0  0  0  0  0  0  0  # atno 6909 bound_to 6896
  146.2352  140.2028  142.8334 H   0  0  0  0  0  0  0  0  0  0  0  0  # atno 7974 bound_to 7965
  156.0606  140.3296  155.7457 H   0  0  0  0  0  0  0  0  0  0  0  0  # atno 8008 bound_to 7997
  155.5460  140.0606  157.2877 H   0  0  0  0  0  0  0  0  0  0  0  0  # atno 8009 bound_to 7997
  154.4480  140.1902  156.0627 H   0  0  0  0  0  0  0  0  0  0  0  0  # atno 8010 bound_to 7997
  139.5197  144.2967  152.0415 H   0  0  0  0  0  0  0  0  0  0  0  0  # atno 10167 bound_to 10162
  156.0012  130.5022  150.5756 H   0  0  0  0  0  0  0  0  0  0  0  0  # atno 10718 bound_to 10713
  152.9821  135.6032  154.3474 H   0  0  0  0  0  0  0  0  0  0  0  0  # atno 10763 bound_to 10752
  154.3166  135.2770  155.2542 H   0  0  0  0  0  0  0  0  0  0  0  0  # atno 10764 bound_to 10752
  154.4727  135.5937  153.6389 H   0  0  0  0  0  0  0  0  0  0  0  0  # atno 10765 bound_to 10752
  140.2234  134.8179  157.3244 H   0  0  0  0  0  0  0  0  0  0  0  0  # atno 11005 bound_to 11000
  144.9769  140.8422  143.5421 LP  0  0  0  0  0  0  0  0  0  0  0  0  # atno 17320 bound_to 7965
  145.2016  139.2249  143.5190 LP  0  0  0  0  0  0  0  0  0  0  0  0  # atno 17321 bound_to 7965
  140.2416  144.4263  150.6257 LP  0  0  0  0  0  0  0  0  0  0  0  0  # atno 17342 bound_to 10162
  140.6286  143.2184  151.6543 LP  0  0  0  0  0  0  0  0  0  0  0  0  # atno 17343 bound_to 10162
  157.3644  131.0755  151.1609 LP  0  0  0  0  0  0  0  0  0  0  0  0  # atno 17370 bound_to 10713
  157.2383  130.6557  149.5879 LP  0  0  0  0  0  0  0  0  0  0  0  0  # atno 17371 bound_to 10713
  140.1825  134.4471  155.7763 LP  0  0  0  0  0  0  0  0  0  0  0  0  # atno 17394 bound_to 11000
  141.2222  133.6990  156.7893 LP  0  0  0  0  0  0  0  0  0  0  0  0  # atno 17395 bound_to 11000

$$$$
