AV-unprocessed.smi:733|AV-procd|sdf|3529|dock8
  -GOLD-   22720 0523D 1   1.00000     0.00000
 Structure written by MMmdl.
 43 44  0  0  0  0  0  0  0  0  1 V2000
  145.6428  130.4210  151.8280 C   0  0  0  0  0  0  0  0  0  0  0  0
  146.8097  130.9662  152.5927 C   0  0  0  0  0  0  0  0  0  0  0  0
  146.9889  132.3495  152.6863 N   0  0  0  0  0  0  0  0  0  0  0  0
  148.0719  132.6726  153.4005 C   0  0  0  0  0  0  0  0  0  0  0  0
  148.4941  134.0028  153.6596 N   0  0  0  0  0  0  0  0  0  0  0  0
  148.9255  134.5270  154.8200 C   0  0  0  0  0  0  0  0  0  0  0  0
  149.0142  133.9172  155.8861 O   0  0  0  0  0  0  0  0  0  0  0  0
  149.2580  135.8175  154.6718 N   0  0  0  0  0  0  0  0  0  0  0  0
  149.7847  136.6933  155.7180 C   0  0  0  0  0  0  0  0  0  0  0  0
  150.0979  138.1279  155.2073 C   0  0  0  0  0  0  0  0  0  0  0  0
  148.8432  138.8179  154.5924 C   0  0  0  0  0  0  0  0  0  0  0  0
  148.9014  140.3486  154.4007 C   0  0  0  0  0  0  0  0  0  0  0  0
  149.8293  140.7234  153.4055 O   0  0  0  0  0  0  0  0  0  0  0  0
  150.6977  138.9681  156.3614 C   0  0  0  0  0  0  0  0  0  0  0  0
  152.2132  138.8863  156.2098 C   0  0  0  0  0  0  0  0  0  0  0  0
  152.4085  138.9116  154.7013 C   0  0  0  0  0  0  0  0  0  0  0  0
  151.2424  138.0848  154.1537 C   0  0  0  0  0  0  0  0  0  0  0  0
  148.9527  131.2829  154.0113 S   0  0  0  0  0  0  0  0  0  0  0  0
  147.7780  130.2405  153.2479 C   0  0  0  0  0  0  0  0  0  0  0  0
  147.8907  128.7556  153.3483 C   0  0  0  0  0  0  0  0  0  0  0  0
  145.9748  129.8601  150.9543 H   0  0  0  0  0  0  0  0  0  0  0  0
  144.9822  131.2149  151.4779 H   0  0  0  0  0  0  0  0  0  0  0  0
  145.0478  129.7490  152.4465 H   0  0  0  0  0  0  0  0  0  0  0  0
  148.4726  134.6261  152.8662 H   0  0  0  0  0  0  0  0  0  0  0  0
  149.1487  136.2288  153.7565 H   0  0  0  0  0  0  0  0  0  0  0  0
  149.0424  136.7303  156.5152 H   0  0  0  0  0  0  0  0  0  0  0  0
  150.6730  136.2595  156.1806 H   0  0  0  0  0  0  0  0  0  0  0  0
  148.6020  138.3511  153.6362 H   0  0  0  0  0  0  0  0  0  0  0  0
  147.9848  138.6048  155.2306 H   0  0  0  0  0  0  0  0  0  0  0  0
  147.9209  140.7080  154.0872 H   0  0  0  0  0  0  0  0  0  0  0  0
  149.1324  140.8656  155.3313 H   0  0  0  0  0  0  0  0  0  0  0  0
  149.7453  140.1292  152.6755 H   0  0  0  0  0  0  0  0  0  0  0  0
  150.4070  140.0147  156.2603 H   0  0  0  0  0  0  0  0  0  0  0  0
  150.3651  138.6419  157.3475 H   0  0  0  0  0  0  0  0  0  0  0  0
  152.7322  139.7013  156.7150 H   0  0  0  0  0  0  0  0  0  0  0  0
  152.5815  137.9448  156.6197 H   0  0  0  0  0  0  0  0  0  0  0  0
  152.3346  139.9378  154.3386 H   0  0  0  0  0  0  0  0  0  0  0  0
  153.3796  138.5200  154.3967 H   0  0  0  0  0  0  0  0  0  0  0  0
  151.5913  137.0647  153.9947 H   0  0  0  0  0  0  0  0  0  0  0  0
  150.9332  138.4551  153.1755 H   0  0  0  0  0  0  0  0  0  0  0  0
  147.0477  128.3408  153.9015 H   0  0  0  0  0  0  0  0  0  0  0  0
  148.8067  128.4620  153.8614 H   0  0  0  0  0  0  0  0  0  0  0  0
  147.9013  128.3009  152.3576 H   0  0  0  0  0  0  0  0  0  0  0  0
  1  2  1  0  0  0  0
  1 21  1  0  0  0  0
  1 22  1  0  0  0  0
  1 23  1  0  0  0  0
  2 19  2  0  0  0  0
  2  3  1  0  0  0  0
  3  4  2  0  0  0  0
  4  5  1  0  0  0  0
  4 18  1  0  0  0  0
  5  6  1  0  0  0  0
  5 24  1  0  0  0  0
  6  7  2  0  0  0  0
  6  8  1  0  0  0  0
  8  9  1  0  0  0  0
  8 25  1  0  0  0  0
  9 10  1  0  0  0  0
  9 26  1  0  0  0  0
  9 27  1  0  0  0  0
 10 17  1  0  0  0  0
 10 11  1  0  0  0  0
 10 14  1  0  0  0  0
 11 12  1  0  0  0  0
 11 28  1  0  0  0  0
 11 29  1  0  0  0  0
 12 13  1  0  0  0  0
 12 30  1  0  0  0  0
 12 31  1  0  0  0  0
 13 32  1  0  0  0  0
 14 15  1  0  0  0  0
 14 33  1  0  0  0  0
 14 34  1  0  0  0  0
 15 16  1  0  0  0  0
 15 35  1  0  0  0  0
 15 36  1  0  0  0  0
 16 17  1  0  0  0  0
 16 37  1  0  0  0  0
 16 38  1  0  0  0  0
 17 39  1  0  0  0  0
 17 40  1  0  0  0  0
 18 19  1  0  0  0  0
 19 20  1  0  0  0  0
 20 41  1  0  0  0  0
 20 42  1  0  0  0  0
 20 43  1  0  0  0  0
M  END
> <s_m_source_file>
AV-unprocessed.smi

> <i_m_source_file_index>
733

> <i_lp_mmshare_version>
43012

> <i_f3d_flags>
0

> <s_epik_input>
W0NIM11jMW5jKHNjMVtDSDNdKVtOSF1DKD1PKVtOSF1bQ0gyXUMyKFtDSDJdW0NIMl1bT0hdKVtDSDJdW0NIMl1bQ0gyXVtDSDJdMg==

> <s_epik_cmdline>
J2VwaWtfcHl0aG9uJywgJy1waCcsICc3LjAnLCAnLXRuJywgJzgnLCAnLW1hJywgJzIwMCcsICctbWV0YWxfYmluZGluZycsICctaW1hZScsICc8aW5maWxlLm1hZT4nLCAnLW9tYWUnLCAnPG91dGZpbGUubWFlPic=

> <r_lp_tautomer_probability>
0.999

> <r_epik_Ionization_Penalty>
0.000695797

> <r_epik_Ionization_Penalty_Charging>
0

> <r_epik_Ionization_Penalty_Neutral>
0.000695797

> <r_epik_State_Penalty>
0.000177984

> <r_epik_Charging_Adjusted_Penalty>
0.000177984

> <i_epik_Tot_Q>
0

> <i_epik_Tot_abs_Q>
0

> <r_epik_Metal_State_Penalty>
-0

> <b_epik_Metal_Only>
0

> <s_lp_Force_Field>
OPLS_2005

> <r_lp_Energy>
29.226

> <b_lp_Chiralities_Consistent>
1

> <s_lp_Variant>
AV-unprocessed.smi:733-1

> <Gold.Version>
5.8.1

> <Gold.Id.Protein>
6NUR|6NUR_protein|mol2

> <Gold.PLP.Fitness>
44.6810

> <Gold.PLP.PLP>
-33.6413

> <Gold.PLP.part.hbond>
-4.1247

> <Gold.PLP.part.metal>
0.0000

> <Gold.PLP.part.buried>
-2.5548

> <Gold.PLP.part.nonpolar>
-25.4663

> <Gold.PLP.part.repulsive>
0.1545

> <Gold.PLP.ligand.clash>
0.0000

> <Gold.PLP.ligand.torsion>
0.5836

> <Gold.PLP.Chemscore.Hbond>
4.0480

> <Gold.PLP.Chemscore.CHOScore>
0.0000

> <Gold.PLP.Chemscore.Metal>
0.0000

> <Gold.Chemscore.Hbonds>
donor molecule, donor type, donor heavy atom, donor atom, acceptor molecule, acceptor atom, score
      L1  H     5    24       P1  7948  1.00
      L1  H     8    25       P1  7948  1.00
      L1  H    13    32       P1  7957  0.86
      P1  H  7989  7998       L1    13  0.34
      P1  H  8011  8017       L1    13  0.80

> <Gold.PLP.Chemscore.Internal.Correction>
0.0628

> <Gold.Rescore>
     Score         DG    S(hbond)    S(metal)    S(lipo)     H(rot)  DE(clash)    DE(int)     intcor
     17.47     -18.21       2.85        0.00      77.64       2.30       0.07       0.67       ----

> <Gold.Chemscore.Fitness>
17.4747

> <Gold.Chemscore.DG>
-18.2089

> <Gold.Chemscore.ZeroCoef>
-5.4800

> <Gold.Chemscore.Hbond>
2.8534

> <Gold.Chemscore.Metal>
0.0000

> <Gold.Chemscore.Lipo>
77.6400

> <Gold.Chemscore.Internal_Hbond>
0.0000

> <Gold.Chemscore.DEClash>
0.0650

> <Gold.Chemscore.DEInternal>
0.6692

> <Gold.Chemscore.Rot>
2.2990

> <Gold.Chemscore.Internal.Correction>
   9.000000E+99

> <Gold.Chemscore.Hbonds>
donor molecule, donor type, donor heavy atom, donor atom, acceptor molecule, acceptor atom, score
      L1  H     5    24       P1  7948  0.29
      L1  H     8    25       P1  7948  0.92
      L1  H    13    32       P1  7957  0.79
      P1  H  7989  7998       L1    13  0.09
      P1  H  8011  8017       L1    13  0.11

> <Gold.Chemscore.Hbond.Weighted>
-9.5304

> <Gold.Chemscore.Metal.Weighted>
-0.0000

> <Gold.Chemscore.Lipo.Weighted>
-9.0839

> <Gold.Chemscore.Internal_Hbond.Weighted>
0.0000

> <Gold.Chemscore.DEClash.Weighted>
0.0650

> <Gold.Chemscore.DEInternal.Weighted>
0.6692

> <Gold.Chemscore.Rot.Weighted>
5.8854

> <Gold.Chemscore.Internal.Correction.Weighted>
   9.000000E+99

> <Gold.Protein.RotatedTorsions>
[ 6907 6896 6895 6894 ] final   77.65 input  -60.11 | X-H torsion
[ 7974 7965 7964 7962 ] final   68.15 input  175.53 | X-H torsion
[ 8008 7997 7996 7995 ] final  -97.56 input   59.86 | X-H torsion
[ 10167 10162 10161 10158 ] final  -26.70 input  -65.29 | X-H torsion
[ 10718 10713 10712 10709 ] final  141.74 input   66.30 | X-H torsion
[ 10763 10752 10751 10750 ] final  -19.65 input  -60.55 | X-H torsion
[ 11005 11000 10999 10996 ] final  148.12 input  -57.11 | X-H torsion

> <Gold.Protein.ActiveResidues>
 VAL166  LYS551  ARG553  GLY616  TRP617  ASP618  TYR619  PRO620  LYS621  CYS622 
 ASP623  PHE694  ASN695  SER759  ASP760  ASP761  ALA762  ILE779  LEU786  VAL792 
 PHE793  MET794  SER795  GLU796  ALA797  LYS798  CYS799  TRP800  GLU811  SER814 

> <Gold.Protein.RotatedAtoms>
  152.5127  134.3784  159.9342 H   0  0  0  0  0  0  0  0  0  0  0  0  # atno 6907 bound_to 6896
  151.3740  133.3838  159.2710 H   0  0  0  0  0  0  0  0  0  0  0  0  # atno 6908 bound_to 6896
  150.9556  134.8970  159.7757 H   0  0  0  0  0  0  0  0  0  0  0  0  # atno 6909 bound_to 6896
  145.8061  139.3007  143.1126 H   0  0  0  0  0  0  0  0  0  0  0  0  # atno 7974 bound_to 7965
  154.7894  140.0462  157.1189 H   0  0  0  0  0  0  0  0  0  0  0  0  # atno 8008 bound_to 7997
  154.9609  140.3077  155.5011 H   0  0  0  0  0  0  0  0  0  0  0  0  # atno 8009 bound_to 7997
  156.2948  140.2271  156.4695 H   0  0  0  0  0  0  0  0  0  0  0  0  # atno 8010 bound_to 7997
  140.7281  143.4156  151.1034 H   0  0  0  0  0  0  0  0  0  0  0  0  # atno 10167 bound_to 10162
  157.3885  131.1001  151.0669 H   0  0  0  0  0  0  0  0  0  0  0  0  # atno 10718 bound_to 10713
  153.6081  135.6997  153.5357 H   0  0  0  0  0  0  0  0  0  0  0  0  # atno 10763 bound_to 10752
  153.3040  135.4120  155.1277 H   0  0  0  0  0  0  0  0  0  0  0  0  # atno 10764 bound_to 10752
  154.8569  135.3655  154.5619 H   0  0  0  0  0  0  0  0  0  0  0  0  # atno 10765 bound_to 10752
  140.0933  134.9028  157.1684 H   0  0  0  0  0  0  0  0  0  0  0  0  # atno 11005 bound_to 11000
  145.9827  140.8669  143.0106 LP  0  0  0  0  0  0  0  0  0  0  0  0  # atno 17320 bound_to 7965
  144.6763  140.2103  143.7378 LP  0  0  0  0  0  0  0  0  0  0  0  0  # atno 17321 bound_to 7965
  139.7795  143.8376  152.3135 LP  0  0  0  0  0  0  0  0  0  0  0  0  # atno 17342 bound_to 10162
  139.8322  144.7248  150.9436 LP  0  0  0  0  0  0  0  0  0  0  0  0  # atno 17343 bound_to 10162
  157.1712  130.6268  149.5641 LP  0  0  0  0  0  0  0  0  0  0  0  0  # atno 17370 bound_to 10713
  155.9792  130.4785  150.6704 LP  0  0  0  0  0  0  0  0  0  0  0  0  # atno 17371 bound_to 10713
  140.3322  134.2797  155.7226 LP  0  0  0  0  0  0  0  0  0  0  0  0  # atno 17394 bound_to 11000
  141.2084  133.7778  157.0059 LP  0  0  0  0  0  0  0  0  0  0  0  0  # atno 17395 bound_to 11000

$$$$
