AV-unprocessed.smi:2006|AV-procd|sdf|8130|dock2
  -GOLD-   2272010363D 1   1.00000     0.00000
 Structure written by MMmdl.
 33 34  0  0  0  0  0  0  0  0  2 V2000
  151.8545  145.3709  159.2152 C   0  0  0  0  0  0  0  0  0  0  0  0
  151.8637  143.8585  159.4605 C   0  0  1  0  0  0  0  0  0  0  0  0
  151.7365  143.0590  158.1497 C   0  0  0  0  0  0  0  0  0  0  0  0
  151.8391  141.6306  158.4216 N   0  0  0  0  0  0  0  0  0  0  0  0
  151.6118  140.8292  157.2941 C   0  0  0  0  0  0  0  0  0  0  0  0
  150.4541  141.0509  156.5188 C   0  0  0  0  0  0  0  0  0  0  0  0
  150.2344  140.2478  155.3834 C   0  0  0  0  0  0  0  0  0  0  0  0
  151.1773  139.2496  155.0631 C   0  0  0  0  0  0  0  0  0  0  0  0
  150.9890  138.3587  153.8517 C   0  0  0  0  0  0  0  0  0  0  0  0
  149.6646  138.5665  153.2435 N   0  3  0  0  0  0  0  0  0  0  0  0
  152.3037  139.1051  155.9000 C   0  0  0  0  0  0  0  0  0  0  0  0
  152.5199  139.8705  156.9904 N   0  0  0  0  0  0  0  0  0  0  0  0
  153.0580  141.2882  159.1434 C   0  0  0  0  0  0  0  0  0  0  0  0
  153.1613  142.1286  160.4274 C   0  0  0  0  0  0  0  0  0  0  0  0
  153.0918  143.5134  160.0985 O   0  0  0  0  0  0  0  0  0  0  0  0
  150.9270  145.6845  158.7356 H   0  0  0  0  0  0  0  0  0  0  0  0
  152.6828  145.6711  158.5726 H   0  0  0  0  0  0  0  0  0  0  0  0
  151.9450  145.9183  160.1537 H   0  0  0  0  0  0  0  0  0  0  0  0
  151.0342  143.6094  160.1246 H   0  0  0  0  0  0  0  0  0  0  0  0
  150.7802  143.2728  157.6707 H   0  0  0  0  0  0  0  0  0  0  0  0
  152.5211  143.3592  157.4533 H   0  0  0  0  0  0  0  0  0  0  0  0
  149.7481  141.8237  156.7869 H   0  0  0  0  0  0  0  0  0  0  0  0
  149.3571  140.3975  154.7713 H   0  0  0  0  0  0  0  0  0  0  0  0
  151.7618  138.5683  153.1112 H   0  0  0  0  0  0  0  0  0  0  0  0
  151.0939  137.3122  154.1403 H   0  0  0  0  0  0  0  0  0  0  0  0
  149.0024  138.8290  153.9597 H   0  0  0  0  0  0  0  0  0  0  0  0
  149.3588  137.7122  152.8000 H   0  0  0  0  0  0  0  0  0  0  0  0
  153.0504  138.3528  155.6922 H   0  0  0  0  0  0  0  0  0  0  0  0
  153.0567  140.2257  159.3894 H   0  0  0  0  0  0  0  0  0  0  0  0
  153.9267  141.4728  158.5098 H   0  0  0  0  0  0  0  0  0  0  0  0
  152.3655  141.8699  161.1276 H   0  0  0  0  0  0  0  0  0  0  0  0
  154.1070  141.9295  160.9316 H   0  0  0  0  0  0  0  0  0  0  0  0
  149.7218  139.3016  152.5533 H   0  0  0  0  0  0  0  0  0  0  0  0
  1  2  1  0  0  0  0
  1 16  1  0  0  0  0
  1 17  1  0  0  0  0
  1 18  1  0  0  0  0
  2 15  1  0  0  0  0
  2  3  1  0  0  0  0
  2 19  1  0  0  0  0
  3  4  1  0  0  0  0
  3 20  1  0  0  0  0
  3 21  1  0  0  0  0
  4  5  1  0  0  0  0
  4 13  1  0  0  0  0
  5 12  1  0  0  0  0
  5  6  2  0  0  0  0
  6  7  1  0  0  0  0
  6 22  1  0  0  0  0
  7  8  2  0  0  0  0
  7 23  1  0  0  0  0
  8  9  1  0  0  0  0
  8 11  1  0  0  0  0
  9 10  1  0  0  0  0
  9 24  1  0  0  0  0
  9 25  1  0  0  0  0
 10 26  1  0  0  0  0
 10 27  1  0  0  0  0
 10 33  1  0  0  0  0
 11 12  2  0  0  0  0
 11 28  1  0  0  0  0
 13 14  1  0  0  0  0
 13 29  1  0  0  0  0
 13 30  1  0  0  0  0
 14 15  1  0  0  0  0
 14 31  1  0  0  0  0
 14 32  1  0  0  0  0
M  CHG  1  10   1
M  END
> <s_m_source_file>
AV-unprocessed.smi

> <i_m_source_file_index>
2006

> <i_lp_mmshare_version>
43012

> <i_f3d_flags>
0

> <s_epik_input>
W0NIM11bQ0BASF0xW0NIMl1OKFtDSDJdW0NIMl1PMSljMltjSF1bY0hdYyhbY0hdbjIpW0NIMl1bTkgyXQ==

> <s_epik_cmdline>
J2VwaWtfcHl0aG9uJywgJy1waCcsICc3LjAnLCAnLXRuJywgJzgnLCAnLW1hJywgJzIwMCcsICctbWV0YWxfYmluZGluZycsICctaW1hZScsICc8aW5maWxlLm1hZT4nLCAnLW9tYWUnLCAnPG91dGZpbGUubWFlPic=

> <r_lp_tautomer_probability>
1

> <r_epik_Ionization_Penalty>
0.0608602

> <r_epik_Ionization_Penalty_Charging>
0.059977

> <r_epik_Ionization_Penalty_Neutral>
0.000883197

> <r_epik_State_Penalty>
0.0524157

> <r_epik_Charging_Adjusted_Penalty>
0.112393

> <i_epik_Tot_Q>
1

> <i_epik_Tot_abs_Q>
1

> <r_epik_Metal_State_Penalty>
0.0524947

> <b_epik_Metal_Only>
0

> <s_lp_Force_Field>
OPLS_2005

> <r_lp_Energy>
17.2121

> <b_lp_Chiralities_Consistent>
1

> <s_lp_Variant>
AV-unprocessed.smi:2006-2

> <Gold.Version>
5.8.1

> <Gold.Id.Protein>
6NUR|6NUR_protein|mol2

> <Gold.PLP.Fitness>
47.3232

> <Gold.PLP.PLP>
-35.5279

> <Gold.PLP.part.hbond>
-2.9062

> <Gold.PLP.part.metal>
0.0000

> <Gold.PLP.part.buried>
-4.3663

> <Gold.PLP.part.nonpolar>
-28.2566

> <Gold.PLP.part.repulsive>
0.1015

> <Gold.PLP.ligand.clash>
0.0000

> <Gold.PLP.ligand.torsion>
0.1410

> <Gold.PLP.Chemscore.Hbond>
3.9920

> <Gold.PLP.Chemscore.CHOScore>
0.0000

> <Gold.PLP.Chemscore.Metal>
0.0000

> <Gold.Chemscore.Hbonds>
donor molecule, donor type, donor heavy atom, donor atom, acceptor molecule, acceptor atom, score
      L1  H    10    27       P1  7948  2.00
      L1  H    10    33       P1  7957  1.00
      P1  H  7997  8009       L1    12  0.95

> <Gold.PLP.Chemscore.Internal.Correction>
0.1013

> <Gold.Rescore>
     Score         DG    S(hbond)    S(metal)    S(lipo)     H(rot)  DE(clash)    DE(int)     intcor
     21.20     -21.55       2.56        0.00      92.84       1.30       0.21       0.13       ----

> <Gold.Chemscore.Fitness>
21.2002

> <Gold.Chemscore.DG>
-21.5473

> <Gold.Chemscore.ZeroCoef>
-5.4800

> <Gold.Chemscore.Hbond>
2.5583

> <Gold.Chemscore.Metal>
0.0000

> <Gold.Chemscore.Lipo>
92.8384

> <Gold.Chemscore.Internal_Hbond>
0.0000

> <Gold.Chemscore.DEClash>
0.2146

> <Gold.Chemscore.DEInternal>
0.1325

> <Gold.Chemscore.Rot>
1.3045

> <Gold.Chemscore.Internal.Correction>
   9.000000E+99

> <Gold.Chemscore.Hbonds>
donor molecule, donor type, donor heavy atom, donor atom, acceptor molecule, acceptor atom, score
      L1  H    10    27       P1  7948  0.91
      L1  H    10    33       P1  7957  0.93
      P1  H  7997  8009       L1    12  0.20

> <Gold.Chemscore.Hbond.Weighted>
-8.5446

> <Gold.Chemscore.Metal.Weighted>
-0.0000

> <Gold.Chemscore.Lipo.Weighted>
-10.8621

> <Gold.Chemscore.Internal_Hbond.Weighted>
0.0000

> <Gold.Chemscore.DEClash.Weighted>
0.2146

> <Gold.Chemscore.DEInternal.Weighted>
0.1325

> <Gold.Chemscore.Rot.Weighted>
3.3395

> <Gold.Chemscore.Internal.Correction.Weighted>
   9.000000E+99

> <Gold.Protein.RotatedTorsions>
[ 6907 6896 6895 6894 ] final   37.44 input  -60.11 | X-H torsion
[ 7974 7965 7964 7962 ] final   10.77 input  175.53 | X-H torsion
[ 8008 7997 7996 7995 ] final  166.35 input   59.86 | X-H torsion
[ 10167 10162 10161 10158 ] final   21.02 input  -65.29 | X-H torsion
[ 10718 10713 10712 10709 ] final  -30.96 input   66.30 | X-H torsion
[ 10763 10752 10751 10750 ] final  178.06 input  -60.55 | X-H torsion
[ 11005 11000 10999 10996 ] final   17.64 input  -57.11 | X-H torsion

> <Gold.Protein.ActiveResidues>
 VAL166  LYS551  ARG553  GLY616  TRP617  ASP618  TYR619  PRO620  LYS621  CYS622 
 ASP623  PHE694  ASN695  SER759  ASP760  ASP761  ALA762  ILE779  LEU786  VAL792 
 PHE793  MET794  SER795  GLU796  ALA797  LYS798  CYS799  TRP800  GLU811  SER814 

> <Gold.Protein.RotatedAtoms>
  152.1432  134.9046  160.0552 H   0  0  0  0  0  0  0  0  0  0  0  0  # atno 6907 bound_to 6896
  152.0106  133.3855  159.4226 H   0  0  0  0  0  0  0  0  0  0  0  0  # atno 6908 bound_to 6896
  150.6867  134.3656  159.5013 H   0  0  0  0  0  0  0  0  0  0  0  0  # atno 6909 bound_to 6896
  146.2383  139.9585  142.8461 H   0  0  0  0  0  0  0  0  0  0  0  0  # atno 7974 bound_to 7965
  156.1725  140.1646  156.8421 H   0  0  0  0  0  0  0  0  0  0  0  0  # atno 8008 bound_to 7997
  154.5272  140.0765  156.8314 H   0  0  0  0  0  0  0  0  0  0  0  0  # atno 8009 bound_to 7997
  155.3482  140.3388  155.4241 H   0  0  0  0  0  0  0  0  0  0  0  0  # atno 8010 bound_to 7997
  140.5459  143.9596  150.6547 H   0  0  0  0  0  0  0  0  0  0  0  0  # atno 10167 bound_to 10162
  156.3933  130.4377  149.7378 H   0  0  0  0  0  0  0  0  0  0  0  0  # atno 10718 bound_to 10713
  154.5027  135.2784  155.1408 H   0  0  0  0  0  0  0  0  0  0  0  0  # atno 10763 bound_to 10752
  154.3035  135.6243  153.5438 H   0  0  0  0  0  0  0  0  0  0  0  0  # atno 10764 bound_to 10752
  152.9905  135.5702  154.5473 H   0  0  0  0  0  0  0  0  0  0  0  0  # atno 10765 bound_to 10752
  140.4337  134.1393  155.7683 H   0  0  0  0  0  0  0  0  0  0  0  0  # atno 11005 bound_to 11000
  145.1794  140.9759  143.4275 LP  0  0  0  0  0  0  0  0  0  0  0  0  # atno 17320 bound_to 7965
  144.9956  139.3647  143.6193 LP  0  0  0  0  0  0  0  0  0  0  0  0  # atno 17321 bound_to 7965
  140.3009  143.3261  152.0973 LP  0  0  0  0  0  0  0  0  0  0  0  0  # atno 17342 bound_to 10162
  139.5007  144.6697  151.6271 LP  0  0  0  0  0  0  0  0  0  0  0  0  # atno 17343 bound_to 10162
  156.4423  130.7867  151.2888 LP  0  0  0  0  0  0  0  0  0  0  0  0  # atno 17370 bound_to 10713
  157.7500  131.0121  150.3371 LP  0  0  0  0  0  0  0  0  0  0  0  0  # atno 17371 bound_to 10713
  141.1735  133.8561  157.1496 LP  0  0  0  0  0  0  0  0  0  0  0  0  # atno 17394 bound_to 11000
  140.0117  134.9985  157.0408 LP  0  0  0  0  0  0  0  0  0  0  0  0  # atno 17395 bound_to 11000

$$$$
