AV-unprocessed.smi:679|AV-procd|sdf|3321|dock8
  -GOLD-   22720 0293D 1   1.00000     0.00000
 Structure written by MMmdl.
 41 43  0  0  0  0  0  0  0  0  1 V2000
  153.8234  138.9937  154.7068 C   0  0  0  0  0  0  0  0  0  0  0  0
  152.4445  138.3815  154.4518 C   0  0  0  0  0  0  0  0  0  0  0  0
  151.4572  139.3736  154.6727 O   0  0  0  0  0  0  0  0  0  0  0  0
  151.1731  139.5756  156.0480 C   0  0  2  0  0  0  0  0  0  0  0  0
  151.1899  138.3013  156.8979 C   0  0  0  0  0  0  0  0  0  0  0  0
  150.0050  138.9150  157.6462 C   0  0  2  0  0  0  0  0  0  0  0  0
  149.0118  137.9210  158.0312 N   0  0  0  0  0  0  0  0  0  0  0  0
  149.1657  137.0428  159.0325 C   0  0  0  0  0  0  0  0  0  0  0  0
  150.2101  136.9141  159.6707 O   0  0  0  0  0  0  0  0  0  0  0  0
  147.9397  136.2056  159.3924 C   0  0  0  0  0  0  0  0  0  0  0  0
  147.6968  136.2574  160.8219 N   0  0  0  0  0  0  0  0  0  0  0  0
  147.6727  135.2911  161.7424 C   0  0  0  0  0  0  0  0  0  0  0  0
  147.4441  135.7758  162.9535 N   0  0  0  0  0  0  0  0  0  0  0  0
  147.3225  137.1374  162.7301 N   0  0  0  0  0  0  0  0  0  0  0  0
  147.4717  137.4294  161.4673 N   0  0  0  0  0  0  0  0  0  0  0  0
  149.6595  139.6998  156.3537 C   0  0  0  0  0  0  0  0  0  0  0  0
  149.0974  141.1111  156.4928 C   0  0  0  0  0  0  0  0  0  0  0  0
  148.5075  141.5065  155.1335 C   0  0  0  0  0  0  0  0  0  0  0  0
  148.3260  140.2004  154.3537 C   0  0  0  0  0  0  0  0  0  0  0  0
  148.6850  139.0869  155.3377 C   0  0  0  0  0  0  0  0  0  0  0  0
  154.6120  138.2577  154.5496 H   0  0  0  0  0  0  0  0  0  0  0  0
  153.9054  139.3589  155.7308 H   0  0  0  0  0  0  0  0  0  0  0  0
  154.0089  139.8326  154.0355 H   0  0  0  0  0  0  0  0  0  0  0  0
  152.3869  138.0090  153.4282 H   0  0  0  0  0  0  0  0  0  0  0  0
  152.2830  137.5356  155.1216 H   0  0  0  0  0  0  0  0  0  0  0  0
  151.7543  140.3869  156.4932 H   0  0  0  0  0  0  0  0  0  0  0  0
  150.9385  137.4031  156.3302 H   0  0  0  0  0  0  0  0  0  0  0  0
  152.0899  138.1647  157.4978 H   0  0  0  0  0  0  0  0  0  0  0  0
  150.3319  139.5657  158.4611 H   0  0  0  0  0  0  0  0  0  0  0  0
  148.1198  137.9566  157.5588 H   0  0  0  0  0  0  0  0  0  0  0  0
  147.0613  136.5693  158.8570 H   0  0  0  0  0  0  0  0  0  0  0  0
  148.0935  135.1664  159.0990 H   0  0  0  0  0  0  0  0  0  0  0  0
  147.8314  134.2443  161.5283 H   0  0  0  0  0  0  0  0  0  0  0  0
  148.3081  141.1219  157.2453 H   0  0  0  0  0  0  0  0  0  0  0  0
  149.8504  141.8283  156.8206 H   0  0  0  0  0  0  0  0  0  0  0  0
  147.5626  142.0367  155.2574 H   0  0  0  0  0  0  0  0  0  0  0  0
  149.1876  142.1695  154.5973 H   0  0  0  0  0  0  0  0  0  0  0  0
  147.3146  140.0870  153.9625 H   0  0  0  0  0  0  0  0  0  0  0  0
  149.0113  140.1813  153.5054 H   0  0  0  0  0  0  0  0  0  0  0  0
  149.0929  138.2149  154.8252 H   0  0  0  0  0  0  0  0  0  0  0  0
  147.7697  138.7600  155.8318 H   0  0  0  0  0  0  0  0  0  0  0  0
  1  2  1  0  0  0  0
  1 21  1  0  0  0  0
  1 22  1  0  0  0  0
  1 23  1  0  0  0  0
  2  3  1  0  0  0  0
  2 24  1  0  0  0  0
  2 25  1  0  0  0  0
  3  4  1  0  0  0  0
  4 16  1  0  0  0  0
  4  5  1  0  0  0  0
  4 26  1  0  0  0  0
  5  6  1  0  0  0  0
  5 27  1  0  0  0  0
  5 28  1  0  0  0  0
  6  7  1  0  0  0  0
  6 16  1  0  0  0  0
  6 29  1  0  0  0  0
  7  8  1  0  0  0  0
  7 30  1  0  0  0  0
  8  9  2  0  0  0  0
  8 10  1  0  0  0  0
 10 11  1  0  0  0  0
 10 31  1  0  0  0  0
 10 32  1  0  0  0  0
 11 15  1  0  0  0  0
 11 12  1  0  0  0  0
 12 13  2  0  0  0  0
 12 33  1  0  0  0  0
 13 14  1  0  0  0  0
 14 15  2  0  0  0  0
 16 20  1  0  0  0  0
 16 17  1  0  0  0  0
 17 18  1  0  0  0  0
 17 34  1  0  0  0  0
 17 35  1  0  0  0  0
 18 19  1  0  0  0  0
 18 36  1  0  0  0  0
 18 37  1  0  0  0  0
 19 20  1  0  0  0  0
 19 38  1  0  0  0  0
 19 39  1  0  0  0  0
 20 40  1  0  0  0  0
 20 41  1  0  0  0  0
M  END
> <s_m_source_file>
AV-unprocessed.smi

> <i_m_source_file_index>
679

> <i_lp_mmshare_version>
43012

> <i_f3d_flags>
0

> <s_epik_input>
W0NIMl0xW0NIMl1bQ0gyXVtDSDJdQzEyW0NASF0oT1tDSDJdW0NIM10pW0NIMl1bQ0BIXTJbTkhdQyg9TylbQ0gyXW4zW2NIXW5ubjM=

> <s_epik_cmdline>
J2VwaWtfcHl0aG9uJywgJy1waCcsICc3LjAnLCAnLXRuJywgJzgnLCAnLW1hJywgJzIwMCcsICctbWV0YWxfYmluZGluZycsICctaW1hZScsICc8aW5maWxlLm1hZT4nLCAnLW9tYWUnLCAnPG91dGZpbGUubWFlPic=

> <r_lp_tautomer_probability>
1

> <r_epik_Ionization_Penalty>
7.96741e-07

> <r_epik_Ionization_Penalty_Charging>
0

> <r_epik_Ionization_Penalty_Neutral>
7.96741e-07

> <r_epik_State_Penalty>
-0

> <r_epik_Charging_Adjusted_Penalty>
0

> <i_epik_Tot_Q>
0

> <i_epik_Tot_abs_Q>
0

> <r_epik_Metal_State_Penalty>
-0

> <b_epik_Metal_Only>
0

> <s_lp_Force_Field>
OPLS_2005

> <r_lp_Energy>
37

> <b_lp_Chiralities_Consistent>
1

> <s_lp_Variant>
AV-unprocessed.smi:679-3

> <Gold.Version>
5.8.1

> <Gold.Id.Protein>
6NUR|6NUR_protein|mol2

> <Gold.PLP.Fitness>
35.8421

> <Gold.PLP.PLP>
-27.4152

> <Gold.PLP.part.hbond>
-5.0613

> <Gold.PLP.part.metal>
0.0000

> <Gold.PLP.part.buried>
-2.5942

> <Gold.PLP.part.nonpolar>
-20.5774

> <Gold.PLP.part.repulsive>
0.1796

> <Gold.PLP.ligand.clash>
0.0000

> <Gold.PLP.ligand.torsion>
0.7361

> <Gold.PLP.Chemscore.Hbond>
3.1808

> <Gold.PLP.Chemscore.CHOScore>
0.0000

> <Gold.PLP.Chemscore.Metal>
0.0000

> <Gold.Chemscore.Hbonds>
donor molecule, donor type, donor heavy atom, donor atom, acceptor molecule, acceptor atom, score
      P1  H  6896  6909       L1     9  0.94
      P1  H  6931  6943       L1    15  0.32
      P1  H  6934  6947       L1    15  0.83
      P1  H  7989  7998       L1     3  1.00

> <Gold.PLP.Chemscore.Internal.Correction>
0.3567

> <Gold.Rescore>
     Score         DG    S(hbond)    S(metal)    S(lipo)     H(rot)  DE(clash)    DE(int)     intcor
     13.55     -15.70       2.74        0.00      61.81       2.41       1.41       0.74       ----

> <Gold.Chemscore.Fitness>
13.5485

> <Gold.Chemscore.DG>
-15.7033

> <Gold.Chemscore.ZeroCoef>
-5.4800

> <Gold.Chemscore.Hbond>
2.7419

> <Gold.Chemscore.Metal>
0.0000

> <Gold.Chemscore.Lipo>
61.8138

> <Gold.Chemscore.Internal_Hbond>
0.0000

> <Gold.Chemscore.DEClash>
1.4149

> <Gold.Chemscore.DEInternal>
0.7400

> <Gold.Chemscore.Rot>
2.4089

> <Gold.Chemscore.Internal.Correction>
   9.000000E+99

> <Gold.Chemscore.Hbonds>
donor molecule, donor type, donor heavy atom, donor atom, acceptor molecule, acceptor atom, score
      P1  H  6896  6909       L1     9  0.88
      P1  H  6931  6943       L1    15  0.01
      P1  H  6934  6947       L1    15  0.81
      P1  H  7989  7998       L1     3  0.80

> <Gold.Chemscore.Hbond.Weighted>
-9.1579

> <Gold.Chemscore.Metal.Weighted>
-0.0000

> <Gold.Chemscore.Lipo.Weighted>
-7.2322

> <Gold.Chemscore.Internal_Hbond.Weighted>
0.0000

> <Gold.Chemscore.DEClash.Weighted>
1.4149

> <Gold.Chemscore.DEInternal.Weighted>
0.7400

> <Gold.Chemscore.Rot.Weighted>
6.1668

> <Gold.Chemscore.Internal.Correction.Weighted>
   9.000000E+99

> <Gold.Protein.RotatedTorsions>
[ 6907 6896 6895 6894 ] final   88.89 input  -60.11 | X-H torsion
[ 7974 7965 7964 7962 ] final  -85.45 input  175.53 | X-H torsion
[ 8008 7997 7996 7995 ] final  -17.54 input   59.86 | X-H torsion
[ 10167 10162 10161 10158 ] final -137.67 input  -65.29 | X-H torsion
[ 10718 10713 10712 10709 ] final  -37.64 input   66.30 | X-H torsion
[ 10763 10752 10751 10750 ] final  -23.31 input  -60.55 | X-H torsion
[ 11005 11000 10999 10996 ] final  158.02 input  -57.11 | X-H torsion

> <Gold.Protein.ActiveResidues>
 VAL166  LYS551  ARG553  GLY616  TRP617  ASP618  TYR619  PRO620  LYS621  CYS622 
 ASP623  PHE694  ASN695  SER759  ASP760  ASP761  ALA762  ILE779  LEU786  VAL792 
 PHE793  MET794  SER795  GLU796  ALA797  LYS798  CYS799  TRP800  GLU811  SER814 

> <Gold.Protein.RotatedAtoms>
  152.5430  134.2051  159.8727 H   0  0  0  0  0  0  0  0  0  0  0  0  # atno 6907 bound_to 6896
  151.2037  133.4589  159.2604 H   0  0  0  0  0  0  0  0  0  0  0  0  # atno 6908 bound_to 6896
  151.0964  134.9959  159.8483 H   0  0  0  0  0  0  0  0  0  0  0  0  # atno 6909 bound_to 6896
  145.4931  140.9551  143.1801 H   0  0  0  0  0  0  0  0  0  0  0  0  # atno 7974 bound_to 7965
  154.4971  140.2140  155.9425 H   0  0  0  0  0  0  0  0  0  0  0  0  # atno 8008 bound_to 7997
  156.1384  140.3184  155.8425 H   0  0  0  0  0  0  0  0  0  0  0  0  # atno 8009 bound_to 7997
  155.4166  140.0494  157.3019 H   0  0  0  0  0  0  0  0  0  0  0  0  # atno 8010 bound_to 7997
  139.8554  143.7145  152.2654 H   0  0  0  0  0  0  0  0  0  0  0  0  # atno 10167 bound_to 10162
  156.3128  130.4255  149.8033 H   0  0  0  0  0  0  0  0  0  0  0  0  # atno 10718 bound_to 10713
  153.6658  135.6974  153.5163 H   0  0  0  0  0  0  0  0  0  0  0  0  # atno 10763 bound_to 10752
  153.2596  135.4249  155.0880 H   0  0  0  0  0  0  0  0  0  0  0  0  # atno 10764 bound_to 10752
  154.8440  135.3551  154.6202 H   0  0  0  0  0  0  0  0  0  0  0  0  # atno 10765 bound_to 10752
  140.1825  134.8465  157.2819 H   0  0  0  0  0  0  0  0  0  0  0  0  # atno 11005 bound_to 11000
  144.7823  139.6501  143.7149 LP  0  0  0  0  0  0  0  0  0  0  0  0  # atno 17320 bound_to 7965
  146.2272  139.5745  142.9579 LP  0  0  0  0  0  0  0  0  0  0  0  0  # atno 17321 bound_to 7965
  139.7425  144.7556  151.0631 LP  0  0  0  0  0  0  0  0  0  0  0  0  # atno 17342 bound_to 10162
  140.7782  143.4956  150.9837 LP  0  0  0  0  0  0  0  0  0  0  0  0  # atno 17343 bound_to 10162
  156.5370  130.8283  151.3256 LP  0  0  0  0  0  0  0  0  0  0  0  0  # atno 17370 bound_to 10713
  157.7395  130.9832  150.2317 LP  0  0  0  0  0  0  0  0  0  0  0  0  # atno 17371 bound_to 10713
  140.2251  134.3977  155.7547 LP  0  0  0  0  0  0  0  0  0  0  0  0  # atno 17394 bound_to 11000
  141.2223  133.7186  156.8552 LP  0  0  0  0  0  0  0  0  0  0  0  0  # atno 17395 bound_to 11000

$$$$
