AV-unprocessed.smi:2843|AV-procd|sdf|10938|dock5
  -GOLD-   2272015383D 1   1.00000     0.00000
 Structure written by MMmdl.
 28 28  0  0  0  0  0  0  0  0  2 V2000
  153.0017  142.6417  159.8991 C   0  0  0  0  0  0  0  0  0  0  0  0
  152.8504  141.3782  159.1233 C   0  0  0  0  0  0  0  0  0  0  0  0
  151.8101  140.8364  158.4242 C   0  0  0  0  0  0  0  0  0  0  0  0
  152.3434  139.6202  157.9140 C   0  0  0  0  0  0  0  0  0  0  0  0
  151.6634  138.5853  157.0598 C   0  0  0  0  0  0  0  0  0  0  0  0
  152.3192  138.6291  155.3330 S   0  0  0  0  0  0  0  0  0  0  0  0
  153.7632  138.8849  155.4603 O   0  0  0  0  0  0  0  0  0  0  0  0
  151.9165  137.3624  154.6989 O   0  0  0  0  0  0  0  0  0  0  0  0
  151.5227  139.9095  154.7384 N   0  5  0  0  0  0  0  0  0  0  0  0
  150.3062  140.3616  155.3907 C   0  0  0  0  0  0  0  0  0  0  0  0
  149.1364  140.3708  154.3854 C   0  0  0  0  0  0  0  0  0  0  0  0
  147.9877  141.3420  154.7335 C   0  0  0  0  0  0  0  0  0  0  0  0
  148.0709  142.4894  153.9136 O   0  0  0  0  0  0  0  0  0  0  0  0
  153.5986  139.4400  158.2944 N   0  0  0  0  0  0  0  0  0  0  0  0
  153.9330  140.5611  159.0619 O   0  0  0  0  0  0  0  0  0  0  0  0
  152.0731  142.8951  160.4107 H   0  0  0  0  0  0  0  0  0  0  0  0
  153.2612  143.4691  159.2390 H   0  0  0  0  0  0  0  0  0  0  0  0
  153.7862  142.5488  160.6505 H   0  0  0  0  0  0  0  0  0  0  0  0
  150.8221  141.2502  158.2871 H   0  0  0  0  0  0  0  0  0  0  0  0
  151.7885  137.5774  157.4563 H   0  0  0  0  0  0  0  0  0  0  0  0
  150.5939  138.7857  157.0098 H   0  0  0  0  0  0  0  0  0  0  0  0
  150.0442  139.7132  156.2273 H   0  0  0  0  0  0  0  0  0  0  0  0
  150.4140  141.3611  155.8135 H   0  0  0  0  0  0  0  0  0  0  0  0
  149.5154  140.5918  153.3863 H   0  0  0  0  0  0  0  0  0  0  0  0
  148.7293  139.3605  154.3314 H   0  0  0  0  0  0  0  0  0  0  0  0
  147.0101  140.8818  154.5785 H   0  0  0  0  0  0  0  0  0  0  0  0
  148.0352  141.6652  155.7752 H   0  0  0  0  0  0  0  0  0  0  0  0
  148.5340  143.1623  154.3886 H   0  0  0  0  0  0  0  0  0  0  0  0
  1  2  1  0  0  0  0
  1 16  1  0  0  0  0
  1 17  1  0  0  0  0
  1 18  1  0  0  0  0
  2 15  1  0  0  0  0
  2  3  2  0  0  0  0
  3  4  1  0  0  0  0
  3 19  1  0  0  0  0
  4  5  1  0  0  0  0
  4 14  2  0  0  0  0
  5  6  1  0  0  0  0
  5 20  1  0  0  0  0
  5 21  1  0  0  0  0
  6  7  2  0  0  0  0
  6  8  2  0  0  0  0
  6  9  1  0  0  0  0
  9 10  1  0  0  0  0
 10 11  1  0  0  0  0
 10 22  1  0  0  0  0
 10 23  1  0  0  0  0
 11 12  1  0  0  0  0
 11 24  1  0  0  0  0
 11 25  1  0  0  0  0
 12 13  1  0  0  0  0
 12 26  1  0  0  0  0
 12 27  1  0  0  0  0
 13 28  1  0  0  0  0
 14 15  1  0  0  0  0
M  CHG  1   9  -1
M  END
> <s_m_source_file>
AV-unprocessed.smi

> <i_m_source_file_index>
2843

> <i_lp_mmshare_version>
43012

> <i_f3d_flags>
0

> <s_epik_input>
W0NIM11jMVtjSF1jKG5vMSlbQ0gyXVMoPU8pKD1PKVtOSF1bQ0gyXVtDSDJdW0NIMl1bT0hd

> <s_epik_cmdline>
J2VwaWtfcHl0aG9uJywgJy1waCcsICc3LjAnLCAnLXRuJywgJzgnLCAnLW1hJywgJzIwMCcsICctbWV0YWxfYmluZGluZycsICctaW1hZScsICc8aW5maWxlLm1hZT4nLCAnLW9tYWUnLCAnPG91dGZpbGUubWFlPic=

> <r_lp_tautomer_probability>
1

> <r_epik_Ionization_Penalty>
4.89444

> <r_epik_Ionization_Penalty_Charging>
4.89444

> <r_epik_Ionization_Penalty_Neutral>
8.7324e-07

> <r_epik_State_Penalty>
4.89429

> <r_epik_Charging_Adjusted_Penalty>
9.78873

> <i_epik_Tot_Q>
-1

> <i_epik_Tot_abs_Q>
1

> <r_epik_Metal_State_Penalty>
1.04833

> <b_epik_Metal_Only>
1

> <s_lp_Force_Field>
OPLS_2005

> <r_lp_Energy>
1.63452

> <b_lp_Chiralities_Consistent>
1

> <s_lp_Variant>
AV-unprocessed.smi:2843-2

> <Gold.Version>
5.8.1

> <Gold.Id.Protein>
6NUR|6NUR_protein|mol2

> <Gold.PLP.Fitness>
39.0373

> <Gold.PLP.PLP>
-30.5070

> <Gold.PLP.part.hbond>
-7.4732

> <Gold.PLP.part.metal>
0.0000

> <Gold.PLP.part.buried>
-3.5862

> <Gold.PLP.part.nonpolar>
-19.5808

> <Gold.PLP.part.repulsive>
0.1878

> <Gold.PLP.ligand.clash>
0.0000

> <Gold.PLP.ligand.torsion>
1.5974

> <Gold.PLP.Chemscore.Hbond>
3.5656

> <Gold.PLP.Chemscore.CHOScore>
0.0000

> <Gold.PLP.Chemscore.Metal>
0.0000

> <Gold.Chemscore.Hbonds>
donor molecule, donor type, donor heavy atom, donor atom, acceptor molecule, acceptor atom, score
      L1  H    13    28       P1  8028  1.00
      P1  H  7989  7998       L1     9  1.00
      P1  H  7997  8009       L1     7  0.81
      P1  H  8011  8017       L1    13  0.02
      P1  H 10752 10765       L1     8  0.71

> <Gold.PLP.Chemscore.Internal.Correction>
1.0282

> <Gold.Rescore>
     Score         DG    S(hbond)    S(metal)    S(lipo)     H(rot)  DE(clash)    DE(int)     intcor
     14.72     -16.40       3.41        0.00      54.80       2.69       0.00       1.68       ----

> <Gold.Chemscore.Fitness>
14.7181

> <Gold.Chemscore.DG>
-16.3983

> <Gold.Chemscore.ZeroCoef>
-5.4800

> <Gold.Chemscore.Hbond>
3.4134

> <Gold.Chemscore.Metal>
0.0000

> <Gold.Chemscore.Lipo>
54.8042

> <Gold.Chemscore.Internal_Hbond>
0.0000

> <Gold.Chemscore.DEClash>
0.0000

> <Gold.Chemscore.DEInternal>
1.6802

> <Gold.Chemscore.Rot>
2.6932

> <Gold.Chemscore.Internal.Correction>
   9.000000E+99

> <Gold.Chemscore.Hbonds>
donor molecule, donor type, donor heavy atom, donor atom, acceptor molecule, acceptor atom, score
      L1  H    13    28       P1  8028  0.95
      P1  H  7989  7998       L1     9  0.43
      P1  H  7997  8009       L1     7  0.73
      P1  H 10752 10765       L1     8  0.68

> <Gold.Chemscore.Hbond.Weighted>
-11.4007

> <Gold.Chemscore.Metal.Weighted>
-0.0000

> <Gold.Chemscore.Lipo.Weighted>
-6.4121

> <Gold.Chemscore.Internal_Hbond.Weighted>
0.0000

> <Gold.Chemscore.DEClash.Weighted>
0.0000

> <Gold.Chemscore.DEInternal.Weighted>
1.6802

> <Gold.Chemscore.Rot.Weighted>
6.8945

> <Gold.Chemscore.Internal.Correction.Weighted>
   9.000000E+99

> <Gold.Protein.RotatedTorsions>
[ 6907 6896 6895 6894 ] final   -8.97 input  -60.11 | X-H torsion
[ 7974 7965 7964 7962 ] final  157.67 input  175.53 | X-H torsion
[ 8008 7997 7996 7995 ] final -133.65 input   59.86 | X-H torsion
[ 10167 10162 10161 10158 ] final  168.63 input  -65.29 | X-H torsion
[ 10718 10713 10712 10709 ] final   34.31 input   66.30 | X-H torsion
[ 10763 10752 10751 10750 ] final  149.26 input  -60.55 | X-H torsion
[ 11005 11000 10999 10996 ] final -179.46 input  -57.11 | X-H torsion

> <Gold.Protein.ActiveResidues>
 VAL166  LYS551  ARG553  GLY616  TRP617  ASP618  TYR619  PRO620  LYS621  CYS622 
 ASP623  PHE694  ASN695  SER759  ASP760  ASP761  ALA762  ILE779  LEU786  VAL792 
 PHE793  MET794  SER795  GLU796  ALA797  LYS798  CYS799  TRP800  GLU811  SER814 

> <Gold.Protein.RotatedAtoms>
  151.4252  135.1003  159.9625 H   0  0  0  0  0  0  0  0  0  0  0  0  # atno 6907 bound_to 6896
  152.4975  133.8669  159.7289 H   0  0  0  0  0  0  0  0  0  0  0  0  # atno 6908 bound_to 6896
  150.9194  133.6841  159.2863 H   0  0  0  0  0  0  0  0  0  0  0  0  # atno 6909 bound_to 6896
  144.7890  139.7372  143.6229 H   0  0  0  0  0  0  0  0  0  0  0  0  # atno 7974 bound_to 7965
  155.3490  140.0476  157.3046 H   0  0  0  0  0  0  0  0  0  0  0  0  # atno 8008 bound_to 7997
  154.5237  140.2233  155.8893 H   0  0  0  0  0  0  0  0  0  0  0  0  # atno 8009 bound_to 7997
  156.1716  140.3094  155.8991 H   0  0  0  0  0  0  0  0  0  0  0  0  # atno 8010 bound_to 7997
  139.4972  144.3793  151.9639 H   0  0  0  0  0  0  0  0  0  0  0  0  # atno 10167 bound_to 10162
  157.3087  130.7388  149.6711 H   0  0  0  0  0  0  0  0  0  0  0  0  # atno 10718 bound_to 10713
  154.0682  135.2868  155.3313 H   0  0  0  0  0  0  0  0  0  0  0  0  # atno 10763 bound_to 10752
  154.6764  135.5280  153.8208 H   0  0  0  0  0  0  0  0  0  0  0  0  # atno 10764 bound_to 10752
  153.0495  135.6570  154.0866 H   0  0  0  0  0  0  0  0  0  0  0  0  # atno 10765 bound_to 10752
  140.4183  134.6628  157.4651 H   0  0  0  0  0  0  0  0  0  0  0  0  # atno 11005 bound_to 11000
  146.2134  139.5506  142.9666 LP  0  0  0  0  0  0  0  0  0  0  0  0  # atno 17320 bound_to 7965
  145.5845  141.0378  143.2104 LP  0  0  0  0  0  0  0  0  0  0  0  0  # atno 17321 bound_to 7965
  140.3230  144.3406  150.6005 LP  0  0  0  0  0  0  0  0  0  0  0  0  # atno 17342 bound_to 10162
  140.5707  143.2181  151.7604 LP  0  0  0  0  0  0  0  0  0  0  0  0  # atno 17343 bound_to 10162
  155.9676  130.4258  150.4669 LP  0  0  0  0  0  0  0  0  0  0  0  0  # atno 17370 bound_to 10713
  157.2663  131.0577  151.2288 LP  0  0  0  0  0  0  0  0  0  0  0  0  # atno 17371 bound_to 10713
  140.0218  134.6536  155.9229 LP  0  0  0  0  0  0  0  0  0  0  0  0  # atno 17394 bound_to 11000
  141.1794  133.6544  156.4958 LP  0  0  0  0  0  0  0  0  0  0  0  0  # atno 17395 bound_to 11000

$$$$
