AV-unprocessed.smi:1419|AV-procd|sdf|5777|dock3
  -GOLD-   22720 5423D 1   1.00000     0.00000
 Structure written by MMmdl.
 42 43  0  0  0  0  0  0  0  0  2 V2000
  146.4993  134.5996  153.4582 C   0  0  0  0  0  0  0  0  0  0  0  0
  146.5082  133.0823  153.2124 C   0  0  1  0  0  0  0  0  0  0  0  0
  146.9283  132.7065  151.7745 C   0  0  0  0  0  0  0  0  0  0  0  0
  145.8078  132.7228  150.8306 N   0  0  0  0  0  0  0  0  0  0  0  0
  145.7430  132.1241  149.5984 C   0  0  0  0  0  0  0  0  0  0  0  0
  144.5020  132.4100  149.0903 C   0  0  0  0  0  0  0  0  0  0  0  0
  143.8617  133.1681  150.0339 N   0  3  0  0  0  0  0  0  0  0  0  0
  144.6567  133.3551  151.0925 C   0  0  0  0  0  0  0  0  0  0  0  0
  147.3976  132.4454  154.1787 N   0  0  0  0  0  0  0  0  0  0  0  0
  148.7404  132.5104  154.1653 C   0  0  0  0  0  0  0  0  0  0  0  0
  149.3570  133.1214  153.2914 O   0  0  0  0  0  0  0  0  0  0  0  0
  149.3488  131.8476  155.1797 N   0  0  0  0  0  0  0  0  0  0  0  0
  148.7258  131.3749  156.4237 C   0  0  0  0  0  0  0  0  0  0  0  0
  149.2274  132.2418  157.5974 C   0  0  2  0  0  0  0  0  0  0  0  0
  148.6797  133.6806  157.5909 C   0  0  0  0  0  0  0  0  0  0  0  0
  150.6583  132.2269  157.6311 O   0  0  0  0  0  0  0  0  0  0  0  0
  151.3133  132.5913  156.4129 C   0  0  1  0  0  0  0  0  0  0  0  0
  152.8239  132.4485  156.6273 C   0  0  0  0  0  0  0  0  0  0  0  0
  150.8026  131.6983  155.2652 C   0  0  0  0  0  0  0  0  0  0  0  0
  145.7768  135.1044  152.8170 H   0  0  0  0  0  0  0  0  0  0  0  0
  147.4792  135.0381  153.2666 H   0  0  0  0  0  0  0  0  0  0  0  0
  146.2294  134.8276  154.4901 H   0  0  0  0  0  0  0  0  0  0  0  0
  145.4943  132.7178  153.3888 H   0  0  0  0  0  0  0  0  0  0  0  0
  147.6890  133.3956  151.4045 H   0  0  0  0  0  0  0  0  0  0  0  0
  147.3672  131.7080  151.7438 H   0  0  0  0  0  0  0  0  0  0  0  0
  146.5640  131.5561  149.1850 H   0  0  0  0  0  0  0  0  0  0  0  0
  144.0384  132.1375  148.1532 H   0  0  0  0  0  0  0  0  0  0  0  0
  144.4172  133.9089  151.9831 H   0  0  0  0  0  0  0  0  0  0  0  0
  146.9610  131.9181  154.9211 H   0  0  0  0  0  0  0  0  0  0  0  0
  147.6360  131.3674  156.4040 H   0  0  0  0  0  0  0  0  0  0  0  0
  149.0155  130.3358  156.5870 H   0  0  0  0  0  0  0  0  0  0  0  0
  148.8933  131.7759  158.5249 H   0  0  0  0  0  0  0  0  0  0  0  0
  147.5911  133.6795  157.6479 H   0  0  0  0  0  0  0  0  0  0  0  0
  148.9572  134.2289  156.6913 H   0  0  0  0  0  0  0  0  0  0  0  0
  149.0541  134.2402  158.4483 H   0  0  0  0  0  0  0  0  0  0  0  0
  151.1009  133.6363  156.1845 H   0  0  0  0  0  0  0  0  0  0  0  0
  153.3763  132.7267  155.7296 H   0  0  0  0  0  0  0  0  0  0  0  0
  153.0916  131.4222  156.8807 H   0  0  0  0  0  0  0  0  0  0  0  0
  153.1642  133.0916  157.4391 H   0  0  0  0  0  0  0  0  0  0  0  0
  151.0503  130.6531  155.4565 H   0  0  0  0  0  0  0  0  0  0  0  0
  151.3070  131.9591  154.3338 H   0  0  0  0  0  0  0  0  0  0  0  0
  142.9220  133.5346  149.9467 H   0  0  0  0  0  0  0  0  0  0  0  0
  1  2  1  0  0  0  0
  1 20  1  0  0  0  0
  1 21  1  0  0  0  0
  1 22  1  0  0  0  0
  2  3  1  0  0  0  0
  2  9  1  0  0  0  0
  2 23  1  0  0  0  0
  3  4  1  0  0  0  0
  3 24  1  0  0  0  0
  3 25  1  0  0  0  0
  4  8  1  0  0  0  0
  4  5  1  0  0  0  0
  5  6  2  0  0  0  0
  5 26  1  0  0  0  0
  6  7  1  0  0  0  0
  6 27  1  0  0  0  0
  7  8  2  0  0  0  0
  7 42  1  0  0  0  0
  8 28  1  0  0  0  0
  9 10  1  0  0  0  0
  9 29  1  0  0  0  0
 10 11  2  0  0  0  0
 10 12  1  0  0  0  0
 12 19  1  0  0  0  0
 12 13  1  0  0  0  0
 13 14  1  0  0  0  0
 13 30  1  0  0  0  0
 13 31  1  0  0  0  0
 14 15  1  0  0  0  0
 14 16  1  0  0  0  0
 14 32  1  0  0  0  0
 15 33  1  0  0  0  0
 15 34  1  0  0  0  0
 15 35  1  0  0  0  0
 16 17  1  0  0  0  0
 17 18  1  0  0  0  0
 17 19  1  0  0  0  0
 17 36  1  0  0  0  0
 18 37  1  0  0  0  0
 18 38  1  0  0  0  0
 18 39  1  0  0  0  0
 19 40  1  0  0  0  0
 19 41  1  0  0  0  0
M  CHG  1   7   1
M  END
> <s_m_source_file>
AV-unprocessed.smi

> <i_m_source_file_index>
1419

> <i_lp_mmshare_version>
43012

> <i_f3d_flags>
0

> <s_epik_input>
W2NIXTFuW2NIXVtjSF1uMVtDSDJdW0NAQEhdKFtDSDNdKVtOSF1DKD1PKU4yW0NIMl1bQ0BASF0oW0NIM10pT1tDQEBIXShbQ0gzXSlbQ0gyXTI=

> <s_epik_cmdline>
J2VwaWtfcHl0aG9uJywgJy1waCcsICc3LjAnLCAnLXRuJywgJzgnLCAnLW1hJywgJzIwMCcsICctbWV0YWxfYmluZGluZycsICctaW1hZScsICc8aW5maWxlLm1hZT4nLCAnLW9tYWUnLCAnPG91dGZpbGUubWFlPic=

> <r_lp_tautomer_probability>
1

> <r_epik_Ionization_Penalty>
0.253607

> <r_epik_Ionization_Penalty_Charging>
0

> <r_epik_Ionization_Penalty_Neutral>
0.253607

> <r_epik_State_Penalty>
0.245018

> <r_epik_Charging_Adjusted_Penalty>
0.245018

> <i_epik_Tot_Q>
1

> <i_epik_Tot_abs_Q>
1

> <r_epik_Metal_State_Penalty>
0.535379

> <b_epik_Metal_Only>
0

> <s_lp_Force_Field>
OPLS_2005

> <r_lp_Energy>
32.5002

> <b_lp_Chiralities_Consistent>
1

> <s_lp_Variant>
AV-unprocessed.smi:1419-4

> <Gold.Version>
5.8.1

> <Gold.Id.Protein>
6NUR|6NUR_protein|mol2

> <Gold.PLP.Fitness>
37.2275

> <Gold.PLP.PLP>
-28.4120

> <Gold.PLP.part.hbond>
-1.9591

> <Gold.PLP.part.metal>
0.0000

> <Gold.PLP.part.buried>
-3.9995

> <Gold.PLP.part.nonpolar>
-22.3297

> <Gold.PLP.part.repulsive>
0.2763

> <Gold.PLP.ligand.clash>
0.0000

> <Gold.PLP.ligand.torsion>
0.7255

> <Gold.PLP.Chemscore.Hbond>
3.0000

> <Gold.PLP.Chemscore.CHOScore>
0.3964

> <Gold.PLP.Chemscore.Metal>
0.0000

> <Gold.Chemscore.Hbonds>
donor molecule, donor type, donor heavy atom, donor atom, acceptor molecule, acceptor atom, score
      L1  H     7    42       P1 10186  1.43
      P1  H  6896  6907       L1    16  0.94
      L1  C     5    26       P1 10747  0.55

> <Gold.PLP.Chemscore.Internal.Correction>
0.0772

> <Gold.Rescore>
     Score         DG    S(hbond)    S(metal)    S(lipo)     H(rot)  DE(clash)    DE(int)     intcor
     12.87     -14.67       1.90        0.00      59.91       1.63       0.19       1.61       ----

> <Gold.Chemscore.Fitness>
12.8737

> <Gold.Chemscore.DG>
-14.6688

> <Gold.Chemscore.ZeroCoef>
-5.4800

> <Gold.Chemscore.Hbond>
1.8999

> <Gold.Chemscore.Metal>
0.0000

> <Gold.Chemscore.Lipo>
59.9061

> <Gold.Chemscore.Internal_Hbond>
0.0000

> <Gold.Chemscore.DEClash>
0.1899

> <Gold.Chemscore.DEInternal>
1.6052

> <Gold.Chemscore.Rot>
1.6273

> <Gold.Chemscore.Internal.Correction>
   9.000000E+99

> <Gold.Chemscore.Hbonds>
donor molecule, donor type, donor heavy atom, donor atom, acceptor molecule, acceptor atom, score
      L1  H     7    42       P1 10186  0.71
      P1  H  6896  6907       L1    16  0.52

> <Gold.Chemscore.Hbond.Weighted>
-6.3456

> <Gold.Chemscore.Metal.Weighted>
-0.0000

> <Gold.Chemscore.Lipo.Weighted>
-7.0090

> <Gold.Chemscore.Internal_Hbond.Weighted>
0.0000

> <Gold.Chemscore.DEClash.Weighted>
0.1899

> <Gold.Chemscore.DEInternal.Weighted>
1.6052

> <Gold.Chemscore.Rot.Weighted>
4.1658

> <Gold.Chemscore.Internal.Correction.Weighted>
   9.000000E+99

> <Gold.Protein.RotatedTorsions>
[ 6907 6896 6895 6894 ] final -158.58 input  -60.11 | X-H torsion
[ 7974 7965 7964 7962 ] final  -61.12 input  175.53 | X-H torsion
[ 8008 7997 7996 7995 ] final  -25.38 input   59.86 | X-H torsion
[ 10167 10162 10161 10158 ] final   71.64 input  -65.29 | X-H torsion
[ 10718 10713 10712 10709 ] final -102.89 input   66.30 | X-H torsion
[ 10763 10752 10751 10750 ] final   96.32 input  -60.55 | X-H torsion
[ 11005 11000 10999 10996 ] final  173.51 input  -57.11 | X-H torsion

> <Gold.Protein.ActiveResidues>
 VAL166  LYS551  ARG553  GLY616  TRP617  ASP618  TYR619  PRO620  LYS621  CYS622 
 ASP623  PHE694  ASN695  SER759  ASP760  ASP761  ALA762  ILE779  LEU786  VAL792 
 PHE793  MET794  SER795  GLU796  ALA797  LYS798  CYS799  TRP800  GLU811  SER814 

> <Gold.Protein.RotatedAtoms>
  151.3204  133.4042  159.2653 H   0  0  0  0  0  0  0  0  0  0  0  0  # atno 6907 bound_to 6896
  151.0039  134.9344  159.7980 H   0  0  0  0  0  0  0  0  0  0  0  0  # atno 6908 bound_to 6896
  152.5282  134.3169  159.9186 H   0  0  0  0  0  0  0  0  0  0  0  0  # atno 6909 bound_to 6896
  145.8073  140.8620  143.0200 H   0  0  0  0  0  0  0  0  0  0  0  0  # atno 7974 bound_to 7965
  154.4479  140.1928  156.0611 H   0  0  0  0  0  0  0  0  0  0  0  0  # atno 8008 bound_to 7997
  156.0582  140.3300  155.7403 H   0  0  0  0  0  0  0  0  0  0  0  0  # atno 8009 bound_to 7997
  155.5452  140.0590  157.2852 H   0  0  0  0  0  0  0  0  0  0  0  0  # atno 8010 bound_to 7997
  140.0439  144.5367  150.7413 H   0  0  0  0  0  0  0  0  0  0  0  0  # atno 10167 bound_to 10162
  156.0245  130.5441  150.7174 H   0  0  0  0  0  0  0  0  0  0  0  0  # atno 10718 bound_to 10713
  153.2636  135.4222  155.0918 H   0  0  0  0  0  0  0  0  0  0  0  0  # atno 10763 bound_to 10752
  154.8429  135.3455  154.6343 H   0  0  0  0  0  0  0  0  0  0  0  0  # atno 10764 bound_to 10752
  153.6763  135.7041  153.5189 H   0  0  0  0  0  0  0  0  0  0  0  0  # atno 10765 bound_to 10752
  140.3412  134.7274  157.4204 H   0  0  0  0  0  0  0  0  0  0  0  0  # atno 11005 bound_to 11000
  144.6761  140.0345  143.7482 LP  0  0  0  0  0  0  0  0  0  0  0  0  # atno 17320 bound_to 7965
  145.9814  139.2944  143.1039 LP  0  0  0  0  0  0  0  0  0  0  0  0  # atno 17321 bound_to 7965
  140.7247  143.2624  151.4159 LP  0  0  0  0  0  0  0  0  0  0  0  0  # atno 17342 bound_to 10162
  139.5996  144.1324  152.2183 LP  0  0  0  0  0  0  0  0  0  0  0  0  # atno 17343 bound_to 10162
  157.4797  131.0901  151.0549 LP  0  0  0  0  0  0  0  0  0  0  0  0  # atno 17370 bound_to 10713
  157.0986  130.5972  149.5455 LP  0  0  0  0  0  0  0  0  0  0  0  0  # atno 17371 bound_to 10713
  140.0779  134.5771  155.8571 LP  0  0  0  0  0  0  0  0  0  0  0  0  # atno 17394 bound_to 11000
  141.2038  133.6634  156.6082 LP  0  0  0  0  0  0  0  0  0  0  0  0  # atno 17395 bound_to 11000

$$$$
