AV-unprocessed.smi:1703|AV-procd|sdf|6878|dock3
  -GOLD-   22720 8 83D 1   1.00000     0.00000
 Structure written by MMmdl.
 50 52  0  0  0  0  0  0  0  0  3 V2000
  146.1442  135.1297  159.7161 C   0  0  0  0  0  0  0  0  0  0  0  0
  147.5367  134.6174  160.1265 C   0  0  1  0  0  0  0  0  0  0  0  0
  148.6665  135.0935  159.1921 C   0  0  0  0  0  0  0  0  0  0  0  0
  148.9651  136.5287  159.4074 N   0  3  2  0  0  0  0  0  0  0  0  0
  149.9874  137.0493  158.4643 C   0  0  0  0  0  0  0  0  0  0  0  0
  150.1006  138.5859  158.5097 C   0  0  2  0  0  0  0  0  0  0  0  0
  148.8038  139.1432  158.4100 O   0  0  0  0  0  0  0  0  0  0  0  0
  150.9829  139.1323  157.3700 C   0  0  0  0  0  0  0  0  0  0  0  0
  150.8903  140.5959  157.2334 N   0  0  0  0  0  0  0  0  0  0  0  0
  150.1857  141.3471  156.3379 C   0  0  0  0  0  0  0  0  0  0  0  0
  149.3068  140.8359  155.2405 C   0  0  0  0  0  0  0  0  0  0  0  0
  148.7779  141.8617  154.4273 O   0  0  0  0  0  0  0  0  0  0  0  0
  150.4453  142.6562  156.6185 N   0  3  0  0  0  0  0  0  0  0  0  0
  151.3171  142.7451  157.7034 C   0  0  0  0  0  0  0  0  0  0  0  0
  151.8603  143.8543  158.3444 C   0  0  0  0  0  0  0  0  0  0  0  0
  152.7256  143.5983  159.4277 C   0  0  0  0  0  0  0  0  0  0  0  0
  153.0223  142.2812  159.8340 C   0  0  0  0  0  0  0  0  0  0  0  0
  152.4662  141.1645  159.1753 C   0  0  0  0  0  0  0  0  0  0  0  0
  151.6085  141.4252  158.1057 C   0  0  0  0  0  0  0  0  0  0  0  0
  149.2840  136.7785  160.8336 C   0  0  0  0  0  0  0  0  0  0  0  0
  148.1202  136.3144  161.7285 C   0  0  2  0  0  0  0  0  0  0  0  0
  148.4410  136.4725  163.2187 C   0  0  0  0  0  0  0  0  0  0  0  0
  147.8527  134.9362  161.4820 O   0  0  0  0  0  0  0  0  0  0  0  0
  145.8703  134.7549  158.7294 H   0  0  0  0  0  0  0  0  0  0  0  0
  146.0985  136.2176  159.6722 H   0  0  0  0  0  0  0  0  0  0  0  0
  145.3824  134.7908  160.4183 H   0  0  0  0  0  0  0  0  0  0  0  0
  147.4994  133.5287  160.0741 H   0  0  0  0  0  0  0  0  0  0  0  0
  149.5699  134.5104  159.3781 H   0  0  0  0  0  0  0  0  0  0  0  0
  148.3852  134.9182  158.1528 H   0  0  0  0  0  0  0  0  0  0  0  0
  150.9504  136.5857  158.6850 H   0  0  0  0  0  0  0  0  0  0  0  0
  149.7344  136.7517  157.4453 H   0  0  0  0  0  0  0  0  0  0  0  0
  150.5301  138.9026  159.4596 H   0  0  0  0  0  0  0  0  0  0  0  0
  148.2142  138.4832  158.0784 H   0  0  0  0  0  0  0  0  0  0  0  0
  152.0287  138.8911  157.5622 H   0  0  0  0  0  0  0  0  0  0  0  0
  150.7394  138.6600  156.4183 H   0  0  0  0  0  0  0  0  0  0  0  0
  149.8823  140.1518  154.6166 H   0  0  0  0  0  0  0  0  0  0  0  0
  148.4793  140.2692  155.6669 H   0  0  0  0  0  0  0  0  0  0  0  0
  148.7165  142.6529  154.9412 H   0  0  0  0  0  0  0  0  0  0  0  0
  151.6359  144.8641  158.0331 H   0  0  0  0  0  0  0  0  0  0  0  0
  153.1712  144.4287  159.9563 H   0  0  0  0  0  0  0  0  0  0  0  0
  153.6911  142.1239  160.6680 H   0  0  0  0  0  0  0  0  0  0  0  0
  152.7065  140.1626  159.4972 H   0  0  0  0  0  0  0  0  0  0  0  0
  150.2008  136.2500  161.1007 H   0  0  0  0  0  0  0  0  0  0  0  0
  149.4681  137.8389  161.0036 H   0  0  0  0  0  0  0  0  0  0  0  0
  147.2317  136.9078  161.5111 H   0  0  0  0  0  0  0  0  0  0  0  0
  148.6464  137.5138  163.4684 H   0  0  0  0  0  0  0  0  0  0  0  0
  149.3132  135.8819  163.5006 H   0  0  0  0  0  0  0  0  0  0  0  0
  147.6033  136.1434  163.8341 H   0  0  0  0  0  0  0  0  0  0  0  0
  148.1108  137.0277  159.2020 H   0  0  0  0  0  0  0  0  0  0  0  0
  150.0533  143.4310  156.0979 H   0  0  0  0  0  0  0  0  0  0  0  0
  1  2  1  0  0  0  0
  1 24  1  0  0  0  0
  1 25  1  0  0  0  0
  1 26  1  0  0  0  0
  2 23  1  0  0  0  0
  2  3  1  0  0  0  0
  2 27  1  0  0  0  0
  3  4  1  0  0  0  0
  3 28  1  0  0  0  0
  3 29  1  0  0  0  0
  4  5  1  0  0  0  0
  4 20  1  0  0  0  0
  4 49  1  0  0  0  0
  5  6  1  0  0  0  0
  5 30  1  0  0  0  0
  5 31  1  0  0  0  0
  6  7  1  0  0  0  0
  6  8  1  0  0  0  0
  6 32  1  0  0  0  0
  7 33  1  0  0  0  0
  8  9  1  0  0  0  0
  8 34  1  0  0  0  0
  8 35  1  0  0  0  0
  9 19  1  0  0  0  0
  9 10  1  0  0  0  0
 10 11  1  0  0  0  0
 10 13  2  0  0  0  0
 11 12  1  0  0  0  0
 11 36  1  0  0  0  0
 11 37  1  0  0  0  0
 12 38  1  0  0  0  0
 13 14  1  0  0  0  0
 13 50  1  0  0  0  0
 14 19  2  0  0  0  0
 14 15  1  0  0  0  0
 15 16  2  0  0  0  0
 15 39  1  0  0  0  0
 16 17  1  0  0  0  0
 16 40  1  0  0  0  0
 17 18  2  0  0  0  0
 17 41  1  0  0  0  0
 18 19  1  0  0  0  0
 18 42  1  0  0  0  0
 20 21  1  0  0  0  0
 20 43  1  0  0  0  0
 20 44  1  0  0  0  0
 21 22  1  0  0  0  0
 21 23  1  0  0  0  0
 21 45  1  0  0  0  0
 22 46  1  0  0  0  0
 22 47  1  0  0  0  0
 22 48  1  0  0  0  0
M  CHG  1   4   1
M  CHG  1  13   1
M  END
> <s_m_source_file>
AV-unprocessed.smi

> <i_m_source_file_index>
1703

> <i_lp_mmshare_version>
43012

> <i_f3d_flags>
0

> <s_epik_input>
W0NIM11bQ0BASF0xW0NIMl1OKFtDSDJdW0NASF0oTzEpW0NIM10pW0NIMl1bQ0BIXShbT0hdKVtDSDJdbihjKG4yKVtDSDJdW09IXSljKGMyMylbY0hdW2NIXVtjSF1bY0hdMw==

> <s_epik_cmdline>
J2VwaWtfcHl0aG9uJywgJy1waCcsICc3LjAnLCAnLXRuJywgJzgnLCAnLW1hJywgJzIwMCcsICctbWV0YWxfYmluZGluZycsICctaW1hZScsICc8aW5maWxlLm1hZT4nLCAnLW9tYWUnLCAnPG91dGZpbGUubWFlPic=

> <r_epik_Ionization_Penalty>
2.22579

> <r_epik_Ionization_Penalty_Charging>
2.22492

> <r_epik_Ionization_Penalty_Neutral>
0.000870007

> <r_epik_State_Penalty>
2.3141

> <r_epik_Charging_Adjusted_Penalty>
4.53902

> <i_epik_Tot_Q>
2

> <i_epik_Tot_abs_Q>
2

> <r_epik_Metal_State_Penalty>
6.36517

> <b_epik_Metal_Only>
0

> <s_lp_Force_Field>
OPLS_2005

> <r_lp_Energy>
31.039

> <b_lp_Chiralities_Consistent>
1

> <s_lp_Variant>
AV-unprocessed.smi:1703-26

> <Gold.Version>
5.8.1

> <Gold.Id.Protein>
6NUR|6NUR_protein|mol2

> <Gold.PLP.Fitness>
52.0605

> <Gold.PLP.PLP>
-43.0670

> <Gold.PLP.part.hbond>
-3.8305

> <Gold.PLP.part.metal>
0.0000

> <Gold.PLP.part.buried>
-3.8353

> <Gold.PLP.part.nonpolar>
-35.6727

> <Gold.PLP.part.repulsive>
0.2026

> <Gold.PLP.ligand.clash>
0.0000

> <Gold.PLP.ligand.torsion>
0.4302

> <Gold.PLP.Chemscore.Hbond>
3.2600

> <Gold.PLP.Chemscore.CHOScore>
0.0000

> <Gold.PLP.Chemscore.Metal>
0.0000

> <Gold.Chemscore.Hbonds>
donor molecule, donor type, donor heavy atom, donor atom, acceptor molecule, acceptor atom, score
      L1  H    12    38       P1  8028  0.63
      L1  H    13    50       P1  8028  2.00
      P1  H  8011  8017       L1    12  0.05

> <Gold.PLP.Chemscore.Internal.Correction>
0.0738

> <Gold.Rescore>
     Score         DG    S(hbond)    S(metal)    S(lipo)     H(rot)  DE(clash)    DE(int)     intcor
     16.86     -17.79       2.07        0.00     112.49       3.04       0.06       0.87       ----

> <Gold.Chemscore.Fitness>
16.8645

> <Gold.Chemscore.DG>
-17.7910

> <Gold.Chemscore.ZeroCoef>
-5.4800

> <Gold.Chemscore.Hbond>
2.0738

> <Gold.Chemscore.Metal>
0.0000

> <Gold.Chemscore.Lipo>
112.4892

> <Gold.Chemscore.Internal_Hbond>
0.0000

> <Gold.Chemscore.DEClash>
0.0599

> <Gold.Chemscore.DEInternal>
0.8666

> <Gold.Chemscore.Rot>
3.0378

> <Gold.Chemscore.Internal.Correction>
   9.000000E+99

> <Gold.Chemscore.Hbonds>
donor molecule, donor type, donor heavy atom, donor atom, acceptor molecule, acceptor atom, score
      L1  H    12    38       P1  8028  0.62
      L1  H    13    50       P1  8028  0.99
      P1  H  8011  8017       L1    12  0.04

> <Gold.Chemscore.Hbond.Weighted>
-6.9264

> <Gold.Chemscore.Metal.Weighted>
-0.0000

> <Gold.Chemscore.Lipo.Weighted>
-13.1612

> <Gold.Chemscore.Internal_Hbond.Weighted>
0.0000

> <Gold.Chemscore.DEClash.Weighted>
0.0599

> <Gold.Chemscore.DEInternal.Weighted>
0.8666

> <Gold.Chemscore.Rot.Weighted>
7.7767

> <Gold.Chemscore.Internal.Correction.Weighted>
   9.000000E+99

> <Gold.Protein.RotatedTorsions>
[ 6907 6896 6895 6894 ] final -103.85 input  -60.11 | X-H torsion
[ 7974 7965 7964 7962 ] final  116.83 input  175.53 | X-H torsion
[ 8008 7997 7996 7995 ] final   12.35 input   59.86 | X-H torsion
[ 10167 10162 10161 10158 ] final  -46.58 input  -65.29 | X-H torsion
[ 10718 10713 10712 10709 ] final   -6.22 input   66.30 | X-H torsion
[ 10763 10752 10751 10750 ] final   85.09 input  -60.55 | X-H torsion
[ 11005 11000 10999 10996 ] final -111.58 input  -57.11 | X-H torsion

> <Gold.Protein.ActiveResidues>
 VAL166  LYS551  ARG553  GLY616  TRP617  ASP618  TYR619  PRO620  LYS621  CYS622 
 ASP623  PHE694  ASN695  SER759  ASP760  ASP761  ALA762  ILE779  LEU786  VAL792 
 PHE793  MET794  SER795  GLU796  ALA797  LYS798  CYS799  TRP800  GLU811  SER814 

> <Gold.Protein.RotatedAtoms>
  150.7259  134.0367  159.3751 H   0  0  0  0  0  0  0  0  0  0  0  0  # atno 6907 bound_to 6896
  151.8339  135.0610  160.0449 H   0  0  0  0  0  0  0  0  0  0  0  0  # atno 6908 bound_to 6896
  152.2913  133.5528  159.5596 H   0  0  0  0  0  0  0  0  0  0  0  0  # atno 6909 bound_to 6896
  145.1749  139.3081  143.4448 H   0  0  0  0  0  0  0  0  0  0  0  0  # atno 7974 bound_to 7965
  154.8194  140.2881  155.5798 H   0  0  0  0  0  0  0  0  0  0  0  0  # atno 8008 bound_to 7997
  156.2996  140.2553  156.3028 H   0  0  0  0  0  0  0  0  0  0  0  0  # atno 8009 bound_to 7997
  154.9356  140.0382  157.2060 H   0  0  0  0  0  0  0  0  0  0  0  0  # atno 8010 bound_to 7997
  140.6811  143.2824  151.3804 H   0  0  0  0  0  0  0  0  0  0  0  0  # atno 10167 bound_to 10162
  156.7350  130.5192  149.5837 H   0  0  0  0  0  0  0  0  0  0  0  0  # atno 10718 bound_to 10713
  153.1442  135.4630  154.9541 H   0  0  0  0  0  0  0  0  0  0  0  0  # atno 10763 bound_to 10752
  154.7772  135.3177  154.8069 H   0  0  0  0  0  0  0  0  0  0  0  0  # atno 10764 bound_to 10752
  153.8586  135.6915  153.4839 H   0  0  0  0  0  0  0  0  0  0  0  0  # atno 10765 bound_to 10752
  141.0726  133.9354  157.2454 H   0  0  0  0  0  0  0  0  0  0  0  0  # atno 11005 bound_to 11000
  146.3463  140.1907  142.8589 LP  0  0  0  0  0  0  0  0  0  0  0  0  # atno 17320 bound_to 7965
  145.0195  140.8782  143.5175 LP  0  0  0  0  0  0  0  0  0  0  0  0  # atno 17321 bound_to 7965
  139.6135  144.1051  152.2322 LP  0  0  0  0  0  0  0  0  0  0  0  0  # atno 17342 bound_to 10162
  140.0472  144.5961  150.7364 LP  0  0  0  0  0  0  0  0  0  0  0  0  # atno 17343 bound_to 10162
  156.1503  130.6305  151.0586 LP  0  0  0  0  0  0  0  0  0  0  0  0  # atno 17370 bound_to 10713
  157.6843  131.0829  150.7286 LP  0  0  0  0  0  0  0  0  0  0  0  0  # atno 17371 bound_to 10713
  139.9539  135.0170  156.9072 LP  0  0  0  0  0  0  0  0  0  0  0  0  # atno 17394 bound_to 11000
  140.5641  134.0506  155.7408 LP  0  0  0  0  0  0  0  0  0  0  0  0  # atno 17395 bound_to 11000

$$$$
