AV-unprocessed.smi:100|AV-procd|sdf|897|dock6
  -GOLD-   2262017393D 1   1.00000     0.00000
 Structure written by MMmdl.
 31 33  0  0  0  0  0  0  0  0  1 V2000
  150.9002  137.9318  153.7911 N   0  0  0  0  0  0  0  0  0  0  0  0
  151.0967  138.2814  155.0698 C   0  0  0  0  0  0  0  0  0  0  0  0
  151.5324  137.3365  155.9363 N   0  0  0  0  0  0  0  0  0  0  0  0
  151.7378  137.6611  157.2174 C   0  0  0  0  0  0  0  0  0  0  0  0
  151.5718  138.8433  157.8178 N   0  0  0  0  0  0  0  0  0  0  0  0
  151.1293  139.7917  156.9409 C   0  0  0  0  0  0  0  0  0  0  0  0
  150.8709  139.5935  155.5568 C   0  0  0  0  0  0  0  0  0  0  0  0
  150.4420  140.7822  154.9806 N   0  0  0  0  0  0  0  0  0  0  0  0
  150.4480  141.6321  155.9729 C   0  0  0  0  0  0  0  0  0  0  0  0
  150.8454  141.1167  157.1884 N   0  0  0  0  0  0  0  0  0  0  0  0
  150.9701  141.8151  158.5013 C   0  0  2  0  0  0  0  0  0  0  0  0
  149.9927  142.8121  158.5356 O   0  0  0  0  0  0  0  0  0  0  0  0
  150.5440  144.0446  158.9874 C   0  0  1  0  0  0  0  0  0  0  0  0
  150.4030  144.1319  160.5196 C   0  0  0  0  0  0  0  0  0  0  0  0
  149.0422  144.2557  160.8723 O   0  0  0  0  0  0  0  0  0  0  0  0
  151.9990  143.9721  158.5185 C   0  0  2  0  0  0  0  0  0  0  0  0
  152.0733  144.3760  157.2491 F   0  0  0  0  0  0  0  0  0  0  0  0
  152.3461  142.4938  158.5976 C   0  0  1  0  0  0  0  0  0  0  0  0
  153.0041  142.1978  159.8132 O   0  0  0  0  0  0  0  0  0  0  0  0
  150.5764  138.6199  153.1267 H   0  0  0  0  0  0  0  0  0  0  0  0
  151.0754  136.9826  153.4949 H   0  0  0  0  0  0  0  0  0  0  0  0
  152.0843  136.8591  157.8525 H   0  0  0  0  0  0  0  0  0  0  0  0
  150.1611  142.6658  155.8443 H   0  0  0  0  0  0  0  0  0  0  0  0
  150.7836  141.0540  159.2606 H   0  0  0  0  0  0  0  0  0  0  0  0
  150.0357  144.8890  158.5192 H   0  0  0  0  0  0  0  0  0  0  0  0
  150.8427  143.2692  161.0207 H   0  0  0  0  0  0  0  0  0  0  0  0
  150.9158  145.0180  160.8948 H   0  0  0  0  0  0  0  0  0  0  0  0
  148.5843  144.6776  160.1615 H   0  0  0  0  0  0  0  0  0  0  0  0
  152.6743  144.6139  159.0858 H   0  0  0  0  0  0  0  0  0  0  0  0
  152.9971  142.1860  157.7775 H   0  0  0  0  0  0  0  0  0  0  0  0
  152.3490  142.0392  160.4763 H   0  0  0  0  0  0  0  0  0  0  0  0
  1  2  1  0  0  0  0
  1 20  1  0  0  0  0
  1 21  1  0  0  0  0
  2  7  1  0  0  0  0
  2  3  2  0  0  0  0
  3  4  1  0  0  0  0
  4  5  2  0  0  0  0
  4 22  1  0  0  0  0
  5  6  1  0  0  0  0
  6 10  1  0  0  0  0
  6  7  2  0  0  0  0
  7  8  1  0  0  0  0
  8  9  2  0  0  0  0
  9 10  1  0  0  0  0
  9 23  1  0  0  0  0
 10 11  1  0  0  0  0
 11 18  1  0  0  0  0
 11 12  1  0  0  0  0
 11 24  1  0  0  0  0
 12 13  1  0  0  0  0
 13 14  1  0  0  0  0
 13 16  1  0  0  0  0
 13 25  1  0  0  0  0
 14 15  1  0  0  0  0
 14 26  1  0  0  0  0
 14 27  1  0  0  0  0
 15 28  1  0  0  0  0
 16 17  1  0  0  0  0
 16 18  1  0  0  0  0
 16 29  1  0  0  0  0
 18 19  1  0  0  0  0
 18 30  1  0  0  0  0
 19 31  1  0  0  0  0
M  END
> <s_m_source_file>
AV-unprocessed.smi

> <i_m_source_file_index>
100

> <i_lp_mmshare_version>
43012

> <i_f3d_flags>
0

> <s_epik_input>
bjFbY0hdbmMoW05IMl0pYyhjMTIpbltjSF1uMltDQEBIXTNPW0NAQEhdKFtDSDJdW09IXSlbQ0BIXShGKVtDQEhdM1tPSF0=

> <s_epik_cmdline>
J2VwaWtfcHl0aG9uJywgJy1waCcsICc3LjAnLCAnLXRuJywgJzgnLCAnLW1hJywgJzIwMCcsICctbWV0YWxfYmluZGluZycsICctaW1hZScsICc8aW5maWxlLm1hZT4nLCAnLW9tYWUnLCAnPG91dGZpbGUubWFlPic=

> <r_lp_tautomer_probability>
1

> <r_epik_Ionization_Penalty>
0.000750324

> <r_epik_Ionization_Penalty_Charging>
0

> <r_epik_Ionization_Penalty_Neutral>
0.000750324

> <r_epik_State_Penalty>
-0

> <r_epik_Charging_Adjusted_Penalty>
0

> <i_epik_Tot_Q>
0

> <i_epik_Tot_abs_Q>
0

> <r_epik_Metal_State_Penalty>
-0

> <b_epik_Metal_Only>
0

> <s_epik_Chemistry_Notes>
This compound contains an acetal/aminal-like group ( X-CH(R)-Y where X, Y are N, S, or O) that may be acid/base labile, releasing an aldehyde.

> <s_lp_Force_Field>
OPLS_2005

> <r_lp_Energy>
27.7777

> <b_lp_Chiralities_Consistent>
1

> <s_lp_Variant>
AV-unprocessed.smi:100-1

> <Gold.Version>
5.8.1

> <Gold.Id.Protein>
6NUR|6NUR_protein|mol2

> <Gold.PLP.Fitness>
37.2121

> <Gold.PLP.PLP>
-30.2406

> <Gold.PLP.part.hbond>
-3.5169

> <Gold.PLP.part.metal>
0.0000

> <Gold.PLP.part.buried>
-4.9837

> <Gold.PLP.part.nonpolar>
-22.6593

> <Gold.PLP.part.repulsive>
0.3410

> <Gold.PLP.ligand.clash>
0.0000

> <Gold.PLP.ligand.torsion>
0.7462

> <Gold.PLP.Chemscore.Hbond>
1.8156

> <Gold.PLP.Chemscore.CHOScore>
1.0000

> <Gold.PLP.Chemscore.Metal>
0.0000

> <Gold.Chemscore.Hbonds>
donor molecule, donor type, donor heavy atom, donor atom, acceptor molecule, acceptor atom, score
      L1  H     1    21       P1  7949  0.32
      P1  H  6933  6944       L1    15  0.62
      P1  H  7989  7998       L1     8  0.85
      L1  C     9    23       P1  8028  1.00

> <Gold.PLP.Chemscore.Internal.Correction>
0.0172

> <Gold.Rescore>
     Score         DG    S(hbond)    S(metal)    S(lipo)     H(rot)  DE(clash)    DE(int)     intcor
      8.15     -10.63       2.34        0.00      47.18       3.19       1.76       0.73       ----

> <Gold.Chemscore.Fitness>
8.1455

> <Gold.Chemscore.DG>
-10.6344

> <Gold.Chemscore.ZeroCoef>
-5.4800

> <Gold.Chemscore.Hbond>
2.3355

> <Gold.Chemscore.Metal>
0.0000

> <Gold.Chemscore.Lipo>
47.1836

> <Gold.Chemscore.Internal_Hbond>
0.0000

> <Gold.Chemscore.DEClash>
1.7615

> <Gold.Chemscore.DEInternal>
0.7274

> <Gold.Chemscore.Rot>
3.1901

> <Gold.Chemscore.Internal.Correction>
   9.000000E+99

> <Gold.Chemscore.Hbonds>
donor molecule, donor type, donor heavy atom, donor atom, acceptor molecule, acceptor atom, score
      L1  H     1    21       P1  7949  0.12
      P1  H  6933  6944       L1    15  0.23
      P1  H  7989  7998       L1     8  0.25

> <Gold.Chemscore.Hbond.Weighted>
-7.8006

> <Gold.Chemscore.Metal.Weighted>
-0.0000

> <Gold.Chemscore.Lipo.Weighted>
-5.5205

> <Gold.Chemscore.Internal_Hbond.Weighted>
0.0000

> <Gold.Chemscore.DEClash.Weighted>
1.7615

> <Gold.Chemscore.DEInternal.Weighted>
0.7274

> <Gold.Chemscore.Rot.Weighted>
8.1667

> <Gold.Chemscore.Internal.Correction.Weighted>
   9.000000E+99

> <Gold.Protein.RotatedTorsions>
[ 6907 6896 6895 6894 ] final  -99.48 input  -60.11 | X-H torsion
[ 7974 7965 7964 7962 ] final   -0.24 input  175.53 | X-H torsion
[ 8008 7997 7996 7995 ] final   57.59 input   59.86 | X-H torsion
[ 10167 10162 10161 10158 ] final  -43.80 input  -65.29 | X-H torsion
[ 10718 10713 10712 10709 ] final  174.73 input   66.30 | X-H torsion
[ 10763 10752 10751 10750 ] final   88.62 input  -60.55 | X-H torsion
[ 11005 11000 10999 10996 ] final   73.78 input  -57.11 | X-H torsion

> <Gold.Protein.ActiveResidues>
 VAL166  LYS551  ARG553  GLY616  TRP617  ASP618  TYR619  PRO620  LYS621  CYS622 
 ASP623  PHE694  ASN695  SER759  ASP760  ASP761  ALA762  ILE779  LEU786  VAL792 
 PHE793  MET794  SER795  GLU796  ALA797  LYS798  CYS799  TRP800  GLU811  SER814 

> <Gold.Protein.RotatedAtoms>
  150.7082  134.1033  159.3973 H   0  0  0  0  0  0  0  0  0  0  0  0  # atno 6907 bound_to 6896
  151.9020  135.0372  160.0516 H   0  0  0  0  0  0  0  0  0  0  0  0  # atno 6908 bound_to 6896
  152.2406  133.5097  159.5305 H   0  0  0  0  0  0  0  0  0  0  0  0  # atno 6909 bound_to 6896
  146.2429  140.1241  142.8339 H   0  0  0  0  0  0  0  0  0  0  0  0  # atno 7974 bound_to 7965
  155.5362  140.3483  155.4437 H   0  0  0  0  0  0  0  0  0  0  0  0  # atno 8008 bound_to 7997
  156.0684  140.1357  156.9885 H   0  0  0  0  0  0  0  0  0  0  0  0  # atno 8009 bound_to 7997
  154.4515  140.0971  156.6606 H   0  0  0  0  0  0  0  0  0  0  0  0  # atno 8010 bound_to 7997
  140.6920  143.2963  151.3404 H   0  0  0  0  0  0  0  0  0  0  0  0  # atno 10167 bound_to 10162
  156.9452  131.0014  151.2960 H   0  0  0  0  0  0  0  0  0  0  0  0  # atno 10718 bound_to 10713
  153.1787  135.4500  154.9999 H   0  0  0  0  0  0  0  0  0  0  0  0  # atno 10763 bound_to 10752
  154.8015  135.3258  154.7539 H   0  0  0  0  0  0  0  0  0  0  0  0  # atno 10764 bound_to 10752
  153.8006  135.6963  153.4911 H   0  0  0  0  0  0  0  0  0  0  0  0  # atno 10765 bound_to 10752
  139.9423  134.7376  156.1068 H   0  0  0  0  0  0  0  0  0  0  0  0  # atno 11005 bound_to 11000
  145.0382  140.8924  143.5068 LP  0  0  0  0  0  0  0  0  0  0  0  0  # atno 17320 bound_to 7965
  145.1316  139.2628  143.5536 LP  0  0  0  0  0  0  0  0  0  0  0  0  # atno 17321 bound_to 7965
  139.6334  144.0677  152.2495 LP  0  0  0  0  0  0  0  0  0  0  0  0  # atno 17342 bound_to 10162
  140.0159  144.6189  150.7607 LP  0  0  0  0  0  0  0  0  0  0  0  0  # atno 17343 bound_to 10162
  157.5758  130.8342  149.8454 LP  0  0  0  0  0  0  0  0  0  0  0  0  # atno 17370 bound_to 10713
  156.0386  130.3744  150.1493 LP  0  0  0  0  0  0  0  0  0  0  0  0  # atno 17371 bound_to 10713
  141.1062  133.6659  156.2869 LP  0  0  0  0  0  0  0  0  0  0  0  0  # atno 17394 bound_to 11000
  140.5921  134.5640  157.5501 LP  0  0  0  0  0  0  0  0  0  0  0  0  # atno 17395 bound_to 11000

$$$$
