AV-unprocessed.smi:114|AV-procd|sdf|1114|dock7
  -GOLD-   2262018233D 1   1.00000     0.00000
 Structure written by MMmdl.
 32 34  0  0  0  0  0  0  0  0  1 V2000
  145.6274  138.7109  153.9092 N   0  0  0  0  0  0  0  0  0  0  0  0
  145.8651  137.3998  153.7640 C   0  0  0  0  0  0  0  0  0  0  0  0
  146.8499  136.8379  154.5029 N   0  0  0  0  0  0  0  0  0  0  0  0
  147.1209  135.5321  154.3871 C   0  0  0  0  0  0  0  0  0  0  0  0
  148.1216  135.0535  155.1628 F   0  0  0  0  0  0  0  0  0  0  0  0
  146.5128  134.6456  153.5918 N   0  0  0  0  0  0  0  0  0  0  0  0
  145.5180  135.2073  152.8457 C   0  0  0  0  0  0  0  0  0  0  0  0
  145.1349  136.5750  152.8736 C   0  0  0  0  0  0  0  0  0  0  0  0
  144.0911  136.7929  151.9847 N   0  0  0  0  0  0  0  0  0  0  0  0
  143.8737  135.6157  151.4614 C   0  0  0  0  0  0  0  0  0  0  0  0
  144.6845  134.6032  151.9261 N   0  0  0  0  0  0  0  0  0  0  0  0
  144.6743  133.1658  151.5171 C   0  0  1  0  0  0  0  0  0  0  0  0
  143.7148  133.0100  150.5179 O   0  0  0  0  0  0  0  0  0  0  0  0
  144.2139  132.1472  149.5030 C   0  0  1  0  0  0  0  0  0  0  0  0
  143.4822  132.4256  148.1814 C   0  0  0  0  0  0  0  0  0  0  0  0
  143.3561  133.8174  147.9810 O   0  0  0  0  0  0  0  0  0  0  0  0
  145.7008  132.5053  149.4661 C   0  0  2  0  0  0  0  0  0  0  0  0
  146.4924  131.4968  148.8655 O   0  0  0  0  0  0  0  0  0  0  0  0
  146.0358  132.7463  150.9373 C   0  0  2  0  0  0  0  0  0  0  0  0
  146.5168  131.5775  151.5762 O   0  0  0  0  0  0  0  0  0  0  0  0
  144.3912  132.6195  152.4181 H   0  0  0  0  0  0  0  0  0  0  0  0
  144.0919  131.1086  149.8176 H   0  0  0  0  0  0  0  0  0  0  0  0
  145.8414  133.4317  148.9092 H   0  0  0  0  0  0  0  0  0  0  0  0
  146.7767  133.5383  151.0566 H   0  0  0  0  0  0  0  0  0  0  0  0
  144.8977  139.1527  153.3682 H   0  0  0  0  0  0  0  0  0  0  0  0
  146.1793  139.2551  154.5565 H   0  0  0  0  0  0  0  0  0  0  0  0
  143.1071  135.4527  150.7177 H   0  0  0  0  0  0  0  0  0  0  0  0
  143.9961  131.9632  147.3378 H   0  0  0  0  0  0  0  0  0  0  0  0
  142.4755  132.0084  148.2144 H   0  0  0  0  0  0  0  0  0  0  0  0
  144.2217  134.1945  147.9416 H   0  0  0  0  0  0  0  0  0  0  0  0
  147.2433  131.3378  149.4170 H   0  0  0  0  0  0  0  0  0  0  0  0
  147.2917  131.2858  151.1204 H   0  0  0  0  0  0  0  0  0  0  0  0
  1  2  1  0  0  0  0
  1 25  1  0  0  0  0
  1 26  1  0  0  0  0
  2  8  1  0  0  0  0
  2  3  2  0  0  0  0
  3  4  1  0  0  0  0
  4  5  1  0  0  0  0
  4  6  2  0  0  0  0
  6  7  1  0  0  0  0
  7 11  1  0  0  0  0
  7  8  2  0  0  0  0
  8  9  1  0  0  0  0
  9 10  2  0  0  0  0
 10 11  1  0  0  0  0
 10 27  1  0  0  0  0
 11 12  1  0  0  0  0
 12 21  1  0  0  0  0
 12 19  1  0  0  0  0
 12 13  1  0  0  0  0
 13 14  1  0  0  0  0
 14 22  1  0  0  0  0
 14 15  1  0  0  0  0
 14 17  1  0  0  0  0
 15 16  1  0  0  0  0
 15 28  1  0  0  0  0
 15 29  1  0  0  0  0
 16 30  1  0  0  0  0
 17 23  1  0  0  0  0
 17 18  1  0  0  0  0
 17 19  1  0  0  0  0
 18 31  1  0  0  0  0
 19 24  1  0  0  0  0
 19 20  1  0  0  0  0
 20 32  1  0  0  0  0
M  END
> <s_m_source_file>
AV-unprocessed.smi

> <i_m_source_file_index>
114

> <i_lp_mmshare_version>
43012

> <i_f3d_flags>
0

> <s_epik_input>
RmMobjEpbmMoW05IMl0pYyhjMTIpbltjSF1uMltDQEBIXTNPW0NASF0oW0NIMl1bT0hdKVtDQEBIXShbT0hdKVtDQEBIXTNbT0hd

> <s_epik_cmdline>
J2VwaWtfcHl0aG9uJywgJy1waCcsICc3LjAnLCAnLXRuJywgJzgnLCAnLW1hJywgJzIwMCcsICctbWV0YWxfYmluZGluZycsICctaW1hZScsICc8aW5maWxlLm1hZT4nLCAnLW9tYWUnLCAnPG91dGZpbGUubWFlPic=

> <r_lp_tautomer_probability>
1

> <r_epik_Ionization_Penalty>
1.13199e-05

> <r_epik_Ionization_Penalty_Charging>
0

> <r_epik_Ionization_Penalty_Neutral>
1.13199e-05

> <r_epik_State_Penalty>
-0

> <r_epik_Charging_Adjusted_Penalty>
0

> <i_epik_Tot_Q>
0

> <i_epik_Tot_abs_Q>
0

> <r_epik_Metal_State_Penalty>
-0

> <b_epik_Metal_Only>
0

> <s_epik_Chemistry_Notes>
This compound contains an acetal/aminal-like group ( X-CH(R)-Y where X, Y are N, S, or O) that may be acid/base labile, releasing an aldehyde.

> <s_lp_Force_Field>
OPLS_2005

> <r_lp_Energy>
39.1669

> <b_lp_Chiralities_Consistent>
1

> <s_lp_Variant>
AV-unprocessed.smi:114-8

> <Gold.Version>
5.8.1

> <Gold.Id.Protein>
6NUR|6NUR_protein|mol2

> <Gold.PLP.Fitness>
42.0170

> <Gold.PLP.PLP>
-26.4773

> <Gold.PLP.part.hbond>
-7.0503

> <Gold.PLP.part.metal>
0.0000

> <Gold.PLP.part.buried>
-2.6806

> <Gold.PLP.part.nonpolar>
-18.9157

> <Gold.PLP.part.repulsive>
2.3536

> <Gold.PLP.ligand.clash>
0.0000

> <Gold.PLP.ligand.torsion>
0.1042

> <Gold.PLP.Chemscore.Hbond>
4.9100

> <Gold.PLP.Chemscore.CHOScore>
0.3350

> <Gold.PLP.Chemscore.Metal>
0.0000

> <Gold.Chemscore.Hbonds>
donor molecule, donor type, donor heavy atom, donor atom, acceptor molecule, acceptor atom, score
      L1  H     1    25       P1 10175  1.00
      L1  H    16    30       P1  7921  1.00
      L1  H    18    31       P1 10747  1.00
      L1  H    20    32       P1 10747  1.00
      P1  H 10192 10197       L1    16  0.91
      L1  C    10    27       P1 10186  0.33

> <Gold.PLP.Chemscore.Internal.Correction>
0.0130

> <Gold.Rescore>
     Score         DG    S(hbond)    S(metal)    S(lipo)     H(rot)  DE(clash)    DE(int)     intcor
     14.62     -16.91       4.70        0.00      51.62       4.03       2.26       0.04       ----

> <Gold.Chemscore.Fitness>
14.6192

> <Gold.Chemscore.DG>
-16.9147

> <Gold.Chemscore.ZeroCoef>
-5.4800

> <Gold.Chemscore.Hbond>
4.7026

> <Gold.Chemscore.Metal>
0.0000

> <Gold.Chemscore.Lipo>
51.6162

> <Gold.Chemscore.Internal_Hbond>
0.0000

> <Gold.Chemscore.DEClash>
2.2563

> <Gold.Chemscore.DEInternal>
0.0392

> <Gold.Chemscore.Rot>
4.0277

> <Gold.Chemscore.Internal.Correction>
   9.000000E+99

> <Gold.Chemscore.Hbonds>
donor molecule, donor type, donor heavy atom, donor atom, acceptor molecule, acceptor atom, score
      L1  H     1    25       P1 10175  0.96
      L1  H    16    30       P1  7921  0.95
      L1  H    18    31       P1 10747  0.98
      L1  H    20    32       P1 10747  0.99
      P1  H 10192 10197       L1    16  0.61

> <Gold.Chemscore.Hbond.Weighted>
-15.7066

> <Gold.Chemscore.Metal.Weighted>
-0.0000

> <Gold.Chemscore.Lipo.Weighted>
-6.0391

> <Gold.Chemscore.Internal_Hbond.Weighted>
0.0000

> <Gold.Chemscore.DEClash.Weighted>
2.2563

> <Gold.Chemscore.DEInternal.Weighted>
0.0392

> <Gold.Chemscore.Rot.Weighted>
10.3110

> <Gold.Chemscore.Internal.Correction.Weighted>
   9.000000E+99

> <Gold.Protein.RotatedTorsions>
[ 6907 6896 6895 6894 ] final  175.74 input  -60.11 | X-H torsion
[ 7974 7965 7964 7962 ] final   90.70 input  175.53 | X-H torsion
[ 8008 7997 7996 7995 ] final  153.56 input   59.86 | X-H torsion
[ 10167 10162 10161 10158 ] final   44.66 input  -65.29 | X-H torsion
[ 10718 10713 10712 10709 ] final   -2.43 input   66.30 | X-H torsion
[ 10763 10752 10751 10750 ] final  -51.45 input  -60.55 | X-H torsion
[ 11005 11000 10999 10996 ] final -129.57 input  -57.11 | X-H torsion

> <Gold.Protein.ActiveResidues>
 VAL166  LYS551  ARG553  GLY616  TRP617  ASP618  TYR619  PRO620  LYS621  CYS622 
 ASP623  PHE694  ASN695  SER759  ASP760  ASP761  ALA762  ILE779  LEU786  VAL792 
 PHE793  MET794  SER795  GLU796  ALA797  LYS798  CYS799  TRP800  GLU811  SER814 

> <Gold.Protein.RotatedAtoms>
  151.7314  133.3318  159.3341 H   0  0  0  0  0  0  0  0  0  0  0  0  # atno 6907 bound_to 6896
  150.7611  134.6360  159.6221 H   0  0  0  0  0  0  0  0  0  0  0  0  # atno 6908 bound_to 6896
  152.3589  134.6902  160.0265 H   0  0  0  0  0  0  0  0  0  0  0  0  # atno 6909 bound_to 6896
  145.5155  139.2278  143.2700 H   0  0  0  0  0  0  0  0  0  0  0  0  # atno 7974 bound_to 7965
  156.2575  140.1990  156.6509 H   0  0  0  0  0  0  0  0  0  0  0  0  # atno 8008 bound_to 7997
  154.6537  140.0569  157.0009 H   0  0  0  0  0  0  0  0  0  0  0  0  # atno 8009 bound_to 7997
  155.1379  140.3240  155.4461 H   0  0  0  0  0  0  0  0  0  0  0  0  # atno 8010 bound_to 7997
  140.3320  144.2577  150.6167 H   0  0  0  0  0  0  0  0  0  0  0  0  # atno 10167 bound_to 10162
  156.7910  130.5361  149.5736 H   0  0  0  0  0  0  0  0  0  0  0  0  # atno 10718 bound_to 10713
  154.1268  135.6526  153.4914 H   0  0  0  0  0  0  0  0  0  0  0  0  # atno 10763 bound_to 10752
  153.0208  135.5283  154.7041 H   0  0  0  0  0  0  0  0  0  0  0  0  # atno 10764 bound_to 10752
  154.6265  135.2971  155.0237 H   0  0  0  0  0  0  0  0  0  0  0  0  # atno 10765 bound_to 10752
  140.9420  134.1180  157.4142 H   0  0  0  0  0  0  0  0  0  0  0  0  # atno 11005 bound_to 11000
  146.2139  140.5964  142.9047 LP  0  0  0  0  0  0  0  0  0  0  0  0  # atno 17320 bound_to 7965
  144.7704  140.5624  143.6674 LP  0  0  0  0  0  0  0  0  0  0  0  0  # atno 17321 bound_to 7965
  140.5388  143.2227  151.8118 LP  0  0  0  0  0  0  0  0  0  0  0  0  # atno 17342 bound_to 10162
  139.4855  144.4627  151.9522 LP  0  0  0  0  0  0  0  0  0  0  0  0  # atno 17343 bound_to 10162
  156.1159  130.6074  151.0120 LP  0  0  0  0  0  0  0  0  0  0  0  0  # atno 17370 bound_to 10713
  157.6600  131.0882  150.7859 LP  0  0  0  0  0  0  0  0  0  0  0  0  # atno 17371 bound_to 10713
  139.8823  135.0039  156.6219 LP  0  0  0  0  0  0  0  0  0  0  0  0  # atno 17394 bound_to 11000
  140.7721  133.8730  155.8500 LP  0  0  0  0  0  0  0  0  0  0  0  0  # atno 17395 bound_to 11000

$$$$
