AV-unprocessed.smi:3335|AV-procd|sdf|12847|dock2
  -GOLD-   2272019233D 1   1.00000     0.00000
 Structure written by MMmdl.
 46 47  0  0  0  0  0  0  0  0  1 V2000
  152.1424  142.7999  158.8260 C   0  0  0  0  0  0  0  0  0  0  0  0
  151.4776  141.7841  157.9425 C   0  0  0  0  0  0  0  0  0  0  0  0
  150.3450  141.9666  157.1006 C   0  0  0  0  0  0  0  0  0  0  0  0
  150.0037  140.8651  156.4535 N   0  0  0  0  0  0  0  0  0  0  0  0
  150.9066  139.9394  156.8498 N   0  0  0  0  0  0  0  0  0  0  0  0
  150.8308  138.5635  156.3624 C   0  0  2  0  0  0  0  0  0  0  0  0
  149.7610  138.3882  155.2657 C   0  0  0  0  0  0  0  0  0  0  0  0
  150.7163  137.5142  157.5021 C   0  0  1  0  0  0  0  0  0  0  0  0
  151.9340  137.5520  158.4482 C   0  0  0  0  0  0  0  0  0  0  0  0
  149.4576  137.7100  158.2273 N   0  0  0  0  0  0  0  0  0  0  0  0
  148.9900  136.5531  159.0130 C   0  0  2  0  0  0  0  0  0  0  0  0
  148.6736  135.3896  158.0608 C   0  0  0  0  0  0  0  0  0  0  0  0
  147.7365  136.8833  159.8522 C   0  0  0  0  0  0  0  0  0  0  0  0
  147.1446  137.9442  159.6448 O   0  0  0  0  0  0  0  0  0  0  0  0
  147.3201  136.0115  160.7965 N   0  0  0  0  0  0  0  0  0  0  0  0
  147.9798  134.7310  161.0480 C   0  0  0  0  0  0  0  0  0  0  0  0
  147.0606  133.9679  162.0015 C   0  0  0  0  0  0  0  0  0  0  0  0
  146.2947  135.0618  162.7306 C   0  0  0  0  0  0  0  0  0  0  0  0
  146.1862  136.1886  161.7034 C   0  0  0  0  0  0  0  0  0  0  0  0
  151.8037  140.4711  157.7538 C   0  0  0  0  0  0  0  0  0  0  0  0
  151.4397  143.5611  159.1656 H   0  0  0  0  0  0  0  0  0  0  0  0
  152.9499  143.3161  158.3067 H   0  0  0  0  0  0  0  0  0  0  0  0
  152.5724  142.3413  159.7167 H   0  0  0  0  0  0  0  0  0  0  0  0
  149.7617  142.8620  156.9439 H   0  0  0  0  0  0  0  0  0  0  0  0
  151.7846  138.3743  155.8673 H   0  0  0  0  0  0  0  0  0  0  0  0
  149.7903  137.3807  154.8503 H   0  0  0  0  0  0  0  0  0  0  0  0
  149.9277  139.0860  154.4445 H   0  0  0  0  0  0  0  0  0  0  0  0
  148.7525  138.5586  155.6437 H   0  0  0  0  0  0  0  0  0  0  0  0
  150.6866  136.5336  157.0250 H   0  0  0  0  0  0  0  0  0  0  0  0
  152.8661  137.5536  157.8828 H   0  0  0  0  0  0  0  0  0  0  0  0
  151.9662  136.6785  159.0985 H   0  0  0  0  0  0  0  0  0  0  0  0
  151.9282  138.4412  159.0796 H   0  0  0  0  0  0  0  0  0  0  0  0
  148.7520  138.0119  157.5708 H   0  0  0  0  0  0  0  0  0  0  0  0
  149.8095  136.2251  159.6511 H   0  0  0  0  0  0  0  0  0  0  0  0
  148.3520  134.5036  158.6098 H   0  0  0  0  0  0  0  0  0  0  0  0
  149.5533  135.1100  157.4803 H   0  0  0  0  0  0  0  0  0  0  0  0
  147.8823  135.6500  157.3563 H   0  0  0  0  0  0  0  0  0  0  0  0
  148.1489  134.1690  160.1280 H   0  0  0  0  0  0  0  0  0  0  0  0
  148.9482  134.9165  161.5152 H   0  0  0  0  0  0  0  0  0  0  0  0
  146.3637  133.3565  161.4268 H   0  0  0  0  0  0  0  0  0  0  0  0
  147.6048  133.3081  162.6778 H   0  0  0  0  0  0  0  0  0  0  0  0
  145.3236  134.7273  163.0967 H   0  0  0  0  0  0  0  0  0  0  0  0
  146.8756  135.4037  163.5883 H   0  0  0  0  0  0  0  0  0  0  0  0
  146.1949  137.1638  162.1918 H   0  0  0  0  0  0  0  0  0  0  0  0
  145.2591  136.0958  161.1357 H   0  0  0  0  0  0  0  0  0  0  0  0
  152.5918  139.8737  158.1883 H   0  0  0  0  0  0  0  0  0  0  0  0
  1  2  1  0  0  0  0
  1 21  1  0  0  0  0
  1 22  1  0  0  0  0
  1 23  1  0  0  0  0
  2 20  2  0  0  0  0
  2  3  1  0  0  0  0
  3  4  2  0  0  0  0
  3 24  1  0  0  0  0
  4  5  1  0  0  0  0
  5  6  1  0  0  0  0
  5 20  1  0  0  0  0
  6  7  1  0  0  0  0
  6  8  1  0  0  0  0
  6 25  1  0  0  0  0
  7 26  1  0  0  0  0
  7 27  1  0  0  0  0
  7 28  1  0  0  0  0
  8  9  1  0  0  0  0
  8 10  1  0  0  0  0
  8 29  1  0  0  0  0
  9 30  1  0  0  0  0
  9 31  1  0  0  0  0
  9 32  1  0  0  0  0
 10 11  1  0  0  0  0
 10 33  1  0  0  0  0
 11 12  1  0  0  0  0
 11 13  1  0  0  0  0
 11 34  1  0  0  0  0
 12 35  1  0  0  0  0
 12 36  1  0  0  0  0
 12 37  1  0  0  0  0
 13 14  2  0  0  0  0
 13 15  1  0  0  0  0
 15 19  1  0  0  0  0
 15 16  1  0  0  0  0
 16 17  1  0  0  0  0
 16 38  1  0  0  0  0
 16 39  1  0  0  0  0
 17 18  1  0  0  0  0
 17 40  1  0  0  0  0
 17 41  1  0  0  0  0
 18 19  1  0  0  0  0
 18 42  1  0  0  0  0
 18 43  1  0  0  0  0
 19 44  1  0  0  0  0
 19 45  1  0  0  0  0
 20 46  1  0  0  0  0
M  END
> <s_m_source_file>
AV-unprocessed.smi

> <i_m_source_file_index>
3335

> <i_lp_mmshare_version>
43012

> <i_f3d_flags>
0

> <s_epik_input>
W0NIM11jMVtjSF1ubihbY0hdMSlbQ0BIXShbQ0gzXSlbQ0BIXShbQ0gzXSlbTkhdW0NASF0oW0NIM10pQyg9TylOMltDSDJdW0NIMl1bQ0gyXVtDSDJdMg==

> <s_epik_cmdline>
J2VwaWtfcHl0aG9uJywgJy1waCcsICc3LjAnLCAnLXRuJywgJzgnLCAnLW1hJywgJzIwMCcsICctbWV0YWxfYmluZGluZycsICctaW1hZScsICc8aW5maWxlLm1hZT4nLCAnLW9tYWUnLCAnPG91dGZpbGUubWFlPic=

> <r_lp_tautomer_probability>
1

> <r_epik_Ionization_Penalty>
0.918803

> <r_epik_Ionization_Penalty_Charging>
0

> <r_epik_Ionization_Penalty_Neutral>
0.918803

> <r_epik_State_Penalty>
0.958258

> <r_epik_Charging_Adjusted_Penalty>
0.958258

> <i_epik_Tot_Q>
0

> <i_epik_Tot_abs_Q>
0

> <r_epik_Metal_State_Penalty>
0.956786

> <b_epik_Metal_Only>
0

> <s_lp_Force_Field>
OPLS_2005

> <r_lp_Energy>
40.8069

> <b_lp_Chiralities_Consistent>
1

> <s_lp_Variant>
AV-unprocessed.smi:3335-11

> <Gold.Version>
5.8.1

> <Gold.Id.Protein>
6NUR|6NUR_protein|mol2

> <Gold.PLP.Fitness>
34.0809

> <Gold.PLP.PLP>
-29.5546

> <Gold.PLP.part.hbond>
-0.5602

> <Gold.PLP.part.metal>
0.0000

> <Gold.PLP.part.buried>
-4.2999

> <Gold.PLP.part.nonpolar>
-24.6499

> <Gold.PLP.part.repulsive>
0.0459

> <Gold.PLP.ligand.clash>
0.0000

> <Gold.PLP.ligand.torsion>
0.4523

> <Gold.PLP.Chemscore.Hbond>
0.7360

> <Gold.PLP.Chemscore.CHOScore>
1.0000

> <Gold.PLP.Chemscore.Metal>
0.0000

> <Gold.Chemscore.Hbonds>
donor molecule, donor type, donor heavy atom, donor atom, acceptor molecule, acceptor atom, score
      P1  H  6934  6947       L1    14  0.74
      L1  C     3    24       P1  8028  1.00

> <Gold.PLP.Chemscore.Internal.Correction>
0.2230

> <Gold.Rescore>
     Score         DG    S(hbond)    S(metal)    S(lipo)     H(rot)  DE(clash)    DE(int)     intcor
     12.81     -13.43       0.80        0.00      80.56       1.62       0.00       0.62       ----

> <Gold.Chemscore.Fitness>
12.8129

> <Gold.Chemscore.DG>
-13.4284

> <Gold.Chemscore.ZeroCoef>
-5.4800

> <Gold.Chemscore.Hbond>
0.7996

> <Gold.Chemscore.Metal>
0.0000

> <Gold.Chemscore.Lipo>
80.5632

> <Gold.Chemscore.Internal_Hbond>
0.0000

> <Gold.Chemscore.DEClash>
0.0000

> <Gold.Chemscore.DEInternal>
0.6155

> <Gold.Chemscore.Rot>
1.6204

> <Gold.Chemscore.Internal.Correction>
   9.000000E+99

> <Gold.Chemscore.Hbonds>
donor molecule, donor type, donor heavy atom, donor atom, acceptor molecule, acceptor atom, score
      P1  H  6934  6947       L1    14  0.68

> <Gold.Chemscore.Hbond.Weighted>
-2.6707

> <Gold.Chemscore.Metal.Weighted>
-0.0000

> <Gold.Chemscore.Lipo.Weighted>
-9.4259

> <Gold.Chemscore.Internal_Hbond.Weighted>
0.0000

> <Gold.Chemscore.DEClash.Weighted>
0.0000

> <Gold.Chemscore.DEInternal.Weighted>
0.6155

> <Gold.Chemscore.Rot.Weighted>
4.1482

> <Gold.Chemscore.Internal.Correction.Weighted>
   9.000000E+99

> <Gold.Protein.RotatedTorsions>
[ 6907 6896 6895 6894 ] final  139.44 input  -60.11 | X-H torsion
[ 7974 7965 7964 7962 ] final  -74.06 input  175.53 | X-H torsion
[ 8008 7997 7996 7995 ] final   92.91 input   59.86 | X-H torsion
[ 10167 10162 10161 10158 ] final   88.40 input  -65.29 | X-H torsion
[ 10718 10713 10712 10709 ] final  -61.20 input   66.30 | X-H torsion
[ 10763 10752 10751 10750 ] final -144.16 input  -60.55 | X-H torsion
[ 11005 11000 10999 10996 ] final  -19.52 input  -57.11 | X-H torsion

> <Gold.Protein.ActiveResidues>
 VAL166  LYS551  ARG553  GLY616  TRP617  ASP618  TYR619  PRO620  LYS621  CYS622 
 ASP623  PHE694  ASN695  SER759  ASP760  ASP761  ALA762  ILE779  LEU786  VAL792 
 PHE793  MET794  SER795  GLU796  ALA797  LYS798  CYS799  TRP800  GLU811  SER814 

> <Gold.Protein.RotatedAtoms>
  152.2549  133.5247  159.5347 H   0  0  0  0  0  0  0  0  0  0  0  0  # atno 6907 bound_to 6896
  150.7106  134.0909  159.3940 H   0  0  0  0  0  0  0  0  0  0  0  0  # atno 6908 bound_to 6896
  151.8828  135.0447  160.0541 H   0  0  0  0  0  0  0  0  0  0  0  0  # atno 6909 bound_to 6896
  145.6440  140.9302  143.1020 H   0  0  0  0  0  0  0  0  0  0  0  0  # atno 7974 bound_to 7965
  156.0408  140.3319  155.7242 H   0  0  0  0  0  0  0  0  0  0  0  0  # atno 8008 bound_to 7997
  155.5747  140.0631  157.2815 H   0  0  0  0  0  0  0  0  0  0  0  0  # atno 8009 bound_to 7997
  154.4392  140.1854  156.0903 H   0  0  0  0  0  0  0  0  0  0  0  0  # atno 8010 bound_to 7997
  139.8676  144.6510  150.8986 H   0  0  0  0  0  0  0  0  0  0  0  0  # atno 10167 bound_to 10162
  156.0938  130.4196  150.0961 H   0  0  0  0  0  0  0  0  0  0  0  0  # atno 10718 bound_to 10713
  154.8440  135.3448  154.6303 H   0  0  0  0  0  0  0  0  0  0  0  0  # atno 10763 bound_to 10752
  153.6912  135.6975  153.5094 H   0  0  0  0  0  0  0  0  0  0  0  0  # atno 10764 bound_to 10752
  153.2593  135.4328  155.0833 H   0  0  0  0  0  0  0  0  0  0  0  0  # atno 10765 bound_to 10752
  140.8375  133.7951  155.9824 H   0  0  0  0  0  0  0  0  0  0  0  0  # atno 11005 bound_to 11000
  144.7147  139.8241  143.7403 LP  0  0  0  0  0  0  0  0  0  0  0  0  # atno 17320 bound_to 7965
  146.1258  139.4284  143.0200 LP  0  0  0  0  0  0  0  0  0  0  0  0  # atno 17321 bound_to 7965
  140.7765  143.3691  151.1683 LP  0  0  0  0  0  0  0  0  0  0  0  0  # atno 17342 bound_to 10162
  139.7314  143.9067  152.3020 LP  0  0  0  0  0  0  0  0  0  0  0  0  # atno 17343 bound_to 10162
  156.8965  130.9606  151.3582 LP  0  0  0  0  0  0  0  0  0  0  0  0  # atno 17370 bound_to 10713
  157.6094  130.8571  149.8927 LP  0  0  0  0  0  0  0  0  0  0  0  0  # atno 17371 bound_to 10713
  140.8931  134.2470  157.5083 LP  0  0  0  0  0  0  0  0  0  0  0  0  # atno 17394 bound_to 11000
  139.8704  134.9671  156.4585 LP  0  0  0  0  0  0  0  0  0  0  0  0  # atno 17395 bound_to 11000

$$$$
