AV-unprocessed.smi:264|AV-procd|sdf|2008|dock3
  -GOLD-   2262021203D 1   1.00000     0.00000
 Structure written by MMmdl.
 52 56  0  0  0  0  0  0  0  0  1 V2000
  143.6115  133.2385  160.2466 C   0  0  0  0  0  0  0  0  0  0  0  0
  144.4352  134.4679  160.6632 C   0  0  1  0  0  0  0  0  0  0  0  0
  143.6412  135.6442  160.6105 O   0  0  0  0  0  0  0  0  0  0  0  0
  144.3198  136.6354  161.3600 C   0  0  0  0  0  0  0  0  0  0  0  0
  144.7635  135.8733  162.6027 C   0  0  0  0  0  0  0  0  0  0  0  0
  145.0487  134.4584  162.0887 C   0  0  1  0  0  0  0  0  0  0  0  0
  144.3856  133.5385  162.9405 O   0  0  0  0  0  0  0  0  0  0  0  0
  146.5617  134.1277  162.1016 C   0  0  0  0  0  0  0  0  0  0  0  0
  147.3713  135.0750  161.3493 N   0  0  0  0  0  0  0  0  0  0  0  0
  147.7060  136.3559  161.7272 C   0  0  0  0  0  0  0  0  0  0  0  0
  148.4530  137.0095  160.8806 N   0  0  0  0  0  0  0  0  0  0  0  0
  148.6370  136.1182  159.8303 C   0  0  0  0  0  0  0  0  0  0  0  0
  149.3421  136.1743  158.5945 C   0  0  0  0  0  0  0  0  0  0  0  0
  150.0264  137.2745  158.1904 N   0  0  0  0  0  0  0  0  0  0  0  0
  151.0999  137.6942  159.0824 C   0  0  0  0  0  0  0  0  0  0  0  0
  152.0140  138.6954  158.3629 C   0  0  0  0  0  0  0  0  0  0  0  0
  151.2483  139.7910  157.8628 O   0  0  0  0  0  0  0  0  0  0  0  0
  150.2005  139.4189  156.9619 C   0  0  1  0  0  0  0  0  0  0  0  0
  149.4420  140.6866  156.5810 C   0  0  0  0  0  0  0  0  0  0  0  0
  149.0683  140.4465  155.1263 C   0  0  0  0  0  0  0  0  0  0  0  0
  150.2365  139.8345  154.6130 O   0  0  0  0  0  0  0  0  0  0  0  0
  150.7285  138.9277  155.5930 C   0  0  0  0  0  0  0  0  0  0  0  0
  149.2651  138.3985  157.6524 C   0  0  0  0  0  0  0  0  0  0  0  0
  149.3123  135.0648  157.8083 N   0  0  0  0  0  0  0  0  0  0  0  0
  148.6321  133.9813  158.1935 C   0  0  0  0  0  0  0  0  0  0  0  0
  147.9264  133.7927  159.3098 N   0  0  0  0  0  0  0  0  0  0  0  0
  147.9619  134.8963  160.1100 C   0  0  0  0  0  0  0  0  0  0  0  0
  144.2068  132.3272  160.3059 H   0  0  0  0  0  0  0  0  0  0  0  0
  143.2639  133.3390  159.2184 H   0  0  0  0  0  0  0  0  0  0  0  0
  142.7328  133.1112  160.8792 H   0  0  0  0  0  0  0  0  0  0  0  0
  145.2294  134.6143  159.9307 H   0  0  0  0  0  0  0  0  0  0  0  0
  145.1795  137.0017  160.7964 H   0  0  0  0  0  0  0  0  0  0  0  0
  143.6716  137.4807  161.5918 H   0  0  0  0  0  0  0  0  0  0  0  0
  145.6206  136.3415  163.0880 H   0  0  0  0  0  0  0  0  0  0  0  0
  143.9435  135.8714  163.3232 H   0  0  0  0  0  0  0  0  0  0  0  0
  143.7830  133.0290  162.4209 H   0  0  0  0  0  0  0  0  0  0  0  0
  146.9296  134.1028  163.1283 H   0  0  0  0  0  0  0  0  0  0  0  0
  146.7368  133.1311  161.6938 H   0  0  0  0  0  0  0  0  0  0  0  0
  147.3834  136.7908  162.6621 H   0  0  0  0  0  0  0  0  0  0  0  0
  150.6630  138.1580  159.9679 H   0  0  0  0  0  0  0  0  0  0  0  0
  151.6908  136.8472  159.4288 H   0  0  0  0  0  0  0  0  0  0  0  0
  152.7629  139.0796  159.0553 H   0  0  0  0  0  0  0  0  0  0  0  0
  152.5591  138.2031  157.5576 H   0  0  0  0  0  0  0  0  0  0  0  0
  148.5783  140.8900  157.2148 H   0  0  0  0  0  0  0  0  0  0  0  0
  150.1037  141.5525  156.6376 H   0  0  0  0  0  0  0  0  0  0  0  0
  148.2224  139.7623  155.0428 H   0  0  0  0  0  0  0  0  0  0  0  0
  148.8271  141.3665  154.5935 H   0  0  0  0  0  0  0  0  0  0  0  0
  151.8165  138.9095  155.5366 H   0  0  0  0  0  0  0  0  0  0  0  0
  150.3692  137.9239  155.3637 H   0  0  0  0  0  0  0  0  0  0  0  0
  148.5121  138.0438  156.9469 H   0  0  0  0  0  0  0  0  0  0  0  0
  148.7326  138.8812  158.4737 H   0  0  0  0  0  0  0  0  0  0  0  0
  148.6569  133.1462  157.5091 H   0  0  0  0  0  0  0  0  0  0  0  0
  1  2  1  0  0  0  0
  1 28  1  0  0  0  0
  1 29  1  0  0  0  0
  1 30  1  0  0  0  0
  2  6  1  0  0  0  0
  2  3  1  0  0  0  0
  2 31  1  0  0  0  0
  3  4  1  0  0  0  0
  4  5  1  0  0  0  0
  4 32  1  0  0  0  0
  4 33  1  0  0  0  0
  5  6  1  0  0  0  0
  5 34  1  0  0  0  0
  5 35  1  0  0  0  0
  6  7  1  0  0  0  0
  6  8  1  0  0  0  0
  7 36  1  0  0  0  0
  8  9  1  0  0  0  0
  8 37  1  0  0  0  0
  8 38  1  0  0  0  0
  9 27  1  0  0  0  0
  9 10  1  0  0  0  0
 10 11  2  0  0  0  0
 10 39  1  0  0  0  0
 11 12  1  0  0  0  0
 12 27  2  0  0  0  0
 12 13  1  0  0  0  0
 13 14  1  0  0  0  0
 13 24  2  0  0  0  0
 14 23  1  0  0  0  0
 14 15  1  0  0  0  0
 15 16  1  0  0  0  0
 15 40  1  0  0  0  0
 15 41  1  0  0  0  0
 16 17  1  0  0  0  0
 16 42  1  0  0  0  0
 16 43  1  0  0  0  0
 17 18  1  0  0  0  0
 18 22  1  0  0  0  0
 18 19  1  0  0  0  0
 18 23  1  0  0  0  0
 19 20  1  0  0  0  0
 19 44  1  0  0  0  0
 19 45  1  0  0  0  0
 20 21  1  0  0  0  0
 20 46  1  0  0  0  0
 20 47  1  0  0  0  0
 21 22  1  0  0  0  0
 22 48  1  0  0  0  0
 22 49  1  0  0  0  0
 23 50  1  0  0  0  0
 23 51  1  0  0  0  0
 24 25  1  0  0  0  0
 25 26  2  0  0  0  0
 25 52  1  0  0  0  0
 26 27  1  0  0  0  0
M  END
> <s_m_source_file>
AV-unprocessed.smi

> <i_m_source_file_index>
264

> <i_lp_mmshare_version>
43012

> <i_f3d_flags>
0

> <s_epik_input>
W0NIMl0xW0NIMl1PW0NAQEhdKFtDSDNdKVtDQEBdMShbT0hdKVtDSDJdbihbY0hdbjIpYyhjMjMpbltjSF1uYzNOKFtDSDJdNClbQ0gyXVtDSDJdT1tDQF00NVtDSDJdW0NIMl1PW0NIMl01

> <s_epik_cmdline>
J2VwaWtfcHl0aG9uJywgJy1waCcsICc3LjAnLCAnLXRuJywgJzgnLCAnLW1hJywgJzIwMCcsICctbWV0YWxfYmluZGluZycsICctaW1hZScsICc8aW5maWxlLm1hZT4nLCAnLW9tYWUnLCAnPG91dGZpbGUubWFlPic=

> <r_lp_tautomer_probability>
1

> <r_epik_Ionization_Penalty>
0.00539389

> <r_epik_Ionization_Penalty_Charging>
0

> <r_epik_Ionization_Penalty_Neutral>
0.00539389

> <r_epik_State_Penalty>
0.00375441

> <r_epik_Charging_Adjusted_Penalty>
0.00375441

> <i_epik_Tot_Q>
0

> <i_epik_Tot_abs_Q>
0

> <r_epik_Metal_State_Penalty>
-0

> <b_epik_Metal_Only>
0

> <s_lp_Force_Field>
OPLS_2005

> <r_lp_Energy>
54.8303

> <b_lp_Chiralities_Consistent>
1

> <s_lp_Variant>
AV-unprocessed.smi:264-2

> <Gold.Version>
5.8.1

> <Gold.Id.Protein>
6NUR|6NUR_protein|mol2

> <Gold.PLP.Fitness>
39.5746

> <Gold.PLP.PLP>
-33.1407

> <Gold.PLP.part.hbond>
-3.5073

> <Gold.PLP.part.metal>
0.0000

> <Gold.PLP.part.buried>
-6.3017

> <Gold.PLP.part.nonpolar>
-23.7214

> <Gold.PLP.part.repulsive>
0.0758

> <Gold.PLP.ligand.clash>
0.0000

> <Gold.PLP.ligand.torsion>
0.4222

> <Gold.PLP.Chemscore.Hbond>
2.3256

> <Gold.PLP.Chemscore.CHOScore>
0.0000

> <Gold.PLP.Chemscore.Metal>
0.0000

> <Gold.Chemscore.Hbonds>
donor molecule, donor type, donor heavy atom, donor atom, acceptor molecule, acceptor atom, score
      P1  H  6931  6943       L1    11  0.98
      P1  H  6934  6947       L1    11  0.07
      P1  H  7989  7998       L1    21  0.93

> <Gold.PLP.Chemscore.Internal.Correction>
0.3017

> <Gold.Rescore>
     Score         DG    S(hbond)    S(metal)    S(lipo)     H(rot)  DE(clash)    DE(int)     intcor
     12.98     -13.44       1.78        0.00      63.35       2.11       0.04       0.42       ----

> <Gold.Chemscore.Fitness>
12.9787

> <Gold.Chemscore.DG>
-13.4433

> <Gold.Chemscore.ZeroCoef>
-5.4800

> <Gold.Chemscore.Hbond>
1.7794

> <Gold.Chemscore.Metal>
0.0000

> <Gold.Chemscore.Lipo>
63.3511

> <Gold.Chemscore.Internal_Hbond>
0.0000

> <Gold.Chemscore.DEClash>
0.0427

> <Gold.Chemscore.DEInternal>
0.4219

> <Gold.Chemscore.Rot>
2.1063

> <Gold.Chemscore.Internal.Correction>
   9.000000E+99

> <Gold.Chemscore.Hbonds>
donor molecule, donor type, donor heavy atom, donor atom, acceptor molecule, acceptor atom, score
      P1  H  6931  6943       L1    11  0.24
      P1  H  6934  6947       L1    11  0.01
      P1  H  7989  7998       L1    21  0.84

> <Gold.Chemscore.Hbond.Weighted>
-5.9433

> <Gold.Chemscore.Metal.Weighted>
-0.0000

> <Gold.Chemscore.Lipo.Weighted>
-7.4121

> <Gold.Chemscore.Internal_Hbond.Weighted>
0.0000

> <Gold.Chemscore.DEClash.Weighted>
0.0427

> <Gold.Chemscore.DEInternal.Weighted>
0.4219

> <Gold.Chemscore.Rot.Weighted>
5.3921

> <Gold.Chemscore.Internal.Correction.Weighted>
   9.000000E+99

> <Gold.Protein.RotatedTorsions>
[ 6907 6896 6895 6894 ] final -111.92 input  -60.11 | X-H torsion
[ 7974 7965 7964 7962 ] final -140.38 input  175.53 | X-H torsion
[ 8008 7997 7996 7995 ] final  -33.97 input   59.86 | X-H torsion
[ 10167 10162 10161 10158 ] final   40.45 input  -65.29 | X-H torsion
[ 10718 10713 10712 10709 ] final   62.70 input   66.30 | X-H torsion
[ 10763 10752 10751 10750 ] final   31.73 input  -60.55 | X-H torsion
[ 11005 11000 10999 10996 ] final  127.16 input  -57.11 | X-H torsion

> <Gold.Protein.ActiveResidues>
 VAL166  LYS551  ARG553  GLY616  TRP617  ASP618  TYR619  PRO620  LYS621  CYS622 
 ASP623  PHE694  ASN695  SER759  ASP760  ASP761  ALA762  ILE779  LEU786  VAL792 
 PHE793  MET794  SER795  GLU796  ALA797  LYS798  CYS799  TRP800  GLU811  SER814 

> <Gold.Protein.RotatedAtoms>
  150.7723  133.9164  159.3384 H   0  0  0  0  0  0  0  0  0  0  0  0  # atno 6907 bound_to 6896
  151.7048  135.0922  160.0266 H   0  0  0  0  0  0  0  0  0  0  0  0  # atno 6908 bound_to 6896
  152.3746  133.6425  159.6149 H   0  0  0  0  0  0  0  0  0  0  0  0  # atno 6909 bound_to 6896
  144.8602  140.6207  143.5333 H   0  0  0  0  0  0  0  0  0  0  0  0  # atno 7974 bound_to 7965
  154.4134  140.1696  156.1973 H   0  0  0  0  0  0  0  0  0  0  0  0  # atno 8008 bound_to 7997
  155.9553  140.3398  155.6420 H   0  0  0  0  0  0  0  0  0  0  0  0  # atno 8009 bound_to 7997
  155.6818  140.0723  157.2472 H   0  0  0  0  0  0  0  0  0  0  0  0  # atno 8010 bound_to 7997
  140.3740  144.2067  150.6132 H   0  0  0  0  0  0  0  0  0  0  0  0  # atno 10167 bound_to 10162
  157.5919  130.9064  149.9621 H   0  0  0  0  0  0  0  0  0  0  0  0  # atno 10718 bound_to 10713
  153.0300  135.6431  154.1244 H   0  0  0  0  0  0  0  0  0  0  0  0  # atno 10763 bound_to 10752
  154.0968  135.2862  155.3261 H   0  0  0  0  0  0  0  0  0  0  0  0  # atno 10764 bound_to 10752
  154.6426  135.5454  153.7871 H   0  0  0  0  0  0  0  0  0  0  0  0  # atno 10765 bound_to 10752
  139.9493  134.9624  156.8813 H   0  0  0  0  0  0  0  0  0  0  0  0  # atno 11005 bound_to 11000
  145.4328  139.1546  143.4013 LP  0  0  0  0  0  0  0  0  0  0  0  0  # atno 17320 bound_to 7965
  146.2854  140.4445  142.8760 LP  0  0  0  0  0  0  0  0  0  0  0  0  # atno 17321 bound_to 7965
  140.5004  143.2319  151.8687 LP  0  0  0  0  0  0  0  0  0  0  0  0  # atno 17342 bound_to 10162
  139.4801  144.5065  151.8990 LP  0  0  0  0  0  0  0  0  0  0  0  0  # atno 17343 bound_to 10162
  156.0975  130.3658  150.0279 LP  0  0  0  0  0  0  0  0  0  0  0  0  # atno 17370 bound_to 10713
  156.8400  130.9422  151.3632 LP  0  0  0  0  0  0  0  0  0  0  0  0  # atno 17371 bound_to 10713
  140.5758  134.0400  155.7446 LP  0  0  0  0  0  0  0  0  0  0  0  0  # atno 17394 bound_to 11000
  141.1152  133.9552  157.2836 LP  0  0  0  0  0  0  0  0  0  0  0  0  # atno 17395 bound_to 11000

$$$$
