AV-unprocessed.smi:2247|AV-procd|sdf|9088|dock9
  -GOLD-   2272012293D 1   1.00000     0.00000
 Structure written by MMmdl.
 34 35  0  0  0  0  0  0  0  0  1 V2000
  147.2822  141.9651  154.3745 C   0  0  0  0  0  0  0  0  0  0  0  0
  147.8779  140.5502  154.2623 C   0  0  0  0  0  0  0  0  0  0  0  0
  149.3870  140.5824  153.9737 C   0  0  0  0  0  0  0  0  0  0  0  0
  147.1839  139.7249  153.2647 N   0  0  0  0  0  0  0  0  0  0  0  0
  147.0058  140.1533  151.8866 C   0  0  0  0  0  0  0  0  0  0  0  0
  146.5646  138.8882  151.1444 C   0  0  0  0  0  0  0  0  0  0  0  0
  146.0062  137.9438  152.2205 C   0  0  1  0  0  0  0  0  0  0  0  0
  146.4275  136.5698  151.9508 N   0  0  0  0  0  0  0  0  0  0  0  0
  145.6081  135.5356  151.7051 C   0  0  0  0  0  0  0  0  0  0  0  0
  144.3806  135.6730  151.6863 O   0  0  0  0  0  0  0  0  0  0  0  0
  146.3474  134.3868  151.4681 N   0  0  0  0  0  0  0  0  0  0  0  0
  145.7282  133.2643  151.2707 C   0  0  0  0  0  0  0  0  0  0  0  0
  146.2879  132.0196  151.0304 N   0  0  0  0  0  0  0  0  0  0  0  0
  145.2710  131.1203  150.8654 C   0  0  0  0  0  0  0  0  0  0  0  0
  144.1182  131.7702  150.9972 C   0  0  0  0  0  0  0  0  0  0  0  0
  144.3637  133.0868  151.2459 O   0  0  0  0  0  0  0  0  0  0  0  0
  146.6756  138.5029  153.4771 C   0  0  0  0  0  0  0  0  0  0  0  0
  146.7083  137.8896  154.5442 O   0  0  0  0  0  0  0  0  0  0  0  0
  147.7536  142.5198  155.1860 H   0  0  0  0  0  0  0  0  0  0  0  0
  146.2126  141.9269  154.5844 H   0  0  0  0  0  0  0  0  0  0  0  0
  147.4270  142.5416  153.4605 H   0  0  0  0  0  0  0  0  0  0  0  0
  147.7402  140.0794  155.2375 H   0  0  0  0  0  0  0  0  0  0  0  0
  149.9174  141.1604  154.7308 H   0  0  0  0  0  0  0  0  0  0  0  0
  149.5951  141.0348  153.0037 H   0  0  0  0  0  0  0  0  0  0  0  0
  149.8117  139.5779  153.9712 H   0  0  0  0  0  0  0  0  0  0  0  0
  146.2280  140.9170  151.8415 H   0  0  0  0  0  0  0  0  0  0  0  0
  147.9229  140.5673  151.4659 H   0  0  0  0  0  0  0  0  0  0  0  0
  145.8310  139.1047  150.3671 H   0  0  0  0  0  0  0  0  0  0  0  0
  147.4327  138.4447  150.6527 H   0  0  0  0  0  0  0  0  0  0  0  0
  144.9226  138.0422  152.3044 H   0  0  0  0  0  0  0  0  0  0  0  0
  147.4214  136.3914  151.9506 H   0  0  0  0  0  0  0  0  0  0  0  0
  147.2657  131.7739  150.9717 H   0  0  0  0  0  0  0  0  0  0  0  0
  145.4873  130.0814  150.6646 H   0  0  0  0  0  0  0  0  0  0  0  0
  143.0871  131.4538  150.9431 H   0  0  0  0  0  0  0  0  0  0  0  0
  1  2  1  0  0  0  0
  1 19  1  0  0  0  0
  1 20  1  0  0  0  0
  1 21  1  0  0  0  0
  2  3  1  0  0  0  0
  2  4  1  0  0  0  0
  2 22  1  0  0  0  0
  3 23  1  0  0  0  0
  3 24  1  0  0  0  0
  3 25  1  0  0  0  0
  4 17  1  0  0  0  0
  4  5  1  0  0  0  0
  5  6  1  0  0  0  0
  5 26  1  0  0  0  0
  5 27  1  0  0  0  0
  6  7  1  0  0  0  0
  6 28  1  0  0  0  0
  6 29  1  0  0  0  0
  7  8  1  0  0  0  0
  7 17  1  0  0  0  0
  7 30  1  0  0  0  0
  8 31  1  0  0  0  0
  8  9  1  0  0  0  0
  9 11  1  0  0  0  0
  9 10  2  0  0  0  0
 11 12  2  0  0  0  0
 12 16  1  0  0  0  0
 12 13  1  0  0  0  0
 13 32  1  0  0  0  0
 13 14  1  0  0  0  0
 14 33  1  0  0  0  0
 14 15  2  0  0  0  0
 15 34  1  0  0  0  0
 15 16  1  0  0  0  0
 17 18  2  0  0  0  0
M  END
> <s_m_source_file>
AV-unprocessed.smi

> <i_m_source_file_index>
2247

> <i_lp_mmshare_version>
43012

> <i_f3d_flags>
0

> <s_epik_input>
W0NIM11bQ0hdKFtDSDNdKU4xW0NIMl1bQ0gyXVtDQEhdKEMxPU8pW05IXUMoPU8pW05IXWMybltjSF1bY0hdbzI=

> <s_epik_cmdline>
J2VwaWtfcHl0aG9uJywgJy1waCcsICc3LjAnLCAnLXRuJywgJzgnLCAnLW1hJywgJzIwMCcsICctbWV0YWxfYmluZGluZycsICctaW1hZScsICc8aW5maWxlLm1hZT4nLCAnLW9tYWUnLCAnPG91dGZpbGUubWFlPic=

> <r_lp_tautomer_probability>
0.107061

> <r_epik_Ionization_Penalty>
0.180736

> <r_epik_Ionization_Penalty_Charging>
0.180388

> <r_epik_Ionization_Penalty_Neutral>
0.000348501

> <r_epik_State_Penalty>
2.44396

> <r_epik_Charging_Adjusted_Penalty>
2.62435

> <i_epik_Tot_Q>
0

> <i_epik_Tot_abs_Q>
0

> <r_epik_Metal_State_Penalty>
4.38331

> <b_epik_Metal_Only>
0

> <s_lp_Force_Field>
OPLS_2005

> <r_lp_Energy>
44.8331

> <b_lp_Chiralities_Consistent>
1

> <s_lp_Variant>
AV-unprocessed.smi:2247-3

> <Gold.Version>
5.8.1

> <Gold.Id.Protein>
6NUR|6NUR_protein|mol2

> <Gold.PLP.Fitness>
36.1011

> <Gold.PLP.PLP>
-28.9589

> <Gold.PLP.part.hbond>
-1.9835

> <Gold.PLP.part.metal>
0.0000

> <Gold.PLP.part.buried>
1.2514

> <Gold.PLP.part.nonpolar>
-29.4542

> <Gold.PLP.part.repulsive>
0.7389

> <Gold.PLP.ligand.clash>
0.0000

> <Gold.PLP.ligand.torsion>
0.2291

> <Gold.PLP.Chemscore.Hbond>
1.9913

> <Gold.PLP.Chemscore.CHOScore>
0.5162

> <Gold.PLP.Chemscore.Metal>
0.0000

> <Gold.Chemscore.Hbonds>
donor molecule, donor type, donor heavy atom, donor atom, acceptor molecule, acceptor atom, score
      L1  H     8    31       P1  7948  0.98
      L1  H    13    32       P1 10747  0.93
      L1  C    15    34       P1 10952  0.16

> <Gold.PLP.Chemscore.Internal.Correction>
0.0780

> <Gold.Rescore>
     Score         DG    S(hbond)    S(metal)    S(lipo)     H(rot)  DE(clash)    DE(int)     intcor
     13.74     -16.16       1.95        0.00      64.63       1.33       0.69       1.73       ----

> <Gold.Chemscore.Fitness>
13.7421

> <Gold.Chemscore.DG>
-16.1566

> <Gold.Chemscore.ZeroCoef>
-5.4800

> <Gold.Chemscore.Hbond>
1.9549

> <Gold.Chemscore.Metal>
0.0000

> <Gold.Chemscore.Lipo>
64.6311

> <Gold.Chemscore.Internal_Hbond>
0.0000

> <Gold.Chemscore.DEClash>
0.6855

> <Gold.Chemscore.DEInternal>
1.7290

> <Gold.Chemscore.Rot>
1.3338

> <Gold.Chemscore.Internal.Correction>
   9.000000E+99

> <Gold.Chemscore.Hbonds>
donor molecule, donor type, donor heavy atom, donor atom, acceptor molecule, acceptor atom, score
      L1  H     8    31       P1  7948  0.91
      L1  H    13    32       P1 10747  0.88

> <Gold.Chemscore.Hbond.Weighted>
-6.5292

> <Gold.Chemscore.Metal.Weighted>
-0.0000

> <Gold.Chemscore.Lipo.Weighted>
-7.5618

> <Gold.Chemscore.Internal_Hbond.Weighted>
0.0000

> <Gold.Chemscore.DEClash.Weighted>
0.6855

> <Gold.Chemscore.DEInternal.Weighted>
1.7290

> <Gold.Chemscore.Rot.Weighted>
3.4145

> <Gold.Chemscore.Internal.Correction.Weighted>
   9.000000E+99

> <Gold.Protein.RotatedTorsions>
[ 6907 6896 6895 6894 ] final   85.36 input  -60.11 | X-H torsion
[ 7974 7965 7964 7962 ] final  165.10 input  175.53 | X-H torsion
[ 8008 7997 7996 7995 ] final   63.85 input   59.86 | X-H torsion
[ 10167 10162 10161 10158 ] final   14.02 input  -65.29 | X-H torsion
[ 10718 10713 10712 10709 ] final  -77.71 input   66.30 | X-H torsion
[ 10763 10752 10751 10750 ] final   33.94 input  -60.55 | X-H torsion
[ 11005 11000 10999 10996 ] final  -18.29 input  -57.11 | X-H torsion

> <Gold.Protein.ActiveResidues>
 VAL166  LYS551  ARG553  GLY616  TRP617  ASP618  TYR619  PRO620  LYS621  CYS622 
 ASP623  PHE694  ASN695  SER759  ASP760  ASP761  ALA762  ILE779  LEU786  VAL792 
 PHE793  MET794  SER795  GLU796  ALA797  LYS798  CYS799  TRP800  GLU811  SER814 

> <Gold.Protein.RotatedAtoms>
  152.5373  134.2599  159.8930 H   0  0  0  0  0  0  0  0  0  0  0  0  # atno 6907 bound_to 6896
  151.2559  133.4320  159.2621 H   0  0  0  0  0  0  0  0  0  0  0  0  # atno 6908 bound_to 6896
  151.0497  134.9678  159.8261 H   0  0  0  0  0  0  0  0  0  0  0  0  # atno 6909 bound_to 6896
  144.7517  139.8421  143.6364 H   0  0  0  0  0  0  0  0  0  0  0  0  # atno 7974 bound_to 7965
  155.6368  140.3496  155.4701 H   0  0  0  0  0  0  0  0  0  0  0  0  # atno 8008 bound_to 7997
  155.9959  140.1203  157.0618 H   0  0  0  0  0  0  0  0  0  0  0  0  # atno 8009 bound_to 7997
  154.4233  140.1110  156.5615 H   0  0  0  0  0  0  0  0  0  0  0  0  # atno 8010 bound_to 7997
  140.5964  143.8693  150.6922 H   0  0  0  0  0  0  0  0  0  0  0  0  # atno 10167 bound_to 10162
  156.0137  130.4498  150.3386 H   0  0  0  0  0  0  0  0  0  0  0  0  # atno 10718 bound_to 10713
  153.0188  135.6374  154.1590 H   0  0  0  0  0  0  0  0  0  0  0  0  # atno 10763 bound_to 10752
  154.1326  135.2839  155.3183 H   0  0  0  0  0  0  0  0  0  0  0  0  # atno 10764 bound_to 10752
  154.6183  135.5533  153.7609 H   0  0  0  0  0  0  0  0  0  0  0  0  # atno 10765 bound_to 10752
  140.8253  133.8037  155.9702 H   0  0  0  0  0  0  0  0  0  0  0  0  # atno 11005 bound_to 11000
  146.1475  139.4549  143.0070 LP  0  0  0  0  0  0  0  0  0  0  0  0  # atno 17320 bound_to 7965
  145.6922  141.0161  143.1549 LP  0  0  0  0  0  0  0  0  0  0  0  0  # atno 17321 bound_to 7965
  140.2228  143.3795  152.1629 LP  0  0  0  0  0  0  0  0  0  0  0  0  # atno 17342 bound_to 10162
  139.5261  144.7103  151.5225 LP  0  0  0  0  0  0  0  0  0  0  0  0  # atno 17343 bound_to 10162
  157.1482  131.0314  151.2897 LP  0  0  0  0  0  0  0  0  0  0  0  0  # atno 17370 bound_to 10713
  157.4414  130.7546  149.7073 LP  0  0  0  0  0  0  0  0  0  0  0  0  # atno 17371 bound_to 10713
  140.9056  134.2325  157.5016 LP  0  0  0  0  0  0  0  0  0  0  0  0  # atno 17394 bound_to 11000
  139.8707  134.9726  156.4781 LP  0  0  0  0  0  0  0  0  0  0  0  0  # atno 17395 bound_to 11000

$$$$
