AV-unprocessed.smi:235|AV-procd|sdf|1805|dock2
  -GOLD-   2262020383D 1   1.00000     0.00000
 Structure written by MMmdl.
 54 58  0  0  0  0  0  0  0  0  1 V2000
  146.4800  135.4550  155.8119 O   0  0  0  0  0  0  0  0  0  0  0  0
  147.3273  135.6106  154.9313 C   0  0  0  0  0  0  0  0  0  0  0  0
  147.0240  135.7529  153.6328 N   0  0  0  0  0  0  0  0  0  0  0  0
  145.7063  135.7450  153.0892 C   0  0  0  0  0  0  0  0  0  0  0  0
  145.3268  134.5804  152.2012 C   0  0  0  0  0  0  0  0  0  0  0  0
  145.5521  135.9406  151.5978 C   0  0  0  0  0  0  0  0  0  0  0  0
  148.8188  135.6764  155.2885 C   0  0  2  0  0  0  0  0  0  0  0  0
  149.3525  134.3484  155.8645 C   0  0  0  0  0  0  0  0  0  0  0  0
  150.3699  134.7781  156.9134 C   0  0  0  0  0  0  0  0  0  0  0  0
  149.7345  136.0463  157.4690 C   0  0  0  0  0  0  0  0  0  0  0  0
  149.0640  136.6777  156.3346 N   0  0  0  0  0  0  0  0  0  0  0  0
  149.5586  137.8483  155.8579 C   0  0  0  0  0  0  0  0  0  0  0  0
  149.4438  138.1524  154.5374 N   0  0  0  0  0  0  0  0  0  0  0  0
  149.8715  139.3327  154.0794 C   0  0  0  0  0  0  0  0  0  0  0  0
  150.4207  140.3422  154.7579 N   0  0  0  0  0  0  0  0  0  0  0  0
  150.5348  140.0418  156.0832 C   0  0  0  0  0  0  0  0  0  0  0  0
  150.1407  138.8266  156.7094 C   0  0  0  0  0  0  0  0  0  0  0  0
  150.4208  138.8825  158.0693 N   0  0  0  0  0  0  0  0  0  0  0  0
  150.9297  140.0712  158.2424 C   0  0  0  0  0  0  0  0  0  0  0  0
  151.0213  140.8390  157.1037 N   0  0  0  0  0  0  0  0  0  0  0  0
  151.5169  142.1992  157.0088 C   0  0  0  0  0  0  0  0  0  0  0  0
  151.0208  143.1011  158.1595 C   0  0  2  0  0  0  0  0  0  0  0  0
  150.6731  144.3484  157.5929 O   0  0  0  0  0  0  0  0  0  0  0  0
  152.0529  143.3311  159.2871 C   0  0  1  0  0  0  0  0  0  0  0  0
  151.6422  144.3970  160.3087 C   0  0  0  0  0  0  0  0  0  0  0  0
  152.3581  143.9875  161.5878 C   0  0  0  0  0  0  0  0  0  0  0  0
  152.8894  142.5870  161.2831 C   0  0  0  0  0  0  0  0  0  0  0  0
  152.1870  142.1861  160.1177 O   0  0  0  0  0  0  0  0  0  0  0  0
  147.7842  135.8881  152.9822 H   0  0  0  0  0  0  0  0  0  0  0  0
  144.9085  136.1401  153.7168 H   0  0  0  0  0  0  0  0  0  0  0  0
  146.0784  133.8169  152.0096 H   0  0  0  0  0  0  0  0  0  0  0  0
  144.3016  134.2201  152.2568 H   0  0  0  0  0  0  0  0  0  0  0  0
  144.6781  136.4895  151.2530 H   0  0  0  0  0  0  0  0  0  0  0  0
  146.4575  136.0955  151.0142 H   0  0  0  0  0  0  0  0  0  0  0  0
  149.4002  135.9192  154.3950 H   0  0  0  0  0  0  0  0  0  0  0  0
  148.5628  133.7725  156.3501 H   0  0  0  0  0  0  0  0  0  0  0  0
  149.7964  133.7129  155.0977 H   0  0  0  0  0  0  0  0  0  0  0  0
  150.5461  134.0192  157.6761 H   0  0  0  0  0  0  0  0  0  0  0  0
  151.3227  135.0136  156.4371 H   0  0  0  0  0  0  0  0  0  0  0  0
  148.9708  135.7907  158.2046 H   0  0  0  0  0  0  0  0  0  0  0  0
  150.4611  136.6803  157.9788 H   0  0  0  0  0  0  0  0  0  0  0  0
  149.7464  139.4949  153.0190 H   0  0  0  0  0  0  0  0  0  0  0  0
  151.2384  140.4274  159.2145 H   0  0  0  0  0  0  0  0  0  0  0  0
  152.6074  142.1694  156.9951 H   0  0  0  0  0  0  0  0  0  0  0  0
  151.2029  142.6053  156.0462 H   0  0  0  0  0  0  0  0  0  0  0  0
  150.1133  142.6750  158.5890 H   0  0  0  0  0  0  0  0  0  0  0  0
  149.7776  144.3023  157.2938 H   0  0  0  0  0  0  0  0  0  0  0  0
  153.0290  143.5783  158.8649 H   0  0  0  0  0  0  0  0  0  0  0  0
  151.9017  145.4054  159.9846 H   0  0  0  0  0  0  0  0  0  0  0  0
  150.5642  144.3671  160.4730 H   0  0  0  0  0  0  0  0  0  0  0  0
  153.1734  144.6683  161.8350 H   0  0  0  0  0  0  0  0  0  0  0  0
  151.6631  143.9747  162.4282 H   0  0  0  0  0  0  0  0  0  0  0  0
  153.9573  142.6240  161.0650 H   0  0  0  0  0  0  0  0  0  0  0  0
  152.7314  141.8861  162.1029 H   0  0  0  0  0  0  0  0  0  0  0  0
  1  2  2  0  0  0  0
  2  3  1  0  0  0  0
  2  7  1  0  0  0  0
  3  4  1  0  0  0  0
  3 29  1  0  0  0  0
  4  6  1  0  0  0  0
  4  5  1  0  0  0  0
  4 30  1  0  0  0  0
  5  6  1  0  0  0  0
  5 31  1  0  0  0  0
  5 32  1  0  0  0  0
  6 33  1  0  0  0  0
  6 34  1  0  0  0  0
  7 11  1  0  0  0  0
  7  8  1  0  0  0  0
  7 35  1  0  0  0  0
  8  9  1  0  0  0  0
  8 36  1  0  0  0  0
  8 37  1  0  0  0  0
  9 10  1  0  0  0  0
  9 38  1  0  0  0  0
  9 39  1  0  0  0  0
 10 11  1  0  0  0  0
 10 40  1  0  0  0  0
 10 41  1  0  0  0  0
 11 12  1  0  0  0  0
 12 17  1  0  0  0  0
 12 13  2  0  0  0  0
 13 14  1  0  0  0  0
 14 15  2  0  0  0  0
 14 42  1  0  0  0  0
 15 16  1  0  0  0  0
 16 20  1  0  0  0  0
 16 17  2  0  0  0  0
 17 18  1  0  0  0  0
 18 19  2  0  0  0  0
 19 20  1  0  0  0  0
 19 43  1  0  0  0  0
 20 21  1  0  0  0  0
 21 22  1  0  0  0  0
 21 44  1  0  0  0  0
 21 45  1  0  0  0  0
 22 23  1  0  0  0  0
 22 24  1  0  0  0  0
 22 46  1  0  0  0  0
 23 47  1  0  0  0  0
 24 28  1  0  0  0  0
 24 25  1  0  0  0  0
 24 48  1  0  0  0  0
 25 26  1  0  0  0  0
 25 49  1  0  0  0  0
 25 50  1  0  0  0  0
 26 27  1  0  0  0  0
 26 51  1  0  0  0  0
 26 52  1  0  0  0  0
 27 28  1  0  0  0  0
 27 53  1  0  0  0  0
 27 54  1  0  0  0  0
M  END
> <s_m_source_file>
AV-unprocessed.smi

> <i_m_source_file_index>
235

> <i_lp_mmshare_version>
43012

> <i_f3d_flags>
0

> <s_epik_input>
W0NIMl0xW0NIMl1bQ0hdMVtOSF1DKD1PKVtDQEBIXTJbQ0gyXVtDSDJdW0NIMl1OMmMobltjSF1uMyljKGMzNCluW2NIXW40W0NIMl1bQ0BIXShbT0hdKVtDQEBIXTVbQ0gyXVtDSDJdW0NIMl1PNQ==

> <s_epik_cmdline>
J2VwaWtfcHl0aG9uJywgJy1waCcsICc3LjAnLCAnLXRuJywgJzgnLCAnLW1hJywgJzIwMCcsICctbWV0YWxfYmluZGluZycsICctaW1hZScsICc8aW5maWxlLm1hZT4nLCAnLW9tYWUnLCAnPG91dGZpbGUubWFlPic=

> <r_lp_tautomer_probability>
1

> <r_epik_Ionization_Penalty>
0.000526714

> <r_epik_Ionization_Penalty_Charging>
0

> <r_epik_Ionization_Penalty_Neutral>
0.000526714

> <r_epik_State_Penalty>
0.000272704

> <r_epik_Charging_Adjusted_Penalty>
0.000272704

> <i_epik_Tot_Q>
0

> <i_epik_Tot_abs_Q>
0

> <r_epik_Metal_State_Penalty>
-0

> <b_epik_Metal_Only>
0

> <s_lp_Force_Field>
OPLS_2005

> <r_lp_Energy>
59.397

> <b_lp_Chiralities_Consistent>
1

> <s_lp_Variant>
AV-unprocessed.smi:235-5

> <Gold.Version>
5.8.1

> <Gold.Id.Protein>
6NUR|6NUR_protein|mol2

> <Gold.PLP.Fitness>
47.2918

> <Gold.PLP.PLP>
-38.2370

> <Gold.PLP.part.hbond>
-3.2743

> <Gold.PLP.part.metal>
0.0000

> <Gold.PLP.part.buried>
-6.3154

> <Gold.PLP.part.nonpolar>
-28.4613

> <Gold.PLP.part.repulsive>
0.3010

> <Gold.PLP.ligand.clash>
0.0000

> <Gold.PLP.ligand.torsion>
1.6493

> <Gold.PLP.Chemscore.Hbond>
3.0000

> <Gold.PLP.Chemscore.CHOScore>
1.0000

> <Gold.PLP.Chemscore.Metal>
0.0000

> <Gold.Chemscore.Hbonds>
donor molecule, donor type, donor heavy atom, donor atom, acceptor molecule, acceptor atom, score
      L1  H     3    29       P1  7948  1.00
      L1  H    23    47       P1  8028  0.69
      P1  H  7989  7998       L1    15  0.90
      L1  C    14    42       P1  7957  0.77

> <Gold.PLP.Chemscore.Internal.Correction>
0.3534

> <Gold.Rescore>
     Score         DG    S(hbond)    S(metal)    S(lipo)     H(rot)  DE(clash)    DE(int)     intcor
     14.41     -18.59       2.93        0.00      94.12       3.00       1.72       2.47       ----

> <Gold.Chemscore.Fitness>
14.4090

> <Gold.Chemscore.DG>
-18.5934

> <Gold.Chemscore.ZeroCoef>
-5.4800

> <Gold.Chemscore.Hbond>
2.9276

> <Gold.Chemscore.Metal>
0.0000

> <Gold.Chemscore.Lipo>
94.1221

> <Gold.Chemscore.Internal_Hbond>
0.0000

> <Gold.Chemscore.DEClash>
1.7165

> <Gold.Chemscore.DEInternal>
2.4680

> <Gold.Chemscore.Rot>
2.9989

> <Gold.Chemscore.Internal.Correction>
   9.000000E+99

> <Gold.Chemscore.Hbonds>
donor molecule, donor type, donor heavy atom, donor atom, acceptor molecule, acceptor atom, score
      L1  H     3    29       P1  7948  1.00
      L1  H    23    47       P1  8028  0.24
      P1  H  7989  7998       L1    15  0.17

> <Gold.Chemscore.Hbond.Weighted>
-9.7783

> <Gold.Chemscore.Metal.Weighted>
-0.0000

> <Gold.Chemscore.Lipo.Weighted>
-11.0123

> <Gold.Chemscore.Internal_Hbond.Weighted>
0.0000

> <Gold.Chemscore.DEClash.Weighted>
1.7165

> <Gold.Chemscore.DEInternal.Weighted>
2.4680

> <Gold.Chemscore.Rot.Weighted>
7.6772

> <Gold.Chemscore.Internal.Correction.Weighted>
   9.000000E+99

> <Gold.Protein.RotatedTorsions>
[ 6907 6896 6895 6894 ] final  -92.17 input  -60.11 | X-H torsion
[ 7974 7965 7964 7962 ] final  172.98 input  175.53 | X-H torsion
[ 8008 7997 7996 7995 ] final  170.43 input   59.86 | X-H torsion
[ 10167 10162 10161 10158 ] final  103.77 input  -65.29 | X-H torsion
[ 10718 10713 10712 10709 ] final  174.30 input   66.30 | X-H torsion
[ 10763 10752 10751 10750 ] final  -39.62 input  -60.55 | X-H torsion
[ 11005 11000 10999 10996 ] final  -95.80 input  -57.11 | X-H torsion

> <Gold.Protein.ActiveResidues>
 VAL166  LYS551  ARG553  GLY616  TRP617  ASP618  TYR619  PRO620  LYS621  CYS622 
 ASP623  PHE694  ASN695  SER759  ASP760  ASP761  ALA762  ILE779  LEU786  VAL792 
 PHE793  MET794  SER795  GLU796  ALA797  LYS798  CYS799  TRP800  GLU811  SER814 

> <Gold.Protein.RotatedAtoms>
  150.6902  134.2164  159.4379 H   0  0  0  0  0  0  0  0  0  0  0  0  # atno 6907 bound_to 6896
  152.0122  134.9867  160.0577 H   0  0  0  0  0  0  0  0  0  0  0  0  # atno 6908 bound_to 6896
  152.1477  133.4468  159.4835 H   0  0  0  0  0  0  0  0  0  0  0  0  # atno 6909 bound_to 6896
  144.7255  139.9579  143.6434 H   0  0  0  0  0  0  0  0  0  0  0  0  # atno 7974 bound_to 7965
  156.1366  140.1538  156.8985 H   0  0  0  0  0  0  0  0  0  0  0  0  # atno 8008 bound_to 7997
  154.4952  140.0840  156.7720 H   0  0  0  0  0  0  0  0  0  0  0  0  # atno 8009 bound_to 7997
  155.4158  140.3421  155.4269 H   0  0  0  0  0  0  0  0  0  0  0  0  # atno 8010 bound_to 7997
  139.7234  144.7053  151.0836 H   0  0  0  0  0  0  0  0  0  0  0  0  # atno 10167 bound_to 10162
  156.9517  131.0033  151.2947 H   0  0  0  0  0  0  0  0  0  0  0  0  # atno 10718 bound_to 10713
  153.9325  135.6770  153.4745 H   0  0  0  0  0  0  0  0  0  0  0  0  # atno 10763 bound_to 10752
  153.0972  135.4845  154.8798 H   0  0  0  0  0  0  0  0  0  0  0  0  # atno 10764 bound_to 10752
  154.7420  135.3163  154.8668 H   0  0  0  0  0  0  0  0  0  0  0  0  # atno 10765 bound_to 10752
  141.1431  133.8052  157.0485 H   0  0  0  0  0  0  0  0  0  0  0  0  # atno 11005 bound_to 11000
  146.0660  139.3651  143.0552 LP  0  0  0  0  0  0  0  0  0  0  0  0  # atno 17320 bound_to 7965
  145.8030  140.9762  143.0989 LP  0  0  0  0  0  0  0  0  0  0  0  0  # atno 17321 bound_to 7965
  140.7758  143.5136  150.9622 LP  0  0  0  0  0  0  0  0  0  0  0  0  # atno 17342 bound_to 10162
  139.8823  143.7056  152.3155 LP  0  0  0  0  0  0  0  0  0  0  0  0  # atno 17343 bound_to 10162
  157.5717  130.8315  149.8401 LP  0  0  0  0  0  0  0  0  0  0  0  0  # atno 17370 bound_to 10713
  156.0360  130.3751  150.1560 LP  0  0  0  0  0  0  0  0  0  0  0  0  # atno 17371 bound_to 10713
  140.0647  134.9735  157.1365 LP  0  0  0  0  0  0  0  0  0  0  0  0  # atno 17394 bound_to 11000
  140.3797  134.2300  155.7172 LP  0  0  0  0  0  0  0  0  0  0  0  0  # atno 17395 bound_to 11000

$$$$
