AV-unprocessed.smi:2807|AV-procd|sdf|10822|dock6
  -GOLD-   2272015263D 1   1.00000     0.00000
 Structure written by MMmdl.
 31 32  0  0  0  0  0  0  0  0  2 V2000
  149.3911  140.6572  158.5270 O   0  0  0  0  0  0  0  0  0  0  0  0
  149.6946  140.6774  157.3286 C   0  0  0  0  0  0  0  0  0  0  0  0
  148.9178  140.4630  156.2286 N   0  5  0  0  0  0  0  0  0  0  0  0
  148.1928  141.5140  155.5051 C   0  0  2  0  0  0  0  0  0  0  0  0
  146.6929  141.4083  155.8198 C   0  0  0  0  0  0  0  0  0  0  0  0
  146.0899  140.4317  154.7925 C   0  0  0  0  0  0  0  0  0  0  0  0
  147.1491  140.2316  153.6976 C   0  0  0  0  0  0  0  0  0  0  0  0
  148.2288  141.2833  153.9823 C   0  0  2  0  0  0  0  0  0  0  0  0
  149.4965  140.9153  153.4727 O   0  0  0  0  0  0  0  0  0  0  0  0
  151.1606  140.9739  156.9469 C   0  0  0  0  0  0  0  0  0  0  0  0
  151.6345  139.9899  156.1748 F   0  0  0  0  0  0  0  0  0  0  0  0
  151.1993  142.0980  156.2269 F   0  0  0  0  0  0  0  0  0  0  0  0
  152.0209  141.1598  158.1962 C   0  0  0  0  0  0  0  0  0  0  0  0
  151.7121  142.1680  159.1379 C   0  0  0  0  0  0  0  0  0  0  0  0
  152.5215  142.2956  160.2826 C   0  0  0  0  0  0  0  0  0  0  0  0
  153.6084  141.4163  160.4463 C   0  0  0  0  0  0  0  0  0  0  0  0
  153.8370  140.4435  159.4533 C   0  0  0  0  0  0  0  0  0  0  0  0
  153.0679  140.3137  158.3519 N   0  0  0  0  0  0  0  0  0  0  0  0
  148.5573  142.5144  155.7442 H   0  0  0  0  0  0  0  0  0  0  0  0
  146.4907  141.1074  156.8491 H   0  0  0  0  0  0  0  0  0  0  0  0
  146.2345  142.3886  155.6838 H   0  0  0  0  0  0  0  0  0  0  0  0
  145.8451  139.4761  155.2587 H   0  0  0  0  0  0  0  0  0  0  0  0
  145.1647  140.8349  154.3792 H   0  0  0  0  0  0  0  0  0  0  0  0
  147.5623  139.2230  153.7717 H   0  0  0  0  0  0  0  0  0  0  0  0
  146.7329  140.3350  152.6951 H   0  0  0  0  0  0  0  0  0  0  0  0
  147.9381  142.2154  153.4958 H   0  0  0  0  0  0  0  0  0  0  0  0
  149.3668  140.2251  152.8404 H   0  0  0  0  0  0  0  0  0  0  0  0
  150.8666  142.8233  158.9887 H   0  0  0  0  0  0  0  0  0  0  0  0
  152.3112  143.0533  161.0228 H   0  0  0  0  0  0  0  0  0  0  0  0
  154.2502  141.4836  161.3120 H   0  0  0  0  0  0  0  0  0  0  0  0
  154.6612  139.7518  159.5454 H   0  0  0  0  0  0  0  0  0  0  0  0
  1  2  2  0  0  0  0
  2  3  1  0  0  0  0
  2 10  1  0  0  0  0
  3  4  1  0  0  0  0
  4  8  1  0  0  0  0
  4  5  1  0  0  0  0
  4 19  1  0  0  0  0
  5  6  1  0  0  0  0
  5 20  1  0  0  0  0
  5 21  1  0  0  0  0
  6  7  1  0  0  0  0
  6 22  1  0  0  0  0
  6 23  1  0  0  0  0
  7  8  1  0  0  0  0
  7 24  1  0  0  0  0
  7 25  1  0  0  0  0
  8  9  1  0  0  0  0
  8 26  1  0  0  0  0
  9 27  1  0  0  0  0
 10 11  1  0  0  0  0
 10 12  1  0  0  0  0
 10 13  1  0  0  0  0
 13 18  1  0  0  0  0
 13 14  2  0  0  0  0
 14 15  1  0  0  0  0
 14 28  1  0  0  0  0
 15 16  2  0  0  0  0
 15 29  1  0  0  0  0
 16 17  1  0  0  0  0
 16 30  1  0  0  0  0
 17 18  2  0  0  0  0
 17 31  1  0  0  0  0
M  CHG  1   3  -1
M  END
> <s_m_source_file>
AV-unprocessed.smi

> <i_m_source_file_index>
2807

> <i_lp_mmshare_version>
43012

> <i_f3d_flags>
0

> <s_epik_input>
bjFbY0hdW2NIXVtjSF1bY0hdYzFDKEYpKEYpQyg9TylbTkhdW0NAQEhdMltDSDJdW0NIMl1bQ0gyXVtDQEhdMltPSF0=

> <s_epik_cmdline>
J2VwaWtfcHl0aG9uJywgJy1waCcsICc3LjAnLCAnLXRuJywgJzgnLCAnLW1hJywgJzIwMCcsICctbWV0YWxfYmluZGluZycsICctaW1hZScsICc8aW5maWxlLm1hZT4nLCAnLW9tYWUnLCAnPG91dGZpbGUubWFlPic=

> <r_lp_tautomer_probability>
1

> <r_epik_Ionization_Penalty>
5.72231

> <r_epik_Ionization_Penalty_Charging>
5.72231

> <r_epik_Ionization_Penalty_Neutral>
5.49816e-06

> <r_epik_State_Penalty>
5.72227

> <r_epik_Charging_Adjusted_Penalty>
11.4446

> <i_epik_Tot_Q>
-1

> <i_epik_Tot_abs_Q>
1

> <r_epik_Metal_State_Penalty>
1.70075

> <b_epik_Metal_Only>
1

> <s_lp_Force_Field>
OPLS_2005

> <r_lp_Energy>
37.6883

> <b_lp_Chiralities_Consistent>
1

> <s_lp_Variant>
AV-unprocessed.smi:2807-7

> <Gold.Version>
5.8.1

> <Gold.Id.Protein>
6NUR|6NUR_protein|mol2

> <Gold.PLP.Fitness>
38.0800

> <Gold.PLP.PLP>
-31.5181

> <Gold.PLP.part.hbond>
-4.3728

> <Gold.PLP.part.metal>
0.0000

> <Gold.PLP.part.buried>
-2.2444

> <Gold.PLP.part.nonpolar>
-24.1802

> <Gold.PLP.part.repulsive>
0.0357

> <Gold.PLP.ligand.clash>
0.0000

> <Gold.PLP.ligand.torsion>
1.0245

> <Gold.PLP.Chemscore.Hbond>
2.8460

> <Gold.PLP.Chemscore.CHOScore>
0.0000

> <Gold.PLP.Chemscore.Metal>
0.0000

> <Gold.Chemscore.Hbonds>
donor molecule, donor type, donor heavy atom, donor atom, acceptor molecule, acceptor atom, score
      L1  H     9    27       P1  7957  0.70
      P1  H  7989  7998       L1     9  0.20
      P1  H  7997  8008       L1    18  0.84
      P1  H  8011  8017       L1     9  0.95

> <Gold.PLP.Chemscore.Internal.Correction>
0.0729

> <Gold.Rescore>
     Score         DG    S(hbond)    S(metal)    S(lipo)     H(rot)  DE(clash)    DE(int)     intcor
     11.05     -13.67       1.25        0.00      78.04       2.00       0.36       2.26       ----

> <Gold.Chemscore.Fitness>
11.0513

> <Gold.Chemscore.DG>
-13.6736

> <Gold.Chemscore.ZeroCoef>
-5.4800

> <Gold.Chemscore.Hbond>
1.2496

> <Gold.Chemscore.Metal>
0.0000

> <Gold.Chemscore.Lipo>
78.0410

> <Gold.Chemscore.Internal_Hbond>
0.0000

> <Gold.Chemscore.DEClash>
0.3589

> <Gold.Chemscore.DEInternal>
2.2634

> <Gold.Chemscore.Rot>
1.9964

> <Gold.Chemscore.Internal.Correction>
   9.000000E+99

> <Gold.Chemscore.Hbonds>
donor molecule, donor type, donor heavy atom, donor atom, acceptor molecule, acceptor atom, score
      L1  H     9    27       P1  7957  0.72
      P1  H  7989  7998       L1     9  0.03
      P1  H  7997  8008       L1    18  0.17
      P1  H  8011  8017       L1     9  0.06

> <Gold.Chemscore.Hbond.Weighted>
-4.1737

> <Gold.Chemscore.Metal.Weighted>
-0.0000

> <Gold.Chemscore.Lipo.Weighted>
-9.1308

> <Gold.Chemscore.Internal_Hbond.Weighted>
0.0000

> <Gold.Chemscore.DEClash.Weighted>
0.3589

> <Gold.Chemscore.DEInternal.Weighted>
2.2634

> <Gold.Chemscore.Rot.Weighted>
5.1108

> <Gold.Chemscore.Internal.Correction.Weighted>
   9.000000E+99

> <Gold.Protein.RotatedTorsions>
[ 6907 6896 6895 6894 ] final   11.33 input  -60.11 | X-H torsion
[ 7974 7965 7964 7962 ] final  -87.85 input  175.53 | X-H torsion
[ 8008 7997 7996 7995 ] final  -80.30 input   59.86 | X-H torsion
[ 10167 10162 10161 10158 ] final  116.50 input  -65.29 | X-H torsion
[ 10718 10713 10712 10709 ] final   95.05 input   66.30 | X-H torsion
[ 10763 10752 10751 10750 ] final   33.14 input  -60.55 | X-H torsion
[ 11005 11000 10999 10996 ] final  -27.28 input  -57.11 | X-H torsion

> <Gold.Protein.ActiveResidues>
 VAL166  LYS551  ARG553  GLY616  TRP617  ASP618  TYR619  PRO620  LYS621  CYS622 
 ASP623  PHE694  ASN695  SER759  ASP760  ASP761  ALA762  ILE779  LEU786  VAL792 
 PHE793  MET794  SER795  GLU796  ALA797  LYS798  CYS799  TRP800  GLU811  SER814 

> <Gold.Protein.RotatedAtoms>
  151.7526  135.0829  160.0332 H   0  0  0  0  0  0  0  0  0  0  0  0  # atno 6907 bound_to 6896
  152.3406  133.6058  159.5882 H   0  0  0  0  0  0  0  0  0  0  0  0  # atno 6908 bound_to 6896
  150.7477  133.9644  159.3567 H   0  0  0  0  0  0  0  0  0  0  0  0  # atno 6909 bound_to 6896
  145.4610  140.9561  143.1970 H   0  0  0  0  0  0  0  0  0  0  0  0  # atno 7974 bound_to 7965
  154.5869  140.0665  156.9184 H   0  0  0  0  0  0  0  0  0  0  0  0  # atno 8008 bound_to 7997
  155.2363  140.3341  155.4279 H   0  0  0  0  0  0  0  0  0  0  0  0  # atno 8009 bound_to 7997
  156.2229  140.1806  156.7418 H   0  0  0  0  0  0  0  0  0  0  0  0  # atno 8010 bound_to 7997
  139.6243  144.7106  151.2567 H   0  0  0  0  0  0  0  0  0  0  0  0  # atno 10167 bound_to 10162
  157.6942  131.0533  150.4279 H   0  0  0  0  0  0  0  0  0  0  0  0  # atno 10718 bound_to 10713
  153.0226  135.6395  154.1465 H   0  0  0  0  0  0  0  0  0  0  0  0  # atno 10763 bound_to 10752
  154.1198  135.2847  155.3212 H   0  0  0  0  0  0  0  0  0  0  0  0  # atno 10764 bound_to 10752
  154.6271  135.5505  153.7702 H   0  0  0  0  0  0  0  0  0  0  0  0  # atno 10765 bound_to 10752
  140.9105  133.7464  156.0664 H   0  0  0  0  0  0  0  0  0  0  0  0  # atno 11005 bound_to 11000
  144.8003  139.6154  143.7074 LP  0  0  0  0  0  0  0  0  0  0  0  0  # atno 17320 bound_to 7965
  146.2451  139.6081  142.9465 LP  0  0  0  0  0  0  0  0  0  0  0  0  # atno 17321 bound_to 7965
  140.7401  143.6597  150.8175 LP  0  0  0  0  0  0  0  0  0  0  0  0  # atno 17342 bound_to 10162
  140.0213  143.5540  152.2799 LP  0  0  0  0  0  0  0  0  0  0  0  0  # atno 17343 bound_to 10162
  156.4648  130.4040  149.6554 LP  0  0  0  0  0  0  0  0  0  0  0  0  # atno 17370 bound_to 10713
  156.3655  130.7504  151.2481 LP  0  0  0  0  0  0  0  0  0  0  0  0  # atno 17371 bound_to 10713
  140.8116  134.3392  157.5410 LP  0  0  0  0  0  0  0  0  0  0  0  0  # atno 17394 bound_to 11000
  139.8756  134.9257  156.3382 LP  0  0  0  0  0  0  0  0  0  0  0  0  # atno 17395 bound_to 11000

$$$$
