AV-unprocessed.smi:1047|AV-procd|sdf|4562|dock4
  -GOLD-   22720 3 03D 1   1.00000     0.00000
 Structure written by MMmdl.
 57 59  0  0  0  0  0  0  0  0  3 V2000
  145.8853  132.6193  151.4001 C   0  0  0  0  0  0  0  0  0  0  0  0
  146.3180  134.0733  151.6336 C   0  0  0  0  0  0  0  0  0  0  0  0
  145.3953  135.0476  150.9931 N   0  3  1  0  0  0  0  0  0  0  0  0
  144.0732  135.1802  151.6562 C   0  0  0  0  0  0  0  0  0  0  0  0
  144.1635  136.0499  152.9243 C   0  0  0  0  0  0  0  0  0  0  0  0
  144.7336  137.3131  152.6015 O   0  0  0  0  0  0  0  0  0  0  0  0
  146.0556  137.2041  152.0824 C   0  0  2  0  0  0  0  0  0  0  0  0
  146.5853  138.6256  151.8382 C   0  0  0  0  0  0  0  0  0  0  0  0
  146.4049  139.4833  153.0271 N   0  3  0  0  0  0  0  0  0  0  0  0
  147.5050  140.4445  153.2454 C   0  0  0  0  0  0  0  0  0  0  0  0
  148.4726  139.9554  154.3356 C   0  0  2  0  0  0  0  0  0  0  0  0
  147.7173  139.5361  155.4564 O   0  0  0  0  0  0  0  0  0  0  0  0
  149.4550  141.0620  154.7667 C   0  0  0  0  0  0  0  0  0  0  0  0
  150.3848  140.6142  155.7880 N   0  0  0  0  0  0  0  0  0  0  0  0
  150.8589  139.3657  155.9662 C   0  0  0  0  0  0  0  0  0  0  0  0
  151.7109  139.1757  156.9691 N   0  0  0  0  0  0  0  0  0  0  0  0
  151.7933  140.4472  157.5101 C   0  0  0  0  0  0  0  0  0  0  0  0
  152.5350  140.9287  158.6107 C   0  0  0  0  0  0  0  0  0  0  0  0
  152.4634  142.2869  158.9942 C   0  0  0  0  0  0  0  0  0  0  0  0
  153.2764  142.7609  160.1861 C   0  0  0  0  0  0  0  0  0  0  0  0
  151.6393  143.1868  158.2719 C   0  0  0  0  0  0  0  0  0  0  0  0
  151.5405  144.6482  158.6722 C   0  0  0  0  0  0  0  0  0  0  0  0
  150.8952  142.7234  157.1666 C   0  0  0  0  0  0  0  0  0  0  0  0
  150.9741  141.3696  156.7956 C   0  0  0  0  0  0  0  0  0  0  0  0
  146.0005  136.3849  150.7743 C   0  0  0  0  0  0  0  0  0  0  0  0
  146.6284  131.9297  151.8012 H   0  0  0  0  0  0  0  0  0  0  0  0
  145.7791  132.4059  150.3361 H   0  0  0  0  0  0  0  0  0  0  0  0
  144.9377  132.3896  151.8862 H   0  0  0  0  0  0  0  0  0  0  0  0
  146.4190  134.2736  152.7003 H   0  0  0  0  0  0  0  0  0  0  0  0
  147.3139  134.1919  151.2050 H   0  0  0  0  0  0  0  0  0  0  0  0
  143.3874  135.6506  150.9503 H   0  0  0  0  0  0  0  0  0  0  0  0
  143.6455  134.2053  151.8874 H   0  0  0  0  0  0  0  0  0  0  0  0
  143.1669  136.2115  153.3355 H   0  0  0  0  0  0  0  0  0  0  0  0
  144.7477  135.5609  153.7045 H   0  0  0  0  0  0  0  0  0  0  0  0
  146.6985  136.7033  152.8088 H   0  0  0  0  0  0  0  0  0  0  0  0
  147.6485  138.5901  151.5970 H   0  0  0  0  0  0  0  0  0  0  0  0
  146.0770  139.0718  150.9822 H   0  0  0  0  0  0  0  0  0  0  0  0
  145.5511  140.0124  152.9142 H   0  0  0  0  0  0  0  0  0  0  0  0
  148.0433  140.5737  152.3053 H   0  0  0  0  0  0  0  0  0  0  0  0
  147.0934  141.4188  153.5146 H   0  0  0  0  0  0  0  0  0  0  0  0
  149.0388  139.0999  153.9641 H   0  0  0  0  0  0  0  0  0  0  0  0
  148.3129  139.3539  156.1683 H   0  0  0  0  0  0  0  0  0  0  0  0
  150.0333  141.4093  153.9096 H   0  0  0  0  0  0  0  0  0  0  0  0
  148.9119  141.9290  155.1467 H   0  0  0  0  0  0  0  0  0  0  0  0
  150.5658  138.5514  155.3196 H   0  0  0  0  0  0  0  0  0  0  0  0
  153.1603  140.2419  159.1620 H   0  0  0  0  0  0  0  0  0  0  0  0
  152.6185  143.1149  160.9803 H   0  0  0  0  0  0  0  0  0  0  0  0
  153.9419  143.5748  159.8978 H   0  0  0  0  0  0  0  0  0  0  0  0
  153.8911  141.9578  160.5934 H   0  0  0  0  0  0  0  0  0  0  0  0
  150.8433  145.1901  158.0326 H   0  0  0  0  0  0  0  0  0  0  0  0
  152.5138  145.1330  158.5937 H   0  0  0  0  0  0  0  0  0  0  0  0
  151.1896  144.7394  159.7006 H   0  0  0  0  0  0  0  0  0  0  0  0
  150.2641  143.3985  156.6075 H   0  0  0  0  0  0  0  0  0  0  0  0
  146.9930  136.2858  150.3330 H   0  0  0  0  0  0  0  0  0  0  0  0
  145.3933  136.9149  150.0390 H   0  0  0  0  0  0  0  0  0  0  0  0
  146.3162  138.8991  153.8463 H   0  0  0  0  0  0  0  0  0  0  0  0
  145.2186  134.6720  150.0718 H   0  0  0  0  0  0  0  0  0  0  0  0
  1  2  1  0  0  0  0
  1 26  1  0  0  0  0
  1 27  1  0  0  0  0
  1 28  1  0  0  0  0
  2  3  1  0  0  0  0
  2 29  1  0  0  0  0
  2 30  1  0  0  0  0
  3 25  1  0  0  0  0
  3  4  1  0  0  0  0
  3 57  1  0  0  0  0
  4  5  1  0  0  0  0
  4 31  1  0  0  0  0
  4 32  1  0  0  0  0
  5  6  1  0  0  0  0
  5 33  1  0  0  0  0
  5 34  1  0  0  0  0
  6  7  1  0  0  0  0
  7  8  1  0  0  0  0
  7 25  1  0  0  0  0
  7 35  1  0  0  0  0
  8  9  1  0  0  0  0
  8 36  1  0  0  0  0
  8 37  1  0  0  0  0
  9 10  1  0  0  0  0
  9 38  1  0  0  0  0
  9 56  1  0  0  0  0
 10 11  1  0  0  0  0
 10 39  1  0  0  0  0
 10 40  1  0  0  0  0
 11 12  1  0  0  0  0
 11 13  1  0  0  0  0
 11 41  1  0  0  0  0
 12 42  1  0  0  0  0
 13 14  1  0  0  0  0
 13 43  1  0  0  0  0
 13 44  1  0  0  0  0
 14 24  1  0  0  0  0
 14 15  1  0  0  0  0
 15 16  2  0  0  0  0
 15 45  1  0  0  0  0
 16 17  1  0  0  0  0
 17 24  2  0  0  0  0
 17 18  1  0  0  0  0
 18 19  2  0  0  0  0
 18 46  1  0  0  0  0
 19 20  1  0  0  0  0
 19 21  1  0  0  0  0
 20 47  1  0  0  0  0
 20 48  1  0  0  0  0
 20 49  1  0  0  0  0
 21 22  1  0  0  0  0
 21 23  2  0  0  0  0
 22 50  1  0  0  0  0
 22 51  1  0  0  0  0
 22 52  1  0  0  0  0
 23 24  1  0  0  0  0
 23 53  1  0  0  0  0
 25 54  1  0  0  0  0
 25 55  1  0  0  0  0
M  CHG  1   3   1
M  CHG  1   9   1
M  END
> <s_m_source_file>
AV-unprocessed.smi

> <i_m_source_file_index>
1047

> <i_lp_mmshare_version>
43012

> <i_f3d_flags>
0

> <s_epik_input>
W0NIM11bQ0gyXU4xW0NIMl1bQ0gyXU9bQ0BIXShbQ0gyXTEpW0NIMl1bTkhdW0NIMl1bQ0BIXShbT0hdKVtDSDJdbihbY0hdbjIpYyhjMjMpW2NIXWMoW0NIM10pYyhbY0hdMylbQ0gzXQ==

> <s_epik_cmdline>
J2VwaWtfcHl0aG9uJywgJy1waCcsICc3LjAnLCAnLXRuJywgJzgnLCAnLW1hJywgJzIwMCcsICctbWV0YWxfYmluZGluZycsICctaW1hZScsICc8aW5maWxlLm1hZT4nLCAnLW9tYWUnLCAnPG91dGZpbGUubWFlPic=

> <r_epik_Ionization_Penalty>
0.528991

> <r_epik_Ionization_Penalty_Charging>
0.438567

> <r_epik_Ionization_Penalty_Neutral>
0.0904237

> <r_epik_State_Penalty>
0.533036

> <r_epik_Charging_Adjusted_Penalty>
0.971603

> <i_epik_Tot_Q>
2

> <i_epik_Tot_abs_Q>
2

> <r_epik_Metal_State_Penalty>
0.448985

> <b_epik_Metal_Only>
0

> <s_lp_Force_Field>
OPLS_2005

> <r_lp_Energy>
30.7538

> <b_lp_Chiralities_Consistent>
1

> <s_lp_Variant>
AV-unprocessed.smi:1047-3

> <Gold.Version>
5.8.1

> <Gold.Id.Protein>
6NUR|6NUR_protein|mol2

> <Gold.PLP.Fitness>
53.9029

> <Gold.PLP.PLP>
-50.0314

> <Gold.PLP.part.hbond>
-1.0000

> <Gold.PLP.part.metal>
0.0000

> <Gold.PLP.part.buried>
-2.3839

> <Gold.PLP.part.nonpolar>
-48.4337

> <Gold.PLP.part.repulsive>
0.8309

> <Gold.PLP.ligand.clash>
0.0000

> <Gold.PLP.ligand.torsion>
1.1635

> <Gold.PLP.Chemscore.Hbond>
2.0000

> <Gold.PLP.Chemscore.CHOScore>
0.0000

> <Gold.PLP.Chemscore.Metal>
0.0000

> <Gold.Chemscore.Hbonds>
donor molecule, donor type, donor heavy atom, donor atom, acceptor molecule, acceptor atom, score
      L1  H     9    38       P1 10175  2.00

> <Gold.PLP.Chemscore.Internal.Correction>
0.1985

> <Gold.Rescore>
     Score         DG    S(hbond)    S(metal)    S(lipo)     H(rot)  DE(clash)    DE(int)     intcor
     16.71     -18.50       0.96        0.00     142.86       2.70       0.54       1.26       ----

> <Gold.Chemscore.Fitness>
16.7084

> <Gold.Chemscore.DG>
-18.5020

> <Gold.Chemscore.ZeroCoef>
-5.4800

> <Gold.Chemscore.Hbond>
0.9628

> <Gold.Chemscore.Metal>
0.0000

> <Gold.Chemscore.Lipo>
142.8577

> <Gold.Chemscore.Internal_Hbond>
0.0000

> <Gold.Chemscore.DEClash>
0.5382

> <Gold.Chemscore.DEInternal>
1.2553

> <Gold.Chemscore.Rot>
2.6985

> <Gold.Chemscore.Internal.Correction>
   9.000000E+99

> <Gold.Chemscore.Hbonds>
donor molecule, donor type, donor heavy atom, donor atom, acceptor molecule, acceptor atom, score
      L1  H     9    38       P1 10175  0.97

> <Gold.Chemscore.Hbond.Weighted>
-3.2158

> <Gold.Chemscore.Metal.Weighted>
-0.0000

> <Gold.Chemscore.Lipo.Weighted>
-16.7143

> <Gold.Chemscore.Internal_Hbond.Weighted>
0.0000

> <Gold.Chemscore.DEClash.Weighted>
0.5382

> <Gold.Chemscore.DEInternal.Weighted>
1.2553

> <Gold.Chemscore.Rot.Weighted>
6.9081

> <Gold.Chemscore.Internal.Correction.Weighted>
   9.000000E+99

> <Gold.Protein.RotatedTorsions>
[ 6907 6896 6895 6894 ] final -177.08 input  -60.11 | X-H torsion
[ 7974 7965 7964 7962 ] final  -92.14 input  175.53 | X-H torsion
[ 8008 7997 7996 7995 ] final   58.80 input   59.86 | X-H torsion
[ 10167 10162 10161 10158 ] final   28.75 input  -65.29 | X-H torsion
[ 10718 10713 10712 10709 ] final    3.84 input   66.30 | X-H torsion
[ 10763 10752 10751 10750 ] final  -18.30 input  -60.55 | X-H torsion
[ 11005 11000 10999 10996 ] final  145.83 input  -57.11 | X-H torsion

> <Gold.Protein.ActiveResidues>
 VAL166  LYS551  ARG553  GLY616  TRP617  ASP618  TYR619  PRO620  LYS621  CYS622 
 ASP623  PHE694  ASN695  SER759  ASP760  ASP761  ALA762  ILE779  LEU786  VAL792 
 PHE793  MET794  SER795  GLU796  ALA797  LYS798  CYS799  TRP800  GLU811  SER814 

> <Gold.Protein.RotatedAtoms>
  151.6152  133.3344  159.3075 H   0  0  0  0  0  0  0  0  0  0  0  0  # atno 6907 bound_to 6896
  150.8135  134.7307  159.6721 H   0  0  0  0  0  0  0  0  0  0  0  0  # atno 6908 bound_to 6896
  152.4231  134.5923  160.0029 H   0  0  0  0  0  0  0  0  0  0  0  0  # atno 6909 bound_to 6896
  145.4038  140.9539  143.2272 H   0  0  0  0  0  0  0  0  0  0  0  0  # atno 7974 bound_to 7965
  155.5558  140.3487  155.4479 H   0  0  0  0  0  0  0  0  0  0  0  0  # atno 8008 bound_to 7997
  156.0550  140.1326  157.0033 H   0  0  0  0  0  0  0  0  0  0  0  0  # atno 8009 bound_to 7997
  154.4452  140.0997  156.6417 H   0  0  0  0  0  0  0  0  0  0  0  0  # atno 8010 bound_to 7997
  140.4826  144.0593  150.6270 H   0  0  0  0  0  0  0  0  0  0  0  0  # atno 10167 bound_to 10162
  156.8838  130.5663  149.5652 H   0  0  0  0  0  0  0  0  0  0  0  0  # atno 10718 bound_to 10713
  153.5872  135.7003  153.5438 H   0  0  0  0  0  0  0  0  0  0  0  0  # atno 10763 bound_to 10752
  153.3210  135.4074  155.1416 H   0  0  0  0  0  0  0  0  0  0  0  0  # atno 10764 bound_to 10752
  154.8607  135.3695  154.5402 H   0  0  0  0  0  0  0  0  0  0  0  0  # atno 10765 bound_to 10752
  140.0743  134.9133  157.1397 H   0  0  0  0  0  0  0  0  0  0  0  0  # atno 11005 bound_to 11000
  144.8356  139.5556  143.6924 LP  0  0  0  0  0  0  0  0  0  0  0  0  # atno 17320 bound_to 7965
  146.2739  139.6703  142.9277 LP  0  0  0  0  0  0  0  0  0  0  0  0  # atno 17321 bound_to 7965
  140.3839  143.2788  152.0139 LP  0  0  0  0  0  0  0  0  0  0  0  0  # atno 17342 bound_to 10162
  139.4836  144.6132  151.7394 LP  0  0  0  0  0  0  0  0  0  0  0  0  # atno 17343 bound_to 10162
  156.0663  130.5706  150.9295 LP  0  0  0  0  0  0  0  0  0  0  0  0  # atno 17370 bound_to 10713
  157.6124  131.0935  150.8771 LP  0  0  0  0  0  0  0  0  0  0  0  0  # atno 17371 bound_to 10713
  140.3580  134.2525  155.7190 LP  0  0  0  0  0  0  0  0  0  0  0  0  # atno 17394 bound_to 11000
  141.2024  133.7939  157.0394 LP  0  0  0  0  0  0  0  0  0  0  0  0  # atno 17395 bound_to 11000

$$$$
