AV-unprocessed.smi:861|AV-procd|sdf|3975|dock6
  -GOLD-   22720 1453D 1   1.00000     0.00000
 Structure written by MMmdl.
 45 46  0  0  0  0  0  0  0  0  3 V2000
  142.7414  133.5789  151.7499 C   0  0  0  0  0  0  0  0  0  0  0  0
  144.0826  133.5264  150.9990 C   0  0  0  0  0  0  0  0  0  0  0  0
  144.0032  132.5294  149.8327 C   0  0  0  0  0  0  0  0  0  0  0  0
  145.2649  133.1844  151.9289 C   0  0  0  0  0  0  0  0  0  0  0  0
  146.5259  132.7049  151.1837 C   0  0  0  0  0  0  0  0  0  0  0  0
  147.5536  132.1548  152.1031 N   0  3  2  0  0  0  0  0  0  0  0  0
  147.0593  131.0336  152.9396 C   0  0  0  0  0  0  0  0  0  0  0  0
  148.1825  130.5040  153.8451 C   0  0  0  0  0  0  0  0  0  0  0  0
  148.6896  131.5662  154.6425 O   0  0  0  0  0  0  0  0  0  0  0  0
  149.2649  132.6058  153.8578 C   0  0  2  0  0  0  0  0  0  0  0  0
  149.8462  133.6573  154.8151 C   0  0  0  0  0  0  0  0  0  0  0  0
  149.8256  134.9889  154.2282 N   0  0  0  0  0  0  0  0  0  0  0  0
  150.5589  136.0338  154.8058 C   0  0  0  0  0  0  0  0  0  0  0  0
  151.3579  135.8963  155.9646 C   0  0  0  0  0  0  0  0  0  0  0  0
  152.0468  137.0264  156.4368 C   0  0  0  0  0  0  0  0  0  0  0  0
  151.8959  138.2275  155.7212 C   0  0  0  0  0  0  0  0  0  0  0  0
  151.1260  138.3389  154.6158 N   0  0  0  0  0  0  0  0  0  0  0  0
  150.4790  137.2398  154.1893 N   0  3  0  0  0  0  0  0  0  0  0  0
  148.1662  133.2028  152.9551 C   0  0  0  0  0  0  0  0  0  0  0  0
  142.5190  132.6262  152.2320 H   0  0  0  0  0  0  0  0  0  0  0  0
  141.9203  133.8034  151.0684 H   0  0  0  0  0  0  0  0  0  0  0  0
  142.7380  134.3514  152.5181 H   0  0  0  0  0  0  0  0  0  0  0  0
  144.2633  134.5117  150.5674 H   0  0  0  0  0  0  0  0  0  0  0  0
  143.8229  131.5148  150.1899 H   0  0  0  0  0  0  0  0  0  0  0  0
  144.9292  132.5203  149.2571 H   0  0  0  0  0  0  0  0  0  0  0  0
  143.1960  132.7892  149.1471 H   0  0  0  0  0  0  0  0  0  0  0  0
  145.4913  134.0528  152.5476 H   0  0  0  0  0  0  0  0  0  0  0  0
  144.9542  132.3963  152.6161 H   0  0  0  0  0  0  0  0  0  0  0  0
  146.2279  131.9248  150.4817 H   0  0  0  0  0  0  0  0  0  0  0  0
  146.9636  133.5069  150.5884 H   0  0  0  0  0  0  0  0  0  0  0  0
  146.2203  131.3731  153.5490 H   0  0  0  0  0  0  0  0  0  0  0  0
  146.6916  130.2214  152.3135 H   0  0  0  0  0  0  0  0  0  0  0  0
  147.7991  129.7227  154.5014 H   0  0  0  0  0  0  0  0  0  0  0  0
  148.9847  130.0585  153.2544 H   0  0  0  0  0  0  0  0  0  0  0  0
  150.0664  132.2011  153.2363 H   0  0  0  0  0  0  0  0  0  0  0  0
  149.2590  133.6800  155.7339 H   0  0  0  0  0  0  0  0  0  0  0  0
  150.8668  133.3870  155.0897 H   0  0  0  0  0  0  0  0  0  0  0  0
  149.4154  135.1114  153.3130 H   0  0  0  0  0  0  0  0  0  0  0  0
  151.4491  134.9564  156.4882 H   0  0  0  0  0  0  0  0  0  0  0  0
  152.6706  136.9759  157.3170 H   0  0  0  0  0  0  0  0  0  0  0  0
  152.4051  139.1241  156.0429 H   0  0  0  0  0  0  0  0  0  0  0  0
  148.5956  133.9816  152.3232 H   0  0  0  0  0  0  0  0  0  0  0  0
  147.3917  133.6741  153.5629 H   0  0  0  0  0  0  0  0  0  0  0  0
  148.2955  131.7890  151.5230 H   0  0  0  0  0  0  0  0  0  0  0  0
  149.8962  137.3173  153.3556 H   0  0  0  0  0  0  0  0  0  0  0  0
  1  2  1  0  0  0  0
  1 20  1  0  0  0  0
  1 21  1  0  0  0  0
  1 22  1  0  0  0  0
  2  3  1  0  0  0  0
  2  4  1  0  0  0  0
  2 23  1  0  0  0  0
  3 24  1  0  0  0  0
  3 25  1  0  0  0  0
  3 26  1  0  0  0  0
  4  5  1  0  0  0  0
  4 27  1  0  0  0  0
  4 28  1  0  0  0  0
  5  6  1  0  0  0  0
  5 29  1  0  0  0  0
  5 30  1  0  0  0  0
  6 19  1  0  0  0  0
  6  7  1  0  0  0  0
  6 44  1  0  0  0  0
  7  8  1  0  0  0  0
  7 31  1  0  0  0  0
  7 32  1  0  0  0  0
  8  9  1  0  0  0  0
  8 33  1  0  0  0  0
  8 34  1  0  0  0  0
  9 10  1  0  0  0  0
 10 11  1  0  0  0  0
 10 19  1  0  0  0  0
 10 35  1  0  0  0  0
 11 12  1  0  0  0  0
 11 36  1  0  0  0  0
 11 37  1  0  0  0  0
 12 13  1  0  0  0  0
 12 38  1  0  0  0  0
 13 18  1  0  0  0  0
 13 14  2  0  0  0  0
 14 15  1  0  0  0  0
 14 39  1  0  0  0  0
 15 16  2  0  0  0  0
 15 40  1  0  0  0  0
 16 17  1  0  0  0  0
 16 41  1  0  0  0  0
 17 18  2  0  0  0  0
 18 45  1  0  0  0  0
 19 42  1  0  0  0  0
 19 43  1  0  0  0  0
M  CHG  1   6   1
M  CHG  1  18   1
M  END
> <s_m_source_file>
AV-unprocessed.smi

> <i_m_source_file_index>
861

> <i_lp_mmshare_version>
43012

> <i_f3d_flags>
0

> <s_epik_input>
W0NIM11bQ0hdKFtDSDNdKVtDSDJdW0NIMl1OMVtDSDJdW0NIMl1PW0NASF0oW0NIMl0xKVtDSDJdW05IXWMyW2NIXVtjSF1bY0hdbm4y

> <s_epik_cmdline>
J2VwaWtfcHl0aG9uJywgJy1waCcsICc3LjAnLCAnLXRuJywgJzgnLCAnLW1hJywgJzIwMCcsICctbWV0YWxfYmluZGluZycsICctaW1hZScsICc8aW5maWxlLm1hZT4nLCAnLW9tYWUnLCAnPG91dGZpbGUubWFlPic=

> <r_lp_tautomer_probability>
0.966961

> <r_epik_Ionization_Penalty>
2.478

> <r_epik_Ionization_Penalty_Charging>
2.47799

> <r_epik_Ionization_Penalty_Neutral>
3.15286e-06

> <r_epik_State_Penalty>
2.10794

> <r_epik_Charging_Adjusted_Penalty>
4.58594

> <i_epik_Tot_Q>
2

> <i_epik_Tot_abs_Q>
2

> <r_epik_Metal_State_Penalty>
2.11378

> <b_epik_Metal_Only>
0

> <s_lp_Force_Field>
OPLS_2005

> <r_lp_Energy>
32.9485

> <b_lp_Chiralities_Consistent>
1

> <s_lp_Variant>
AV-unprocessed.smi:861-10

> <Gold.Version>
5.8.1

> <Gold.Id.Protein>
6NUR|6NUR_protein|mol2

> <Gold.PLP.Fitness>
43.1509

> <Gold.PLP.PLP>
-31.8347

> <Gold.PLP.part.hbond>
-3.8372

> <Gold.PLP.part.metal>
0.0000

> <Gold.PLP.part.buried>
-1.2613

> <Gold.PLP.part.nonpolar>
-27.3503

> <Gold.PLP.part.repulsive>
0.2827

> <Gold.PLP.ligand.clash>
0.0000

> <Gold.PLP.ligand.torsion>
0.6633

> <Gold.PLP.Chemscore.Hbond>
4.1920

> <Gold.PLP.Chemscore.CHOScore>
0.0000

> <Gold.PLP.Chemscore.Metal>
0.0000

> <Gold.Chemscore.Hbonds>
donor molecule, donor type, donor heavy atom, donor atom, acceptor molecule, acceptor atom, score
      L1  H     6    44       P1 10747  1.00
      L1  H    12    38       P1  7948  1.20
      L1  H    18    45       P1  7948  1.74

> <Gold.PLP.Chemscore.Internal.Correction>
0.0667

> <Gold.Rescore>
     Score         DG    S(hbond)    S(metal)    S(lipo)     H(rot)  DE(clash)    DE(int)     intcor
     15.90     -16.93       1.91        0.00      82.28       1.78       0.39       0.64       ----

> <Gold.Chemscore.Fitness>
15.8992

> <Gold.Chemscore.DG>
-16.9271

> <Gold.Chemscore.ZeroCoef>
-5.4800

> <Gold.Chemscore.Hbond>
1.9063

> <Gold.Chemscore.Metal>
0.0000

> <Gold.Chemscore.Lipo>
82.2760

> <Gold.Chemscore.Internal_Hbond>
0.0000

> <Gold.Chemscore.DEClash>
0.3892

> <Gold.Chemscore.DEInternal>
0.6387

> <Gold.Chemscore.Rot>
1.7759

> <Gold.Chemscore.Internal.Correction>
   9.000000E+99

> <Gold.Chemscore.Hbonds>
donor molecule, donor type, donor heavy atom, donor atom, acceptor molecule, acceptor atom, score
      L1  H     6    44       P1 10747  0.99
      L1  H    12    38       P1  7948  0.04
      L1  H    18    45       P1  7948  0.36

> <Gold.Chemscore.Hbond.Weighted>
-6.3670

> <Gold.Chemscore.Metal.Weighted>
-0.0000

> <Gold.Chemscore.Lipo.Weighted>
-9.6263

> <Gold.Chemscore.Internal_Hbond.Weighted>
0.0000

> <Gold.Chemscore.DEClash.Weighted>
0.3892

> <Gold.Chemscore.DEInternal.Weighted>
0.6387

> <Gold.Chemscore.Rot.Weighted>
4.5462

> <Gold.Chemscore.Internal.Correction.Weighted>
   9.000000E+99

> <Gold.Protein.RotatedTorsions>
[ 6907 6896 6895 6894 ] final  165.17 input  -60.11 | X-H torsion
[ 7974 7965 7964 7962 ] final  -54.02 input  175.53 | X-H torsion
[ 8008 7997 7996 7995 ] final -100.45 input   59.86 | X-H torsion
[ 10167 10162 10161 10158 ] final   61.46 input  -65.29 | X-H torsion
[ 10718 10713 10712 10709 ] final   29.93 input   66.30 | X-H torsion
[ 10763 10752 10751 10750 ] final   43.21 input  -60.55 | X-H torsion
[ 11005 11000 10999 10996 ] final   24.88 input  -57.11 | X-H torsion

> <Gold.Protein.ActiveResidues>
 VAL166  LYS551  ARG553  GLY616  TRP617  ASP618  TYR619  PRO620  LYS621  CYS622 
 ASP623  PHE694  ASN695  SER759  ASP760  ASP761  ALA762  ILE779  LEU786  VAL792 
 PHE793  MET794  SER795  GLU796  ALA797  LYS798  CYS799  TRP800  GLU811  SER814 

> <Gold.Protein.RotatedAtoms>
  151.8985  133.3532  159.3822 H   0  0  0  0  0  0  0  0  0  0  0  0  # atno 6907 bound_to 6896
  150.7086  134.4852  159.5498 H   0  0  0  0  0  0  0  0  0  0  0  0  # atno 6908 bound_to 6896
  152.2435  134.8204  160.0507 H   0  0  0  0  0  0  0  0  0  0  0  0  # atno 6909 bound_to 6896
  145.8903  140.8076  142.9795 H   0  0  0  0  0  0  0  0  0  0  0  0  # atno 7974 bound_to 7965
  154.8288  140.0441  157.1462 H   0  0  0  0  0  0  0  0  0  0  0  0  # atno 8008 bound_to 7997
  154.9176  140.3022  155.5213 H   0  0  0  0  0  0  0  0  0  0  0  0  # atno 8009 bound_to 7997
  156.2985  140.2346  156.4222 H   0  0  0  0  0  0  0  0  0  0  0  0  # atno 8010 bound_to 7997
  140.1545  144.4431  150.6742 H   0  0  0  0  0  0  0  0  0  0  0  0  # atno 10167 bound_to 10162
  157.2530  130.7124  149.6415 H   0  0  0  0  0  0  0  0  0  0  0  0  # atno 10718 bound_to 10713
  152.9865  135.6108  154.3074 H   0  0  0  0  0  0  0  0  0  0  0  0  # atno 10763 bound_to 10752
  154.2792  135.2777  155.2706 H   0  0  0  0  0  0  0  0  0  0  0  0  # atno 10764 bound_to 10752
  154.5053  135.5855  153.6619 H   0  0  0  0  0  0  0  0  0  0  0  0  # atno 10765 bound_to 10752
  140.3539  134.2199  155.7677 H   0  0  0  0  0  0  0  0  0  0  0  0  # atno 11005 bound_to 11000
  144.6730  140.1519  143.7429 LP  0  0  0  0  0  0  0  0  0  0  0  0  # atno 17320 bound_to 7965
  145.8916  139.2379  143.1546 LP  0  0  0  0  0  0  0  0  0  0  0  0  # atno 17321 bound_to 7965
  140.6682  143.2275  151.5691 LP  0  0  0  0  0  0  0  0  0  0  0  0  # atno 17342 bound_to 10162
  139.5410  144.2648  152.1350 LP  0  0  0  0  0  0  0  0  0  0  0  0  # atno 17343 bound_to 10162
  155.9665  130.4421  150.5369 LP  0  0  0  0  0  0  0  0  0  0  0  0  # atno 17370 bound_to 10713
  157.3258  131.0690  151.1898 LP  0  0  0  0  0  0  0  0  0  0  0  0  # atno 17371 bound_to 10713
  141.2004  133.7988  157.0491 LP  0  0  0  0  0  0  0  0  0  0  0  0  # atno 17394 bound_to 11000
  140.0681  134.9718  157.1420 LP  0  0  0  0  0  0  0  0  0  0  0  0  # atno 17395 bound_to 11000

$$$$
