AV-unprocessed.smi:527|AV-procd|sdf|2825|dock8
  -GOLD-   2262023313D 1   1.00000     0.00000
 Structure written by MMmdl.
 43 44  0  0  0  0  0  0  0  0  2 V2000
  145.9563  130.1333  151.7089 C   0  0  0  0  0  0  0  0  0  0  0  0
  145.3284  131.5393  151.7370 C   0  0  2  0  0  0  0  0  0  0  0  0
  144.8463  131.9153  150.3216 C   0  0  0  0  0  0  0  0  0  0  0  0
  144.1779  133.2939  150.2942 C   0  0  0  0  0  0  0  0  0  0  0  0
  145.1354  134.3672  150.8191 C   0  0  0  0  0  0  0  0  0  0  0  0
  145.6310  134.0333  152.2395 C   0  0  2  0  0  0  0  0  0  0  0  0
  146.5787  135.0600  152.6706 N   0  0  0  0  0  0  0  0  0  0  0  0
  146.4210  135.8739  153.7250 C   0  0  0  0  0  0  0  0  0  0  0  0
  145.5836  135.6845  154.6097 O   0  0  0  0  0  0  0  0  0  0  0  0
  147.2914  136.9007  153.6740 N   0  0  0  0  0  0  0  0  0  0  0  0
  147.2918  138.0178  154.4291 C   0  0  0  0  0  0  0  0  0  0  0  0
  146.4660  138.2772  155.3084 O   0  0  0  0  0  0  0  0  0  0  0  0
  148.4307  138.9989  154.1221 C   0  0  0  0  0  0  0  0  0  0  0  0
  148.0100  140.4051  154.1692 N   0  0  0  0  0  0  0  0  0  0  0  0
  146.9014  140.9614  153.5831 C   0  0  0  0  0  0  0  0  0  0  0  0
  146.9241  142.2970  153.8928 C   0  0  0  0  0  0  0  0  0  0  0  0
  148.0449  142.5000  154.6526 N   0  3  0  0  0  0  0  0  0  0  0  0
  148.7045  141.3488  154.8192 C   0  0  0  0  0  0  0  0  0  0  0  0
  146.2833  132.6253  152.3103 C   0  0  1  0  0  0  0  0  0  0  0  0
  146.7344  132.2965  153.7506 C   0  0  0  0  0  0  0  0  0  0  0  0
  146.8943  130.1286  151.1531 H   0  0  0  0  0  0  0  0  0  0  0  0
  145.2869  129.4164  151.2324 H   0  0  0  0  0  0  0  0  0  0  0  0
  146.1552  129.7552  152.7110 H   0  0  0  0  0  0  0  0  0  0  0  0
  144.4487  131.4902  152.3805 H   0  0  0  0  0  0  0  0  0  0  0  0
  145.6893  131.9067  149.6290 H   0  0  0  0  0  0  0  0  0  0  0  0
  144.1412  131.1681  149.9560 H   0  0  0  0  0  0  0  0  0  0  0  0
  143.8683  133.5374  149.2775 H   0  0  0  0  0  0  0  0  0  0  0  0
  143.2713  133.2781  150.9005 H   0  0  0  0  0  0  0  0  0  0  0  0
  145.9852  134.4560  150.1407 H   0  0  0  0  0  0  0  0  0  0  0  0
  144.6328  135.3353  150.8130 H   0  0  0  0  0  0  0  0  0  0  0  0
  144.7718  134.0356  152.9135 H   0  0  0  0  0  0  0  0  0  0  0  0
  147.4228  135.1486  152.1242 H   0  0  0  0  0  0  0  0  0  0  0  0
  148.0303  136.8234  152.9909 H   0  0  0  0  0  0  0  0  0  0  0  0
  149.2358  138.8640  154.8455 H   0  0  0  0  0  0  0  0  0  0  0  0
  148.8414  138.7949  153.1320 H   0  0  0  0  0  0  0  0  0  0  0  0
  146.1987  140.3816  153.0024 H   0  0  0  0  0  0  0  0  0  0  0  0
  146.2457  143.0969  153.6345 H   0  0  0  0  0  0  0  0  0  0  0  0
  149.6190  141.2105  155.3682 H   0  0  0  0  0  0  0  0  0  0  0  0
  147.1770  132.6419  151.6841 H   0  0  0  0  0  0  0  0  0  0  0  0
  145.8794  132.2119  154.4218 H   0  0  0  0  0  0  0  0  0  0  0  0
  147.3958  133.0620  154.1557 H   0  0  0  0  0  0  0  0  0  0  0  0
  147.2908  131.3614  153.7981 H   0  0  0  0  0  0  0  0  0  0  0  0
  148.3357  143.3919  155.0332 H   0  0  0  0  0  0  0  0  0  0  0  0
  1  2  1  0  0  0  0
  1 21  1  0  0  0  0
  1 22  1  0  0  0  0
  1 23  1  0  0  0  0
  2 19  1  0  0  0  0
  2  3  1  0  0  0  0
  2 24  1  0  0  0  0
  3  4  1  0  0  0  0
  3 25  1  0  0  0  0
  3 26  1  0  0  0  0
  4  5  1  0  0  0  0
  4 27  1  0  0  0  0
  4 28  1  0  0  0  0
  5  6  1  0  0  0  0
  5 29  1  0  0  0  0
  5 30  1  0  0  0  0
  6  7  1  0  0  0  0
  6 19  1  0  0  0  0
  6 31  1  0  0  0  0
  7  8  1  0  0  0  0
  7 32  1  0  0  0  0
  8  9  2  0  0  0  0
  8 10  1  0  0  0  0
 10 11  1  0  0  0  0
 10 33  1  0  0  0  0
 11 12  2  0  0  0  0
 11 13  1  0  0  0  0
 13 14  1  0  0  0  0
 13 34  1  0  0  0  0
 13 35  1  0  0  0  0
 14 18  1  0  0  0  0
 14 15  1  0  0  0  0
 15 16  2  0  0  0  0
 15 36  1  0  0  0  0
 16 17  1  0  0  0  0
 16 37  1  0  0  0  0
 17 18  2  0  0  0  0
 17 43  1  0  0  0  0
 18 38  1  0  0  0  0
 19 20  1  0  0  0  0
 19 39  1  0  0  0  0
 20 40  1  0  0  0  0
 20 41  1  0  0  0  0
 20 42  1  0  0  0  0
M  CHG  1  17   1
M  END
> <s_m_source_file>
AV-unprocessed.smi

> <i_m_source_file_index>
527

> <i_lp_mmshare_version>
43012

> <i_f3d_flags>
0

> <s_epik_input>
W0NIM11bQ0BASF0xW0NIMl1bQ0gyXVtDSDJdW0NASF0oW0NASF0xW0NIM10pW05IXUMoPU8pW05IXUMoPU8pW0NIMl1uMltjSF1bY0hdbltjSF0y

> <s_epik_cmdline>
J2VwaWtfcHl0aG9uJywgJy1waCcsICc3LjAnLCAnLXRuJywgJzgnLCAnLW1hJywgJzIwMCcsICctbWV0YWxfYmluZGluZycsICctaW1hZScsICc8aW5maWxlLm1hZT4nLCAnLW9tYWUnLCAnPG91dGZpbGUubWFlPic=

> <r_lp_tautomer_probability>
1

> <r_epik_Ionization_Penalty>
0.816441

> <r_epik_Ionization_Penalty_Charging>
0

> <r_epik_Ionization_Penalty_Neutral>
0.816441

> <r_epik_State_Penalty>
0.849034

> <r_epik_Charging_Adjusted_Penalty>
0.849034

> <i_epik_Tot_Q>
1

> <i_epik_Tot_abs_Q>
1

> <r_epik_Metal_State_Penalty>
0.984327

> <b_epik_Metal_Only>
0

> <s_lp_Force_Field>
OPLS_2005

> <r_lp_Energy>
16.8338

> <b_lp_Chiralities_Consistent>
1

> <s_lp_Variant>
AV-unprocessed.smi:527-11

> <Gold.Version>
5.8.1

> <Gold.Id.Protein>
6NUR|6NUR_protein|mol2

> <Gold.PLP.Fitness>
47.6036

> <Gold.PLP.PLP>
-33.9267

> <Gold.PLP.part.hbond>
-2.9933

> <Gold.PLP.part.metal>
0.0000

> <Gold.PLP.part.buried>
-6.2072

> <Gold.PLP.part.nonpolar>
-26.2063

> <Gold.PLP.part.repulsive>
0.2731

> <Gold.PLP.ligand.clash>
0.0000

> <Gold.PLP.ligand.torsion>
0.5141

> <Gold.PLP.Chemscore.Hbond>
3.8960

> <Gold.PLP.Chemscore.CHOScore>
1.0000

> <Gold.PLP.Chemscore.Metal>
0.0000

> <Gold.Chemscore.Hbonds>
donor molecule, donor type, donor heavy atom, donor atom, acceptor molecule, acceptor atom, score
      L1  H     7    32       P1  7948  0.90
      L1  H    10    33       P1  7948  1.00
      L1  H    17    43       P1  8028  2.00
      L1  C    15    36       P1 10175  0.91

> <Gold.PLP.Chemscore.Internal.Correction>
0.0171

> <Gold.Rescore>
     Score         DG    S(hbond)    S(metal)    S(lipo)     H(rot)  DE(clash)    DE(int)     intcor
     17.95     -19.72       2.88        0.00      76.96       1.71       0.05       1.73       ----

> <Gold.Chemscore.Fitness>
17.9451

> <Gold.Chemscore.DG>
-19.7235

> <Gold.Chemscore.ZeroCoef>
-5.4800

> <Gold.Chemscore.Hbond>
2.8756

> <Gold.Chemscore.Metal>
0.0000

> <Gold.Chemscore.Lipo>
76.9601

> <Gold.Chemscore.Internal_Hbond>
0.0000

> <Gold.Chemscore.DEClash>
0.0469

> <Gold.Chemscore.DEInternal>
1.7315

> <Gold.Chemscore.Rot>
1.7052

> <Gold.Chemscore.Internal.Correction>
   9.000000E+99

> <Gold.Chemscore.Hbonds>
donor molecule, donor type, donor heavy atom, donor atom, acceptor molecule, acceptor atom, score
      L1  H     7    32       P1  7948  0.87
      L1  H    10    33       P1  7948  0.97
      L1  H    17    43       P1  8028  0.93

> <Gold.Chemscore.Hbond.Weighted>
-9.6044

> <Gold.Chemscore.Metal.Weighted>
-0.0000

> <Gold.Chemscore.Lipo.Weighted>
-9.0043

> <Gold.Chemscore.Internal_Hbond.Weighted>
0.0000

> <Gold.Chemscore.DEClash.Weighted>
0.0469

> <Gold.Chemscore.DEInternal.Weighted>
1.7315

> <Gold.Chemscore.Rot.Weighted>
4.3653

> <Gold.Chemscore.Internal.Correction.Weighted>
   9.000000E+99

> <Gold.Protein.RotatedTorsions>
[ 6907 6896 6895 6894 ] final -101.18 input  -60.11 | X-H torsion
[ 7974 7965 7964 7962 ] final  -40.17 input  175.53 | X-H torsion
[ 8008 7997 7996 7995 ] final  159.16 input   59.86 | X-H torsion
[ 10167 10162 10161 10158 ] final  146.68 input  -65.29 | X-H torsion
[ 10718 10713 10712 10709 ] final -144.98 input   66.30 | X-H torsion
[ 10763 10752 10751 10750 ] final   -1.78 input  -60.55 | X-H torsion
[ 11005 11000 10999 10996 ] final -177.03 input  -57.11 | X-H torsion

> <Gold.Protein.ActiveResidues>
 VAL166  LYS551  ARG553  GLY616  TRP617  ASP618  TYR619  PRO620  LYS621  CYS622 
 ASP623  PHE694  ASN695  SER759  ASP760  ASP761  ALA762  ILE779  LEU786  VAL792 
 PHE793  MET794  SER795  GLU796  ALA797  LYS798  CYS799  TRP800  GLU811  SER814 

> <Gold.Protein.RotatedAtoms>
  150.7144  134.0773  159.3885 H   0  0  0  0  0  0  0  0  0  0  0  0  # atno 6907 bound_to 6896
  151.8757  135.0470  160.0493 H   0  0  0  0  0  0  0  0  0  0  0  0  # atno 6908 bound_to 6896
  152.2608  133.5260  159.5417 H   0  0  0  0  0  0  0  0  0  0  0  0  # atno 6909 bound_to 6896
  146.0329  140.6708  142.9124 H   0  0  0  0  0  0  0  0  0  0  0  0  # atno 7974 bound_to 7965
  156.2257  140.1839  156.7369 H   0  0  0  0  0  0  0  0  0  0  0  0  # atno 8008 bound_to 7997
  154.5937  140.0647  156.9302 H   0  0  0  0  0  0  0  0  0  0  0  0  # atno 8009 bound_to 7997
  155.2292  140.3313  155.4308 H   0  0  0  0  0  0  0  0  0  0  0  0  # atno 8010 bound_to 7997
  139.4903  144.5812  151.6868 H   0  0  0  0  0  0  0  0  0  0  0  0  # atno 10167 bound_to 10162
  156.3768  130.7816  151.2004 H   0  0  0  0  0  0  0  0  0  0  0  0  # atno 10718 bound_to 10713
  153.3494  135.6985  153.6801 H   0  0  0  0  0  0  0  0  0  0  0  0  # atno 10763 bound_to 10752
  153.5534  135.3549  155.2770 H   0  0  0  0  0  0  0  0  0  0  0  0  # atno 10764 bound_to 10752
  154.8650  135.4232  154.2725 H   0  0  0  0  0  0  0  0  0  0  0  0  # atno 10765 bound_to 10752
  140.4455  134.6392  157.4777 H   0  0  0  0  0  0  0  0  0  0  0  0  # atno 11005 bound_to 11000
  144.7038  140.3768  143.7134 LP  0  0  0  0  0  0  0  0  0  0  0  0  # atno 17320 bound_to 7965
  145.7011  139.1661  143.2592 LP  0  0  0  0  0  0  0  0  0  0  0  0  # atno 17321 bound_to 7965
  140.5418  144.0567  150.6091 LP  0  0  0  0  0  0  0  0  0  0  0  0  # atno 17342 bound_to 10162
  140.3591  143.2918  152.0403 LP  0  0  0  0  0  0  0  0  0  0  0  0  # atno 17343 bound_to 10162
  157.7489  131.0356  150.4370 LP  0  0  0  0  0  0  0  0  0  0  0  0  # atno 17370 bound_to 10713
  156.4606  130.4031  149.6578 LP  0  0  0  0  0  0  0  0  0  0  0  0  # atno 17371 bound_to 10713
  140.0041  134.6790  155.9482 LP  0  0  0  0  0  0  0  0  0  0  0  0  # atno 17394 bound_to 11000
  141.1687  133.6537  156.4573 LP  0  0  0  0  0  0  0  0  0  0  0  0  # atno 17395 bound_to 11000

$$$$
