AV-unprocessed.smi:3292|AV-procd|sdf|12624|dock6
  -GOLD-   2272018553D 1   1.00000     0.00000
 Structure written by MMmdl.
 39 40  0  0  0  0  0  0  0  0  2 V2000
  146.1129  142.6474  153.9626 C   0  0  0  0  0  0  0  0  0  0  0  0
  147.0629  141.5548  154.4795 C   0  0  1  0  0  0  0  0  0  0  0  0
  147.6300  140.6625  153.3539 C   0  0  0  0  0  0  0  0  0  0  0  0
  146.8318  139.4539  153.1300 N   0  0  0  0  0  0  0  0  0  0  0  0
  146.7993  138.6835  151.9962 C   0  0  0  0  0  0  0  0  0  0  0  0
  145.9133  137.6661  152.2403 C   0  0  0  0  0  0  0  0  0  0  0  0
  145.4399  137.8606  153.5104 N   0  3  0  0  0  0  0  0  0  0  0  0
  145.9974  138.9502  154.0488 C   0  0  0  0  0  0  0  0  0  0  0  0
  148.1534  142.1771  155.2248 N   0  0  0  0  0  0  0  0  0  0  0  0
  149.1481  141.5123  155.8301 C   0  0  0  0  0  0  0  0  0  0  0  0
  149.2536  140.2855  155.8319 O   0  0  0  0  0  0  0  0  0  0  0  0
  150.0183  142.3442  156.4193 N   0  0  0  0  0  0  0  0  0  0  0  0
  151.2204  141.9360  157.1394 C   0  0  0  0  0  0  0  0  0  0  0  0
  151.4002  142.7245  158.4507 C   0  0  1  0  0  0  0  0  0  0  0  0
  152.5339  142.2174  159.3178 C   0  0  0  0  0  0  0  0  0  0  0  0
  152.7697  143.3992  160.2537 C   0  0  0  0  0  0  0  0  0  0  0  0
  152.4346  144.5630  159.5034 O   0  0  0  0  0  0  0  0  0  0  0  0
  151.8023  144.1915  158.2826 C   0  0  0  0  0  0  0  0  0  0  0  0
  145.2356  142.2183  153.4783 H   0  0  0  0  0  0  0  0  0  0  0  0
  146.6094  143.2958  153.2401 H   0  0  0  0  0  0  0  0  0  0  0  0
  145.7549  143.2736  154.7803 H   0  0  0  0  0  0  0  0  0  0  0  0
  146.4921  140.9274  155.1670 H   0  0  0  0  0  0  0  0  0  0  0  0
  147.6898  141.2165  152.4156 H   0  0  0  0  0  0  0  0  0  0  0  0
  148.6438  140.3370  153.5922 H   0  0  0  0  0  0  0  0  0  0  0  0
  147.3952  138.9112  151.1238 H   0  0  0  0  0  0  0  0  0  0  0  0
  145.5917  136.8412  151.6213 H   0  0  0  0  0  0  0  0  0  0  0  0
  145.8121  139.3425  155.0331 H   0  0  0  0  0  0  0  0  0  0  0  0
  148.1526  143.1853  155.2792 H   0  0  0  0  0  0  0  0  0  0  0  0
  149.8415  143.3366  156.3601 H   0  0  0  0  0  0  0  0  0  0  0  0
  151.1233  140.8740  157.3658 H   0  0  0  0  0  0  0  0  0  0  0  0
  152.1044  142.0322  156.5063 H   0  0  0  0  0  0  0  0  0  0  0  0
  150.4768  142.6782  159.0308 H   0  0  0  0  0  0  0  0  0  0  0  0
  152.2889  141.2978  159.8501 H   0  0  0  0  0  0  0  0  0  0  0  0
  153.4243  142.0361  158.7140 H   0  0  0  0  0  0  0  0  0  0  0  0
  152.1039  143.3405  161.1155 H   0  0  0  0  0  0  0  0  0  0  0  0
  153.7954  143.4419  160.6204 H   0  0  0  0  0  0  0  0  0  0  0  0
  152.5269  144.3034  157.4750 H   0  0  0  0  0  0  0  0  0  0  0  0
  150.9510  144.8368  158.0651 H   0  0  0  0  0  0  0  0  0  0  0  0
  144.7646  137.2679  153.9767 H   0  0  0  0  0  0  0  0  0  0  0  0
  1  2  1  0  0  0  0
  1 19  1  0  0  0  0
  1 20  1  0  0  0  0
  1 21  1  0  0  0  0
  2  3  1  0  0  0  0
  2  9  1  0  0  0  0
  2 22  1  0  0  0  0
  3  4  1  0  0  0  0
  3 23  1  0  0  0  0
  3 24  1  0  0  0  0
  4  8  1  0  0  0  0
  4  5  1  0  0  0  0
  5  6  2  0  0  0  0
  5 25  1  0  0  0  0
  6  7  1  0  0  0  0
  6 26  1  0  0  0  0
  7  8  2  0  0  0  0
  7 39  1  0  0  0  0
  8 27  1  0  0  0  0
  9 10  1  0  0  0  0
  9 28  1  0  0  0  0
 10 11  2  0  0  0  0
 10 12  1  0  0  0  0
 12 13  1  0  0  0  0
 12 29  1  0  0  0  0
 13 14  1  0  0  0  0
 13 30  1  0  0  0  0
 13 31  1  0  0  0  0
 14 18  1  0  0  0  0
 14 15  1  0  0  0  0
 14 32  1  0  0  0  0
 15 16  1  0  0  0  0
 15 33  1  0  0  0  0
 15 34  1  0  0  0  0
 16 17  1  0  0  0  0
 16 35  1  0  0  0  0
 16 36  1  0  0  0  0
 17 18  1  0  0  0  0
 18 37  1  0  0  0  0
 18 38  1  0  0  0  0
M  CHG  1   7   1
M  END
> <s_m_source_file>
AV-unprocessed.smi

> <i_m_source_file_index>
3292

> <i_lp_mmshare_version>
43012

> <i_f3d_flags>
0

> <s_epik_input>
W2NIXTFuW2NIXVtjSF1uMVtDSDJdW0NAQEhdKFtDSDNdKVtOSF1DKD1PKVtOSF1bQ0gyXVtDQEBIXTJbQ0gyXVtDSDJdT1tDSDJdMg==

> <s_epik_cmdline>
J2VwaWtfcHl0aG9uJywgJy1waCcsICc3LjAnLCAnLXRuJywgJzgnLCAnLW1hJywgJzIwMCcsICctbWV0YWxfYmluZGluZycsICctaW1hZScsICc8aW5maWxlLm1hZT4nLCAnLW9tYWUnLCAnPG91dGZpbGUubWFlPic=

> <r_lp_tautomer_probability>
1

> <r_epik_Ionization_Penalty>
0.255703

> <r_epik_Ionization_Penalty_Charging>
0

> <r_epik_Ionization_Penalty_Neutral>
0.255703

> <r_epik_State_Penalty>
0.247169

> <r_epik_Charging_Adjusted_Penalty>
0.247169

> <i_epik_Tot_Q>
1

> <i_epik_Tot_abs_Q>
1

> <r_epik_Metal_State_Penalty>
0.536791

> <b_epik_Metal_Only>
0

> <s_lp_Force_Field>
OPLS_2005

> <r_lp_Energy>
19.2817

> <b_lp_Chiralities_Consistent>
1

> <s_lp_Variant>
AV-unprocessed.smi:3292-4

> <Gold.Version>
5.8.1

> <Gold.Id.Protein>
6NUR|6NUR_protein|mol2

> <Gold.PLP.Fitness>
44.2175

> <Gold.PLP.PLP>
-37.2715

> <Gold.PLP.part.hbond>
-2.0098

> <Gold.PLP.part.metal>
0.0000

> <Gold.PLP.part.buried>
-2.2867

> <Gold.PLP.part.nonpolar>
-33.8256

> <Gold.PLP.part.repulsive>
0.2718

> <Gold.PLP.ligand.clash>
0.0000

> <Gold.PLP.ligand.torsion>
0.9283

> <Gold.PLP.Chemscore.Hbond>
2.0000

> <Gold.PLP.Chemscore.CHOScore>
0.9044

> <Gold.PLP.Chemscore.Metal>
0.0000

> <Gold.Chemscore.Hbonds>
donor molecule, donor type, donor heavy atom, donor atom, acceptor molecule, acceptor atom, score
      L1  H     9    28       P1  8028  1.00
      L1  H    12    29       P1  8028  1.00
      L1  C     5    25       P1  7957  0.93

> <Gold.PLP.Chemscore.Internal.Correction>
0.0894

> <Gold.Rescore>
     Score         DG    S(hbond)    S(metal)    S(lipo)     H(rot)  DE(clash)    DE(int)     intcor
     15.61     -16.90       1.87        0.00      93.02       2.24       0.23       1.05       ----

> <Gold.Chemscore.Fitness>
15.6118

> <Gold.Chemscore.DG>
-16.8964

> <Gold.Chemscore.ZeroCoef>
-5.4800

> <Gold.Chemscore.Hbond>
1.8738

> <Gold.Chemscore.Metal>
0.0000

> <Gold.Chemscore.Lipo>
93.0242

> <Gold.Chemscore.Internal_Hbond>
0.0000

> <Gold.Chemscore.DEClash>
0.2320

> <Gold.Chemscore.DEInternal>
1.0526

> <Gold.Chemscore.Rot>
2.2367

> <Gold.Chemscore.Internal.Correction>
   9.000000E+99

> <Gold.Chemscore.Hbonds>
donor molecule, donor type, donor heavy atom, donor atom, acceptor molecule, acceptor atom, score
      L1  H     9    28       P1  8028  0.91
      L1  H    12    29       P1  8028  0.94

> <Gold.Chemscore.Hbond.Weighted>
-6.2584

> <Gold.Chemscore.Metal.Weighted>
-0.0000

> <Gold.Chemscore.Lipo.Weighted>
-10.8838

> <Gold.Chemscore.Internal_Hbond.Weighted>
0.0000

> <Gold.Chemscore.DEClash.Weighted>
0.2320

> <Gold.Chemscore.DEInternal.Weighted>
1.0526

> <Gold.Chemscore.Rot.Weighted>
5.7259

> <Gold.Chemscore.Internal.Correction.Weighted>
   9.000000E+99

> <Gold.Protein.RotatedTorsions>
[ 6907 6896 6895 6894 ] final  -42.88 input  -60.11 | X-H torsion
[ 7974 7965 7964 7962 ] final   65.69 input  175.53 | X-H torsion
[ 8008 7997 7996 7995 ] final -176.47 input   59.86 | X-H torsion
[ 10167 10162 10161 10158 ] final   20.60 input  -65.29 | X-H torsion
[ 10718 10713 10712 10709 ] final   53.92 input   66.30 | X-H torsion
[ 10763 10752 10751 10750 ] final -123.54 input  -60.55 | X-H torsion
[ 11005 11000 10999 10996 ] final -138.49 input  -57.11 | X-H torsion

> <Gold.Protein.ActiveResidues>
 VAL166  LYS551  ARG553  GLY616  TRP617  ASP618  TYR619  PRO620  LYS621  CYS622 
 ASP623  PHE694  ASN695  SER759  ASP760  ASP761  ALA762  ILE779  LEU786  VAL792 
 PHE793  MET794  SER795  GLU796  ALA797  LYS798  CYS799  TRP800  GLU811  SER814 

> <Gold.Protein.RotatedAtoms>
  150.9503  134.8903  159.7667 H   0  0  0  0  0  0  0  0  0  0  0  0  # atno 6907 bound_to 6896
  152.5116  134.3816  159.9363 H   0  0  0  0  0  0  0  0  0  0  0  0  # atno 6908 bound_to 6896
  151.3833  133.3773  159.2747 H   0  0  0  0  0  0  0  0  0  0  0  0  # atno 6909 bound_to 6896
  145.8355  139.3164  143.0962 H   0  0  0  0  0  0  0  0  0  0  0  0  # atno 7974 bound_to 7965
  155.9952  140.1209  157.0600 H   0  0  0  0  0  0  0  0  0  0  0  0  # atno 8008 bound_to 7997
  154.4224  140.1118  156.5689 H   0  0  0  0  0  0  0  0  0  0  0  0  # atno 8009 bound_to 7997
  155.6288  140.3473  155.4678 H   0  0  0  0  0  0  0  0  0  0  0  0  # atno 8010 bound_to 7997
  140.5491  143.9541  150.6567 H   0  0  0  0  0  0  0  0  0  0  0  0  # atno 10167 bound_to 10162
  157.5210  130.8565  149.8559 H   0  0  0  0  0  0  0  0  0  0  0  0  # atno 10718 bound_to 10713
  154.8709  135.4094  154.2960 H   0  0  0  0  0  0  0  0  0  0  0  0  # atno 10763 bound_to 10752
  153.3828  135.7012  153.6558 H   0  0  0  0  0  0  0  0  0  0  0  0  # atno 10764 bound_to 10752
  153.5373  135.3655  155.2674 H   0  0  0  0  0  0  0  0  0  0  0  0  # atno 10765 bound_to 10752
  140.8611  134.2168  157.4707 H   0  0  0  0  0  0  0  0  0  0  0  0  # atno 11005 bound_to 11000
  145.9523  140.8899  143.0252 LP  0  0  0  0  0  0  0  0  0  0  0  0  # atno 17320 bound_to 7965
  144.6737  140.1698  143.7415 LP  0  0  0  0  0  0  0  0  0  0  0  0  # atno 17321 bound_to 7965
  140.2962  143.3291  152.1015 LP  0  0  0  0  0  0  0  0  0  0  0  0  # atno 17342 bound_to 10162
  139.5020  144.6725  151.6208 LP  0  0  0  0  0  0  0  0  0  0  0  0  # atno 17343 bound_to 10162
  156.0354  130.3753  150.1576 LP  0  0  0  0  0  0  0  0  0  0  0  0  # atno 17370 bound_to 10713
  156.9763  130.9850  151.3447 LP  0  0  0  0  0  0  0  0  0  0  0  0  # atno 17371 bound_to 10713
  139.8707  134.9730  156.4792 LP  0  0  0  0  0  0  0  0  0  0  0  0  # atno 17394 bound_to 11000
  140.8682  133.8008  155.9336 LP  0  0  0  0  0  0  0  0  0  0  0  0  # atno 17395 bound_to 11000

$$$$
