AV-unprocessed.smi:480|AV-procd|sdf|2678|dock4
  -GOLD-   2262023103D 1   1.00000     0.00000
 Structure written by MMmdl.
 47 49  0  0  0  0  0  0  0  0  2 V2000
  150.4352  140.1365  154.7420 C   0  0  0  0  0  0  0  0  0  0  0  0
  149.6382  141.1097  155.6215 C   0  0  0  0  0  0  0  0  0  0  0  0
  150.4301  141.6179  156.7876 C   0  0  0  0  0  0  0  0  0  0  0  0
  150.5835  142.9260  157.1431 N   0  3  0  0  0  0  0  0  0  0  0  0
  151.3987  143.0206  158.2707 C   0  0  0  0  0  0  0  0  0  0  0  0
  151.8218  144.1277  158.9995 C   0  0  0  0  0  0  0  0  0  0  0  0
  152.6593  143.8742  160.1056 C   0  0  0  0  0  0  0  0  0  0  0  0
  153.0463  142.5622  160.4482 C   0  0  0  0  0  0  0  0  0  0  0  0
  152.6115  141.4480  159.7005 C   0  0  0  0  0  0  0  0  0  0  0  0
  151.7806  141.7076  158.6111 C   0  0  0  0  0  0  0  0  0  0  0  0
  151.1625  140.8757  157.6712 N   0  0  0  0  0  0  0  0  0  0  0  0
  151.3623  139.4207  157.7724 C   0  0  0  0  0  0  0  0  0  0  0  0
  152.8460  139.0069  157.9090 C   0  0  2  0  0  0  0  0  0  0  0  0
  153.4510  139.1195  156.6385 O   0  0  0  0  0  0  0  0  0  0  0  0
  153.0664  137.5776  158.4381 C   0  0  0  0  0  0  0  0  0  0  0  0
  152.8557  137.5706  159.8446 O   0  0  0  0  0  0  0  0  0  0  0  0
  153.5256  136.6372  160.6024 C   0  0  0  0  0  0  0  0  0  0  0  0
  153.3540  136.7071  161.9998 C   0  0  0  0  0  0  0  0  0  0  0  0
  153.9881  135.7814  162.8498 C   0  0  0  0  0  0  0  0  0  0  0  0
  154.8116  134.7751  162.3083 C   0  0  0  0  0  0  0  0  0  0  0  0
  155.4960  133.7807  163.2233 C   0  0  0  0  0  0  0  0  0  0  0  0
  154.5355  132.8734  163.8699 C   0  0  0  0  0  0  0  0  0  0  0  0
  153.7798  132.1604  164.3790 N   0  0  0  0  0  0  0  0  0  0  0  0
  154.9985  134.7032  160.9136 C   0  0  0  0  0  0  0  0  0  0  0  0
  154.3618  135.6282  160.0637 C   0  0  0  0  0  0  0  0  0  0  0  0
  149.8361  139.8056  153.8936 H   0  0  0  0  0  0  0  0  0  0  0  0
  150.7361  139.2480  155.2977 H   0  0  0  0  0  0  0  0  0  0  0  0
  151.3352  140.6076  154.3463 H   0  0  0  0  0  0  0  0  0  0  0  0
  149.3087  141.9498  155.0113 H   0  0  0  0  0  0  0  0  0  0  0  0
  148.7388  140.6216  155.9972 H   0  0  0  0  0  0  0  0  0  0  0  0
  151.5276  145.1336  158.7381 H   0  0  0  0  0  0  0  0  0  0  0  0
  153.0130  144.7026  160.7022 H   0  0  0  0  0  0  0  0  0  0  0  0
  153.6895  142.4065  161.3022 H   0  0  0  0  0  0  0  0  0  0  0  0
  152.9127  140.4468  159.9708 H   0  0  0  0  0  0  0  0  0  0  0  0
  150.7940  139.0710  158.6346 H   0  0  0  0  0  0  0  0  0  0  0  0
  150.9060  138.9491  156.9008 H   0  0  0  0  0  0  0  0  0  0  0  0
  153.3629  139.7058  158.5672 H   0  0  0  0  0  0  0  0  0  0  0  0
  153.3784  138.2878  156.1954 H   0  0  0  0  0  0  0  0  0  0  0  0
  152.3970  136.8890  157.9206 H   0  0  0  0  0  0  0  0  0  0  0  0
  154.0911  137.2561  158.2445 H   0  0  0  0  0  0  0  0  0  0  0  0
  152.7218  137.4737  162.4236 H   0  0  0  0  0  0  0  0  0  0  0  0
  153.8432  135.8460  163.9183 H   0  0  0  0  0  0  0  0  0  0  0  0
  156.2068  133.1815  162.6535 H   0  0  0  0  0  0  0  0  0  0  0  0
  156.0550  134.3021  164.0009 H   0  0  0  0  0  0  0  0  0  0  0  0
  155.6336  133.9386  160.4905 H   0  0  0  0  0  0  0  0  0  0  0  0
  154.5335  135.5472  159.0010 H   0  0  0  0  0  0  0  0  0  0  0  0
  150.1524  143.6968  156.6493 H   0  0  0  0  0  0  0  0  0  0  0  0
  1  2  1  0  0  0  0
  1 26  1  0  0  0  0
  1 27  1  0  0  0  0
  1 28  1  0  0  0  0
  2  3  1  0  0  0  0
  2 29  1  0  0  0  0
  2 30  1  0  0  0  0
  3 11  1  0  0  0  0
  3  4  2  0  0  0  0
  4  5  1  0  0  0  0
  4 47  1  0  0  0  0
  5 10  2  0  0  0  0
  5  6  1  0  0  0  0
  6  7  2  0  0  0  0
  6 31  1  0  0  0  0
  7  8  1  0  0  0  0
  7 32  1  0  0  0  0
  8  9  2  0  0  0  0
  8 33  1  0  0  0  0
  9 10  1  0  0  0  0
  9 34  1  0  0  0  0
 10 11  1  0  0  0  0
 11 12  1  0  0  0  0
 12 13  1  0  0  0  0
 12 35  1  0  0  0  0
 12 36  1  0  0  0  0
 13 14  1  0  0  0  0
 13 15  1  0  0  0  0
 13 37  1  0  0  0  0
 14 38  1  0  0  0  0
 15 16  1  0  0  0  0
 15 39  1  0  0  0  0
 15 40  1  0  0  0  0
 16 17  1  0  0  0  0
 17 25  1  0  0  0  0
 17 18  2  0  0  0  0
 18 19  1  0  0  0  0
 18 41  1  0  0  0  0
 19 20  2  0  0  0  0
 19 42  1  0  0  0  0
 20 21  1  0  0  0  0
 20 24  1  0  0  0  0
 21 22  1  0  0  0  0
 21 43  1  0  0  0  0
 21 44  1  0  0  0  0
 22 23  3  0  0  0  0
 24 25  2  0  0  0  0
 24 45  1  0  0  0  0
 25 46  1  0  0  0  0
M  CHG  1   4   1
M  END
> <s_m_source_file>
AV-unprocessed.smi

> <i_m_source_file_index>
480

> <i_lp_mmshare_version>
43012

> <i_f3d_flags>
0

> <s_epik_input>
W2NIXTFbY0hdW2NIXVtjSF1jKGMxMiluKGMobjIpW0NIMl1bQ0gzXSlbQ0gyXVtDQEhdKFtPSF0pW0NIMl1PYzNbY0hdW2NIXWMoW0NIMl1DI04pW2NIXVtjSF0z

> <s_epik_cmdline>
J2VwaWtfcHl0aG9uJywgJy1waCcsICc3LjAnLCAnLXRuJywgJzgnLCAnLW1hJywgJzIwMCcsICctbWV0YWxfYmluZGluZycsICctaW1hZScsICc8aW5maWxlLm1hZT4nLCAnLW9tYWUnLCAnPG91dGZpbGUubWFlPic=

> <r_lp_tautomer_probability>
1

> <r_epik_Ionization_Penalty>
1.03158

> <r_epik_Ionization_Penalty_Charging>
1.03158

> <r_epik_Ionization_Penalty_Neutral>
2.3994e-06

> <r_epik_State_Penalty>
1.08278

> <r_epik_Charging_Adjusted_Penalty>
2.11436

> <i_epik_Tot_Q>
1

> <i_epik_Tot_abs_Q>
1

> <r_epik_Metal_State_Penalty>
5.07177

> <b_epik_Metal_Only>
0

> <s_lp_Force_Field>
OPLS_2005

> <r_lp_Energy>
18.4444

> <b_lp_Chiralities_Consistent>
1

> <s_lp_Variant>
AV-unprocessed.smi:480-3

> <Gold.Version>
5.8.1

> <Gold.Id.Protein>
6NUR|6NUR_protein|mol2

> <Gold.PLP.Fitness>
58.1294

> <Gold.PLP.PLP>
-50.4445

> <Gold.PLP.part.hbond>
-1.7802

> <Gold.PLP.part.metal>
0.0000

> <Gold.PLP.part.buried>
-5.7408

> <Gold.PLP.part.nonpolar>
-43.3540

> <Gold.PLP.part.repulsive>
0.1796

> <Gold.PLP.ligand.clash>
0.0000

> <Gold.PLP.ligand.torsion>
0.7391

> <Gold.PLP.Chemscore.Hbond>
3.0000

> <Gold.PLP.Chemscore.CHOScore>
0.0000

> <Gold.PLP.Chemscore.Metal>
0.0000

> <Gold.Chemscore.Hbonds>
donor molecule, donor type, donor heavy atom, donor atom, acceptor molecule, acceptor atom, score
      L1  H     4    47       P1  8028  2.00
      P1  H  7997  8010       L1    14  0.50

> <Gold.PLP.Chemscore.Internal.Correction>
0.1632

> <Gold.Rescore>
     Score         DG    S(hbond)    S(metal)    S(lipo)     H(rot)  DE(clash)    DE(int)     intcor
     20.24     -20.94       1.92        0.00     135.81       2.67       0.05       0.65       ----

> <Gold.Chemscore.Fitness>
20.2370

> <Gold.Chemscore.DG>
-20.9392

> <Gold.Chemscore.ZeroCoef>
-5.4800

> <Gold.Chemscore.Hbond>
1.9182

> <Gold.Chemscore.Metal>
0.0000

> <Gold.Chemscore.Lipo>
135.8136

> <Gold.Chemscore.Internal_Hbond>
0.0000

> <Gold.Chemscore.DEClash>
0.0476

> <Gold.Chemscore.DEInternal>
0.6546

> <Gold.Chemscore.Rot>
2.6710

> <Gold.Chemscore.Internal.Correction>
   9.000000E+99

> <Gold.Chemscore.Hbonds>
donor molecule, donor type, donor heavy atom, donor atom, acceptor molecule, acceptor atom, score
      L1  H     4    47       P1  8028  1.00
      P1  H  7997  8010       L1    14  0.47

> <Gold.Chemscore.Hbond.Weighted>
-6.4067

> <Gold.Chemscore.Metal.Weighted>
-0.0000

> <Gold.Chemscore.Lipo.Weighted>
-15.8902

> <Gold.Chemscore.Internal_Hbond.Weighted>
0.0000

> <Gold.Chemscore.DEClash.Weighted>
0.0476

> <Gold.Chemscore.DEInternal.Weighted>
0.6546

> <Gold.Chemscore.Rot.Weighted>
6.8377

> <Gold.Chemscore.Internal.Correction.Weighted>
   9.000000E+99

> <Gold.Protein.RotatedTorsions>
[ 6907 6896 6895 6894 ] final -163.41 input  -60.11 | X-H torsion
[ 7974 7965 7964 7962 ] final  -54.12 input  175.53 | X-H torsion
[ 8008 7997 7996 7995 ] final   71.05 input   59.86 | X-H torsion
[ 10167 10162 10161 10158 ] final -153.40 input  -65.29 | X-H torsion
[ 10718 10713 10712 10709 ] final  122.98 input   66.30 | X-H torsion
[ 10763 10752 10751 10750 ] final   72.73 input  -60.55 | X-H torsion
[ 11005 11000 10999 10996 ] final  166.81 input  -57.11 | X-H torsion

> <Gold.Protein.ActiveResidues>
 VAL166  LYS551  ARG553  GLY616  TRP617  ASP618  TYR619  PRO620  LYS621  CYS622 
 ASP623  PHE694  ASN695  SER759  ASP760  ASP761  ALA762  ILE779  LEU786  VAL792 
 PHE793  MET794  SER795  GLU796  ALA797  LYS798  CYS799  TRP800  GLU811  SER814 

> <Gold.Protein.RotatedAtoms>
  151.3956  133.3774  159.2725 H   0  0  0  0  0  0  0  0  0  0  0  0  # atno 6907 bound_to 6896
  150.9472  134.8877  159.7660 H   0  0  0  0  0  0  0  0  0  0  0  0  # atno 6908 bound_to 6896
  152.5096  134.3909  159.9436 H   0  0  0  0  0  0  0  0  0  0  0  0  # atno 6909 bound_to 6896
  145.8892  140.8084  142.9800 H   0  0  0  0  0  0  0  0  0  0  0  0  # atno 7974 bound_to 7965
  155.7481  140.3489  155.5137 H   0  0  0  0  0  0  0  0  0  0  0  0  # atno 8008 bound_to 7997
  155.9031  140.1037  157.1356 H   0  0  0  0  0  0  0  0  0  0  0  0  # atno 8009 bound_to 7997
  154.4046  140.1282  156.4448 H   0  0  0  0  0  0  0  0  0  0  0  0  # atno 8010 bound_to 7997
  139.7100  143.9124  152.2464 H   0  0  0  0  0  0  0  0  0  0  0  0  # atno 10167 bound_to 10162
  157.5701  131.1084  150.8383 H   0  0  0  0  0  0  0  0  0  0  0  0  # atno 10718 bound_to 10713
  153.0477  135.5089  154.7788 H   0  0  0  0  0  0  0  0  0  0  0  0  # atno 10763 bound_to 10752
  154.6675  135.2948  154.9788 H   0  0  0  0  0  0  0  0  0  0  0  0  # atno 10764 bound_to 10752
  154.0618  135.6690  153.4865 H   0  0  0  0  0  0  0  0  0  0  0  0  # atno 10765 bound_to 10752
  140.2702  134.7832  157.3669 H   0  0  0  0  0  0  0  0  0  0  0  0  # atno 11005 bound_to 11000
  144.6730  140.1503  143.7430 LP  0  0  0  0  0  0  0  0  0  0  0  0  # atno 17320 bound_to 7965
  145.8930  139.2386  143.1538 LP  0  0  0  0  0  0  0  0  0  0  0  0  # atno 17321 bound_to 7965
  139.8990  144.6922  150.8686 LP  0  0  0  0  0  0  0  0  0  0  0  0  # atno 17342 bound_to 10162
  140.7731  143.3528  151.1981 LP  0  0  0  0  0  0  0  0  0  0  0  0  # atno 17343 bound_to 10162
  156.8857  130.5195  149.5288 LP  0  0  0  0  0  0  0  0  0  0  0  0  # atno 17370 bound_to 10713
  156.0747  130.5771  150.9450 LP  0  0  0  0  0  0  0  0  0  0  0  0  # atno 17371 bound_to 10713
  140.1380  134.5009  155.8053 LP  0  0  0  0  0  0  0  0  0  0  0  0  # atno 17394 bound_to 11000
  141.2178  133.6814  156.7159 LP  0  0  0  0  0  0  0  0  0  0  0  0  # atno 17395 bound_to 11000

$$$$
