AV-unprocessed.smi:1222|AV-procd|sdf|5122|dock1
  -GOLD-   22720 4183D 1   1.00000     0.00000
 Structure written by MMmdl.
 36 38  0  0  0  0  0  0  0  0  1 V2000
  146.3919  132.3312  153.6109 O   0  0  0  0  0  0  0  0  0  0  0  0
  147.2081  132.0439  152.7345 C   0  0  0  0  0  0  0  0  0  0  0  0
  146.9442  131.9773  151.4180 N   0  0  0  0  0  0  0  0  0  0  0  0
  145.7109  132.2156  150.7567 C   0  0  0  0  0  0  0  0  0  0  0  0
  144.5692  132.5314  151.3794 N   0  0  0  0  0  0  0  0  0  0  0  0
  143.5143  132.7104  150.4811 C   0  0  0  0  0  0  0  0  0  0  0  0
  143.8731  132.5250  149.1689 C   0  0  0  0  0  0  0  0  0  0  0  0
  145.5603  132.1163  149.0085 S   0  0  0  0  0  0  0  0  0  0  0  0
  148.4935  131.7565  152.9862 N   0  0  0  0  0  0  0  0  0  0  0  0
  149.1076  131.7422  154.3105 C   0  0  0  0  0  0  0  0  0  0  0  0
  149.9132  133.0300  154.5593 C   0  0  0  0  0  0  0  0  0  0  0  0
  150.6840  132.9502  155.8881 C   0  0  0  0  0  0  0  0  0  0  0  0
  151.5857  131.7983  155.8800 N   0  0  0  0  0  0  0  0  0  0  0  0
  152.3347  131.7796  157.1259 C   0  0  0  0  0  0  0  0  0  0  0  0
  153.5197  132.7109  157.2433 C   0  0  0  0  0  0  0  0  0  0  0  0
  153.7408  131.2259  157.0879 C   0  0  0  0  0  0  0  0  0  0  0  0
  150.8102  130.5621  155.7741 C   0  0  0  0  0  0  0  0  0  0  0  0
  150.0424  130.5291  154.4407 C   0  0  0  0  0  0  0  0  0  0  0  0
  147.7165  131.7280  150.8181 H   0  0  0  0  0  0  0  0  0  0  0  0
  142.5380  132.9693  150.8633 H   0  0  0  0  0  0  0  0  0  0  0  0
  143.2494  132.6038  148.2910 H   0  0  0  0  0  0  0  0  0  0  0  0
  149.0928  131.5314  152.2057 H   0  0  0  0  0  0  0  0  0  0  0  0
  148.3266  131.6574  155.0688 H   0  0  0  0  0  0  0  0  0  0  0  0
  150.6174  133.1949  153.7423 H   0  0  0  0  0  0  0  0  0  0  0  0
  149.2489  133.8947  154.5740 H   0  0  0  0  0  0  0  0  0  0  0  0
  151.2619  133.8647  156.0264 H   0  0  0  0  0  0  0  0  0  0  0  0
  149.9891  132.8808  156.7268 H   0  0  0  0  0  0  0  0  0  0  0  0
  151.7920  131.6053  158.0536 H   0  0  0  0  0  0  0  0  0  0  0  0
  153.7560  133.3456  156.3909 H   0  0  0  0  0  0  0  0  0  0  0  0
  153.7162  133.1501  158.2192 H   0  0  0  0  0  0  0  0  0  0  0  0
  154.0871  130.6757  157.9603 H   0  0  0  0  0  0  0  0  0  0  0  0
  154.1252  130.8742  156.1321 H   0  0  0  0  0  0  0  0  0  0  0  0
  151.4822  129.7049  155.8272 H   0  0  0  0  0  0  0  0  0  0  0  0
  150.1170  130.4779  156.6128 H   0  0  0  0  0  0  0  0  0  0  0  0
  149.4680  129.6049  154.3698 H   0  0  0  0  0  0  0  0  0  0  0  0
  150.7557  130.5144  153.6151 H   0  0  0  0  0  0  0  0  0  0  0  0
  1  2  2  0  0  0  0
  2  3  1  0  0  0  0
  2  9  1  0  0  0  0
  3  4  1  0  0  0  0
  3 19  1  0  0  0  0
  4  8  1  0  0  0  0
  4  5  2  0  0  0  0
  5  6  1  0  0  0  0
  6  7  2  0  0  0  0
  6 20  1  0  0  0  0
  7  8  1  0  0  0  0
  7 21  1  0  0  0  0
  9 10  1  0  0  0  0
  9 22  1  0  0  0  0
 10 18  1  0  0  0  0
 10 11  1  0  0  0  0
 10 23  1  0  0  0  0
 11 12  1  0  0  0  0
 11 24  1  0  0  0  0
 11 25  1  0  0  0  0
 12 13  1  0  0  0  0
 12 26  1  0  0  0  0
 12 27  1  0  0  0  0
 13 14  1  0  0  0  0
 13 17  1  0  0  0  0
 14 16  1  0  0  0  0
 14 15  1  0  0  0  0
 14 28  1  0  0  0  0
 15 16  1  0  0  0  0
 15 29  1  0  0  0  0
 15 30  1  0  0  0  0
 16 31  1  0  0  0  0
 16 32  1  0  0  0  0
 17 18  1  0  0  0  0
 17 33  1  0  0  0  0
 17 34  1  0  0  0  0
 18 35  1  0  0  0  0
 18 36  1  0  0  0  0
M  END
> <s_m_source_file>
AV-unprocessed.smi

> <i_m_source_file_index>
1222

> <i_lp_mmshare_version>
43012

> <i_f3d_flags>
0

> <s_epik_input>
czFbY0hdW2NIXW5jMVtOSF1DKD1PKVtOSF1bQ0hdMltDSDJdW0NIMl1OKFtDSDJdW0NIMl0yKVtDSF0zW0NIMl1bQ0gyXTM=

> <s_epik_cmdline>
J2VwaWtfcHl0aG9uJywgJy1waCcsICc3LjAnLCAnLXRuJywgJzgnLCAnLW1hJywgJzIwMCcsICctbWV0YWxfYmluZGluZycsICctaW1hZScsICc8aW5maWxlLm1hZT4nLCAnLW9tYWUnLCAnPG91dGZpbGUubWFlPic=

> <r_lp_tautomer_probability>
0.999

> <r_epik_Ionization_Penalty>
0.985554

> <r_epik_Ionization_Penalty_Charging>
0

> <r_epik_Ionization_Penalty_Neutral>
0.985554

> <r_epik_State_Penalty>
1.03262

> <r_epik_Charging_Adjusted_Penalty>
1.03262

> <i_epik_Tot_Q>
0

> <i_epik_Tot_abs_Q>
0

> <r_epik_Metal_State_Penalty>
1.07929

> <b_epik_Metal_Only>
0

> <s_lp_Force_Field>
OPLS_2005

> <r_lp_Energy>
20.1195

> <b_lp_Chiralities_Consistent>
1

> <s_lp_Variant>
AV-unprocessed.smi:1222-3

> <Gold.Version>
5.8.1

> <Gold.Id.Protein>
6NUR|6NUR_protein|mol2

> <Gold.PLP.Fitness>
39.4420

> <Gold.PLP.PLP>
-32.0928

> <Gold.PLP.part.hbond>
-2.0000

> <Gold.PLP.part.metal>
0.0000

> <Gold.PLP.part.buried>
-2.8001

> <Gold.PLP.part.nonpolar>
-26.9553

> <Gold.PLP.part.repulsive>
0.2840

> <Gold.PLP.ligand.clash>
0.0000

> <Gold.PLP.ligand.torsion>
0.8487

> <Gold.PLP.Chemscore.Hbond>
1.8320

> <Gold.PLP.Chemscore.CHOScore>
0.7940

> <Gold.PLP.Chemscore.Metal>
0.0000

> <Gold.Chemscore.Hbonds>
donor molecule, donor type, donor heavy atom, donor atom, acceptor molecule, acceptor atom, score
      L1  H     3    19       P1 10747  1.00
      L1  H     9    22       P1 10747  0.83
      L1  C     6    20       P1 10186  0.83

> <Gold.PLP.Chemscore.Internal.Correction>
1.1686

> <Gold.Rescore>
     Score         DG    S(hbond)    S(metal)    S(lipo)     H(rot)  DE(clash)    DE(int)     intcor
     14.78     -17.17       1.77        0.00      76.60       1.25       0.29       2.11       ----

> <Gold.Chemscore.Fitness>
14.7765

> <Gold.Chemscore.DG>
-17.1724

> <Gold.Chemscore.ZeroCoef>
-5.4800

> <Gold.Chemscore.Hbond>
1.7716

> <Gold.Chemscore.Metal>
0.0000

> <Gold.Chemscore.Lipo>
76.6040

> <Gold.Chemscore.Internal_Hbond>
0.0000

> <Gold.Chemscore.DEClash>
0.2856

> <Gold.Chemscore.DEInternal>
2.1104

> <Gold.Chemscore.Rot>
1.2451

> <Gold.Chemscore.Internal.Correction>
   9.000000E+99

> <Gold.Chemscore.Hbonds>
donor molecule, donor type, donor heavy atom, donor atom, acceptor molecule, acceptor atom, score
      L1  H     3    19       P1 10747  0.99
      L1  H     9    22       P1 10747  0.47

> <Gold.Chemscore.Hbond.Weighted>
-5.9171

> <Gold.Chemscore.Metal.Weighted>
-0.0000

> <Gold.Chemscore.Lipo.Weighted>
-8.9627

> <Gold.Chemscore.Internal_Hbond.Weighted>
0.0000

> <Gold.Chemscore.DEClash.Weighted>
0.2856

> <Gold.Chemscore.DEInternal.Weighted>
2.1104

> <Gold.Chemscore.Rot.Weighted>
3.1874

> <Gold.Chemscore.Internal.Correction.Weighted>
   9.000000E+99

> <Gold.Protein.RotatedTorsions>
[ 6907 6896 6895 6894 ] final  125.72 input  -60.11 | X-H torsion
[ 7974 7965 7964 7962 ] final -106.73 input  175.53 | X-H torsion
[ 8008 7997 7996 7995 ] final -101.29 input   59.86 | X-H torsion
[ 10167 10162 10161 10158 ] final  121.13 input  -65.29 | X-H torsion
[ 10718 10713 10712 10709 ] final  175.37 input   66.30 | X-H torsion
[ 10763 10752 10751 10750 ] final   38.01 input  -60.55 | X-H torsion
[ 11005 11000 10999 10996 ] final  151.86 input  -57.11 | X-H torsion

> <Gold.Protein.ActiveResidues>
 VAL166  LYS551  ARG553  GLY616  TRP617  ASP618  TYR619  PRO620  LYS621  CYS622 
 ASP623  PHE694  ASN695  SER759  ASP760  ASP761  ALA762  ILE779  LEU786  VAL792 
 PHE793  MET794  SER795  GLU796  ALA797  LYS798  CYS799  TRP800  GLU811  SER814 

> <Gold.Protein.RotatedAtoms>
  152.3967  133.6757  159.6281 H   0  0  0  0  0  0  0  0  0  0  0  0  # atno 6907 bound_to 6896
  150.7865  133.8862  159.3309 H   0  0  0  0  0  0  0  0  0  0  0  0  # atno 6908 bound_to 6896
  151.6637  135.0987  160.0236 H   0  0  0  0  0  0  0  0  0  0  0  0  # atno 6909 bound_to 6896
  145.2141  140.9108  143.3297 H   0  0  0  0  0  0  0  0  0  0  0  0  # atno 7974 bound_to 7965
  154.8405  140.0435  157.1538 H   0  0  0  0  0  0  0  0  0  0  0  0  # atno 8008 bound_to 7997
  154.9052  140.3006  155.5276 H   0  0  0  0  0  0  0  0  0  0  0  0  # atno 8009 bound_to 7997
  156.2992  140.2368  156.4084 H   0  0  0  0  0  0  0  0  0  0  0  0  # atno 8010 bound_to 7997
  139.5939  144.7035  151.3224 H   0  0  0  0  0  0  0  0  0  0  0  0  # atno 10167 bound_to 10162
  156.9358  130.9985  151.2978 H   0  0  0  0  0  0  0  0  0  0  0  0  # atno 10718 bound_to 10713
  153.0016  135.6261  154.2236 H   0  0  0  0  0  0  0  0  0  0  0  0  # atno 10763 bound_to 10752
  154.1979  135.2805  155.3002 H   0  0  0  0  0  0  0  0  0  0  0  0  # atno 10764 bound_to 10752
  154.5707  135.5677  153.7152 H   0  0  0  0  0  0  0  0  0  0  0  0  # atno 10765 bound_to 10752
  140.1257  134.8835  157.2134 H   0  0  0  0  0  0  0  0  0  0  0  0  # atno 11005 bound_to 11000
  144.9827  139.3767  143.6254 LP  0  0  0  0  0  0  0  0  0  0  0  0  # atno 17320 bound_to 7965
  146.3391  139.8975  142.8799 LP  0  0  0  0  0  0  0  0  0  0  0  0  # atno 17321 bound_to 7965
  140.7195  143.7173  150.7722 LP  0  0  0  0  0  0  0  0  0  0  0  0  # atno 17342 bound_to 10162
  140.0735  143.5038  152.2567 LP  0  0  0  0  0  0  0  0  0  0  0  0  # atno 17343 bound_to 10162
  157.5817  130.8381  149.8532 LP  0  0  0  0  0  0  0  0  0  0  0  0  # atno 17370 bound_to 10713
  156.0426  130.3735  150.1397 LP  0  0  0  0  0  0  0  0  0  0  0  0  # atno 17371 bound_to 10713
  140.2908  134.3243  155.7316 LP  0  0  0  0  0  0  0  0  0  0  0  0  # atno 17394 bound_to 11000
  141.2160  133.7533  156.9500 LP  0  0  0  0  0  0  0  0  0  0  0  0  # atno 17395 bound_to 11000

$$$$
