AV-unprocessed.smi:1260|AV-procd|sdf|5297|dock10
  -GOLD-   22720 4413D 1   1.00000     0.00000
 Structure written by MMmdl.
 37 39  0  0  0  0  0  0  0  0  2 V2000
  154.6683  139.3495  158.8877 O   0  0  0  0  0  0  0  0  0  0  0  0
  153.4429  139.4446  158.8337 C   0  0  0  0  0  0  0  0  0  0  0  0
  152.6182  138.3209  158.2001 C   0  0  0  0  0  0  0  0  0  0  0  0
  152.0921  138.7012  156.9011 N   0  0  0  0  0  0  0  0  0  0  0  0
  151.2095  138.0977  156.1024 C   0  0  0  0  0  0  0  0  0  0  0  0
  151.0119  138.7821  154.9863 N   0  0  0  0  0  0  0  0  0  0  0  0
  151.8394  139.8818  155.1406 N   0  0  0  0  0  0  0  0  0  0  0  0
  152.4812  139.8406  156.2759 N   0  0  0  0  0  0  0  0  0  0  0  0
  152.7666  140.5101  159.2942 N   0  0  0  0  0  0  0  0  0  0  0  0
  153.3620  141.6631  159.9670 C   0  0  2  0  0  0  0  0  0  0  0  0
  153.0909  141.6744  161.4838 C   0  0  0  0  0  0  0  0  0  0  0  0
  152.7866  143.1393  161.8141 C   0  0  0  0  0  0  0  0  0  0  0  0
  152.1279  143.6221  160.5946 N   0  3  1  0  0  0  0  0  0  0  0  0
  151.9072  145.0742  160.4396 C   0  0  0  0  0  0  0  0  0  0  0  0
  151.0440  145.3049  159.1805 C   0  0  0  0  0  0  0  0  0  0  0  0
  151.6339  144.6117  157.9312 C   0  0  0  0  0  0  0  0  0  0  0  0
  151.9630  143.1270  158.1995 C   0  0  0  0  0  0  0  0  0  0  0  0
  152.8492  143.0302  159.4545 C   0  0  2  0  0  0  0  0  0  0  0  0
  153.2407  137.4328  158.0848 H   0  0  0  0  0  0  0  0  0  0  0  0
  151.7861  138.0499  158.8518 H   0  0  0  0  0  0  0  0  0  0  0  0
  150.7202  137.1628  156.3337 H   0  0  0  0  0  0  0  0  0  0  0  0
  151.7609  140.5047  159.2040 H   0  0  0  0  0  0  0  0  0  0  0  0
  154.4443  141.6305  159.8248 H   0  0  0  0  0  0  0  0  0  0  0  0
  152.2166  141.0648  161.7176 H   0  0  0  0  0  0  0  0  0  0  0  0
  153.9276  141.2821  162.0630 H   0  0  0  0  0  0  0  0  0  0  0  0
  152.1514  143.2499  162.6935 H   0  0  0  0  0  0  0  0  0  0  0  0
  153.7104  143.6961  161.9801 H   0  0  0  0  0  0  0  0  0  0  0  0
  151.3994  145.4664  161.3214 H   0  0  0  0  0  0  0  0  0  0  0  0
  152.8631  145.5938  160.3578 H   0  0  0  0  0  0  0  0  0  0  0  0
  150.0404  144.9169  159.3602 H   0  0  0  0  0  0  0  0  0  0  0  0
  150.9300  146.3734  158.9963 H   0  0  0  0  0  0  0  0  0  0  0  0
  150.9417  144.6962  157.0931 H   0  0  0  0  0  0  0  0  0  0  0  0
  152.5436  145.1327  157.6299 H   0  0  0  0  0  0  0  0  0  0  0  0
  151.0423  142.5587  158.3380 H   0  0  0  0  0  0  0  0  0  0  0  0
  152.4741  142.7026  157.3349 H   0  0  0  0  0  0  0  0  0  0  0  0
  153.7384  143.6401  159.2797 H   0  0  0  0  0  0  0  0  0  0  0  0
  151.2133  143.1936  160.5972 H   0  0  0  0  0  0  0  0  0  0  0  0
  1  2  2  0  0  0  0
  2  3  1  0  0  0  0
  2  9  1  0  0  0  0
  3  4  1  0  0  0  0
  3 19  1  0  0  0  0
  3 20  1  0  0  0  0
  4  8  1  0  0  0  0
  4  5  1  0  0  0  0
  5  6  2  0  0  0  0
  5 21  1  0  0  0  0
  6  7  1  0  0  0  0
  7  8  2  0  0  0  0
  9 10  1  0  0  0  0
  9 22  1  0  0  0  0
 10 18  1  0  0  0  0
 10 11  1  0  0  0  0
 10 23  1  0  0  0  0
 11 12  1  0  0  0  0
 11 24  1  0  0  0  0
 11 25  1  0  0  0  0
 12 13  1  0  0  0  0
 12 26  1  0  0  0  0
 12 27  1  0  0  0  0
 13 18  1  0  0  0  0
 13 14  1  0  0  0  0
 13 37  1  0  0  0  0
 14 15  1  0  0  0  0
 14 28  1  0  0  0  0
 14 29  1  0  0  0  0
 15 16  1  0  0  0  0
 15 30  1  0  0  0  0
 15 31  1  0  0  0  0
 16 17  1  0  0  0  0
 16 32  1  0  0  0  0
 16 33  1  0  0  0  0
 17 18  1  0  0  0  0
 17 34  1  0  0  0  0
 17 35  1  0  0  0  0
 18 36  1  0  0  0  0
M  CHG  1  13   1
M  END
> <s_m_source_file>
AV-unprocessed.smi

> <i_m_source_file_index>
1260

> <i_lp_mmshare_version>
43012

> <i_f3d_flags>
0

> <s_epik_input>
bjFubltjSF1uMVtDSDJdQyg9TylbTkhdW0NASF0oW0NIMl1bQ0gyXTIpW0NAQEhdKE4yMylbQ0gyXVtDSDJdW0NIMl1bQ0gyXTM=

> <s_epik_cmdline>
J2VwaWtfcHl0aG9uJywgJy1waCcsICc3LjAnLCAnLXRuJywgJzgnLCAnLW1hJywgJzIwMCcsICctbWV0YWxfYmluZGluZycsICctaW1hZScsICc8aW5maWxlLm1hZT4nLCAnLW9tYWUnLCAnPG91dGZpbGUubWFlPic=

> <r_lp_tautomer_probability>
1

> <r_epik_Ionization_Penalty>
0.00234324

> <r_epik_Ionization_Penalty_Charging>
0.00233897

> <r_epik_Ionization_Penalty_Neutral>
4.26861e-06

> <r_epik_State_Penalty>
0.00161477

> <r_epik_Charging_Adjusted_Penalty>
0.00395374

> <i_epik_Tot_Q>
1

> <i_epik_Tot_abs_Q>
1

> <r_epik_Metal_State_Penalty>
-0

> <b_epik_Metal_Only>
0

> <s_lp_Force_Field>
OPLS_2005

> <r_lp_Energy>
44.4325

> <b_lp_Chiralities_Consistent>
1

> <s_lp_Variant>
AV-unprocessed.smi:1260-5

> <Gold.Version>
5.8.1

> <Gold.Id.Protein>
6NUR|6NUR_protein|mol2

> <Gold.PLP.Fitness>
46.5533

> <Gold.PLP.PLP>
-38.8616

> <Gold.PLP.part.hbond>
-3.0000

> <Gold.PLP.part.metal>
0.0000

> <Gold.PLP.part.buried>
-6.0903

> <Gold.PLP.part.nonpolar>
-28.8777

> <Gold.PLP.part.repulsive>
0.2936

> <Gold.PLP.ligand.clash>
0.0000

> <Gold.PLP.ligand.torsion>
0.3906

> <Gold.PLP.Chemscore.Hbond>
2.8240

> <Gold.PLP.Chemscore.CHOScore>
0.0000

> <Gold.PLP.Chemscore.Metal>
0.0000

> <Gold.Chemscore.Hbonds>
donor molecule, donor type, donor heavy atom, donor atom, acceptor molecule, acceptor atom, score
      P1  H  7989  7998       L1     7  0.94
      P1  H  7997  8008       L1     1  0.99
      P1  H  7997  8009       L1     8  0.88

> <Gold.PLP.Chemscore.Internal.Correction>
0.0009

> <Gold.Rescore>
     Score         DG    S(hbond)    S(metal)    S(lipo)     H(rot)  DE(clash)    DE(int)     intcor
     19.85     -20.43       2.59        0.00      96.94       1.98       0.03       0.55       ----

> <Gold.Chemscore.Fitness>
19.8530

> <Gold.Chemscore.DG>
-20.4277

> <Gold.Chemscore.ZeroCoef>
-5.4800

> <Gold.Chemscore.Hbond>
2.5938

> <Gold.Chemscore.Metal>
0.0000

> <Gold.Chemscore.Lipo>
96.9407

> <Gold.Chemscore.Internal_Hbond>
0.0000

> <Gold.Chemscore.DEClash>
0.0284

> <Gold.Chemscore.DEInternal>
0.5463

> <Gold.Chemscore.Rot>
1.9757

> <Gold.Chemscore.Internal.Correction>
   9.000000E+99

> <Gold.Chemscore.Hbonds>
donor molecule, donor type, donor heavy atom, donor atom, acceptor molecule, acceptor atom, score
      P1  H  7989  7998       L1     7  0.45
      P1  H  7997  8008       L1     1  0.70
      P1  H  7997  8009       L1     8  0.61

> <Gold.Chemscore.Hbond.Weighted>
-8.6634

> <Gold.Chemscore.Metal.Weighted>
-0.0000

> <Gold.Chemscore.Lipo.Weighted>
-11.3421

> <Gold.Chemscore.Internal_Hbond.Weighted>
0.0000

> <Gold.Chemscore.DEClash.Weighted>
0.0284

> <Gold.Chemscore.DEInternal.Weighted>
0.5463

> <Gold.Chemscore.Rot.Weighted>
5.0578

> <Gold.Chemscore.Internal.Correction.Weighted>
   9.000000E+99

> <Gold.Protein.RotatedTorsions>
[ 6907 6896 6895 6894 ] final -102.07 input  -60.11 | X-H torsion
[ 7974 7965 7964 7962 ] final  -10.98 input  175.53 | X-H torsion
[ 8008 7997 7996 7995 ] final -139.07 input   59.86 | X-H torsion
[ 10167 10162 10161 10158 ] final  154.13 input  -65.29 | X-H torsion
[ 10718 10713 10712 10709 ] final  -51.27 input   66.30 | X-H torsion
[ 10763 10752 10751 10750 ] final  124.62 input  -60.55 | X-H torsion
[ 11005 11000 10999 10996 ] final -136.70 input  -57.11 | X-H torsion

> <Gold.Protein.ActiveResidues>
 VAL166  LYS551  ARG553  GLY616  TRP617  ASP618  TYR619  PRO620  LYS621  CYS622 
 ASP623  PHE694  ASN695  SER759  ASP760  ASP761  ALA762  ILE779  LEU786  VAL792 
 PHE793  MET794  SER795  GLU796  ALA797  LYS798  CYS799  TRP800  GLU811  SER814 

> <Gold.Protein.RotatedAtoms>
  150.7181  134.0637  159.3839 H   0  0  0  0  0  0  0  0  0  0  0  0  # atno 6907 bound_to 6896
  151.8618  135.0519  160.0479 H   0  0  0  0  0  0  0  0  0  0  0  0  # atno 6908 bound_to 6896
  152.2712  133.5348  159.5476 H   0  0  0  0  0  0  0  0  0  0  0  0  # atno 6909 bound_to 6896
  146.2203  140.2843  142.8364 H   0  0  0  0  0  0  0  0  0  0  0  0  # atno 7974 bound_to 7965
  155.4389  140.0530  157.3012 H   0  0  0  0  0  0  0  0  0  0  0  0  # atno 8008 bound_to 7997
  154.4827  140.2088  155.9684 H   0  0  0  0  0  0  0  0  0  0  0  0  # atno 8009 bound_to 7997
  156.1229  140.3185  155.8240 H   0  0  0  0  0  0  0  0  0  0  0  0  # atno 8010 bound_to 7997
  139.4824  144.5213  151.7871 H   0  0  0  0  0  0  0  0  0  0  0  0  # atno 10167 bound_to 10162
  156.1725  130.4149  149.9626 H   0  0  0  0  0  0  0  0  0  0  0  0  # atno 10718 bound_to 10713
  153.6643  135.3341  155.3136 H   0  0  0  0  0  0  0  0  0  0  0  0  # atno 10763 bound_to 10752
  154.8507  135.4371  154.1771 H   0  0  0  0  0  0  0  0  0  0  0  0  # atno 10764 bound_to 10752
  153.2746  135.7003  153.7522 H   0  0  0  0  0  0  0  0  0  0  0  0  # atno 10765 bound_to 10752
  140.8780  134.1967  157.4609 H   0  0  0  0  0  0  0  0  0  0  0  0  # atno 11005 bound_to 11000
  144.9173  140.7828  143.5770 LP  0  0  0  0  0  0  0  0  0  0  0  0  # atno 17320 bound_to 7965
  145.2778  139.1930  143.4807 LP  0  0  0  0  0  0  0  0  0  0  0  0  # atno 17321 bound_to 7965
  140.4728  144.1563  150.5920 LP  0  0  0  0  0  0  0  0  0  0  0  0  # atno 17342 bound_to 10162
  140.4364  143.2545  151.9530 LP  0  0  0  0  0  0  0  0  0  0  0  0  # atno 17343 bound_to 10162
  156.7422  130.9084  151.3633 LP  0  0  0  0  0  0  0  0  0  0  0  0  # atno 17370 bound_to 10713
  157.6812  130.9142  150.0273 LP  0  0  0  0  0  0  0  0  0  0  0  0  # atno 17371 bound_to 10713
  139.8717  134.9804  156.5077 LP  0  0  0  0  0  0  0  0  0  0  0  0  # atno 17394 bound_to 11000
  140.8495  133.8143  155.9154 LP  0  0  0  0  0  0  0  0  0  0  0  0  # atno 17395 bound_to 11000

$$$$
