AV-unprocessed.smi:3241|AV-procd|sdf|12391|dock7
  -GOLD-   2272018263D 1   1.00000     0.00000
 Structure written by MMmdl.
 43 44  0  0  0  0  0  0  0  0  1 V2000
  153.4670  140.9082  159.4721 C   0  0  0  0  0  0  0  0  0  0  0  0
  153.1643  142.4074  159.6198 C   0  0  2  0  0  0  0  0  0  0  0  0
  152.2097  142.6875  160.7984 C   0  0  0  0  0  0  0  0  0  0  0  0
  151.9383  144.1919  160.9617 C   0  0  0  0  0  0  0  0  0  0  0  0
  151.4050  144.8083  159.6599 C   0  0  0  0  0  0  0  0  0  0  0  0
  152.3544  144.5322  158.4829 C   0  0  0  0  0  0  0  0  0  0  0  0
  152.6286  143.0237  158.3082 C   0  0  2  0  0  0  0  0  0  0  0  0
  151.4143  142.3677  157.9504 O   0  0  0  0  0  0  0  0  0  0  0  0
  150.8346  142.7539  156.7087 C   0  0  0  0  0  0  0  0  0  0  0  0
  150.4771  141.5469  155.8273 C   0  0  0  0  0  0  0  0  0  0  0  0
  149.5918  141.9456  154.7401 N   0  0  0  0  0  0  0  0  0  0  0  0
  148.3470  141.1868  154.6814 C   0  0  0  0  0  0  0  0  0  0  0  0
  148.5790  139.7716  154.1295 C   0  0  0  0  0  0  0  0  0  0  0  0
  147.3289  139.0816  153.8596 N   0  0  0  0  0  0  0  0  0  0  0  0
  146.9103  138.4981  152.6822 C   0  0  0  0  0  0  0  0  0  0  0  0
  145.6653  137.9832  152.9036 C   0  0  0  0  0  0  0  0  0  0  0  0
  145.4040  138.3047  154.2650 C   0  0  0  0  0  0  0  0  0  0  0  0
  146.4018  138.9606  154.8349 N   0  0  0  0  0  0  0  0  0  0  0  0
  152.5599  140.3354  159.2768 H   0  0  0  0  0  0  0  0  0  0  0  0
  153.9214  140.5093  160.3794 H   0  0  0  0  0  0  0  0  0  0  0  0
  154.1590  140.7270  158.6493 H   0  0  0  0  0  0  0  0  0  0  0  0
  154.1119  142.8992  159.8450 H   0  0  0  0  0  0  0  0  0  0  0  0
  151.2659  142.1628  160.6442 H   0  0  0  0  0  0  0  0  0  0  0  0
  152.6324  142.2923  161.7226 H   0  0  0  0  0  0  0  0  0  0  0  0
  151.2244  144.3549  161.7695 H   0  0  0  0  0  0  0  0  0  0  0  0
  152.8580  144.6992  161.2551 H   0  0  0  0  0  0  0  0  0  0  0  0
  150.4177  144.4011  159.4375 H   0  0  0  0  0  0  0  0  0  0  0  0
  151.2726  145.8831  159.7849 H   0  0  0  0  0  0  0  0  0  0  0  0
  151.9395  144.9580  157.5700 H   0  0  0  0  0  0  0  0  0  0  0  0
  153.2982  145.0508  158.6551 H   0  0  0  0  0  0  0  0  0  0  0  0
  153.3852  142.8892  157.5330 H   0  0  0  0  0  0  0  0  0  0  0  0
  149.9518  143.3680  156.8919 H   0  0  0  0  0  0  0  0  0  0  0  0
  151.5475  143.3920  156.1857 H   0  0  0  0  0  0  0  0  0  0  0  0
  151.3794  141.0792  155.4335 H   0  0  0  0  0  0  0  0  0  0  0  0
  149.9845  140.7920  156.4410 H   0  0  0  0  0  0  0  0  0  0  0  0
  149.3953  142.9401  154.7933 H   0  0  0  0  0  0  0  0  0  0  0  0
  147.8995  141.1216  155.6739 H   0  0  0  0  0  0  0  0  0  0  0  0
  147.6276  141.7086  154.0496 H   0  0  0  0  0  0  0  0  0  0  0  0
  149.1417  139.8267  153.1971 H   0  0  0  0  0  0  0  0  0  0  0  0
  149.1801  139.1807  154.8228 H   0  0  0  0  0  0  0  0  0  0  0  0
  147.5251  138.5019  151.7942 H   0  0  0  0  0  0  0  0  0  0  0  0
  145.0355  137.4591  152.2002 H   0  0  0  0  0  0  0  0  0  0  0  0
  144.5244  138.0838  154.8515 H   0  0  0  0  0  0  0  0  0  0  0  0
  1  2  1  0  0  0  0
  1 19  1  0  0  0  0
  1 20  1  0  0  0  0
  1 21  1  0  0  0  0
  2  7  1  0  0  0  0
  2  3  1  0  0  0  0
  2 22  1  0  0  0  0
  3  4  1  0  0  0  0
  3 23  1  0  0  0  0
  3 24  1  0  0  0  0
  4  5  1  0  0  0  0
  4 25  1  0  0  0  0
  4 26  1  0  0  0  0
  5  6  1  0  0  0  0
  5 27  1  0  0  0  0
  5 28  1  0  0  0  0
  6  7  1  0  0  0  0
  6 29  1  0  0  0  0
  6 30  1  0  0  0  0
  7  8  1  0  0  0  0
  7 31  1  0  0  0  0
  8  9  1  0  0  0  0
  9 10  1  0  0  0  0
  9 32  1  0  0  0  0
  9 33  1  0  0  0  0
 10 11  1  0  0  0  0
 10 34  1  0  0  0  0
 10 35  1  0  0  0  0
 11 12  1  0  0  0  0
 11 36  1  0  0  0  0
 12 13  1  0  0  0  0
 12 37  1  0  0  0  0
 12 38  1  0  0  0  0
 13 14  1  0  0  0  0
 13 39  1  0  0  0  0
 13 40  1  0  0  0  0
 14 18  1  0  0  0  0
 14 15  1  0  0  0  0
 15 16  2  0  0  0  0
 15 41  1  0  0  0  0
 16 17  1  0  0  0  0
 16 42  1  0  0  0  0
 17 18  2  0  0  0  0
 17 43  1  0  0  0  0
M  END
> <s_m_source_file>
AV-unprocessed.smi

> <i_m_source_file_index>
3241

> <i_lp_mmshare_version>
43012

> <i_f3d_flags>
0

> <s_epik_input>
W0NIM11bQ0BASF0xW0NIMl1bQ0gyXVtDSDJdW0NIMl1bQ0BIXTFPW0NIMl1bQ0gyXVtOSF1bQ0gyXVtDSDJdbjJbY0hdW2NIXVtjSF1uMg==

> <s_epik_cmdline>
J2VwaWtfcHl0aG9uJywgJy1waCcsICc3LjAnLCAnLXRuJywgJzgnLCAnLW1hJywgJzIwMCcsICctbWV0YWxfYmluZGluZycsICctaW1hZScsICc8aW5maWxlLm1hZT4nLCAnLW9tYWUnLCAnPG91dGZpbGUubWFlPic=

> <r_lp_tautomer_probability>
1

> <r_epik_Ionization_Penalty>
2.47055

> <r_epik_Ionization_Penalty_Charging>
0

> <r_epik_Ionization_Penalty_Neutral>
2.47055

> <r_epik_State_Penalty>
2.6322

> <r_epik_Charging_Adjusted_Penalty>
2.6322

> <i_epik_Tot_Q>
0

> <i_epik_Tot_abs_Q>
0

> <r_epik_Metal_State_Penalty>
2.63108

> <b_epik_Metal_Only>
0

> <s_lp_Force_Field>
OPLS_2005

> <r_lp_Energy>
17.4206

> <b_lp_Chiralities_Consistent>
1

> <s_lp_Variant>
AV-unprocessed.smi:3241-7

> <Gold.Version>
5.8.1

> <Gold.Id.Protein>
6NUR|6NUR_protein|mol2

> <Gold.PLP.Fitness>
46.9308

> <Gold.PLP.PLP>
-40.4297

> <Gold.PLP.part.hbond>
-2.5045

> <Gold.PLP.part.metal>
0.0000

> <Gold.PLP.part.buried>
-0.0698

> <Gold.PLP.part.nonpolar>
-38.5303

> <Gold.PLP.part.repulsive>
0.0858

> <Gold.PLP.ligand.clash>
0.0000

> <Gold.PLP.ligand.torsion>
0.8813

> <Gold.PLP.Chemscore.Hbond>
1.0000

> <Gold.PLP.Chemscore.CHOScore>
1.7183

> <Gold.PLP.Chemscore.Metal>
0.0000

> <Gold.Chemscore.Hbonds>
donor molecule, donor type, donor heavy atom, donor atom, acceptor molecule, acceptor atom, score
      L1  H    11    36       P1  8028  1.00
      L1  C    15    41       P1  7948  0.39
      L1  C    15    41       P1  7957  0.76

> <Gold.PLP.Chemscore.Internal.Correction>
0.1088

> <Gold.Rescore>
     Score         DG    S(hbond)    S(metal)    S(lipo)     H(rot)  DE(clash)    DE(int)     intcor
     17.38     -18.67       0.99        0.00     123.69       1.79       0.27       1.02       ----

> <Gold.Chemscore.Fitness>
17.3756

> <Gold.Chemscore.DG>
-18.6708

> <Gold.Chemscore.ZeroCoef>
-5.4800

> <Gold.Chemscore.Hbond>
0.9886

> <Gold.Chemscore.Metal>
0.0000

> <Gold.Chemscore.Lipo>
123.6895

> <Gold.Chemscore.Internal_Hbond>
0.0000

> <Gold.Chemscore.DEClash>
0.2711

> <Gold.Chemscore.DEInternal>
1.0241

> <Gold.Chemscore.Rot>
1.7901

> <Gold.Chemscore.Internal.Correction>
   9.000000E+99

> <Gold.Chemscore.Hbonds>
donor molecule, donor type, donor heavy atom, donor atom, acceptor molecule, acceptor atom, score
      L1  H    11    36       P1  8028  0.93

> <Gold.Chemscore.Hbond.Weighted>
-3.3019

> <Gold.Chemscore.Metal.Weighted>
-0.0000

> <Gold.Chemscore.Lipo.Weighted>
-14.4717

> <Gold.Chemscore.Internal_Hbond.Weighted>
0.0000

> <Gold.Chemscore.DEClash.Weighted>
0.2711

> <Gold.Chemscore.DEInternal.Weighted>
1.0241

> <Gold.Chemscore.Rot.Weighted>
4.5827

> <Gold.Chemscore.Internal.Correction.Weighted>
   9.000000E+99

> <Gold.Protein.RotatedTorsions>
[ 6907 6896 6895 6894 ] final -145.99 input  -60.11 | X-H torsion
[ 7974 7965 7964 7962 ] final    2.65 input  175.53 | X-H torsion
[ 8008 7997 7996 7995 ] final  -90.68 input   59.86 | X-H torsion
[ 10167 10162 10161 10158 ] final   18.92 input  -65.29 | X-H torsion
[ 10718 10713 10712 10709 ] final  163.26 input   66.30 | X-H torsion
[ 10763 10752 10751 10750 ] final   25.90 input  -60.55 | X-H torsion
[ 11005 11000 10999 10996 ] final  -71.87 input  -57.11 | X-H torsion

> <Gold.Protein.ActiveResidues>
 VAL166  LYS551  ARG553  GLY616  TRP617  ASP618  TYR619  PRO620  LYS621  CYS622 
 ASP623  PHE694  ASN695  SER759  ASP760  ASP761  ALA762  ILE779  LEU786  VAL792 
 PHE793  MET794  SER795  GLU796  ALA797  LYS798  CYS799  TRP800  GLU811  SER814 

> <Gold.Protein.RotatedAtoms>
  151.1355  133.5007  159.2597 H   0  0  0  0  0  0  0  0  0  0  0  0  # atno 6907 bound_to 6896
  151.1711  135.0318  159.8762 H   0  0  0  0  0  0  0  0  0  0  0  0  # atno 6908 bound_to 6896
  152.5461  134.1218  159.8455 H   0  0  0  0  0  0  0  0  0  0  0  0  # atno 6909 bound_to 6896
  146.2444  140.0805  142.8357 H   0  0  0  0  0  0  0  0  0  0  0  0  # atno 7974 bound_to 7965
  154.7015  140.0528  157.0463 H   0  0  0  0  0  0  0  0  0  0  0  0  # atno 8008 bound_to 7997
  155.0678  140.3196  155.4621 H   0  0  0  0  0  0  0  0  0  0  0  0  # atno 8009 bound_to 7997
  156.2761  140.2087  156.5805 H   0  0  0  0  0  0  0  0  0  0  0  0  # atno 8010 bound_to 7997
  140.5617  143.9325  150.6647 H   0  0  0  0  0  0  0  0  0  0  0  0  # atno 10167 bound_to 10162
  157.1110  131.0468  151.2457 H   0  0  0  0  0  0  0  0  0  0  0  0  # atno 10718 bound_to 10713
  153.0660  135.6572  154.0354 H   0  0  0  0  0  0  0  0  0  0  0  0  # atno 10763 bound_to 10752
  154.0011  135.2937  155.3404 H   0  0  0  0  0  0  0  0  0  0  0  0  # atno 10764 bound_to 10752
  154.7017  135.5241  153.8605 H   0  0  0  0  0  0  0  0  0  0  0  0  # atno 10765 bound_to 10752
  141.1599  133.6830  156.6972 H   0  0  0  0  0  0  0  0  0  0  0  0  # atno 11005 bound_to 11000
  145.0737  140.9173  143.4866 LP  0  0  0  0  0  0  0  0  0  0  0  0  # atno 17320 bound_to 7965
  145.0944  139.2867  143.5718 LP  0  0  0  0  0  0  0  0  0  0  0  0  # atno 17321 bound_to 7965
  140.2777  143.3411  152.1180 LP  0  0  0  0  0  0  0  0  0  0  0  0  # atno 17342 bound_to 10162
  139.5073  144.6830  151.5960 LP  0  0  0  0  0  0  0  0  0  0  0  0  # atno 17343 bound_to 10162
  157.4559  130.7625  149.7193 LP  0  0  0  0  0  0  0  0  0  0  0  0  # atno 17370 bound_to 10713
  155.9850  130.3986  150.3281 LP  0  0  0  0  0  0  0  0  0  0  0  0  # atno 17371 bound_to 10713
  140.2986  134.8182  157.4078 LP  0  0  0  0  0  0  0  0  0  0  0  0  # atno 17394 bound_to 11000
  140.1282  134.5129  155.8127 LP  0  0  0  0  0  0  0  0  0  0  0  0  # atno 17395 bound_to 11000

$$$$
