AV-unprocessed.smi:2340|AV-procd|sdf|9348|dock5
  -GOLD-   2272012573D 1   1.00000     0.00000
 Structure written by MMmdl.
 40 41  0  0  0  0  0  0  0  0  1 V2000
  144.0637  132.5329  149.2498 C   0  0  0  0  0  0  0  0  0  0  0  0
  144.5270  133.0743  150.5654 C   0  0  0  0  0  0  0  0  0  0  0  0
  143.8669  133.9701  151.3688 C   0  0  0  0  0  0  0  0  0  0  0  0
  144.7679  134.3307  152.8154 S   0  0  0  0  0  0  0  0  0  0  0  0
  146.0320  133.2312  152.2676 C   0  0  0  0  0  0  0  0  0  0  0  0
  147.2887  132.9623  153.0362 C   0  0  2  0  0  0  0  0  0  0  0  0
  147.4669  131.4591  153.3106 C   0  0  0  0  0  0  0  0  0  0  0  0
  147.3633  133.8358  154.3071 C   0  0  0  0  0  0  0  0  0  0  0  0
  148.0313  135.1132  154.0778 N   0  0  0  0  0  0  0  0  0  0  0  0
  148.1127  136.1082  154.9716 C   0  0  0  0  0  0  0  0  0  0  0  0
  147.6261  136.0621  156.1014 O   0  0  0  0  0  0  0  0  0  0  0  0
  148.7937  137.1561  154.4871 N   0  0  0  0  0  0  0  0  0  0  0  0
  149.0578  138.4008  155.2099 C   0  0  2  0  0  0  0  0  0  0  0  0
  148.1478  139.5189  154.7025 C   0  0  0  0  0  0  0  0  0  0  0  0
  149.0974  140.6836  154.4422 C   0  0  0  0  0  0  0  0  0  0  0  0
  150.3099  140.0416  154.0904 O   0  0  0  0  0  0  0  0  0  0  0  0
  150.4844  138.9579  154.9911 C   0  0  2  0  0  0  0  0  0  0  0  0
  151.5537  137.9934  154.4527 C   0  0  0  0  0  0  0  0  0  0  0  0
  145.7561  132.6641  151.0896 N   0  0  0  0  0  0  0  0  0  0  0  0
  143.1251  132.9916  148.9375 H   0  0  0  0  0  0  0  0  0  0  0  0
  143.9027  131.4560  149.3029 H   0  0  0  0  0  0  0  0  0  0  0  0
  144.7980  132.7203  148.4661 H   0  0  0  0  0  0  0  0  0  0  0  0
  142.9087  134.4384  151.1982 H   0  0  0  0  0  0  0  0  0  0  0  0
  148.1164  133.2604  152.3904 H   0  0  0  0  0  0  0  0  0  0  0  0
  147.4387  130.8879  152.3823 H   0  0  0  0  0  0  0  0  0  0  0  0
  146.6787  131.0771  153.9600 H   0  0  0  0  0  0  0  0  0  0  0  0
  148.4229  131.2494  153.7905 H   0  0  0  0  0  0  0  0  0  0  0  0
  146.3611  134.0164  154.6998 H   0  0  0  0  0  0  0  0  0  0  0  0
  147.9085  133.3099  155.0913 H   0  0  0  0  0  0  0  0  0  0  0  0
  148.4649  135.2457  153.1759 H   0  0  0  0  0  0  0  0  0  0  0  0
  149.1602  137.0915  153.5488 H   0  0  0  0  0  0  0  0  0  0  0  0
  148.8906  138.2555  156.2788 H   0  0  0  0  0  0  0  0  0  0  0  0
  147.6633  139.2353  153.7667 H   0  0  0  0  0  0  0  0  0  0  0  0
  147.3633  139.7787  155.4138 H   0  0  0  0  0  0  0  0  0  0  0  0
  148.7466  141.3464  153.6509 H   0  0  0  0  0  0  0  0  0  0  0  0
  149.2462  141.2754  155.3467 H   0  0  0  0  0  0  0  0  0  0  0  0
  150.8387  139.3757  155.9354 H   0  0  0  0  0  0  0  0  0  0  0  0
  151.6967  137.1483  155.1267 H   0  0  0  0  0  0  0  0  0  0  0  0
  152.5135  138.5004  154.3532 H   0  0  0  0  0  0  0  0  0  0  0  0
  151.2865  137.6033  153.4704 H   0  0  0  0  0  0  0  0  0  0  0  0
  1  2  1  0  0  0  0
  1 20  1  0  0  0  0
  1 21  1  0  0  0  0
  1 22  1  0  0  0  0
  2 19  1  0  0  0  0
  2  3  2  0  0  0  0
  3  4  1  0  0  0  0
  3 23  1  0  0  0  0
  4  5  1  0  0  0  0
  5  6  1  0  0  0  0
  5 19  2  0  0  0  0
  6  7  1  0  0  0  0
  6  8  1  0  0  0  0
  6 24  1  0  0  0  0
  7 25  1  0  0  0  0
  7 26  1  0  0  0  0
  7 27  1  0  0  0  0
  8  9  1  0  0  0  0
  8 28  1  0  0  0  0
  8 29  1  0  0  0  0
  9 10  1  0  0  0  0
  9 30  1  0  0  0  0
 10 11  2  0  0  0  0
 10 12  1  0  0  0  0
 12 13  1  0  0  0  0
 12 31  1  0  0  0  0
 13 17  1  0  0  0  0
 13 14  1  0  0  0  0
 13 32  1  0  0  0  0
 14 15  1  0  0  0  0
 14 33  1  0  0  0  0
 14 34  1  0  0  0  0
 15 16  1  0  0  0  0
 15 35  1  0  0  0  0
 15 36  1  0  0  0  0
 16 17  1  0  0  0  0
 17 18  1  0  0  0  0
 17 37  1  0  0  0  0
 18 38  1  0  0  0  0
 18 39  1  0  0  0  0
 18 40  1  0  0  0  0
M  END
> <s_m_source_file>
AV-unprocessed.smi

> <i_m_source_file_index>
2340

> <i_lp_mmshare_version>
43012

> <i_f3d_flags>
0

> <s_epik_input>
W0NIM11jMVtjSF1zYyhuMSlbQ0BIXShbQ0gzXSlbQ0gyXVtOSF1DKD1PKVtOSF1bQ0BASF0yW0NIMl1bQ0gyXU9bQ0BIXTJbQ0gzXQ==

> <s_epik_cmdline>
J2VwaWtfcHl0aG9uJywgJy1waCcsICc3LjAnLCAnLXRuJywgJzgnLCAnLW1hJywgJzIwMCcsICctbWV0YWxfYmluZGluZycsICctaW1hZScsICc8aW5maWxlLm1hZT4nLCAnLW9tYWUnLCAnPG91dGZpbGUubWFlPic=

> <r_epik_Ionization_Penalty>
0.00156622

> <r_epik_Ionization_Penalty_Charging>
0

> <r_epik_Ionization_Penalty_Neutral>
0.00156622

> <r_epik_State_Penalty>
0.00101902

> <r_epik_Charging_Adjusted_Penalty>
0.00101902

> <i_epik_Tot_Q>
0

> <i_epik_Tot_abs_Q>
0

> <r_epik_Metal_State_Penalty>
-0

> <b_epik_Metal_Only>
0

> <s_lp_Force_Field>
OPLS_2005

> <r_lp_Energy>
6.07196

> <b_lp_Chiralities_Consistent>
1

> <s_lp_Variant>
AV-unprocessed.smi:2340-5

> <Gold.Version>
5.8.1

> <Gold.Id.Protein>
6NUR|6NUR_protein|mol2

> <Gold.PLP.Fitness>
39.5260

> <Gold.PLP.PLP>
-29.3459

> <Gold.PLP.part.hbond>
-3.0000

> <Gold.PLP.part.metal>
0.0000

> <Gold.PLP.part.buried>
-5.4480

> <Gold.PLP.part.nonpolar>
-22.7230

> <Gold.PLP.part.repulsive>
0.9234

> <Gold.PLP.ligand.clash>
0.0000

> <Gold.PLP.ligand.torsion>
0.7377

> <Gold.PLP.Chemscore.Hbond>
2.8560

> <Gold.PLP.Chemscore.CHOScore>
1.0000

> <Gold.PLP.Chemscore.Metal>
0.0000

> <Gold.Chemscore.Hbonds>
donor molecule, donor type, donor heavy atom, donor atom, acceptor molecule, acceptor atom, score
      L1  H     9    30       P1  7948  1.00
      L1  H    12    31       P1  7948  0.91
      P1  H  7989  7998       L1    16  1.00
      L1  C     3    23       P1 10186  0.86

> <Gold.PLP.Chemscore.Internal.Correction>
0.0876

> <Gold.Rescore>
     Score         DG    S(hbond)    S(metal)    S(lipo)     H(rot)  DE(clash)    DE(int)     intcor
     18.70     -19.60       2.75        0.00      75.84       1.53       0.05       0.86       ----

> <Gold.Chemscore.Fitness>
18.6988

> <Gold.Chemscore.DG>
-19.6040

> <Gold.Chemscore.ZeroCoef>
-5.4800

> <Gold.Chemscore.Hbond>
2.7466

> <Gold.Chemscore.Metal>
0.0000

> <Gold.Chemscore.Lipo>
75.8434

> <Gold.Chemscore.Internal_Hbond>
0.0000

> <Gold.Chemscore.DEClash>
0.0456

> <Gold.Chemscore.DEInternal>
0.8596

> <Gold.Chemscore.Rot>
1.5325

> <Gold.Chemscore.Internal.Correction>
   9.000000E+99

> <Gold.Chemscore.Hbonds>
donor molecule, donor type, donor heavy atom, donor atom, acceptor molecule, acceptor atom, score
      L1  H     9    30       P1  7948  0.90
      L1  H    12    31       P1  7948  0.89
      P1  H  7989  7998       L1    16  0.93

> <Gold.Chemscore.Hbond.Weighted>
-9.1737

> <Gold.Chemscore.Metal.Weighted>
-0.0000

> <Gold.Chemscore.Lipo.Weighted>
-8.8737

> <Gold.Chemscore.Internal_Hbond.Weighted>
0.0000

> <Gold.Chemscore.DEClash.Weighted>
0.0456

> <Gold.Chemscore.DEInternal.Weighted>
0.8596

> <Gold.Chemscore.Rot.Weighted>
3.9233

> <Gold.Chemscore.Internal.Correction.Weighted>
   9.000000E+99

> <Gold.Protein.RotatedTorsions>
[ 6907 6896 6895 6894 ] final   71.74 input  -60.11 | X-H torsion
[ 7974 7965 7964 7962 ] final  -93.21 input  175.53 | X-H torsion
[ 8008 7997 7996 7995 ] final -178.65 input   59.86 | X-H torsion
[ 10167 10162 10161 10158 ] final -102.23 input  -65.29 | X-H torsion
[ 10718 10713 10712 10709 ] final   51.17 input   66.30 | X-H torsion
[ 10763 10752 10751 10750 ] final   -1.00 input  -60.55 | X-H torsion
[ 11005 11000 10999 10996 ] final  121.58 input  -57.11 | X-H torsion

> <Gold.Protein.ActiveResidues>
 VAL166  LYS551  ARG553  GLY616  TRP617  ASP618  TYR619  PRO620  LYS621  CYS622 
 ASP623  PHE694  ASN695  SER759  ASP760  ASP761  ALA762  ILE779  LEU786  VAL792 
 PHE793  MET794  SER795  GLU796  ALA797  LYS798  CYS799  TRP800  GLU811  SER814 

> <Gold.Protein.RotatedAtoms>
  152.4828  134.4675  159.9624 H   0  0  0  0  0  0  0  0  0  0  0  0  # atno 6907 bound_to 6896
  151.4677  133.3570  159.2826 H   0  0  0  0  0  0  0  0  0  0  0  0  # atno 6908 bound_to 6896
  150.8913  134.8342  159.7356 H   0  0  0  0  0  0  0  0  0  0  0  0  # atno 6909 bound_to 6896
  145.3896  140.9527  143.2348 H   0  0  0  0  0  0  0  0  0  0  0  0  # atno 7974 bound_to 7965
  156.0213  140.1262  157.0354 H   0  0  0  0  0  0  0  0  0  0  0  0  # atno 8008 bound_to 7997
  154.4313  140.1068  156.6038 H   0  0  0  0  0  0  0  0  0  0  0  0  # atno 8009 bound_to 7997
  155.5940  140.3469  155.4577 H   0  0  0  0  0  0  0  0  0  0  0  0  # atno 8010 bound_to 7997
  140.2328  143.3594  152.0871 H   0  0  0  0  0  0  0  0  0  0  0  0  # atno 10167 bound_to 10162
  157.4955  130.8404  149.8254 H   0  0  0  0  0  0  0  0  0  0  0  0  # atno 10718 bound_to 10713
  153.3392  135.6979  153.6882 H   0  0  0  0  0  0  0  0  0  0  0  0  # atno 10763 bound_to 10752
  153.5653  135.3527  155.2816 H   0  0  0  0  0  0  0  0  0  0  0  0  # atno 10764 bound_to 10752
  154.8633  135.4259  154.2600 H   0  0  0  0  0  0  0  0  0  0  0  0  # atno 10765 bound_to 10752
  139.9232  134.9639  156.7980 H   0  0  0  0  0  0  0  0  0  0  0  0  # atno 11005 bound_to 11000
  144.8449  139.5412  143.6883 LP  0  0  0  0  0  0  0  0  0  0  0  0  # atno 17320 bound_to 7965
  146.2804  139.6862  142.9233 LP  0  0  0  0  0  0  0  0  0  0  0  0  # atno 17321 bound_to 7965
  139.5104  144.6883  151.5828 LP  0  0  0  0  0  0  0  0  0  0  0  0  # atno 17342 bound_to 10162
  140.6172  143.9327  150.6497 LP  0  0  0  0  0  0  0  0  0  0  0  0  # atno 17343 bound_to 10162
  156.0198  130.3800  150.1997 LP  0  0  0  0  0  0  0  0  0  0  0  0  # atno 17370 bound_to 10713
  157.0186  130.9972  151.3346 LP  0  0  0  0  0  0  0  0  0  0  0  0  # atno 17371 bound_to 10713
  140.6413  133.9815  155.7709 LP  0  0  0  0  0  0  0  0  0  0  0  0  # atno 17394 bound_to 11000
  141.0769  134.0121  157.3444 LP  0  0  0  0  0  0  0  0  0  0  0  0  # atno 17395 bound_to 11000

$$$$
