AV-unprocessed.smi:3167|AV-procd|sdf|12098|dock1
  -GOLD-   2272017533D 1   1.00000     0.00000
 Structure written by MMmdl.
 37 38  0  0  0  0  0  0  0  0  2 V2000
  151.9740  145.0634  159.0580 C   0  0  0  0  0  0  0  0  0  0  0  0
  151.4936  143.5944  159.0356 C   0  0  1  0  0  0  0  0  0  0  0  0
  151.9065  142.9027  157.7139 C   0  0  0  0  0  0  0  0  0  0  0  0
  150.7717  142.7119  156.8182 N   0  0  0  0  0  0  0  0  0  0  0  0
  150.5056  141.5691  156.1722 C   0  0  0  0  0  0  0  0  0  0  0  0
  151.1980  140.5564  156.2753 O   0  0  0  0  0  0  0  0  0  0  0  0
  149.4032  141.6801  155.4131 N   0  0  0  0  0  0  0  0  0  0  0  0
  148.8186  140.6816  154.5936 C   0  0  0  0  0  0  0  0  0  0  0  0
  149.2381  139.3242  154.5479 C   0  0  0  0  0  0  0  0  0  0  0  0
  148.5102  138.6213  153.6922 N   0  0  0  0  0  0  0  0  0  0  0  0
  147.6304  139.5170  153.1903 N   0  0  0  0  0  0  0  0  0  0  0  0
  147.7810  140.7838  153.7099 C   0  0  0  0  0  0  0  0  0  0  0  0
  152.0138  142.8372  160.2113 N   0  3  0  0  0  0  0  0  0  0  0  0
  153.4000  142.3339  160.0908 C   0  0  0  0  0  0  0  0  0  0  0  0
  153.8523  142.0701  161.5219 C   0  0  0  0  0  0  0  0  0  0  0  0
  153.2058  143.2092  162.3006 C   0  0  0  0  0  0  0  0  0  0  0  0
  151.9350  143.5526  161.5112 C   0  0  0  0  0  0  0  0  0  0  0  0
  146.9415  139.2517  152.5010 H   0  0  0  0  0  0  0  0  0  0  0  0
  151.6052  145.6231  158.1986 H   0  0  0  0  0  0  0  0  0  0  0  0
  153.0627  145.1232  159.0457 H   0  0  0  0  0  0  0  0  0  0  0  0
  151.6197  145.5970  159.9397 H   0  0  0  0  0  0  0  0  0  0  0  0
  150.4040  143.5972  159.0986 H   0  0  0  0  0  0  0  0  0  0  0  0
  152.6682  143.4967  157.2059 H   0  0  0  0  0  0  0  0  0  0  0  0
  152.3464  141.9230  157.9034 H   0  0  0  0  0  0  0  0  0  0  0  0
  150.1535  143.4981  156.6792 H   0  0  0  0  0  0  0  0  0  0  0  0
  148.9315  142.5726  155.4202 H   0  0  0  0  0  0  0  0  0  0  0  0
  150.0302  138.8357  155.0958 H   0  0  0  0  0  0  0  0  0  0  0  0
  147.1544  141.6101  153.4092 H   0  0  0  0  0  0  0  0  0  0  0  0
  153.4576  141.4364  159.4742 H   0  0  0  0  0  0  0  0  0  0  0  0
  154.0332  143.1005  159.6408 H   0  0  0  0  0  0  0  0  0  0  0  0
  153.4573  141.1132  161.8661 H   0  0  0  0  0  0  0  0  0  0  0  0
  154.9374  142.0454  161.6273 H   0  0  0  0  0  0  0  0  0  0  0  0
  152.9972  142.9396  163.3363 H   0  0  0  0  0  0  0  0  0  0  0  0
  153.8744  144.0710  162.3117 H   0  0  0  0  0  0  0  0  0  0  0  0
  151.8707  144.6332  161.3760 H   0  0  0  0  0  0  0  0  0  0  0  0
  151.0391  143.2301  162.0427 H   0  0  0  0  0  0  0  0  0  0  0  0
  151.4346  142.0159  160.3124 H   0  0  0  0  0  0  0  0  0  0  0  0
  1  2  1  0  0  0  0
  1 19  1  0  0  0  0
  1 20  1  0  0  0  0
  1 21  1  0  0  0  0
  2  3  1  0  0  0  0
  2 13  1  0  0  0  0
  2 22  1  0  0  0  0
  3  4  1  0  0  0  0
  3 23  1  0  0  0  0
  3 24  1  0  0  0  0
  4  5  1  0  0  0  0
  4 25  1  0  0  0  0
  5  6  2  0  0  0  0
  5  7  1  0  0  0  0
  7  8  1  0  0  0  0
  7 26  1  0  0  0  0
  8 12  2  0  0  0  0
  8  9  1  0  0  0  0
  9 10  2  0  0  0  0
  9 27  1  0  0  0  0
 10 11  1  0  0  0  0
 11 18  1  0  0  0  0
 11 12  1  0  0  0  0
 12 28  1  0  0  0  0
 13 17  1  0  0  0  0
 13 14  1  0  0  0  0
 13 37  1  0  0  0  0
 14 15  1  0  0  0  0
 14 29  1  0  0  0  0
 14 30  1  0  0  0  0
 15 16  1  0  0  0  0
 15 31  1  0  0  0  0
 15 32  1  0  0  0  0
 16 17  1  0  0  0  0
 16 33  1  0  0  0  0
 16 34  1  0  0  0  0
 17 35  1  0  0  0  0
 17 36  1  0  0  0  0
M  CHG  1  13   1
M  END
> <s_m_source_file>
AV-unprocessed.smi

> <i_m_source_file_index>
3167

> <i_lp_mmshare_version>
43012

> <i_f3d_flags>
0

> <s_epik_input>
W0NIMl0xW0NIMl1bQ0gyXVtDSDJdTjFbQ0BIXShbQ0gzXSlbQ0gyXVtOSF1DKD1PKVtOSF1jMltjSF1uW25IXVtjSF0y

> <s_epik_cmdline>
J2VwaWtfcHl0aG9uJywgJy1waCcsICc3LjAnLCAnLXRuJywgJzgnLCAnLW1hJywgJzIwMCcsICctbWV0YWxfYmluZGluZycsICctaW1hZScsICc8aW5maWxlLm1hZT4nLCAnLW9tYWUnLCAnPG91dGZpbGUubWFlPic=

> <r_lp_tautomer_probability>
0.5

> <r_epik_Ionization_Penalty>
0.000801258

> <r_epik_Ionization_Penalty_Charging>
0.000761583

> <r_epik_Ionization_Penalty_Neutral>
3.96747e-05

> <r_epik_State_Penalty>
0.000487427

> <r_epik_Charging_Adjusted_Penalty>
0.00124901

> <i_epik_Tot_Q>
1

> <i_epik_Tot_abs_Q>
1

> <r_epik_Metal_State_Penalty>
-0

> <b_epik_Metal_Only>
0

> <s_lp_Force_Field>
OPLS_2005

> <r_lp_Energy>
33.9812

> <b_lp_Chiralities_Consistent>
1

> <s_lp_Variant>
AV-unprocessed.smi:3167-2

> <Gold.Version>
5.8.1

> <Gold.Id.Protein>
6NUR|6NUR_protein|mol2

> <Gold.PLP.Fitness>
44.0964

> <Gold.PLP.PLP>
-40.1757

> <Gold.PLP.part.hbond>
-3.0000

> <Gold.PLP.part.metal>
0.0000

> <Gold.PLP.part.buried>
-8.1463

> <Gold.PLP.part.nonpolar>
-29.8200

> <Gold.PLP.part.repulsive>
1.9799

> <Gold.PLP.ligand.clash>
0.0000

> <Gold.PLP.ligand.torsion>
1.0595

> <Gold.PLP.Chemscore.Hbond>
2.0000

> <Gold.PLP.Chemscore.CHOScore>
0.0000

> <Gold.PLP.Chemscore.Metal>
0.0000

> <Gold.Chemscore.Hbonds>
donor molecule, donor type, donor heavy atom, donor atom, acceptor molecule, acceptor atom, score
      L1  H     4    25       P1  8028  1.00
      L1  H     7    26       P1  8028  0.70

> <Gold.PLP.Chemscore.Internal.Correction>
0.0397

> <Gold.Rescore>
     Score         DG    S(hbond)    S(metal)    S(lipo)     H(rot)  DE(clash)    DE(int)     intcor
     17.46     -19.87       1.96        0.00     102.77       1.63       0.20       2.22       ----

> <Gold.Chemscore.Fitness>
17.4561

> <Gold.Chemscore.DG>
-19.8743

> <Gold.Chemscore.ZeroCoef>
-5.4800

> <Gold.Chemscore.Hbond>
1.9600

> <Gold.Chemscore.Metal>
0.0000

> <Gold.Chemscore.Lipo>
102.7671

> <Gold.Chemscore.Internal_Hbond>
0.0000

> <Gold.Chemscore.DEClash>
0.2017

> <Gold.Chemscore.DEInternal>
2.2165

> <Gold.Chemscore.Rot>
1.6311

> <Gold.Chemscore.Internal.Correction>
   9.000000E+99

> <Gold.Chemscore.Hbonds>
donor molecule, donor type, donor heavy atom, donor atom, acceptor molecule, acceptor atom, score
      L1  H     4    25       P1  8028  0.92
      L1  H     7    26       P1  8028  0.67

> <Gold.Chemscore.Hbond.Weighted>
-6.5463

> <Gold.Chemscore.Metal.Weighted>
-0.0000

> <Gold.Chemscore.Lipo.Weighted>
-12.0238

> <Gold.Chemscore.Internal_Hbond.Weighted>
0.0000

> <Gold.Chemscore.DEClash.Weighted>
0.2017

> <Gold.Chemscore.DEInternal.Weighted>
2.2165

> <Gold.Chemscore.Rot.Weighted>
4.1757

> <Gold.Chemscore.Internal.Correction.Weighted>
   9.000000E+99

> <Gold.Protein.RotatedTorsions>
[ 6907 6896 6895 6894 ] final  166.09 input  -60.11 | X-H torsion
[ 7974 7965 7964 7962 ] final   16.03 input  175.53 | X-H torsion
[ 8008 7997 7996 7995 ] final -160.11 input   59.86 | X-H torsion
[ 10167 10162 10161 10158 ] final  101.66 input  -65.29 | X-H torsion
[ 10718 10713 10712 10709 ] final  -80.38 input   66.30 | X-H torsion
[ 10763 10752 10751 10750 ] final  -86.26 input  -60.55 | X-H torsion
[ 11005 11000 10999 10996 ] final  107.47 input  -57.11 | X-H torsion

> <Gold.Protein.ActiveResidues>
 VAL166  LYS551  ARG553  GLY616  TRP617  ASP618  TYR619  PRO620  LYS621  CYS622 
 ASP623  PHE694  ASN695  SER759  ASP760  ASP761  ALA762  ILE779  LEU786  VAL792 
 PHE793  MET794  SER795  GLU796  ALA797  LYS798  CYS799  TRP800  GLU811  SER814 

> <Gold.Protein.RotatedAtoms>
  151.8844  133.3502  159.3776 H   0  0  0  0  0  0  0  0  0  0  0  0  # atno 6907 bound_to 6896
  150.7119  134.4987  159.5560 H   0  0  0  0  0  0  0  0  0  0  0  0  # atno 6908 bound_to 6896
  152.2545  134.8099  160.0491 H   0  0  0  0  0  0  0  0  0  0  0  0  # atno 6909 bound_to 6896
  146.2261  139.8807  142.8571 H   0  0  0  0  0  0  0  0  0  0  0  0  # atno 7974 bound_to 7965
  155.7726  140.0854  157.2100 H   0  0  0  0  0  0  0  0  0  0  0  0  # atno 8008 bound_to 7997
  154.3995  140.1522  156.3016 H   0  0  0  0  0  0  0  0  0  0  0  0  # atno 8009 bound_to 7997
  155.8733  140.3424  155.5839 H   0  0  0  0  0  0  0  0  0  0  0  0  # atno 8010 bound_to 7997
  139.7418  144.7009  151.0563 H   0  0  0  0  0  0  0  0  0  0  0  0  # atno 10167 bound_to 10162
  156.0071  130.4573  150.3792 H   0  0  0  0  0  0  0  0  0  0  0  0  # atno 10718 bound_to 10713
  154.6204  135.5456  153.7569 H   0  0  0  0  0  0  0  0  0  0  0  0  # atno 10763 bound_to 10752
  153.0236  135.6411  154.1449 H   0  0  0  0  0  0  0  0  0  0  0  0  # atno 10764 bound_to 10752
  154.1383  135.2910  155.3147 H   0  0  0  0  0  0  0  0  0  0  0  0  # atno 10765 bound_to 10752
  139.8828  134.9401  156.5824 H   0  0  0  0  0  0  0  0  0  0  0  0  # atno 11005 bound_to 11000
  145.2515  141.0045  143.3878 LP  0  0  0  0  0  0  0  0  0  0  0  0  # atno 17320 bound_to 7965
  144.9370  139.4232  143.6467 LP  0  0  0  0  0  0  0  0  0  0  0  0  # atno 17321 bound_to 7965
  140.7787  143.4915  150.9888 LP  0  0  0  0  0  0  0  0  0  0  0  0  # atno 17342 bound_to 10162
  139.8603  143.7323  152.3173 LP  0  0  0  0  0  0  0  0  0  0  0  0  # atno 17343 bound_to 10162
  157.1872  131.0406  151.2718 LP  0  0  0  0  0  0  0  0  0  0  0  0  # atno 17370 bound_to 10713
  157.4093  130.7376  149.6827 LP  0  0  0  0  0  0  0  0  0  0  0  0  # atno 17371 bound_to 10713
  140.8017  133.8500  155.8732 LP  0  0  0  0  0  0  0  0  0  0  0  0  # atno 17394 bound_to 11000
  140.9586  134.1685  157.4672 LP  0  0  0  0  0  0  0  0  0  0  0  0  # atno 17395 bound_to 11000

$$$$
