AV-unprocessed.smi:2815|AV-procd|sdf|10841|dock4
  -GOLD-   2272015283D 1   1.00000     0.00000
 Structure written by MMmdl.
 47 48  0  0  0  0  0  0  0  0  1 V2000
  145.1425  136.4275  151.5476 C   0  0  0  0  0  0  0  0  0  0  0  0
  145.4048  136.7833  152.8938 O   0  0  0  0  0  0  0  0  0  0  0  0
  145.4301  138.1873  153.0879 C   0  0  0  0  0  0  0  0  0  0  0  0
  146.7833  138.7319  152.6142 C   0  0  0  0  0  0  0  0  0  0  0  0
  147.1472  139.9496  153.3201 N   0  0  0  0  0  0  0  0  0  0  0  0
  146.4244  141.0723  153.0882 N   0  0  0  0  0  0  0  0  0  0  0  0
  146.9696  142.0055  153.8502 C   0  0  0  0  0  0  0  0  0  0  0  0
  146.4167  143.4016  153.8299 C   0  0  0  0  0  0  0  0  0  0  0  0
  148.0386  141.4698  154.6163 C   0  0  0  0  0  0  0  0  0  0  0  0
  148.8288  142.2207  155.5225 N   0  0  0  0  0  0  0  0  0  0  0  0
  149.3683  141.7813  156.6700 C   0  0  0  0  0  0  0  0  0  0  0  0
  149.2775  140.6295  157.0949 O   0  0  0  0  0  0  0  0  0  0  0  0
  150.0088  142.7652  157.3175 N   0  0  0  0  0  0  0  0  0  0  0  0
  150.6942  142.6238  158.5988 C   0  0  0  0  0  0  0  0  0  0  0  0
  151.5194  143.8877  158.9193 C   0  0  0  0  0  0  0  0  0  0  0  0
  152.3111  143.7263  160.2272 C   0  0  0  0  0  0  0  0  0  0  0  0
  153.2061  142.4781  160.1891 C   0  0  0  0  0  0  0  0  0  0  0  0
  152.3853  141.2175  159.8764 C   0  0  0  0  0  0  0  0  0  0  0  0
  151.5976  141.3764  158.5660 C   0  0  0  0  0  0  0  0  0  0  0  0
  148.1670  140.1590  154.2376 C   0  0  0  0  0  0  0  0  0  0  0  0
  149.1385  139.0866  154.6253 C   0  0  0  0  0  0  0  0  0  0  0  0
  145.1348  135.3419  151.4504 H   0  0  0  0  0  0  0  0  0  0  0  0
  145.9095  136.8199  150.8788 H   0  0  0  0  0  0  0  0  0  0  0  0
  144.1704  136.8011  151.2234 H   0  0  0  0  0  0  0  0  0  0  0  0
  144.6203  138.6566  152.5268 H   0  0  0  0  0  0  0  0  0  0  0  0
  145.2780  138.4194  154.1431 H   0  0  0  0  0  0  0  0  0  0  0  0
  147.5685  137.9896  152.7566 H   0  0  0  0  0  0  0  0  0  0  0  0
  146.7466  138.9373  151.5431 H   0  0  0  0  0  0  0  0  0  0  0  0
  147.1258  144.1161  154.2479 H   0  0  0  0  0  0  0  0  0  0  0  0
  145.4984  143.4653  154.4134 H   0  0  0  0  0  0  0  0  0  0  0  0
  146.1887  143.7220  152.8130 H   0  0  0  0  0  0  0  0  0  0  0  0
  148.8777  143.2140  155.3497 H   0  0  0  0  0  0  0  0  0  0  0  0
  150.0257  143.6809  156.8933 H   0  0  0  0  0  0  0  0  0  0  0  0
  149.9492  142.4804  159.3839 H   0  0  0  0  0  0  0  0  0  0  0  0
  152.2113  144.0941  158.1015 H   0  0  0  0  0  0  0  0  0  0  0  0
  150.8652  144.7567  158.9962 H   0  0  0  0  0  0  0  0  0  0  0  0
  152.9187  144.6137  160.4054 H   0  0  0  0  0  0  0  0  0  0  0  0
  151.6180  143.6528  161.0659 H   0  0  0  0  0  0  0  0  0  0  0  0
  153.9812  142.6070  159.4326 H   0  0  0  0  0  0  0  0  0  0  0  0
  153.7208  142.3605  161.1430 H   0  0  0  0  0  0  0  0  0  0  0  0
  153.0445  140.3515  159.8115 H   0  0  0  0  0  0  0  0  0  0  0  0
  151.6938  141.0188  160.6963 H   0  0  0  0  0  0  0  0  0  0  0  0
  150.9965  140.4836  158.3899 H   0  0  0  0  0  0  0  0  0  0  0  0
  152.2971  141.4476  157.7317 H   0  0  0  0  0  0  0  0  0  0  0  0
  150.0826  139.5161  154.9590 H   0  0  0  0  0  0  0  0  0  0  0  0
  149.3675  138.4285  153.7883 H   0  0  0  0  0  0  0  0  0  0  0  0
  148.7382  138.4770  155.4353 H   0  0  0  0  0  0  0  0  0  0  0  0
  1  2  1  0  0  0  0
  1 22  1  0  0  0  0
  1 23  1  0  0  0  0
  1 24  1  0  0  0  0
  2  3  1  0  0  0  0
  3  4  1  0  0  0  0
  3 25  1  0  0  0  0
  3 26  1  0  0  0  0
  4  5  1  0  0  0  0
  4 27  1  0  0  0  0
  4 28  1  0  0  0  0
  5 20  1  0  0  0  0
  5  6  1  0  0  0  0
  6  7  2  0  0  0  0
  7  8  1  0  0  0  0
  7  9  1  0  0  0  0
  8 29  1  0  0  0  0
  8 30  1  0  0  0  0
  8 31  1  0  0  0  0
  9 10  1  0  0  0  0
  9 20  2  0  0  0  0
 10 11  1  0  0  0  0
 10 32  1  0  0  0  0
 11 12  2  0  0  0  0
 11 13  1  0  0  0  0
 13 14  1  0  0  0  0
 13 33  1  0  0  0  0
 14 19  1  0  0  0  0
 14 15  1  0  0  0  0
 14 34  1  0  0  0  0
 15 16  1  0  0  0  0
 15 35  1  0  0  0  0
 15 36  1  0  0  0  0
 16 17  1  0  0  0  0
 16 37  1  0  0  0  0
 16 38  1  0  0  0  0
 17 18  1  0  0  0  0
 17 39  1  0  0  0  0
 17 40  1  0  0  0  0
 18 19  1  0  0  0  0
 18 41  1  0  0  0  0
 18 42  1  0  0  0  0
 19 43  1  0  0  0  0
 19 44  1  0  0  0  0
 20 21  1  0  0  0  0
 21 45  1  0  0  0  0
 21 46  1  0  0  0  0
 21 47  1  0  0  0  0
M  END
> <s_m_source_file>
AV-unprocessed.smi

> <i_m_source_file_index>
2815

> <i_lp_mmshare_version>
43012

> <i_f3d_flags>
0

> <s_epik_input>
W0NIM11PW0NIMl1bQ0gyXW4xbmMoW0NIM10pYyhjMVtDSDNdKVtOSF1DKD1PKVtOSF1bQ0hdMltDSDJdW0NIMl1bQ0gyXVtDSDJdW0NIMl0y

> <s_epik_cmdline>
J2VwaWtfcHl0aG9uJywgJy1waCcsICc3LjAnLCAnLXRuJywgJzgnLCAnLW1hJywgJzIwMCcsICctbWV0YWxfYmluZGluZycsICctaW1hZScsICc8aW5maWxlLm1hZT4nLCAnLW9tYWUnLCAnPG91dGZpbGUubWFlPic=

> <r_lp_tautomer_probability>
1

> <r_epik_Ionization_Penalty>
0.00692603

> <r_epik_Ionization_Penalty_Charging>
0

> <r_epik_Ionization_Penalty_Neutral>
0.00692603

> <r_epik_State_Penalty>
0.00511675

> <r_epik_Charging_Adjusted_Penalty>
0.00511675

> <i_epik_Tot_Q>
0

> <i_epik_Tot_abs_Q>
0

> <r_epik_Metal_State_Penalty>
-0

> <b_epik_Metal_Only>
0

> <s_lp_Force_Field>
OPLS_2005

> <r_lp_Energy>
15.031

> <b_lp_Chiralities_Consistent>
1

> <s_lp_Variant>
AV-unprocessed.smi:2815-1

> <Gold.Version>
5.8.1

> <Gold.Id.Protein>
6NUR|6NUR_protein|mol2

> <Gold.PLP.Fitness>
46.2584

> <Gold.PLP.PLP>
-41.8055

> <Gold.PLP.part.hbond>
-2.0000

> <Gold.PLP.part.metal>
0.0000

> <Gold.PLP.part.buried>
-3.1362

> <Gold.PLP.part.nonpolar>
-39.2848

> <Gold.PLP.part.repulsive>
1.9213

> <Gold.PLP.ligand.clash>
0.0000

> <Gold.PLP.ligand.torsion>
0.6886

> <Gold.PLP.Chemscore.Hbond>
1.8320

> <Gold.PLP.Chemscore.CHOScore>
0.0000

> <Gold.PLP.Chemscore.Metal>
0.0000

> <Gold.Chemscore.Hbonds>
donor molecule, donor type, donor heavy atom, donor atom, acceptor molecule, acceptor atom, score
      L1  H    10    32       P1  8028  0.99
      L1  H    13    33       P1  8028  0.75

> <Gold.PLP.Chemscore.Internal.Correction>
0.3341

> <Gold.Rescore>
     Score         DG    S(hbond)    S(metal)    S(lipo)     H(rot)  DE(clash)    DE(int)     intcor
     18.07     -20.87       1.71        0.00     115.56       1.50       0.65       2.15       ----

> <Gold.Chemscore.Fitness>
18.0684

> <Gold.Chemscore.DG>
-20.8653

> <Gold.Chemscore.ZeroCoef>
-5.4800

> <Gold.Chemscore.Hbond>
1.7080

> <Gold.Chemscore.Metal>
0.0000

> <Gold.Chemscore.Lipo>
115.5643

> <Gold.Chemscore.Internal_Hbond>
0.0000

> <Gold.Chemscore.DEClash>
0.6475

> <Gold.Chemscore.DEInternal>
2.1494

> <Gold.Chemscore.Rot>
1.5002

> <Gold.Chemscore.Internal.Correction>
   9.000000E+99

> <Gold.Chemscore.Hbonds>
donor molecule, donor type, donor heavy atom, donor atom, acceptor molecule, acceptor atom, score
      L1  H    10    32       P1  8028  0.92
      L1  H    13    33       P1  8028  0.74

> <Gold.Chemscore.Hbond.Weighted>
-5.7047

> <Gold.Chemscore.Metal.Weighted>
-0.0000

> <Gold.Chemscore.Lipo.Weighted>
-13.5210

> <Gold.Chemscore.Internal_Hbond.Weighted>
0.0000

> <Gold.Chemscore.DEClash.Weighted>
0.6475

> <Gold.Chemscore.DEInternal.Weighted>
2.1494

> <Gold.Chemscore.Rot.Weighted>
3.8404

> <Gold.Chemscore.Internal.Correction.Weighted>
   9.000000E+99

> <Gold.Protein.RotatedTorsions>
[ 6907 6896 6895 6894 ] final -178.30 input  -60.11 | X-H torsion
[ 7974 7965 7964 7962 ] final -152.77 input  175.53 | X-H torsion
[ 8008 7997 7996 7995 ] final -118.27 input   59.86 | X-H torsion
[ 10167 10162 10161 10158 ] final  -68.10 input  -65.29 | X-H torsion
[ 10718 10713 10712 10709 ] final -159.33 input   66.30 | X-H torsion
[ 10763 10752 10751 10750 ] final  107.97 input  -60.55 | X-H torsion
[ 11005 11000 10999 10996 ] final   23.56 input  -57.11 | X-H torsion

> <Gold.Protein.ActiveResidues>
 VAL166  LYS551  ARG553  GLY616  TRP617  ASP618  TYR619  PRO620  LYS621  CYS622 
 ASP623  PHE694  ASN695  SER759  ASP760  ASP761  ALA762  ILE779  LEU786  VAL792 
 PHE793  MET794  SER795  GLU796  ALA797  LYS798  CYS799  TRP800  GLU811  SER814 

> <Gold.Protein.RotatedAtoms>
  151.6350  133.3329  159.3117 H   0  0  0  0  0  0  0  0  0  0  0  0  # atno 6907 bound_to 6896
  150.8037  134.7151  159.6635 H   0  0  0  0  0  0  0  0  0  0  0  0  # atno 6908 bound_to 6896
  152.4131  134.6094  160.0073 H   0  0  0  0  0  0  0  0  0  0  0  0  # atno 6909 bound_to 6896
  144.7776  140.4617  143.5862 H   0  0  0  0  0  0  0  0  0  0  0  0  # atno 7974 bound_to 7965
  155.0969  140.0395  157.2685 H   0  0  0  0  0  0  0  0  0  0  0  0  # atno 8008 bound_to 7997
  154.6788  140.2628  155.6905 H   0  0  0  0  0  0  0  0  0  0  0  0  # atno 8009 bound_to 7997
  156.2687  140.2783  156.1324 H   0  0  0  0  0  0  0  0  0  0  0  0  # atno 8010 bound_to 7997
  140.5533  143.2312  151.6869 H   0  0  0  0  0  0  0  0  0  0  0  0  # atno 10167 bound_to 10162
  156.5666  130.8670  151.2825 H   0  0  0  0  0  0  0  0  0  0  0  0  # atno 10718 bound_to 10713
  153.4141  135.3827  155.2069 H   0  0  0  0  0  0  0  0  0  0  0  0  # atno 10763 bound_to 10752
  154.8740  135.3801  154.4464 H   0  0  0  0  0  0  0  0  0  0  0  0  # atno 10764 bound_to 10752
  153.4976  135.7088  153.5912 H   0  0  0  0  0  0  0  0  0  0  0  0  # atno 10765 bound_to 10752
  140.3683  134.2050  155.7668 H   0  0  0  0  0  0  0  0  0  0  0  0  # atno 11005 bound_to 11000
  145.6140  139.1516  143.3059 LP  0  0  0  0  0  0  0  0  0  0  0  0  # atno 17320 bound_to 7965
  146.1966  140.6255  142.9121 LP  0  0  0  0  0  0  0  0  0  0  0  0  # atno 17321 bound_to 7965
  139.5037  144.3782  152.0402 LP  0  0  0  0  0  0  0  0  0  0  0  0  # atno 17342 bound_to 10162
  140.2901  144.3763  150.6091 LP  0  0  0  0  0  0  0  0  0  0  0  0  # atno 17343 bound_to 10162
  157.7357  130.9767  150.2096 LP  0  0  0  0  0  0  0  0  0  0  0  0  # atno 17370 bound_to 10713
  156.2751  130.3726  149.7992 LP  0  0  0  0  0  0  0  0  0  0  0  0  # atno 17371 bound_to 10713
  141.1962  133.8086  157.0679 LP  0  0  0  0  0  0  0  0  0  0  0  0  # atno 17394 bound_to 11000
  140.0572  134.9774  157.1241 LP  0  0  0  0  0  0  0  0  0  0  0  0  # atno 17395 bound_to 11000

$$$$
