AV-unprocessed.smi:3248|AV-procd|sdf|12416|dock8
  -GOLD-   2272018303D 1   1.00000     0.00000
 Structure written by MMmdl.
 38 39  0  0  0  0  0  0  0  0  1 V2000
  150.3145  139.6273  157.9054 C   0  0  0  0  0  0  0  0  0  0  0  0
  151.2791  140.4506  157.0417 C   0  0  1  0  0  0  0  0  0  0  0  0
  150.5185  141.4059  156.0986 C   0  0  0  0  0  0  0  0  0  0  0  0
  149.6708  140.6981  155.1548 N   0  0  0  0  0  0  0  0  0  0  0  0
  148.3043  140.7900  154.9955 C   0  0  0  0  0  0  0  0  0  0  0  0
  147.9523  139.9220  154.0023 C   0  0  0  0  0  0  0  0  0  0  0  0
  149.1887  139.3382  153.6091 C   0  0  0  0  0  0  0  0  0  0  0  0
  150.2161  139.8065  154.2987 N   0  0  0  0  0  0  0  0  0  0  0  0
  152.1801  141.2022  157.9141 N   0  0  0  0  0  0  0  0  0  0  0  0
  151.8090  142.0765  158.8658 C   0  0  0  0  0  0  0  0  0  0  0  0
  150.6410  142.4325  159.0220 O   0  0  0  0  0  0  0  0  0  0  0  0
  152.8570  142.5927  159.5524 N   0  0  0  0  0  0  0  0  0  0  0  0
  154.0027  141.7452  159.9142 C   0  0  0  0  0  0  0  0  0  0  0  0
  153.7645  141.1843  161.3299 C   0  0  0  0  0  0  0  0  0  0  0  0
  153.5979  142.2567  162.2543 O   0  0  0  0  0  0  0  0  0  0  0  0
  152.5284  143.1365  161.9131 C   0  0  0  0  0  0  0  0  0  0  0  0
  152.7747  143.7165  160.5056 C   0  0  2  0  0  0  0  0  0  0  0  0
  151.7698  144.8270  160.1341 C   0  0  0  0  0  0  0  0  0  0  0  0
  149.6444  139.0318  157.2847 H   0  0  0  0  0  0  0  0  0  0  0  0
  149.7001  140.2687  158.5382 H   0  0  0  0  0  0  0  0  0  0  0  0
  150.8578  138.9399  158.5546 H   0  0  0  0  0  0  0  0  0  0  0  0
  151.8482  139.7452  156.4336 H   0  0  0  0  0  0  0  0  0  0  0  0
  149.8832  142.0766  156.6785 H   0  0  0  0  0  0  0  0  0  0  0  0
  151.2170  142.0387  155.5482 H   0  0  0  0  0  0  0  0  0  0  0  0
  147.7033  141.4531  155.6003 H   0  0  0  0  0  0  0  0  0  0  0  0
  146.9620  139.7311  153.6166 H   0  0  0  0  0  0  0  0  0  0  0  0
  149.3692  138.5923  152.8493 H   0  0  0  0  0  0  0  0  0  0  0  0
  153.1657  141.0029  157.8238 H   0  0  0  0  0  0  0  0  0  0  0  0
  154.1630  140.9190  159.2205 H   0  0  0  0  0  0  0  0  0  0  0  0
  154.9207  142.3338  159.8901 H   0  0  0  0  0  0  0  0  0  0  0  0
  152.8851  140.5391  161.3505 H   0  0  0  0  0  0  0  0  0  0  0  0
  154.6130  140.5763  161.6433 H   0  0  0  0  0  0  0  0  0  0  0  0
  151.5758  142.6067  161.9621 H   0  0  0  0  0  0  0  0  0  0  0  0
  152.4888  143.9358  162.6534 H   0  0  0  0  0  0  0  0  0  0  0  0
  153.7524  144.2019  160.5113 H   0  0  0  0  0  0  0  0  0  0  0  0
  151.9190  145.7015  160.7679 H   0  0  0  0  0  0  0  0  0  0  0  0
  150.7341  144.5164  160.2683 H   0  0  0  0  0  0  0  0  0  0  0  0
  151.8993  145.1492  159.1006 H   0  0  0  0  0  0  0  0  0  0  0  0
  1  2  1  0  0  0  0
  1 19  1  0  0  0  0
  1 20  1  0  0  0  0
  1 21  1  0  0  0  0
  2  3  1  0  0  0  0
  2  9  1  0  0  0  0
  2 22  1  0  0  0  0
  3  4  1  0  0  0  0
  3 23  1  0  0  0  0
  3 24  1  0  0  0  0
  4  8  1  0  0  0  0
  4  5  1  0  0  0  0
  5  6  2  0  0  0  0
  5 25  1  0  0  0  0
  6  7  1  0  0  0  0
  6 26  1  0  0  0  0
  7  8  2  0  0  0  0
  7 27  1  0  0  0  0
  9 10  1  0  0  0  0
  9 28  1  0  0  0  0
 10 11  2  0  0  0  0
 10 12  1  0  0  0  0
 12 17  1  0  0  0  0
 12 13  1  0  0  0  0
 13 14  1  0  0  0  0
 13 29  1  0  0  0  0
 13 30  1  0  0  0  0
 14 15  1  0  0  0  0
 14 31  1  0  0  0  0
 14 32  1  0  0  0  0
 15 16  1  0  0  0  0
 16 17  1  0  0  0  0
 16 33  1  0  0  0  0
 16 34  1  0  0  0  0
 17 18  1  0  0  0  0
 17 35  1  0  0  0  0
 18 36  1  0  0  0  0
 18 37  1  0  0  0  0
 18 38  1  0  0  0  0
M  END
> <s_m_source_file>
AV-unprocessed.smi

> <i_m_source_file_index>
3248

> <i_lp_mmshare_version>
43012

> <i_f3d_flags>
0

> <s_epik_input>
bjFbY0hdW2NIXVtjSF1uMVtDSDJdW0NAQEhdKFtDSDNdKVtOSF1DKD1PKU4yW0NIMl1bQ0gyXU9bQ0gyXVtDQEhdMltDSDNd

> <s_epik_cmdline>
J2VwaWtfcHl0aG9uJywgJy1waCcsICc3LjAnLCAnLXRuJywgJzgnLCAnLW1hJywgJzIwMCcsICctbWV0YWxfYmluZGluZycsICctaW1hZScsICc8aW5maWxlLm1hZT4nLCAnLW9tYWUnLCAnPG91dGZpbGUubWFlPic=

> <r_lp_tautomer_probability>
1

> <r_epik_Ionization_Penalty>
4.45233e-05

> <r_epik_Ionization_Penalty_Charging>
0

> <r_epik_Ionization_Penalty_Neutral>
4.45233e-05

> <r_epik_State_Penalty>
-0

> <r_epik_Charging_Adjusted_Penalty>
0

> <i_epik_Tot_Q>
0

> <i_epik_Tot_abs_Q>
0

> <r_epik_Metal_State_Penalty>
-0

> <b_epik_Metal_Only>
0

> <s_lp_Force_Field>
OPLS_2005

> <r_lp_Energy>
30.7838

> <b_lp_Chiralities_Consistent>
1

> <s_lp_Variant>
AV-unprocessed.smi:3248-4

> <Gold.Version>
5.8.1

> <Gold.Id.Protein>
6NUR|6NUR_protein|mol2

> <Gold.PLP.Fitness>
45.1987

> <Gold.PLP.PLP>
-38.3860

> <Gold.PLP.part.hbond>
-1.1970

> <Gold.PLP.part.metal>
0.0000

> <Gold.PLP.part.buried>
-1.4899

> <Gold.PLP.part.nonpolar>
-35.3651

> <Gold.PLP.part.repulsive>
0.3010

> <Gold.PLP.ligand.clash>
0.0000

> <Gold.PLP.ligand.torsion>
0.3063

> <Gold.PLP.Chemscore.Hbond>
1.0000

> <Gold.PLP.Chemscore.CHOScore>
1.3010

> <Gold.PLP.Chemscore.Metal>
0.0000

> <Gold.Chemscore.Hbonds>
donor molecule, donor type, donor heavy atom, donor atom, acceptor molecule, acceptor atom, score
      P1  H  7989  7998       L1     8  1.00
      L1  C     7    27       P1  7948  0.95
      L1  C     7    27       P1  7957  0.34

> <Gold.PLP.Chemscore.Internal.Correction>
0.5224

> <Gold.Rescore>
     Score         DG    S(hbond)    S(metal)    S(lipo)     H(rot)  DE(clash)    DE(int)     intcor
     11.55     -15.57       0.88        0.00      92.04       1.42       1.47       2.55       ----

> <Gold.Chemscore.Fitness>
11.5541

> <Gold.Chemscore.DG>
-15.5705

> <Gold.Chemscore.ZeroCoef>
-5.4800

> <Gold.Chemscore.Hbond>
0.8847

> <Gold.Chemscore.Metal>
0.0000

> <Gold.Chemscore.Lipo>
92.0380

> <Gold.Chemscore.Internal_Hbond>
0.0000

> <Gold.Chemscore.DEClash>
1.4672

> <Gold.Chemscore.DEInternal>
2.5492

> <Gold.Chemscore.Rot>
1.4191

> <Gold.Chemscore.Internal.Correction>
   9.000000E+99

> <Gold.Chemscore.Hbonds>
donor molecule, donor type, donor heavy atom, donor atom, acceptor molecule, acceptor atom, score
      P1  H  7989  7998       L1     8  0.29

> <Gold.Chemscore.Hbond.Weighted>
-2.9550

> <Gold.Chemscore.Metal.Weighted>
-0.0000

> <Gold.Chemscore.Lipo.Weighted>
-10.7684

> <Gold.Chemscore.Internal_Hbond.Weighted>
0.0000

> <Gold.Chemscore.DEClash.Weighted>
1.4672

> <Gold.Chemscore.DEInternal.Weighted>
2.5492

> <Gold.Chemscore.Rot.Weighted>
3.6330

> <Gold.Chemscore.Internal.Correction.Weighted>
   9.000000E+99

> <Gold.Protein.RotatedTorsions>
[ 6907 6896 6895 6894 ] final   28.90 input  -60.11 | X-H torsion
[ 7974 7965 7964 7962 ] final -115.34 input  175.53 | X-H torsion
[ 8008 7997 7996 7995 ] final  -37.96 input   59.86 | X-H torsion
[ 10167 10162 10161 10158 ] final   94.78 input  -65.29 | X-H torsion
[ 10718 10713 10712 10709 ] final   61.05 input   66.30 | X-H torsion
[ 10763 10752 10751 10750 ] final -157.58 input  -60.55 | X-H torsion
[ 11005 11000 10999 10996 ] final -126.85 input  -57.11 | X-H torsion

> <Gold.Protein.ActiveResidues>
 VAL166  LYS551  ARG553  GLY616  TRP617  ASP618  TYR619  PRO620  LYS621  CYS622 
 ASP623  PHE694  ASN695  SER759  ASP760  ASP761  ALA762  ILE779  LEU786  VAL792 
 PHE793  MET794  SER795  GLU796  ALA797  LYS798  CYS799  TRP800  GLU811  SER814 

> <Gold.Protein.RotatedAtoms>
  152.0236  134.9808  160.0570 H   0  0  0  0  0  0  0  0  0  0  0  0  # atno 6907 bound_to 6896
  152.1313  133.4404  159.4730 H   0  0  0  0  0  0  0  0  0  0  0  0  # atno 6908 bound_to 6896
  150.6856  134.2336  159.4487 H   0  0  0  0  0  0  0  0  0  0  0  0  # atno 6909 bound_to 6896
  145.1095  140.8603  143.3878 H   0  0  0  0  0  0  0  0  0  0  0  0  # atno 7974 bound_to 7965
  154.4044  140.1590  156.2622 H   0  0  0  0  0  0  0  0  0  0  0  0  # atno 8008 bound_to 7997
  155.9027  140.3432  155.6016 H   0  0  0  0  0  0  0  0  0  0  0  0  # atno 8009 bound_to 7997
  155.7429  140.0795  157.2228 H   0  0  0  0  0  0  0  0  0  0  0  0  # atno 8010 bound_to 7997
  139.8051  144.6797  150.9714 H   0  0  0  0  0  0  0  0  0  0  0  0  # atno 10167 bound_to 10162
  157.5799  130.8973  149.9413 H   0  0  0  0  0  0  0  0  0  0  0  0  # atno 10718 bound_to 10713
  154.7625  135.3122  154.8351 H   0  0  0  0  0  0  0  0  0  0  0  0  # atno 10763 bound_to 10752
  153.9108  135.6806  153.4755 H   0  0  0  0  0  0  0  0  0  0  0  0  # atno 10764 bound_to 10752
  153.1227  135.4815  154.9154 H   0  0  0  0  0  0  0  0  0  0  0  0  # atno 10765 bound_to 10752
  140.9647  134.0887  157.3932 H   0  0  0  0  0  0  0  0  0  0  0  0  # atno 11005 bound_to 11000
  145.0863  139.2923  143.5758 LP  0  0  0  0  0  0  0  0  0  0  0  0  # atno 17320 bound_to 7965
  146.3527  140.0385  142.8645 LP  0  0  0  0  0  0  0  0  0  0  0  0  # atno 17321 bound_to 7965
  140.7819  143.4242  151.0794 LP  0  0  0  0  0  0  0  0  0  0  0  0  # atno 17342 bound_to 10162
  139.7912  143.8216  152.3152 LP  0  0  0  0  0  0  0  0  0  0  0  0  # atno 17343 bound_to 10162
  156.0845  130.3669  150.0515 LP  0  0  0  0  0  0  0  0  0  0  0  0  # atno 17370 bound_to 10713
  156.8656  130.9507  151.3614 LP  0  0  0  0  0  0  0  0  0  0  0  0  # atno 17371 bound_to 10713
  139.8890  135.0102  156.6656 LP  0  0  0  0  0  0  0  0  0  0  0  0  # atno 17394 bound_to 11000
  140.7416  133.8973  155.8282 LP  0  0  0  0  0  0  0  0  0  0  0  0  # atno 17395 bound_to 11000

$$$$
