AV-unprocessed.smi:2202|AV-procd|sdf|8929|dock10
  -GOLD-   2272012143D 1   1.00000     0.00000
 Structure written by MMmdl.
 42 44  0  0  0  0  0  0  0  0  1 V2000
  156.5821  139.0644  162.8204 O   0  0  0  0  0  0  0  0  0  0  0  0
  155.7514  139.0361  161.9110 C   0  0  0  0  0  0  0  0  0  0  0  0
  155.7059  140.1404  160.8445 C   0  0  0  0  0  0  0  0  0  0  0  0
  154.3729  140.7391  160.6809 N   0  0  0  0  0  0  0  0  0  0  0  0
  153.5702  140.5083  159.6339 C   0  0  0  0  0  0  0  0  0  0  0  0
  153.8340  139.7917  158.6677 O   0  0  0  0  0  0  0  0  0  0  0  0
  152.2356  141.2432  159.7784 C   0  0  2  0  0  0  0  0  0  0  0  0
  151.9474  142.1512  158.5538 C   0  0  0  0  0  0  0  0  0  0  0  0
  152.6445  143.4930  158.6437 C   0  0  0  0  0  0  0  0  0  0  0  0
  152.7856  144.1232  159.8173 C   0  0  0  0  0  0  0  0  0  0  0  0
  152.2538  143.5191  161.1004 C   0  0  0  0  0  0  0  0  0  0  0  0
  152.3983  141.9746  161.1407 C   0  0  2  0  0  0  0  0  0  0  0  0
  153.8019  141.5513  161.5795 C   0  0  0  0  0  0  0  0  0  0  0  0
  154.3068  141.9207  162.6402 O   0  0  0  0  0  0  0  0  0  0  0  0
  154.8360  138.0635  161.7865 N   0  0  0  0  0  0  0  0  0  0  0  0
  154.6989  136.9287  162.6923 C   0  0  0  0  0  0  0  0  0  0  0  0
  154.8280  135.5905  161.9454 C   0  0  0  0  0  0  0  0  0  0  0  0
  154.5074  134.4041  162.8342 C   0  0  0  0  0  0  0  0  0  0  0  0
  154.2020  134.5865  164.2000 C   0  0  0  0  0  0  0  0  0  0  0  0
  153.9050  133.4505  164.9780 C   0  0  0  0  0  0  0  0  0  0  0  0
  153.9235  132.1835  164.3634 C   0  0  0  0  0  0  0  0  0  0  0  0
  154.2393  132.1084  162.9920 C   0  0  0  0  0  0  0  0  0  0  0  0
  154.5245  133.1910  162.2371 N   0  0  0  0  0  0  0  0  0  0  0  0
  156.4319  140.9126  161.1055 H   0  0  0  0  0  0  0  0  0  0  0  0
  156.0489  139.7229  159.8965 H   0  0  0  0  0  0  0  0  0  0  0  0
  151.4543  140.4855  159.8530 H   0  0  0  0  0  0  0  0  0  0  0  0
  152.2434  141.6617  157.6250 H   0  0  0  0  0  0  0  0  0  0  0  0
  150.8758  142.3342  158.4694 H   0  0  0  0  0  0  0  0  0  0  0  0
  152.9780  143.9530  157.7250 H   0  0  0  0  0  0  0  0  0  0  0  0
  153.2354  145.1040  159.8679 H   0  0  0  0  0  0  0  0  0  0  0  0
  152.7643  143.9823  161.9457 H   0  0  0  0  0  0  0  0  0  0  0  0
  151.2037  143.7979  161.1933 H   0  0  0  0  0  0  0  0  0  0  0  0
  151.6948  141.5687  161.8689 H   0  0  0  0  0  0  0  0  0  0  0  0
  154.1899  138.1125  161.0118 H   0  0  0  0  0  0  0  0  0  0  0  0
  155.4750  137.0045  163.4545 H   0  0  0  0  0  0  0  0  0  0  0  0
  153.7430  136.9852  163.2164 H   0  0  0  0  0  0  0  0  0  0  0  0
  154.1582  135.5709  161.0842 H   0  0  0  0  0  0  0  0  0  0  0  0
  155.8383  135.4807  161.5488 H   0  0  0  0  0  0  0  0  0  0  0  0
  154.1942  135.5719  164.6422 H   0  0  0  0  0  0  0  0  0  0  0  0
  153.6673  133.5490  166.0269 H   0  0  0  0  0  0  0  0  0  0  0  0
  153.7013  131.2906  164.9288 H   0  0  0  0  0  0  0  0  0  0  0  0
  154.2628  131.1537  162.4877 H   0  0  0  0  0  0  0  0  0  0  0  0
  1  2  2  0  0  0  0
  2  3  1  0  0  0  0
  2 15  1  0  0  0  0
  3  4  1  0  0  0  0
  3 24  1  0  0  0  0
  3 25  1  0  0  0  0
  4 13  1  0  0  0  0
  4  5  1  0  0  0  0
  5  6  2  0  0  0  0
  5  7  1  0  0  0  0
  7 12  1  0  0  0  0
  7  8  1  0  0  0  0
  7 26  1  0  0  0  0
  8  9  1  0  0  0  0
  8 27  1  0  0  0  0
  8 28  1  0  0  0  0
  9 10  2  0  0  0  0
  9 29  1  0  0  0  0
 10 11  1  0  0  0  0
 10 30  1  0  0  0  0
 11 12  1  0  0  0  0
 11 31  1  0  0  0  0
 11 32  1  0  0  0  0
 12 13  1  0  0  0  0
 12 33  1  0  0  0  0
 13 14  2  0  0  0  0
 15 16  1  0  0  0  0
 15 34  1  0  0  0  0
 16 17  1  0  0  0  0
 16 35  1  0  0  0  0
 16 36  1  0  0  0  0
 17 18  1  0  0  0  0
 17 37  1  0  0  0  0
 17 38  1  0  0  0  0
 18 23  1  0  0  0  0
 18 19  2  0  0  0  0
 19 20  1  0  0  0  0
 19 39  1  0  0  0  0
 20 21  2  0  0  0  0
 20 40  1  0  0  0  0
 21 22  1  0  0  0  0
 21 41  1  0  0  0  0
 22 23  2  0  0  0  0
 22 42  1  0  0  0  0
M  END
> <s_m_source_file>
AV-unprocessed.smi

> <i_m_source_file_index>
2202

> <i_lp_mmshare_version>
43012

> <i_f3d_flags>
0

> <s_epik_input>
W0NIMl0xW0NIXT1bQ0hdW0NIMl1bQ0BIXShbQ0BIXTEyKUMoPU8pTihDMj1PKVtDSDJdQyg9TylbTkhdW0NIMl1bQ0gyXWMzW2NIXVtjSF1bY0hdW2NIXW4z

> <s_epik_cmdline>
J2VwaWtfcHl0aG9uJywgJy1waCcsICc3LjAnLCAnLXRuJywgJzgnLCAnLW1hJywgJzIwMCcsICctbWV0YWxfYmluZGluZycsICctaW1hZScsICc8aW5maWxlLm1hZT4nLCAnLW9tYWUnLCAnPG91dGZpbGUubWFlPic=

> <r_lp_tautomer_probability>
1

> <r_epik_Ionization_Penalty>
0.0244696

> <r_epik_Ionization_Penalty_Charging>
0

> <r_epik_Ionization_Penalty_Neutral>
0.0244696

> <r_epik_State_Penalty>
0.0198648

> <r_epik_Charging_Adjusted_Penalty>
0.0198648

> <i_epik_Tot_Q>
0

> <i_epik_Tot_abs_Q>
0

> <r_epik_Metal_State_Penalty>
0.0190699

> <b_epik_Metal_Only>
0

> <s_lp_Force_Field>
OPLS_2005

> <r_lp_Energy>
13.8656

> <b_lp_Chiralities_Consistent>
1

> <s_lp_Variant>
AV-unprocessed.smi:2202-1

> <Gold.Version>
5.8.1

> <Gold.Id.Protein>
6NUR|6NUR_protein|mol2

> <Gold.PLP.Fitness>
48.5685

> <Gold.PLP.PLP>
-45.9747

> <Gold.PLP.part.hbond>
-2.0000

> <Gold.PLP.part.metal>
0.0000

> <Gold.PLP.part.buried>
-3.0335

> <Gold.PLP.part.nonpolar>
-40.0323

> <Gold.PLP.part.repulsive>
0.0091

> <Gold.PLP.ligand.clash>
0.0000

> <Gold.PLP.ligand.torsion>
0.2279

> <Gold.PLP.Chemscore.Hbond>
1.0000

> <Gold.PLP.Chemscore.CHOScore>
0.0000

> <Gold.PLP.Chemscore.Metal>
0.0000

> <Gold.Chemscore.Hbonds>
donor molecule, donor type, donor heavy atom, donor atom, acceptor molecule, acceptor atom, score
      P1  H  7997  8008       L1     6  0.98

> <Gold.PLP.Chemscore.Internal.Correction>
0.0496

> <Gold.Rescore>
     Score         DG    S(hbond)    S(metal)    S(lipo)     H(rot)  DE(clash)    DE(int)     intcor
     18.06     -18.36       0.86        0.00     126.04       1.85       0.08       0.23       ----

> <Gold.Chemscore.Fitness>
18.0615

> <Gold.Chemscore.DG>
-18.3647

> <Gold.Chemscore.ZeroCoef>
-5.4800

> <Gold.Chemscore.Hbond>
0.8636

> <Gold.Chemscore.Metal>
0.0000

> <Gold.Chemscore.Lipo>
126.0399

> <Gold.Chemscore.Internal_Hbond>
0.0000

> <Gold.Chemscore.DEClash>
0.0759

> <Gold.Chemscore.DEInternal>
0.2273

> <Gold.Chemscore.Rot>
1.8540

> <Gold.Chemscore.Internal.Correction>
   9.000000E+99

> <Gold.Chemscore.Hbonds>
donor molecule, donor type, donor heavy atom, donor atom, acceptor molecule, acceptor atom, score
      P1  H  7997  8008       L1     6  0.93

> <Gold.Chemscore.Hbond.Weighted>
-2.8843

> <Gold.Chemscore.Metal.Weighted>
-0.0000

> <Gold.Chemscore.Lipo.Weighted>
-14.7467

> <Gold.Chemscore.Internal_Hbond.Weighted>
0.0000

> <Gold.Chemscore.DEClash.Weighted>
0.0759

> <Gold.Chemscore.DEInternal.Weighted>
0.2273

> <Gold.Chemscore.Rot.Weighted>
4.7462

> <Gold.Chemscore.Internal.Correction.Weighted>
   9.000000E+99

> <Gold.Protein.RotatedTorsions>
[ 6907 6896 6895 6894 ] final -104.81 input  -60.11 | X-H torsion
[ 7974 7965 7964 7962 ] final  -72.73 input  175.53 | X-H torsion
[ 8008 7997 7996 7995 ] final -116.39 input   59.86 | X-H torsion
[ 10167 10162 10161 10158 ] final  116.83 input  -65.29 | X-H torsion
[ 10718 10713 10712 10709 ] final  -93.08 input   66.30 | X-H torsion
[ 10763 10752 10751 10750 ] final -152.87 input  -60.55 | X-H torsion
[ 11005 11000 10999 10996 ] final -130.79 input  -57.11 | X-H torsion

> <Gold.Protein.ActiveResidues>
 VAL166  LYS551  ARG553  GLY616  TRP617  ASP618  TYR619  PRO620  LYS621  CYS622 
 ASP623  PHE694  ASN695  SER759  ASP760  ASP761  ALA762  ILE779  LEU786  VAL792 
 PHE793  MET794  SER795  GLU796  ALA797  LYS798  CYS799  TRP800  GLU811  SER814 

> <Gold.Protein.RotatedAtoms>
  150.7305  134.0221  159.3704 H   0  0  0  0  0  0  0  0  0  0  0  0  # atno 6907 bound_to 6896
  151.8186  135.0656  160.0431 H   0  0  0  0  0  0  0  0  0  0  0  0  # atno 6908 bound_to 6896
  152.3020  133.5629  159.5661 H   0  0  0  0  0  0  0  0  0  0  0  0  # atno 6909 bound_to 6896
  145.6614  140.9251  143.0932 H   0  0  0  0  0  0  0  0  0  0  0  0  # atno 7974 bound_to 7965
  155.0671  140.0393  157.2596 H   0  0  0  0  0  0  0  0  0  0  0  0  # atno 8008 bound_to 7997
  154.7012  140.2673  155.6693 H   0  0  0  0  0  0  0  0  0  0  0  0  # atno 8009 bound_to 7997
  156.2761  140.2740  156.1623 H   0  0  0  0  0  0  0  0  0  0  0  0  # atno 8010 bound_to 7997
  139.6220  144.7102  151.2615 H   0  0  0  0  0  0  0  0  0  0  0  0  # atno 10167 bound_to 10162
  156.0009  130.5013  150.5723 H   0  0  0  0  0  0  0  0  0  0  0  0  # atno 10718 bound_to 10713
  154.7966  135.3226  154.7653 H   0  0  0  0  0  0  0  0  0  0  0  0  # atno 10763 bound_to 10752
  153.8330  135.6877  153.4816 H   0  0  0  0  0  0  0  0  0  0  0  0  # atno 10764 bound_to 10752
  153.1660  135.4642  154.9780 H   0  0  0  0  0  0  0  0  0  0  0  0  # atno 10765 bound_to 10752
  140.9315  134.1313  157.4230 H   0  0  0  0  0  0  0  0  0  0  0  0  # atno 11005 bound_to 11000
  144.7088  139.8454  143.7421 LP  0  0  0  0  0  0  0  0  0  0  0  0  # atno 17320 bound_to 7965
  146.1122  139.4128  143.0280 LP  0  0  0  0  0  0  0  0  0  0  0  0  # atno 17321 bound_to 7965
  140.7387  143.6638  150.8141 LP  0  0  0  0  0  0  0  0  0  0  0  0  # atno 17342 bound_to 10162
  140.0250  143.5502  152.2784 LP  0  0  0  0  0  0  0  0  0  0  0  0  # atno 17343 bound_to 10162
  157.3616  131.0750  151.1632 LP  0  0  0  0  0  0  0  0  0  0  0  0  # atno 17370 bound_to 10713
  157.2415  130.6571  149.5892 LP  0  0  0  0  0  0  0  0  0  0  0  0  # atno 17371 bound_to 10713
  139.8797  135.0006  156.6022 LP  0  0  0  0  0  0  0  0  0  0  0  0  # atno 17394 bound_to 11000
  140.7856  133.8624  155.8603 LP  0  0  0  0  0  0  0  0  0  0  0  0  # atno 17395 bound_to 11000

$$$$
