AV-unprocessed.smi:511|AV-procd|sdf|2767|dock6
  -GOLD-   2262023233D 1   1.00000     0.00000
 Structure written by MMmdl.
 44 46  0  0  0  0  0  0  0  0  2 V2000
  147.8934  138.7723  153.8250 C   0  0  0  0  0  0  0  0  0  0  0  0
  147.8029  139.0110  155.2173 O   0  0  0  0  0  0  0  0  0  0  0  0
  148.8569  138.4031  155.9457 C   0  0  0  0  0  0  0  0  0  0  0  0
  148.6947  138.7182  157.4389 C   0  0  0  0  0  0  0  0  0  0  0  0
  149.8124  138.2057  158.2312 N   0  0  0  0  0  0  0  0  0  0  0  0
  149.7832  137.3995  159.3291 C   0  0  0  0  0  0  0  0  0  0  0  0
  148.5966  136.8927  159.8617 N   0  0  0  0  0  0  0  0  0  0  0  0
  147.3497  136.6218  159.1500 C   0  0  0  0  0  0  0  0  0  0  0  0
  146.1464  137.2220  159.9030 C   0  0  0  0  0  0  0  0  0  0  0  0
  146.0473  136.6006  161.2234 N   0  0  0  0  0  0  0  0  0  0  0  0
  144.9217  137.1715  161.9483 C   0  0  0  0  0  0  0  0  0  0  0  0
  147.2856  136.8594  161.9586 C   0  0  0  0  0  0  0  0  0  0  0  0
  148.4833  136.2778  161.1810 C   0  0  0  0  0  0  0  0  0  0  0  0
  150.9764  137.1696  159.8808 N   0  0  0  0  0  0  0  0  0  0  0  0
  151.8438  137.8631  159.0522 C   0  0  0  0  0  0  0  0  0  0  0  0
  151.1694  138.5019  158.0593 C   0  0  0  0  0  0  0  0  0  0  0  0
  151.8224  139.3558  157.0414 C   0  0  0  0  0  0  0  0  0  0  0  0
  151.1634  139.9429  156.1854 O   0  0  0  0  0  0  0  0  0  0  0  0
  153.1842  139.3923  157.1928 N   0  5  0  0  0  0  0  0  0  0  0  0
  153.9077  138.7499  158.1743 C   0  0  0  0  0  0  0  0  0  0  0  0
  155.1354  138.8304  158.2346 O   0  0  0  0  0  0  0  0  0  0  0  0
  153.2578  137.9960  159.1158 N   0  0  0  0  0  0  0  0  0  0  0  0
  153.9998  137.3095  160.1771 C   0  0  0  0  0  0  0  0  0  0  0  0
  147.0578  139.2539  153.3172 H   0  0  0  0  0  0  0  0  0  0  0  0
  147.8518  137.7048  153.6044 H   0  0  0  0  0  0  0  0  0  0  0  0
  148.8180  139.1801  153.4149 H   0  0  0  0  0  0  0  0  0  0  0  0
  148.8379  137.3231  155.7944 H   0  0  0  0  0  0  0  0  0  0  0  0
  149.8205  138.7663  155.5854 H   0  0  0  0  0  0  0  0  0  0  0  0
  148.5920  139.7900  157.5694 H   0  0  0  0  0  0  0  0  0  0  0  0
  147.7635  138.3028  157.8203 H   0  0  0  0  0  0  0  0  0  0  0  0
  147.4012  137.0051  158.1318 H   0  0  0  0  0  0  0  0  0  0  0  0
  147.2252  135.5427  159.0484 H   0  0  0  0  0  0  0  0  0  0  0  0
  146.2519  138.3042  159.9954 H   0  0  0  0  0  0  0  0  0  0  0  0
  145.2300  137.0326  159.3429 H   0  0  0  0  0  0  0  0  0  0  0  0
  144.8354  136.7200  162.9372 H   0  0  0  0  0  0  0  0  0  0  0  0
  143.9892  136.9840  161.4147 H   0  0  0  0  0  0  0  0  0  0  0  0
  145.0335  138.2498  162.0730 H   0  0  0  0  0  0  0  0  0  0  0  0
  147.4196  137.9306  162.1153 H   0  0  0  0  0  0  0  0  0  0  0  0
  147.2266  136.3955  162.9439 H   0  0  0  0  0  0  0  0  0  0  0  0
  148.3875  135.1960  161.0766 H   0  0  0  0  0  0  0  0  0  0  0  0
  149.4005  136.4568  161.7432 H   0  0  0  0  0  0  0  0  0  0  0  0
  154.6088  138.0177  160.7415 H   0  0  0  0  0  0  0  0  0  0  0  0
  154.6616  136.5547  159.7502 H   0  0  0  0  0  0  0  0  0  0  0  0
  153.3459  136.8069  160.8897 H   0  0  0  0  0  0  0  0  0  0  0  0
  1  2  1  0  0  0  0
  1 24  1  0  0  0  0
  1 25  1  0  0  0  0
  1 26  1  0  0  0  0
  2  3  1  0  0  0  0
  3  4  1  0  0  0  0
  3 27  1  0  0  0  0
  3 28  1  0  0  0  0
  4  5  1  0  0  0  0
  4 29  1  0  0  0  0
  4 30  1  0  0  0  0
  5 16  1  0  0  0  0
  5  6  1  0  0  0  0
  6  7  1  0  0  0  0
  6 14  2  0  0  0  0
  7 13  1  0  0  0  0
  7  8  1  0  0  0  0
  8  9  1  0  0  0  0
  8 31  1  0  0  0  0
  8 32  1  0  0  0  0
  9 10  1  0  0  0  0
  9 33  1  0  0  0  0
  9 34  1  0  0  0  0
 10 11  1  0  0  0  0
 10 12  1  0  0  0  0
 11 35  1  0  0  0  0
 11 36  1  0  0  0  0
 11 37  1  0  0  0  0
 12 13  1  0  0  0  0
 12 38  1  0  0  0  0
 12 39  1  0  0  0  0
 13 40  1  0  0  0  0
 13 41  1  0  0  0  0
 14 15  1  0  0  0  0
 15 22  1  0  0  0  0
 15 16  2  0  0  0  0
 16 17  1  0  0  0  0
 17 18  2  0  0  0  0
 17 19  1  0  0  0  0
 19 20  1  0  0  0  0
 20 21  2  0  0  0  0
 20 22  1  0  0  0  0
 22 23  1  0  0  0  0
 23 42  1  0  0  0  0
 23 43  1  0  0  0  0
 23 44  1  0  0  0  0
M  CHG  1  19  -1
M  END
> <s_m_source_file>
AV-unprocessed.smi

> <i_m_source_file_index>
511

> <i_lp_mmshare_version>
43012

> <i_f3d_flags>
0

> <s_epik_input>
W0NIM11uMWMoPU8pW25IXWMoPU8pYyhjMTIpbihbQ0gyXVtDSDJdT1tDSDNdKWMobjIpTjNbQ0gyXVtDSDJdTihbQ0gzXSlbQ0gyXVtDSDJdMw==

> <s_epik_cmdline>
J2VwaWtfcHl0aG9uJywgJy1waCcsICc3LjAnLCAnLXRuJywgJzgnLCAnLW1hJywgJzIwMCcsICctbWV0YWxfYmluZGluZycsICctaW1hZScsICc8aW5maWxlLm1hZT4nLCAnLW9tYWUnLCAnPG91dGZpbGUubWFlPic=

> <r_epik_Ionization_Penalty>
7.66215

> <r_epik_Ionization_Penalty_Charging>
0.0825427

> <r_epik_Ionization_Penalty_Neutral>
7.5796

> <r_epik_State_Penalty>
7.65676

> <r_epik_Charging_Adjusted_Penalty>
7.73931

> <i_epik_Tot_Q>
-1

> <i_epik_Tot_abs_Q>
1

> <r_epik_Metal_State_Penalty>
3.6066

> <b_epik_Metal_Only>
1

> <s_lp_Force_Field>
OPLS_2005

> <r_lp_Energy>
52.5947

> <b_lp_Chiralities_Consistent>
1

> <s_lp_Variant>
AV-unprocessed.smi:511-4

> <Gold.Version>
5.8.1

> <Gold.Id.Protein>
6NUR|6NUR_protein|mol2

> <Gold.PLP.Fitness>
34.7438

> <Gold.PLP.PLP>
-24.8567

> <Gold.PLP.part.hbond>
-3.2484

> <Gold.PLP.part.metal>
0.0000

> <Gold.PLP.part.buried>
-2.7251

> <Gold.PLP.part.nonpolar>
-18.2837

> <Gold.PLP.part.repulsive>
0.0398

> <Gold.PLP.ligand.clash>
0.0000

> <Gold.PLP.ligand.torsion>
0.2158

> <Gold.PLP.Chemscore.Hbond>
3.3400

> <Gold.PLP.Chemscore.CHOScore>
0.0000

> <Gold.PLP.Chemscore.Metal>
0.0000

> <Gold.Chemscore.Hbonds>
donor molecule, donor type, donor heavy atom, donor atom, acceptor molecule, acceptor atom, score
      P1  H  6896  6909       L1    14  0.94
      P1  H  7997  8009       L1    21  0.40
      P1  H  7997  8010       L1    19  1.90

> <Gold.PLP.Chemscore.Internal.Correction>
0.2987

> <Gold.Rescore>
     Score         DG    S(hbond)    S(metal)    S(lipo)     H(rot)  DE(clash)    DE(int)     intcor
      9.03     -11.30       1.67        0.00      34.28       1.47       0.01       2.26       ----

> <Gold.Chemscore.Fitness>
9.0330

> <Gold.Chemscore.DG>
-11.3033

> <Gold.Chemscore.ZeroCoef>
-5.4800

> <Gold.Chemscore.Hbond>
1.6720

> <Gold.Chemscore.Metal>
0.0000

> <Gold.Chemscore.Lipo>
34.2824

> <Gold.Chemscore.Internal_Hbond>
0.0000

> <Gold.Chemscore.DEClash>
0.0073

> <Gold.Chemscore.DEInternal>
2.2630

> <Gold.Chemscore.Rot>
1.4735

> <Gold.Chemscore.Internal.Correction>
   9.000000E+99

> <Gold.Chemscore.Hbonds>
donor molecule, donor type, donor heavy atom, donor atom, acceptor molecule, acceptor atom, score
      P1  H  6896  6909       L1    14  0.53
      P1  H  7997  8009       L1    21  0.36
      P1  H  7997  8010       L1    19  0.19

> <Gold.Chemscore.Hbond.Weighted>
-5.5845

> <Gold.Chemscore.Metal.Weighted>
-0.0000

> <Gold.Chemscore.Lipo.Weighted>
-4.0110

> <Gold.Chemscore.Internal_Hbond.Weighted>
0.0000

> <Gold.Chemscore.DEClash.Weighted>
0.0073

> <Gold.Chemscore.DEInternal.Weighted>
2.2630

> <Gold.Chemscore.Rot.Weighted>
3.7722

> <Gold.Chemscore.Internal.Correction.Weighted>
   9.000000E+99

> <Gold.Protein.RotatedTorsions>
[ 6907 6896 6895 6894 ] final  101.37 input  -60.11 | X-H torsion
[ 7974 7965 7964 7962 ] final  -50.33 input  175.53 | X-H torsion
[ 8008 7997 7996 7995 ] final   72.84 input   59.86 | X-H torsion
[ 10167 10162 10161 10158 ] final   96.02 input  -65.29 | X-H torsion
[ 10718 10713 10712 10709 ] final -124.30 input   66.30 | X-H torsion
[ 10763 10752 10751 10750 ] final -154.71 input  -60.55 | X-H torsion
[ 11005 11000 10999 10996 ] final   29.67 input  -57.11 | X-H torsion

> <Gold.Protein.ActiveResidues>
 VAL166  LYS551  ARG553  GLY616  TRP617  ASP618  TYR619  PRO620  LYS621  CYS622 
 ASP623  PHE694  ASN695  SER759  ASP760  ASP761  ALA762  ILE779  LEU786  VAL792 
 PHE793  MET794  SER795  GLU796  ALA797  LYS798  CYS799  TRP800  GLU811  SER814 

> <Gold.Protein.RotatedAtoms>
  152.5351  134.0136  159.7949 H   0  0  0  0  0  0  0  0  0  0  0  0  # atno 6907 bound_to 6896
  151.0334  133.5762  159.2665 H   0  0  0  0  0  0  0  0  0  0  0  0  # atno 6908 bound_to 6896
  151.2758  135.0706  159.9204 H   0  0  0  0  0  0  0  0  0  0  0  0  # atno 6909 bound_to 6896
  145.9310  140.7749  142.9599 H   0  0  0  0  0  0  0  0  0  0  0  0  # atno 7974 bound_to 7965
  155.7748  140.3483  155.5266 H   0  0  0  0  0  0  0  0  0  0  0  0  # atno 8008 bound_to 7997
  155.8787  140.0998  157.1521 H   0  0  0  0  0  0  0  0  0  0  0  0  # atno 8009 bound_to 7997
  154.4023  140.1326  156.4156 H   0  0  0  0  0  0  0  0  0  0  0  0  # atno 8010 bound_to 7997
  139.7934  144.6843  150.9862 H   0  0  0  0  0  0  0  0  0  0  0  0  # atno 10167 bound_to 10162
  156.1575  130.6579  151.0003 H   0  0  0  0  0  0  0  0  0  0  0  0  # atno 10718 bound_to 10713
  154.7839  135.3184  154.7929 H   0  0  0  0  0  0  0  0  0  0  0  0  # atno 10763 bound_to 10752
  153.8634  135.6851  153.4785 H   0  0  0  0  0  0  0  0  0  0  0  0  # atno 10764 bound_to 10752
  153.1484  135.4709  154.9539 H   0  0  0  0  0  0  0  0  0  0  0  0  # atno 10765 bound_to 10752
  140.3024  134.2741  155.7751 H   0  0  0  0  0  0  0  0  0  0  0  0  # atno 11005 bound_to 11000
  144.6765  140.2128  143.7375 LP  0  0  0  0  0  0  0  0  0  0  0  0  # atno 17320 bound_to 7965
  145.8425  139.2137  143.1819 LP  0  0  0  0  0  0  0  0  0  0  0  0  # atno 17321 bound_to 7965
  140.7820  143.4357  151.0627 LP  0  0  0  0  0  0  0  0  0  0  0  0  # atno 17342 bound_to 10162
  139.8032  143.8054  152.3165 LP  0  0  0  0  0  0  0  0  0  0  0  0  # atno 17343 bound_to 10162
  157.6707  131.0862  150.7620 LP  0  0  0  0  0  0  0  0  0  0  0  0  # atno 17370 bound_to 10713
  156.7684  130.4821  149.5423 LP  0  0  0  0  0  0  0  0  0  0  0  0  # atno 17371 bound_to 10713
  141.2125  133.7655  156.9787 LP  0  0  0  0  0  0  0  0  0  0  0  0  # atno 17394 bound_to 11000
  140.1097  134.9484  157.2047 LP  0  0  0  0  0  0  0  0  0  0  0  0  # atno 17395 bound_to 11000

$$$$
