AV-unprocessed.smi:802|AV-procd|sdf|3792|dock6
  -GOLD-   22720 1233D 1   1.00000     0.00000
 Structure written by MMmdl.
 37 38  0  0  0  0  0  0  0  0  2 V2000
  147.5870  140.0686  153.9721 C   0  0  0  0  0  0  0  0  0  0  0  0
  149.0313  139.8480  154.3107 C   0  0  0  0  0  0  0  0  0  0  0  0
  149.7398  138.6195  154.4083 C   0  0  0  0  0  0  0  0  0  0  0  0
  151.0104  139.0040  154.7318 C   0  0  0  0  0  0  0  0  0  0  0  0
  152.2699  138.2462  154.9886 C   0  0  0  0  0  0  0  0  0  0  0  0
  152.3456  137.7291  156.7557 S   0  0  0  0  0  0  0  0  0  0  0  0
  150.9587  137.4390  157.1556 O   0  0  0  0  0  0  0  0  0  0  0  0
  153.3034  136.6124  156.8128 O   0  0  0  0  0  0  0  0  0  0  0  0
  152.9214  139.0821  157.4360 N   0  5  0  0  0  0  0  0  0  0  0  0
  152.1921  139.6890  158.5369 C   0  0  0  0  0  0  0  0  0  0  0  0
  152.4860  141.2130  158.6098 C   0  0  0  0  0  0  0  0  0  0  0  0
  152.6145  141.7485  160.0632 C   0  0  0  0  0  0  0  0  0  0  0  0
  152.9476  143.2497  160.0878 C   0  0  0  0  0  0  0  0  0  0  0  0
  151.9058  144.0666  159.3110 C   0  0  0  0  0  0  0  0  0  0  0  0
  151.7666  143.5522  157.8713 C   0  0  0  0  0  0  0  0  0  0  0  0
  151.4290  142.0520  157.8431 C   0  0  0  0  0  0  0  0  0  0  0  0
  151.0771  140.3567  154.8350 O   0  0  0  0  0  0  0  0  0  0  0  0
  149.8101  140.8862  154.5655 N   0  0  0  0  0  0  0  0  0  0  0  0
  147.0927  139.1287  153.7262 H   0  0  0  0  0  0  0  0  0  0  0  0
  147.4813  140.7326  153.1139 H   0  0  0  0  0  0  0  0  0  0  0  0
  147.0519  140.5163  154.8099 H   0  0  0  0  0  0  0  0  0  0  0  0
  149.3782  137.6133  154.2564 H   0  0  0  0  0  0  0  0  0  0  0  0
  152.3197  137.3523  154.3669 H   0  0  0  0  0  0  0  0  0  0  0  0
  153.1426  138.8607  154.7690 H   0  0  0  0  0  0  0  0  0  0  0  0
  151.1181  139.5436  158.4166 H   0  0  0  0  0  0  0  0  0  0  0  0
  152.4447  139.2338  159.4952 H   0  0  0  0  0  0  0  0  0  0  0  0
  153.4420  141.3815  158.1105 H   0  0  0  0  0  0  0  0  0  0  0  0
  151.6867  141.5858  160.6163 H   0  0  0  0  0  0  0  0  0  0  0  0
  153.3953  141.2197  160.6134 H   0  0  0  0  0  0  0  0  0  0  0  0
  152.9995  143.6007  161.1187 H   0  0  0  0  0  0  0  0  0  0  0  0
  153.9360  143.4114  159.6560 H   0  0  0  0  0  0  0  0  0  0  0  0
  150.9414  144.0062  159.8169 H   0  0  0  0  0  0  0  0  0  0  0  0
  152.1881  145.1198  159.3052 H   0  0  0  0  0  0  0  0  0  0  0  0
  150.9929  144.1160  157.3494 H   0  0  0  0  0  0  0  0  0  0  0  0
  152.6963  143.7271  157.3283 H   0  0  0  0  0  0  0  0  0  0  0  0
  151.3593  141.7383  156.7992 H   0  0  0  0  0  0  0  0  0  0  0  0
  150.4357  141.9094  158.2746 H   0  0  0  0  0  0  0  0  0  0  0  0
  1  2  1  0  0  0  0
  1 19  1  0  0  0  0
  1 20  1  0  0  0  0
  1 21  1  0  0  0  0
  2 18  2  0  0  0  0
  2  3  1  0  0  0  0
  3  4  2  0  0  0  0
  3 22  1  0  0  0  0
  4  5  1  0  0  0  0
  4 17  1  0  0  0  0
  5  6  1  0  0  0  0
  5 23  1  0  0  0  0
  5 24  1  0  0  0  0
  6  7  2  0  0  0  0
  6  8  2  0  0  0  0
  6  9  1  0  0  0  0
  9 10  1  0  0  0  0
 10 11  1  0  0  0  0
 10 25  1  0  0  0  0
 10 26  1  0  0  0  0
 11 16  1  0  0  0  0
 11 12  1  0  0  0  0
 11 27  1  0  0  0  0
 12 13  1  0  0  0  0
 12 28  1  0  0  0  0
 12 29  1  0  0  0  0
 13 14  1  0  0  0  0
 13 30  1  0  0  0  0
 13 31  1  0  0  0  0
 14 15  1  0  0  0  0
 14 32  1  0  0  0  0
 14 33  1  0  0  0  0
 15 16  1  0  0  0  0
 15 34  1  0  0  0  0
 15 35  1  0  0  0  0
 16 36  1  0  0  0  0
 16 37  1  0  0  0  0
 17 18  1  0  0  0  0
M  CHG  1   9  -1
M  END
> <s_m_source_file>
AV-unprocessed.smi

> <i_m_source_file_index>
802

> <i_lp_mmshare_version>
43012

> <i_f3d_flags>
0

> <s_epik_input>
W0NIM11jMVtjSF1jKG9uMSlbQ0gyXVMoPU8pKD1PKVtOSF1bQ0gyXVtDSF0yW0NIMl1bQ0gyXVtDSDJdW0NIMl1bQ0gyXTI=

> <s_epik_cmdline>
J2VwaWtfcHl0aG9uJywgJy1waCcsICc3LjAnLCAnLXRuJywgJzgnLCAnLW1hJywgJzIwMCcsICctbWV0YWxfYmluZGluZycsICctaW1hZScsICc8aW5maWxlLm1hZT4nLCAnLW9tYWUnLCAnPG91dGZpbGUubWFlPic=

> <r_lp_tautomer_probability>
1

> <r_epik_Ionization_Penalty>
5.54077

> <r_epik_Ionization_Penalty_Charging>
5.54077

> <r_epik_Ionization_Penalty_Neutral>
8.84355e-10

> <r_epik_State_Penalty>
5.54071

> <r_epik_Charging_Adjusted_Penalty>
11.0815

> <i_epik_Tot_Q>
-1

> <i_epik_Tot_abs_Q>
1

> <r_epik_Metal_State_Penalty>
1.54279

> <b_epik_Metal_Only>
1

> <s_lp_Force_Field>
OPLS_2005

> <r_lp_Energy>
6.62566

> <b_lp_Chiralities_Consistent>
1

> <s_lp_Variant>
AV-unprocessed.smi:802-2

> <Gold.Version>
5.8.1

> <Gold.Id.Protein>
6NUR|6NUR_protein|mol2

> <Gold.PLP.Fitness>
46.2076

> <Gold.PLP.PLP>
-37.4953

> <Gold.PLP.part.hbond>
-3.8676

> <Gold.PLP.part.metal>
0.0000

> <Gold.PLP.part.buried>
-4.1725

> <Gold.PLP.part.nonpolar>
-30.2839

> <Gold.PLP.part.repulsive>
0.2075

> <Gold.PLP.ligand.clash>
0.0000

> <Gold.PLP.ligand.torsion>
2.0553

> <Gold.PLP.Chemscore.Hbond>
3.9420

> <Gold.PLP.Chemscore.CHOScore>
0.0000

> <Gold.PLP.Chemscore.Metal>
0.0000

> <Gold.Chemscore.Hbonds>
donor molecule, donor type, donor heavy atom, donor atom, acceptor molecule, acceptor atom, score
      P1  H  7989  7998       L1    17  0.60
      P1  H  7997  8010       L1     9  2.00
      P1  H 10752 10765       L1     8  1.00

> <Gold.PLP.Chemscore.Internal.Correction>
0.9969

> <Gold.Rescore>
     Score         DG    S(hbond)    S(metal)    S(lipo)     H(rot)  DE(clash)    DE(int)     intcor
     19.73     -21.65       2.51        0.00      99.35       1.50       0.00       1.92       ----

> <Gold.Chemscore.Fitness>
19.7341

> <Gold.Chemscore.DG>
-21.6535

> <Gold.Chemscore.ZeroCoef>
-5.4800

> <Gold.Chemscore.Hbond>
2.5083

> <Gold.Chemscore.Metal>
0.0000

> <Gold.Chemscore.Lipo>
99.3545

> <Gold.Chemscore.Internal_Hbond>
0.0000

> <Gold.Chemscore.DEClash>
0.0000

> <Gold.Chemscore.DEInternal>
1.9193

> <Gold.Chemscore.Rot>
1.4956

> <Gold.Chemscore.Internal.Correction>
   9.000000E+99

> <Gold.Chemscore.Hbonds>
donor molecule, donor type, donor heavy atom, donor atom, acceptor molecule, acceptor atom, score
      P1  H  7989  7998       L1    17  0.02
      P1  H  7997  8010       L1     9  0.90
      P1  H 10752 10765       L1     8  0.93

> <Gold.Chemscore.Hbond.Weighted>
-8.3777

> <Gold.Chemscore.Metal.Weighted>
-0.0000

> <Gold.Chemscore.Lipo.Weighted>
-11.6245

> <Gold.Chemscore.Internal_Hbond.Weighted>
0.0000

> <Gold.Chemscore.DEClash.Weighted>
0.0000

> <Gold.Chemscore.DEInternal.Weighted>
1.9193

> <Gold.Chemscore.Rot.Weighted>
3.8287

> <Gold.Chemscore.Internal.Correction.Weighted>
   9.000000E+99

> <Gold.Protein.RotatedTorsions>
[ 6907 6896 6895 6894 ] final  103.90 input  -60.11 | X-H torsion
[ 7974 7965 7964 7962 ] final  170.03 input  175.53 | X-H torsion
[ 8008 7997 7996 7995 ] final   43.90 input   59.86 | X-H torsion
[ 10167 10162 10161 10158 ] final   68.57 input  -65.29 | X-H torsion
[ 10718 10713 10712 10709 ] final  130.73 input   66.30 | X-H torsion
[ 10763 10752 10751 10750 ] final -124.14 input  -60.55 | X-H torsion
[ 11005 11000 10999 10996 ] final    0.73 input  -57.11 | X-H torsion

> <Gold.Protein.ActiveResidues>
 VAL166  LYS551  ARG553  GLY616  TRP617  ASP618  TYR619  PRO620  LYS621  CYS622 
 ASP623  PHE694  ASN695  SER759  ASP760  ASP761  ALA762  ILE779  LEU786  VAL792 
 PHE793  MET794  SER795  GLU796  ALA797  LYS798  CYS799  TRP800  GLU811  SER814 

> <Gold.Protein.RotatedAtoms>
  152.5281  133.9756  159.7782 H   0  0  0  0  0  0  0  0  0  0  0  0  # atno 6907 bound_to 6896
  151.0020  133.6039  159.2701 H   0  0  0  0  0  0  0  0  0  0  0  0  # atno 6908 bound_to 6896
  151.3145  135.0809  159.9337 H   0  0  0  0  0  0  0  0  0  0  0  0  # atno 6909 bound_to 6896
  144.7336  139.9142  143.6416 H   0  0  0  0  0  0  0  0  0  0  0  0  # atno 7974 bound_to 7965
  155.3103  140.3390  155.4244 H   0  0  0  0  0  0  0  0  0  0  0  0  # atno 8008 bound_to 7997
  156.1959  140.1714  156.8038 H   0  0  0  0  0  0  0  0  0  0  0  0  # atno 8009 bound_to 7997
  154.5498  140.0708  156.8632 H   0  0  0  0  0  0  0  0  0  0  0  0  # atno 8010 bound_to 7997
  140.0772  144.5102  150.7186 H   0  0  0  0  0  0  0  0  0  0  0  0  # atno 10167 bound_to 10162
  157.5034  131.1095  150.9395 H   0  0  0  0  0  0  0  0  0  0  0  0  # atno 10718 bound_to 10713
  154.8719  135.4074  154.3057 H   0  0  0  0  0  0  0  0  0  0  0  0  # atno 10763 bound_to 10752
  153.3909  135.7015  153.6501 H   0  0  0  0  0  0  0  0  0  0  0  0  # atno 10764 bound_to 10752
  153.5284  135.3672  155.2636 H   0  0  0  0  0  0  0  0  0  0  0  0  # atno 10765 bound_to 10752
  140.6233  133.9642  155.8236 H   0  0  0  0  0  0  0  0  0  0  0  0  # atno 11005 bound_to 11000
  146.0978  139.3971  143.0365 LP  0  0  0  0  0  0  0  0  0  0  0  0  # atno 17320 bound_to 7965
  145.7621  140.9931  143.1194 LP  0  0  0  0  0  0  0  0  0  0  0  0  # atno 17321 bound_to 7965
  140.7096  143.2494  151.4622 LP  0  0  0  0  0  0  0  0  0  0  0  0  # atno 17342 bound_to 10162
  139.5801  144.1730  152.1956 LP  0  0  0  0  0  0  0  0  0  0  0  0  # atno 17343 bound_to 10162
  157.0059  130.5618  149.5316 LP  0  0  0  0  0  0  0  0  0  0  0  0  # atno 17370 bound_to 10713
  156.0243  130.5337  150.8363 LP  0  0  0  0  0  0  0  0  0  0  0  0  # atno 17371 bound_to 10713
  141.0727  134.0181  157.3502 LP  0  0  0  0  0  0  0  0  0  0  0  0  # atno 17394 bound_to 11000
  139.9145  135.0195  156.7825 LP  0  0  0  0  0  0  0  0  0  0  0  0  # atno 17395 bound_to 11000

$$$$
