AV-unprocessed.smi:1996|AV-procd|sdf|8084|dock2
  -GOLD-   2272010303D 1   1.00000     0.00000
 Structure written by MMmdl.
 33 34  0  0  0  0  0  0  0  0  1 V2000
  150.4437  140.5020  155.0207 O   0  0  0  0  0  0  0  0  0  0  0  0
  149.9885  140.1431  156.1070 C   0  0  0  0  0  0  0  0  0  0  0  0
  150.6282  140.3225  157.2719 N   0  0  0  0  0  0  0  0  0  0  0  0
  151.9254  140.9711  157.4231 C   0  0  0  0  0  0  0  0  0  0  0  0
  152.3308  141.0799  158.9035 C   0  0  0  0  0  0  0  0  0  0  0  0
  152.2109  142.4945  159.4451 C   0  0  0  0  0  0  0  0  0  0  0  0
  152.3742  142.7726  160.7532 C   0  0  0  0  0  0  0  0  0  0  0  0
  152.2538  144.1628  161.3530 C   0  0  0  0  0  0  0  0  0  0  0  0
  151.6043  145.1664  160.3851 C   0  0  0  0  0  0  0  0  0  0  0  0
  152.1525  145.0008  158.9622 C   0  0  0  0  0  0  0  0  0  0  0  0
  151.8956  143.5818  158.4240 C   0  0  0  0  0  0  0  0  0  0  0  0
  148.8048  139.5325  156.2915 N   0  0  0  0  0  0  0  0  0  0  0  0
  147.8314  139.1856  155.3176 C   0  0  0  0  0  0  0  0  0  0  0  0
  147.0708  138.0814  155.3845 N   0  0  0  0  0  0  0  0  0  0  0  0
  146.2048  137.9809  154.3032 N   0  0  0  0  0  0  0  0  0  0  0  0
  146.3458  139.0118  153.4650 C   0  0  0  0  0  0  0  0  0  0  0  0
  147.5502  140.2067  153.9146 S   0  0  0  0  0  0  0  0  0  0  0  0
  150.1830  139.9944  158.1166 H   0  0  0  0  0  0  0  0  0  0  0  0
  152.6574  140.3804  156.8721 H   0  0  0  0  0  0  0  0  0  0  0  0
  151.9075  141.9582  156.9575 H   0  0  0  0  0  0  0  0  0  0  0  0
  151.7083  140.4153  159.5041 H   0  0  0  0  0  0  0  0  0  0  0  0
  153.3583  140.7400  159.0383 H   0  0  0  0  0  0  0  0  0  0  0  0
  152.6152  141.9786  161.4452 H   0  0  0  0  0  0  0  0  0  0  0  0
  151.6737  144.1079  162.2744 H   0  0  0  0  0  0  0  0  0  0  0  0
  153.2543  144.4982  161.6276 H   0  0  0  0  0  0  0  0  0  0  0  0
  150.5245  145.0128  160.3718 H   0  0  0  0  0  0  0  0  0  0  0  0
  151.7672  146.1845  160.7395 H   0  0  0  0  0  0  0  0  0  0  0  0
  151.7051  145.7380  158.2950 H   0  0  0  0  0  0  0  0  0  0  0  0
  153.2250  145.1997  158.9669 H   0  0  0  0  0  0  0  0  0  0  0  0
  152.4904  143.4217  157.5241 H   0  0  0  0  0  0  0  0  0  0  0  0
  150.8494  143.4833  158.1326 H   0  0  0  0  0  0  0  0  0  0  0  0
  148.5679  139.2941  157.2432 H   0  0  0  0  0  0  0  0  0  0  0  0
  145.7360  139.0688  152.5755 H   0  0  0  0  0  0  0  0  0  0  0  0
  1  2  2  0  0  0  0
  2  3  1  0  0  0  0
  2 12  1  0  0  0  0
  3  4  1  0  0  0  0
  3 18  1  0  0  0  0
  4  5  1  0  0  0  0
  4 19  1  0  0  0  0
  4 20  1  0  0  0  0
  5  6  1  0  0  0  0
  5 21  1  0  0  0  0
  5 22  1  0  0  0  0
  6 11  1  0  0  0  0
  6  7  2  0  0  0  0
  7  8  1  0  0  0  0
  7 23  1  0  0  0  0
  8  9  1  0  0  0  0
  8 24  1  0  0  0  0
  8 25  1  0  0  0  0
  9 10  1  0  0  0  0
  9 26  1  0  0  0  0
  9 27  1  0  0  0  0
 10 11  1  0  0  0  0
 10 28  1  0  0  0  0
 10 29  1  0  0  0  0
 11 30  1  0  0  0  0
 11 31  1  0  0  0  0
 12 13  1  0  0  0  0
 12 32  1  0  0  0  0
 13 17  1  0  0  0  0
 13 14  2  0  0  0  0
 14 15  1  0  0  0  0
 15 16  2  0  0  0  0
 16 17  1  0  0  0  0
 16 33  1  0  0  0  0
M  END
> <s_m_source_file>
AV-unprocessed.smi

> <i_m_source_file_index>
1996

> <i_lp_mmshare_version>
43012

> <i_f3d_flags>
0

> <s_epik_input>
czFbY0hdbm5jMVtOSF1DKD1PKVtOSF1bQ0gyXVtDSDJdQzI9W0NIXVtDSDJdW0NIMl1bQ0gyXVtDSDJdMg==

> <s_epik_cmdline>
J2VwaWtfcHl0aG9uJywgJy1waCcsICc3LjAnLCAnLXRuJywgJzgnLCAnLW1hJywgJzIwMCcsICctbWV0YWxfYmluZGluZycsICctaW1hZScsICc8aW5maWxlLm1hZT4nLCAnLW9tYWUnLCAnPG91dGZpbGUubWFlPic=

> <r_lp_tautomer_probability>
1

> <r_epik_Ionization_Penalty>
0.00157076

> <r_epik_Ionization_Penalty_Charging>
0

> <r_epik_Ionization_Penalty_Neutral>
0.00157076

> <r_epik_State_Penalty>
-0

> <r_epik_Charging_Adjusted_Penalty>
0

> <i_epik_Tot_Q>
0

> <i_epik_Tot_abs_Q>
0

> <r_epik_Metal_State_Penalty>
0.323125

> <b_epik_Metal_Only>
0

> <s_lp_Force_Field>
OPLS_2005

> <r_lp_Energy>
6.02977

> <b_lp_Chiralities_Consistent>
1

> <s_lp_Variant>
AV-unprocessed.smi:1996-1

> <Gold.Version>
5.8.1

> <Gold.Id.Protein>
6NUR|6NUR_protein|mol2

> <Gold.PLP.Fitness>
36.0943

> <Gold.PLP.PLP>
-31.9816

> <Gold.PLP.part.hbond>
-1.0000

> <Gold.PLP.part.metal>
0.0000

> <Gold.PLP.part.buried>
-4.5585

> <Gold.PLP.part.nonpolar>
-28.0158

> <Gold.PLP.part.repulsive>
0.2470

> <Gold.PLP.ligand.clash>
0.0000

> <Gold.PLP.ligand.torsion>
0.6354

> <Gold.PLP.Chemscore.Hbond>
0.9920

> <Gold.PLP.Chemscore.CHOScore>
0.7988

> <Gold.PLP.Chemscore.Metal>
0.0000

> <Gold.Chemscore.Hbonds>
donor molecule, donor type, donor heavy atom, donor atom, acceptor molecule, acceptor atom, score
      P1  H  7989  7998       L1     1  0.99
      L1  C    16    33       P1 10175  0.85

> <Gold.PLP.Chemscore.Internal.Correction>
0.0113

> <Gold.Rescore>
     Score         DG    S(hbond)    S(metal)    S(lipo)     H(rot)  DE(clash)    DE(int)     intcor
     15.64     -16.32       0.98        0.00     100.16       1.62       0.08       0.60       ----

> <Gold.Chemscore.Fitness>
15.6393

> <Gold.Chemscore.DG>
-16.3185

> <Gold.Chemscore.ZeroCoef>
-5.4800

> <Gold.Chemscore.Hbond>
0.9755

> <Gold.Chemscore.Metal>
0.0000

> <Gold.Chemscore.Lipo>
100.1630

> <Gold.Chemscore.Internal_Hbond>
0.0000

> <Gold.Chemscore.DEClash>
0.0787

> <Gold.Chemscore.DEInternal>
0.6005

> <Gold.Chemscore.Rot>
1.6167

> <Gold.Chemscore.Internal.Correction>
   9.000000E+99

> <Gold.Chemscore.Hbonds>
donor molecule, donor type, donor heavy atom, donor atom, acceptor molecule, acceptor atom, score
      P1  H  7989  7998       L1     1  0.93

> <Gold.Chemscore.Hbond.Weighted>
-3.2581

> <Gold.Chemscore.Metal.Weighted>
-0.0000

> <Gold.Chemscore.Lipo.Weighted>
-11.7191

> <Gold.Chemscore.Internal_Hbond.Weighted>
0.0000

> <Gold.Chemscore.DEClash.Weighted>
0.0787

> <Gold.Chemscore.DEInternal.Weighted>
0.6005

> <Gold.Chemscore.Rot.Weighted>
4.1387

> <Gold.Chemscore.Internal.Correction.Weighted>
   9.000000E+99

> <Gold.Protein.RotatedTorsions>
[ 6907 6896 6895 6894 ] final   27.78 input  -60.11 | X-H torsion
[ 7974 7965 7964 7962 ] final   -7.63 input  175.53 | X-H torsion
[ 8008 7997 7996 7995 ] final   80.36 input   59.86 | X-H torsion
[ 10167 10162 10161 10158 ] final  -34.52 input  -65.29 | X-H torsion
[ 10718 10713 10712 10709 ] final  -18.38 input   66.30 | X-H torsion
[ 10763 10752 10751 10750 ] final -115.96 input  -60.55 | X-H torsion
[ 11005 11000 10999 10996 ] final -163.96 input  -57.11 | X-H torsion

> <Gold.Protein.ActiveResidues>
 VAL166  LYS551  ARG553  GLY616  TRP617  ASP618  TYR619  PRO620  LYS621  CYS622 
 ASP623  PHE694  ASN695  SER759  ASP760  ASP761  ALA762  ILE779  LEU786  VAL792 
 PHE793  MET794  SER795  GLU796  ALA797  LYS798  CYS799  TRP800  GLU811  SER814 

> <Gold.Protein.RotatedAtoms>
  152.0073  134.9895  160.0566 H   0  0  0  0  0  0  0  0  0  0  0  0  # atno 6907 bound_to 6896
  152.1462  133.4489  159.4799 H   0  0  0  0  0  0  0  0  0  0  0  0  # atno 6908 bound_to 6896
  150.6870  134.2163  159.4422 H   0  0  0  0  0  0  0  0  0  0  0  0  # atno 6909 bound_to 6896
  146.2302  140.2347  142.8341 H   0  0  0  0  0  0  0  0  0  0  0  0  # atno 7974 bound_to 7965
  155.8825  140.3443  155.5898 H   0  0  0  0  0  0  0  0  0  0  0  0  # atno 8008 bound_to 7997
  155.7704  140.0844  157.2130 H   0  0  0  0  0  0  0  0  0  0  0  0  # atno 8009 bound_to 7997
  154.4026  140.1519  156.2922 H   0  0  0  0  0  0  0  0  0  0  0  0  # atno 8010 bound_to 7997
  140.7184  143.3542  151.2094 H   0  0  0  0  0  0  0  0  0  0  0  0  # atno 10167 bound_to 10162
  156.5604  130.4724  149.6409 H   0  0  0  0  0  0  0  0  0  0  0  0  # atno 10718 bound_to 10713
  154.8501  135.4362  154.1746 H   0  0  0  0  0  0  0  0  0  0  0  0  # atno 10763 bound_to 10752
  153.2851  135.6957  153.7353 H   0  0  0  0  0  0  0  0  0  0  0  0  # atno 10764 bound_to 10752
  153.6542  135.3446  155.3083 H   0  0  0  0  0  0  0  0  0  0  0  0  # atno 10765 bound_to 10752
  140.5923  134.5032  157.5194 H   0  0  0  0  0  0  0  0  0  0  0  0  # atno 11005 bound_to 11000
  144.9530  140.8198  143.5560 LP  0  0  0  0  0  0  0  0  0  0  0  0  # atno 17320 bound_to 7965
  145.2310  139.2115  143.5043 LP  0  0  0  0  0  0  0  0  0  0  0  0  # atno 17321 bound_to 7965
  139.7079  143.9424  152.2935 LP  0  0  0  0  0  0  0  0  0  0  0  0  # atno 17342 bound_to 10162
  139.9139  144.6840  150.8532 LP  0  0  0  0  0  0  0  0  0  0  0  0  # atno 17343 bound_to 10162
  156.2804  130.7068  151.1890 LP  0  0  0  0  0  0  0  0  0  0  0  0  # atno 17370 bound_to 10713
  157.7370  131.0557  150.5383 LP  0  0  0  0  0  0  0  0  0  0  0  0  # atno 17371 bound_to 10713
  139.9269  134.8039  156.1043 LP  0  0  0  0  0  0  0  0  0  0  0  0  # atno 17394 bound_to 11000
  141.0927  133.6708  156.2576 LP  0  0  0  0  0  0  0  0  0  0  0  0  # atno 17395 bound_to 11000

$$$$
