AV-unprocessed.smi:3304|AV-procd|sdf|12698|dock4
  -GOLD-   2272019 33D 1   1.00000     0.00000
 Structure written by MMmdl.
 46 47  0  0  0  0  0  0  0  0  2 V2000
  148.0072  142.0477  154.0033 C   0  0  0  0  0  0  0  0  0  0  0  0
  148.4832  140.6354  154.1180 C   0  0  0  0  0  0  0  0  0  0  0  0
  147.9954  139.4788  153.5707 C   0  0  0  0  0  0  0  0  0  0  0  0
  146.8064  139.2828  152.6707 C   0  0  0  0  0  0  0  0  0  0  0  0
  145.9653  138.0744  153.1034 C   0  0  0  0  0  0  0  0  0  0  0  0
  144.7617  137.9366  152.2614 N   0  3  0  0  0  0  0  0  0  0  0  0
  143.8907  136.8056  152.6389 C   0  0  0  0  0  0  0  0  0  0  0  0
  144.5677  135.4502  152.3631 C   0  0  2  0  0  0  0  0  0  0  0  0
  145.3141  135.4731  151.0144 C   0  0  0  0  0  0  0  0  0  0  0  0
  145.9984  134.1273  150.7166 C   0  0  0  0  0  0  0  0  0  0  0  0
  145.0132  132.9426  150.7583 C   0  0  2  0  0  0  0  0  0  0  0  0
  144.0837  132.9029  149.5325 C   0  0  0  0  0  0  0  0  0  0  0  0
  144.2373  132.9344  152.0905 C   0  0  0  0  0  0  0  0  0  0  0  0
  143.5577  134.2828  152.3862 C   0  0  0  0  0  0  0  0  0  0  0  0
  148.8834  138.4768  154.0546 C   0  0  0  0  0  0  0  0  0  0  0  0
  149.8328  138.9645  154.8325 N   0  0  0  0  0  0  0  0  0  0  0  0
  149.5894  140.2907  154.8716 N   0  0  0  0  0  0  0  0  0  0  0  0
  150.4587  141.1511  155.6507 C   0  0  0  0  0  0  0  0  0  0  0  0
  147.1195  142.1169  153.3749 H   0  0  0  0  0  0  0  0  0  0  0  0
  148.7777  142.6815  153.5638 H   0  0  0  0  0  0  0  0  0  0  0  0
  147.7548  142.4520  154.9838 H   0  0  0  0  0  0  0  0  0  0  0  0
  146.1811  140.1763  152.6645 H   0  0  0  0  0  0  0  0  0  0  0  0
  147.1309  139.1432  151.6388 H   0  0  0  0  0  0  0  0  0  0  0  0
  146.5585  137.1618  153.0314 H   0  0  0  0  0  0  0  0  0  0  0  0
  145.6633  138.1822  154.1461 H   0  0  0  0  0  0  0  0  0  0  0  0
  144.2243  138.7896  152.3241 H   0  0  0  0  0  0  0  0  0  0  0  0
  143.6185  136.8853  153.6924 H   0  0  0  0  0  0  0  0  0  0  0  0
  142.9661  136.8811  152.0650 H   0  0  0  0  0  0  0  0  0  0  0  0
  145.3090  135.2774  153.1453 H   0  0  0  0  0  0  0  0  0  0  0  0
  144.6209  135.7213  150.2099 H   0  0  0  0  0  0  0  0  0  0  0  0
  146.0664  136.2626  151.0199 H   0  0  0  0  0  0  0  0  0  0  0  0
  146.4987  134.1683  149.7484 H   0  0  0  0  0  0  0  0  0  0  0  0
  146.7849  133.9611  151.4540 H   0  0  0  0  0  0  0  0  0  0  0  0
  145.6051  132.0271  150.7216 H   0  0  0  0  0  0  0  0  0  0  0  0
  143.4417  133.7814  149.4740 H   0  0  0  0  0  0  0  0  0  0  0  0
  143.4381  132.0248  149.5607 H   0  0  0  0  0  0  0  0  0  0  0  0
  144.6598  132.8542  148.6081 H   0  0  0  0  0  0  0  0  0  0  0  0
  143.4956  132.1349  152.0895 H   0  0  0  0  0  0  0  0  0  0  0  0
  144.9281  132.7023  152.9024 H   0  0  0  0  0  0  0  0  0  0  0  0
  143.0687  134.2262  153.3591 H   0  0  0  0  0  0  0  0  0  0  0  0
  142.7648  134.4630  151.6596 H   0  0  0  0  0  0  0  0  0  0  0  0
  148.8644  137.4137  153.8647 H   0  0  0  0  0  0  0  0  0  0  0  0
  150.8926  141.9154  155.0056 H   0  0  0  0  0  0  0  0  0  0  0  0
  151.2661  140.5752  156.1056 H   0  0  0  0  0  0  0  0  0  0  0  0
  149.8829  141.6349  156.4402 H   0  0  0  0  0  0  0  0  0  0  0  0
  145.0544  137.8088  151.3032 H   0  0  0  0  0  0  0  0  0  0  0  0
  1  2  1  0  0  0  0
  1 19  1  0  0  0  0
  1 20  1  0  0  0  0
  1 21  1  0  0  0  0
  2 17  1  0  0  0  0
  2  3  2  0  0  0  0
  3  4  1  0  0  0  0
  3 15  1  0  0  0  0
  4  5  1  0  0  0  0
  4 22  1  0  0  0  0
  4 23  1  0  0  0  0
  5  6  1  0  0  0  0
  5 24  1  0  0  0  0
  5 25  1  0  0  0  0
  6  7  1  0  0  0  0
  6 26  1  0  0  0  0
  6 46  1  0  0  0  0
  7  8  1  0  0  0  0
  7 27  1  0  0  0  0
  7 28  1  0  0  0  0
  8 14  1  0  0  0  0
  8  9  1  0  0  0  0
  8 29  1  0  0  0  0
  9 10  1  0  0  0  0
  9 30  1  0  0  0  0
  9 31  1  0  0  0  0
 10 11  1  0  0  0  0
 10 32  1  0  0  0  0
 10 33  1  0  0  0  0
 11 12  1  0  0  0  0
 11 13  1  0  0  0  0
 11 34  1  0  0  0  0
 12 35  1  0  0  0  0
 12 36  1  0  0  0  0
 12 37  1  0  0  0  0
 13 14  1  0  0  0  0
 13 38  1  0  0  0  0
 13 39  1  0  0  0  0
 14 40  1  0  0  0  0
 14 41  1  0  0  0  0
 15 16  2  0  0  0  0
 15 42  1  0  0  0  0
 16 17  1  0  0  0  0
 17 18  1  0  0  0  0
 18 43  1  0  0  0  0
 18 44  1  0  0  0  0
 18 45  1  0  0  0  0
M  CHG  1   6   1
M  END
> <s_m_source_file>
AV-unprocessed.smi

> <i_m_source_file_index>
3304

> <i_lp_mmshare_version>
43012

> <i_f3d_flags>
0

> <s_epik_input>
W0NIM11uMW5bY0hdYyhjMVtDSDNdKVtDSDJdW0NIMl1bTkhdW0NIMl1bQ0BASF0yW0NIMl1bQ0gyXVtDQEBIXShbQ0gzXSlbQ0gyXVtDSDJdMg==

> <s_epik_cmdline>
J2VwaWtfcHl0aG9uJywgJy1waCcsICc3LjAnLCAnLXRuJywgJzgnLCAnLW1hJywgJzIwMCcsICctbWV0YWxfYmluZGluZycsICctaW1hZScsICc8aW5maWxlLm1hZT4nLCAnLW9tYWUnLCAnPG91dGZpbGUubWFlPic=

> <r_lp_tautomer_probability>
1

> <r_epik_Ionization_Penalty>
0.000505313

> <r_epik_Ionization_Penalty_Charging>
0.000421171

> <r_epik_Ionization_Penalty_Neutral>
8.41424e-05

> <r_epik_State_Penalty>
-0

> <r_epik_Charging_Adjusted_Penalty>
0.000421171

> <i_epik_Tot_Q>
1

> <i_epik_Tot_abs_Q>
1

> <r_epik_Metal_State_Penalty>
-0

> <b_epik_Metal_Only>
0

> <s_lp_Force_Field>
OPLS_2005

> <r_lp_Energy>
12.247

> <b_lp_Chiralities_Consistent>
1

> <s_lp_Variant>
AV-unprocessed.smi:3304-2

> <Gold.Version>
5.8.1

> <Gold.Id.Protein>
6NUR|6NUR_protein|mol2

> <Gold.PLP.Fitness>
46.0903

> <Gold.PLP.PLP>
-36.6405

> <Gold.PLP.part.hbond>
-2.0000

> <Gold.PLP.part.metal>
0.0000

> <Gold.PLP.part.buried>
-0.0911

> <Gold.PLP.part.nonpolar>
-33.5797

> <Gold.PLP.part.repulsive>
0.1360

> <Gold.PLP.ligand.clash>
0.0000

> <Gold.PLP.ligand.torsion>
0.3561

> <Gold.PLP.Chemscore.Hbond>
2.3648

> <Gold.PLP.Chemscore.CHOScore>
1.0000

> <Gold.PLP.Chemscore.Metal>
0.0000

> <Gold.Chemscore.Hbonds>
donor molecule, donor type, donor heavy atom, donor atom, acceptor molecule, acceptor atom, score
      L1  H     6    26       P1 10175  2.00
      L1  H     6    46       P1 10171  0.34
      L1  C    15    42       P1  7948  1.00

> <Gold.PLP.Chemscore.Internal.Correction>
0.0677

> <Gold.Rescore>
     Score         DG    S(hbond)    S(metal)    S(lipo)     H(rot)  DE(clash)    DE(int)     intcor
     16.53     -16.85       1.28        0.00      91.90       1.43       0.08       0.24       ----

> <Gold.Chemscore.Fitness>
16.5281

> <Gold.Chemscore.DG>
-16.8533

> <Gold.Chemscore.ZeroCoef>
-5.4800

> <Gold.Chemscore.Hbond>
1.2843

> <Gold.Chemscore.Metal>
0.0000

> <Gold.Chemscore.Lipo>
91.9022

> <Gold.Chemscore.Internal_Hbond>
0.0000

> <Gold.Chemscore.DEClash>
0.0842

> <Gold.Chemscore.DEInternal>
0.2410

> <Gold.Chemscore.Rot>
1.4331

> <Gold.Chemscore.Internal.Correction>
   9.000000E+99

> <Gold.Chemscore.Hbonds>
donor molecule, donor type, donor heavy atom, donor atom, acceptor molecule, acceptor atom, score
      L1  H     6    26       P1 10175  1.00
      L1  H     6    46       P1 10171  0.32

> <Gold.Chemscore.Hbond.Weighted>
-4.2895

> <Gold.Chemscore.Metal.Weighted>
-0.0000

> <Gold.Chemscore.Lipo.Weighted>
-10.7526

> <Gold.Chemscore.Internal_Hbond.Weighted>
0.0000

> <Gold.Chemscore.DEClash.Weighted>
0.0842

> <Gold.Chemscore.DEInternal.Weighted>
0.2410

> <Gold.Chemscore.Rot.Weighted>
3.6688

> <Gold.Chemscore.Internal.Correction.Weighted>
   9.000000E+99

> <Gold.Protein.RotatedTorsions>
[ 6907 6896 6895 6894 ] final  126.39 input  -60.11 | X-H torsion
[ 7974 7965 7964 7962 ] final  118.61 input  175.53 | X-H torsion
[ 8008 7997 7996 7995 ] final   78.12 input   59.86 | X-H torsion
[ 10167 10162 10161 10158 ] final   19.05 input  -65.29 | X-H torsion
[ 10718 10713 10712 10709 ] final   -6.54 input   66.30 | X-H torsion
[ 10763 10752 10751 10750 ] final   83.64 input  -60.55 | X-H torsion
[ 11005 11000 10999 10996 ] final   52.97 input  -57.11 | X-H torsion

> <Gold.Protein.ActiveResidues>
 VAL166  LYS551  ARG553  GLY616  TRP617  ASP618  TYR619  PRO620  LYS621  CYS622 
 ASP623  PHE694  ASN695  SER759  ASP760  ASP761  ALA762  ILE779  LEU786  VAL792 
 PHE793  MET794  SER795  GLU796  ALA797  LYS798  CYS799  TRP800  GLU811  SER814 

> <Gold.Protein.RotatedAtoms>
  152.3907  133.6675  159.6235 H   0  0  0  0  0  0  0  0  0  0  0  0  # atno 6907 bound_to 6896
  150.7816  133.8958  159.3335 H   0  0  0  0  0  0  0  0  0  0  0  0  # atno 6908 bound_to 6896
  151.6746  135.0972  160.0256 H   0  0  0  0  0  0  0  0  0  0  0  0  # atno 6909 bound_to 6896
  145.1531  139.3198  143.4556 H   0  0  0  0  0  0  0  0  0  0  0  0  # atno 7974 bound_to 7965
  155.8512  140.3458  155.5694 H   0  0  0  0  0  0  0  0  0  0  0  0  # atno 8008 bound_to 7997
  155.8036  140.0888  157.1963 H   0  0  0  0  0  0  0  0  0  0  0  0  # atno 8009 bound_to 7997
  154.4008  140.1461  156.3290 H   0  0  0  0  0  0  0  0  0  0  0  0  # atno 8010 bound_to 7997
  140.5607  143.9342  150.6641 H   0  0  0  0  0  0  0  0  0  0  0  0  # atno 10167 bound_to 10162
  156.7303  130.5178  149.5847 H   0  0  0  0  0  0  0  0  0  0  0  0  # atno 10718 bound_to 10713
  153.1310  135.4683  154.9348 H   0  0  0  0  0  0  0  0  0  0  0  0  # atno 10763 bound_to 10752
  154.7664  135.3146  154.8281 H   0  0  0  0  0  0  0  0  0  0  0  0  # atno 10764 bound_to 10752
  153.8823  135.6893  153.4820 H   0  0  0  0  0  0  0  0  0  0  0  0  # atno 10765 bound_to 10752
  140.0806  134.5344  155.8951 H   0  0  0  0  0  0  0  0  0  0  0  0  # atno 11005 bound_to 11000
  146.3492  140.1613  142.8591 LP  0  0  0  0  0  0  0  0  0  0  0  0  # atno 17320 bound_to 7965
  145.0409  140.8945  143.5053 LP  0  0  0  0  0  0  0  0  0  0  0  0  # atno 17321 bound_to 7965
  140.2792  143.3401  152.1167 LP  0  0  0  0  0  0  0  0  0  0  0  0  # atno 17342 bound_to 10162
  139.5069  144.6822  151.5979 LP  0  0  0  0  0  0  0  0  0  0  0  0  # atno 17343 bound_to 10162
  156.1533  130.6325  151.0624 LP  0  0  0  0  0  0  0  0  0  0  0  0  # atno 17370 bound_to 10713
  157.6861  131.0824  150.7238 LP  0  0  0  0  0  0  0  0  0  0  0  0  # atno 17371 bound_to 10713
  141.2045  133.6640  156.6125 LP  0  0  0  0  0  0  0  0  0  0  0  0  # atno 17394 bound_to 11000
  140.3494  134.7782  157.4456 LP  0  0  0  0  0  0  0  0  0  0  0  0  # atno 17395 bound_to 11000

$$$$
