AV-unprocessed.smi:525|AV-procd|sdf|2807|dock6
  -GOLD-   2262023283D 1   1.00000     0.00000
 Structure written by MMmdl.
 43 45  0  0  0  0  0  0  0  0  1 V2000
  150.9444  138.9983  155.1768 C   0  0  0  0  0  0  0  0  0  0  0  0
  150.7739  140.4044  155.1330 O   0  0  0  0  0  0  0  0  0  0  0  0
  150.8273  140.9941  156.4200 C   0  0  0  0  0  0  0  0  0  0  0  0
  152.1375  140.5891  157.1058 C   0  0  0  0  0  0  0  0  0  0  0  0
  152.2957  141.2530  158.3902 N   0  0  0  0  0  0  0  0  0  0  0  0
  152.6438  140.6988  159.5768 C   0  0  0  0  0  0  0  0  0  0  0  0
  152.9852  138.9780  159.7393 S   0  0  0  0  0  0  0  0  0  0  0  0
  154.2873  139.0681  161.0150 C   0  0  2  0  0  0  0  0  0  0  0  0
  155.6237  139.5803  160.4532 C   0  0  0  0  0  0  0  0  0  0  0  0
  156.6213  139.7291  161.3289 N   0  0  0  0  0  0  0  0  0  0  0  0
  155.7738  139.8228  159.2563 O   0  0  0  0  0  0  0  0  0  0  0  0
  154.4233  137.7126  161.7066 C   0  0  0  0  0  0  0  0  0  0  0  0
  154.1900  137.5745  163.0946 C   0  0  0  0  0  0  0  0  0  0  0  0
  154.3404  136.3226  163.7214 C   0  0  0  0  0  0  0  0  0  0  0  0
  154.7234  135.1981  162.9663 C   0  0  0  0  0  0  0  0  0  0  0  0
  154.9558  135.3267  161.5839 C   0  0  0  0  0  0  0  0  0  0  0  0
  154.8058  136.5785  160.9565 C   0  0  0  0  0  0  0  0  0  0  0  0
  152.7157  141.5387  160.6097 N   0  0  0  0  0  0  0  0  0  0  0  0
  152.3735  142.7500  160.0408 C   0  0  0  0  0  0  0  0  0  0  0  0
  152.2620  144.0362  160.6162 C   0  0  0  0  0  0  0  0  0  0  0  0
  151.8883  145.1419  159.8244 C   0  0  0  0  0  0  0  0  0  0  0  0
  151.6203  144.9779  158.4499 C   0  0  0  0  0  0  0  0  0  0  0  0
  151.7262  143.7052  157.8568 C   0  0  0  0  0  0  0  0  0  0  0  0
  152.1016  142.6052  158.6509 C   0  0  0  0  0  0  0  0  0  0  0  0
  150.8880  138.5900  154.1679 H   0  0  0  0  0  0  0  0  0  0  0  0
  150.1655  138.5249  155.7760 H   0  0  0  0  0  0  0  0  0  0  0  0
  151.9165  138.7318  155.5930 H   0  0  0  0  0  0  0  0  0  0  0  0
  150.7640  142.0804  156.3373 H   0  0  0  0  0  0  0  0  0  0  0  0
  149.9769  140.6594  157.0128 H   0  0  0  0  0  0  0  0  0  0  0  0
  152.1766  139.5095  157.2523 H   0  0  0  0  0  0  0  0  0  0  0  0
  152.9874  140.8435  156.4718 H   0  0  0  0  0  0  0  0  0  0  0  0
  153.9797  139.7924  161.7699 H   0  0  0  0  0  0  0  0  0  0  0  0
  157.5227  140.0591  161.0140 H   0  0  0  0  0  0  0  0  0  0  0  0
  156.4715  139.5075  162.3024 H   0  0  0  0  0  0  0  0  0  0  0  0
  153.8944  138.4300  163.6843 H   0  0  0  0  0  0  0  0  0  0  0  0
  154.1613  136.2258  164.7820 H   0  0  0  0  0  0  0  0  0  0  0  0
  154.8389  134.2381  163.4476 H   0  0  0  0  0  0  0  0  0  0  0  0
  155.2506  134.4646  161.0039 H   0  0  0  0  0  0  0  0  0  0  0  0
  154.9903  136.6640  159.8956 H   0  0  0  0  0  0  0  0  0  0  0  0
  152.4641  144.1723  161.6684 H   0  0  0  0  0  0  0  0  0  0  0  0
  151.8064  146.1207  160.2740 H   0  0  0  0  0  0  0  0  0  0  0  0
  151.3337  145.8297  157.8507 H   0  0  0  0  0  0  0  0  0  0  0  0
  151.5212  143.5767  156.8044 H   0  0  0  0  0  0  0  0  0  0  0  0
  1  2  1  0  0  0  0
  1 25  1  0  0  0  0
  1 26  1  0  0  0  0
  1 27  1  0  0  0  0
  2  3  1  0  0  0  0
  3  4  1  0  0  0  0
  3 28  1  0  0  0  0
  3 29  1  0  0  0  0
  4  5  1  0  0  0  0
  4 30  1  0  0  0  0
  4 31  1  0  0  0  0
  5 24  1  0  0  0  0
  5  6  1  0  0  0  0
  6  7  1  0  0  0  0
  6 18  2  0  0  0  0
  7  8  1  0  0  0  0
  8  9  1  0  0  0  0
  8 12  1  0  0  0  0
  8 32  1  0  0  0  0
  9 10  1  0  0  0  0
  9 11  2  0  0  0  0
 10 33  1  0  0  0  0
 10 34  1  0  0  0  0
 12 17  1  0  0  0  0
 12 13  2  0  0  0  0
 13 14  1  0  0  0  0
 13 35  1  0  0  0  0
 14 15  2  0  0  0  0
 14 36  1  0  0  0  0
 15 16  1  0  0  0  0
 15 37  1  0  0  0  0
 16 17  2  0  0  0  0
 16 38  1  0  0  0  0
 17 39  1  0  0  0  0
 18 19  1  0  0  0  0
 19 24  2  0  0  0  0
 19 20  1  0  0  0  0
 20 21  2  0  0  0  0
 20 40  1  0  0  0  0
 21 22  1  0  0  0  0
 21 41  1  0  0  0  0
 22 23  2  0  0  0  0
 22 42  1  0  0  0  0
 23 24  1  0  0  0  0
 23 43  1  0  0  0  0
M  END
> <s_m_source_file>
AV-unprocessed.smi

> <i_m_source_file_index>
525

> <i_lp_mmshare_version>
43012

> <i_f3d_flags>
0

> <s_epik_input>
W2NIXTFbY0hdW2NIXVtjSF1jKGMxMiluKFtDSDJdW0NIMl1PW0NIM10pYyhuMilTW0NASF0oQyg9TylbTkgyXSljM1tjSF1bY0hdW2NIXVtjSF1bY0hdMw==

> <s_epik_cmdline>
J2VwaWtfcHl0aG9uJywgJy1waCcsICc3LjAnLCAnLXRuJywgJzgnLCAnLW1hJywgJzIwMCcsICctbWV0YWxfYmluZGluZycsICctaW1hZScsICc8aW5maWxlLm1hZT4nLCAnLW9tYWUnLCAnPG91dGZpbGUubWFlPic=

> <r_epik_Ionization_Penalty>
0.0706634

> <r_epik_Ionization_Penalty_Charging>
0

> <r_epik_Ionization_Penalty_Neutral>
0.0706634

> <r_epik_State_Penalty>
0.0619781

> <r_epik_Charging_Adjusted_Penalty>
0.0619781

> <i_epik_Tot_Q>
0

> <i_epik_Tot_abs_Q>
0

> <r_epik_Metal_State_Penalty>
0.0552401

> <b_epik_Metal_Only>
0

> <s_lp_Force_Field>
OPLS_2005

> <r_lp_Energy>
11.715

> <b_lp_Chiralities_Consistent>
1

> <s_lp_Variant>
AV-unprocessed.smi:525-1

> <Gold.Version>
5.8.1

> <Gold.Id.Protein>
6NUR|6NUR_protein|mol2

> <Gold.PLP.Fitness>
55.4931

> <Gold.PLP.PLP>
-50.6866

> <Gold.PLP.part.hbond>
-2.0000

> <Gold.PLP.part.metal>
0.0000

> <Gold.PLP.part.buried>
-6.1593

> <Gold.PLP.part.nonpolar>
-41.7080

> <Gold.PLP.part.repulsive>
0.0663

> <Gold.PLP.ligand.clash>
0.0000

> <Gold.PLP.ligand.torsion>
0.6911

> <Gold.PLP.Chemscore.Hbond>
2.0000

> <Gold.PLP.Chemscore.CHOScore>
0.0000

> <Gold.PLP.Chemscore.Metal>
0.0000

> <Gold.Chemscore.Hbonds>
donor molecule, donor type, donor heavy atom, donor atom, acceptor molecule, acceptor atom, score
      P1  H  7989  7998       L1     2  1.00
      P1  H  7997  8009       L1    11  1.00

> <Gold.PLP.Chemscore.Internal.Correction>
0.1887

> <Gold.Rescore>
     Score         DG    S(hbond)    S(metal)    S(lipo)     H(rot)  DE(clash)    DE(int)     intcor
     21.38     -22.32       1.89        0.00     143.25       2.44       0.26       0.68       ----

> <Gold.Chemscore.Fitness>
21.3802

> <Gold.Chemscore.DG>
-22.3167

> <Gold.Chemscore.ZeroCoef>
-5.4800

> <Gold.Chemscore.Hbond>
1.8929

> <Gold.Chemscore.Metal>
0.0000

> <Gold.Chemscore.Lipo>
143.2475

> <Gold.Chemscore.Internal_Hbond>
0.0000

> <Gold.Chemscore.DEClash>
0.2614

> <Gold.Chemscore.DEInternal>
0.6751

> <Gold.Chemscore.Rot>
2.4396

> <Gold.Chemscore.Internal.Correction>
   9.000000E+99

> <Gold.Chemscore.Hbonds>
donor molecule, donor type, donor heavy atom, donor atom, acceptor molecule, acceptor atom, score
      P1  H  7989  7998       L1     2  0.38
      P1  H  7997  8009       L1    11  0.99

> <Gold.Chemscore.Hbond.Weighted>
-6.3222

> <Gold.Chemscore.Metal.Weighted>
-0.0000

> <Gold.Chemscore.Lipo.Weighted>
-16.7600

> <Gold.Chemscore.Internal_Hbond.Weighted>
0.0000

> <Gold.Chemscore.DEClash.Weighted>
0.2614

> <Gold.Chemscore.DEInternal.Weighted>
0.6751

> <Gold.Chemscore.Rot.Weighted>
6.2454

> <Gold.Chemscore.Internal.Correction.Weighted>
   9.000000E+99

> <Gold.Protein.RotatedTorsions>
[ 6907 6896 6895 6894 ] final  169.88 input  -60.11 | X-H torsion
[ 7974 7965 7964 7962 ] final   62.25 input  175.53 | X-H torsion
[ 8008 7997 7996 7995 ] final  101.72 input   59.86 | X-H torsion
[ 10167 10162 10161 10158 ] final  105.40 input  -65.29 | X-H torsion
[ 10718 10713 10712 10709 ] final  -30.07 input   66.30 | X-H torsion
[ 10763 10752 10751 10750 ] final  112.01 input  -60.55 | X-H torsion
[ 11005 11000 10999 10996 ] final  155.99 input  -57.11 | X-H torsion

> <Gold.Protein.ActiveResidues>
 VAL166  LYS551  ARG553  GLY616  TRP617  ASP618  TYR619  PRO620  LYS621  CYS622 
 ASP623  PHE694  ASN695  SER759  ASP760  ASP761  ALA762  ILE779  LEU786  VAL792 
 PHE793  MET794  SER795  GLU796  ALA797  LYS798  CYS799  TRP800  GLU811  SER814 

> <Gold.Protein.RotatedAtoms>
  151.8249  133.3400  159.3595 H   0  0  0  0  0  0  0  0  0  0  0  0  # atno 6907 bound_to 6896
  150.7283  134.5539  159.5817 H   0  0  0  0  0  0  0  0  0  0  0  0  # atno 6908 bound_to 6896
  152.2979  134.7646  160.0415 H   0  0  0  0  0  0  0  0  0  0  0  0  # atno 6909 bound_to 6896
  145.8755  139.3407  143.0737 H   0  0  0  0  0  0  0  0  0  0  0  0  # atno 7974 bound_to 7965
  156.1326  140.3193  155.8371 H   0  0  0  0  0  0  0  0  0  0  0  0  # atno 8008 bound_to 7997
  155.4304  140.0518  157.3036 H   0  0  0  0  0  0  0  0  0  0  0  0  # atno 8009 bound_to 7997
  154.4911  140.2092  155.9559 H   0  0  0  0  0  0  0  0  0  0  0  0  # atno 8010 bound_to 7997
  139.7096  144.7080  151.1049 H   0  0  0  0  0  0  0  0  0  0  0  0  # atno 10167 bound_to 10162
  156.4044  130.4396  149.7298 H   0  0  0  0  0  0  0  0  0  0  0  0  # atno 10718 bound_to 10713
  153.4717  135.3699  155.2394 H   0  0  0  0  0  0  0  0  0  0  0  0  # atno 10763 bound_to 10752
  154.8757  135.3933  154.3804 H   0  0  0  0  0  0  0  0  0  0  0  0  # atno 10764 bound_to 10752
  153.4394  135.7084  153.6244 H   0  0  0  0  0  0  0  0  0  0  0  0  # atno 10765 bound_to 10752
  140.1633  134.8594  157.2601 H   0  0  0  0  0  0  0  0  0  0  0  0  # atno 11005 bound_to 11000
  145.9086  140.9195  143.0466 LP  0  0  0  0  0  0  0  0  0  0  0  0  # atno 17320 bound_to 7965
  144.6726  140.1129  143.7454 LP  0  0  0  0  0  0  0  0  0  0  0  0  # atno 17321 bound_to 7965
  140.7730  143.5311  150.9422 LP  0  0  0  0  0  0  0  0  0  0  0  0  # atno 17342 bound_to 10162
  139.8995  143.6853  152.3133 LP  0  0  0  0  0  0  0  0  0  0  0  0  # atno 17343 bound_to 10162
  156.4301  130.7811  151.2831 LP  0  0  0  0  0  0  0  0  0  0  0  0  # atno 17370 bound_to 10713
  157.7505  131.0156  150.3512 LP  0  0  0  0  0  0  0  0  0  0  0  0  # atno 17371 bound_to 10713
  140.2464  134.3734  155.7459 LP  0  0  0  0  0  0  0  0  0  0  0  0  # atno 17394 bound_to 11000
  141.2211  133.7293  156.8868 LP  0  0  0  0  0  0  0  0  0  0  0  0  # atno 17395 bound_to 11000

$$$$
