AV-unprocessed.smi:669|AV-procd|sdf|3263|dock7
  -GOLD-   22720 0213D 1   1.00000     0.00000
 Structure written by MMmdl.
 37 38  0  0  0  0  0  0  0  0  1 V2000
  151.9639  144.0820  159.2644 C   0  0  0  0  0  0  0  0  0  0  0  0
  152.3492  142.6392  159.4022 C   0  0  0  0  0  0  0  0  0  0  0  0
  153.3232  142.1710  160.3685 C   0  0  0  0  0  0  0  0  0  0  0  0
  153.5948  140.8509  160.4456 C   0  0  0  0  0  0  0  0  0  0  0  0
  152.9391  139.8782  159.5740 C   0  0  0  0  0  0  0  0  0  0  0  0
  153.1373  138.6665  159.6536 O   0  0  0  0  0  0  0  0  0  0  0  0
  152.0811  140.4392  158.6705 N   0  0  0  0  0  0  0  0  0  0  0  0
  151.3511  139.6143  157.6933 C   0  0  0  0  0  0  0  0  0  0  0  0
  151.6599  139.9400  156.1996 C   0  0  1  0  0  0  0  0  0  0  0  0
  153.0397  139.7041  155.9948 O   0  0  0  0  0  0  0  0  0  0  0  0
  150.9419  138.9495  155.2514 C   0  0  0  0  0  0  0  0  0  0  0  0
  149.4337  139.2293  155.1163 C   0  0  0  0  0  0  0  0  0  0  0  0
  149.1617  140.6812  154.6819 C   0  0  1  0  0  0  0  0  0  0  0  0
  147.6567  140.9588  154.5620 C   0  0  0  0  0  0  0  0  0  0  0  0
  149.8432  141.6667  155.6487 C   0  0  0  0  0  0  0  0  0  0  0  0
  151.3537  141.3928  155.7579 C   0  0  0  0  0  0  0  0  0  0  0  0
  151.7760  141.7900  158.6148 N   0  0  0  0  0  0  0  0  0  0  0  0
  152.4288  144.6903  160.0406 H   0  0  0  0  0  0  0  0  0  0  0  0
  150.8836  144.2060  159.3463 H   0  0  0  0  0  0  0  0  0  0  0  0
  152.2773  144.4755  158.2971 H   0  0  0  0  0  0  0  0  0  0  0  0
  153.8175  142.8767  161.0197 H   0  0  0  0  0  0  0  0  0  0  0  0
  154.3176  140.5023  161.1686 H   0  0  0  0  0  0  0  0  0  0  0  0
  151.5160  138.5533  157.8907 H   0  0  0  0  0  0  0  0  0  0  0  0
  150.2858  139.7552  157.8788 H   0  0  0  0  0  0  0  0  0  0  0  0
  153.1371  138.9294  155.4630 H   0  0  0  0  0  0  0  0  0  0  0  0
  151.3846  139.0111  154.2557 H   0  0  0  0  0  0  0  0  0  0  0  0
  151.0987  137.9231  155.5859 H   0  0  0  0  0  0  0  0  0  0  0  0
  149.0048  138.5407  154.3874 H   0  0  0  0  0  0  0  0  0  0  0  0
  148.9260  139.0225  156.0583 H   0  0  0  0  0  0  0  0  0  0  0  0
  149.6004  140.8237  153.6932 H   0  0  0  0  0  0  0  0  0  0  0  0
  147.1520  140.8313  155.5201 H   0  0  0  0  0  0  0  0  0  0  0  0
  147.1895  140.2817  153.8463 H   0  0  0  0  0  0  0  0  0  0  0  0
  147.4712  141.9773  154.2198 H   0  0  0  0  0  0  0  0  0  0  0  0
  149.6854  142.6903  155.3069 H   0  0  0  0  0  0  0  0  0  0  0  0
  149.3776  141.5988  156.6316 H   0  0  0  0  0  0  0  0  0  0  0  0
  151.8221  142.1174  156.4243 H   0  0  0  0  0  0  0  0  0  0  0  0
  151.8000  141.5720  154.7784 H   0  0  0  0  0  0  0  0  0  0  0  0
  1  2  1  0  0  0  0
  1 18  1  0  0  0  0
  1 19  1  0  0  0  0
  1 20  1  0  0  0  0
  2 17  2  0  0  0  0
  2  3  1  0  0  0  0
  3  4  2  0  0  0  0
  3 21  1  0  0  0  0
  4  5  1  0  0  0  0
  4 22  1  0  0  0  0
  5  6  2  0  0  0  0
  5  7  1  0  0  0  0
  7  8  1  0  0  0  0
  7 17  1  0  0  0  0
  8  9  1  0  0  0  0
  8 23  1  0  0  0  0
  8 24  1  0  0  0  0
  9 16  1  0  0  0  0
  9 10  1  0  0  0  0
  9 11  1  0  0  0  0
 10 25  1  0  0  0  0
 11 12  1  0  0  0  0
 11 26  1  0  0  0  0
 11 27  1  0  0  0  0
 12 13  1  0  0  0  0
 12 28  1  0  0  0  0
 12 29  1  0  0  0  0
 13 14  1  0  0  0  0
 13 15  1  0  0  0  0
 13 30  1  0  0  0  0
 14 31  1  0  0  0  0
 14 32  1  0  0  0  0
 14 33  1  0  0  0  0
 15 16  1  0  0  0  0
 15 34  1  0  0  0  0
 15 35  1  0  0  0  0
 16 36  1  0  0  0  0
 16 37  1  0  0  0  0
M  END
> <s_m_source_file>
AV-unprocessed.smi

> <i_m_source_file_index>
669

> <i_lp_mmshare_version>
43012

> <i_f3d_flags>
0

> <s_epik_input>
W0NIM11jMVtjSF1bY0hdYyg9TyluKG4xKVtDSDJdW0NAQF0yKFtPSF0pW0NIMl1bQ0gyXVtDQEBIXShbQ0gzXSlbQ0gyXVtDSDJdMg==

> <s_epik_cmdline>
J2VwaWtfcHl0aG9uJywgJy1waCcsICc3LjAnLCAnLXRuJywgJzgnLCAnLW1hJywgJzIwMCcsICctbWV0YWxfYmluZGluZycsICctaW1hZScsICc8aW5maWxlLm1hZT4nLCAnLW9tYWUnLCAnPG91dGZpbGUubWFlPic=

> <r_lp_tautomer_probability>
1

> <r_epik_Ionization_Penalty>
1.6993e-05

> <r_epik_Ionization_Penalty_Charging>
1.61671e-05

> <r_epik_Ionization_Penalty_Neutral>
8.25878e-07

> <r_epik_State_Penalty>
-0

> <r_epik_Charging_Adjusted_Penalty>
1.61671e-05

> <i_epik_Tot_Q>
0

> <i_epik_Tot_abs_Q>
0

> <r_epik_Metal_State_Penalty>
-0

> <b_epik_Metal_Only>
0

> <s_lp_Force_Field>
OPLS_2005

> <r_lp_Energy>
31.4403

> <b_lp_Chiralities_Consistent>
1

> <s_lp_Variant>
AV-unprocessed.smi:669-1

> <Gold.Version>
5.8.1

> <Gold.Id.Protein>
6NUR|6NUR_protein|mol2

> <Gold.PLP.Fitness>
36.0398

> <Gold.PLP.PLP>
-33.0506

> <Gold.PLP.part.hbond>
-0.8180

> <Gold.PLP.part.metal>
0.0000

> <Gold.PLP.part.buried>
-2.6460

> <Gold.PLP.part.nonpolar>
-28.7702

> <Gold.PLP.part.repulsive>
0.0000

> <Gold.PLP.ligand.clash>
0.0000

> <Gold.PLP.ligand.torsion>
0.0126

> <Gold.PLP.Chemscore.Hbond>
1.0000

> <Gold.PLP.Chemscore.CHOScore>
0.0000

> <Gold.PLP.Chemscore.Metal>
0.0000

> <Gold.Chemscore.Hbonds>
donor molecule, donor type, donor heavy atom, donor atom, acceptor molecule, acceptor atom, score
      P1  H  7997  8010       L1    10  0.81

> <Gold.PLP.Chemscore.Internal.Correction>
0.0143

> <Gold.Rescore>
     Score         DG    S(hbond)    S(metal)    S(lipo)     H(rot)  DE(clash)    DE(int)     intcor
     13.75     -15.08       0.99        0.00      89.10       1.62       0.16       1.17       ----

> <Gold.Chemscore.Fitness>
13.7485

> <Gold.Chemscore.DG>
-15.0813

> <Gold.Chemscore.ZeroCoef>
-5.4800

> <Gold.Chemscore.Hbond>
0.9927

> <Gold.Chemscore.Metal>
0.0000

> <Gold.Chemscore.Lipo>
89.1012

> <Gold.Chemscore.Internal_Hbond>
0.0000

> <Gold.Chemscore.DEClash>
0.1596

> <Gold.Chemscore.DEInternal>
1.1731

> <Gold.Chemscore.Rot>
1.6168

> <Gold.Chemscore.Internal.Correction>
   9.000000E+99

> <Gold.Chemscore.Hbonds>
donor molecule, donor type, donor heavy atom, donor atom, acceptor molecule, acceptor atom, score
      P1  H  7997  8010       L1    10  0.20

> <Gold.Chemscore.Hbond.Weighted>
-3.3156

> <Gold.Chemscore.Metal.Weighted>
-0.0000

> <Gold.Chemscore.Lipo.Weighted>
-10.4248

> <Gold.Chemscore.Internal_Hbond.Weighted>
0.0000

> <Gold.Chemscore.DEClash.Weighted>
0.1596

> <Gold.Chemscore.DEInternal.Weighted>
1.1731

> <Gold.Chemscore.Rot.Weighted>
4.1391

> <Gold.Chemscore.Internal.Correction.Weighted>
   9.000000E+99

> <Gold.Protein.RotatedTorsions>
[ 6907 6896 6895 6894 ] final -117.00 input  -60.11 | X-H torsion
[ 7974 7965 7964 7962 ] final  -56.21 input  175.53 | X-H torsion
[ 8008 7997 7996 7995 ] final   99.75 input   59.86 | X-H torsion
[ 10167 10162 10161 10158 ] final  -48.99 input  -65.29 | X-H torsion
[ 10718 10713 10712 10709 ] final  145.66 input   66.30 | X-H torsion
[ 10763 10752 10751 10750 ] final  -29.33 input  -60.55 | X-H torsion
[ 11005 11000 10999 10996 ] final  150.18 input  -57.11 | X-H torsion

> <Gold.Protein.ActiveResidues>
 VAL166  LYS551  ARG553  GLY616  TRP617  ASP618  TYR619  PRO620  LYS621  CYS622 
 ASP623  PHE694  ASN695  SER759  ASP760  ASP761  ALA762  ILE779  LEU786  VAL792 
 PHE793  MET794  SER795  GLU796  ALA797  LYS798  CYS799  TRP800  GLU811  SER814 

> <Gold.Protein.RotatedAtoms>
  150.8101  133.8437  159.3186 H   0  0  0  0  0  0  0  0  0  0  0  0  # atno 6907 bound_to 6896
  151.6225  135.1029  160.0114 H   0  0  0  0  0  0  0  0  0  0  0  0  # atno 6908 bound_to 6896
  152.4193  133.7049  159.6502 H   0  0  0  0  0  0  0  0  0  0  0  0  # atno 6909 bound_to 6896
  145.8653  140.8255  142.9916 H   0  0  0  0  0  0  0  0  0  0  0  0  # atno 7974 bound_to 7965
  156.1136  140.3224  155.8107 H   0  0  0  0  0  0  0  0  0  0  0  0  # atno 8008 bound_to 7997
  155.4630  140.0541  157.3006 H   0  0  0  0  0  0  0  0  0  0  0  0  # atno 8009 bound_to 7997
  154.4777  140.2039  155.9853 H   0  0  0  0  0  0  0  0  0  0  0  0  # atno 8010 bound_to 7997
  140.6706  143.2716  151.4150 H   0  0  0  0  0  0  0  0  0  0  0  0  # atno 10167 bound_to 10162
  157.3426  131.0938  151.1070 H   0  0  0  0  0  0  0  0  0  0  0  0  # atno 10718 bound_to 10713
  153.7628  135.6918  153.4922 H   0  0  0  0  0  0  0  0  0  0  0  0  # atno 10763 bound_to 10752
  153.1927  135.4465  155.0168 H   0  0  0  0  0  0  0  0  0  0  0  0  # atno 10764 bound_to 10752
  154.8147  135.3393  154.7142 H   0  0  0  0  0  0  0  0  0  0  0  0  # atno 10765 bound_to 10752
  140.1109  134.8924  157.1935 H   0  0  0  0  0  0  0  0  0  0  0  0  # atno 11005 bound_to 11000
  144.6726  140.1158  143.7453 LP  0  0  0  0  0  0  0  0  0  0  0  0  # atno 17320 bound_to 7965
  145.9200  139.2540  143.1387 LP  0  0  0  0  0  0  0  0  0  0  0  0  # atno 17321 bound_to 7965
  139.5972  144.1371  152.2158 LP  0  0  0  0  0  0  0  0  0  0  0  0  # atno 17342 bound_to 10162
  140.0744  144.5752  150.7168 LP  0  0  0  0  0  0  0  0  0  0  0  0  # atno 17343 bound_to 10162
  157.2276  130.6510  149.5836 LP  0  0  0  0  0  0  0  0  0  0  0  0  # atno 17370 bound_to 10713
  155.9710  130.4609  150.6090 LP  0  0  0  0  0  0  0  0  0  0  0  0  # atno 17371 bound_to 10713
  140.3092  134.3043  155.7271 LP  0  0  0  0  0  0  0  0  0  0  0  0  # atno 17394 bound_to 11000
  141.2130  133.7640  156.9752 LP  0  0  0  0  0  0  0  0  0  0  0  0  # atno 17395 bound_to 11000

$$$$
