AV-unprocessed.smi:2476|AV-procd|sdf|9758|dock10
  -GOLD-   2272013403D 1   1.00000     0.00000
 Structure written by MMmdl.
 34 35  0  0  0  0  0  0  0  0  1 V2000
  147.6042  140.1093  154.5020 C   0  0  0  0  0  0  0  0  0  0  0  0
  149.1188  140.1822  154.3389 C   0  0  0  0  0  0  0  0  0  0  0  0
  149.6323  141.1709  153.8164 O   0  0  0  0  0  0  0  0  0  0  0  0
  149.8217  139.1314  154.7878 N   0  0  0  0  0  0  0  0  0  0  0  0
  151.2749  139.0094  154.7331 C   0  0  0  0  0  0  0  0  0  0  0  0
  151.9441  139.3180  156.0852 C   0  0  1  0  0  0  0  0  0  0  0  0
  151.5753  140.7119  156.6374 C   0  0  0  0  0  0  0  0  0  0  0  0
  152.1581  140.8987  157.9601 N   0  0  0  0  0  0  0  0  0  0  0  0
  151.9736  142.1890  158.4785 C   0  0  0  0  0  0  0  0  0  0  0  0
  151.0323  142.9804  157.9079 N   0  0  0  0  0  0  0  0  0  0  0  0
  150.8507  144.2219  158.4072 C   0  0  0  0  0  0  0  0  0  0  0  0
  151.5905  144.7357  159.4902 C   0  0  0  0  0  0  0  0  0  0  0  0
  152.5685  143.9133  160.0811 C   0  0  0  0  0  0  0  0  0  0  0  0
  152.7652  142.6166  159.5676 C   0  0  0  0  0  0  0  0  0  0  0  0
  153.6980  141.7998  160.1140 F   0  0  0  0  0  0  0  0  0  0  0  0
  151.7863  139.8388  158.8880 C   0  0  0  0  0  0  0  0  0  0  0  0
  152.1465  138.4694  158.2891 C   0  0  0  0  0  0  0  0  0  0  0  0
  151.5188  138.3263  157.0179 O   0  0  0  0  0  0  0  0  0  0  0  0
  147.3207  139.3862  155.2677 H   0  0  0  0  0  0  0  0  0  0  0  0
  147.1382  139.8158  153.5613 H   0  0  0  0  0  0  0  0  0  0  0  0
  147.2075  141.0826  154.7919 H   0  0  0  0  0  0  0  0  0  0  0  0
  149.3142  138.3614  155.1988 H   0  0  0  0  0  0  0  0  0  0  0  0
  151.5179  137.9925  154.4232 H   0  0  0  0  0  0  0  0  0  0  0  0
  151.6704  139.6684  153.9583 H   0  0  0  0  0  0  0  0  0  0  0  0
  153.0272  139.2455  155.9698 H   0  0  0  0  0  0  0  0  0  0  0  0
  151.9394  141.4935  155.9695 H   0  0  0  0  0  0  0  0  0  0  0  0
  150.4907  140.8142  156.6949 H   0  0  0  0  0  0  0  0  0  0  0  0
  150.0919  144.8242  157.9295 H   0  0  0  0  0  0  0  0  0  0  0  0
  151.4117  145.7353  159.8580 H   0  0  0  0  0  0  0  0  0  0  0  0
  153.1568  144.2704  160.9134 H   0  0  0  0  0  0  0  0  0  0  0  0
  152.3023  139.9805  159.8384 H   0  0  0  0  0  0  0  0  0  0  0  0
  150.7152  139.8838  159.0906 H   0  0  0  0  0  0  0  0  0  0  0  0
  153.2275  138.3599  158.1886 H   0  0  0  0  0  0  0  0  0  0  0  0
  151.8044  137.6701  158.9462 H   0  0  0  0  0  0  0  0  0  0  0  0
  1  2  1  0  0  0  0
  1 19  1  0  0  0  0
  1 20  1  0  0  0  0
  1 21  1  0  0  0  0
  2  3  2  0  0  0  0
  2  4  1  0  0  0  0
  4  5  1  0  0  0  0
  4 22  1  0  0  0  0
  5  6  1  0  0  0  0
  5 23  1  0  0  0  0
  5 24  1  0  0  0  0
  6 18  1  0  0  0  0
  6  7  1  0  0  0  0
  6 25  1  0  0  0  0
  7  8  1  0  0  0  0
  7 26  1  0  0  0  0
  7 27  1  0  0  0  0
  8  9  1  0  0  0  0
  8 16  1  0  0  0  0
  9 14  1  0  0  0  0
  9 10  2  0  0  0  0
 10 11  1  0  0  0  0
 11 12  2  0  0  0  0
 11 28  1  0  0  0  0
 12 13  1  0  0  0  0
 12 29  1  0  0  0  0
 13 14  2  0  0  0  0
 13 30  1  0  0  0  0
 14 15  1  0  0  0  0
 16 17  1  0  0  0  0
 16 31  1  0  0  0  0
 16 32  1  0  0  0  0
 17 18  1  0  0  0  0
 17 33  1  0  0  0  0
 17 34  1  0  0  0  0
M  END
> <s_m_source_file>
AV-unprocessed.smi

> <i_m_source_file_index>
2476

> <i_lp_mmshare_version>
43012

> <i_f3d_flags>
0

> <s_epik_input>
W0NIM11DKD1PKVtOSF1bQ0gyXVtDQEBIXTFbQ0gyXU4oW0NIMl1bQ0gyXU8xKWMybltjSF1bY0hdW2NIXWMyRg==

> <s_epik_cmdline>
J2VwaWtfcHl0aG9uJywgJy1waCcsICc3LjAnLCAnLXRuJywgJzgnLCAnLW1hJywgJzIwMCcsICctbWV0YWxfYmluZGluZycsICctaW1hZScsICc8aW5maWxlLm1hZT4nLCAnLW9tYWUnLCAnPG91dGZpbGUubWFlPic=

> <r_lp_tautomer_probability>
1

> <r_epik_Ionization_Penalty>
1.69306e-05

> <r_epik_Ionization_Penalty_Charging>
0

> <r_epik_Ionization_Penalty_Neutral>
1.69306e-05

> <r_epik_State_Penalty>
-0

> <r_epik_Charging_Adjusted_Penalty>
0

> <i_epik_Tot_Q>
0

> <i_epik_Tot_abs_Q>
0

> <r_epik_Metal_State_Penalty>
-0

> <b_epik_Metal_Only>
0

> <s_lp_Force_Field>
OPLS_2005

> <r_lp_Energy>
19.3351

> <b_lp_Chiralities_Consistent>
1

> <s_lp_Variant>
AV-unprocessed.smi:2476-2

> <Gold.Version>
5.8.1

> <Gold.Id.Protein>
6NUR|6NUR_protein|mol2

> <Gold.PLP.Fitness>
42.1000

> <Gold.PLP.PLP>
-35.8376

> <Gold.PLP.part.hbond>
-2.0000

> <Gold.PLP.part.metal>
0.0000

> <Gold.PLP.part.buried>
-5.2319

> <Gold.PLP.part.nonpolar>
-30.3676

> <Gold.PLP.part.repulsive>
1.7623

> <Gold.PLP.ligand.clash>
0.0000

> <Gold.PLP.ligand.torsion>
0.3921

> <Gold.PLP.Chemscore.Hbond>
1.1934

> <Gold.PLP.Chemscore.CHOScore>
1.1199

> <Gold.PLP.Chemscore.Metal>
0.0000

> <Gold.Chemscore.Hbonds>
donor molecule, donor type, donor heavy atom, donor atom, acceptor molecule, acceptor atom, score
      P1  H  7989  7998       L1     3  0.30
      P1  H  8011  8017       L1     3  0.86
      L1  C    11    28       P1  8028  0.56
      L1  C    11    28       P1  8029  0.54

> <Gold.PLP.Chemscore.Internal.Correction>
0.1068

> <Gold.Rescore>
     Score         DG    S(hbond)    S(metal)    S(lipo)     H(rot)  DE(clash)    DE(int)     intcor
     13.01     -13.71       0.95        0.00      78.45       1.61       0.07       0.63       ----

> <Gold.Chemscore.Fitness>
13.0117

> <Gold.Chemscore.DG>
-13.7097

> <Gold.Chemscore.ZeroCoef>
-5.4800

> <Gold.Chemscore.Hbond>
0.9482

> <Gold.Chemscore.Metal>
0.0000

> <Gold.Chemscore.Lipo>
78.4501

> <Gold.Chemscore.Internal_Hbond>
0.0000

> <Gold.Chemscore.DEClash>
0.0659

> <Gold.Chemscore.DEInternal>
0.6321

> <Gold.Chemscore.Rot>
1.6078

> <Gold.Chemscore.Internal.Correction>
   9.000000E+99

> <Gold.Chemscore.Hbonds>
donor molecule, donor type, donor heavy atom, donor atom, acceptor molecule, acceptor atom, score
      P1  H  7989  7998       L1     3  0.24
      P1  H  8011  8017       L1     3  0.84

> <Gold.Chemscore.Hbond.Weighted>
-3.1669

> <Gold.Chemscore.Metal.Weighted>
-0.0000

> <Gold.Chemscore.Lipo.Weighted>
-9.1787

> <Gold.Chemscore.Internal_Hbond.Weighted>
0.0000

> <Gold.Chemscore.DEClash.Weighted>
0.0659

> <Gold.Chemscore.DEInternal.Weighted>
0.6321

> <Gold.Chemscore.Rot.Weighted>
4.1159

> <Gold.Chemscore.Internal.Correction.Weighted>
   9.000000E+99

> <Gold.Protein.RotatedTorsions>
[ 6907 6896 6895 6894 ] final -160.50 input  -60.11 | X-H torsion
[ 7974 7965 7964 7962 ] final -179.41 input  175.53 | X-H torsion
[ 8008 7997 7996 7995 ] final   17.30 input   59.86 | X-H torsion
[ 10167 10162 10161 10158 ] final   27.03 input  -65.29 | X-H torsion
[ 10718 10713 10712 10709 ] final   38.02 input   66.30 | X-H torsion
[ 10763 10752 10751 10750 ] final  115.39 input  -60.55 | X-H torsion
[ 11005 11000 10999 10996 ] final  -17.80 input  -57.11 | X-H torsion

> <Gold.Protein.ActiveResidues>
 VAL166  LYS551  ARG553  GLY616  TRP617  ASP618  TYR619  PRO620  LYS621  CYS622 
 ASP623  PHE694  ASN695  SER759  ASP760  ASP761  ALA762  ILE779  LEU786  VAL792 
 PHE793  MET794  SER795  GLU796  ALA797  LYS798  CYS799  TRP800  GLU811  SER814 

> <Gold.Protein.RotatedAtoms>
  151.3501  133.3929  159.2679 H   0  0  0  0  0  0  0  0  0  0  0  0  # atno 6907 bound_to 6896
  150.9808  134.9164  159.7853 H   0  0  0  0  0  0  0  0  0  0  0  0  # atno 6908 bound_to 6896
  152.5216  134.3465  159.9288 H   0  0  0  0  0  0  0  0  0  0  0  0  # atno 6909 bound_to 6896
  144.7136  140.0722  143.6429 H   0  0  0  0  0  0  0  0  0  0  0  0  # atno 7974 bound_to 7965
  154.8894  140.2984  155.5379 H   0  0  0  0  0  0  0  0  0  0  0  0  # atno 8008 bound_to 7997
  156.3021  140.2427  156.3842 H   0  0  0  0  0  0  0  0  0  0  0  0  # atno 8009 bound_to 7997
  154.8634  140.0404  157.1668 H   0  0  0  0  0  0  0  0  0  0  0  0  # atno 8010 bound_to 7997
  140.4973  144.0372  150.6319 H   0  0  0  0  0  0  0  0  0  0  0  0  # atno 10167 bound_to 10162
  157.3538  130.7613  149.6998 H   0  0  0  0  0  0  0  0  0  0  0  0  # atno 10718 bound_to 10713
  153.5215  135.3597  155.2634 H   0  0  0  0  0  0  0  0  0  0  0  0  # atno 10763 bound_to 10752
  154.8734  135.4046  154.3255 H   0  0  0  0  0  0  0  0  0  0  0  0  # atno 10764 bound_to 10752
  153.3926  135.7072  153.6551 H   0  0  0  0  0  0  0  0  0  0  0  0  # atno 10765 bound_to 10752
  140.8204  133.8072  155.9654 H   0  0  0  0  0  0  0  0  0  0  0  0  # atno 11005 bound_to 11000
  145.9774  139.2915  143.1062 LP  0  0  0  0  0  0  0  0  0  0  0  0  # atno 17320 bound_to 7965
  145.9049  140.9218  143.0484 LP  0  0  0  0  0  0  0  0  0  0  0  0  # atno 17321 bound_to 7965
  140.3658  143.2882  152.0333 LP  0  0  0  0  0  0  0  0  0  0  0  0  # atno 17342 bound_to 10162
  139.4864  144.6268  151.7148 LP  0  0  0  0  0  0  0  0  0  0  0  0  # atno 17343 bound_to 10162
  155.9726  130.4133  150.4075 LP  0  0  0  0  0  0  0  0  0  0  0  0  # atno 17370 bound_to 10713
  157.2142  131.0467  151.2582 LP  0  0  0  0  0  0  0  0  0  0  0  0  # atno 17371 bound_to 10713
  140.9105  134.2267  157.4989 LP  0  0  0  0  0  0  0  0  0  0  0  0  # atno 17394 bound_to 11000
  139.8709  134.9748  156.4858 LP  0  0  0  0  0  0  0  0  0  0  0  0  # atno 17395 bound_to 11000

$$$$
