AV-unprocessed.smi:411|AV-procd|sdf|2509|dock7
  -GOLD-   2262022463D 1   1.00000     0.00000
 Structure written by MMmdl.
 35 36  0  0  0  0  0  0  0  0  1 V2000
  151.0904  139.9832  158.8618 O   0  0  0  0  0  0  0  0  0  0  0  0
  151.2792  140.9000  158.0610 C   0  0  0  0  0  0  0  0  0  0  0  0
  152.1392  142.1155  158.4380 C   0  0  0  0  0  0  0  0  0  0  0  0
  152.7084  142.0369  159.7947 N   0  0  0  0  0  0  0  0  0  0  0  0
  152.3261  143.0401  160.7031 C   0  0  0  0  0  0  0  0  0  0  0  0
  152.7833  143.0633  161.9623 C   0  0  0  0  0  0  0  0  0  0  0  0
  153.6900  142.0213  162.3780 C   0  0  0  0  0  0  0  0  0  0  0  0
  154.0808  141.0462  161.5252 C   0  0  0  0  0  0  0  0  0  0  0  0
  155.0362  139.9336  161.9503 C   0  0  0  0  0  0  0  0  0  0  0  0
  154.4165  138.7527  161.9427 F   0  0  0  0  0  0  0  0  0  0  0  0
  156.0739  139.8650  161.1156 F   0  0  0  0  0  0  0  0  0  0  0  0
  155.5138  140.1343  163.1795 F   0  0  0  0  0  0  0  0  0  0  0  0
  153.5738  141.0328  160.1376 C   0  0  0  0  0  0  0  0  0  0  0  0
  153.9045  140.1698  159.3224 O   0  0  0  0  0  0  0  0  0  0  0  0
  150.7765  140.9023  156.8171 N   0  0  0  0  0  0  0  0  0  0  0  0
  149.9359  139.8537  156.2451 C   0  0  1  0  0  0  0  0  0  0  0  0
  149.8493  139.9886  154.6997 C   0  0  0  0  0  0  0  0  0  0  0  0
  150.3200  138.7024  154.0037 C   0  0  0  0  0  0  0  0  0  0  0  0
  150.0640  137.3722  155.2209 S   0  0  0  0  0  0  0  0  0  0  0  0
  148.6340  137.0302  155.2525 O   0  0  0  0  0  0  0  0  0  0  0  0
  151.0962  136.3350  155.0735 O   0  0  0  0  0  0  0  0  0  0  0  0
  150.4404  138.4503  156.6406 C   0  0  0  0  0  0  0  0  0  0  0  0
  152.9336  142.2112  157.6965 H   0  0  0  0  0  0  0  0  0  0  0  0
  151.5431  143.0240  158.3332 H   0  0  0  0  0  0  0  0  0  0  0  0
  151.6503  143.7861  160.3110 H   0  0  0  0  0  0  0  0  0  0  0  0
  152.4835  143.8430  162.6469 H   0  0  0  0  0  0  0  0  0  0  0  0
  154.0550  142.0355  163.3942 H   0  0  0  0  0  0  0  0  0  0  0  0
  150.9837  141.6934  156.2248 H   0  0  0  0  0  0  0  0  0  0  0  0
  148.9226  139.9715  156.6345 H   0  0  0  0  0  0  0  0  0  0  0  0
  148.8092  140.1716  154.4272 H   0  0  0  0  0  0  0  0  0  0  0  0
  150.4113  140.8463  154.3276 H   0  0  0  0  0  0  0  0  0  0  0  0
  149.7801  138.4845  153.0821 H   0  0  0  0  0  0  0  0  0  0  0  0
  151.3866  138.7520  153.7836 H   0  0  0  0  0  0  0  0  0  0  0  0
  151.5223  138.4413  156.7791 H   0  0  0  0  0  0  0  0  0  0  0  0
  149.9702  138.0633  157.5449 H   0  0  0  0  0  0  0  0  0  0  0  0
  1  2  2  0  0  0  0
  2  3  1  0  0  0  0
  2 15  1  0  0  0  0
  3  4  1  0  0  0  0
  3 23  1  0  0  0  0
  3 24  1  0  0  0  0
  4 13  1  0  0  0  0
  4  5  1  0  0  0  0
  5  6  2  0  0  0  0
  5 25  1  0  0  0  0
  6  7  1  0  0  0  0
  6 26  1  0  0  0  0
  7  8  2  0  0  0  0
  7 27  1  0  0  0  0
  8  9  1  0  0  0  0
  8 13  1  0  0  0  0
  9 10  1  0  0  0  0
  9 11  1  0  0  0  0
  9 12  1  0  0  0  0
 13 14  2  0  0  0  0
 15 16  1  0  0  0  0
 15 28  1  0  0  0  0
 16 22  1  0  0  0  0
 16 17  1  0  0  0  0
 16 29  1  0  0  0  0
 17 18  1  0  0  0  0
 17 30  1  0  0  0  0
 17 31  1  0  0  0  0
 18 19  1  0  0  0  0
 18 32  1  0  0  0  0
 18 33  1  0  0  0  0
 19 20  2  0  0  0  0
 19 21  2  0  0  0  0
 19 22  1  0  0  0  0
 22 34  1  0  0  0  0
 22 35  1  0  0  0  0
M  END
> <s_m_source_file>
AV-unprocessed.smi

> <i_m_source_file_index>
411

> <i_lp_mmshare_version>
43012

> <i_f3d_flags>
0

> <s_epik_input>
Tz1TMSg9TylbQ0gyXVtDSDJdW0NASF0oW0NIMl0xKVtOSF1DKD1PKVtDSDJdbjJbY0hdW2NIXVtjSF1jKEMoRikoRilGKWMyPU8=

> <s_epik_cmdline>
J2VwaWtfcHl0aG9uJywgJy1waCcsICc3LjAnLCAnLXRuJywgJzgnLCAnLW1hJywgJzIwMCcsICctbWV0YWxfYmluZGluZycsICctaW1hZScsICc8aW5maWxlLm1hZT4nLCAnLW9tYWUnLCAnPG91dGZpbGUubWFlPic=

> <r_lp_tautomer_probability>
1

> <r_epik_Ionization_Penalty>
1.08759e-07

> <r_epik_Ionization_Penalty_Charging>
1.56656e-09

> <r_epik_Ionization_Penalty_Neutral>
1.07193e-07

> <r_epik_State_Penalty>
-0

> <r_epik_Charging_Adjusted_Penalty>
1.56656e-09

> <i_epik_Tot_Q>
0

> <i_epik_Tot_abs_Q>
0

> <r_epik_Metal_State_Penalty>
-0

> <b_epik_Metal_Only>
0

> <s_lp_Force_Field>
OPLS_2005

> <r_lp_Energy>
15.8783

> <b_lp_Chiralities_Consistent>
1

> <s_lp_Variant>
AV-unprocessed.smi:411-2

> <Gold.Version>
5.8.1

> <Gold.Id.Protein>
6NUR|6NUR_protein|mol2

> <Gold.PLP.Fitness>
45.2367

> <Gold.PLP.PLP>
-41.0718

> <Gold.PLP.part.hbond>
-1.8490

> <Gold.PLP.part.metal>
0.0000

> <Gold.PLP.part.buried>
-2.6795

> <Gold.PLP.part.nonpolar>
-35.2942

> <Gold.PLP.part.repulsive>
0.3154

> <Gold.PLP.ligand.clash>
0.2172

> <Gold.PLP.ligand.torsion>
0.3393

> <Gold.PLP.Chemscore.Hbond>
1.5730

> <Gold.PLP.Chemscore.CHOScore>
0.0000

> <Gold.PLP.Chemscore.Metal>
0.0000

> <Gold.Chemscore.Hbonds>
donor molecule, donor type, donor heavy atom, donor atom, acceptor molecule, acceptor atom, score
      P1  H  7997  8009       L1    14  0.32
      P1  H 10752 10764       L1    21  0.74

> <Gold.PLP.Chemscore.Internal.Correction>
0.3416

> <Gold.Rescore>
     Score         DG    S(hbond)    S(metal)    S(lipo)     H(rot)  DE(clash)    DE(int)     intcor
     12.56     -16.73       1.91        0.00      79.53       1.73       0.02       4.14       ----

> <Gold.Chemscore.Fitness>
12.5612

> <Gold.Chemscore.DG>
-16.7304

> <Gold.Chemscore.ZeroCoef>
-5.4800

> <Gold.Chemscore.Hbond>
1.9096

> <Gold.Chemscore.Metal>
0.0000

> <Gold.Chemscore.Lipo>
79.5281

> <Gold.Chemscore.Internal_Hbond>
0.0000

> <Gold.Chemscore.DEClash>
0.0243

> <Gold.Chemscore.DEInternal>
4.1449

> <Gold.Chemscore.Rot>
1.7314

> <Gold.Chemscore.Internal.Correction>
   9.000000E+99

> <Gold.Chemscore.Hbonds>
donor molecule, donor type, donor heavy atom, donor atom, acceptor molecule, acceptor atom, score
      P1  H  7997  8009       L1    14  0.32
      P1  H 10752 10764       L1    21  0.71

> <Gold.Chemscore.Hbond.Weighted>
-6.3780

> <Gold.Chemscore.Metal.Weighted>
-0.0000

> <Gold.Chemscore.Lipo.Weighted>
-9.3048

> <Gold.Chemscore.Internal_Hbond.Weighted>
0.0000

> <Gold.Chemscore.DEClash.Weighted>
0.0243

> <Gold.Chemscore.DEInternal.Weighted>
4.1449

> <Gold.Chemscore.Rot.Weighted>
4.4324

> <Gold.Chemscore.Internal.Correction.Weighted>
   9.000000E+99

> <Gold.Protein.RotatedTorsions>
[ 6907 6896 6895 6894 ] final -119.46 input  -60.11 | X-H torsion
[ 7974 7965 7964 7962 ] final   78.31 input  175.53 | X-H torsion
[ 8008 7997 7996 7995 ] final  127.06 input   59.86 | X-H torsion
[ 10167 10162 10161 10158 ] final   62.55 input  -65.29 | X-H torsion
[ 10718 10713 10712 10709 ] final -131.50 input   66.30 | X-H torsion
[ 10763 10752 10751 10750 ] final  -81.17 input  -60.55 | X-H torsion
[ 11005 11000 10999 10996 ] final  174.54 input  -57.11 | X-H torsion

> <Gold.Protein.ActiveResidues>
 VAL166  LYS551  ARG553  GLY616  TRP617  ASP618  TYR619  PRO620  LYS621  CYS622 
 ASP623  PHE694  ASN695  SER759  ASP760  ASP761  ALA762  ILE779  LEU786  VAL792 
 PHE793  MET794  SER795  GLU796  ALA797  LYS798  CYS799  TRP800  GLU811  SER814 

> <Gold.Protein.RotatedAtoms>
  150.8307  133.8096  159.3099 H   0  0  0  0  0  0  0  0  0  0  0  0  # atno 6907 bound_to 6896
  151.5827  135.1056  160.0030 H   0  0  0  0  0  0  0  0  0  0  0  0  # atno 6908 bound_to 6896
  152.4387  133.7366  159.6673 H   0  0  0  0  0  0  0  0  0  0  0  0  # atno 6909 bound_to 6896
  145.6788  139.2518  143.1826 H   0  0  0  0  0  0  0  0  0  0  0  0  # atno 7974 bound_to 7965
  156.2881  140.2678  156.2212 H   0  0  0  0  0  0  0  0  0  0  0  0  # atno 8008 bound_to 7997
  155.0166  140.0387  157.2439 H   0  0  0  0  0  0  0  0  0  0  0  0  # atno 8009 bound_to 7997
  154.7472  140.2736  155.6328 H   0  0  0  0  0  0  0  0  0  0  0  0  # atno 8010 bound_to 7997
  140.1427  144.4538  150.6802 H   0  0  0  0  0  0  0  0  0  0  0  0  # atno 10167 bound_to 10162
  156.2251  130.7002  151.0798 H   0  0  0  0  0  0  0  0  0  0  0  0  # atno 10718 bound_to 10713
  154.5603  135.5635  153.7001 H   0  0  0  0  0  0  0  0  0  0  0  0  # atno 10763 bound_to 10752
  153.0016  135.6272  154.2254 H   0  0  0  0  0  0  0  0  0  0  0  0  # atno 10764 bound_to 10752
  154.2191  135.2870  155.2911 H   0  0  0  0  0  0  0  0  0  0  0  0  # atno 10765 bound_to 10752
  140.3524  134.7183  157.4277 H   0  0  0  0  0  0  0  0  0  0  0  0  # atno 11005 bound_to 11000
  146.0982  140.7575  142.9562 LP  0  0  0  0  0  0  0  0  0  0  0  0  # atno 17320 bound_to 7965
  144.7033  140.3745  143.7138 LP  0  0  0  0  0  0  0  0  0  0  0  0  # atno 17321 bound_to 7965
  140.6750  143.2301  151.5529 LP  0  0  0  0  0  0  0  0  0  0  0  0  # atno 17342 bound_to 10162
  139.5464  144.2510  152.1450 LP  0  0  0  0  0  0  0  0  0  0  0  0  # atno 17343 bound_to 10162
  157.7106  131.0736  150.6513 LP  0  0  0  0  0  0  0  0  0  0  0  0  # atno 17370 bound_to 10713
  156.6577  130.4503  149.5698 LP  0  0  0  0  0  0  0  0  0  0  0  0  # atno 17371 bound_to 10713
  140.0692  134.5886  155.8661 LP  0  0  0  0  0  0  0  0  0  0  0  0  # atno 17394 bound_to 11000
  141.2008  133.6615  156.5917 LP  0  0  0  0  0  0  0  0  0  0  0  0  # atno 17395 bound_to 11000

$$$$
