AV-unprocessed.smi:2991|AV-procd|sdf|11397|dock3
  -GOLD-   2272016323D 1   1.00000     0.00000
 Structure written by MMmdl.
 37 38  0  0  0  0  0  0  0  0  1 V2000
  149.8002  130.4098  154.1966 C   0  0  0  0  0  0  0  0  0  0  0  0
  150.2197  131.7333  154.8088 C   0  0  0  0  0  0  0  0  0  0  0  0
  151.0473  131.6493  155.8731 N   0  0  0  0  0  0  0  0  0  0  0  0
  151.4444  132.7966  156.4604 C   0  0  0  0  0  0  0  0  0  0  0  0
  151.0458  134.0721  156.0174 C   0  0  0  0  0  0  0  0  0  0  0  0
  150.1916  134.1647  154.8925 C   0  0  0  0  0  0  0  0  0  0  0  0
  149.7105  135.4000  154.3766 N   0  0  0  0  0  0  0  0  0  0  0  0
  149.3994  136.5246  155.0432 C   0  0  0  0  0  0  0  0  0  0  0  0
  149.4923  136.6812  156.2607 O   0  0  0  0  0  0  0  0  0  0  0  0
  148.9842  137.4829  154.2024 N   0  0  0  0  0  0  0  0  0  0  0  0
  148.6117  138.8474  154.5756 C   0  0  2  0  0  0  0  0  0  0  0  0
  147.4226  139.3465  153.7135 C   0  0  0  0  0  0  0  0  0  0  0  0
  147.3071  140.8746  153.5339 C   0  0  0  0  0  0  0  0  0  0  0  0
  147.2824  141.6979  154.8378 C   0  0  0  0  0  0  0  0  0  0  0  0
  148.4541  141.4739  155.8231 C   0  0  0  0  0  0  0  0  0  0  0  0
  149.6825  140.9878  155.1962 N   0  0  0  0  0  0  0  0  0  0  0  0
  149.8360  139.7825  154.6211 C   0  0  0  0  0  0  0  0  0  0  0  0
  150.9097  139.4393  154.1276 O   0  0  0  0  0  0  0  0  0  0  0  0
  149.7589  132.9634  154.2832 C   0  0  0  0  0  0  0  0  0  0  0  0
  148.6930  132.9964  152.9182 Cl  0  0  0  0  0  0  0  0  0  0  0  0
  148.7159  130.3021  154.2347 H   0  0  0  0  0  0  0  0  0  0  0  0
  150.2410  129.5641  154.7263 H   0  0  0  0  0  0  0  0  0  0  0  0
  150.1161  130.3569  153.1545 H   0  0  0  0  0  0  0  0  0  0  0  0
  152.0953  132.6949  157.3161 H   0  0  0  0  0  0  0  0  0  0  0  0
  151.3886  134.9443  156.5521 H   0  0  0  0  0  0  0  0  0  0  0  0
  149.6676  135.4564  153.3694 H   0  0  0  0  0  0  0  0  0  0  0  0
  148.9476  137.2659  153.2169 H   0  0  0  0  0  0  0  0  0  0  0  0
  148.2636  138.7895  155.6078 H   0  0  0  0  0  0  0  0  0  0  0  0
  147.4888  138.9061  152.7177 H   0  0  0  0  0  0  0  0  0  0  0  0
  146.4941  138.9650  154.1403 H   0  0  0  0  0  0  0  0  0  0  0  0
  148.1227  141.2267  152.9007 H   0  0  0  0  0  0  0  0  0  0  0  0
  146.4000  141.0908  152.9686 H   0  0  0  0  0  0  0  0  0  0  0  0
  147.2666  142.7521  154.5588 H   0  0  0  0  0  0  0  0  0  0  0  0
  146.3428  141.5225  155.3628 H   0  0  0  0  0  0  0  0  0  0  0  0
  148.6779  142.4077  156.3395 H   0  0  0  0  0  0  0  0  0  0  0  0
  148.1550  140.7783  156.6079 H   0  0  0  0  0  0  0  0  0  0  0  0
  150.4805  141.6062  155.2143 H   0  0  0  0  0  0  0  0  0  0  0  0
  1  2  1  0  0  0  0
  1 21  1  0  0  0  0
  1 22  1  0  0  0  0
  1 23  1  0  0  0  0
  2 19  1  0  0  0  0
  2  3  2  0  0  0  0
  3  4  1  0  0  0  0
  4  5  2  0  0  0  0
  4 24  1  0  0  0  0
  5  6  1  0  0  0  0
  5 25  1  0  0  0  0
  6  7  1  0  0  0  0
  6 19  2  0  0  0  0
  7  8  1  0  0  0  0
  7 26  1  0  0  0  0
  8  9  2  0  0  0  0
  8 10  1  0  0  0  0
 10 11  1  0  0  0  0
 10 27  1  0  0  0  0
 11 17  1  0  0  0  0
 11 12  1  0  0  0  0
 11 28  1  0  0  0  0
 12 13  1  0  0  0  0
 12 29  1  0  0  0  0
 12 30  1  0  0  0  0
 13 14  1  0  0  0  0
 13 31  1  0  0  0  0
 13 32  1  0  0  0  0
 14 15  1  0  0  0  0
 14 33  1  0  0  0  0
 14 34  1  0  0  0  0
 15 16  1  0  0  0  0
 15 35  1  0  0  0  0
 15 36  1  0  0  0  0
 16 17  1  0  0  0  0
 16 37  1  0  0  0  0
 17 18  2  0  0  0  0
 19 20  1  0  0  0  0
M  END
> <s_m_source_file>
AV-unprocessed.smi

> <i_m_source_file_index>
2991

> <i_lp_mmshare_version>
43012

> <i_f3d_flags>
0

> <s_epik_input>
W0NIM11jMW5bY0hdW2NIXWMoYzFDbClbTkhdQyg9TylbTkhdW0NAQEhdMltDSDJdW0NIMl1bQ0gyXVtDSDJdW05IXUMyPU8=

> <s_epik_cmdline>
J2VwaWtfcHl0aG9uJywgJy1waCcsICc3LjAnLCAnLXRuJywgJzgnLCAnLW1hJywgJzIwMCcsICctbWV0YWxfYmluZGluZycsICctaW1hZScsICc8aW5maWxlLm1hZT4nLCAnLW9tYWUnLCAnPG91dGZpbGUubWFlPic=

> <r_epik_Ionization_Penalty>
0.00809016

> <r_epik_Ionization_Penalty_Charging>
0

> <r_epik_Ionization_Penalty_Neutral>
0.00809016

> <r_epik_State_Penalty>
0.00605324

> <r_epik_Charging_Adjusted_Penalty>
0.00605324

> <i_epik_Tot_Q>
0

> <i_epik_Tot_abs_Q>
0

> <r_epik_Metal_State_Penalty>
0.00597181

> <b_epik_Metal_Only>
0

> <s_lp_Force_Field>
OPLS_2005

> <r_lp_Energy>
20.4462

> <b_lp_Chiralities_Consistent>
1

> <s_lp_Variant>
AV-unprocessed.smi:2991-1

> <Gold.Version>
5.8.1

> <Gold.Id.Protein>
6NUR|6NUR_protein|mol2

> <Gold.PLP.Fitness>
39.1073

> <Gold.PLP.PLP>
-32.1366

> <Gold.PLP.part.hbond>
-3.0000

> <Gold.PLP.part.metal>
0.0000

> <Gold.PLP.part.buried>
-4.1287

> <Gold.PLP.part.nonpolar>
-26.3601

> <Gold.PLP.part.repulsive>
0.3378

> <Gold.PLP.ligand.clash>
0.0000

> <Gold.PLP.ligand.torsion>
0.5915

> <Gold.PLP.Chemscore.Hbond>
2.7000

> <Gold.PLP.Chemscore.CHOScore>
0.0000

> <Gold.PLP.Chemscore.Metal>
0.0000

> <Gold.Chemscore.Hbonds>
donor molecule, donor type, donor heavy atom, donor atom, acceptor molecule, acceptor atom, score
      L1  H     7    26       P1  7948  0.50
      L1  H    10    27       P1  7948  1.00
      P1  H  7989  7998       L1    18  1.00

> <Gold.PLP.Chemscore.Internal.Correction>
0.0536

> <Gold.Rescore>
     Score         DG    S(hbond)    S(metal)    S(lipo)     H(rot)  DE(clash)    DE(int)     intcor
     17.05     -18.21       2.59        0.00      56.91       1.00       0.03       1.13       ----

> <Gold.Chemscore.Fitness>
17.0507

> <Gold.Chemscore.DG>
-18.2124

> <Gold.Chemscore.ZeroCoef>
-5.4800

> <Gold.Chemscore.Hbond>
2.5851

> <Gold.Chemscore.Metal>
0.0000

> <Gold.Chemscore.Lipo>
56.9061

> <Gold.Chemscore.Internal_Hbond>
0.0000

> <Gold.Chemscore.DEClash>
0.0270

> <Gold.Chemscore.DEInternal>
1.1347

> <Gold.Chemscore.Rot>
1.0000

> <Gold.Chemscore.Internal.Correction>
   9.000000E+99

> <Gold.Chemscore.Hbonds>
donor molecule, donor type, donor heavy atom, donor atom, acceptor molecule, acceptor atom, score
      L1  H     7    26       P1  7948  0.02
      L1  H    10    27       P1  7948  0.98
      P1  H  7989  7998       L1    18  0.60

> <Gold.Chemscore.Hbond.Weighted>
-8.6344

> <Gold.Chemscore.Metal.Weighted>
-0.0000

> <Gold.Chemscore.Lipo.Weighted>
-6.6580

> <Gold.Chemscore.Internal_Hbond.Weighted>
0.0000

> <Gold.Chemscore.DEClash.Weighted>
0.0270

> <Gold.Chemscore.DEInternal.Weighted>
1.1347

> <Gold.Chemscore.Rot.Weighted>
2.5600

> <Gold.Chemscore.Internal.Correction.Weighted>
   9.000000E+99

> <Gold.Protein.RotatedTorsions>
[ 6907 6896 6895 6894 ] final  141.84 input  -60.11 | X-H torsion
[ 7974 7965 7964 7962 ] final   98.11 input  175.53 | X-H torsion
[ 8008 7997 7996 7995 ] final  151.09 input   59.86 | X-H torsion
[ 10167 10162 10161 10158 ] final  -78.86 input  -65.29 | X-H torsion
[ 10718 10713 10712 10709 ] final  -32.74 input   66.30 | X-H torsion
[ 10763 10752 10751 10750 ] final  -28.54 input  -60.55 | X-H torsion
[ 11005 11000 10999 10996 ] final  -26.61 input  -57.11 | X-H torsion

> <Gold.Protein.ActiveResidues>
 VAL166  LYS551  ARG553  GLY616  TRP617  ASP618  TYR619  PRO620  LYS621  CYS622 
 ASP623  PHE694  ASN695  SER759  ASP760  ASP761  ALA762  ILE779  LEU786  VAL792 
 PHE793  MET794  SER795  GLU796  ALA797  LYS798  CYS799  TRP800  GLU811  SER814 

> <Gold.Protein.RotatedAtoms>
  152.2261  133.5021  159.5189 H   0  0  0  0  0  0  0  0  0  0  0  0  # atno 6907 bound_to 6896
  150.7025  134.1279  159.4068 H   0  0  0  0  0  0  0  0  0  0  0  0  # atno 6908 bound_to 6896
  151.9200  135.0302  160.0572 H   0  0  0  0  0  0  0  0  0  0  0  0  # atno 6909 bound_to 6896
  145.4165  139.2327  143.3219 H   0  0  0  0  0  0  0  0  0  0  0  0  # atno 7974 bound_to 7965
  156.2689  140.2057  156.6120 H   0  0  0  0  0  0  0  0  0  0  0  0  # atno 8008 bound_to 7997
  154.6824  140.0538  157.0303 H   0  0  0  0  0  0  0  0  0  0  0  0  # atno 8009 bound_to 7997
  155.0982  140.3203  155.4557 H   0  0  0  0  0  0  0  0  0  0  0  0  # atno 8010 bound_to 7997
  140.4645  143.2444  151.8299 H   0  0  0  0  0  0  0  0  0  0  0  0  # atno 10167 bound_to 10162
  156.3712  130.4340  149.7543 H   0  0  0  0  0  0  0  0  0  0  0  0  # atno 10718 bound_to 10713
  153.7501  135.6926  153.4947 H   0  0  0  0  0  0  0  0  0  0  0  0  # atno 10763 bound_to 10752
  153.2009  135.4437  155.0264 H   0  0  0  0  0  0  0  0  0  0  0  0  # atno 10764 bound_to 10752
  154.8190  135.3413  154.7022 H   0  0  0  0  0  0  0  0  0  0  0  0  # atno 10765 bound_to 10752
  140.9045  133.7502  156.0587 H   0  0  0  0  0  0  0  0  0  0  0  0  # atno 11005 bound_to 11000
  146.2678  140.4884  142.8827 LP  0  0  0  0  0  0  0  0  0  0  0  0  # atno 17320 bound_to 7965
  144.8274  140.6650  143.6313 LP  0  0  0  0  0  0  0  0  0  0  0  0  # atno 17321 bound_to 7965
  139.4810  144.4967  151.9114 LP  0  0  0  0  0  0  0  0  0  0  0  0  # atno 17342 bound_to 10162
  140.4053  144.2440  150.5891 LP  0  0  0  0  0  0  0  0  0  0  0  0  # atno 17343 bound_to 10162
  156.4670  130.7978  151.2997 LP  0  0  0  0  0  0  0  0  0  0  0  0  # atno 17370 bound_to 10713
  157.7484  131.0048  150.3089 LP  0  0  0  0  0  0  0  0  0  0  0  0  # atno 17371 bound_to 10713
  140.8189  134.3313  157.5388 LP  0  0  0  0  0  0  0  0  0  0  0  0  # atno 17394 bound_to 11000
  139.8747  134.9297  156.3484 LP  0  0  0  0  0  0  0  0  0  0  0  0  # atno 17395 bound_to 11000

$$$$
