AV-unprocessed.smi:102|AV-procd|sdf|948|dock5
  -GOLD-   2262017473D 1   1.00000     0.00000
 Structure written by MMmdl.
 44 45  0  0  0  0  0  0  0  0  1 V2000
  147.7582  134.8648  161.6209 C   0  0  0  0  0  0  0  0  0  0  0  0
  147.7407  135.9941  160.5986 C   0  0  0  0  0  0  0  0  0  0  0  0
  147.6676  137.1728  160.9469 O   0  0  0  0  0  0  0  0  0  0  0  0
  147.8117  135.5493  159.3349 O   0  0  0  0  0  0  0  0  0  0  0  0
  148.3149  136.4036  158.3218 C   0  0  0  0  0  0  0  0  0  0  0  0
  148.4160  135.6228  156.9972 C   0  0  1  0  0  0  0  0  0  0  0  0
  147.1115  135.2329  156.5812 O   0  0  0  0  0  0  0  0  0  0  0  0
  146.5216  136.2738  155.8624 C   0  0  2  0  0  0  0  0  0  0  0  0
  145.6499  135.6832  154.7771 N   0  0  0  0  0  0  0  0  0  0  0  0
  145.8686  136.0171  153.4471 C   0  0  0  0  0  0  0  0  0  0  0  0
  145.1031  135.5503  152.4324 C   0  0  0  0  0  0  0  0  0  0  0  0
  145.3819  135.9147  151.1693 F   0  0  0  0  0  0  0  0  0  0  0  0
  143.9766  134.6607  152.6979 C   0  0  0  0  0  0  0  0  0  0  0  0
  143.2312  134.1800  151.8466 O   0  0  0  0  0  0  0  0  0  0  0  0
  143.7769  134.3729  154.0509 N   0  0  0  0  0  0  0  0  0  0  0  0
  144.5538  134.8529  155.1068 C   0  0  0  0  0  0  0  0  0  0  0  0
  144.2654  134.5497  156.2627 O   0  0  0  0  0  0  0  0  0  0  0  0
  147.6468  137.1719  155.3121 C   0  0  1  0  0  0  0  0  0  0  0  0
  147.5061  138.4754  155.8714 O   0  0  0  0  0  0  0  0  0  0  0  0
  148.2221  139.5069  155.3903 C   0  0  0  0  0  0  0  0  0  0  0  0
  148.2608  140.6840  156.3553 C   0  0  0  0  0  0  0  0  0  0  0  0
  148.8063  139.5437  154.3076 O   0  0  0  0  0  0  0  0  0  0  0  0
  148.9051  136.4572  155.8054 C   0  0  1  0  0  0  0  0  0  0  0  0
  149.9697  137.3530  156.1104 O   0  0  0  0  0  0  0  0  0  0  0  0
  151.2454  136.9340  156.0665 C   0  0  0  0  0  0  0  0  0  0  0  0
  152.2337  138.0583  156.3454 C   0  0  0  0  0  0  0  0  0  0  0  0
  151.6236  135.7847  155.8410 O   0  0  0  0  0  0  0  0  0  0  0  0
  142.9999  133.7720  154.2850 H   0  0  0  0  0  0  0  0  0  0  0  0
  147.9575  133.9062  161.1410 H   0  0  0  0  0  0  0  0  0  0  0  0
  146.7963  134.8036  162.1301 H   0  0  0  0  0  0  0  0  0  0  0  0
  148.5329  135.0433  162.3668 H   0  0  0  0  0  0  0  0  0  0  0  0
  147.6814  137.2849  158.2157 H   0  0  0  0  0  0  0  0  0  0  0  0
  149.3033  136.7495  158.6267 H   0  0  0  0  0  0  0  0  0  0  0  0
  149.0506  134.7465  157.1337 H   0  0  0  0  0  0  0  0  0  0  0  0
  145.8478  136.8151  156.5286 H   0  0  0  0  0  0  0  0  0  0  0  0
  146.6869  136.6758  153.1931 H   0  0  0  0  0  0  0  0  0  0  0  0
  147.6074  137.2004  154.2226 H   0  0  0  0  0  0  0  0  0  0  0  0
  147.2526  140.9451  156.6775 H   0  0  0  0  0  0  0  0  0  0  0  0
  148.7074  141.5567  155.8780 H   0  0  0  0  0  0  0  0  0  0  0  0
  148.8525  140.4312  157.2353 H   0  0  0  0  0  0  0  0  0  0  0  0
  149.2232  135.7748  155.0165 H   0  0  0  0  0  0  0  0  0  0  0  0
  151.9376  138.9654  155.8181 H   0  0  0  0  0  0  0  0  0  0  0  0
  153.2348  137.7784  156.0166 H   0  0  0  0  0  0  0  0  0  0  0  0
  152.2672  138.2733  157.4136 H   0  0  0  0  0  0  0  0  0  0  0  0
  1  2  1  0  0  0  0
  1 29  1  0  0  0  0
  1 30  1  0  0  0  0
  1 31  1  0  0  0  0
  2  3  2  0  0  0  0
  2  4  1  0  0  0  0
  4  5  1  0  0  0  0
  5  6  1  0  0  0  0
  5 32  1  0  0  0  0
  5 33  1  0  0  0  0
  6 23  1  0  0  0  0
  6  7  1  0  0  0  0
  6 34  1  0  0  0  0
  7  8  1  0  0  0  0
  8  9  1  0  0  0  0
  8 18  1  0  0  0  0
  8 35  1  0  0  0  0
  9 16  1  0  0  0  0
  9 10  1  0  0  0  0
 10 11  2  0  0  0  0
 10 36  1  0  0  0  0
 11 12  1  0  0  0  0
 11 13  1  0  0  0  0
 13 14  2  0  0  0  0
 13 15  1  0  0  0  0
 15 28  1  0  0  0  0
 15 16  1  0  0  0  0
 16 17  2  0  0  0  0
 18 19  1  0  0  0  0
 18 23  1  0  0  0  0
 18 37  1  0  0  0  0
 19 20  1  0  0  0  0
 20 21  1  0  0  0  0
 20 22  2  0  0  0  0
 21 38  1  0  0  0  0
 21 39  1  0  0  0  0
 21 40  1  0  0  0  0
 23 24  1  0  0  0  0
 23 41  1  0  0  0  0
 24 25  1  0  0  0  0
 25 26  1  0  0  0  0
 25 27  2  0  0  0  0
 26 42  1  0  0  0  0
 26 43  1  0  0  0  0
 26 44  1  0  0  0  0
M  END
> <s_m_source_file>
AV-unprocessed.smi

> <i_m_source_file_index>
102

> <i_lp_mmshare_version>
43012

> <i_f3d_flags>
0

> <s_epik_input>
W0NIM11DKD1PKU9bQ0gyXVtDQEBIXTFPW0NASF0oW0NAQEhdKE9DKD1PKVtDSDNdKVtDQEhdMU9DKD1PKVtDSDNdKW4yW2NIXWMoRiljKD1PKVtuSF1jMj1P

> <s_epik_cmdline>
J2VwaWtfcHl0aG9uJywgJy1waCcsICc3LjAnLCAnLXRuJywgJzgnLCAnLW1hJywgJzIwMCcsICctbWV0YWxfYmluZGluZycsICctaW1hZScsICc8aW5maWxlLm1hZT4nLCAnLW9tYWUnLCAnPG91dGZpbGUubWFlPic=

> <r_lp_tautomer_probability>
0.999537

> <r_epik_Ionization_Penalty>
0.058267

> <r_epik_Ionization_Penalty_Charging>
0.058267

> <r_epik_Ionization_Penalty_Neutral>
6.57791e-16

> <r_epik_State_Penalty>
0.0503774

> <r_epik_Charging_Adjusted_Penalty>
0.108644

> <i_epik_Tot_Q>
0

> <i_epik_Tot_abs_Q>
0

> <r_epik_Metal_State_Penalty>
2.6644

> <b_epik_Metal_Only>
0

> <s_epik_Chemistry_Notes>
This compound has an ester and may undergo hydrolysis at high or low pH. This compound contains an acetal/aminal-like group ( X-CH(R)-Y where X, Y are N, S, or O) that may be acid/base labile, releasing an aldehyde.

> <s_lp_Force_Field>
OPLS_2005

> <r_lp_Energy>
11.7279

> <b_lp_Chiralities_Consistent>
1

> <s_lp_Variant>
AV-unprocessed.smi:102-4

> <Gold.Version>
5.8.1

> <Gold.Id.Protein>
6NUR|6NUR_protein|mol2

> <Gold.PLP.Fitness>
33.3350

> <Gold.PLP.PLP>
-20.6987

> <Gold.PLP.part.hbond>
-4.0000

> <Gold.PLP.part.metal>
0.0000

> <Gold.PLP.part.buried>
-4.6897

> <Gold.PLP.part.nonpolar>
-12.0683

> <Gold.PLP.part.repulsive>
0.4105

> <Gold.PLP.ligand.clash>
0.0000

> <Gold.PLP.ligand.torsion>
1.0049

> <Gold.PLP.Chemscore.Hbond>
3.8400

> <Gold.PLP.Chemscore.CHOScore>
1.0000

> <Gold.PLP.Chemscore.Metal>
0.0000

> <Gold.Chemscore.Hbonds>
donor molecule, donor type, donor heavy atom, donor atom, acceptor molecule, acceptor atom, score
      L1  H    15    28       P1 10957  0.66
      P1  H  6931  6943       L1     3  0.88
      P1  H  6934  6947       L1     3  0.91
      P1  H 10752 10764       L1    27  1.00
      L1  C    10    36       P1  7948  0.67

> <Gold.PLP.Chemscore.Internal.Correction>
0.1261

> <Gold.Rescore>
     Score         DG    S(hbond)    S(metal)    S(lipo)     H(rot)  DE(clash)    DE(int)     intcor
      8.73     -10.99       3.75        0.00      28.66       4.05       0.05       2.22       ----

> <Gold.Chemscore.Fitness>
8.7297

> <Gold.Chemscore.DG>
-10.9947

> <Gold.Chemscore.ZeroCoef>
-5.4800

> <Gold.Chemscore.Hbond>
3.7528

> <Gold.Chemscore.Metal>
0.0000

> <Gold.Chemscore.Lipo>
28.6634

> <Gold.Chemscore.Internal_Hbond>
0.0000

> <Gold.Chemscore.DEClash>
0.0450

> <Gold.Chemscore.DEInternal>
2.2200

> <Gold.Chemscore.Rot>
4.0520

> <Gold.Chemscore.Internal.Correction>
   9.000000E+99

> <Gold.Chemscore.Hbonds>
donor molecule, donor type, donor heavy atom, donor atom, acceptor molecule, acceptor atom, score
      L1  H    15    28       P1 10957  0.64
      P1  H  6931  6943       L1     3  0.84
      P1  H  6934  6947       L1     3  0.89
      P1  H 10752 10764       L1    27  0.98

> <Gold.Chemscore.Hbond.Weighted>
-12.5343

> <Gold.Chemscore.Metal.Weighted>
-0.0000

> <Gold.Chemscore.Lipo.Weighted>
-3.3536

> <Gold.Chemscore.Internal_Hbond.Weighted>
0.0000

> <Gold.Chemscore.DEClash.Weighted>
0.0450

> <Gold.Chemscore.DEInternal.Weighted>
2.2200

> <Gold.Chemscore.Rot.Weighted>
10.3732

> <Gold.Chemscore.Internal.Correction.Weighted>
   9.000000E+99

> <Gold.Protein.RotatedTorsions>
[ 6907 6896 6895 6894 ] final   -2.13 input  -60.11 | X-H torsion
[ 7974 7965 7964 7962 ] final  -17.99 input  175.53 | X-H torsion
[ 8008 7997 7996 7995 ] final -172.60 input   59.86 | X-H torsion
[ 10167 10162 10161 10158 ] final  -23.50 input  -65.29 | X-H torsion
[ 10718 10713 10712 10709 ] final  147.89 input   66.30 | X-H torsion
[ 10763 10752 10751 10750 ] final  -44.04 input  -60.55 | X-H torsion
[ 11005 11000 10999 10996 ] final  -20.16 input  -57.11 | X-H torsion

> <Gold.Protein.ActiveResidues>
 VAL166  LYS551  ARG553  GLY616  TRP617  ASP618  TYR619  PRO620  LYS621  CYS622 
 ASP623  PHE694  ASN695  SER759  ASP760  ASP761  ALA762  ILE779  LEU786  VAL792 
 PHE793  MET794  SER795  GLU796  ALA797  LYS798  CYS799  TRP800  GLU811  SER814 

> <Gold.Protein.RotatedAtoms>
  151.5349  135.1068  159.9911 H   0  0  0  0  0  0  0  0  0  0  0  0  # atno 6907 bound_to 6896
  152.4562  133.7723  159.6816 H   0  0  0  0  0  0  0  0  0  0  0  0  # atno 6908 bound_to 6896
  150.8506  133.7727  159.3051 H   0  0  0  0  0  0  0  0  0  0  0  0  # atno 6909 bound_to 6896
  146.1914  140.3857  142.8456 H   0  0  0  0  0  0  0  0  0  0  0  0  # atno 7974 bound_to 7965
  155.9466  140.1118  157.1011 H   0  0  0  0  0  0  0  0  0  0  0  0  # atno 8008 bound_to 7997
  154.4100  140.1208  156.5064 H   0  0  0  0  0  0  0  0  0  0  0  0  # atno 8009 bound_to 7997
  155.6894  140.3472  155.4890 H   0  0  0  0  0  0  0  0  0  0  0  0  # atno 8010 bound_to 7997
  140.7288  143.4437  151.0618 H   0  0  0  0  0  0  0  0  0  0  0  0  # atno 10167 bound_to 10162
  157.3154  131.0895  151.1283 H   0  0  0  0  0  0  0  0  0  0  0  0  # atno 10718 bound_to 10713
  154.0055  135.6688  153.4762 H   0  0  0  0  0  0  0  0  0  0  0  0  # atno 10763 bound_to 10752
  153.0644  135.5009  154.8162 H   0  0  0  0  0  0  0  0  0  0  0  0  # atno 10764 bound_to 10752
  154.7027  135.3082  154.9280 H   0  0  0  0  0  0  0  0  0  0  0  0  # atno 10765 bound_to 10752
  140.8438  133.7907  155.9889 H   0  0  0  0  0  0  0  0  0  0  0  0  # atno 11005 bound_to 11000
  144.8494  140.6979  143.6178 LP  0  0  0  0  0  0  0  0  0  0  0  0  # atno 17320 bound_to 7965
  145.3780  139.1643  143.4296 LP  0  0  0  0  0  0  0  0  0  0  0  0  # atno 17321 bound_to 7965
  139.8107  143.7955  152.3171 LP  0  0  0  0  0  0  0  0  0  0  0  0  # atno 17342 bound_to 10162
  139.8003  144.7376  150.9833 LP  0  0  0  0  0  0  0  0  0  0  0  0  # atno 17343 bound_to 10162
  157.2589  130.6649  149.5965 LP  0  0  0  0  0  0  0  0  0  0  0  0  # atno 17370 bound_to 10713
  155.9681  130.4515  150.5737 LP  0  0  0  0  0  0  0  0  0  0  0  0  # atno 17371 bound_to 10713
  140.8866  134.2546  157.5116 LP  0  0  0  0  0  0  0  0  0  0  0  0  # atno 17394 bound_to 11000
  139.8703  134.9641  156.4484 LP  0  0  0  0  0  0  0  0  0  0  0  0  # atno 17395 bound_to 11000

$$$$
