AV-unprocessed.smi:298|AV-procd|sdf|2262|dock10
  -GOLD-   2262022153D 1   1.00000     0.00000
 Structure written by MMmdl.
 38 40  0  0  0  0  0  0  0  0  1 V2000
  153.3261  142.2198  161.8121 C   0  0  0  0  0  0  0  0  0  0  0  0
  152.7015  142.0797  160.4352 C   0  0  0  0  0  0  0  0  0  0  0  0
  152.9959  140.9349  159.6603 C   0  0  0  0  0  0  0  0  0  0  0  0
  152.4321  140.7642  158.3770 C   0  0  0  0  0  0  0  0  0  0  0  0
  152.5761  139.7367  157.4602 N   0  0  0  0  0  0  0  0  0  0  0  0
  151.7994  140.1542  156.4645 C   0  0  0  0  0  0  0  0  0  0  0  0
  151.1677  141.3322  156.6289 N   0  0  0  0  0  0  0  0  0  0  0  0
  150.2710  141.9841  155.6918 C   0  0  0  0  0  0  0  0  0  0  0  0
  148.9014  141.2782  155.5974 C   0  0  1  0  0  0  0  0  0  0  0  0
  147.8791  142.2368  155.4013 O   0  0  0  0  0  0  0  0  0  0  0  0
  148.8319  140.2121  154.4821 C   0  0  0  0  0  0  0  0  0  0  0  0
  149.6957  139.0651  154.7118 N   0  0  0  0  0  0  0  0  0  0  0  0
  150.6764  138.5538  153.9602 C   0  0  0  0  0  0  0  0  0  0  0  0
  151.2583  137.4832  154.4859 N   0  0  0  0  0  0  0  0  0  0  0  0
  150.5355  137.3955  155.6401 C   0  0  0  0  0  0  0  0  0  0  0  0
  150.7841  136.3461  156.6141 C   0  0  0  0  0  0  0  0  0  0  0  0
  150.9817  135.5101  157.3896 N   0  0  0  0  0  0  0  0  0  0  0  0
  149.5923  138.3143  155.8356 N   0  0  0  0  0  0  0  0  0  0  0  0
  151.5592  141.7785  157.8864 C   0  0  0  0  0  0  0  0  0  0  0  0
  151.2596  142.9227  158.6466 C   0  0  0  0  0  0  0  0  0  0  0  0
  151.8309  143.0773  159.9270 C   0  0  0  0  0  0  0  0  0  0  0  0
  151.4987  144.3151  160.7415 C   0  0  0  0  0  0  0  0  0  0  0  0
  153.9785  141.3768  162.0409 H   0  0  0  0  0  0  0  0  0  0  0  0
  152.5529  142.2619  162.5796 H   0  0  0  0  0  0  0  0  0  0  0  0
  153.9234  143.1300  161.8710 H   0  0  0  0  0  0  0  0  0  0  0  0
  153.6577  140.1743  160.0478 H   0  0  0  0  0  0  0  0  0  0  0  0
  151.6788  139.5686  155.5649 H   0  0  0  0  0  0  0  0  0  0  0  0
  150.1556  143.0235  156.0005 H   0  0  0  0  0  0  0  0  0  0  0  0
  150.7519  142.0024  154.7128 H   0  0  0  0  0  0  0  0  0  0  0  0
  148.6954  140.7867  156.5489 H   0  0  0  0  0  0  0  0  0  0  0  0
  148.2813  143.0727  155.2203 H   0  0  0  0  0  0  0  0  0  0  0  0
  147.8083  139.8471  154.3902 H   0  0  0  0  0  0  0  0  0  0  0  0
  149.0860  140.6538  153.5174 H   0  0  0  0  0  0  0  0  0  0  0  0
  150.9654  138.9705  153.0064 H   0  0  0  0  0  0  0  0  0  0  0  0
  150.5922  143.6728  158.2483 H   0  0  0  0  0  0  0  0  0  0  0  0
  150.8021  144.9655  160.2115 H   0  0  0  0  0  0  0  0  0  0  0  0
  152.4018  144.8898  160.9484 H   0  0  0  0  0  0  0  0  0  0  0  0
  151.0395  144.0369  161.6903 H   0  0  0  0  0  0  0  0  0  0  0  0
  1  2  1  0  0  0  0
  1 23  1  0  0  0  0
  1 24  1  0  0  0  0
  1 25  1  0  0  0  0
  2 21  1  0  0  0  0
  2  3  2  0  0  0  0
  3  4  1  0  0  0  0
  3 26  1  0  0  0  0
  4 19  2  0  0  0  0
  4  5  1  0  0  0  0
  5  6  2  0  0  0  0
  6  7  1  0  0  0  0
  6 27  1  0  0  0  0
  7  8  1  0  0  0  0
  7 19  1  0  0  0  0
  8  9  1  0  0  0  0
  8 28  1  0  0  0  0
  8 29  1  0  0  0  0
  9 10  1  0  0  0  0
  9 11  1  0  0  0  0
  9 30  1  0  0  0  0
 10 31  1  0  0  0  0
 11 12  1  0  0  0  0
 11 32  1  0  0  0  0
 11 33  1  0  0  0  0
 12 18  1  0  0  0  0
 12 13  1  0  0  0  0
 13 14  2  0  0  0  0
 13 34  1  0  0  0  0
 14 15  1  0  0  0  0
 15 16  1  0  0  0  0
 15 18  2  0  0  0  0
 16 17  3  0  0  0  0
 19 20  1  0  0  0  0
 20 21  2  0  0  0  0
 20 35  1  0  0  0  0
 21 22  1  0  0  0  0
 22 36  1  0  0  0  0
 22 37  1  0  0  0  0
 22 38  1  0  0  0  0
M  END
> <s_m_source_file>
AV-unprocessed.smi

> <i_m_source_file_index>
298

> <i_lp_mmshare_version>
43012

> <i_f3d_flags>
0

> <s_epik_input>
W0NIM11jKFtjSF0xKWMoW0NIM10pW2NIXWMoYzEyKW4oW2NIXW4yKVtDSDJdW0NASF0oW09IXSlbQ0gyXW4zW2NIXW5jKG4zKUMjTg==

> <s_epik_cmdline>
J2VwaWtfcHl0aG9uJywgJy1waCcsICc3LjAnLCAnLXRuJywgJzgnLCAnLW1hJywgJzIwMCcsICctbWV0YWxfYmluZGluZycsICctaW1hZScsICc8aW5maWxlLm1hZT4nLCAnLW9tYWUnLCAnPG91dGZpbGUubWFlPic=

> <r_epik_Ionization_Penalty>
0.0968684

> <r_epik_Ionization_Penalty_Charging>
0

> <r_epik_Ionization_Penalty_Neutral>
0.0968684

> <r_epik_State_Penalty>
0.0870047

> <r_epik_Charging_Adjusted_Penalty>
0.0870047

> <i_epik_Tot_Q>
0

> <i_epik_Tot_abs_Q>
0

> <r_epik_Metal_State_Penalty>
0.0746849

> <b_epik_Metal_Only>
0

> <s_lp_Force_Field>
OPLS_2005

> <r_lp_Energy>
12.6861

> <b_lp_Chiralities_Consistent>
1

> <s_lp_Variant>
AV-unprocessed.smi:298-2

> <Gold.Version>
5.8.1

> <Gold.Id.Protein>
6NUR|6NUR_protein|mol2

> <Gold.PLP.Fitness>
50.7487

> <Gold.PLP.PLP>
-42.4750

> <Gold.PLP.part.hbond>
-3.0000

> <Gold.PLP.part.metal>
0.0000

> <Gold.PLP.part.buried>
-5.9488

> <Gold.PLP.part.nonpolar>
-33.7608

> <Gold.PLP.part.repulsive>
0.1992

> <Gold.PLP.ligand.clash>
0.0000

> <Gold.PLP.ligand.torsion>
0.6283

> <Gold.PLP.Chemscore.Hbond>
2.1997

> <Gold.PLP.Chemscore.CHOScore>
0.9728

> <Gold.PLP.Chemscore.Metal>
0.0000

> <Gold.Chemscore.Hbonds>
donor molecule, donor type, donor heavy atom, donor atom, acceptor molecule, acceptor atom, score
      L1  H    10    31       P1  8028  1.00
      P1  H  6896  6908       L1    17  0.07
      P1  H  7997  8010       L1     5  1.00
      L1  C    13    34       P1  7957  0.94

> <Gold.PLP.Chemscore.Internal.Correction>
0.0128

> <Gold.Rescore>
     Score         DG    S(hbond)    S(metal)    S(lipo)     H(rot)  DE(clash)    DE(int)     intcor
     15.73     -17.34       2.43        0.00      98.37       3.03       0.67       0.94       ----

> <Gold.Chemscore.Fitness>
15.7316

> <Gold.Chemscore.DG>
-17.3368

> <Gold.Chemscore.ZeroCoef>
-5.4800

> <Gold.Chemscore.Hbond>
2.4277

> <Gold.Chemscore.Metal>
0.0000

> <Gold.Chemscore.Lipo>
98.3693

> <Gold.Chemscore.Internal_Hbond>
0.0000

> <Gold.Chemscore.DEClash>
0.6684

> <Gold.Chemscore.DEInternal>
0.9368

> <Gold.Chemscore.Rot>
3.0316

> <Gold.Chemscore.Internal.Correction>
   9.000000E+99

> <Gold.Chemscore.Hbonds>
donor molecule, donor type, donor heavy atom, donor atom, acceptor molecule, acceptor atom, score
      L1  H    10    31       P1  8028  0.97
      P1  H  6896  6908       L1    17  0.08
      P1  H  7997  8010       L1     5  0.10

> <Gold.Chemscore.Hbond.Weighted>
-8.1085

> <Gold.Chemscore.Metal.Weighted>
-0.0000

> <Gold.Chemscore.Lipo.Weighted>
-11.5092

> <Gold.Chemscore.Internal_Hbond.Weighted>
0.0000

> <Gold.Chemscore.DEClash.Weighted>
0.6684

> <Gold.Chemscore.DEInternal.Weighted>
0.9368

> <Gold.Chemscore.Rot.Weighted>
7.7609

> <Gold.Chemscore.Internal.Correction.Weighted>
   9.000000E+99

> <Gold.Protein.RotatedTorsions>
[ 6907 6896 6895 6894 ] final  173.34 input  -60.11 | X-H torsion
[ 7974 7965 7964 7962 ] final   56.68 input  175.53 | X-H torsion
[ 8008 7997 7996 7995 ] final   59.87 input   59.86 | X-H torsion
[ 10167 10162 10161 10158 ] final  132.99 input  -65.29 | X-H torsion
[ 10718 10713 10712 10709 ] final  -10.11 input   66.30 | X-H torsion
[ 10763 10752 10751 10750 ] final -142.76 input  -60.55 | X-H torsion
[ 11005 11000 10999 10996 ] final -113.79 input  -57.11 | X-H torsion

> <Gold.Protein.ActiveResidues>
 VAL166  LYS551  ARG553  GLY616  TRP617  ASP618  TYR619  PRO620  LYS621  CYS622 
 ASP623  PHE694  ASN695  SER759  ASP760  ASP761  ALA762  ILE779  LEU786  VAL792 
 PHE793  MET794  SER795  GLU796  ALA797  LYS798  CYS799  TRP800  GLU811  SER814 

> <Gold.Protein.RotatedAtoms>
  151.7699  133.3340  159.3441 H   0  0  0  0  0  0  0  0  0  0  0  0  # atno 6907 bound_to 6896
  150.7465  134.6028  159.6055 H   0  0  0  0  0  0  0  0  0  0  0  0  # atno 6908 bound_to 6896
  152.3348  134.7214  160.0331 H   0  0  0  0  0  0  0  0  0  0  0  0  # atno 6909 bound_to 6896
  145.9372  139.3857  143.0386 H   0  0  0  0  0  0  0  0  0  0  0  0  # atno 7974 bound_to 7965
  155.5731  140.3490  155.4520 H   0  0  0  0  0  0  0  0  0  0  0  0  # atno 8008 bound_to 7997
  156.0429  140.1300  157.0161 H   0  0  0  0  0  0  0  0  0  0  0  0  # atno 8009 bound_to 7997
  154.4400  140.1020  156.6249 H   0  0  0  0  0  0  0  0  0  0  0  0  # atno 8010 bound_to 7997
  139.5316  144.6636  151.4932 H   0  0  0  0  0  0  0  0  0  0  0  0  # atno 10167 bound_to 10162
  156.6782  130.5029  149.5979 H   0  0  0  0  0  0  0  0  0  0  0  0  # atno 10718 bound_to 10713
  154.8496  135.3487  154.6079 H   0  0  0  0  0  0  0  0  0  0  0  0  # atno 10763 bound_to 10752
  153.6688  135.6986  153.5158 H   0  0  0  0  0  0  0  0  0  0  0  0  # atno 10764 bound_to 10752
  153.2759  135.4278  155.0989 H   0  0  0  0  0  0  0  0  0  0  0  0  # atno 10765 bound_to 10752
  141.0592  133.9562  157.2697 H   0  0  0  0  0  0  0  0  0  0  0  0  # atno 11005 bound_to 11000
  145.8348  140.9611  143.0830 LP  0  0  0  0  0  0  0  0  0  0  0  0  # atno 17320 bound_to 7965
  144.6773  140.0209  143.7484 LP  0  0  0  0  0  0  0  0  0  0  0  0  # atno 17321 bound_to 7965
  140.6497  143.8722  150.6773 LP  0  0  0  0  0  0  0  0  0  0  0  0  # atno 17342 bound_to 10162
  140.2083  143.3904  152.1738 LP  0  0  0  0  0  0  0  0  0  0  0  0  # atno 17343 bound_to 10162
  156.1887  130.6546  151.1037 LP  0  0  0  0  0  0  0  0  0  0  0  0  # atno 17370 bound_to 10713
  157.7053  131.0759  150.6687 LP  0  0  0  0  0  0  0  0  0  0  0  0  # atno 17371 bound_to 10713
  139.9418  135.0190  156.8730 LP  0  0  0  0  0  0  0  0  0  0  0  0  # atno 17394 bound_to 11000
  140.5902  134.0269  155.7497 LP  0  0  0  0  0  0  0  0  0  0  0  0  # atno 17395 bound_to 11000

$$$$
