AV-unprocessed.smi:2825|AV-procd|sdf|10888|dock6
  -GOLD-   2272015333D 1   1.00000     0.00000
 Structure written by MMmdl.
 48 49  0  0  0  0  0  0  0  0  1 V2000
  145.6310  136.5172  151.6240 C   0  0  0  0  0  0  0  0  0  0  0  0
  145.3054  137.1081  152.9995 C   0  0  0  0  0  0  0  0  0  0  0  0
  146.2071  138.2970  153.3616 C   0  0  0  0  0  0  0  0  0  0  0  0
  145.8590  138.9317  155.0634 S   0  0  0  0  0  0  0  0  0  0  0  0
  145.6432  140.3835  154.9657 O   0  0  0  0  0  0  0  0  0  0  0  0
  144.8462  138.0793  155.7056 O   0  0  0  0  0  0  0  0  0  0  0  0
  147.3614  138.6960  155.9018 N   0  0  0  0  0  0  0  0  0  0  0  0
  147.5487  137.4798  156.7027 C   0  0  0  0  0  0  0  0  0  0  0  0
  148.2635  139.8333  156.1745 C   0  0  0  0  0  0  0  0  0  0  0  0
  148.7220  140.5928  154.9102 C   0  0  2  0  0  0  0  0  0  0  0  0
  149.2275  139.6254  154.0109 O   0  0  0  0  0  0  0  0  0  0  0  0
  149.8221  141.6454  155.1749 C   0  0  0  0  0  0  0  0  0  0  0  0
  150.8066  141.2031  156.1480 N   0  0  0  0  0  0  0  0  0  0  0  0
  151.5557  140.0842  156.0977 C   0  0  0  0  0  0  0  0  0  0  0  0
  152.4097  139.8769  157.0956 N   0  0  0  0  0  0  0  0  0  0  0  0
  152.1798  140.9842  157.8934 C   0  0  0  0  0  0  0  0  0  0  0  0
  152.7688  141.3697  159.1174 C   0  0  0  0  0  0  0  0  0  0  0  0
  152.3724  142.5587  159.7702 C   0  0  0  0  0  0  0  0  0  0  0  0
  153.0349  142.9368  161.0834 C   0  0  0  0  0  0  0  0  0  0  0  0
  151.3680  143.3806  159.1997 C   0  0  0  0  0  0  0  0  0  0  0  0
  150.9247  144.6632  159.8811 C   0  0  0  0  0  0  0  0  0  0  0  0
  150.7679  143.0087  157.9788 C   0  0  0  0  0  0  0  0  0  0  0  0
  151.1770  141.8287  157.3335 C   0  0  0  0  0  0  0  0  0  0  0  0
  144.9541  135.6969  151.3845 H   0  0  0  0  0  0  0  0  0  0  0  0
  146.6469  136.1254  151.5948 H   0  0  0  0  0  0  0  0  0  0  0  0
  145.5361  137.2675  150.8386 H   0  0  0  0  0  0  0  0  0  0  0  0
  144.2626  137.4271  153.0144 H   0  0  0  0  0  0  0  0  0  0  0  0
  145.4007  136.3270  153.7543 H   0  0  0  0  0  0  0  0  0  0  0  0
  147.2575  138.0227  153.2998 H   0  0  0  0  0  0  0  0  0  0  0  0
  146.0534  139.1196  152.6629 H   0  0  0  0  0  0  0  0  0  0  0  0
  146.8073  137.4304  157.4996 H   0  0  0  0  0  0  0  0  0  0  0  0
  148.5445  137.4432  157.1451 H   0  0  0  0  0  0  0  0  0  0  0  0
  147.4279  136.5984  156.0730 H   0  0  0  0  0  0  0  0  0  0  0  0
  147.7882  140.5191  156.8770 H   0  0  0  0  0  0  0  0  0  0  0  0
  149.1367  139.4457  156.7008 H   0  0  0  0  0  0  0  0  0  0  0  0
  147.8684  141.0568  154.4194 H   0  0  0  0  0  0  0  0  0  0  0  0
  149.3585  140.0376  153.1706 H   0  0  0  0  0  0  0  0  0  0  0  0
  150.3529  141.8868  154.2560 H   0  0  0  0  0  0  0  0  0  0  0  0
  149.3803  142.5770  155.5315 H   0  0  0  0  0  0  0  0  0  0  0  0
  151.4757  139.3870  155.2762 H   0  0  0  0  0  0  0  0  0  0  0  0
  153.5315  140.7411  159.5533 H   0  0  0  0  0  0  0  0  0  0  0  0
  152.2920  143.0201  161.8767 H   0  0  0  0  0  0  0  0  0  0  0  0
  153.5506  143.8928  160.9896 H   0  0  0  0  0  0  0  0  0  0  0  0
  153.7678  142.1900  161.3895 H   0  0  0  0  0  0  0  0  0  0  0  0
  150.1624  145.1807  159.2978 H   0  0  0  0  0  0  0  0  0  0  0  0
  151.7688  145.3425  160.0028 H   0  0  0  0  0  0  0  0  0  0  0  0
  150.5061  144.4487  160.8645 H   0  0  0  0  0  0  0  0  0  0  0  0
  149.9985  143.6241  157.5395 H   0  0  0  0  0  0  0  0  0  0  0  0
  1  2  1  0  0  0  0
  1 24  1  0  0  0  0
  1 25  1  0  0  0  0
  1 26  1  0  0  0  0
  2  3  1  0  0  0  0
  2 27  1  0  0  0  0
  2 28  1  0  0  0  0
  3  4  1  0  0  0  0
  3 29  1  0  0  0  0
  3 30  1  0  0  0  0
  4  5  2  0  0  0  0
  4  6  2  0  0  0  0
  4  7  1  0  0  0  0
  7  8  1  0  0  0  0
  7  9  1  0  0  0  0
  8 31  1  0  0  0  0
  8 32  1  0  0  0  0
  8 33  1  0  0  0  0
  9 10  1  0  0  0  0
  9 34  1  0  0  0  0
  9 35  1  0  0  0  0
 10 11  1  0  0  0  0
 10 12  1  0  0  0  0
 10 36  1  0  0  0  0
 11 37  1  0  0  0  0
 12 13  1  0  0  0  0
 12 38  1  0  0  0  0
 12 39  1  0  0  0  0
 13 23  1  0  0  0  0
 13 14  1  0  0  0  0
 14 15  2  0  0  0  0
 14 40  1  0  0  0  0
 15 16  1  0  0  0  0
 16 23  2  0  0  0  0
 16 17  1  0  0  0  0
 17 18  2  0  0  0  0
 17 41  1  0  0  0  0
 18 19  1  0  0  0  0
 18 20  1  0  0  0  0
 19 42  1  0  0  0  0
 19 43  1  0  0  0  0
 19 44  1  0  0  0  0
 20 21  1  0  0  0  0
 20 22  2  0  0  0  0
 21 45  1  0  0  0  0
 21 46  1  0  0  0  0
 21 47  1  0  0  0  0
 22 23  1  0  0  0  0
 22 48  1  0  0  0  0
M  END
> <s_m_source_file>
AV-unprocessed.smi

> <i_m_source_file_index>
2825

> <i_lp_mmshare_version>
43012

> <i_f3d_flags>
0

> <s_epik_input>
W0NIM11bQ0gyXVtDSDJdUyg9TykoPU8pTihbQ0gzXSlbQ0gyXVtDQEhdKFtPSF0pW0NIMl1uKFtjSF1uMSljKGMxMilbY0hdYyhbQ0gzXSljKFtjSF0yKVtDSDNd

> <s_epik_cmdline>
J2VwaWtfcHl0aG9uJywgJy1waCcsICc3LjAnLCAnLXRuJywgJzgnLCAnLW1hJywgJzIwMCcsICctbWV0YWxfYmluZGluZycsICctaW1hZScsICc8aW5maWxlLm1hZT4nLCAnLW9tYWUnLCAnPG91dGZpbGUubWFlPic=

> <r_epik_Ionization_Penalty>
0.104931

> <r_epik_Ionization_Penalty_Charging>
0

> <r_epik_Ionization_Penalty_Neutral>
0.104931

> <r_epik_State_Penalty>
0.0948201

> <r_epik_Charging_Adjusted_Penalty>
0.0948201

> <i_epik_Tot_Q>
0

> <i_epik_Tot_abs_Q>
0

> <r_epik_Metal_State_Penalty>
0.00010282

> <b_epik_Metal_Only>
0

> <s_lp_Force_Field>
OPLS_2005

> <r_lp_Energy>
0.666552

> <b_lp_Chiralities_Consistent>
1

> <s_lp_Variant>
AV-unprocessed.smi:2825-1

> <Gold.Version>
5.8.1

> <Gold.Id.Protein>
6NUR|6NUR_protein|mol2

> <Gold.PLP.Fitness>
43.0215

> <Gold.PLP.PLP>
-37.4836

> <Gold.PLP.part.hbond>
-2.0000

> <Gold.PLP.part.metal>
0.0000

> <Gold.PLP.part.buried>
-4.9079

> <Gold.PLP.part.nonpolar>
-31.1348

> <Gold.PLP.part.repulsive>
0.1571

> <Gold.PLP.ligand.clash>
0.0000

> <Gold.PLP.ligand.torsion>
1.4704

> <Gold.PLP.Chemscore.Hbond>
2.0000

> <Gold.PLP.Chemscore.CHOScore>
0.0000

> <Gold.PLP.Chemscore.Metal>
0.0000

> <Gold.Chemscore.Hbonds>
donor molecule, donor type, donor heavy atom, donor atom, acceptor molecule, acceptor atom, score
      L1  H    11    37       P1  7957  1.00
      P1  H  7997  8008       L1    15  0.99

> <Gold.PLP.Chemscore.Internal.Correction>
2.4788

> <Gold.Rescore>
     Score         DG    S(hbond)    S(metal)    S(lipo)     H(rot)  DE(clash)    DE(int)     intcor
     15.69     -17.28       1.78        0.00     103.15       2.43       0.17       1.42       ----

> <Gold.Chemscore.Fitness>
15.6902

> <Gold.Chemscore.DG>
-17.2772

> <Gold.Chemscore.ZeroCoef>
-5.4800

> <Gold.Chemscore.Hbond>
1.7836

> <Gold.Chemscore.Metal>
0.0000

> <Gold.Chemscore.Lipo>
103.1522

> <Gold.Chemscore.Internal_Hbond>
0.0000

> <Gold.Chemscore.DEClash>
0.1678

> <Gold.Chemscore.DEInternal>
1.4192

> <Gold.Chemscore.Rot>
2.4332

> <Gold.Chemscore.Internal.Correction>
   9.000000E+99

> <Gold.Chemscore.Hbonds>
donor molecule, donor type, donor heavy atom, donor atom, acceptor molecule, acceptor atom, score
      L1  H    11    37       P1  7957  0.91
      P1  H  7997  8008       L1    15  0.31

> <Gold.Chemscore.Hbond.Weighted>
-5.9573

> <Gold.Chemscore.Metal.Weighted>
-0.0000

> <Gold.Chemscore.Lipo.Weighted>
-12.0688

> <Gold.Chemscore.Internal_Hbond.Weighted>
0.0000

> <Gold.Chemscore.DEClash.Weighted>
0.1678

> <Gold.Chemscore.DEInternal.Weighted>
1.4192

> <Gold.Chemscore.Rot.Weighted>
6.2289

> <Gold.Chemscore.Internal.Correction.Weighted>
   9.000000E+99

> <Gold.Protein.RotatedTorsions>
[ 6907 6896 6895 6894 ] final   28.64 input  -60.11 | X-H torsion
[ 7974 7965 7964 7962 ] final   19.53 input  175.53 | X-H torsion
[ 8008 7997 7996 7995 ] final  -53.03 input   59.86 | X-H torsion
[ 10167 10162 10161 10158 ] final   12.12 input  -65.29 | X-H torsion
[ 10718 10713 10712 10709 ] final  -61.84 input   66.30 | X-H torsion
[ 10763 10752 10751 10750 ] final  139.03 input  -60.55 | X-H torsion
[ 11005 11000 10999 10996 ] final   27.41 input  -57.11 | X-H torsion

> <Gold.Protein.ActiveResidues>
 VAL166  LYS551  ARG553  GLY616  TRP617  ASP618  TYR619  PRO620  LYS621  CYS622 
 ASP623  PHE694  ASN695  SER759  ASP760  ASP761  ALA762  ILE779  LEU786  VAL792 
 PHE793  MET794  SER795  GLU796  ALA797  LYS798  CYS799  TRP800  GLU811  SER814 

> <Gold.Protein.RotatedAtoms>
  152.0199  134.9829  160.0570 H   0  0  0  0  0  0  0  0  0  0  0  0  # atno 6907 bound_to 6896
  152.1347  133.4424  159.4746 H   0  0  0  0  0  0  0  0  0  0  0  0  # atno 6908 bound_to 6896
  150.6859  134.2296  159.4472 H   0  0  0  0  0  0  0  0  0  0  0  0  # atno 6909 bound_to 6896
  146.2145  139.8299  142.8662 H   0  0  0  0  0  0  0  0  0  0  0  0  # atno 7974 bound_to 7965
  154.4122  140.1210  156.5087 H   0  0  0  0  0  0  0  0  0  0  0  0  # atno 8008 bound_to 7997
  155.6821  140.3496  155.4840 H   0  0  0  0  0  0  0  0  0  0  0  0  # atno 8009 bound_to 7997
  155.9542  140.1110  157.0941 H   0  0  0  0  0  0  0  0  0  0  0  0  # atno 8010 bound_to 7997
  140.6088  143.8451  150.7043 H   0  0  0  0  0  0  0  0  0  0  0  0  # atno 10167 bound_to 10162
  156.0894  130.4202  150.1051 H   0  0  0  0  0  0  0  0  0  0  0  0  # atno 10718 bound_to 10713
  153.8995  135.3023  155.3448 H   0  0  0  0  0  0  0  0  0  0  0  0  # atno 10763 bound_to 10752
  154.7677  135.4902  153.9590 H   0  0  0  0  0  0  0  0  0  0  0  0  # atno 10764 bound_to 10752
  153.1253  135.6791  153.9367 H   0  0  0  0  0  0  0  0  0  0  0  0  # atno 10765 bound_to 10752
  140.3266  134.2485  155.7708 H   0  0  0  0  0  0  0  0  0  0  0  0  # atno 11005 bound_to 11000
  145.3008  141.0193  143.3610 LP  0  0  0  0  0  0  0  0  0  0  0  0  # atno 17320 bound_to 7965
  144.9007  139.4653  143.6634 LP  0  0  0  0  0  0  0  0  0  0  0  0  # atno 17321 bound_to 7965
  140.2015  143.3956  152.1788 LP  0  0  0  0  0  0  0  0  0  0  0  0  # atno 17342 bound_to 10162
  139.5345  144.7195  151.4940 LP  0  0  0  0  0  0  0  0  0  0  0  0  # atno 17343 bound_to 10162
  156.9064  130.9637  151.3569 LP  0  0  0  0  0  0  0  0  0  0  0  0  # atno 17370 bound_to 10713
  157.6039  130.8533  149.8845 LP  0  0  0  0  0  0  0  0  0  0  0  0  # atno 17371 bound_to 10713
  141.2074  133.7807  157.0122 LP  0  0  0  0  0  0  0  0  0  0  0  0  # atno 17394 bound_to 11000
  140.0896  134.9600  157.1756 LP  0  0  0  0  0  0  0  0  0  0  0  0  # atno 17395 bound_to 11000

$$$$
