AV-unprocessed.smi:2591|AV-procd|sdf|10153|dock1
  -GOLD-   2272014163D 1   1.00000     0.00000
 Structure written by MMmdl.
 35 36  0  0  0  0  0  0  0  0  2 V2000
  146.9582  138.3963  152.6998 C   0  0  0  0  0  0  0  0  0  0  0  0
  147.6503  139.6581  153.0381 N   0  3  1  0  0  0  0  0  0  0  0  0
  146.7122  140.7416  153.4073 C   0  0  0  0  0  0  0  0  0  0  0  0
  147.4858  142.0349  153.7057 C   0  0  0  0  0  0  0  0  0  0  0  0
  148.4312  141.7933  154.7402 O   0  0  0  0  0  0  0  0  0  0  0  0
  149.4056  140.8157  154.3755 C   0  0  1  0  0  0  0  0  0  0  0  0
  150.4366  140.6931  155.5088 C   0  0  0  0  0  0  0  0  0  0  0  0
  151.1964  139.7245  155.5403 O   0  0  0  0  0  0  0  0  0  0  0  0
  150.4517  141.6979  156.4066 N   0  0  0  0  0  0  0  0  0  0  0  0
  151.2824  141.8482  157.5485 C   0  0  0  0  0  0  0  0  0  0  0  0
  151.0570  143.0218  158.3015 C   0  0  0  0  0  0  0  0  0  0  0  0
  151.8253  143.2699  159.4587 C   0  0  0  0  0  0  0  0  0  0  0  0
  151.5910  144.5317  160.2745 C   0  0  0  0  0  0  0  0  0  0  0  0
  152.2581  144.5045  161.4288 F   0  0  0  0  0  0  0  0  0  0  0  0
  151.9932  145.5912  159.5739 F   0  0  0  0  0  0  0  0  0  0  0  0
  150.2915  144.6609  160.5412 F   0  0  0  0  0  0  0  0  0  0  0  0
  152.8084  142.3269  159.8230 C   0  0  0  0  0  0  0  0  0  0  0  0
  152.9680  141.1846  159.0177 C   0  0  0  0  0  0  0  0  0  0  0  0
  152.2289  140.9492  157.9140 N   0  0  0  0  0  0  0  0  0  0  0  0
  148.6881  139.4774  154.0792 C   0  0  0  0  0  0  0  0  0  0  0  0
  146.4140  138.0045  153.5601 H   0  0  0  0  0  0  0  0  0  0  0  0
  147.6740  137.6409  152.3745 H   0  0  0  0  0  0  0  0  0  0  0  0
  146.2476  138.5537  151.8878 H   0  0  0  0  0  0  0  0  0  0  0  0
  146.0050  140.9109  152.5945 H   0  0  0  0  0  0  0  0  0  0  0  0
  146.1320  140.4433  154.2821 H   0  0  0  0  0  0  0  0  0  0  0  0
  147.9910  142.4047  152.8121 H   0  0  0  0  0  0  0  0  0  0  0  0
  146.7993  142.8168  154.0305 H   0  0  0  0  0  0  0  0  0  0  0  0
  149.9378  141.1553  153.4851 H   0  0  0  0  0  0  0  0  0  0  0  0
  149.7782  142.4353  156.2597 H   0  0  0  0  0  0  0  0  0  0  0  0
  150.3005  143.7313  157.9979 H   0  0  0  0  0  0  0  0  0  0  0  0
  153.4290  142.4669  160.6955 H   0  0  0  0  0  0  0  0  0  0  0  0
  153.7100  140.4401  159.2655 H   0  0  0  0  0  0  0  0  0  0  0  0
  148.2255  139.0854  154.9870 H   0  0  0  0  0  0  0  0  0  0  0  0
  149.4060  138.7305  153.7363 H   0  0  0  0  0  0  0  0  0  0  0  0
  148.1285  139.9596  152.2008 H   0  0  0  0  0  0  0  0  0  0  0  0
  1  2  1  0  0  0  0
  1 21  1  0  0  0  0
  1 22  1  0  0  0  0
  1 23  1  0  0  0  0
  2 20  1  0  0  0  0
  2  3  1  0  0  0  0
  2 35  1  0  0  0  0
  3  4  1  0  0  0  0
  3 24  1  0  0  0  0
  3 25  1  0  0  0  0
  4  5  1  0  0  0  0
  4 26  1  0  0  0  0
  4 27  1  0  0  0  0
  5  6  1  0  0  0  0
  6  7  1  0  0  0  0
  6 20  1  0  0  0  0
  6 28  1  0  0  0  0
  7  8  2  0  0  0  0
  7  9  1  0  0  0  0
  9 10  1  0  0  0  0
  9 29  1  0  0  0  0
 10 19  1  0  0  0  0
 10 11  2  0  0  0  0
 11 12  1  0  0  0  0
 11 30  1  0  0  0  0
 12 13  1  0  0  0  0
 12 17  2  0  0  0  0
 13 14  1  0  0  0  0
 13 15  1  0  0  0  0
 13 16  1  0  0  0  0
 17 18  1  0  0  0  0
 17 31  1  0  0  0  0
 18 19  2  0  0  0  0
 18 32  1  0  0  0  0
 20 33  1  0  0  0  0
 20 34  1  0  0  0  0
M  CHG  1   2   1
M  END
> <s_m_source_file>
AV-unprocessed.smi

> <i_m_source_file_index>
2591

> <i_lp_mmshare_version>
43012

> <i_f3d_flags>
0

> <s_epik_input>
W0NIM11OMVtDSDJdW0NIMl1PW0NASF0oW0NIMl0xKUMoPU8pW05IXWMyW2NIXWMoQyhGKShGKUYpW2NIXVtjSF1uMg==

> <s_epik_cmdline>
J2VwaWtfcHl0aG9uJywgJy1waCcsICc3LjAnLCAnLXRuJywgJzgnLCAnLW1hJywgJzIwMCcsICctbWV0YWxfYmluZGluZycsICctaW1hZScsICc8aW5maWxlLm1hZT4nLCAnLW9tYWUnLCAnPG91dGZpbGUubWFlPic=

> <r_epik_Ionization_Penalty>
0.314028

> <r_epik_Ionization_Penalty_Charging>
0.314023

> <r_epik_Ionization_Penalty_Neutral>
5.2303e-06

> <r_epik_State_Penalty>
0.308208

> <r_epik_Charging_Adjusted_Penalty>
0.62223

> <i_epik_Tot_Q>
1

> <i_epik_Tot_abs_Q>
1

> <r_epik_Metal_State_Penalty>
0.308209

> <b_epik_Metal_Only>
0

> <s_lp_Force_Field>
OPLS_2005

> <r_lp_Energy>
17.8582

> <b_lp_Chiralities_Consistent>
1

> <s_lp_Variant>
AV-unprocessed.smi:2591-1

> <Gold.Version>
5.8.1

> <Gold.Id.Protein>
6NUR|6NUR_protein|mol2

> <Gold.PLP.Fitness>
42.3097

> <Gold.PLP.PLP>
-40.6721

> <Gold.PLP.part.hbond>
-1.0000

> <Gold.PLP.part.metal>
0.0000

> <Gold.PLP.part.buried>
-2.4704

> <Gold.PLP.part.nonpolar>
-37.4225

> <Gold.PLP.part.repulsive>
0.5372

> <Gold.PLP.ligand.clash>
0.0000

> <Gold.PLP.ligand.torsion>
0.6861

> <Gold.PLP.Chemscore.Hbond>
1.0000

> <Gold.PLP.Chemscore.CHOScore>
0.0000

> <Gold.PLP.Chemscore.Metal>
0.0000

> <Gold.Chemscore.Hbonds>
donor molecule, donor type, donor heavy atom, donor atom, acceptor molecule, acceptor atom, score
      L1  H     2    35       P1  7957  1.00

> <Gold.PLP.Chemscore.Internal.Correction>
0.0097

> <Gold.Rescore>
     Score         DG    S(hbond)    S(metal)    S(lipo)     H(rot)  DE(clash)    DE(int)     intcor
     14.07     -17.07       1.17        0.00      87.68       1.00       1.00       2.01       ----

> <Gold.Chemscore.Fitness>
14.0700

> <Gold.Chemscore.DG>
-17.0740

> <Gold.Chemscore.ZeroCoef>
-5.4800

> <Gold.Chemscore.Hbond>
1.1662

> <Gold.Chemscore.Metal>
0.0000

> <Gold.Chemscore.Lipo>
87.6822

> <Gold.Chemscore.Internal_Hbond>
0.0000

> <Gold.Chemscore.DEClash>
0.9956

> <Gold.Chemscore.DEInternal>
2.0084

> <Gold.Chemscore.Rot>
1.0000

> <Gold.Chemscore.Internal.Correction>
   9.000000E+99

> <Gold.Chemscore.Hbonds>
donor molecule, donor type, donor heavy atom, donor atom, acceptor molecule, acceptor atom, score
      L1  H     2    35       P1  7957  0.96
      L1  H     9    29       P1  8028  0.01

> <Gold.Chemscore.Hbond.Weighted>
-3.8952

> <Gold.Chemscore.Metal.Weighted>
-0.0000

> <Gold.Chemscore.Lipo.Weighted>
-10.2588

> <Gold.Chemscore.Internal_Hbond.Weighted>
0.0000

> <Gold.Chemscore.DEClash.Weighted>
0.9956

> <Gold.Chemscore.DEInternal.Weighted>
2.0084

> <Gold.Chemscore.Rot.Weighted>
2.5600

> <Gold.Chemscore.Internal.Correction.Weighted>
   9.000000E+99

> <Gold.Protein.RotatedTorsions>
[ 6907 6896 6895 6894 ] final    4.67 input  -60.11 | X-H torsion
[ 7974 7965 7964 7962 ] final -159.32 input  175.53 | X-H torsion
[ 8008 7997 7996 7995 ] final    3.05 input   59.86 | X-H torsion
[ 10167 10162 10161 10158 ] final  -31.22 input  -65.29 | X-H torsion
[ 10718 10713 10712 10709 ] final   18.15 input   66.30 | X-H torsion
[ 10763 10752 10751 10750 ] final  -30.93 input  -60.55 | X-H torsion
[ 11005 11000 10999 10996 ] final  101.97 input  -57.11 | X-H torsion

> <Gold.Protein.ActiveResidues>
 VAL166  LYS551  ARG553  GLY616  TRP617  ASP618  TYR619  PRO620  LYS621  CYS622 
 ASP623  PHE694  ASN695  SER759  ASP760  ASP761  ALA762  ILE779  LEU786  VAL792 
 PHE793  MET794  SER795  GLU796  ALA797  LYS798  CYS799  TRP800  GLU811  SER814 

> <Gold.Protein.RotatedAtoms>
  151.6451  135.1008  160.0149 H   0  0  0  0  0  0  0  0  0  0  0  0  # atno 6907 bound_to 6896
  152.4032  133.6845  159.6343 H   0  0  0  0  0  0  0  0  0  0  0  0  # atno 6908 bound_to 6896
  150.7930  133.8671  159.3289 H   0  0  0  0  0  0  0  0  0  0  0  0  # atno 6909 bound_to 6896
  144.7470  140.3702  143.6077 H   0  0  0  0  0  0  0  0  0  0  0  0  # atno 7974 bound_to 7965
  154.6989  140.2669  155.6738 H   0  0  0  0  0  0  0  0  0  0  0  0  # atno 8008 bound_to 7997
  156.2758  140.2776  156.1517 H   0  0  0  0  0  0  0  0  0  0  0  0  # atno 8009 bound_to 7997
  155.0792  140.0372  157.2623 H   0  0  0  0  0  0  0  0  0  0  0  0  # atno 8010 bound_to 7997
  140.7239  143.3788  151.1640 H   0  0  0  0  0  0  0  0  0  0  0  0  # atno 10167 bound_to 10162
  157.0922  130.6432  149.5851 H   0  0  0  0  0  0  0  0  0  0  0  0  # atno 10718 bound_to 10713
  153.7890  135.6899  153.4875 H   0  0  0  0  0  0  0  0  0  0  0  0  # atno 10763 bound_to 10752
  153.1762  135.4524  154.9966 H   0  0  0  0  0  0  0  0  0  0  0  0  # atno 10764 bound_to 10752
  154.8052  135.3354  154.7388 H   0  0  0  0  0  0  0  0  0  0  0  0  # atno 10765 bound_to 10752
  139.8775  134.9205  156.4987 H   0  0  0  0  0  0  0  0  0  0  0  0  # atno 11005 bound_to 11000
  145.7086  139.1679  143.2552 LP  0  0  0  0  0  0  0  0  0  0  0  0  # atno 17320 bound_to 7965
  146.1363  140.7118  142.9388 LP  0  0  0  0  0  0  0  0  0  0  0  0  # atno 17321 bound_to 7965
  139.7373  143.8980  152.3039 LP  0  0  0  0  0  0  0  0  0  0  0  0  # atno 17342 bound_to 10162
  139.8789  144.7028  150.8901 LP  0  0  0  0  0  0  0  0  0  0  0  0  # atno 17343 bound_to 10162
  155.9895  130.4942  150.7216 LP  0  0  0  0  0  0  0  0  0  0  0  0  # atno 17370 bound_to 10713
  157.4711  131.0893  151.0641 LP  0  0  0  0  0  0  0  0  0  0  0  0  # atno 17371 bound_to 10713
  140.8605  133.8063  155.9260 LP  0  0  0  0  0  0  0  0  0  0  0  0  # atno 17394 bound_to 11000
  140.9054  134.2327  157.5017 LP  0  0  0  0  0  0  0  0  0  0  0  0  # atno 17395 bound_to 11000

$$$$
