AV-unprocessed.smi:809|AV-procd|sdf|3806|dock6
  -GOLD-   22720 1243D 1   1.00000     0.00000
 Structure written by MMmdl.
 40 41  0  0  0  0  0  0  0  0  2 V2000
  153.4399  141.4756  160.5631 C   0  0  0  0  0  0  0  0  0  0  0  0
  152.7916  142.4888  159.6732 C   0  0  0  0  0  0  0  0  0  0  0  0
  153.0808  143.8296  159.5983 C   0  0  0  0  0  0  0  0  0  0  0  0
  152.0853  144.6486  158.4243 S   0  0  0  0  0  0  0  0  0  0  0  0
  151.3019  143.1152  158.0770 C   0  0  0  0  0  0  0  0  0  0  0  0
  150.2687  143.0004  157.1102 N   0  0  0  0  0  0  0  0  0  0  0  0
  149.5843  141.8991  156.7554 C   0  0  0  0  0  0  0  0  0  0  0  0
  149.7387  140.7787  157.2426 O   0  0  0  0  0  0  0  0  0  0  0  0
  148.7014  142.1681  155.7827 N   0  0  0  0  0  0  0  0  0  0  0  0
  147.8032  141.2019  155.1526 C   0  0  0  0  0  0  0  0  0  0  0  0
  148.4749  140.4096  153.9992 C   0  0  1  0  0  0  0  0  0  0  0  0
  149.1485  141.3625  153.1986 O   0  0  0  0  0  0  0  0  0  0  0  0
  149.4964  139.3371  154.4446 C   0  0  0  0  0  0  0  0  0  0  0  0
  148.8098  138.1212  155.0915 C   0  0  0  0  0  0  0  0  0  0  0  0
  147.8147  137.5206  154.1698 N   0  3  1  0  0  0  0  0  0  0  0  0
  147.2220  136.2796  154.7134 C   0  0  0  0  0  0  0  0  0  0  0  0
  146.7832  138.4991  153.7450 C   0  0  0  0  0  0  0  0  0  0  0  0
  147.4249  139.7367  153.0883 C   0  0  0  0  0  0  0  0  0  0  0  0
  151.7745  142.0932  158.7998 N   0  0  0  0  0  0  0  0  0  0  0  0
  154.3065  141.8926  161.0768 H   0  0  0  0  0  0  0  0  0  0  0  0
  153.7802  140.6104  159.9938 H   0  0  0  0  0  0  0  0  0  0  0  0
  152.7451  141.1193  161.3238 H   0  0  0  0  0  0  0  0  0  0  0  0
  153.8178  144.3834  160.1608 H   0  0  0  0  0  0  0  0  0  0  0  0
  150.0298  143.8542  156.6275 H   0  0  0  0  0  0  0  0  0  0  0  0
  148.6453  143.1177  155.4437 H   0  0  0  0  0  0  0  0  0  0  0  0
  147.4098  140.5200  155.9063 H   0  0  0  0  0  0  0  0  0  0  0  0
  146.9346  141.7448  154.7770 H   0  0  0  0  0  0  0  0  0  0  0  0
  149.3361  140.9755  152.3572 H   0  0  0  0  0  0  0  0  0  0  0  0
  150.0578  138.9898  153.5756 H   0  0  0  0  0  0  0  0  0  0  0  0
  150.2409  139.7538  155.1230 H   0  0  0  0  0  0  0  0  0  0  0  0
  149.5638  137.3757  155.3474 H   0  0  0  0  0  0  0  0  0  0  0  0
  148.3195  138.4041  156.0228 H   0  0  0  0  0  0  0  0  0  0  0  0
  146.6492  136.4829  155.6192 H   0  0  0  0  0  0  0  0  0  0  0  0
  147.9998  135.5547  154.9559 H   0  0  0  0  0  0  0  0  0  0  0  0
  146.5556  135.8195  153.9830 H   0  0  0  0  0  0  0  0  0  0  0  0
  146.1074  138.0240  153.0327 H   0  0  0  0  0  0  0  0  0  0  0  0
  146.1752  138.7875  154.6030 H   0  0  0  0  0  0  0  0  0  0  0  0
  146.6499  140.4516  152.8084 H   0  0  0  0  0  0  0  0  0  0  0  0
  147.8963  139.4228  152.1554 H   0  0  0  0  0  0  0  0  0  0  0  0
  148.3198  137.2546  153.3366 H   0  0  0  0  0  0  0  0  0  0  0  0
  1  2  1  0  0  0  0
  1 20  1  0  0  0  0
  1 21  1  0  0  0  0
  1 22  1  0  0  0  0
  2 19  1  0  0  0  0
  2  3  2  0  0  0  0
  3  4  1  0  0  0  0
  3 23  1  0  0  0  0
  4  5  1  0  0  0  0
  5  6  1  0  0  0  0
  5 19  2  0  0  0  0
  6  7  1  0  0  0  0
  6 24  1  0  0  0  0
  7  8  2  0  0  0  0
  7  9  1  0  0  0  0
  9 10  1  0  0  0  0
  9 25  1  0  0  0  0
 10 11  1  0  0  0  0
 10 26  1  0  0  0  0
 10 27  1  0  0  0  0
 11 18  1  0  0  0  0
 11 12  1  0  0  0  0
 11 13  1  0  0  0  0
 12 28  1  0  0  0  0
 13 14  1  0  0  0  0
 13 29  1  0  0  0  0
 13 30  1  0  0  0  0
 14 15  1  0  0  0  0
 14 31  1  0  0  0  0
 14 32  1  0  0  0  0
 15 16  1  0  0  0  0
 15 17  1  0  0  0  0
 15 40  1  0  0  0  0
 16 33  1  0  0  0  0
 16 34  1  0  0  0  0
 16 35  1  0  0  0  0
 17 18  1  0  0  0  0
 17 36  1  0  0  0  0
 17 37  1  0  0  0  0
 18 38  1  0  0  0  0
 18 39  1  0  0  0  0
M  CHG  1  15   1
M  END
> <s_m_source_file>
AV-unprocessed.smi

> <i_m_source_file_index>
809

> <i_lp_mmshare_version>
43012

> <i_f3d_flags>
0

> <s_epik_input>
W0NIM11jMVtjSF1zYyhuMSlbTkhdQyg9TylbTkhdW0NIMl1DMihbT0hdKVtDSDJdW0NIMl1OKFtDSDNdKVtDSDJdW0NIMl0y

> <s_epik_cmdline>
J2VwaWtfcHl0aG9uJywgJy1waCcsICc3LjAnLCAnLXRuJywgJzgnLCAnLW1hJywgJzIwMCcsICctbWV0YWxfYmluZGluZycsICctaW1hZScsICc8aW5maWxlLm1hZT4nLCAnLW9tYWUnLCAnPG91dGZpbGUubWFlPic=

> <r_lp_tautomer_probability>
0.999

> <r_epik_Ionization_Penalty>
0.00116503

> <r_epik_Ionization_Penalty_Charging>
0.000767707

> <r_epik_Ionization_Penalty_Neutral>
0.00039732

> <r_epik_State_Penalty>
0.000177984

> <r_epik_Charging_Adjusted_Penalty>
0.00094569

> <i_epik_Tot_Q>
1

> <i_epik_Tot_abs_Q>
1

> <r_epik_Metal_State_Penalty>
0.00775393

> <b_epik_Metal_Only>
0

> <s_lp_Force_Field>
OPLS_2005

> <r_lp_Energy>
16.2661

> <b_lp_Chiralities_Consistent>
1

> <s_lp_Variant>
AV-unprocessed.smi:809-2

> <Gold.Version>
5.8.1

> <Gold.Id.Protein>
6NUR|6NUR_protein|mol2

> <Gold.PLP.Fitness>
49.7423

> <Gold.PLP.PLP>
-35.4205

> <Gold.PLP.part.hbond>
-5.5532

> <Gold.PLP.part.metal>
0.0000

> <Gold.PLP.part.buried>
-0.4226

> <Gold.PLP.part.nonpolar>
-28.1434

> <Gold.PLP.part.repulsive>
0.1373

> <Gold.PLP.ligand.clash>
0.0000

> <Gold.PLP.ligand.torsion>
0.3305

> <Gold.PLP.Chemscore.Hbond>
4.9920

> <Gold.PLP.Chemscore.CHOScore>
0.0000

> <Gold.PLP.Chemscore.Metal>
0.0000

> <Gold.Chemscore.Hbonds>
donor molecule, donor type, donor heavy atom, donor atom, acceptor molecule, acceptor atom, score
      L1  H     6    24       P1  8028  0.98
      L1  H     9    25       P1  8028  1.00
      L1  H    12    28       P1  7957  0.99
      L1  H    15    40       P1  7948  2.00

> <Gold.PLP.Chemscore.Internal.Correction>
0.0068

> <Gold.Rescore>
     Score         DG    S(hbond)    S(metal)    S(lipo)     H(rot)  DE(clash)    DE(int)     intcor
     21.64     -23.28       3.92        0.00      80.70       1.85       0.04       1.60       ----

> <Gold.Chemscore.Fitness>
21.6373

> <Gold.Chemscore.DG>
-23.2755

> <Gold.Chemscore.ZeroCoef>
-5.4800

> <Gold.Chemscore.Hbond>
3.9169

> <Gold.Chemscore.Metal>
0.0000

> <Gold.Chemscore.Lipo>
80.6972

> <Gold.Chemscore.Internal_Hbond>
0.0000

> <Gold.Chemscore.DEClash>
0.0388

> <Gold.Chemscore.DEInternal>
1.5994

> <Gold.Chemscore.Rot>
1.8471

> <Gold.Chemscore.Internal.Correction>
   9.000000E+99

> <Gold.Chemscore.Hbonds>
donor molecule, donor type, donor heavy atom, donor atom, acceptor molecule, acceptor atom, score
      L1  H     6    24       P1  8028  0.93
      L1  H     9    25       P1  8028  0.95
      L1  H    12    28       P1  7957  0.92
      L1  H    15    40       P1  7948  1.00

> <Gold.Chemscore.Hbond.Weighted>
-13.0826

> <Gold.Chemscore.Metal.Weighted>
-0.0000

> <Gold.Chemscore.Lipo.Weighted>
-9.4416

> <Gold.Chemscore.Internal_Hbond.Weighted>
0.0000

> <Gold.Chemscore.DEClash.Weighted>
0.0388

> <Gold.Chemscore.DEInternal.Weighted>
1.5994

> <Gold.Chemscore.Rot.Weighted>
4.7286

> <Gold.Chemscore.Internal.Correction.Weighted>
   9.000000E+99

> <Gold.Protein.RotatedTorsions>
[ 6907 6896 6895 6894 ] final -124.56 input  -60.11 | X-H torsion
[ 7974 7965 7964 7962 ] final   33.94 input  175.53 | X-H torsion
[ 8008 7997 7996 7995 ] final  176.79 input   59.86 | X-H torsion
[ 10167 10162 10161 10158 ] final   58.76 input  -65.29 | X-H torsion
[ 10718 10713 10712 10709 ] final  -92.40 input   66.30 | X-H torsion
[ 10763 10752 10751 10750 ] final   37.36 input  -60.55 | X-H torsion
[ 11005 11000 10999 10996 ] final    2.16 input  -57.11 | X-H torsion

> <Gold.Protein.ActiveResidues>
 VAL166  LYS551  ARG553  GLY616  TRP617  ASP618  TYR619  PRO620  LYS621  CYS622 
 ASP623  PHE694  ASN695  SER759  ASP760  ASP761  ALA762  ILE779  LEU786  VAL792 
 PHE793  MET794  SER795  GLU796  ALA797  LYS798  CYS799  TRP800  GLU811  SER814 

> <Gold.Protein.RotatedAtoms>
  150.8780  133.7411  159.2940 H   0  0  0  0  0  0  0  0  0  0  0  0  # atno 6907 bound_to 6896
  151.5002  135.1060  159.9836 H   0  0  0  0  0  0  0  0  0  0  0  0  # atno 6908 bound_to 6896
  152.4741  133.8051  159.7029 H   0  0  0  0  0  0  0  0  0  0  0  0  # atno 6909 bound_to 6896
  146.1387  139.6332  142.9178 H   0  0  0  0  0  0  0  0  0  0  0  0  # atno 7974 bound_to 7965
  156.0727  140.1374  156.9809 H   0  0  0  0  0  0  0  0  0  0  0  0  # atno 8008 bound_to 7997
  154.4540  140.0968  156.6754 H   0  0  0  0  0  0  0  0  0  0  0  0  # atno 8009 bound_to 7997
  155.5203  140.3456  155.4407 H   0  0  0  0  0  0  0  0  0  0  0  0  # atno 8010 bound_to 7997
  140.1837  144.4155  150.6603 H   0  0  0  0  0  0  0  0  0  0  0  0  # atno 10167 bound_to 10162
  156.0002  130.4985  150.5619 H   0  0  0  0  0  0  0  0  0  0  0  0  # atno 10718 bound_to 10713
  153.0041  135.6280  154.2132 H   0  0  0  0  0  0  0  0  0  0  0  0  # atno 10763 bound_to 10752
  154.1875  135.2810  155.3034 H   0  0  0  0  0  0  0  0  0  0  0  0  # atno 10764 bound_to 10752
  154.5786  135.5654  153.7223 H   0  0  0  0  0  0  0  0  0  0  0  0  # atno 10765 bound_to 10752
  140.6073  133.9780  155.8160 H   0  0  0  0  0  0  0  0  0  0  0  0  # atno 11005 bound_to 11000
  145.5097  141.0436  143.2494 LP  0  0  0  0  0  0  0  0  0  0  0  0  # atno 17320 bound_to 7965
  144.7768  139.6613  143.7171 LP  0  0  0  0  0  0  0  0  0  0  0  0  # atno 17321 bound_to 7965
  140.6502  143.2223  151.6094 LP  0  0  0  0  0  0  0  0  0  0  0  0  # atno 17342 bound_to 10162
  139.5285  144.2987  152.1092 LP  0  0  0  0  0  0  0  0  0  0  0  0  # atno 17343 bound_to 10162
  157.3527  131.0736  151.1700 LP  0  0  0  0  0  0  0  0  0  0  0  0  # atno 17370 bound_to 10713
  157.2511  130.6614  149.5932 LP  0  0  0  0  0  0  0  0  0  0  0  0  # atno 17371 bound_to 10713
  141.0831  134.0031  157.3355 LP  0  0  0  0  0  0  0  0  0  0  0  0  # atno 17394 bound_to 11000
  139.9207  135.0200  156.8052 LP  0  0  0  0  0  0  0  0  0  0  0  0  # atno 17395 bound_to 11000

$$$$
