AV-unprocessed.smi:1350|AV-procd|sdf|5520|dock5
  -GOLD-   22720 5103D 1   1.00000     0.00000
 Structure written by MMmdl.
 43 45  0  0  0  0  0  0  0  0  1 V2000
  151.1135  140.4533  156.7197 C   0  0  0  0  0  0  0  0  0  0  0  0
  151.7201  140.7935  157.9579 O   0  0  0  0  0  0  0  0  0  0  0  0
  151.8647  142.1287  158.2767 C   0  0  0  0  0  0  0  0  0  0  0  0
  151.3676  143.1797  157.4629 C   0  0  0  0  0  0  0  0  0  0  0  0
  151.5437  144.5251  157.8378 C   0  0  0  0  0  0  0  0  0  0  0  0
  152.2175  144.8421  159.0298 C   0  0  0  0  0  0  0  0  0  0  0  0
  152.7148  143.8108  159.8456 C   0  0  0  0  0  0  0  0  0  0  0  0
  152.5454  142.4597  159.4760 C   0  0  0  0  0  0  0  0  0  0  0  0
  153.0937  141.3860  160.4020 C   0  0  0  0  0  0  0  0  0  0  0  0
  153.9868  140.5226  159.7186 O   0  0  0  0  0  0  0  0  0  0  0  0
  154.9880  139.9818  160.5649 C   0  0  0  0  0  0  0  0  0  0  0  0
  155.6638  138.8032  159.8502 C   0  0  2  0  0  0  0  0  0  0  0  0
  156.3251  139.2921  158.6997 O   0  0  0  0  0  0  0  0  0  0  0  0
  154.6622  137.7032  159.4487 C   0  0  0  0  0  0  0  0  0  0  0  0
  154.7711  136.5260  160.2907 N   0  0  0  0  0  0  0  0  0  0  0  0
  155.1958  135.2994  159.9303 C   0  0  0  0  0  0  0  0  0  0  0  0
  155.2177  134.3608  160.8726 N   0  0  0  0  0  0  0  0  0  0  0  0
  154.7529  135.0598  161.9735 C   0  0  0  0  0  0  0  0  0  0  0  0
  154.5382  134.6375  163.3052 C   0  0  0  0  0  0  0  0  0  0  0  0
  154.0500  135.5419  164.2714 C   0  0  0  0  0  0  0  0  0  0  0  0
  153.7692  136.8790  163.9225 C   0  0  0  0  0  0  0  0  0  0  0  0
  153.9759  137.3231  162.6023 C   0  0  0  0  0  0  0  0  0  0  0  0
  154.4631  136.4175  161.6418 C   0  0  0  0  0  0  0  0  0  0  0  0
  151.0852  139.3683  156.6204 H   0  0  0  0  0  0  0  0  0  0  0  0
  151.6819  140.8456  155.8753 H   0  0  0  0  0  0  0  0  0  0  0  0
  150.0861  140.8157  156.6658 H   0  0  0  0  0  0  0  0  0  0  0  0
  150.8435  142.9814  156.5406 H   0  0  0  0  0  0  0  0  0  0  0  0
  151.1599  145.3149  157.2092 H   0  0  0  0  0  0  0  0  0  0  0  0
  152.3518  145.8741  159.3185 H   0  0  0  0  0  0  0  0  0  0  0  0
  153.2304  144.0590  160.7618 H   0  0  0  0  0  0  0  0  0  0  0  0
  153.6173  141.8820  161.2206 H   0  0  0  0  0  0  0  0  0  0  0  0
  152.2925  140.7988  160.8504 H   0  0  0  0  0  0  0  0  0  0  0  0
  155.7229  140.7454  160.8252 H   0  0  0  0  0  0  0  0  0  0  0  0
  154.5265  139.6394  161.4928 H   0  0  0  0  0  0  0  0  0  0  0  0
  156.4243  138.3820  160.5094 H   0  0  0  0  0  0  0  0  0  0  0  0
  157.0990  139.7599  158.9742 H   0  0  0  0  0  0  0  0  0  0  0  0
  153.6402  138.0766  159.5230 H   0  0  0  0  0  0  0  0  0  0  0  0
  154.8108  137.4077  158.4089 H   0  0  0  0  0  0  0  0  0  0  0  0
  155.5096  135.0843  158.9192 H   0  0  0  0  0  0  0  0  0  0  0  0
  154.7503  133.6160  163.5839 H   0  0  0  0  0  0  0  0  0  0  0  0
  153.8902  135.2078  165.2860 H   0  0  0  0  0  0  0  0  0  0  0  0
  153.3955  137.5643  164.6691 H   0  0  0  0  0  0  0  0  0  0  0  0
  153.7636  138.3464  162.3303 H   0  0  0  0  0  0  0  0  0  0  0  0
  1  2  1  0  0  0  0
  1 24  1  0  0  0  0
  1 25  1  0  0  0  0
  1 26  1  0  0  0  0
  2  3  1  0  0  0  0
  3  8  1  0  0  0  0
  3  4  2  0  0  0  0
  4  5  1  0  0  0  0
  4 27  1  0  0  0  0
  5  6  2  0  0  0  0
  5 28  1  0  0  0  0
  6  7  1  0  0  0  0
  6 29  1  0  0  0  0
  7  8  2  0  0  0  0
  7 30  1  0  0  0  0
  8  9  1  0  0  0  0
  9 10  1  0  0  0  0
  9 31  1  0  0  0  0
  9 32  1  0  0  0  0
 10 11  1  0  0  0  0
 11 12  1  0  0  0  0
 11 33  1  0  0  0  0
 11 34  1  0  0  0  0
 12 13  1  0  0  0  0
 12 14  1  0  0  0  0
 12 35  1  0  0  0  0
 13 36  1  0  0  0  0
 14 15  1  0  0  0  0
 14 37  1  0  0  0  0
 14 38  1  0  0  0  0
 15 23  1  0  0  0  0
 15 16  1  0  0  0  0
 16 17  2  0  0  0  0
 16 39  1  0  0  0  0
 17 18  1  0  0  0  0
 18 23  2  0  0  0  0
 18 19  1  0  0  0  0
 19 20  2  0  0  0  0
 19 40  1  0  0  0  0
 20 21  1  0  0  0  0
 20 41  1  0  0  0  0
 21 22  2  0  0  0  0
 21 42  1  0  0  0  0
 22 23  1  0  0  0  0
 22 43  1  0  0  0  0
M  END
> <s_m_source_file>
AV-unprocessed.smi

> <i_m_source_file_index>
1350

> <i_lp_mmshare_version>
43012

> <i_f3d_flags>
0

> <s_epik_input>
W0NIM11PYzFbY0hdW2NIXVtjSF1bY0hdYzFbQ0gyXU9bQ0gyXVtDQEhdKFtPSF0pW0NIMl1uKFtjSF1uMiljKGMyMylbY0hdW2NIXVtjSF1bY0hdMw==

> <s_epik_cmdline>
J2VwaWtfcHl0aG9uJywgJy1waCcsICc3LjAnLCAnLXRuJywgJzgnLCAnLW1hJywgJzIwMCcsICctbWV0YWxfYmluZGluZycsICctaW1hZScsICc8aW5maWxlLm1hZT4nLCAnLW9tYWUnLCAnPG91dGZpbGUubWFlPic=

> <r_lp_tautomer_probability>
1

> <r_epik_Ionization_Penalty>
0.0713119

> <r_epik_Ionization_Penalty_Charging>
0

> <r_epik_Ionization_Penalty_Neutral>
0.0713119

> <r_epik_State_Penalty>
0.06259

> <r_epik_Charging_Adjusted_Penalty>
0.06259

> <i_epik_Tot_Q>
0

> <i_epik_Tot_abs_Q>
0

> <r_epik_Metal_State_Penalty>
6.60119e-05

> <b_epik_Metal_Only>
0

> <s_lp_Force_Field>
OPLS_2005

> <r_lp_Energy>
18.6906

> <b_lp_Chiralities_Consistent>
1

> <s_lp_Variant>
AV-unprocessed.smi:1350-1

> <Gold.Version>
5.8.1

> <Gold.Id.Protein>
6NUR|6NUR_protein|mol2

> <Gold.PLP.Fitness>
50.6204

> <Gold.PLP.PLP>
-49.4603

> <Gold.PLP.part.hbond>
-1.0000

> <Gold.PLP.part.metal>
0.0000

> <Gold.PLP.part.buried>
-5.9197

> <Gold.PLP.part.nonpolar>
-42.6955

> <Gold.PLP.part.repulsive>
0.0000

> <Gold.PLP.ligand.clash>
0.0000

> <Gold.PLP.ligand.torsion>
0.9859

> <Gold.PLP.Chemscore.Hbond>
1.0000

> <Gold.PLP.Chemscore.CHOScore>
0.0000

> <Gold.PLP.Chemscore.Metal>
0.0000

> <Gold.Chemscore.Hbonds>
donor molecule, donor type, donor heavy atom, donor atom, acceptor molecule, acceptor atom, score
      P1  H  7997  8010       L1    13  1.00

> <Gold.PLP.Chemscore.Internal.Correction>
0.1320

> <Gold.Rescore>
     Score         DG    S(hbond)    S(metal)    S(lipo)     H(rot)  DE(clash)    DE(int)     intcor
     17.26     -19.37       0.99        0.00     147.97       2.63       0.03       2.07       ----

> <Gold.Chemscore.Fitness>
17.2637

> <Gold.Chemscore.DG>
-19.3677

> <Gold.Chemscore.ZeroCoef>
-5.4800

> <Gold.Chemscore.Hbond>
0.9909

> <Gold.Chemscore.Metal>
0.0000

> <Gold.Chemscore.Lipo>
147.9735

> <Gold.Chemscore.Internal_Hbond>
0.0000

> <Gold.Chemscore.DEClash>
0.0317

> <Gold.Chemscore.DEInternal>
2.0723

> <Gold.Chemscore.Rot>
2.6308

> <Gold.Chemscore.Internal.Correction>
   9.000000E+99

> <Gold.Chemscore.Hbonds>
donor molecule, donor type, donor heavy atom, donor atom, acceptor molecule, acceptor atom, score
      P1  H  7997  8010       L1    13  0.70

> <Gold.Chemscore.Hbond.Weighted>
-3.3095

> <Gold.Chemscore.Metal.Weighted>
-0.0000

> <Gold.Chemscore.Lipo.Weighted>
-17.3129

> <Gold.Chemscore.Internal_Hbond.Weighted>
0.0000

> <Gold.Chemscore.DEClash.Weighted>
0.0317

> <Gold.Chemscore.DEInternal.Weighted>
2.0723

> <Gold.Chemscore.Rot.Weighted>
6.7347

> <Gold.Chemscore.Internal.Correction.Weighted>
   9.000000E+99

> <Gold.Protein.RotatedTorsions>
[ 6907 6896 6895 6894 ] final   53.34 input  -60.11 | X-H torsion
[ 7974 7965 7964 7962 ] final   16.03 input  175.53 | X-H torsion
[ 8008 7997 7996 7995 ] final  -32.74 input   59.86 | X-H torsion
[ 10167 10162 10161 10158 ] final   69.04 input  -65.29 | X-H torsion
[ 10718 10713 10712 10709 ] final -107.45 input   66.30 | X-H torsion
[ 10763 10752 10751 10750 ] final -150.77 input  -60.55 | X-H torsion
[ 11005 11000 10999 10996 ] final  141.64 input  -57.11 | X-H torsion

> <Gold.Protein.ActiveResidues>
 VAL166  LYS551  ARG553  GLY616  TRP617  ASP618  TYR619  PRO620  LYS621  CYS622 
 ASP623  PHE694  ASN695  SER759  ASP760  ASP761  ALA762  ILE779  LEU786  VAL792 
 PHE793  MET794  SER795  GLU796  ALA797  LYS798  CYS799  TRP800  GLU811  SER814 

> <Gold.Protein.RotatedAtoms>
  152.3327  134.7238  160.0284 H   0  0  0  0  0  0  0  0  0  0  0  0  # atno 6907 bound_to 6896
  151.7650  133.3331  159.3436 H   0  0  0  0  0  0  0  0  0  0  0  0  # atno 6908 bound_to 6896
  150.7432  134.6003  159.6078 H   0  0  0  0  0  0  0  0  0  0  0  0  # atno 6909 bound_to 6896
  146.2261  139.8807  142.8571 H   0  0  0  0  0  0  0  0  0  0  0  0  # atno 7974 bound_to 7965
  154.4170  140.1729  156.1776 H   0  0  0  0  0  0  0  0  0  0  0  0  # atno 8008 bound_to 7997
  155.9709  140.3386  155.6551 H   0  0  0  0  0  0  0  0  0  0  0  0  # atno 8009 bound_to 7997
  155.6627  140.0702  157.2539 H   0  0  0  0  0  0  0  0  0  0  0  0  # atno 8010 bound_to 7997
  140.0721  144.5143  150.7220 H   0  0  0  0  0  0  0  0  0  0  0  0  # atno 10167 bound_to 10162
  156.0437  130.5663  150.7824 H   0  0  0  0  0  0  0  0  0  0  0  0  # atno 10718 bound_to 10713
  154.8098  135.3276  154.7334 H   0  0  0  0  0  0  0  0  0  0  0  0  # atno 10763 bound_to 10752
  153.7985  135.6905  153.4864 H   0  0  0  0  0  0  0  0  0  0  0  0  # atno 10764 bound_to 10752
  153.1869  135.4565  155.0046 H   0  0  0  0  0  0  0  0  0  0  0  0  # atno 10765 bound_to 10752
  140.0416  134.9302  157.0854 H   0  0  0  0  0  0  0  0  0  0  0  0  # atno 11005 bound_to 11000
  145.2516  141.0046  143.3878 LP  0  0  0  0  0  0  0  0  0  0  0  0  # atno 17320 bound_to 7965
  144.9370  139.4232  143.6467 LP  0  0  0  0  0  0  0  0  0  0  0  0  # atno 17321 bound_to 7965
  140.7120  143.2513  151.4552 LP  0  0  0  0  0  0  0  0  0  0  0  0  # atno 17342 bound_to 10162
  139.5829  144.1668  152.1992 LP  0  0  0  0  0  0  0  0  0  0  0  0  # atno 17343 bound_to 10162
  157.5287  131.0935  150.9983 LP  0  0  0  0  0  0  0  0  0  0  0  0  # atno 17370 bound_to 10713
  157.0295  130.5705  149.5341 LP  0  0  0  0  0  0  0  0  0  0  0  0  # atno 17371 bound_to 10713
  140.4059  134.2032  155.7163 LP  0  0  0  0  0  0  0  0  0  0  0  0  # atno 17394 bound_to 11000
  141.1886  133.8256  157.0988 LP  0  0  0  0  0  0  0  0  0  0  0  0  # atno 17395 bound_to 11000

$$$$
