AV-unprocessed.smi:1601|AV-procd|sdf|6436|dock7
  -GOLD-   22720 7 83D 1   1.00000     0.00000
 Structure written by MMmdl.
 42 43  0  0  0  0  0  0  0  0  2 V2000
  151.5134  139.9477  155.5485 C   0  0  0  0  0  0  0  0  0  0  0  0
  150.5117  140.8308  156.3346 C   0  0  1  0  0  0  0  0  0  0  0  0
  151.0811  142.2650  156.5039 C   0  0  0  0  0  0  0  0  0  0  0  0
  151.1126  142.6904  157.8981 N   0  0  0  0  0  0  0  0  0  0  0  0
  151.6373  143.8462  158.3321 C   0  0  0  0  0  0  0  0  0  0  0  0
  152.1273  144.6854  157.5755 O   0  0  0  0  0  0  0  0  0  0  0  0
  151.6026  144.0750  159.8516 C   0  0  2  0  0  0  0  0  0  0  0  0
  151.9397  145.5240  160.2517 C   0  0  0  0  0  0  0  0  0  0  0  0
  152.4819  143.1262  160.5231 N   0  0  0  0  0  0  0  0  0  0  0  0
  152.6535  142.9120  161.8772 C   0  0  0  0  0  0  0  0  0  0  0  0
  153.5953  141.9342  162.0208 C   0  0  0  0  0  0  0  0  0  0  0  0
  153.9508  141.6089  160.6825 C   0  0  0  0  0  0  0  0  0  0  0  0
  153.2874  142.3259  159.7899 N   0  0  0  0  0  0  0  0  0  0  0  0
  149.1533  140.8319  155.6932 N   0  3  0  0  0  0  0  0  0  0  0  0
  148.1043  141.4940  156.5195 C   0  0  0  0  0  0  0  0  0  0  0  0
  146.7310  141.4552  155.8287 C   0  0  0  0  0  0  0  0  0  0  0  0
  146.8197  142.0701  154.5538 O   0  0  0  0  0  0  0  0  0  0  0  0
  147.7187  141.3699  153.7097 C   0  0  0  0  0  0  0  0  0  0  0  0
  149.1327  141.3986  154.3145 C   0  0  0  0  0  0  0  0  0  0  0  0
  152.5203  139.9933  155.9627 H   0  0  0  0  0  0  0  0  0  0  0  0
  151.5775  140.2563  154.5046 H   0  0  0  0  0  0  0  0  0  0  0  0
  151.2459  138.8925  155.5750 H   0  0  0  0  0  0  0  0  0  0  0  0
  150.4020  140.4007  157.3316 H   0  0  0  0  0  0  0  0  0  0  0  0
  152.0840  142.3166  156.0757 H   0  0  0  0  0  0  0  0  0  0  0  0
  150.4673  143.0020  155.9877 H   0  0  0  0  0  0  0  0  0  0  0  0
  150.7308  142.0550  158.5845 H   0  0  0  0  0  0  0  0  0  0  0  0
  150.5793  143.8794  160.1789 H   0  0  0  0  0  0  0  0  0  0  0  0
  151.2643  146.2337  159.7729 H   0  0  0  0  0  0  0  0  0  0  0  0
  152.9592  145.7957  159.9749 H   0  0  0  0  0  0  0  0  0  0  0  0
  151.8436  145.6603  161.3293 H   0  0  0  0  0  0  0  0  0  0  0  0
  152.0971  143.4685  162.6173 H   0  0  0  0  0  0  0  0  0  0  0  0
  153.9734  141.5156  162.9416 H   0  0  0  0  0  0  0  0  0  0  0  0
  154.6685  140.8801  160.3355 H   0  0  0  0  0  0  0  0  0  0  0  0
  147.9920  141.0008  157.4831 H   0  0  0  0  0  0  0  0  0  0  0  0
  148.3930  142.5277  156.7157 H   0  0  0  0  0  0  0  0  0  0  0  0
  146.3706  140.4296  155.7312 H   0  0  0  0  0  0  0  0  0  0  0  0
  145.9957  141.9932  156.4270 H   0  0  0  0  0  0  0  0  0  0  0  0
  147.3777  140.3440  153.5622 H   0  0  0  0  0  0  0  0  0  0  0  0
  147.7221  141.8458  152.7288 H   0  0  0  0  0  0  0  0  0  0  0  0
  149.5105  142.4221  154.3336 H   0  0  0  0  0  0  0  0  0  0  0  0
  149.7721  140.8272  153.6447 H   0  0  0  0  0  0  0  0  0  0  0  0
  148.8785  139.8638  155.6053 H   0  0  0  0  0  0  0  0  0  0  0  0
  1  2  1  0  0  0  0
  1 20  1  0  0  0  0
  1 21  1  0  0  0  0
  1 22  1  0  0  0  0
  2  3  1  0  0  0  0
  2 14  1  0  0  0  0
  2 23  1  0  0  0  0
  3  4  1  0  0  0  0
  3 24  1  0  0  0  0
  3 25  1  0  0  0  0
  4  5  1  0  0  0  0
  4 26  1  0  0  0  0
  5  6  2  0  0  0  0
  5  7  1  0  0  0  0
  7  8  1  0  0  0  0
  7  9  1  0  0  0  0
  7 27  1  0  0  0  0
  8 28  1  0  0  0  0
  8 29  1  0  0  0  0
  8 30  1  0  0  0  0
  9 13  1  0  0  0  0
  9 10  1  0  0  0  0
 10 11  2  0  0  0  0
 10 31  1  0  0  0  0
 11 12  1  0  0  0  0
 11 32  1  0  0  0  0
 12 13  2  0  0  0  0
 12 33  1  0  0  0  0
 14 19  1  0  0  0  0
 14 15  1  0  0  0  0
 14 42  1  0  0  0  0
 15 16  1  0  0  0  0
 15 34  1  0  0  0  0
 15 35  1  0  0  0  0
 16 17  1  0  0  0  0
 16 36  1  0  0  0  0
 16 37  1  0  0  0  0
 17 18  1  0  0  0  0
 18 19  1  0  0  0  0
 18 38  1  0  0  0  0
 18 39  1  0  0  0  0
 19 40  1  0  0  0  0
 19 41  1  0  0  0  0
M  CHG  1  14   1
M  END
> <s_m_source_file>
AV-unprocessed.smi

> <i_m_source_file_index>
1601

> <i_lp_mmshare_version>
43012

> <i_f3d_flags>
0

> <s_epik_input>
W0NIMl0xW0NIMl1PW0NIMl1bQ0gyXU4xW0NASF0oW0NIM10pW0NIMl1bTkhdQyg9TylbQ0BIXShbQ0gzXSluMltjSF1bY0hdW2NIXW4y

> <s_epik_cmdline>
J2VwaWtfcHl0aG9uJywgJy1waCcsICc3LjAnLCAnLXRuJywgJzgnLCAnLW1hJywgJzIwMCcsICctbWV0YWxfYmluZGluZycsICctaW1hZScsICc8aW5maWxlLm1hZT4nLCAnLW9tYWUnLCAnPG91dGZpbGUubWFlPic=

> <r_lp_tautomer_probability>
1

> <r_epik_Ionization_Penalty>
0.732551

> <r_epik_Ionization_Penalty_Charging>
0.732531

> <r_epik_Ionization_Penalty_Neutral>
2.04647e-05

> <r_epik_State_Penalty>
0.757939

> <r_epik_Charging_Adjusted_Penalty>
1.49047

> <i_epik_Tot_Q>
1

> <i_epik_Tot_abs_Q>
1

> <r_epik_Metal_State_Penalty>
0.757952

> <b_epik_Metal_Only>
0

> <s_lp_Force_Field>
OPLS_2005

> <r_lp_Energy>
25.0975

> <b_lp_Chiralities_Consistent>
1

> <s_lp_Variant>
AV-unprocessed.smi:1601-6

> <Gold.Version>
5.8.1

> <Gold.Id.Protein>
6NUR|6NUR_protein|mol2

> <Gold.PLP.Fitness>
42.5720

> <Gold.PLP.PLP>
-44.3933

> <Gold.PLP.part.hbond>
0.0000

> <Gold.PLP.part.metal>
0.0000

> <Gold.PLP.part.buried>
-4.8942

> <Gold.PLP.part.nonpolar>
-38.6527

> <Gold.PLP.part.repulsive>
0.3392

> <Gold.PLP.ligand.clash>
0.0000

> <Gold.PLP.ligand.torsion>
0.9845

> <Gold.PLP.Chemscore.Hbond>
0.0000

> <Gold.PLP.Chemscore.CHOScore>
0.0000

> <Gold.PLP.Chemscore.Metal>
0.0000

> <Gold.PLP.Chemscore.Internal.Correction>
0.1477

> <Gold.Rescore>
     Score         DG    S(hbond)    S(metal)    S(lipo)     H(rot)  DE(clash)    DE(int)     intcor
      9.84     -12.27       0.00        0.00      98.83       1.86       0.17       2.26       ----

> <Gold.Chemscore.Fitness>
9.8424

> <Gold.Chemscore.DG>
-12.2733

> <Gold.Chemscore.ZeroCoef>
-5.4800

> <Gold.Chemscore.Hbond>
0.0000

> <Gold.Chemscore.Metal>
0.0000

> <Gold.Chemscore.Lipo>
98.8284

> <Gold.Chemscore.Internal_Hbond>
0.0000

> <Gold.Chemscore.DEClash>
0.1711

> <Gold.Chemscore.DEInternal>
2.2598

> <Gold.Chemscore.Rot>
1.8631

> <Gold.Chemscore.Internal.Correction>
   9.000000E+99

> <Gold.Chemscore.Hbond.Weighted>
-0.0000

> <Gold.Chemscore.Metal.Weighted>
-0.0000

> <Gold.Chemscore.Lipo.Weighted>
-11.5629

> <Gold.Chemscore.Internal_Hbond.Weighted>
0.0000

> <Gold.Chemscore.DEClash.Weighted>
0.1711

> <Gold.Chemscore.DEInternal.Weighted>
2.2598

> <Gold.Chemscore.Rot.Weighted>
4.7697

> <Gold.Chemscore.Internal.Correction.Weighted>
   9.000000E+99

> <Gold.Protein.RotatedTorsions>
[ 6907 6896 6895 6894 ] final  -46.32 input  -60.11 | X-H torsion
[ 7974 7965 7964 7962 ] final  170.38 input  175.53 | X-H torsion
[ 8008 7997 7996 7995 ] final  155.71 input   59.86 | X-H torsion
[ 10167 10162 10161 10158 ] final   37.91 input  -65.29 | X-H torsion
[ 10718 10713 10712 10709 ] final -170.18 input   66.30 | X-H torsion
[ 10763 10752 10751 10750 ] final  169.97 input  -60.55 | X-H torsion
[ 11005 11000 10999 10996 ] final -103.47 input  -57.11 | X-H torsion

> <Gold.Protein.ActiveResidues>
 VAL166  LYS551  ARG553  GLY616  TRP617  ASP618  TYR619  PRO620  LYS621  CYS622 
 ASP623  PHE694  ASN695  SER759  ASP760  ASP761  ALA762  ILE779  LEU786  VAL792 
 PHE793  MET794  SER795  GLU796  ALA797  LYS798  CYS799  TRP800  GLU811  SER814 

> <Gold.Protein.RotatedAtoms>
  150.9125  134.8542  159.7434 H   0  0  0  0  0  0  0  0  0  0  0  0  # atno 6907 bound_to 6896
  152.4951  134.4339  159.9531 H   0  0  0  0  0  0  0  0  0  0  0  0  # atno 6908 bound_to 6896
  151.4380  133.3612  159.2813 H   0  0  0  0  0  0  0  0  0  0  0  0  # atno 6909 bound_to 6896
  144.7325  139.9193  143.6419 H   0  0  0  0  0  0  0  0  0  0  0  0  # atno 7974 bound_to 7965
  156.2463  140.1932  156.6844 H   0  0  0  0  0  0  0  0  0  0  0  0  # atno 8008 bound_to 7997
  154.6298  140.0597  156.9744 H   0  0  0  0  0  0  0  0  0  0  0  0  # atno 8009 bound_to 7997
  155.1729  140.3270  155.4392 H   0  0  0  0  0  0  0  0  0  0  0  0  # atno 8010 bound_to 7997
  140.3987  144.1753  150.6133 H   0  0  0  0  0  0  0  0  0  0  0  0  # atno 10167 bound_to 10162
  156.7224  130.9275  151.3098 H   0  0  0  0  0  0  0  0  0  0  0  0  # atno 10718 bound_to 10713
  154.3908  135.2754  155.2155 H   0  0  0  0  0  0  0  0  0  0  0  0  # atno 10763 bound_to 10752
  154.4222  135.5997  153.6020 H   0  0  0  0  0  0  0  0  0  0  0  0  # atno 10764 bound_to 10752
  152.9832  135.5975  154.4163 H   0  0  0  0  0  0  0  0  0  0  0  0  # atno 10765 bound_to 10752
  141.1144  133.8643  157.1490 H   0  0  0  0  0  0  0  0  0  0  0  0  # atno 11005 bound_to 11000
  146.0941  139.3933  143.0387 LP  0  0  0  0  0  0  0  0  0  0  0  0  # atno 17320 bound_to 7965
  145.7669  140.9912  143.1170 LP  0  0  0  0  0  0  0  0  0  0  0  0  # atno 17321 bound_to 7965
  140.4763  143.2395  151.9019 LP  0  0  0  0  0  0  0  0  0  0  0  0  # atno 17342 bound_to 10162
  139.4785  144.5317  151.8657 LP  0  0  0  0  0  0  0  0  0  0  0  0  # atno 17343 bound_to 10162
  157.6892  130.9217  150.0469 LP  0  0  0  0  0  0  0  0  0  0  0  0  # atno 17370 bound_to 10713
  156.1585  130.3643  149.9333 LP  0  0  0  0  0  0  0  0  0  0  0  0  # atno 17371 bound_to 10713
  140.0057  135.0009  157.0287 LP  0  0  0  0  0  0  0  0  0  0  0  0  # atno 17394 bound_to 11000
  140.4686  134.1409  155.7200 LP  0  0  0  0  0  0  0  0  0  0  0  0  # atno 17395 bound_to 11000

$$$$
