AV-unprocessed.smi:3331|AV-procd|sdf|12819|dock6
  -GOLD-   2272019193D 1   1.00000     0.00000
 Structure written by MMmdl.
 47 48  0  0  0  0  0  0  0  0  2 V2000
  154.8117  141.7322  159.6081 C   0  0  0  0  0  0  0  0  0  0  0  0
  153.6382  141.1896  160.4430 C   0  0  1  0  0  0  0  0  0  0  0  0
  153.8112  141.4793  161.9507 C   0  0  0  0  0  0  0  0  0  0  0  0
  153.4946  142.9458  162.3212 C   0  0  2  0  0  0  0  0  0  0  0  0
  153.5469  143.1644  163.8396 C   0  0  0  0  0  0  0  0  0  0  0  0
  152.1304  143.3632  161.7337 C   0  0  0  0  0  0  0  0  0  0  0  0
  152.1422  143.1452  160.2803 N   0  0  0  0  0  0  0  0  0  0  0  0
  152.1142  144.1698  159.3893 C   0  0  0  0  0  0  0  0  0  0  0  0
  152.0131  145.3429  159.7519 O   0  0  0  0  0  0  0  0  0  0  0  0
  152.1854  143.8741  157.8774 C   0  0  2  0  0  0  0  0  0  0  0  0
  152.2956  145.1663  157.0403 C   0  0  0  0  0  0  0  0  0  0  0  0
  151.0034  143.0791  157.4753 N   0  3  0  0  0  0  0  0  0  0  0  0
  151.2937  141.7244  156.9635 C   0  0  0  0  0  0  0  0  0  0  0  0
  150.0604  141.1305  156.2679 C   0  0  0  0  0  0  0  0  0  0  0  0
  150.3456  139.8416  155.6676 N   0  0  0  0  0  0  0  0  0  0  0  0
  150.7062  138.6662  156.2920 C   0  0  0  0  0  0  0  0  0  0  0  0
  150.8765  137.7249  155.3177 C   0  0  0  0  0  0  0  0  0  0  0  0
  150.6006  138.4305  154.1134 C   0  0  0  0  0  0  0  0  0  0  0  0
  150.2854  139.6983  154.3262 N   0  0  0  0  0  0  0  0  0  0  0  0
  152.2691  141.7151  159.9590 C   0  0  0  0  0  0  0  0  0  0  0  0
  154.8908  142.8176  159.6691 H   0  0  0  0  0  0  0  0  0  0  0  0
  154.6979  141.4672  158.5568 H   0  0  0  0  0  0  0  0  0  0  0  0
  155.7592  141.3141  159.9493 H   0  0  0  0  0  0  0  0  0  0  0  0
  153.6411  140.1064  160.3153 H   0  0  0  0  0  0  0  0  0  0  0  0
  153.1382  140.8249  162.5068 H   0  0  0  0  0  0  0  0  0  0  0  0
  154.8191  141.2157  162.2737 H   0  0  0  0  0  0  0  0  0  0  0  0
  154.2604  143.5827  161.8766 H   0  0  0  0  0  0  0  0  0  0  0  0
  152.7943  142.5659  164.3538 H   0  0  0  0  0  0  0  0  0  0  0  0
  153.3700  144.2104  164.0918 H   0  0  0  0  0  0  0  0  0  0  0  0
  154.5226  142.8898  164.2415 H   0  0  0  0  0  0  0  0  0  0  0  0
  151.3296  142.7717  162.1803 H   0  0  0  0  0  0  0  0  0  0  0  0
  151.9137  144.3976  162.0043 H   0  0  0  0  0  0  0  0  0  0  0  0
  153.0912  143.2991  157.6861 H   0  0  0  0  0  0  0  0  0  0  0  0
  153.1197  145.7918  157.3861 H   0  0  0  0  0  0  0  0  0  0  0  0
  151.3821  145.7602  157.0914 H   0  0  0  0  0  0  0  0  0  0  0  0
  152.4882  144.9475  155.9902 H   0  0  0  0  0  0  0  0  0  0  0  0
  150.4208  142.9723  158.2934 H   0  0  0  0  0  0  0  0  0  0  0  0
  152.1272  141.7664  156.2623 H   0  0  0  0  0  0  0  0  0  0  0  0
  151.5985  141.0844  157.7929 H   0  0  0  0  0  0  0  0  0  0  0  0
  149.2418  141.0077  156.9786 H   0  0  0  0  0  0  0  0  0  0  0  0
  149.7048  141.8040  155.4870 H   0  0  0  0  0  0  0  0  0  0  0  0
  150.8096  138.5965  157.3649 H   0  0  0  0  0  0  0  0  0  0  0  0
  151.1581  136.6901  155.4459 H   0  0  0  0  0  0  0  0  0  0  0  0
  150.6205  138.0619  153.0984 H   0  0  0  0  0  0  0  0  0  0  0  0
  152.1279  141.4792  158.9062 H   0  0  0  0  0  0  0  0  0  0  0  0
  151.4722  141.1740  160.4715 H   0  0  0  0  0  0  0  0  0  0  0  0
  150.4839  143.5962  156.7804 H   0  0  0  0  0  0  0  0  0  0  0  0
  1  2  1  0  0  0  0
  1 21  1  0  0  0  0
  1 22  1  0  0  0  0
  1 23  1  0  0  0  0
  2 20  1  0  0  0  0
  2  3  1  0  0  0  0
  2 24  1  0  0  0  0
  3  4  1  0  0  0  0
  3 25  1  0  0  0  0
  3 26  1  0  0  0  0
  4  5  1  0  0  0  0
  4  6  1  0  0  0  0
  4 27  1  0  0  0  0
  5 28  1  0  0  0  0
  5 29  1  0  0  0  0
  5 30  1  0  0  0  0
  6  7  1  0  0  0  0
  6 31  1  0  0  0  0
  6 32  1  0  0  0  0
  7  8  1  0  0  0  0
  7 20  1  0  0  0  0
  8  9  2  0  0  0  0
  8 10  1  0  0  0  0
 10 11  1  0  0  0  0
 10 12  1  0  0  0  0
 10 33  1  0  0  0  0
 11 34  1  0  0  0  0
 11 35  1  0  0  0  0
 11 36  1  0  0  0  0
 12 13  1  0  0  0  0
 12 37  1  0  0  0  0
 12 47  1  0  0  0  0
 13 14  1  0  0  0  0
 13 38  1  0  0  0  0
 13 39  1  0  0  0  0
 14 15  1  0  0  0  0
 14 40  1  0  0  0  0
 14 41  1  0  0  0  0
 15 19  1  0  0  0  0
 15 16  1  0  0  0  0
 16 17  2  0  0  0  0
 16 42  1  0  0  0  0
 17 18  1  0  0  0  0
 17 43  1  0  0  0  0
 18 19  2  0  0  0  0
 18 44  1  0  0  0  0
 20 45  1  0  0  0  0
 20 46  1  0  0  0  0
M  CHG  1  12   1
M  END
> <s_m_source_file>
AV-unprocessed.smi

> <i_m_source_file_index>
3331

> <i_lp_mmshare_version>
43012

> <i_f3d_flags>
0

> <s_epik_input>
W0NIM11bQ0BASF0xW0NIMl1bQ0BASF0oW0NIM10pW0NIMl1OKFtDSDJdMSlDKD1PKVtDQEhdKFtDSDNdKVtOSF1bQ0gyXVtDSDJdbjJbY0hdW2NIXVtjSF1uMg==

> <s_epik_cmdline>
J2VwaWtfcHl0aG9uJywgJy1waCcsICc3LjAnLCAnLXRuJywgJzgnLCAnLW1hJywgJzIwMCcsICctbWV0YWxfYmluZGluZycsICctaW1hZScsICc8aW5maWxlLm1hZT4nLCAnLW9tYWUnLCAnPG91dGZpbGUubWFlPic=

> <r_lp_tautomer_probability>
1

> <r_epik_Ionization_Penalty>
0.189706

> <r_epik_Ionization_Penalty_Charging>
0.189703

> <r_epik_Ionization_Penalty_Neutral>
2.45875e-06

> <r_epik_State_Penalty>
0.179341

> <r_epik_Charging_Adjusted_Penalty>
0.369044

> <i_epik_Tot_Q>
1

> <i_epik_Tot_abs_Q>
1

> <r_epik_Metal_State_Penalty>
0.179578

> <b_epik_Metal_Only>
0

> <s_lp_Force_Field>
OPLS_2005

> <r_lp_Energy>
29.8768

> <b_lp_Chiralities_Consistent>
1

> <s_lp_Variant>
AV-unprocessed.smi:3331-3

> <Gold.Version>
5.8.1

> <Gold.Id.Protein>
6NUR|6NUR_protein|mol2

> <Gold.PLP.Fitness>
53.4964

> <Gold.PLP.PLP>
-41.8487

> <Gold.PLP.part.hbond>
-2.0000

> <Gold.PLP.part.metal>
0.0000

> <Gold.PLP.part.buried>
-7.1772

> <Gold.PLP.part.nonpolar>
-34.0845

> <Gold.PLP.part.repulsive>
0.5467

> <Gold.PLP.ligand.clash>
0.0000

> <Gold.PLP.ligand.torsion>
0.8750

> <Gold.PLP.Chemscore.Hbond>
2.9920

> <Gold.PLP.Chemscore.CHOScore>
1.4528

> <Gold.PLP.Chemscore.Metal>
0.0000

> <Gold.Chemscore.Hbonds>
donor molecule, donor type, donor heavy atom, donor atom, acceptor molecule, acceptor atom, score
      L1  H    12    47       P1  8028  0.94
      P1  H  7989  7998       L1    19  1.00
      L1  C    18    44       P1  7948  0.33
      L1  C    18    44       P1  7949  0.43
      L1  C    18    44       P1  7957  0.01

> <Gold.PLP.Chemscore.Internal.Correction>
0.0633

> <Gold.Rescore>
     Score         DG    S(hbond)    S(metal)    S(lipo)     H(rot)  DE(clash)    DE(int)     intcor
     18.59     -22.48       1.70        0.00     134.49       1.73       2.88       1.01       ----

> <Gold.Chemscore.Fitness>
18.5881

> <Gold.Chemscore.DG>
-22.4789

> <Gold.Chemscore.ZeroCoef>
-5.4800

> <Gold.Chemscore.Hbond>
1.7009

> <Gold.Chemscore.Metal>
0.0000

> <Gold.Chemscore.Lipo>
134.4856

> <Gold.Chemscore.Internal_Hbond>
0.0000

> <Gold.Chemscore.DEClash>
2.8789

> <Gold.Chemscore.DEInternal>
1.0119

> <Gold.Chemscore.Rot>
1.7254

> <Gold.Chemscore.Internal.Correction>
   9.000000E+99

> <Gold.Chemscore.Hbonds>
donor molecule, donor type, donor heavy atom, donor atom, acceptor molecule, acceptor atom, score
      L1  H    12    47       P1  8028  0.48
      P1  H  7989  7998       L1    19  0.54

> <Gold.Chemscore.Hbond.Weighted>
-5.6811

> <Gold.Chemscore.Metal.Weighted>
-0.0000

> <Gold.Chemscore.Lipo.Weighted>
-15.7348

> <Gold.Chemscore.Internal_Hbond.Weighted>
0.0000

> <Gold.Chemscore.DEClash.Weighted>
2.8789

> <Gold.Chemscore.DEInternal.Weighted>
1.0119

> <Gold.Chemscore.Rot.Weighted>
4.4170

> <Gold.Chemscore.Internal.Correction.Weighted>
   9.000000E+99

> <Gold.Protein.RotatedTorsions>
[ 6907 6896 6895 6894 ] final  -59.75 input  -60.11 | X-H torsion
[ 7974 7965 7964 7962 ] final  -50.66 input  175.53 | X-H torsion
[ 8008 7997 7996 7995 ] final  -50.17 input   59.86 | X-H torsion
[ 10167 10162 10161 10158 ] final  -46.47 input  -65.29 | X-H torsion
[ 10718 10713 10712 10709 ] final   41.74 input   66.30 | X-H torsion
[ 10763 10752 10751 10750 ] final   84.50 input  -60.55 | X-H torsion
[ 11005 11000 10999 10996 ] final  137.95 input  -57.11 | X-H torsion

> <Gold.Protein.ActiveResidues>
 VAL166  LYS551  ARG553  GLY616  TRP617  ASP618  TYR619  PRO620  LYS621  CYS622 
 ASP623  PHE694  ASN695  SER759  ASP760  ASP761  ALA762  ILE779  LEU786  VAL792 
 PHE793  MET794  SER795  GLU796  ALA797  LYS798  CYS799  TRP800  GLU811  SER814 

> <Gold.Protein.RotatedAtoms>
  150.7907  134.6928  159.6505 H   0  0  0  0  0  0  0  0  0  0  0  0  # atno 6907 bound_to 6896
  152.4012  134.6280  160.0078 H   0  0  0  0  0  0  0  0  0  0  0  0  # atno 6908 bound_to 6896
  151.6551  133.3282  159.3197 H   0  0  0  0  0  0  0  0  0  0  0  0  # atno 6909 bound_to 6896
  145.9274  140.7780  142.9617 H   0  0  0  0  0  0  0  0  0  0  0  0  # atno 7974 bound_to 7965
  154.4057  140.1278  156.4623 H   0  0  0  0  0  0  0  0  0  0  0  0  # atno 8008 bound_to 7997
  155.7261  140.3492  155.5018 H   0  0  0  0  0  0  0  0  0  0  0  0  # atno 8009 bound_to 7997
  155.9170  140.1046  157.1226 H   0  0  0  0  0  0  0  0  0  0  0  0  # atno 8010 bound_to 7997
  140.6816  143.2829  151.3787 H   0  0  0  0  0  0  0  0  0  0  0  0  # atno 10167 bound_to 10162
  157.3970  130.7838  149.7316 H   0  0  0  0  0  0  0  0  0  0  0  0  # atno 10718 bound_to 10713
  153.1388  135.4652  154.9463 H   0  0  0  0  0  0  0  0  0  0  0  0  # atno 10763 bound_to 10752
  154.7729  135.3164  154.8155 H   0  0  0  0  0  0  0  0  0  0  0  0  # atno 10764 bound_to 10752
  153.8682  135.6906  153.4831 H   0  0  0  0  0  0  0  0  0  0  0  0  # atno 10765 bound_to 10752
  140.0150  134.9422  157.0356 H   0  0  0  0  0  0  0  0  0  0  0  0  # atno 11005 bound_to 11000
  144.6760  140.2073  143.7381 LP  0  0  0  0  0  0  0  0  0  0  0  0  # atno 17320 bound_to 7965
  145.8470  139.2157  143.1794 LP  0  0  0  0  0  0  0  0  0  0  0  0  # atno 17321 bound_to 7965
  139.6143  144.1035  152.2330 LP  0  0  0  0  0  0  0  0  0  0  0  0  # atno 17342 bound_to 10162
  140.0459  144.5971  150.7374 LP  0  0  0  0  0  0  0  0  0  0  0  0  # atno 17343 bound_to 10162
  155.9813  130.4021  150.3480 LP  0  0  0  0  0  0  0  0  0  0  0  0  # atno 17370 bound_to 10713
  157.1603  131.0343  151.2844 LP  0  0  0  0  0  0  0  0  0  0  0  0  # atno 17371 bound_to 10713
  140.4488  134.1604  155.7179 LP  0  0  0  0  0  0  0  0  0  0  0  0  # atno 17394 bound_to 11000
  141.1736  133.8558  157.1492 LP  0  0  0  0  0  0  0  0  0  0  0  0  # atno 17395 bound_to 11000

$$$$
