AV-unprocessed.smi:1997|AV-procd|sdf|8087|dock2
  -GOLD-   2272010303D 1   1.00000     0.00000
 Structure written by MMmdl.
 37 39  0  0  0  0  0  0  0  0  1 V2000
  146.9383  137.6356  154.7833 O   0  0  0  0  0  0  0  0  0  0  0  0
  147.1555  138.1857  153.7034 C   0  0  0  0  0  0  0  0  0  0  0  0
  146.5466  137.8891  152.5418 N   0  0  0  0  0  0  0  0  0  0  0  0
  145.5659  136.8935  152.2910 C   0  0  0  0  0  0  0  0  0  0  0  0
  144.4488  136.7478  153.0167 N   0  0  0  0  0  0  0  0  0  0  0  0
  143.6697  135.6930  152.5618 N   0  0  0  0  0  0  0  0  0  0  0  0
  144.2183  135.0726  151.5103 C   0  0  0  0  0  0  0  0  0  0  0  0
  143.5711  133.9013  150.8498 C   0  0  0  0  0  0  0  0  0  0  0  0
  143.2584  132.6477  151.6345 C   0  0  0  0  0  0  0  0  0  0  0  0
  144.3341  132.6227  150.5790 C   0  0  0  0  0  0  0  0  0  0  0  0
  145.7548  135.7463  150.9765 S   0  0  0  0  0  0  0  0  0  0  0  0
  148.0487  139.1743  153.5431 N   0  0  0  0  0  0  0  0  0  0  0  0
  148.8814  139.7472  154.6034 C   0  0  1  0  0  0  0  0  0  0  0  0
  150.3436  139.3285  154.3253 C   0  0  0  0  0  0  0  0  0  0  0  0
  151.2487  139.3681  155.5690 C   0  0  0  0  0  0  0  0  0  0  0  0
  151.4718  140.7662  156.1653 C   0  0  0  0  0  0  0  0  0  0  0  0
  150.1834  141.4336  156.6759 C   0  0  0  0  0  0  0  0  0  0  0  0
  149.3806  141.9789  155.5892 N   0  0  0  0  0  0  0  0  0  0  0  0
  148.7863  141.2911  154.6023 C   0  0  0  0  0  0  0  0  0  0  0  0
  148.1812  141.8832  153.7087 O   0  0  0  0  0  0  0  0  0  0  0  0
  146.8266  138.4319  151.7385 H   0  0  0  0  0  0  0  0  0  0  0  0
  142.8490  134.2302  150.1050 H   0  0  0  0  0  0  0  0  0  0  0  0
  143.5759  132.6096  152.6748 H   0  0  0  0  0  0  0  0  0  0  0  0
  142.3236  132.1374  151.4129 H   0  0  0  0  0  0  0  0  0  0  0  0
  144.1164  132.0953  149.6527 H   0  0  0  0  0  0  0  0  0  0  0  0
  145.3642  132.5536  150.9226 H   0  0  0  0  0  0  0  0  0  0  0  0
  148.1539  139.5737  152.6222 H   0  0  0  0  0  0  0  0  0  0  0  0
  148.5529  139.3518  155.5662 H   0  0  0  0  0  0  0  0  0  0  0  0
  150.3551  138.3011  153.9575 H   0  0  0  0  0  0  0  0  0  0  0  0
  150.7772  139.9289  153.5233 H   0  0  0  0  0  0  0  0  0  0  0  0
  150.8390  138.7085  156.3350 H   0  0  0  0  0  0  0  0  0  0  0  0
  152.2192  138.9470  155.3046 H   0  0  0  0  0  0  0  0  0  0  0  0
  152.1649  140.6701  157.0015 H   0  0  0  0  0  0  0  0  0  0  0  0
  151.9683  141.4116  155.4393 H   0  0  0  0  0  0  0  0  0  0  0  0
  149.5928  140.7437  157.2805 H   0  0  0  0  0  0  0  0  0  0  0  0
  150.4460  142.2659  157.3292 H   0  0  0  0  0  0  0  0  0  0  0  0
  149.2893  142.9844  155.5651 H   0  0  0  0  0  0  0  0  0  0  0  0
  1  2  2  0  0  0  0
  2  3  1  0  0  0  0
  2 12  1  0  0  0  0
  3  4  1  0  0  0  0
  3 21  1  0  0  0  0
  4 11  1  0  0  0  0
  4  5  2  0  0  0  0
  5  6  1  0  0  0  0
  6  7  2  0  0  0  0
  7  8  1  0  0  0  0
  7 11  1  0  0  0  0
  8 10  1  0  0  0  0
  8  9  1  0  0  0  0
  8 22  1  0  0  0  0
  9 10  1  0  0  0  0
  9 23  1  0  0  0  0
  9 24  1  0  0  0  0
 10 25  1  0  0  0  0
 10 26  1  0  0  0  0
 12 13  1  0  0  0  0
 12 27  1  0  0  0  0
 13 19  1  0  0  0  0
 13 14  1  0  0  0  0
 13 28  1  0  0  0  0
 14 15  1  0  0  0  0
 14 29  1  0  0  0  0
 14 30  1  0  0  0  0
 15 16  1  0  0  0  0
 15 31  1  0  0  0  0
 15 32  1  0  0  0  0
 16 17  1  0  0  0  0
 16 33  1  0  0  0  0
 16 34  1  0  0  0  0
 17 18  1  0  0  0  0
 17 35  1  0  0  0  0
 17 36  1  0  0  0  0
 18 19  1  0  0  0  0
 18 37  1  0  0  0  0
 19 20  2  0  0  0  0
M  END
> <s_m_source_file>
AV-unprocessed.smi

> <i_m_source_file_index>
1997

> <i_lp_mmshare_version>
43012

> <i_f3d_flags>
0

> <s_epik_input>
W0NIMl0xW0NIMl1bQ0hdMWMoczIpbm5jMltOSF1DKD1PKVtOSF1bQ0BASF0zW0NIMl1bQ0gyXVtDSDJdW0NIMl1bTkhdQzM9Tw==

> <s_epik_cmdline>
J2VwaWtfcHl0aG9uJywgJy1waCcsICc3LjAnLCAnLXRuJywgJzgnLCAnLW1hJywgJzIwMCcsICctbWV0YWxfYmluZGluZycsICctaW1hZScsICc8aW5maWxlLm1hZT4nLCAnLW9tYWUnLCAnPG91dGZpbGUubWFlPic=

> <r_lp_tautomer_probability>
1

> <r_epik_Ionization_Penalty>
0.000421558

> <r_epik_Ionization_Penalty_Charging>
0

> <r_epik_Ionization_Penalty_Neutral>
0.000421558

> <r_epik_State_Penalty>
-0

> <r_epik_Charging_Adjusted_Penalty>
0

> <i_epik_Tot_Q>
0

> <i_epik_Tot_abs_Q>
0

> <r_epik_Metal_State_Penalty>
0.200761

> <b_epik_Metal_Only>
0

> <s_lp_Force_Field>
OPLS_2005

> <r_lp_Energy>
8.5849

> <b_lp_Chiralities_Consistent>
1

> <s_lp_Variant>
AV-unprocessed.smi:1997-2

> <Gold.Version>
5.8.1

> <Gold.Id.Protein>
6NUR|6NUR_protein|mol2

> <Gold.PLP.Fitness>
37.6506

> <Gold.PLP.PLP>
-31.4622

> <Gold.PLP.part.hbond>
-4.0000

> <Gold.PLP.part.metal>
0.0000

> <Gold.PLP.part.buried>
-1.0402

> <Gold.PLP.part.nonpolar>
-27.0786

> <Gold.PLP.part.repulsive>
0.8181

> <Gold.PLP.ligand.clash>
0.0000

> <Gold.PLP.ligand.torsion>
0.6291

> <Gold.PLP.Chemscore.Hbond>
2.4400

> <Gold.PLP.Chemscore.CHOScore>
0.0000

> <Gold.PLP.Chemscore.Metal>
0.0000

> <Gold.Chemscore.Hbonds>
donor molecule, donor type, donor heavy atom, donor atom, acceptor molecule, acceptor atom, score
      L1  H    12    27       P1  7957  0.70
      L1  H    18    37       P1  8028  1.00
      P1  H  8011  8017       L1    20  0.29

> <Gold.PLP.Chemscore.Internal.Correction>
0.1265

> <Gold.Rescore>
     Score         DG    S(hbond)    S(metal)    S(lipo)     H(rot)  DE(clash)    DE(int)     intcor
     16.16     -17.84       2.38        0.00      65.77       1.29       1.05       0.63       ----

> <Gold.Chemscore.Fitness>
16.1555

> <Gold.Chemscore.DG>
-17.8377

> <Gold.Chemscore.ZeroCoef>
-5.4800

> <Gold.Chemscore.Hbond>
2.3817

> <Gold.Chemscore.Metal>
0.0000

> <Gold.Chemscore.Lipo>
65.7691

> <Gold.Chemscore.Internal_Hbond>
0.0000

> <Gold.Chemscore.DEClash>
1.0517

> <Gold.Chemscore.DEInternal>
0.6305

> <Gold.Chemscore.Rot>
1.2860

> <Gold.Chemscore.Internal.Correction>
   9.000000E+99

> <Gold.Chemscore.Hbonds>
donor molecule, donor type, donor heavy atom, donor atom, acceptor molecule, acceptor atom, score
      L1  H    12    27       P1  7957  0.68
      L1  H    18    37       P1  8028  1.00
      P1  H  8011  8017       L1    20  0.12

> <Gold.Chemscore.Hbond.Weighted>
-7.9550

> <Gold.Chemscore.Metal.Weighted>
-0.0000

> <Gold.Chemscore.Lipo.Weighted>
-7.6950

> <Gold.Chemscore.Internal_Hbond.Weighted>
0.0000

> <Gold.Chemscore.DEClash.Weighted>
1.0517

> <Gold.Chemscore.DEInternal.Weighted>
0.6305

> <Gold.Chemscore.Rot.Weighted>
3.2923

> <Gold.Chemscore.Internal.Correction.Weighted>
   9.000000E+99

> <Gold.Protein.RotatedTorsions>
[ 6907 6896 6895 6894 ] final  148.58 input  -60.11 | X-H torsion
[ 7974 7965 7964 7962 ] final   38.76 input  175.53 | X-H torsion
[ 8008 7997 7996 7995 ] final  -49.02 input   59.86 | X-H torsion
[ 10167 10162 10161 10158 ] final  -88.64 input  -65.29 | X-H torsion
[ 10718 10713 10712 10709 ] final  -36.07 input   66.30 | X-H torsion
[ 10763 10752 10751 10750 ] final  -48.04 input  -60.55 | X-H torsion
[ 11005 11000 10999 10996 ] final  -31.20 input  -57.11 | X-H torsion

> <Gold.Protein.ActiveResidues>
 VAL166  LYS551  ARG553  GLY616  TRP617  ASP618  TYR619  PRO620  LYS621  CYS622 
 ASP623  PHE694  ASN695  SER759  ASP760  ASP761  ALA762  ILE779  LEU786  VAL792 
 PHE793  MET794  SER795  GLU796  ALA797  LYS798  CYS799  TRP800  GLU811  SER814 

> <Gold.Protein.RotatedAtoms>
  152.1396  133.4456  159.4759 H   0  0  0  0  0  0  0  0  0  0  0  0  # atno 6907 bound_to 6896
  150.6885  134.2322  159.4448 H   0  0  0  0  0  0  0  0  0  0  0  0  # atno 6908 bound_to 6896
  152.0211  134.9821  160.0621 H   0  0  0  0  0  0  0  0  0  0  0  0  # atno 6909 bound_to 6896
  146.1037  139.5733  142.9397 H   0  0  0  0  0  0  0  0  0  0  0  0  # atno 7974 bound_to 7965
  154.4037  140.1307  156.4434 H   0  0  0  0  0  0  0  0  0  0  0  0  # atno 8008 bound_to 7997
  155.7437  140.3489  155.5096 H   0  0  0  0  0  0  0  0  0  0  0  0  # atno 8009 bound_to 7997
  155.9015  140.1020  157.1336 H   0  0  0  0  0  0  0  0  0  0  0  0  # atno 8010 bound_to 7997
  140.3727  143.2787  151.9481 H   0  0  0  0  0  0  0  0  0  0  0  0  # atno 10167 bound_to 10162
  156.3311  130.4279  149.7871 H   0  0  0  0  0  0  0  0  0  0  0  0  # atno 10718 bound_to 10713
  154.0712  135.6604  153.4824 H   0  0  0  0  0  0  0  0  0  0  0  0  # atno 10763 bound_to 10752
  153.0390  135.5158  154.7565 H   0  0  0  0  0  0  0  0  0  0  0  0  # atno 10764 bound_to 10752
  154.6631  135.3018  154.9808 H   0  0  0  0  0  0  0  0  0  0  0  0  # atno 10765 bound_to 10752
  140.9448  133.7256  156.1130 H   0  0  0  0  0  0  0  0  0  0  0  0  # atno 11005 bound_to 11000
  145.5804  141.0383  143.2125 LP  0  0  0  0  0  0  0  0  0  0  0  0  # atno 17320 bound_to 7965
  144.7453  139.7336  143.7294 LP  0  0  0  0  0  0  0  0  0  0  0  0  # atno 17321 bound_to 7965
  139.4802  144.5892  151.7801 LP  0  0  0  0  0  0  0  0  0  0  0  0  # atno 17342 bound_to 10162
  140.5017  144.1158  150.5973 LP  0  0  0  0  0  0  0  0  0  0  0  0  # atno 17343 bound_to 10162
  156.5143  130.8186  151.3180 LP  0  0  0  0  0  0  0  0  0  0  0  0  # atno 17370 bound_to 10713
  157.7430  130.9903  150.2562 LP  0  0  0  0  0  0  0  0  0  0  0  0  # atno 17371 bound_to 10713
  140.7684  134.3860  157.5512 LP  0  0  0  0  0  0  0  0  0  0  0  0  # atno 17394 bound_to 11000
  139.8830  134.9006  156.2793 LP  0  0  0  0  0  0  0  0  0  0  0  0  # atno 17395 bound_to 11000

$$$$
