AV-unprocessed.smi:1036|AV-procd|sdf|4516|dock3
  -GOLD-   22720 2523D 1   1.00000     0.00000
 Structure written by MMmdl.
 42 44  0  0  0  0  0  0  0  0  2 V2000
  148.3602  140.3275  153.5741 O   0  0  0  0  0  0  0  0  0  0  0  0
  147.0318  139.8820  153.4151 C   0  0  0  0  0  0  0  0  0  0  0  0
  147.0160  138.6340  152.5259 C   0  0  0  0  0  0  0  0  0  0  0  0
  145.6577  138.2045  152.2400 N   0  0  0  0  0  0  0  0  0  0  0  0
  145.4377  136.8482  151.9770 C   0  0  0  0  0  0  0  0  0  0  0  0
  146.3762  135.9479  151.5797 N   0  3  0  0  0  0  0  0  0  0  0  0
  145.7594  134.7002  151.4478 C   0  0  0  0  0  0  0  0  0  0  0  0
  146.2798  133.4648  151.0748 C   0  0  0  0  0  0  0  0  0  0  0  0
  145.3789  132.3801  151.0467 C   0  0  0  0  0  0  0  0  0  0  0  0
  144.0189  132.5442  151.3814 C   0  0  0  0  0  0  0  0  0  0  0  0
  143.4991  133.7999  151.7580 C   0  0  0  0  0  0  0  0  0  0  0  0
  144.3938  134.8689  151.7821 C   0  0  0  0  0  0  0  0  0  0  0  0
  144.2385  136.2230  152.1030 N   0  0  0  0  0  0  0  0  0  0  0  0
  142.9255  136.7290  152.5300 C   0  0  0  0  0  0  0  0  0  0  0  0
  143.0006  137.4972  153.8652 C   0  0  2  0  0  0  0  0  0  0  0  0
  143.6549  136.6734  154.8080 O   0  0  0  0  0  0  0  0  0  0  0  0
  141.6250  137.9504  154.3430 C   0  0  0  0  0  0  0  0  0  0  0  0
  140.4558  137.3520  153.8220 C   0  0  0  0  0  0  0  0  0  0  0  0
  139.1844  137.7953  154.2336 C   0  0  0  0  0  0  0  0  0  0  0  0
  138.0699  137.2195  153.7245 F   0  0  0  0  0  0  0  0  0  0  0  0
  139.0717  138.8423  155.1674 C   0  0  0  0  0  0  0  0  0  0  0  0
  140.2316  139.4451  155.6896 C   0  0  0  0  0  0  0  0  0  0  0  0
  141.5045  139.0027  155.2800 C   0  0  0  0  0  0  0  0  0  0  0  0
  142.6093  139.6089  155.7776 F   0  0  0  0  0  0  0  0  0  0  0  0
  148.8888  139.9488  152.8879 H   0  0  0  0  0  0  0  0  0  0  0  0
  146.6102  139.6660  154.3971 H   0  0  0  0  0  0  0  0  0  0  0  0
  146.4383  140.6820  152.9712 H   0  0  0  0  0  0  0  0  0  0  0  0
  147.5317  138.8402  151.5871 H   0  0  0  0  0  0  0  0  0  0  0  0
  147.5507  137.8208  153.0195 H   0  0  0  0  0  0  0  0  0  0  0  0
  144.8946  138.7577  152.6034 H   0  0  0  0  0  0  0  0  0  0  0  0
  147.3213  133.3341  150.8199 H   0  0  0  0  0  0  0  0  0  0  0  0
  145.7387  131.4013  150.7642 H   0  0  0  0  0  0  0  0  0  0  0  0
  143.3599  131.6886  151.3492 H   0  0  0  0  0  0  0  0  0  0  0  0
  142.4564  133.9141  152.0149 H   0  0  0  0  0  0  0  0  0  0  0  0
  142.5383  137.3707  151.7376 H   0  0  0  0  0  0  0  0  0  0  0  0
  142.2398  135.8836  152.6014 H   0  0  0  0  0  0  0  0  0  0  0  0
  143.6380  138.3725  153.7377 H   0  0  0  0  0  0  0  0  0  0  0  0
  143.1345  136.6472  155.5967 H   0  0  0  0  0  0  0  0  0  0  0  0
  140.5293  136.5565  153.0950 H   0  0  0  0  0  0  0  0  0  0  0  0
  138.0966  139.1857  155.4802 H   0  0  0  0  0  0  0  0  0  0  0  0
  140.1445  140.2523  156.4016 H   0  0  0  0  0  0  0  0  0  0  0  0
  147.3507  136.1671  151.4177 H   0  0  0  0  0  0  0  0  0  0  0  0
  1  2  1  0  0  0  0
  1 25  1  0  0  0  0
  2  3  1  0  0  0  0
  2 26  1  0  0  0  0
  2 27  1  0  0  0  0
  3  4  1  0  0  0  0
  3 28  1  0  0  0  0
  3 29  1  0  0  0  0
  4  5  1  0  0  0  0
  4 30  1  0  0  0  0
  5 13  1  0  0  0  0
  5  6  2  0  0  0  0
  6  7  1  0  0  0  0
  6 42  1  0  0  0  0
  7 12  2  0  0  0  0
  7  8  1  0  0  0  0
  8  9  2  0  0  0  0
  8 31  1  0  0  0  0
  9 10  1  0  0  0  0
  9 32  1  0  0  0  0
 10 11  2  0  0  0  0
 10 33  1  0  0  0  0
 11 12  1  0  0  0  0
 11 34  1  0  0  0  0
 12 13  1  0  0  0  0
 13 14  1  0  0  0  0
 14 15  1  0  0  0  0
 14 35  1  0  0  0  0
 14 36  1  0  0  0  0
 15 16  1  0  0  0  0
 15 17  1  0  0  0  0
 15 37  1  0  0  0  0
 16 38  1  0  0  0  0
 17 23  1  0  0  0  0
 17 18  2  0  0  0  0
 18 19  1  0  0  0  0
 18 39  1  0  0  0  0
 19 20  1  0  0  0  0
 19 21  2  0  0  0  0
 21 22  1  0  0  0  0
 21 40  1  0  0  0  0
 22 23  2  0  0  0  0
 22 41  1  0  0  0  0
 23 24  1  0  0  0  0
M  CHG  1   6   1
M  END
> <s_m_source_file>
AV-unprocessed.smi

> <i_m_source_file_index>
1036

> <i_lp_mmshare_version>
43012

> <i_f3d_flags>
0

> <s_epik_input>
W09IXVtDSDJdW0NIMl1bTkhdYyhuMSluKGMoYzEyKVtjSF1bY0hdW2NIXVtjSF0yKVtDSDJdW0NASF0oW09IXSljM1tjSF1jKEYpW2NIXVtjSF1jM0Y=

> <s_epik_cmdline>
J2VwaWtfcHl0aG9uJywgJy1waCcsICc3LjAnLCAnLXRuJywgJzgnLCAnLW1hJywgJzIwMCcsICctbWV0YWxfYmluZGluZycsICctaW1hZScsICc8aW5maWxlLm1hZT4nLCAnLW9tYWUnLCAnPG91dGZpbGUubWFlPic=

> <r_epik_Ionization_Penalty>
0.0688114

> <r_epik_Ionization_Penalty_Charging>
0.0688055

> <r_epik_Ionization_Penalty_Neutral>
5.85933e-06

> <r_epik_State_Penalty>
0.0602293

> <r_epik_Charging_Adjusted_Penalty>
0.129035

> <i_epik_Tot_Q>
1

> <i_epik_Tot_abs_Q>
1

> <r_epik_Metal_State_Penalty>
2.77411

> <b_epik_Metal_Only>
0

> <s_lp_Force_Field>
OPLS_2005

> <r_lp_Energy>
18.4992

> <b_lp_Chiralities_Consistent>
1

> <s_lp_Variant>
AV-unprocessed.smi:1036-1

> <Gold.Version>
5.8.1

> <Gold.Id.Protein>
6NUR|6NUR_protein|mol2

> <Gold.PLP.Fitness>
53.0244

> <Gold.PLP.PLP>
-39.5578

> <Gold.PLP.part.hbond>
-4.0000

> <Gold.PLP.part.metal>
0.0000

> <Gold.PLP.part.buried>
-5.2920

> <Gold.PLP.part.nonpolar>
-30.9248

> <Gold.PLP.part.repulsive>
0.1199

> <Gold.PLP.ligand.clash>
0.0000

> <Gold.PLP.ligand.torsion>
0.7696

> <Gold.PLP.Chemscore.Hbond>
4.9840

> <Gold.PLP.Chemscore.CHOScore>
0.0000

> <Gold.PLP.Chemscore.Metal>
0.0000

> <Gold.Chemscore.Hbonds>
donor molecule, donor type, donor heavy atom, donor atom, acceptor molecule, acceptor atom, score
      L1  H     1    25       P1  7957  0.99
      L1  H     4    30       P1 10175  1.65
      L1  H     6    42       P1  7948  2.00

> <Gold.PLP.Chemscore.Internal.Correction>
0.0540

> <Gold.Rescore>
     Score         DG    S(hbond)    S(metal)    S(lipo)     H(rot)  DE(clash)    DE(int)     intcor
     15.38     -16.12       2.88        0.00      80.49       3.29       0.30       0.44       ----

> <Gold.Chemscore.Fitness>
15.3769

> <Gold.Chemscore.DG>
-16.1176

> <Gold.Chemscore.ZeroCoef>
-5.4800

> <Gold.Chemscore.Hbond>
2.8849

> <Gold.Chemscore.Metal>
0.0000

> <Gold.Chemscore.Lipo>
80.4934

> <Gold.Chemscore.Internal_Hbond>
0.0000

> <Gold.Chemscore.DEClash>
0.2996

> <Gold.Chemscore.DEInternal>
0.4411

> <Gold.Chemscore.Rot>
3.2874

> <Gold.Chemscore.Internal.Correction>
   9.000000E+99

> <Gold.Chemscore.Hbonds>
donor molecule, donor type, donor heavy atom, donor atom, acceptor molecule, acceptor atom, score
      L1  H     1    25       P1  7957  0.94
      L1  H     4    30       P1 10175  0.77
      L1  H     6    42       P1  7948  0.97

> <Gold.Chemscore.Hbond.Weighted>
-9.6357

> <Gold.Chemscore.Metal.Weighted>
-0.0000

> <Gold.Chemscore.Lipo.Weighted>
-9.4177

> <Gold.Chemscore.Internal_Hbond.Weighted>
0.0000

> <Gold.Chemscore.DEClash.Weighted>
0.2996

> <Gold.Chemscore.DEInternal.Weighted>
0.4411

> <Gold.Chemscore.Rot.Weighted>
8.4158

> <Gold.Chemscore.Internal.Correction.Weighted>
   9.000000E+99

> <Gold.Protein.RotatedTorsions>
[ 6907 6896 6895 6894 ] final  169.22 input  -60.11 | X-H torsion
[ 7974 7965 7964 7962 ] final   -9.90 input  175.53 | X-H torsion
[ 8008 7997 7996 7995 ] final -117.62 input   59.86 | X-H torsion
[ 10167 10162 10161 10158 ] final   34.65 input  -65.29 | X-H torsion
[ 10718 10713 10712 10709 ] final -106.79 input   66.30 | X-H torsion
[ 10763 10752 10751 10750 ] final   64.57 input  -60.55 | X-H torsion
[ 11005 11000 10999 10996 ] final    8.61 input  -57.11 | X-H torsion

> <Gold.Protein.ActiveResidues>
 VAL166  LYS551  ARG553  GLY616  TRP617  ASP618  TYR619  PRO620  LYS621  CYS622 
 ASP623  PHE694  ASN695  SER759  ASP760  ASP761  ALA762  ILE779  LEU786  VAL792 
 PHE793  MET794  SER795  GLU796  ALA797  LYS798  CYS799  TRP800  GLU811  SER814 

> <Gold.Protein.RotatedAtoms>
  151.8353  133.3415  159.3625 H   0  0  0  0  0  0  0  0  0  0  0  0  # atno 6907 bound_to 6896
  150.7251  134.5443  159.5772 H   0  0  0  0  0  0  0  0  0  0  0  0  # atno 6908 bound_to 6896
  152.2905  134.7727  160.0430 H   0  0  0  0  0  0  0  0  0  0  0  0  # atno 6909 bound_to 6896
  146.2237  140.2685  142.8355 H   0  0  0  0  0  0  0  0  0  0  0  0  # atno 7974 bound_to 7965
  155.0865  140.0394  157.2655 H   0  0  0  0  0  0  0  0  0  0  0  0  # atno 8008 bound_to 7997
  154.6865  140.2644  155.6830 H   0  0  0  0  0  0  0  0  0  0  0  0  # atno 8009 bound_to 7997
  156.2713  140.2768  156.1428 H   0  0  0  0  0  0  0  0  0  0  0  0  # atno 8010 bound_to 7997
  140.4295  144.1345  150.6157 H   0  0  0  0  0  0  0  0  0  0  0  0  # atno 10167 bound_to 10162
  156.0406  130.5630  150.7730 H   0  0  0  0  0  0  0  0  0  0  0  0  # atno 10718 bound_to 10713
  153.0061  135.5388  154.6531 H   0  0  0  0  0  0  0  0  0  0  0  0  # atno 10763 bound_to 10752
  154.5759  135.2845  155.0784 H   0  0  0  0  0  0  0  0  0  0  0  0  # atno 10764 bound_to 10752
  154.1932  135.6496  153.5118 H   0  0  0  0  0  0  0  0  0  0  0  0  # atno 10765 bound_to 10752
  140.5351  134.0429  155.7885 H   0  0  0  0  0  0  0  0  0  0  0  0  # atno 11005 bound_to 11000
  144.9286  140.7949  143.5703 LP  0  0  0  0  0  0  0  0  0  0  0  0  # atno 17320 bound_to 7965
  145.2627  139.1986  143.4883 LP  0  0  0  0  0  0  0  0  0  0  0  0  # atno 17321 bound_to 7965
  140.4443  143.2513  151.9431 LP  0  0  0  0  0  0  0  0  0  0  0  0  # atno 17342 bound_to 10162
  139.4784  144.5624  151.8218 LP  0  0  0  0  0  0  0  0  0  0  0  0  # atno 17343 bound_to 10162
  157.5218  131.0932  151.0068 LP  0  0  0  0  0  0  0  0  0  0  0  0  # atno 17370 bound_to 10713
  157.0397  130.5744  149.5354 LP  0  0  0  0  0  0  0  0  0  0  0  0  # atno 17371 bound_to 10713
  141.1259  133.9383  157.2635 LP  0  0  0  0  0  0  0  0  0  0  0  0  # atno 17394 bound_to 11000
  139.9534  135.0171  156.9058 LP  0  0  0  0  0  0  0  0  0  0  0  0  # atno 17395 bound_to 11000

$$$$
