AV-unprocessed.smi:2775|AV-procd|sdf|10699|dock1
  -GOLD-   2272015133D 1   1.00000     0.00000
 Structure written by MMmdl.
 43 46  0  0  0  0  0  0  0  0  2 V2000
  144.4418  132.5738  150.6402 C   0  0  0  0  0  0  0  0  0  0  0  0
  144.4734  133.9415  151.2950 C   0  0  0  0  0  0  0  0  0  0  0  0
  143.3342  134.6685  151.2871 N   0  3  0  0  0  0  0  0  0  0  0  0
  143.2395  135.8939  151.8445 C   0  0  0  0  0  0  0  0  0  0  0  0
  144.3636  136.4716  152.4660 C   0  0  0  0  0  0  0  0  0  0  0  0
  145.5888  135.7592  152.4876 C   0  0  0  0  0  0  0  0  0  0  0  0
  146.7648  136.2609  153.1081 N   0  0  0  0  0  0  0  0  0  0  0  0
  146.8684  137.0613  154.1863 C   0  0  0  0  0  0  0  0  0  0  0  0
  145.9200  137.4447  154.8675 O   0  0  0  0  0  0  0  0  0  0  0  0
  148.1256  137.4575  154.4494 N   0  0  0  0  0  0  0  0  0  0  0  0
  148.5742  138.3245  155.5418 C   0  0  1  0  0  0  0  0  0  0  0  0
  150.0382  138.0882  155.9847 C   0  0  1  0  0  0  0  0  0  0  0  0
  151.0120  137.2468  155.1995 C   0  0  0  0  0  0  0  0  0  0  0  0
  151.4780  138.1992  154.1034 C   0  0  0  0  0  0  0  0  0  0  0  0
  151.4071  139.4951  154.6974 O   0  0  0  0  0  0  0  0  0  0  0  0
  150.3464  139.5471  155.6555 C   0  0  1  0  0  0  0  0  0  0  0  0
  148.9343  139.7445  155.0740 C   0  0  0  0  0  0  0  0  0  0  0  0
  148.7170  140.2540  153.6336 C   0  0  0  0  0  0  0  0  0  0  0  0
  148.4427  141.6401  154.2210 C   0  0  0  0  0  0  0  0  0  0  0  0
  148.0961  140.9454  155.5398 C   0  0  0  0  0  0  0  0  0  0  0  0
  145.6365  134.4694  151.9036 C   0  0  0  0  0  0  0  0  0  0  0  0
  147.1043  133.5498  151.9230 Cl  0  0  0  0  0  0  0  0  0  0  0  0
  145.1694  132.5239  149.8299 H   0  0  0  0  0  0  0  0  0  0  0  0
  143.4578  132.3525  150.2253 H   0  0  0  0  0  0  0  0  0  0  0  0
  144.6833  131.7994  151.3684 H   0  0  0  0  0  0  0  0  0  0  0  0
  142.2717  136.3699  151.7826 H   0  0  0  0  0  0  0  0  0  0  0  0
  144.2633  137.4436  152.9247 H   0  0  0  0  0  0  0  0  0  0  0  0
  147.6238  136.0954  152.6035 H   0  0  0  0  0  0  0  0  0  0  0  0
  148.8407  137.1647  153.7987 H   0  0  0  0  0  0  0  0  0  0  0  0
  147.8907  138.3539  156.3925 H   0  0  0  0  0  0  0  0  0  0  0  0
  150.0812  137.8967  157.0577 H   0  0  0  0  0  0  0  0  0  0  0  0
  151.8569  136.9687  155.8305 H   0  0  0  0  0  0  0  0  0  0  0  0
  150.5858  136.3265  154.8016 H   0  0  0  0  0  0  0  0  0  0  0  0
  152.4843  137.9746  153.7493 H   0  0  0  0  0  0  0  0  0  0  0  0
  150.8021  138.1546  153.2489 H   0  0  0  0  0  0  0  0  0  0  0  0
  150.5657  140.1661  156.5262 H   0  0  0  0  0  0  0  0  0  0  0  0
  149.5852  140.2096  152.9768 H   0  0  0  0  0  0  0  0  0  0  0  0
  147.8324  139.8329  153.1534 H   0  0  0  0  0  0  0  0  0  0  0  0
  149.3423  142.2538  154.2909 H   0  0  0  0  0  0  0  0  0  0  0  0
  147.6172  142.1800  153.7564 H   0  0  0  0  0  0  0  0  0  0  0  0
  147.0335  140.7110  155.6226 H   0  0  0  0  0  0  0  0  0  0  0  0
  148.4658  141.4509  156.4322 H   0  0  0  0  0  0  0  0  0  0  0  0
  142.5060  134.2705  150.8436 H   0  0  0  0  0  0  0  0  0  0  0  0
  1  2  1  0  0  0  0
  1 23  1  0  0  0  0
  1 24  1  0  0  0  0
  1 25  1  0  0  0  0
  2 21  1  0  0  0  0
  2  3  2  0  0  0  0
  3  4  1  0  0  0  0
  3 43  1  0  0  0  0
  4  5  2  0  0  0  0
  4 26  1  0  0  0  0
  5  6  1  0  0  0  0
  5 27  1  0  0  0  0
  6  7  1  0  0  0  0
  6 21  2  0  0  0  0
  7  8  1  0  0  0  0
  7 28  1  0  0  0  0
  8  9  2  0  0  0  0
  8 10  1  0  0  0  0
 10 11  1  0  0  0  0
 10 29  1  0  0  0  0
 11 17  1  0  0  0  0
 11 12  1  0  0  0  0
 11 30  1  0  0  0  0
 12 16  1  0  0  0  0
 12 13  1  0  0  0  0
 12 31  1  0  0  0  0
 13 14  1  0  0  0  0
 13 32  1  0  0  0  0
 13 33  1  0  0  0  0
 14 15  1  0  0  0  0
 14 34  1  0  0  0  0
 14 35  1  0  0  0  0
 15 16  1  0  0  0  0
 16 17  1  0  0  0  0
 16 36  1  0  0  0  0
 17 20  1  0  0  0  0
 17 18  1  0  0  0  0
 18 19  1  0  0  0  0
 18 37  1  0  0  0  0
 18 38  1  0  0  0  0
 19 20  1  0  0  0  0
 19 39  1  0  0  0  0
 19 40  1  0  0  0  0
 20 41  1  0  0  0  0
 20 42  1  0  0  0  0
 21 22  1  0  0  0  0
M  CHG  1   3   1
M  END
> <s_m_source_file>
AV-unprocessed.smi

> <i_m_source_file_index>
2775

> <i_lp_mmshare_version>
43012

> <i_f3d_flags>
0

> <s_epik_input>
W0NIM11jMW5bY0hdW2NIXWMoYzFDbClbTkhdQyg9TylbTkhdW0NAQEhdMltDQEhdKFtDSDJdW0NIMl1PMylbQ0BASF0zQzI0W0NIMl1bQ0gyXVtDSDJdNA==

> <s_epik_cmdline>
J2VwaWtfcHl0aG9uJywgJy1waCcsICc3LjAnLCAnLXRuJywgJzgnLCAnLW1hJywgJzIwMCcsICctbWV0YWxfYmluZGluZycsICctaW1hZScsICc8aW5maWxlLm1hZT4nLCAnLW9tYWUnLCAnPG91dGZpbGUubWFlPic=

> <r_epik_Ionization_Penalty>
2.4104

> <r_epik_Ionization_Penalty_Charging>
2.41038

> <r_epik_Ionization_Penalty_Neutral>
1.9872e-05

> <r_epik_State_Penalty>
2.56896

> <r_epik_Charging_Adjusted_Penalty>
4.97934

> <i_epik_Tot_Q>
1

> <i_epik_Tot_abs_Q>
1

> <r_epik_Metal_State_Penalty>
2.57906

> <b_epik_Metal_Only>
0

> <s_lp_Force_Field>
OPLS_2005

> <r_lp_Energy>
62.8505

> <b_lp_Chiralities_Consistent>
1

> <s_lp_Variant>
AV-unprocessed.smi:2775-12

> <Gold.Version>
5.8.1

> <Gold.Id.Protein>
6NUR|6NUR_protein|mol2

> <Gold.PLP.Fitness>
40.7088

> <Gold.PLP.PLP>
-28.0741

> <Gold.PLP.part.hbond>
-3.9505

> <Gold.PLP.part.metal>
0.0000

> <Gold.PLP.part.buried>
-1.3991

> <Gold.PLP.part.nonpolar>
-23.0159

> <Gold.PLP.part.repulsive>
0.1327

> <Gold.PLP.ligand.clash>
0.0000

> <Gold.PLP.ligand.torsion>
0.4909

> <Gold.PLP.Chemscore.Hbond>
4.4846

> <Gold.PLP.Chemscore.CHOScore>
0.0000

> <Gold.PLP.Chemscore.Metal>
0.0000

> <Gold.Chemscore.Hbonds>
donor molecule, donor type, donor heavy atom, donor atom, acceptor molecule, acceptor atom, score
      L1  H     3    43       P1 10186  1.98
      L1  H     7    28       P1  7948  0.98
      L1  H    10    29       P1  7948  0.57
      P1  H  7989  7998       L1    15  1.00

> <Gold.PLP.Chemscore.Internal.Correction>
0.1629

> <Gold.Rescore>
     Score         DG    S(hbond)    S(metal)    S(lipo)     H(rot)  DE(clash)    DE(int)     intcor
     19.23     -23.00       2.94        0.00      87.67       1.00       2.42       1.35       ----

> <Gold.Chemscore.Fitness>
19.2341

> <Gold.Chemscore.DG>
-22.9989

> <Gold.Chemscore.ZeroCoef>
-5.4800

> <Gold.Chemscore.Hbond>
2.9406

> <Gold.Chemscore.Metal>
0.0000

> <Gold.Chemscore.Lipo>
87.6700

> <Gold.Chemscore.Internal_Hbond>
0.0000

> <Gold.Chemscore.DEClash>
2.4169

> <Gold.Chemscore.DEInternal>
1.3479

> <Gold.Chemscore.Rot>
1.0000

> <Gold.Chemscore.Internal.Correction>
   9.000000E+99

> <Gold.Chemscore.Hbonds>
donor molecule, donor type, donor heavy atom, donor atom, acceptor molecule, acceptor atom, score
      L1  H     3    43       P1 10186  0.28
      L1  H     7    28       P1  7948  0.91
      L1  H    10    29       P1  7948  0.57
      P1  H  7989  7998       L1    15  0.84

> <Gold.Chemscore.Hbond.Weighted>
-9.8215

> <Gold.Chemscore.Metal.Weighted>
-0.0000

> <Gold.Chemscore.Lipo.Weighted>
-10.2574

> <Gold.Chemscore.Internal_Hbond.Weighted>
0.0000

> <Gold.Chemscore.DEClash.Weighted>
2.4169

> <Gold.Chemscore.DEInternal.Weighted>
1.3479

> <Gold.Chemscore.Rot.Weighted>
2.5600

> <Gold.Chemscore.Internal.Correction.Weighted>
   9.000000E+99

> <Gold.Protein.RotatedTorsions>
[ 6907 6896 6895 6894 ] final -114.44 input  -60.11 | X-H torsion
[ 7974 7965 7964 7962 ] final   76.01 input  175.53 | X-H torsion
[ 8008 7997 7996 7995 ] final  132.60 input   59.86 | X-H torsion
[ 10167 10162 10161 10158 ] final  -37.99 input  -65.29 | X-H torsion
[ 10718 10713 10712 10709 ] final  157.14 input   66.30 | X-H torsion
[ 10763 10752 10751 10750 ] final -164.47 input  -60.55 | X-H torsion
[ 11005 11000 10999 10996 ] final   80.98 input  -57.11 | X-H torsion

> <Gold.Protein.ActiveResidues>
 VAL166  LYS551  ARG553  GLY616  TRP617  ASP618  TYR619  PRO620  LYS621  CYS622 
 ASP623  PHE694  ASN695  SER759  ASP760  ASP761  ALA762  ILE779  LEU786  VAL792 
 PHE793  MET794  SER795  GLU796  ALA797  LYS798  CYS799  TRP800  GLU811  SER814 

> <Gold.Protein.RotatedAtoms>
  150.7902  133.8801  159.3283 H   0  0  0  0  0  0  0  0  0  0  0  0  # atno 6907 bound_to 6896
  151.6641  135.0983  160.0195 H   0  0  0  0  0  0  0  0  0  0  0  0  # atno 6908 bound_to 6896
  152.3975  133.6729  159.6323 H   0  0  0  0  0  0  0  0  0  0  0  0  # atno 6909 bound_to 6896
  145.7082  139.2606  143.1666 H   0  0  0  0  0  0  0  0  0  0  0  0  # atno 7974 bound_to 7965
  156.2984  140.2542  156.3116 H   0  0  0  0  0  0  0  0  0  0  0  0  # atno 8008 bound_to 7997
  154.9320  140.0398  157.2072 H   0  0  0  0  0  0  0  0  0  0  0  0  # atno 8009 bound_to 7997
  154.8208  140.2860  155.5792 H   0  0  0  0  0  0  0  0  0  0  0  0  # atno 8010 bound_to 7997
  140.7104  143.3306  151.2578 H   0  0  0  0  0  0  0  0  0  0  0  0  # atno 10167 bound_to 10162
  157.1955  131.0664  151.2055 H   0  0  0  0  0  0  0  0  0  0  0  0  # atno 10718 bound_to 10713
  154.7025  135.2990  154.9320 H   0  0  0  0  0  0  0  0  0  0  0  0  # atno 10763 bound_to 10752
  154.0248  135.6678  153.4779 H   0  0  0  0  0  0  0  0  0  0  0  0  # atno 10764 bound_to 10752
  153.0692  135.5071  154.8177 H   0  0  0  0  0  0  0  0  0  0  0  0  # atno 10765 bound_to 10752
  139.9114  134.7962  156.1981 H   0  0  0  0  0  0  0  0  0  0  0  0  # atno 11005 bound_to 11000
  146.0736  140.7842  142.9676 LP  0  0  0  0  0  0  0  0  0  0  0  0  # atno 17320 bound_to 7965
  144.6949  140.3380  143.7204 LP  0  0  0  0  0  0  0  0  0  0  0  0  # atno 17321 bound_to 7965
  139.6787  143.9893  152.2796 LP  0  0  0  0  0  0  0  0  0  0  0  0  # atno 17342 bound_to 10162
  139.9515  144.6617  150.8167 LP  0  0  0  0  0  0  0  0  0  0  0  0  # atno 17343 bound_to 10162
  157.3818  130.7235  149.6635 LP  0  0  0  0  0  0  0  0  0  0  0  0  # atno 17370 bound_to 10713
  155.9706  130.4170  150.4259 LP  0  0  0  0  0  0  0  0  0  0  0  0  # atno 17371 bound_to 10713
  141.0542  133.6873  156.1829 LP  0  0  0  0  0  0  0  0  0  0  0  0  # atno 17394 bound_to 11000
  140.6763  134.4815  157.5588 LP  0  0  0  0  0  0  0  0  0  0  0  0  # atno 17395 bound_to 11000

$$$$
