AV-unprocessed.smi:2142|AV-procd|sdf|8721|dock6
  -GOLD-   2272011493D 1   1.00000     0.00000
 Structure written by MMmdl.
 39 40  0  0  0  0  0  0  0  0  2 V2000
  151.8882  144.2676  159.8200 C   0  0  0  0  0  0  0  0  0  0  0  0
  151.4783  143.0110  160.3301 O   0  0  0  0  0  0  0  0  0  0  0  0
  152.4009  141.9765  160.0312 C   0  0  0  0  0  0  0  0  0  0  0  0
  152.3811  141.7001  158.5248 C   0  0  0  0  0  0  0  0  0  0  0  0
  152.8930  140.3918  158.2882 O   0  0  0  0  0  0  0  0  0  0  0  0
  152.0557  139.3123  158.4844 C   0  0  0  0  0  0  0  0  0  0  0  0
  150.6728  139.4878  158.2879 C   0  0  0  0  0  0  0  0  0  0  0  0
  149.8164  138.3901  158.4956 C   0  0  0  0  0  0  0  0  0  0  0  0
  150.3535  137.1470  158.8963 C   0  0  0  0  0  0  0  0  0  0  0  0
  149.5701  136.0772  159.1058 N   0  5  0  0  0  0  0  0  0  0  0  0
  148.4860  136.1668  159.9228 C   0  0  0  0  0  0  0  0  0  0  0  0
  147.9779  137.2300  160.2876 O   0  0  0  0  0  0  0  0  0  0  0  0
  147.8456  134.9232  160.4391 C   0  0  0  0  0  0  0  0  0  0  0  0
  147.8269  133.8580  159.7003 N   0  0  0  0  0  0  0  0  0  0  0  0
  147.2692  132.6723  160.1321 N   0  0  0  0  0  0  0  0  0  0  0  0
  147.5746  131.5121  159.2978 C   0  0  0  0  0  0  0  0  0  0  0  0
  146.4707  132.5478  161.2208 C   0  0  0  0  0  0  0  0  0  0  0  0
  145.9943  131.4784  161.6017 O   0  0  0  0  0  0  0  0  0  0  0  0
  146.1404  133.8379  161.9755 C   0  0  0  0  0  0  0  0  0  0  0  0
  147.2526  134.8959  161.8368 C   0  0  0  0  0  0  0  0  0  0  0  0
  151.7566  137.0826  159.0554 C   0  0  0  0  0  0  0  0  0  0  0  0
  152.5911  138.1259  158.8604 N   0  0  0  0  0  0  0  0  0  0  0  0
  151.1510  145.0270  160.0806 H   0  0  0  0  0  0  0  0  0  0  0  0
  151.9762  144.2425  158.7330 H   0  0  0  0  0  0  0  0  0  0  0  0
  152.8473  144.5707  160.2421 H   0  0  0  0  0  0  0  0  0  0  0  0
  153.4018  142.2935  160.3274 H   0  0  0  0  0  0  0  0  0  0  0  0
  152.1662  141.0686  160.5892 H   0  0  0  0  0  0  0  0  0  0  0  0
  151.3681  141.8077  158.1337 H   0  0  0  0  0  0  0  0  0  0  0  0
  153.0148  142.4324  158.0220 H   0  0  0  0  0  0  0  0  0  0  0  0
  150.2751  140.4454  157.9867 H   0  0  0  0  0  0  0  0  0  0  0  0
  148.7517  138.5052  158.3523 H   0  0  0  0  0  0  0  0  0  0  0  0
  146.6596  131.0789  158.8915 H   0  0  0  0  0  0  0  0  0  0  0  0
  148.0876  130.7454  159.8800 H   0  0  0  0  0  0  0  0  0  0  0  0
  148.2189  131.7718  158.4562 H   0  0  0  0  0  0  0  0  0  0  0  0
  145.2097  134.2287  161.5625 H   0  0  0  0  0  0  0  0  0  0  0  0
  145.9515  133.6210  163.0273 H   0  0  0  0  0  0  0  0  0  0  0  0
  148.0456  134.7003  162.5593 H   0  0  0  0  0  0  0  0  0  0  0  0
  146.8305  135.8669  162.0981 H   0  0  0  0  0  0  0  0  0  0  0  0
  152.2290  136.1585  159.3557 H   0  0  0  0  0  0  0  0  0  0  0  0
  1  2  1  0  0  0  0
  1 23  1  0  0  0  0
  1 24  1  0  0  0  0
  1 25  1  0  0  0  0
  2  3  1  0  0  0  0
  3  4  1  0  0  0  0
  3 26  1  0  0  0  0
  3 27  1  0  0  0  0
  4  5  1  0  0  0  0
  4 28  1  0  0  0  0
  4 29  1  0  0  0  0
  5  6  1  0  0  0  0
  6 22  1  0  0  0  0
  6  7  2  0  0  0  0
  7  8  1  0  0  0  0
  7 30  1  0  0  0  0
  8  9  2  0  0  0  0
  8 31  1  0  0  0  0
  9 10  1  0  0  0  0
  9 21  1  0  0  0  0
 10 11  1  0  0  0  0
 11 12  2  0  0  0  0
 11 13  1  0  0  0  0
 13 20  1  0  0  0  0
 13 14  2  0  0  0  0
 14 15  1  0  0  0  0
 15 16  1  0  0  0  0
 15 17  1  0  0  0  0
 16 32  1  0  0  0  0
 16 33  1  0  0  0  0
 16 34  1  0  0  0  0
 17 18  2  0  0  0  0
 17 19  1  0  0  0  0
 19 20  1  0  0  0  0
 19 35  1  0  0  0  0
 19 36  1  0  0  0  0
 20 37  1  0  0  0  0
 20 38  1  0  0  0  0
 21 22  2  0  0  0  0
 21 39  1  0  0  0  0
M  CHG  1  10  -1
M  END
> <s_m_source_file>
AV-unprocessed.smi

> <i_m_source_file_index>
2142

> <i_lp_mmshare_version>
43012

> <i_f3d_flags>
0

> <s_epik_input>
W0NIM11PW0NIMl1bQ0gyXU9jMVtjSF1bY0hdYyhbY0hdbjEpW05IXUMoPU8pQzI9Tk4oW0NIM10pQyg9TylbQ0gyXVtDSDJdMg==

> <s_epik_cmdline>
J2VwaWtfcHl0aG9uJywgJy1waCcsICc3LjAnLCAnLXRuJywgJzgnLCAnLW1hJywgJzIwMCcsICctbWV0YWxfYmluZGluZycsICctaW1hZScsICc8aW5maWxlLm1hZT4nLCAnLW9tYWUnLCAnPG91dGZpbGUubWFlPic=

> <r_lp_tautomer_probability>
1

> <r_epik_Ionization_Penalty>
5.98992

> <r_epik_Ionization_Penalty_Charging>
5.98968

> <r_epik_Ionization_Penalty_Neutral>
0.000245408

> <r_epik_State_Penalty>
5.98965

> <r_epik_Charging_Adjusted_Penalty>
11.9793

> <i_epik_Tot_Q>
-1

> <i_epik_Tot_abs_Q>
1

> <r_epik_Metal_State_Penalty>
1.94325

> <b_epik_Metal_Only>
1

> <s_epik_Chemistry_Notes>
This compound has an imine and may undergo hydrolysis.

> <s_lp_Force_Field>
OPLS_2005

> <r_lp_Energy>
19.7207

> <b_lp_Chiralities_Consistent>
1

> <s_lp_Variant>
AV-unprocessed.smi:2142-2

> <Gold.Version>
5.8.1

> <Gold.Id.Protein>
6NUR|6NUR_protein|mol2

> <Gold.PLP.Fitness>
42.9305

> <Gold.PLP.PLP>
-33.6020

> <Gold.PLP.part.hbond>
-4.1346

> <Gold.PLP.part.metal>
0.0000

> <Gold.PLP.part.buried>
-1.8840

> <Gold.PLP.part.nonpolar>
-27.4433

> <Gold.PLP.part.repulsive>
0.1162

> <Gold.PLP.ligand.clash>
0.0000

> <Gold.PLP.ligand.torsion>
1.5825

> <Gold.PLP.Chemscore.Hbond>
3.8880

> <Gold.PLP.Chemscore.CHOScore>
0.0000

> <Gold.PLP.Chemscore.Metal>
0.0000

> <Gold.Chemscore.Hbonds>
donor molecule, donor type, donor heavy atom, donor atom, acceptor molecule, acceptor atom, score
      P1  H  6896  6909       L1    10  2.00
      P1  H  6931  6943       L1    12  0.43
      P1  H  6934  6947       L1    12  0.71
      P1  H  7997  8008       L1     5  0.53

> <Gold.PLP.Chemscore.Internal.Correction>
0.8295

> <Gold.Rescore>
     Score         DG    S(hbond)    S(metal)    S(lipo)     H(rot)  DE(clash)    DE(int)     intcor
     14.97     -18.79       2.62        0.00      76.45       1.71       0.97       2.85       ----

> <Gold.Chemscore.Fitness>
14.9670

> <Gold.Chemscore.DG>
-18.7884

> <Gold.Chemscore.ZeroCoef>
-5.4800

> <Gold.Chemscore.Hbond>
2.6162

> <Gold.Chemscore.Metal>
0.0000

> <Gold.Chemscore.Lipo>
76.4478

> <Gold.Chemscore.Internal_Hbond>
0.0000

> <Gold.Chemscore.DEClash>
0.9712

> <Gold.Chemscore.DEInternal>
2.8502

> <Gold.Chemscore.Rot>
1.7087

> <Gold.Chemscore.Internal.Correction>
   9.000000E+99

> <Gold.Chemscore.Hbonds>
donor molecule, donor type, donor heavy atom, donor atom, acceptor molecule, acceptor atom, score
      P1  H  6896  6909       L1    10  0.45
      P1  H  6931  6943       L1    12  0.40
      P1  H  6934  6947       L1    12  0.68
      P1  H  7997  8008       L1     5  0.50

> <Gold.Chemscore.Hbond.Weighted>
-8.7382

> <Gold.Chemscore.Metal.Weighted>
-0.0000

> <Gold.Chemscore.Lipo.Weighted>
-8.9444

> <Gold.Chemscore.Internal_Hbond.Weighted>
0.0000

> <Gold.Chemscore.DEClash.Weighted>
0.9712

> <Gold.Chemscore.DEInternal.Weighted>
2.8502

> <Gold.Chemscore.Rot.Weighted>
4.3742

> <Gold.Chemscore.Internal.Correction.Weighted>
   9.000000E+99

> <Gold.Protein.RotatedTorsions>
[ 6907 6896 6895 6894 ] final   55.78 input  -60.11 | X-H torsion
[ 7974 7965 7964 7962 ] final   19.94 input  175.53 | X-H torsion
[ 8008 7997 7996 7995 ] final  -94.01 input   59.86 | X-H torsion
[ 10167 10162 10161 10158 ] final   47.97 input  -65.29 | X-H torsion
[ 10718 10713 10712 10709 ] final   -1.05 input   66.30 | X-H torsion
[ 10763 10752 10751 10750 ] final -149.37 input  -60.55 | X-H torsion
[ 11005 11000 10999 10996 ] final  121.05 input  -57.11 | X-H torsion

> <Gold.Protein.ActiveResidues>
 VAL166  LYS551  ARG553  GLY616  TRP617  ASP618  TYR619  PRO620  LYS621  CYS622 
 ASP623  PHE694  ASN695  SER759  ASP760  ASP761  ALA762  ILE779  LEU786  VAL792 
 PHE793  MET794  SER795  GLU796  ALA797  LYS798  CYS799  TRP800  GLU811  SER814 

> <Gold.Protein.RotatedAtoms>
  152.3572  134.6923  160.0218 H   0  0  0  0  0  0  0  0  0  0  0  0  # atno 6907 bound_to 6896
  151.7258  133.3310  159.3335 H   0  0  0  0  0  0  0  0  0  0  0  0  # atno 6908 bound_to 6896
  150.7580  134.6342  159.6247 H   0  0  0  0  0  0  0  0  0  0  0  0  # atno 6909 bound_to 6896
  146.2130  139.8240  142.8674 H   0  0  0  0  0  0  0  0  0  0  0  0  # atno 7974 bound_to 7965
  154.7429  140.0493  157.0827 H   0  0  0  0  0  0  0  0  0  0  0  0  # atno 8008 bound_to 7997
  155.0155  140.3141  155.4794 H   0  0  0  0  0  0  0  0  0  0  0  0  # atno 8009 bound_to 7997
  156.2868  140.2176  156.5271 H   0  0  0  0  0  0  0  0  0  0  0  0  # atno 8010 bound_to 7997
  140.2981  144.2967  150.6225 H   0  0  0  0  0  0  0  0  0  0  0  0  # atno 10167 bound_to 10162
  156.8114  130.5426  149.5708 H   0  0  0  0  0  0  0  0  0  0  0  0  # atno 10718 bound_to 10713
  154.8181  135.3311  154.7117 H   0  0  0  0  0  0  0  0  0  0  0  0  # atno 10763 bound_to 10752
  153.7755  135.6922  153.4903 H   0  0  0  0  0  0  0  0  0  0  0  0  # atno 10764 bound_to 10752
  153.2016  135.4514  155.0221 H   0  0  0  0  0  0  0  0  0  0  0  0  # atno 10765 bound_to 10752
  139.9210  134.9637  156.7899 H   0  0  0  0  0  0  0  0  0  0  0  0  # atno 11005 bound_to 11000
  145.3066  141.0209  143.3578 LP  0  0  0  0  0  0  0  0  0  0  0  0  # atno 17320 bound_to 7965
  144.8966  139.4704  143.6652 LP  0  0  0  0  0  0  0  0  0  0  0  0  # atno 17321 bound_to 7965
  140.5675  143.2184  151.7658 LP  0  0  0  0  0  0  0  0  0  0  0  0  # atno 17342 bound_to 10162
  139.4921  144.4264  151.9921 LP  0  0  0  0  0  0  0  0  0  0  0  0  # atno 17343 bound_to 10162
  156.1042  130.5992  150.9944 LP  0  0  0  0  0  0  0  0  0  0  0  0  # atno 17370 bound_to 10713
  157.6504  131.0898  150.8064 LP  0  0  0  0  0  0  0  0  0  0  0  0  # atno 17371 bound_to 10713
  140.6475  133.9761  155.7738 LP  0  0  0  0  0  0  0  0  0  0  0  0  # atno 17394 bound_to 11000
  141.0730  134.0177  157.3499 LP  0  0  0  0  0  0  0  0  0  0  0  0  # atno 17395 bound_to 11000

$$$$
