AV-unprocessed.smi:2442|AV-procd|sdf|9629|dock9
  -GOLD-   2272013263D 1   1.00000     0.00000
 Structure written by MMmdl.
 47 48  0  0  0  0  0  0  0  0  2 V2000
  148.1316  141.1649  154.3516 C   0  0  0  0  0  0  0  0  0  0  0  0
  148.7542  139.8895  154.3423 O   0  0  0  0  0  0  0  0  0  0  0  0
  149.0117  139.3473  155.6352 C   0  0  2  0  0  0  0  0  0  0  0  0
  149.7175  140.3821  156.5386 C   0  0  0  0  0  0  0  0  0  0  0  0
  151.1205  140.7340  156.0168 C   0  0  0  0  0  0  0  0  0  0  0  0
  151.9848  139.4748  155.8498 C   0  0  0  0  0  0  0  0  0  0  0  0
  151.2955  138.4407  154.9461 C   0  0  0  0  0  0  0  0  0  0  0  0
  149.8889  138.0867  155.4741 C   0  0  2  0  0  0  0  0  0  0  0  0
  149.2242  137.1219  154.6018 N   0  0  0  0  0  0  0  0  0  0  0  0
  148.4259  136.1283  155.0152 C   0  0  0  0  0  0  0  0  0  0  0  0
  148.1621  135.8994  156.1958 O   0  0  0  0  0  0  0  0  0  0  0  0
  147.9473  135.4126  153.9891 N   0  0  0  0  0  0  0  0  0  0  0  0
  147.0537  134.2710  154.1317 C   0  0  0  0  0  0  0  0  0  0  0  0
  147.0940  133.3866  152.8781 C   0  0  0  0  0  0  0  0  0  0  0  0
  145.8636  133.5787  152.0042 C   0  0  0  0  0  0  0  0  0  0  0  0
  145.4542  134.8913  151.6770 C   0  0  0  0  0  0  0  0  0  0  0  0
  144.3121  135.0843  150.8749 C   0  0  0  0  0  0  0  0  0  0  0  0
  143.6198  134.0161  150.4264 N   0  3  0  0  0  0  0  0  0  0  0  0
  143.9715  132.7444  150.7134 C   0  0  0  0  0  0  0  0  0  0  0  0
  145.1052  132.4829  151.5144 C   0  0  0  0  0  0  0  0  0  0  0  0
  145.4779  131.0446  151.8275 C   0  0  0  0  0  0  0  0  0  0  0  0
  147.9407  141.4815  153.3264 H   0  0  0  0  0  0  0  0  0  0  0  0
  148.7602  141.9226  154.8180 H   0  0  0  0  0  0  0  0  0  0  0  0
  147.1745  141.1336  154.8734 H   0  0  0  0  0  0  0  0  0  0  0  0
  148.0682  139.0493  156.0964 H   0  0  0  0  0  0  0  0  0  0  0  0
  149.1195  141.2869  156.6408 H   0  0  0  0  0  0  0  0  0  0  0  0
  149.8066  139.9722  157.5454 H   0  0  0  0  0  0  0  0  0  0  0  0
  151.0376  141.2510  155.0599 H   0  0  0  0  0  0  0  0  0  0  0  0
  151.6074  141.4290  156.7013 H   0  0  0  0  0  0  0  0  0  0  0  0
  152.9570  139.7426  155.4349 H   0  0  0  0  0  0  0  0  0  0  0  0
  152.1778  139.0325  156.8281 H   0  0  0  0  0  0  0  0  0  0  0  0
  151.2247  138.8336  153.9308 H   0  0  0  0  0  0  0  0  0  0  0  0
  151.9137  137.5443  154.8862 H   0  0  0  0  0  0  0  0  0  0  0  0
  149.9991  137.6356  156.4624 H   0  0  0  0  0  0  0  0  0  0  0  0
  149.3860  137.2256  153.6107 H   0  0  0  0  0  0  0  0  0  0  0  0
  148.2220  135.6720  153.0529 H   0  0  0  0  0  0  0  0  0  0  0  0
  147.3504  133.6990  155.0118 H   0  0  0  0  0  0  0  0  0  0  0  0
  146.0326  134.6172  154.3028 H   0  0  0  0  0  0  0  0  0  0  0  0
  147.9798  133.6283  152.2887 H   0  0  0  0  0  0  0  0  0  0  0  0
  147.2026  132.3382  153.1559 H   0  0  0  0  0  0  0  0  0  0  0  0
  146.0083  135.7448  152.0405 H   0  0  0  0  0  0  0  0  0  0  0  0
  143.9341  136.0532  150.5823 H   0  0  0  0  0  0  0  0  0  0  0  0
  143.3351  131.9779  150.2951 H   0  0  0  0  0  0  0  0  0  0  0  0
  144.7103  130.3534  151.4779 H   0  0  0  0  0  0  0  0  0  0  0  0
  145.5927  130.8989  152.9017 H   0  0  0  0  0  0  0  0  0  0  0  0
  146.4155  130.7794  151.3383 H   0  0  0  0  0  0  0  0  0  0  0  0
  142.7954  134.1760  149.8468 H   0  0  0  0  0  0  0  0  0  0  0  0
  1  2  1  0  0  0  0
  1 22  1  0  0  0  0
  1 23  1  0  0  0  0
  1 24  1  0  0  0  0
  2  3  1  0  0  0  0
  3  8  1  0  0  0  0
  3  4  1  0  0  0  0
  3 25  1  0  0  0  0
  4  5  1  0  0  0  0
  4 26  1  0  0  0  0
  4 27  1  0  0  0  0
  5  6  1  0  0  0  0
  5 28  1  0  0  0  0
  5 29  1  0  0  0  0
  6  7  1  0  0  0  0
  6 30  1  0  0  0  0
  6 31  1  0  0  0  0
  7  8  1  0  0  0  0
  7 32  1  0  0  0  0
  7 33  1  0  0  0  0
  8  9  1  0  0  0  0
  8 34  1  0  0  0  0
  9 10  1  0  0  0  0
  9 35  1  0  0  0  0
 10 11  2  0  0  0  0
 10 12  1  0  0  0  0
 12 13  1  0  0  0  0
 12 36  1  0  0  0  0
 13 14  1  0  0  0  0
 13 37  1  0  0  0  0
 13 38  1  0  0  0  0
 14 15  1  0  0  0  0
 14 39  1  0  0  0  0
 14 40  1  0  0  0  0
 15 20  1  0  0  0  0
 15 16  2  0  0  0  0
 16 17  1  0  0  0  0
 16 41  1  0  0  0  0
 17 18  2  0  0  0  0
 17 42  1  0  0  0  0
 18 19  1  0  0  0  0
 18 47  1  0  0  0  0
 19 20  2  0  0  0  0
 19 43  1  0  0  0  0
 20 21  1  0  0  0  0
 21 44  1  0  0  0  0
 21 45  1  0  0  0  0
 21 46  1  0  0  0  0
M  CHG  1  18   1
M  END
> <s_m_source_file>
AV-unprocessed.smi

> <i_m_source_file_index>
2442

> <i_lp_mmshare_version>
43012

> <i_f3d_flags>
0

> <s_epik_input>
W0NIM11PW0NAQEhdMVtDSDJdW0NIMl1bQ0gyXVtDSDJdW0NASF0xW05IXUMoPU8pW05IXVtDSDJdW0NIMl1jMltjSF1bY0hdbltjSF1jMltDSDNd

> <s_epik_cmdline>
J2VwaWtfcHl0aG9uJywgJy1waCcsICc3LjAnLCAnLXRuJywgJzgnLCAnLW1hJywgJzIwMCcsICctbWV0YWxfYmluZGluZycsICctaW1hZScsICc8aW5maWxlLm1hZT4nLCAnLW9tYWUnLCAnPG91dGZpbGUubWFlPic=

> <r_epik_Ionization_Penalty>
1.07145

> <r_epik_Ionization_Penalty_Charging>
1.0714

> <r_epik_Ionization_Penalty_Neutral>
4.9109e-05

> <r_epik_State_Penalty>
1.12601

> <r_epik_Charging_Adjusted_Penalty>
2.19741

> <i_epik_Tot_Q>
1

> <i_epik_Tot_abs_Q>
1

> <r_epik_Metal_State_Penalty>
1.2173

> <b_epik_Metal_Only>
0

> <s_lp_Force_Field>
OPLS_2005

> <r_lp_Energy>
16.8817

> <b_lp_Chiralities_Consistent>
1

> <s_lp_Variant>
AV-unprocessed.smi:2442-7

> <Gold.Version>
5.8.1

> <Gold.Id.Protein>
6NUR|6NUR_protein|mol2

> <Gold.PLP.Fitness>
43.4514

> <Gold.PLP.PLP>
-33.9365

> <Gold.PLP.part.hbond>
-2.9120

> <Gold.PLP.part.metal>
0.0000

> <Gold.PLP.part.buried>
-6.1196

> <Gold.PLP.part.nonpolar>
-26.3078

> <Gold.PLP.part.repulsive>
0.3214

> <Gold.PLP.ligand.clash>
0.0000

> <Gold.PLP.ligand.torsion>
0.9675

> <Gold.PLP.Chemscore.Hbond>
3.8070

> <Gold.PLP.Chemscore.CHOScore>
0.0000

> <Gold.PLP.Chemscore.Metal>
0.0000

> <Gold.Chemscore.Hbonds>
donor molecule, donor type, donor heavy atom, donor atom, acceptor molecule, acceptor atom, score
      L1  H     9    35       P1  7948  0.79
      L1  H    12    36       P1  7948  0.91
      L1  H    18    47       P1 10186  2.00

> <Gold.PLP.Chemscore.Internal.Correction>
0.0289

> <Gold.Rescore>
     Score         DG    S(hbond)    S(metal)    S(lipo)     H(rot)  DE(clash)    DE(int)     intcor
     19.36     -20.42       2.80        0.00      85.43       1.72       0.01       1.05       ----

> <Gold.Chemscore.Fitness>
19.3573

> <Gold.Chemscore.DG>
-20.4200

> <Gold.Chemscore.ZeroCoef>
-5.4800

> <Gold.Chemscore.Hbond>
2.8020

> <Gold.Chemscore.Metal>
0.0000

> <Gold.Chemscore.Lipo>
85.4340

> <Gold.Chemscore.Internal_Hbond>
0.0000

> <Gold.Chemscore.DEClash>
0.0092

> <Gold.Chemscore.DEInternal>
1.0535

> <Gold.Chemscore.Rot>
1.7244

> <Gold.Chemscore.Internal.Correction>
   9.000000E+99

> <Gold.Chemscore.Hbonds>
donor molecule, donor type, donor heavy atom, donor atom, acceptor molecule, acceptor atom, score
      L1  H     9    35       P1  7948  0.70
      L1  H    12    36       P1  7948  0.87
      L1  H    18    47       P1 10186  0.97

> <Gold.Chemscore.Hbond.Weighted>
-9.3587

> <Gold.Chemscore.Metal.Weighted>
-0.0000

> <Gold.Chemscore.Lipo.Weighted>
-9.9958

> <Gold.Chemscore.Internal_Hbond.Weighted>
0.0000

> <Gold.Chemscore.DEClash.Weighted>
0.0092

> <Gold.Chemscore.DEInternal.Weighted>
1.0535

> <Gold.Chemscore.Rot.Weighted>
4.4145

> <Gold.Chemscore.Internal.Correction.Weighted>
   9.000000E+99

> <Gold.Protein.RotatedTorsions>
[ 6907 6896 6895 6894 ] final   25.07 input  -60.11 | X-H torsion
[ 7974 7965 7964 7962 ] final  -44.81 input  175.53 | X-H torsion
[ 8008 7997 7996 7995 ] final  -33.75 input   59.86 | X-H torsion
[ 10167 10162 10161 10158 ] final -112.82 input  -65.29 | X-H torsion
[ 10718 10713 10712 10709 ] final   24.26 input   66.30 | X-H torsion
[ 10763 10752 10751 10750 ] final  -55.80 input  -60.55 | X-H torsion
[ 11005 11000 10999 10996 ] final -178.21 input  -57.11 | X-H torsion

> <Gold.Protein.ActiveResidues>
 VAL166  LYS551  ARG553  GLY616  TRP617  ASP618  TYR619  PRO620  LYS621  CYS622 
 ASP623  PHE694  ASN695  SER759  ASP760  ASP761  ALA762  ILE779  LEU786  VAL792 
 PHE793  MET794  SER795  GLU796  ALA797  LYS798  CYS799  TRP800  GLU811  SER814 

> <Gold.Protein.RotatedAtoms>
  151.9670  135.0096  160.0550 H   0  0  0  0  0  0  0  0  0  0  0  0  # atno 6907 bound_to 6896
  152.1818  133.4707  159.4970 H   0  0  0  0  0  0  0  0  0  0  0  0  # atno 6908 bound_to 6896
  150.6919  134.1741  159.4266 H   0  0  0  0  0  0  0  0  0  0  0  0  # atno 6909 bound_to 6896
  145.9883  140.7209  142.9329 H   0  0  0  0  0  0  0  0  0  0  0  0  # atno 7974 bound_to 7965
  154.4140  140.1702  156.1939 H   0  0  0  0  0  0  0  0  0  0  0  0  # atno 8008 bound_to 7997
  155.9580  140.3395  155.6442 H   0  0  0  0  0  0  0  0  0  0  0  0  # atno 8009 bound_to 7997
  155.6784  140.0720  157.2484 H   0  0  0  0  0  0  0  0  0  0  0  0  # atno 8010 bound_to 7997
  140.1185  143.4464  152.1706 H   0  0  0  0  0  0  0  0  0  0  0  0  # atno 10167 bound_to 10162
  157.1774  130.6787  149.6100 H   0  0  0  0  0  0  0  0  0  0  0  0  # atno 10718 bound_to 10713
  154.1965  135.6418  153.5075 H   0  0  0  0  0  0  0  0  0  0  0  0  # atno 10763 bound_to 10752
  153.0022  135.5441  154.6360 H   0  0  0  0  0  0  0  0  0  0  0  0  # atno 10764 bound_to 10752
  154.5762  135.2921  155.0751 H   0  0  0  0  0  0  0  0  0  0  0  0  # atno 10765 bound_to 10752
  140.4323  134.6508  157.4718 H   0  0  0  0  0  0  0  0  0  0  0  0  # atno 11005 bound_to 11000
  144.6881  140.3026  143.7261 LP  0  0  0  0  0  0  0  0  0  0  0  0  # atno 17320 bound_to 7965
  145.7668  139.1843  143.2235 LP  0  0  0  0  0  0  0  0  0  0  0  0  # atno 17321 bound_to 7965
  139.5581  144.7387  151.4235 LP  0  0  0  0  0  0  0  0  0  0  0  0  # atno 17342 bound_to 10162
  140.6885  143.7917  150.7221 LP  0  0  0  0  0  0  0  0  0  0  0  0  # atno 17343 bound_to 10162
  155.9729  130.4658  150.6267 LP  0  0  0  0  0  0  0  0  0  0  0  0  # atno 17370 bound_to 10713
  157.3985  131.0806  151.1330 LP  0  0  0  0  0  0  0  0  0  0  0  0  # atno 17371 bound_to 10713
  140.0126  134.6667  155.9358 LP  0  0  0  0  0  0  0  0  0  0  0  0  # atno 17394 bound_to 11000
  141.1740  133.6539  156.4759 LP  0  0  0  0  0  0  0  0  0  0  0  0  # atno 17395 bound_to 11000

$$$$
