AV-unprocessed.smi:2566|AV-procd|sdf|10075|dock2
  -GOLD-   2272014103D 1   1.00000     0.00000
 Structure written by MMmdl.
 20 21  0  0  0  0  0  0  0  0  1 V2000
  152.4921  138.4393  154.8503 C   0  0  0  0  0  0  0  0  0  0  0  0
  151.7643  139.5505  154.8098 N   0  0  0  0  0  0  0  0  0  0  0  0
  150.5082  139.0416  154.9630 C   0  0  0  0  0  0  0  0  0  0  0  0
  149.2765  139.8908  155.0302 C   0  0  1  0  0  0  0  0  0  0  0  0
  149.5920  141.3886  154.8494 C   0  0  0  0  0  0  0  0  0  0  0  0
  148.3542  142.1668  154.8275 N   0  0  0  0  0  0  0  0  0  0  0  0
  147.4375  141.6707  153.8019 C   0  0  0  0  0  0  0  0  0  0  0  0
  147.1785  140.1657  153.9969 C   0  0  0  0  0  0  0  0  0  0  0  0
  148.4148  139.4599  153.9788 O   0  0  0  0  0  0  0  0  0  0  0  0
  150.4351  137.7243  155.1231 N   0  0  0  0  0  0  0  0  0  0  0  0
  151.7719  137.3091  155.0355 O   0  0  0  0  0  0  0  0  0  0  0  0
  153.5675  138.4107  154.7547 H   0  0  0  0  0  0  0  0  0  0  0  0
  148.7863  139.7217  155.9912 H   0  0  0  0  0  0  0  0  0  0  0  0
  150.2394  141.7376  155.6543 H   0  0  0  0  0  0  0  0  0  0  0  0
  150.1392  141.5404  153.9180 H   0  0  0  0  0  0  0  0  0  0  0  0
  148.5689  143.1427  154.6486 H   0  0  0  0  0  0  0  0  0  0  0  0
  146.4976  142.2213  153.8419 H   0  0  0  0  0  0  0  0  0  0  0  0
  147.8605  141.8433  152.8116 H   0  0  0  0  0  0  0  0  0  0  0  0
  146.6496  139.9772  154.9327 H   0  0  0  0  0  0  0  0  0  0  0  0
  146.5459  139.7880  153.1937 H   0  0  0  0  0  0  0  0  0  0  0  0
  1 11  1  0  0  0  0
  1  2  2  0  0  0  0
  1 12  1  0  0  0  0
  2  3  1  0  0  0  0
  3  4  1  0  0  0  0
  3 10  2  0  0  0  0
  4  9  1  0  0  0  0
  4  5  1  0  0  0  0
  4 13  1  0  0  0  0
  5  6  1  0  0  0  0
  5 14  1  0  0  0  0
  5 15  1  0  0  0  0
  6  7  1  0  0  0  0
  6 16  1  0  0  0  0
  7  8  1  0  0  0  0
  7 17  1  0  0  0  0
  7 18  1  0  0  0  0
  8  9  1  0  0  0  0
  8 19  1  0  0  0  0
  8 20  1  0  0  0  0
 10 11  1  0  0  0  0
M  END
> <s_m_source_file>
AV-unprocessed.smi

> <i_m_source_file_index>
2566

> <i_lp_mmshare_version>
43012

> <i_f3d_flags>
0

> <s_epik_input>
bjFvW2NIXW5jMVtDQEBIXTJbQ0gyXVtOSF1bQ0gyXVtDSDJdTzI=

> <s_epik_cmdline>
J2VwaWtfcHl0aG9uJywgJy1waCcsICc3LjAnLCAnLXRuJywgJzgnLCAnLW1hJywgJzIwMCcsICctbWV0YWxfYmluZGluZycsICctaW1hZScsICc8aW5maWxlLm1hZT4nLCAnLW9tYWUnLCAnPG91dGZpbGUubWFlPic=

> <r_lp_tautomer_probability>
1

> <r_epik_Ionization_Penalty>
0.861744

> <r_epik_Ionization_Penalty_Charging>
0

> <r_epik_Ionization_Penalty_Neutral>
0.861744

> <r_epik_State_Penalty>
0.898282

> <r_epik_Charging_Adjusted_Penalty>
0.898282

> <i_epik_Tot_Q>
0

> <i_epik_Tot_abs_Q>
0

> <r_epik_Metal_State_Penalty>
0.898282

> <b_epik_Metal_Only>
0

> <s_lp_Force_Field>
OPLS_2005

> <r_lp_Energy>
10.916

> <b_lp_Chiralities_Consistent>
1

> <s_lp_Variant>
AV-unprocessed.smi:2566-4

> <Gold.Version>
5.8.1

> <Gold.Id.Protein>
6NUR|6NUR_protein|mol2

> <Gold.PLP.Fitness>
29.8115

> <Gold.PLP.PLP>
-20.9807

> <Gold.PLP.part.hbond>
-3.0000

> <Gold.PLP.part.metal>
0.0000

> <Gold.PLP.part.buried>
-6.0431

> <Gold.PLP.part.nonpolar>
-14.5817

> <Gold.PLP.part.repulsive>
2.3798

> <Gold.PLP.ligand.clash>
0.0000

> <Gold.PLP.ligand.torsion>
0.0072

> <Gold.PLP.Chemscore.Hbond>
2.9440

> <Gold.PLP.Chemscore.CHOScore>
0.0000

> <Gold.PLP.Chemscore.Metal>
0.0000

> <Gold.Chemscore.Hbonds>
donor molecule, donor type, donor heavy atom, donor atom, acceptor molecule, acceptor atom, score
      L1  H     6    16       P1  8028  0.78
      P1  H  7989  7998       L1     2  1.00
      P1  H 10752 10763       L1    11  0.72

> <Gold.PLP.Chemscore.Internal.Correction>
0.0132

> <Gold.Rescore>
     Score         DG    S(hbond)    S(metal)    S(lipo)     H(rot)  DE(clash)    DE(int)     intcor
     14.35     -14.42       2.66        0.00      22.49       1.00       0.07       0.01       ----

> <Gold.Chemscore.Fitness>
14.3473

> <Gold.Chemscore.DG>
-14.4230

> <Gold.Chemscore.ZeroCoef>
-5.4800

> <Gold.Chemscore.Hbond>
2.6561

> <Gold.Chemscore.Metal>
0.0000

> <Gold.Chemscore.Lipo>
22.4930

> <Gold.Chemscore.Internal_Hbond>
0.0000

> <Gold.Chemscore.DEClash>
0.0691

> <Gold.Chemscore.DEInternal>
0.0066

> <Gold.Chemscore.Rot>
1.0000

> <Gold.Chemscore.Internal.Correction>
   9.000000E+99

> <Gold.Chemscore.Hbonds>
donor molecule, donor type, donor heavy atom, donor atom, acceptor molecule, acceptor atom, score
      L1  H     6    16       P1  8028  0.78
      P1  H  7989  7998       L1     2  0.58
      P1  H 10752 10763       L1    11  0.44

> <Gold.Chemscore.Hbond.Weighted>
-8.8713

> <Gold.Chemscore.Metal.Weighted>
-0.0000

> <Gold.Chemscore.Lipo.Weighted>
-2.6317

> <Gold.Chemscore.Internal_Hbond.Weighted>
0.0000

> <Gold.Chemscore.DEClash.Weighted>
0.0691

> <Gold.Chemscore.DEInternal.Weighted>
0.0066

> <Gold.Chemscore.Rot.Weighted>
2.5600

> <Gold.Chemscore.Internal.Correction.Weighted>
   9.000000E+99

> <Gold.Protein.RotatedTorsions>
[ 6907 6896 6895 6894 ] final    3.36 input  -60.11 | X-H torsion
[ 7974 7965 7964 7962 ] final  117.77 input  175.53 | X-H torsion
[ 8008 7997 7996 7995 ] final -130.02 input   59.86 | X-H torsion
[ 10167 10162 10161 10158 ] final -147.46 input  -65.29 | X-H torsion
[ 10718 10713 10712 10709 ] final  -25.47 input   66.30 | X-H torsion
[ 10763 10752 10751 10750 ] final   47.02 input  -60.55 | X-H torsion
[ 11005 11000 10999 10996 ] final   75.01 input  -57.11 | X-H torsion

> <Gold.Protein.ActiveResidues>
 VAL166  LYS551  ARG553  GLY616  TRP617  ASP618  TYR619  PRO620  LYS621  CYS622 
 ASP623  PHE694  ASN695  SER759  ASP760  ASP761  ALA762  ILE779  LEU786  VAL792 
 PHE793  MET794  SER795  GLU796  ALA797  LYS798  CYS799  TRP800  GLU811  SER814 

> <Gold.Protein.RotatedAtoms>
  151.6239  135.1029  160.0107 H   0  0  0  0  0  0  0  0  0  0  0  0  # atno 6907 bound_to 6896
  152.4143  133.7009  159.6434 H   0  0  0  0  0  0  0  0  0  0  0  0  # atno 6908 bound_to 6896
  150.8032  133.8485  159.3239 H   0  0  0  0  0  0  0  0  0  0  0  0  # atno 6909 bound_to 6896
  145.1633  139.3143  143.4506 H   0  0  0  0  0  0  0  0  0  0  0  0  # atno 7974 bound_to 7965
  155.2888  140.0447  157.3021 H   0  0  0  0  0  0  0  0  0  0  0  0  # atno 8008 bound_to 7997
  154.5553  140.2330  155.8387 H   0  0  0  0  0  0  0  0  0  0  0  0  # atno 8009 bound_to 7997
  156.2002  140.3027  155.9518 H   0  0  0  0  0  0  0  0  0  0  0  0  # atno 8010 bound_to 7997
  139.7620  143.8363  152.2609 H   0  0  0  0  0  0  0  0  0  0  0  0  # atno 10167 bound_to 10162
  156.4639  130.4510  149.6911 H   0  0  0  0  0  0  0  0  0  0  0  0  # atno 10718 bound_to 10713
  152.9804  135.5989  154.3694 H   0  0  0  0  0  0  0  0  0  0  0  0  # atno 10763 bound_to 10752
  154.3369  135.2768  155.2445 H   0  0  0  0  0  0  0  0  0  0  0  0  # atno 10764 bound_to 10752
  154.4544  135.5982  153.6268 H   0  0  0  0  0  0  0  0  0  0  0  0  # atno 10765 bound_to 10752
  139.9364  134.7481  156.1218 H   0  0  0  0  0  0  0  0  0  0  0  0  # atno 11005 bound_to 11000
  146.3479  140.1751  142.8589 LP  0  0  0  0  0  0  0  0  0  0  0  0  # atno 17320 bound_to 7965
  145.0308  140.8869  143.5110 LP  0  0  0  0  0  0  0  0  0  0  0  0  # atno 17321 bound_to 7965
  139.8372  144.7227  150.9376 LP  0  0  0  0  0  0  0  0  0  0  0  0  # atno 17342 bound_to 10162
  140.7808  143.4016  151.1140 LP  0  0  0  0  0  0  0  0  0  0  0  0  # atno 17343 bound_to 10162
  156.3688  130.7520  151.2500 LP  0  0  0  0  0  0  0  0  0  0  0  0  # atno 17370 bound_to 10713
  157.7496  131.0329  150.4247 LP  0  0  0  0  0  0  0  0  0  0  0  0  # atno 17371 bound_to 10713
  141.0979  133.6688  156.2688 LP  0  0  0  0  0  0  0  0  0  0  0  0  # atno 17394 bound_to 11000
  140.6065  134.5502  157.5526 LP  0  0  0  0  0  0  0  0  0  0  0  0  # atno 17395 bound_to 11000

$$$$
