AV-unprocessed.smi:1760|AV-procd|sdf|7093|dock5
  -GOLD-   22720 8313D 1   1.00000     0.00000
 Structure written by MMmdl.
 43 45  0  0  0  0  0  0  0  0  3 V2000
  145.6245  128.5066  152.4391 O   0  0  0  0  0  0  0  0  0  0  0  0
  146.5161  129.0813  151.8150 C   0  0  0  0  0  0  0  0  0  0  0  0
  147.6395  128.5150  151.3379 N   0  0  0  0  0  0  0  0  0  0  0  0
  148.0664  127.1772  151.4038 C   0  0  0  0  0  0  0  0  0  0  0  0
  148.6615  126.4969  150.3847 C   0  0  0  0  0  0  0  0  0  0  0  0
  149.0871  125.1090  150.5192 C   0  0  0  0  0  0  0  0  0  0  0  0
  149.7334  124.2998  149.4097 C   0  0  0  0  0  0  0  0  0  0  0  0
  149.9843  123.0605  149.8300 F   0  0  0  0  0  0  0  0  0  0  0  0
  148.9156  124.2208  148.3605 F   0  0  0  0  0  0  0  0  0  0  0  0
  150.8802  124.8489  149.0091 F   0  0  0  0  0  0  0  0  0  0  0  0
  148.8297  124.5991  151.7759 C   0  0  0  0  0  0  0  0  0  0  0  0
  148.2602  125.2060  152.8401 N   0  5  0  0  0  0  0  0  0  0  0  0
  147.8588  126.5013  152.7019 C   0  0  0  0  0  0  0  0  0  0  0  0
  147.3312  127.1144  153.6308 O   0  0  0  0  0  0  0  0  0  0  0  0
  146.4943  130.3940  151.5398 N   0  0  0  0  0  0  0  0  0  0  0  0
  145.4494  131.3348  151.9358 C   0  0  2  0  0  0  0  0  0  0  0  0
  144.5631  131.6807  150.7277 C   0  0  0  0  0  0  0  0  0  0  0  0
  143.5215  132.7558  151.0924 C   0  0  0  0  0  0  0  0  0  0  0  0
  144.1513  133.9763  151.6594 N   0  3  2  0  0  0  0  0  0  0  0  0
  144.8268  134.8154  150.6419 C   0  0  0  0  0  0  0  0  0  0  0  0
  145.7752  135.8343  151.2297 C   0  0  0  0  0  0  0  0  0  0  0  0
  144.4293  136.2722  150.6968 C   0  0  0  0  0  0  0  0  0  0  0  0
  145.0097  133.6688  152.8324 C   0  0  0  0  0  0  0  0  0  0  0  0
  146.0840  132.6149  152.5038 C   0  0  0  0  0  0  0  0  0  0  0  0
  148.3043  129.1364  150.9006 H   0  0  0  0  0  0  0  0  0  0  0  0
  148.8522  126.9751  149.4387 H   0  0  0  0  0  0  0  0  0  0  0  0
  149.1253  123.5422  151.9491 H   0  0  0  0  0  0  0  0  0  0  0  0
  147.2742  130.7747  151.0239 H   0  0  0  0  0  0  0  0  0  0  0  0
  144.8156  130.8989  152.7103 H   0  0  0  0  0  0  0  0  0  0  0  0
  145.1801  132.0297  149.8987 H   0  0  0  0  0  0  0  0  0  0  0  0
  144.0544  130.7839  150.3719 H   0  0  0  0  0  0  0  0  0  0  0  0
  142.9215  133.0166  150.2199 H   0  0  0  0  0  0  0  0  0  0  0  0
  142.8283  132.3529  151.8320 H   0  0  0  0  0  0  0  0  0  0  0  0
  145.0522  134.3452  149.6868 H   0  0  0  0  0  0  0  0  0  0  0  0
  145.9158  135.8470  152.3091 H   0  0  0  0  0  0  0  0  0  0  0  0
  146.6531  136.0990  150.6438 H   0  0  0  0  0  0  0  0  0  0  0  0
  144.4209  136.8258  149.7602 H   0  0  0  0  0  0  0  0  0  0  0  0
  143.6768  136.5754  151.4226 H   0  0  0  0  0  0  0  0  0  0  0  0
  145.4737  134.5824  153.2055 H   0  0  0  0  0  0  0  0  0  0  0  0
  144.3723  133.2983  153.6363 H   0  0  0  0  0  0  0  0  0  0  0  0
  146.6531  132.3794  153.4040 H   0  0  0  0  0  0  0  0  0  0  0  0
  146.7995  133.0263  151.7906 H   0  0  0  0  0  0  0  0  0  0  0  0
  143.3933  134.5449  152.0096 H   0  0  0  0  0  0  0  0  0  0  0  0
  1  2  2  0  0  0  0
  2  3  1  0  0  0  0
  2 15  1  0  0  0  0
  3  4  1  0  0  0  0
  3 25  1  0  0  0  0
  4 13  1  0  0  0  0
  4  5  2  0  0  0  0
  5  6  1  0  0  0  0
  5 26  1  0  0  0  0
  6  7  1  0  0  0  0
  6 11  2  0  0  0  0
  7  8  1  0  0  0  0
  7  9  1  0  0  0  0
  7 10  1  0  0  0  0
 11 12  1  0  0  0  0
 11 27  1  0  0  0  0
 12 13  1  0  0  0  0
 13 14  2  0  0  0  0
 15 16  1  0  0  0  0
 15 28  1  0  0  0  0
 16 24  1  0  0  0  0
 16 17  1  0  0  0  0
 16 29  1  0  0  0  0
 17 18  1  0  0  0  0
 17 30  1  0  0  0  0
 17 31  1  0  0  0  0
 18 19  1  0  0  0  0
 18 32  1  0  0  0  0
 18 33  1  0  0  0  0
 19 20  1  0  0  0  0
 19 23  1  0  0  0  0
 19 43  1  0  0  0  0
 20 22  1  0  0  0  0
 20 21  1  0  0  0  0
 20 34  1  0  0  0  0
 21 22  1  0  0  0  0
 21 35  1  0  0  0  0
 21 36  1  0  0  0  0
 22 37  1  0  0  0  0
 22 38  1  0  0  0  0
 23 24  1  0  0  0  0
 23 39  1  0  0  0  0
 23 40  1  0  0  0  0
 24 41  1  0  0  0  0
 24 42  1  0  0  0  0
M  CHG  1  12  -1
M  CHG  1  19   1
M  END
> <s_m_source_file>
AV-unprocessed.smi

> <i_m_source_file_index>
1760

> <i_lp_mmshare_version>
43012

> <i_f3d_flags>
0

> <s_epik_input>
W0NIMl0xW0NIMl1bQ0hdMU4oW0NIMl1bQ0gyXTIpW0NIMl1bQ0gyXVtDSF0yW05IXUMoPU8pW05IXWMzW2NIXWMoQyhGKShGKUYpW2NIXVtuSF1jMz1P

> <s_epik_cmdline>
J2VwaWtfcHl0aG9uJywgJy1waCcsICc3LjAnLCAnLXRuJywgJzgnLCAnLW1hJywgJzIwMCcsICctbWV0YWxfYmluZGluZycsICctaW1hZScsICc8aW5maWxlLm1hZT4nLCAnLW9tYWUnLCAnPG91dGZpbGUubWFlPic=

> <r_lp_tautomer_probability>
0.999

> <r_epik_Ionization_Penalty>
3.16043

> <r_epik_Ionization_Penalty_Charging>
0.268029

> <r_epik_Ionization_Penalty_Neutral>
2.8924

> <r_epik_State_Penalty>
3.0039

> <r_epik_Charging_Adjusted_Penalty>
3.27193

> <i_epik_Tot_Q>
0

> <i_epik_Tot_abs_Q>
2

> <r_epik_Metal_State_Penalty>
0.560618

> <b_epik_Metal_Only>
1

> <s_lp_Force_Field>
OPLS_2005

> <r_lp_Energy>
41.7611

> <b_lp_Chiralities_Consistent>
1

> <s_lp_Variant>
AV-unprocessed.smi:1760-5

> <Gold.Version>
5.8.1

> <Gold.Id.Protein>
6NUR|6NUR_protein|mol2

> <Gold.PLP.Fitness>
44.4421

> <Gold.PLP.PLP>
-41.1347

> <Gold.PLP.part.hbond>
-2.0000

> <Gold.PLP.part.metal>
0.0000

> <Gold.PLP.part.buried>
-4.2194

> <Gold.PLP.part.nonpolar>
-35.9501

> <Gold.PLP.part.repulsive>
0.2665

> <Gold.PLP.ligand.clash>
0.5003

> <Gold.PLP.ligand.torsion>
1.3632

> <Gold.PLP.Chemscore.Hbond>
1.7500

> <Gold.PLP.Chemscore.CHOScore>
0.0000

> <Gold.PLP.Chemscore.Metal>
0.0000

> <Gold.Chemscore.Hbonds>
donor molecule, donor type, donor heavy atom, donor atom, acceptor molecule, acceptor atom, score
      L1  H     3    25       P1 10747  0.75
      L1  H    15    28       P1 10747  1.00

> <Gold.PLP.Chemscore.Internal.Correction>
1.2841

> <Gold.Rescore>
     Score         DG    S(hbond)    S(metal)    S(lipo)     H(rot)  DE(clash)    DE(int)     intcor
     12.97     -16.31       1.08        0.00      89.60       1.28       1.56       1.78       ----

> <Gold.Chemscore.Fitness>
12.9733

> <Gold.Chemscore.DG>
-16.3132

> <Gold.Chemscore.ZeroCoef>
-5.4800

> <Gold.Chemscore.Hbond>
1.0849

> <Gold.Chemscore.Metal>
0.0000

> <Gold.Chemscore.Lipo>
89.5999

> <Gold.Chemscore.Internal_Hbond>
0.0000

> <Gold.Chemscore.DEClash>
1.5634

> <Gold.Chemscore.DEInternal>
1.7765

> <Gold.Chemscore.Rot>
1.2787

> <Gold.Chemscore.Internal.Correction>
   9.000000E+99

> <Gold.Chemscore.Hbonds>
donor molecule, donor type, donor heavy atom, donor atom, acceptor molecule, acceptor atom, score
      L1  H     3    25       P1 10747  0.09
      L1  H    15    28       P1 10747  0.99

> <Gold.Chemscore.Hbond.Weighted>
-3.6235

> <Gold.Chemscore.Metal.Weighted>
-0.0000

> <Gold.Chemscore.Lipo.Weighted>
-10.4832

> <Gold.Chemscore.Internal_Hbond.Weighted>
0.0000

> <Gold.Chemscore.DEClash.Weighted>
1.5634

> <Gold.Chemscore.DEInternal.Weighted>
1.7765

> <Gold.Chemscore.Rot.Weighted>
3.2735

> <Gold.Chemscore.Internal.Correction.Weighted>
   9.000000E+99

> <Gold.Protein.RotatedTorsions>
[ 6907 6896 6895 6894 ] final -155.93 input  -60.11 | X-H torsion
[ 7974 7965 7964 7962 ] final  -98.71 input  175.53 | X-H torsion
[ 8008 7997 7996 7995 ] final  -69.50 input   59.86 | X-H torsion
[ 10167 10162 10161 10158 ] final -126.60 input  -65.29 | X-H torsion
[ 10718 10713 10712 10709 ] final   52.23 input   66.30 | X-H torsion
[ 10763 10752 10751 10750 ] final  126.25 input  -60.55 | X-H torsion
[ 11005 11000 10999 10996 ] final   72.09 input  -57.11 | X-H torsion

> <Gold.Protein.ActiveResidues>
 VAL166  LYS551  ARG553  GLY616  TRP617  ASP618  TYR619  PRO620  LYS621  CYS622 
 ASP623  PHE694  ASN695  SER759  ASP760  ASP761  ALA762  ILE779  LEU786  VAL792 
 PHE793  MET794  SER795  GLU796  ALA797  LYS798  CYS799  TRP800  GLU811  SER814 

> <Gold.Protein.RotatedAtoms>
  151.2800  133.4214  159.2626 H   0  0  0  0  0  0  0  0  0  0  0  0  # atno 6907 bound_to 6896
  151.0369  134.9580  159.8151 H   0  0  0  0  0  0  0  0  0  0  0  0  # atno 6908 bound_to 6896
  152.5357  134.2759  159.9041 H   0  0  0  0  0  0  0  0  0  0  0  0  # atno 6909 bound_to 6896
  145.3171  140.9413  143.2737 H   0  0  0  0  0  0  0  0  0  0  0  0  # atno 7974 bound_to 7965
  154.4943  140.0852  156.7663 H   0  0  0  0  0  0  0  0  0  0  0  0  # atno 8008 bound_to 7997
  155.4154  140.3443  155.4249 H   0  0  0  0  0  0  0  0  0  0  0  0  # atno 8009 bound_to 7997
  156.1373  140.1519  156.8963 H   0  0  0  0  0  0  0  0  0  0  0  0  # atno 8010 bound_to 7997
  139.9697  143.5859  152.2417 H   0  0  0  0  0  0  0  0  0  0  0  0  # atno 10167 bound_to 10162
  157.5055  130.8466  149.8369 H   0  0  0  0  0  0  0  0  0  0  0  0  # atno 10718 bound_to 10713
  153.6904  135.3300  155.3200 H   0  0  0  0  0  0  0  0  0  0  0  0  # atno 10763 bound_to 10752
  154.8441  135.4430  154.1514 H   0  0  0  0  0  0  0  0  0  0  0  0  # atno 10764 bound_to 10752
  153.2554  135.6986  153.7712 H   0  0  0  0  0  0  0  0  0  0  0  0  # atno 10765 bound_to 10752
  139.9509  134.7229  156.0866 H   0  0  0  0  0  0  0  0  0  0  0  0  # atno 11005 bound_to 11000
  144.8969  139.4700  143.6651 LP  0  0  0  0  0  0  0  0  0  0  0  0  # atno 17320 bound_to 7965
  146.3096  139.7700  142.9030 LP  0  0  0  0  0  0  0  0  0  0  0  0  # atno 17321 bound_to 7965
  139.6490  144.7660  151.2185 LP  0  0  0  0  0  0  0  0  0  0  0  0  # atno 17342 bound_to 10162
  140.7526  143.6191  150.8530 LP  0  0  0  0  0  0  0  0  0  0  0  0  # atno 17343 bound_to 10162
  156.0255  130.3781  150.1834 LP  0  0  0  0  0  0  0  0  0  0  0  0  # atno 17370 bound_to 10713
  157.0024  130.9926  151.3387 LP  0  0  0  0  0  0  0  0  0  0  0  0  # atno 17371 bound_to 10713
  141.1171  133.6624  156.3121 LP  0  0  0  0  0  0  0  0  0  0  0  0  # atno 17394 bound_to 11000
  140.5722  134.5829  157.5460 LP  0  0  0  0  0  0  0  0  0  0  0  0  # atno 17395 bound_to 11000

$$$$
