AV-unprocessed.smi:2685|AV-procd|sdf|10382|dock1
  -GOLD-   2272014413D 1   1.00000     0.00000
 Structure written by MMmdl.
 22 22  0  0  0  0  0  0  0  0  2 V2000
  153.1492  141.7467  160.6916 C   0  0  0  0  0  0  0  0  0  0  0  0
  152.2847  142.4418  159.6547 C   0  0  0  0  0  0  0  0  0  0  0  0
  152.1466  143.7183  159.7098 N   0  0  0  0  0  0  0  0  0  0  0  0
  151.3699  144.4058  158.7642 C   0  0  0  0  0  0  0  0  0  0  0  0
  151.2176  145.6250  158.7900 O   0  0  0  0  0  0  0  0  0  0  0  0
  150.7721  143.6808  157.7889 N   0  0  0  0  0  0  0  0  0  0  0  0
  150.8892  142.2929  157.6932 C   0  0  0  0  0  0  0  0  0  0  0  0
  150.1454  141.6828  156.5198 C   0  0  0  0  0  0  0  0  0  0  0  0
  151.6230  141.6143  158.6006 C   0  0  0  0  0  0  0  0  0  0  0  0
  151.8208  140.0978  158.5764 C   0  0  0  0  0  0  0  0  0  0  0  0
  152.5915  139.5667  157.3617 C   0  0  0  0  0  0  0  0  0  0  0  0
  153.6748  138.9903  157.5997 O   0  0  0  0  0  0  0  0  0  0  0  0
  152.0988  139.7349  156.2238 O   0  5  0  0  0  0  0  0  0  0  0  0
  150.2137  144.1501  157.0910 H   0  0  0  0  0  0  0  0  0  0  0  0
  153.9147  141.1380  160.2101 H   0  0  0  0  0  0  0  0  0  0  0  0
  152.5387  141.1089  161.3309 H   0  0  0  0  0  0  0  0  0  0  0  0
  153.6543  142.4747  161.3275 H   0  0  0  0  0  0  0  0  0  0  0  0
  150.8330  141.1156  155.8918 H   0  0  0  0  0  0  0  0  0  0  0  0
  149.6735  142.4459  155.8997 H   0  0  0  0  0  0  0  0  0  0  0  0
  149.3668  141.0073  156.8750 H   0  0  0  0  0  0  0  0  0  0  0  0
  152.3142  139.7604  159.4873 H   0  0  0  0  0  0  0  0  0  0  0  0
  150.8462  139.6101  158.5892 H   0  0  0  0  0  0  0  0  0  0  0  0
  1  2  1  0  0  0  0
  1 15  1  0  0  0  0
  1 16  1  0  0  0  0
  1 17  1  0  0  0  0
  2  9  1  0  0  0  0
  2  3  2  0  0  0  0
  3  4  1  0  0  0  0
  4  5  2  0  0  0  0
  4  6  1  0  0  0  0
  6 14  1  0  0  0  0
  6  7  1  0  0  0  0
  7  8  1  0  0  0  0
  7  9  2  0  0  0  0
  8 18  1  0  0  0  0
  8 19  1  0  0  0  0
  8 20  1  0  0  0  0
  9 10  1  0  0  0  0
 10 11  1  0  0  0  0
 10 21  1  0  0  0  0
 10 22  1  0  0  0  0
 11 12  2  0  0  0  0
 11 13  1  0  0  0  0
M  CHG  1  13  -1
M  END
> <s_m_source_file>
AV-unprocessed.smi

> <i_m_source_file_index>
2685

> <i_lp_mmshare_version>
43012

> <i_f3d_flags>
0

> <s_epik_input>
W0NIM11jMW5jKD1PKVtuSF1jKFtDSDNdKWMxW0NIMl1DKD1PKVtPSF0=

> <s_epik_cmdline>
J2VwaWtfcHl0aG9uJywgJy1waCcsICc3LjAnLCAnLXRuJywgJzgnLCAnLW1hJywgJzIwMCcsICctbWV0YWxfYmluZGluZycsICctaW1hZScsICc8aW5maWxlLm1hZT4nLCAnLW9tYWUnLCAnPG91dGZpbGUubWFlPic=

> <r_lp_tautomer_probability>
1

> <r_epik_Ionization_Penalty>
0.00220208

> <r_epik_Ionization_Penalty_Charging>
0.000649408

> <r_epik_Ionization_Penalty_Neutral>
0.00155267

> <r_epik_State_Penalty>
-0

> <r_epik_Charging_Adjusted_Penalty>
0.000649408

> <i_epik_Tot_Q>
-1

> <i_epik_Tot_abs_Q>
1

> <r_epik_Metal_State_Penalty>
0.0484136

> <b_epik_Metal_Only>
0

> <s_lp_Force_Field>
OPLS_2005

> <r_lp_Energy>
-3.03599

> <b_lp_Chiralities_Consistent>
1

> <s_lp_Variant>
AV-unprocessed.smi:2685-1

> <Gold.Version>
5.8.1

> <Gold.Id.Protein>
6NUR|6NUR_protein|mol2

> <Gold.PLP.Fitness>
33.2795

> <Gold.PLP.PLP>
-24.4234

> <Gold.PLP.part.hbond>
-2.9610

> <Gold.PLP.part.metal>
0.0000

> <Gold.PLP.part.buried>
-2.6701

> <Gold.PLP.part.nonpolar>
-18.7789

> <Gold.PLP.part.repulsive>
0.1618

> <Gold.PLP.ligand.clash>
0.0000

> <Gold.PLP.ligand.torsion>
0.0354

> <Gold.PLP.Chemscore.Hbond>
2.9750

> <Gold.PLP.Chemscore.CHOScore>
0.0000

> <Gold.PLP.Chemscore.Metal>
0.0000

> <Gold.Chemscore.Hbonds>
donor molecule, donor type, donor heavy atom, donor atom, acceptor molecule, acceptor atom, score
      L1  H     6    14       P1  8028  1.00
      P1  H  7997  8009       L1    12  2.00

> <Gold.PLP.Chemscore.Internal.Correction>
0.0019

> <Gold.Rescore>
     Score         DG    S(hbond)    S(metal)    S(lipo)     H(rot)  DE(clash)    DE(int)     intcor
     11.33     -13.02       1.85        0.00      44.84       1.52       0.18       1.50       ----

> <Gold.Chemscore.Fitness>
11.3340

> <Gold.Chemscore.DG>
-13.0193

> <Gold.Chemscore.ZeroCoef>
-5.4800

> <Gold.Chemscore.Hbond>
1.8509

> <Gold.Chemscore.Metal>
0.0000

> <Gold.Chemscore.Lipo>
44.8351

> <Gold.Chemscore.Internal_Hbond>
0.0000

> <Gold.Chemscore.DEClash>
0.1803

> <Gold.Chemscore.DEInternal>
1.5049

> <Gold.Chemscore.Rot>
1.5189

> <Gold.Chemscore.Internal.Correction>
   9.000000E+99

> <Gold.Chemscore.Hbonds>
donor molecule, donor type, donor heavy atom, donor atom, acceptor molecule, acceptor atom, score
      L1  H     6    14       P1  8028  0.86
      P1  H  7997  8009       L1    12  0.45

> <Gold.Chemscore.Hbond.Weighted>
-6.1820

> <Gold.Chemscore.Metal.Weighted>
-0.0000

> <Gold.Chemscore.Lipo.Weighted>
-5.2457

> <Gold.Chemscore.Internal_Hbond.Weighted>
0.0000

> <Gold.Chemscore.DEClash.Weighted>
0.1803

> <Gold.Chemscore.DEInternal.Weighted>
1.5049

> <Gold.Chemscore.Rot.Weighted>
3.8884

> <Gold.Chemscore.Internal.Correction.Weighted>
   9.000000E+99

> <Gold.Protein.RotatedTorsions>
[ 6907 6896 6895 6894 ] final  144.60 input  -60.11 | X-H torsion
[ 7974 7965 7964 7962 ] final -153.22 input  175.53 | X-H torsion
[ 8008 7997 7996 7995 ] final  140.07 input   59.86 | X-H torsion
[ 10167 10162 10161 10158 ] final  -88.39 input  -65.29 | X-H torsion
[ 10718 10713 10712 10709 ] final   99.43 input   66.30 | X-H torsion
[ 10763 10752 10751 10750 ] final  147.83 input  -60.55 | X-H torsion
[ 11005 11000 10999 10996 ] final -162.59 input  -57.11 | X-H torsion

> <Gold.Protein.ActiveResidues>
 VAL166  LYS551  ARG553  GLY616  TRP617  ASP618  TYR619  PRO620  LYS621  CYS622 
 ASP623  PHE694  ASN695  SER759  ASP760  ASP761  ALA762  ILE779  LEU786  VAL792 
 PHE793  MET794  SER795  GLU796  ALA797  LYS798  CYS799  TRP800  GLU811  SER814 

> <Gold.Protein.RotatedAtoms>
  152.1915  133.4777  159.5010 H   0  0  0  0  0  0  0  0  0  0  0  0  # atno 6907 bound_to 6896
  150.6952  134.1706  159.4220 H   0  0  0  0  0  0  0  0  0  0  0  0  # atno 6908 bound_to 6896
  151.9621  135.0118  160.0599 H   0  0  0  0  0  0  0  0  0  0  0  0  # atno 6909 bound_to 6896
  144.7752  140.4555  143.5878 H   0  0  0  0  0  0  0  0  0  0  0  0  # atno 7974 bound_to 7965
  156.2983  140.2351  156.4341 H   0  0  0  0  0  0  0  0  0  0  0  0  # atno 8008 bound_to 7997
  154.8244  140.0436  157.1453 H   0  0  0  0  0  0  0  0  0  0  0  0  # atno 8009 bound_to 7997
  154.9279  140.3012  155.5186 H   0  0  0  0  0  0  0  0  0  0  0  0  # atno 8010 bound_to 7997
  140.3751  143.2775  151.9453 H   0  0  0  0  0  0  0  0  0  0  0  0  # atno 10167 bound_to 10162
  157.6876  131.0669  150.4947 H   0  0  0  0  0  0  0  0  0  0  0  0  # atno 10718 bound_to 10713
  154.0448  135.2886  155.3349 H   0  0  0  0  0  0  0  0  0  0  0  0  # atno 10763 bound_to 10752
  154.6906  135.5228  153.8390 H   0  0  0  0  0  0  0  0  0  0  0  0  # atno 10764 bound_to 10752
  153.0585  135.6604  154.0650 H   0  0  0  0  0  0  0  0  0  0  0  0  # atno 10765 bound_to 10752
  140.6075  134.4883  157.5212 H   0  0  0  0  0  0  0  0  0  0  0  0  # atno 11005 bound_to 11000
  145.6207  139.1524  143.3024 LP  0  0  0  0  0  0  0  0  0  0  0  0  # atno 17320 bound_to 7965
  146.1927  140.6317  142.9138 LP  0  0  0  0  0  0  0  0  0  0  0  0  # atno 17321 bound_to 7965
  139.4800  144.5871  151.7835 LP  0  0  0  0  0  0  0  0  0  0  0  0  # atno 17342 bound_to 10162
  140.4994  144.1191  150.5967 LP  0  0  0  0  0  0  0  0  0  0  0  0  # atno 17343 bound_to 10162
  156.5271  130.4176  149.6220 LP  0  0  0  0  0  0  0  0  0  0  0  0  # atno 17370 bound_to 10713
  156.3102  130.7225  151.2116 LP  0  0  0  0  0  0  0  0  0  0  0  0  # atno 17371 bound_to 10713
  139.9206  134.8157  156.1224 LP  0  0  0  0  0  0  0  0  0  0  0  0  # atno 17394 bound_to 11000
  141.0830  133.6746  156.2377 LP  0  0  0  0  0  0  0  0  0  0  0  0  # atno 17395 bound_to 11000

$$$$
