AV-unprocessed.smi:849|AV-procd|sdf|3946|dock1
  -GOLD-   22720 1413D 1   1.00000     0.00000
 Structure written by MMmdl.
 37 39  0  0  0  0  0  0  0  0  2 V2000
  151.2618  136.7012  154.1454 O   0  0  0  0  0  0  0  0  0  0  0  0
  151.5226  137.9957  154.6396 C   0  0  0  0  0  0  0  0  0  0  0  0
  150.3752  138.9267  154.4231 C   0  0  0  0  0  0  0  0  0  0  0  0
  149.3012  138.6828  153.6201 N   0  3  0  0  0  0  0  0  0  0  0  0
  148.4197  139.7631  153.6667 C   0  0  0  0  0  0  0  0  0  0  0  0
  147.2025  139.9751  153.0266 C   0  0  0  0  0  0  0  0  0  0  0  0
  146.5509  141.1970  153.2946 C   0  0  0  0  0  0  0  0  0  0  0  0
  147.1108  142.1515  154.1685 C   0  0  0  0  0  0  0  0  0  0  0  0
  148.3452  141.9245  154.8120 C   0  0  0  0  0  0  0  0  0  0  0  0
  148.9825  140.7138  154.5422 C   0  0  0  0  0  0  0  0  0  0  0  0
  150.1852  140.1551  154.9888 N   0  0  0  0  0  0  0  0  0  0  0  0
  151.0114  140.9136  155.9425 C   0  0  0  0  0  0  0  0  0  0  0  0
  150.2016  141.4749  157.1290 C   0  0  1  0  0  0  0  0  0  0  0  0
  149.4692  140.4298  157.7410 O   0  0  0  0  0  0  0  0  0  0  0  0
  151.1079  142.2085  158.1143 C   0  0  0  0  0  0  0  0  0  0  0  0
  151.0186  143.6153  158.2284 C   0  0  0  0  0  0  0  0  0  0  0  0
  151.8385  144.3164  159.1326 C   0  0  0  0  0  0  0  0  0  0  0  0
  152.7552  143.6169  159.9376 C   0  0  0  0  0  0  0  0  0  0  0  0
  152.8452  142.2162  159.8409 C   0  0  0  0  0  0  0  0  0  0  0  0
  152.0257  141.5083  158.9387 C   0  0  0  0  0  0  0  0  0  0  0  0
  152.1678  139.7856  158.8819 Cl  0  0  0  0  0  0  0  0  0  0  0  0
  151.0876  136.7651  153.2178 H   0  0  0  0  0  0  0  0  0  0  0  0
  151.7624  137.9355  155.7009 H   0  0  0  0  0  0  0  0  0  0  0  0
  152.4058  138.3920  154.1377 H   0  0  0  0  0  0  0  0  0  0  0  0
  146.7713  139.2453  152.3569 H   0  0  0  0  0  0  0  0  0  0  0  0
  145.6031  141.4064  152.8202 H   0  0  0  0  0  0  0  0  0  0  0  0
  146.5833  143.0767  154.3497 H   0  0  0  0  0  0  0  0  0  0  0  0
  148.7646  142.6621  155.4795 H   0  0  0  0  0  0  0  0  0  0  0  0
  151.8027  140.2559  156.3019 H   0  0  0  0  0  0  0  0  0  0  0  0
  151.5117  141.7166  155.3998 H   0  0  0  0  0  0  0  0  0  0  0  0
  149.4475  142.1640  156.7518 H   0  0  0  0  0  0  0  0  0  0  0  0
  148.9475  140.0029  157.0782 H   0  0  0  0  0  0  0  0  0  0  0  0
  150.3151  144.1679  157.6229 H   0  0  0  0  0  0  0  0  0  0  0  0
  151.7624  145.3911  159.2090 H   0  0  0  0  0  0  0  0  0  0  0  0
  153.3851  144.1530  160.6320 H   0  0  0  0  0  0  0  0  0  0  0  0
  153.5459  141.6820  160.4658 H   0  0  0  0  0  0  0  0  0  0  0  0
  149.1815  137.8331  153.0839 H   0  0  0  0  0  0  0  0  0  0  0  0
  1  2  1  0  0  0  0
  1 22  1  0  0  0  0
  2  3  1  0  0  0  0
  2 23  1  0  0  0  0
  2 24  1  0  0  0  0
  3 11  1  0  0  0  0
  3  4  2  0  0  0  0
  4  5  1  0  0  0  0
  4 37  1  0  0  0  0
  5 10  2  0  0  0  0
  5  6  1  0  0  0  0
  6  7  2  0  0  0  0
  6 25  1  0  0  0  0
  7  8  1  0  0  0  0
  7 26  1  0  0  0  0
  8  9  2  0  0  0  0
  8 27  1  0  0  0  0
  9 10  1  0  0  0  0
  9 28  1  0  0  0  0
 10 11  1  0  0  0  0
 11 12  1  0  0  0  0
 12 13  1  0  0  0  0
 12 29  1  0  0  0  0
 12 30  1  0  0  0  0
 13 14  1  0  0  0  0
 13 15  1  0  0  0  0
 13 31  1  0  0  0  0
 14 32  1  0  0  0  0
 15 20  1  0  0  0  0
 15 16  2  0  0  0  0
 16 17  1  0  0  0  0
 16 33  1  0  0  0  0
 17 18  2  0  0  0  0
 17 34  1  0  0  0  0
 18 19  1  0  0  0  0
 18 35  1  0  0  0  0
 19 20  2  0  0  0  0
 19 36  1  0  0  0  0
 20 21  1  0  0  0  0
M  CHG  1   4   1
M  END
> <s_m_source_file>
AV-unprocessed.smi

> <i_m_source_file_index>
849

> <i_lp_mmshare_version>
43012

> <i_f3d_flags>
0

> <s_epik_input>
W2NIXTFbY0hdW2NIXVtjSF1jKGMxMiluKGMobjIpW0NIMl1bT0hdKVtDSDJdW0NASF0oW09IXSljM1tjSF1bY0hdW2NIXVtjSF1jM0Ns

> <s_epik_cmdline>
J2VwaWtfcHl0aG9uJywgJy1waCcsICc3LjAnLCAnLXRuJywgJzgnLCAnLW1hJywgJzIwMCcsICctbWV0YWxfYmluZGluZycsICctaW1hZScsICc8aW5maWxlLm1hZT4nLCAnLW9tYWUnLCAnPG91dGZpbGUubWFlPic=

> <r_epik_Ionization_Penalty>
1.35643

> <r_epik_Ionization_Penalty_Charging>
1.35557

> <r_epik_Ionization_Penalty_Neutral>
0.000861512

> <r_epik_State_Penalty>
1.43401

> <r_epik_Charging_Adjusted_Penalty>
2.78958

> <i_epik_Tot_Q>
1

> <i_epik_Tot_abs_Q>
1

> <r_epik_Metal_State_Penalty>
5.47166

> <b_epik_Metal_Only>
0

> <s_lp_Force_Field>
OPLS_2005

> <r_lp_Energy>
14.7031

> <b_lp_Chiralities_Consistent>
1

> <s_lp_Variant>
AV-unprocessed.smi:849-4

> <Gold.Version>
5.8.1

> <Gold.Id.Protein>
6NUR|6NUR_protein|mol2

> <Gold.PLP.Fitness>
60.7179

> <Gold.PLP.PLP>
-49.6225

> <Gold.PLP.part.hbond>
-4.3875

> <Gold.PLP.part.metal>
0.0000

> <Gold.PLP.part.buried>
1.7960

> <Gold.PLP.part.nonpolar>
-47.7489

> <Gold.PLP.part.repulsive>
0.0702

> <Gold.PLP.ligand.clash>
0.0000

> <Gold.PLP.ligand.torsion>
0.4408

> <Gold.PLP.Chemscore.Hbond>
3.9760

> <Gold.PLP.Chemscore.CHOScore>
0.0000

> <Gold.PLP.Chemscore.Metal>
0.0000

> <Gold.Chemscore.Hbonds>
donor molecule, donor type, donor heavy atom, donor atom, acceptor molecule, acceptor atom, score
      L1  H     1    22       P1  7949  0.98
      L1  H     4    37       P1  7948  2.00
      P1  H 10752 10765       L1     1  1.00

> <Gold.PLP.Chemscore.Internal.Correction>
0.0490

> <Gold.Rescore>
     Score         DG    S(hbond)    S(metal)    S(lipo)     H(rot)  DE(clash)    DE(int)     intcor
     20.37     -21.47       2.53        0.00     123.38       2.70       0.91       0.19       ----

> <Gold.Chemscore.Fitness>
20.3684

> <Gold.Chemscore.DG>
-21.4680

> <Gold.Chemscore.ZeroCoef>
-5.4800

> <Gold.Chemscore.Hbond>
2.5313

> <Gold.Chemscore.Metal>
0.0000

> <Gold.Chemscore.Lipo>
123.3831

> <Gold.Chemscore.Internal_Hbond>
0.0000

> <Gold.Chemscore.DEClash>
0.9071

> <Gold.Chemscore.DEInternal>
0.1926

> <Gold.Chemscore.Rot>
2.6963

> <Gold.Chemscore.Internal.Correction>
   9.000000E+99

> <Gold.Chemscore.Hbonds>
donor molecule, donor type, donor heavy atom, donor atom, acceptor molecule, acceptor atom, score
      L1  H     1    22       P1  7949  0.37
      L1  H     4    37       P1  7948  0.95
      P1  H 10752 10765       L1     1  0.25

> <Gold.Chemscore.Hbond.Weighted>
-8.4546

> <Gold.Chemscore.Metal.Weighted>
-0.0000

> <Gold.Chemscore.Lipo.Weighted>
-14.4358

> <Gold.Chemscore.Internal_Hbond.Weighted>
0.0000

> <Gold.Chemscore.DEClash.Weighted>
0.9071

> <Gold.Chemscore.DEInternal.Weighted>
0.1926

> <Gold.Chemscore.Rot.Weighted>
6.9024

> <Gold.Chemscore.Internal.Correction.Weighted>
   9.000000E+99

> <Gold.Protein.RotatedTorsions>
[ 6907 6896 6895 6894 ] final  108.25 input  -60.11 | X-H torsion
[ 7974 7965 7964 7962 ] final  -19.56 input  175.53 | X-H torsion
[ 8008 7997 7996 7995 ] final  -23.39 input   59.86 | X-H torsion
[ 10167 10162 10161 10158 ] final  167.83 input  -65.29 | X-H torsion
[ 10718 10713 10712 10709 ] final  108.99 input   66.30 | X-H torsion
[ 10763 10752 10751 10750 ] final  157.42 input  -60.55 | X-H torsion
[ 11005 11000 10999 10996 ] final  -84.94 input  -57.11 | X-H torsion

> <Gold.Protein.ActiveResidues>
 VAL166  LYS551  ARG553  GLY616  TRP617  ASP618  TYR619  PRO620  LYS621  CYS622 
 ASP623  PHE694  ASN695  SER759  ASP760  ASP761  ALA762  ILE779  LEU786  VAL792 
 PHE793  MET794  SER795  GLU796  ALA797  LYS798  CYS799  TRP800  GLU811  SER814 

> <Gold.Protein.RotatedAtoms>
  152.5120  133.9117  159.7490 H   0  0  0  0  0  0  0  0  0  0  0  0  # atno 6907 bound_to 6896
  150.9509  133.6542  159.2779 H   0  0  0  0  0  0  0  0  0  0  0  0  # atno 6908 bound_to 6896
  151.3821  135.0947  159.9552 H   0  0  0  0  0  0  0  0  0  0  0  0  # atno 6909 bound_to 6896
  146.1834  140.4080  142.8485 H   0  0  0  0  0  0  0  0  0  0  0  0  # atno 7974 bound_to 7965
  154.4588  140.1982  156.0303 H   0  0  0  0  0  0  0  0  0  0  0  0  # atno 8008 bound_to 7997
  156.0799  140.3273  155.7652 H   0  0  0  0  0  0  0  0  0  0  0  0  # atno 8009 bound_to 7997
  155.5128  140.0563  157.2911 H   0  0  0  0  0  0  0  0  0  0  0  0  # atno 8010 bound_to 7997
  139.4954  144.3880  151.9549 H   0  0  0  0  0  0  0  0  0  0  0  0  # atno 10167 bound_to 10162
  157.6562  131.0905  150.6387 H   0  0  0  0  0  0  0  0  0  0  0  0  # atno 10718 bound_to 10713
  154.2000  135.2791  155.2994 H   0  0  0  0  0  0  0  0  0  0  0  0  # atno 10763 bound_to 10752
  154.5861  135.5574  153.7236 H   0  0  0  0  0  0  0  0  0  0  0  0  # atno 10764 bound_to 10752
  153.0090  135.6357  154.2139 H   0  0  0  0  0  0  0  0  0  0  0  0  # atno 10765 bound_to 10752
  141.1646  133.7372  156.8941 H   0  0  0  0  0  0  0  0  0  0  0  0  # atno 11005 bound_to 11000
  144.8355  140.6775  143.6263 LP  0  0  0  0  0  0  0  0  0  0  0  0  # atno 17320 bound_to 7965
  145.4009  139.1598  143.4178 LP  0  0  0  0  0  0  0  0  0  0  0  0  # atno 17321 bound_to 7965
  140.3317  144.3308  150.5986 LP  0  0  0  0  0  0  0  0  0  0  0  0  # atno 17342 bound_to 10162
  140.5639  143.2188  151.7717 LP  0  0  0  0  0  0  0  0  0  0  0  0  # atno 17343 bound_to 10162
  156.6693  130.4535  149.5662 LP  0  0  0  0  0  0  0  0  0  0  0  0  # atno 17370 bound_to 10713
  156.2009  130.6619  151.1166 LP  0  0  0  0  0  0  0  0  0  0  0  0  # atno 17371 bound_to 10713
  140.1628  134.9154  157.2736 LP  0  0  0  0  0  0  0  0  0  0  0  0  # atno 17394 bound_to 11000
  140.2592  134.3592  155.7413 LP  0  0  0  0  0  0  0  0  0  0  0  0  # atno 17395 bound_to 11000

$$$$
