AV-unprocessed.smi:447|AV-procd|sdf|2600|dock8
  -GOLD-   2262022593D 1   1.00000     0.00000
 Structure written by MMmdl.
 45 47  0  0  0  0  0  0  0  0  1 V2000
  155.5324  138.0315  160.8482 C   0  0  0  0  0  0  0  0  0  0  0  0
  154.6472  138.5620  159.7260 C   0  0  0  0  0  0  0  0  0  0  0  0
  155.0942  139.3804  158.9230 O   0  0  0  0  0  0  0  0  0  0  0  0
  153.3937  138.0853  159.6862 N   0  0  0  0  0  0  0  0  0  0  0  0
  152.3653  138.4698  158.7211 C   0  0  1  0  0  0  0  0  0  0  0  0
  151.0428  137.7501  159.0211 C   0  0  0  0  0  0  0  0  0  0  0  0
  152.2218  139.9703  158.7694 C   0  0  0  0  0  0  0  0  0  0  0  0
  152.9523  140.7258  159.5957 N   0  0  0  0  0  0  0  0  0  0  0  0
  152.5108  142.0040  159.3192 C   0  0  0  0  0  0  0  0  0  0  0  0
  152.9035  143.2492  159.8605 C   0  0  0  0  0  0  0  0  0  0  0  0
  152.3004  144.4436  159.4141 C   0  0  0  0  0  0  0  0  0  0  0  0
  151.2990  144.4098  158.4221 C   0  0  0  0  0  0  0  0  0  0  0  0
  150.8936  143.1794  157.8702 C   0  0  0  0  0  0  0  0  0  0  0  0
  151.4984  141.9902  158.3201 C   0  0  0  0  0  0  0  0  0  0  0  0
  151.3336  140.6480  157.9940 N   0  0  0  0  0  0  0  0  0  0  0  0
  150.3903  140.1296  157.0110 C   0  0  0  0  0  0  0  0  0  0  0  0
  150.5794  140.7600  155.6158 C   0  0  1  0  0  0  0  0  0  0  0  0
  151.7041  140.1994  154.9657 O   0  0  0  0  0  0  0  0  0  0  0  0
  149.3154  140.6364  154.7800 C   0  0  0  0  0  0  0  0  0  0  0  0
  148.6023  141.7944  154.4014 C   0  0  0  0  0  0  0  0  0  0  0  0
  147.4272  141.6850  153.6326 C   0  0  0  0  0  0  0  0  0  0  0  0
  146.9569  140.4169  153.2404 C   0  0  0  0  0  0  0  0  0  0  0  0
  147.6616  139.2578  153.6185 C   0  0  0  0  0  0  0  0  0  0  0  0
  148.8370  139.3666  154.3868 C   0  0  0  0  0  0  0  0  0  0  0  0
  155.1462  138.3477  161.8175 H   0  0  0  0  0  0  0  0  0  0  0  0
  156.5515  138.4062  160.7479 H   0  0  0  0  0  0  0  0  0  0  0  0
  155.5662  136.9420  160.8268 H   0  0  0  0  0  0  0  0  0  0  0  0
  153.1171  137.4191  160.3930 H   0  0  0  0  0  0  0  0  0  0  0  0
  152.6979  138.1697  157.7290 H   0  0  0  0  0  0  0  0  0  0  0  0
  150.2755  138.0296  158.2984 H   0  0  0  0  0  0  0  0  0  0  0  0
  150.6702  137.9981  160.0155 H   0  0  0  0  0  0  0  0  0  0  0  0
  151.1648  136.6678  158.9705 H   0  0  0  0  0  0  0  0  0  0  0  0
  153.6700  143.2852  160.6205 H   0  0  0  0  0  0  0  0  0  0  0  0
  152.6076  145.3901  159.8344 H   0  0  0  0  0  0  0  0  0  0  0  0
  150.8424  145.3290  158.0851 H   0  0  0  0  0  0  0  0  0  0  0  0
  150.1270  143.1500  157.1101 H   0  0  0  0  0  0  0  0  0  0  0  0
  150.4610  139.0433  156.9700 H   0  0  0  0  0  0  0  0  0  0  0  0
  149.3820  140.3390  157.3707 H   0  0  0  0  0  0  0  0  0  0  0  0
  150.7999  141.8206  155.7440 H   0  0  0  0  0  0  0  0  0  0  0  0
  152.4188  140.1615  155.5828 H   0  0  0  0  0  0  0  0  0  0  0  0
  148.9532  142.7715  154.6999 H   0  0  0  0  0  0  0  0  0  0  0  0
  146.8854  142.5739  153.3442 H   0  0  0  0  0  0  0  0  0  0  0  0
  146.0553  140.3329  152.6517 H   0  0  0  0  0  0  0  0  0  0  0  0
  147.3001  138.2847  153.3201 H   0  0  0  0  0  0  0  0  0  0  0  0
  149.3694  138.4717  154.6756 H   0  0  0  0  0  0  0  0  0  0  0  0
  1  2  1  0  0  0  0
  1 25  1  0  0  0  0
  1 26  1  0  0  0  0
  1 27  1  0  0  0  0
  2  3  2  0  0  0  0
  2  4  1  0  0  0  0
  4  5  1  0  0  0  0
  4 28  1  0  0  0  0
  5  6  1  0  0  0  0
  5  7  1  0  0  0  0
  5 29  1  0  0  0  0
  6 30  1  0  0  0  0
  6 31  1  0  0  0  0
  6 32  1  0  0  0  0
  7 15  1  0  0  0  0
  7  8  2  0  0  0  0
  8  9  1  0  0  0  0
  9 14  2  0  0  0  0
  9 10  1  0  0  0  0
 10 11  2  0  0  0  0
 10 33  1  0  0  0  0
 11 12  1  0  0  0  0
 11 34  1  0  0  0  0
 12 13  2  0  0  0  0
 12 35  1  0  0  0  0
 13 14  1  0  0  0  0
 13 36  1  0  0  0  0
 14 15  1  0  0  0  0
 15 16  1  0  0  0  0
 16 17  1  0  0  0  0
 16 37  1  0  0  0  0
 16 38  1  0  0  0  0
 17 18  1  0  0  0  0
 17 19  1  0  0  0  0
 17 39  1  0  0  0  0
 18 40  1  0  0  0  0
 19 24  1  0  0  0  0
 19 20  2  0  0  0  0
 20 21  1  0  0  0  0
 20 41  1  0  0  0  0
 21 22  2  0  0  0  0
 21 42  1  0  0  0  0
 22 23  1  0  0  0  0
 22 43  1  0  0  0  0
 23 24  2  0  0  0  0
 23 44  1  0  0  0  0
 24 45  1  0  0  0  0
M  END
> <s_m_source_file>
AV-unprocessed.smi

> <i_m_source_file_index>
447

> <i_lp_mmshare_version>
43012

> <i_f3d_flags>
0

> <s_epik_input>
W0NIM11DKD1PKVtOSF1bQ0BIXShbQ0gzXSljKG4xKW4oYyhjMTIpW2NIXVtjSF1bY0hdW2NIXTIpW0NIMl1bQ0BIXShbT0hdKWMzW2NIXVtjSF1bY0hdW2NIXVtjSF0z

> <s_epik_cmdline>
J2VwaWtfcHl0aG9uJywgJy1waCcsICc3LjAnLCAnLXRuJywgJzgnLCAnLW1hJywgJzIwMCcsICctbWV0YWxfYmluZGluZycsICctaW1hZScsICc8aW5maWxlLm1hZT4nLCAnLW9tYWUnLCAnPG91dGZpbGUubWFlPic=

> <r_epik_Ionization_Penalty>
0.13301

> <r_epik_Ionization_Penalty_Charging>
0

> <r_epik_Ionization_Penalty_Neutral>
0.13301

> <r_epik_State_Penalty>
0.122384

> <r_epik_Charging_Adjusted_Penalty>
0.122384

> <i_epik_Tot_Q>
0

> <i_epik_Tot_abs_Q>
0

> <r_epik_Metal_State_Penalty>
0.0997374

> <b_epik_Metal_Only>
0

> <s_lp_Force_Field>
OPLS_2005

> <r_lp_Energy>
8.36794

> <b_lp_Chiralities_Consistent>
1

> <s_lp_Variant>
AV-unprocessed.smi:447-4

> <Gold.Version>
5.8.1

> <Gold.Id.Protein>
6NUR|6NUR_protein|mol2

> <Gold.PLP.Fitness>
54.5268

> <Gold.PLP.PLP>
-49.2796

> <Gold.PLP.part.hbond>
-2.0000

> <Gold.PLP.part.metal>
0.0000

> <Gold.PLP.part.buried>
-4.6864

> <Gold.PLP.part.nonpolar>
-41.9886

> <Gold.PLP.part.repulsive>
0.0691

> <Gold.PLP.ligand.clash>
0.0000

> <Gold.PLP.ligand.torsion>
0.2428

> <Gold.PLP.Chemscore.Hbond>
1.8800

> <Gold.PLP.Chemscore.CHOScore>
0.0000

> <Gold.PLP.Chemscore.Metal>
0.0000

> <Gold.Chemscore.Hbonds>
donor molecule, donor type, donor heavy atom, donor atom, acceptor molecule, acceptor atom, score
      P1  H  7989  7998       L1    18  0.94
      P1  H  7997  8010       L1     3  1.00

> <Gold.PLP.Chemscore.Internal.Correction>
0.0928

> <Gold.Rescore>
     Score         DG    S(hbond)    S(metal)    S(lipo)     H(rot)  DE(clash)    DE(int)     intcor
     19.35     -19.94       1.73        0.00     125.72       2.35       0.02       0.57       ----

> <Gold.Chemscore.Fitness>
19.3539

> <Gold.Chemscore.DG>
-19.9384

> <Gold.Chemscore.ZeroCoef>
-5.4800

> <Gold.Chemscore.Hbond>
1.7281

> <Gold.Chemscore.Metal>
0.0000

> <Gold.Chemscore.Lipo>
125.7240

> <Gold.Chemscore.Internal_Hbond>
0.0000

> <Gold.Chemscore.DEClash>
0.0174

> <Gold.Chemscore.DEInternal>
0.5671

> <Gold.Chemscore.Rot>
2.3528

> <Gold.Chemscore.Internal.Correction>
   9.000000E+99

> <Gold.Chemscore.Hbonds>
donor molecule, donor type, donor heavy atom, donor atom, acceptor molecule, acceptor atom, score
      P1  H  7989  7998       L1    18  0.36
      P1  H  7997  8010       L1     3  1.00

> <Gold.Chemscore.Hbond.Weighted>
-5.7718

> <Gold.Chemscore.Metal.Weighted>
-0.0000

> <Gold.Chemscore.Lipo.Weighted>
-14.7097

> <Gold.Chemscore.Internal_Hbond.Weighted>
0.0000

> <Gold.Chemscore.DEClash.Weighted>
0.0174

> <Gold.Chemscore.DEInternal.Weighted>
0.5671

> <Gold.Chemscore.Rot.Weighted>
6.0231

> <Gold.Chemscore.Internal.Correction.Weighted>
   9.000000E+99

> <Gold.Protein.RotatedTorsions>
[ 6907 6896 6895 6894 ] final  166.93 input  -60.11 | X-H torsion
[ 7974 7965 7964 7962 ] final  -54.07 input  175.53 | X-H torsion
[ 8008 7997 7996 7995 ] final   -9.69 input   59.86 | X-H torsion
[ 10167 10162 10161 10158 ] final  100.19 input  -65.29 | X-H torsion
[ 10718 10713 10712 10709 ] final -128.47 input   66.30 | X-H torsion
[ 10763 10752 10751 10750 ] final  -95.86 input  -60.55 | X-H torsion
[ 11005 11000 10999 10996 ] final -102.78 input  -57.11 | X-H torsion

> <Gold.Protein.ActiveResidues>
 VAL166  LYS551  ARG553  GLY616  TRP617  ASP618  TYR619  PRO620  LYS621  CYS622 
 ASP623  PHE694  ASN695  SER759  ASP760  ASP761  ALA762  ILE779  LEU786  VAL792 
 PHE793  MET794  SER795  GLU796  ALA797  LYS798  CYS799  TRP800  GLU811  SER814 

> <Gold.Protein.RotatedAtoms>
  151.8713  133.3476  159.3735 H   0  0  0  0  0  0  0  0  0  0  0  0  # atno 6907 bound_to 6896
  150.7152  134.5110  159.5616 H   0  0  0  0  0  0  0  0  0  0  0  0  # atno 6908 bound_to 6896
  152.2643  134.8001  160.0476 H   0  0  0  0  0  0  0  0  0  0  0  0  # atno 6909 bound_to 6896
  145.8897  140.8080  142.9797 H   0  0  0  0  0  0  0  0  0  0  0  0  # atno 7974 bound_to 7965
  154.5623  140.2348  155.8317 H   0  0  0  0  0  0  0  0  0  0  0  0  # atno 8008 bound_to 7997
  156.2039  140.3045  155.9545 H   0  0  0  0  0  0  0  0  0  0  0  0  # atno 8009 bound_to 7997
  155.2866  140.0425  157.3010 H   0  0  0  0  0  0  0  0  0  0  0  0  # atno 8010 bound_to 7997
  139.7549  144.6972  151.0377 H   0  0  0  0  0  0  0  0  0  0  0  0  # atno 10167 bound_to 10162
  156.1954  130.6823  151.0476 H   0  0  0  0  0  0  0  0  0  0  0  0  # atno 10718 bound_to 10713
  154.7187  135.5105  153.8778 H   0  0  0  0  0  0  0  0  0  0  0  0  # atno 10763 bound_to 10752
  153.0843  135.6641  153.9989 H   0  0  0  0  0  0  0  0  0  0  0  0  # atno 10764 bound_to 10752
  153.9816  135.3028  155.3399 H   0  0  0  0  0  0  0  0  0  0  0  0  # atno 10765 bound_to 10752
  141.1174  133.8586  157.1403 H   0  0  0  0  0  0  0  0  0  0  0  0  # atno 11005 bound_to 11000
  144.6730  140.1511  143.7430 LP  0  0  0  0  0  0  0  0  0  0  0  0  # atno 17320 bound_to 7965
  145.8923  139.2383  143.1542 LP  0  0  0  0  0  0  0  0  0  0  0  0  # atno 17321 bound_to 7965
  140.7802  143.4765  151.0076 LP  0  0  0  0  0  0  0  0  0  0  0  0  # atno 17342 bound_to 10162
  139.8452  143.7511  152.3179 LP  0  0  0  0  0  0  0  0  0  0  0  0  # atno 17343 bound_to 10162
  157.6954  131.0795  150.6983 LP  0  0  0  0  0  0  0  0  0  0  0  0  # atno 17370 bound_to 10713
  156.7040  130.4632  149.5565 LP  0  0  0  0  0  0  0  0  0  0  0  0  # atno 17371 bound_to 10713
  140.0107  134.9989  157.0388 LP  0  0  0  0  0  0  0  0  0  0  0  0  # atno 17394 bound_to 11000
  140.4605  134.1489  155.7191 LP  0  0  0  0  0  0  0  0  0  0  0  0  # atno 17395 bound_to 11000

$$$$
