AV-unprocessed.smi:3043|AV-procd|sdf|11604|dock7
  -GOLD-   2272016583D 1   1.00000     0.00000
 Structure written by MMmdl.
 44 45  0  0  0  0  0  0  0  0  2 V2000
  152.1812  144.4599  161.6586 C   0  0  0  0  0  0  0  0  0  0  0  0
  152.7002  143.1173  161.1390 C   0  0  0  0  0  0  0  0  0  0  0  0
  152.9976  142.2540  161.9646 O   0  0  0  0  0  0  0  0  0  0  0  0
  152.8117  142.9211  159.8029 N   0  0  0  0  0  0  0  0  0  0  0  0
  153.2390  141.6429  159.2223 C   0  0  0  0  0  0  0  0  0  0  0  0
  152.0361  140.9899  158.5182 C   0  0  0  0  0  0  0  0  0  0  0  0
  151.4362  141.9244  157.4441 C   0  0  0  0  0  0  0  0  0  0  0  0
  150.1764  141.3051  156.8124 C   0  0  0  0  0  0  0  0  0  0  0  0
  149.7282  142.0757  155.6325 N   0  3  0  0  0  0  0  0  0  0  0  0
  148.7611  141.3868  154.7488 C   0  0  1  0  0  0  0  0  0  0  0  0
  149.4070  140.1011  154.2043 C   0  0  0  0  0  0  0  0  0  0  0  0
  147.4243  141.1247  155.4811 C   0  0  0  0  0  0  0  0  0  0  0  0
  146.4447  142.1750  155.2667 N   0  0  0  0  0  0  0  0  0  0  0  0
  145.9204  143.0578  156.1873 C   0  0  0  0  0  0  0  0  0  0  0  0
  145.0372  143.8598  155.5233 C   0  0  0  0  0  0  0  0  0  0  0  0
  145.0870  143.3819  154.1840 C   0  0  0  0  0  0  0  0  0  0  0  0
  145.9297  142.3727  154.0339 N   0  0  0  0  0  0  0  0  0  0  0  0
  151.1650  143.3268  158.0394 C   0  0  0  0  0  0  0  0  0  0  0  0
  152.4057  143.8776  158.7656 C   0  0  0  0  0  0  0  0  0  0  0  0
  151.1790  144.6612  161.2791 H   0  0  0  0  0  0  0  0  0  0  0  0
  152.8443  145.2726  161.3615 H   0  0  0  0  0  0  0  0  0  0  0  0
  152.1291  144.4554  162.7478 H   0  0  0  0  0  0  0  0  0  0  0  0
  154.0431  141.8214  158.5070 H   0  0  0  0  0  0  0  0  0  0  0  0
  153.6502  140.9572  159.9645 H   0  0  0  0  0  0  0  0  0  0  0  0
  152.3441  140.0471  158.0651 H   0  0  0  0  0  0  0  0  0  0  0  0
  151.2754  140.7415  159.2600 H   0  0  0  0  0  0  0  0  0  0  0  0
  152.1876  142.0343  156.6604 H   0  0  0  0  0  0  0  0  0  0  0  0
  150.3917  140.2818  156.5056 H   0  0  0  0  0  0  0  0  0  0  0  0
  149.3735  141.2559  157.5494 H   0  0  0  0  0  0  0  0  0  0  0  0
  149.2786  142.9116  155.9777 H   0  0  0  0  0  0  0  0  0  0  0  0
  148.5694  142.0366  153.8934 H   0  0  0  0  0  0  0  0  0  0  0  0
  148.7759  139.6175  153.4584 H   0  0  0  0  0  0  0  0  0  0  0  0
  149.5905  139.3810  155.0026 H   0  0  0  0  0  0  0  0  0  0  0  0
  150.3621  140.3152  153.7237 H   0  0  0  0  0  0  0  0  0  0  0  0
  146.9966  140.1748  155.1553 H   0  0  0  0  0  0  0  0  0  0  0  0
  147.5815  141.0404  156.5564 H   0  0  0  0  0  0  0  0  0  0  0  0
  146.2170  143.0436  157.2258 H   0  0  0  0  0  0  0  0  0  0  0  0
  144.4441  144.6646  155.9319 H   0  0  0  0  0  0  0  0  0  0  0  0
  144.5397  143.7356  153.3226 H   0  0  0  0  0  0  0  0  0  0  0  0
  150.8677  144.0217  157.2534 H   0  0  0  0  0  0  0  0  0  0  0  0
  150.3303  143.2781  158.7403 H   0  0  0  0  0  0  0  0  0  0  0  0
  152.1962  144.8751  159.1489 H   0  0  0  0  0  0  0  0  0  0  0  0
  153.2256  144.0058  158.0574 H   0  0  0  0  0  0  0  0  0  0  0  0
  150.5336  142.3495  155.0877 H   0  0  0  0  0  0  0  0  0  0  0  0
  1  2  1  0  0  0  0
  1 20  1  0  0  0  0
  1 21  1  0  0  0  0
  1 22  1  0  0  0  0
  2  3  2  0  0  0  0
  2  4  1  0  0  0  0
  4 19  1  0  0  0  0
  4  5  1  0  0  0  0
  5  6  1  0  0  0  0
  5 23  1  0  0  0  0
  5 24  1  0  0  0  0
  6  7  1  0  0  0  0
  6 25  1  0  0  0  0
  6 26  1  0  0  0  0
  7  8  1  0  0  0  0
  7 18  1  0  0  0  0
  7 27  1  0  0  0  0
  8  9  1  0  0  0  0
  8 28  1  0  0  0  0
  8 29  1  0  0  0  0
  9 10  1  0  0  0  0
  9 30  1  0  0  0  0
  9 44  1  0  0  0  0
 10 11  1  0  0  0  0
 10 12  1  0  0  0  0
 10 31  1  0  0  0  0
 11 32  1  0  0  0  0
 11 33  1  0  0  0  0
 11 34  1  0  0  0  0
 12 13  1  0  0  0  0
 12 35  1  0  0  0  0
 12 36  1  0  0  0  0
 13 17  1  0  0  0  0
 13 14  1  0  0  0  0
 14 15  2  0  0  0  0
 14 37  1  0  0  0  0
 15 16  1  0  0  0  0
 15 38  1  0  0  0  0
 16 17  2  0  0  0  0
 16 39  1  0  0  0  0
 18 19  1  0  0  0  0
 18 40  1  0  0  0  0
 18 41  1  0  0  0  0
 19 42  1  0  0  0  0
 19 43  1  0  0  0  0
M  CHG  1   9   1
M  END
> <s_m_source_file>
AV-unprocessed.smi

> <i_m_source_file_index>
3043

> <i_lp_mmshare_version>
43012

> <i_f3d_flags>
0

> <s_epik_input>
W0NIM11DKD1PKU4xW0NIMl1bQ0gyXVtDSF0oW0NIMl1bQ0gyXTEpW0NIMl1bTkhdW0NASF0oW0NIM10pW0NIMl1uMltjSF1bY0hdW2NIXW4y

> <s_epik_cmdline>
J2VwaWtfcHl0aG9uJywgJy1waCcsICc3LjAnLCAnLXRuJywgJzgnLCAnLW1hJywgJzIwMCcsICctbWV0YWxfYmluZGluZycsICctaW1hZScsICc8aW5maWxlLm1hZT4nLCAnLW9tYWUnLCAnPG91dGZpbGUubWFlPic=

> <r_lp_tautomer_probability>
1

> <r_epik_Ionization_Penalty>
0.00300549

> <r_epik_Ionization_Penalty_Charging>
0.00299781

> <r_epik_Ionization_Penalty_Neutral>
7.6831e-06

> <r_epik_State_Penalty>
0.00210473

> <r_epik_Charging_Adjusted_Penalty>
0.00510254

> <i_epik_Tot_Q>
1

> <i_epik_Tot_abs_Q>
1

> <r_epik_Metal_State_Penalty>
-0

> <b_epik_Metal_Only>
0

> <s_lp_Force_Field>
OPLS_2005

> <r_lp_Energy>
28.9571

> <b_lp_Chiralities_Consistent>
1

> <s_lp_Variant>
AV-unprocessed.smi:3043-2

> <Gold.Version>
5.8.1

> <Gold.Id.Protein>
6NUR|6NUR_protein|mol2

> <Gold.PLP.Fitness>
47.4446

> <Gold.PLP.PLP>
-40.4628

> <Gold.PLP.part.hbond>
-1.0000

> <Gold.PLP.part.metal>
0.0000

> <Gold.PLP.part.buried>
-4.9644

> <Gold.PLP.part.nonpolar>
-34.6545

> <Gold.PLP.part.repulsive>
0.4145

> <Gold.PLP.ligand.clash>
0.0000

> <Gold.PLP.ligand.torsion>
0.6041

> <Gold.PLP.Chemscore.Hbond>
1.8240

> <Gold.PLP.Chemscore.CHOScore>
0.8932

> <Gold.PLP.Chemscore.Metal>
0.0000

> <Gold.Chemscore.Hbonds>
donor molecule, donor type, donor heavy atom, donor atom, acceptor molecule, acceptor atom, score
      L1  H     9    30       P1  8028  1.86
      L1  C    16    39       P1 10174  0.81

> <Gold.PLP.Chemscore.Internal.Correction>
0.0386

> <Gold.Rescore>
     Score         DG    S(hbond)    S(metal)    S(lipo)     H(rot)  DE(clash)    DE(int)     intcor
     14.76     -15.91       0.99        0.00      99.05       1.74       0.59       0.57       ----

> <Gold.Chemscore.Fitness>
14.7583

> <Gold.Chemscore.DG>
-15.9114

> <Gold.Chemscore.ZeroCoef>
-5.4800

> <Gold.Chemscore.Hbond>
0.9886

> <Gold.Chemscore.Metal>
0.0000

> <Gold.Chemscore.Lipo>
99.0548

> <Gold.Chemscore.Internal_Hbond>
0.0000

> <Gold.Chemscore.DEClash>
0.5868

> <Gold.Chemscore.DEInternal>
0.5663

> <Gold.Chemscore.Rot>
1.7422

> <Gold.Chemscore.Internal.Correction>
   9.000000E+99

> <Gold.Chemscore.Hbonds>
donor molecule, donor type, donor heavy atom, donor atom, acceptor molecule, acceptor atom, score
      L1  H     9    30       P1  8028  0.90

> <Gold.Chemscore.Hbond.Weighted>
-3.3019

> <Gold.Chemscore.Metal.Weighted>
-0.0000

> <Gold.Chemscore.Lipo.Weighted>
-11.5894

> <Gold.Chemscore.Internal_Hbond.Weighted>
0.0000

> <Gold.Chemscore.DEClash.Weighted>
0.5868

> <Gold.Chemscore.DEInternal.Weighted>
0.5663

> <Gold.Chemscore.Rot.Weighted>
4.4600

> <Gold.Chemscore.Internal.Correction.Weighted>
   9.000000E+99

> <Gold.Protein.RotatedTorsions>
[ 6907 6896 6895 6894 ] final  130.08 input  -60.11 | X-H torsion
[ 7974 7965 7964 7962 ] final -117.46 input  175.53 | X-H torsion
[ 8008 7997 7996 7995 ] final  174.62 input   59.86 | X-H torsion
[ 10167 10162 10161 10158 ] final   34.53 input  -65.29 | X-H torsion
[ 10718 10713 10712 10709 ] final -177.69 input   66.30 | X-H torsion
[ 10763 10752 10751 10750 ] final   74.48 input  -60.55 | X-H torsion
[ 11005 11000 10999 10996 ] final  108.77 input  -57.11 | X-H torsion

> <Gold.Protein.ActiveResidues>
 VAL166  LYS551  ARG553  GLY616  TRP617  ASP618  TYR619  PRO620  LYS621  CYS622 
 ASP623  PHE694  ASN695  SER759  ASP760  ASP761  ALA762  ILE779  LEU786  VAL792 
 PHE793  MET794  SER795  GLU796  ALA797  LYS798  CYS799  TRP800  GLU811  SER814 

> <Gold.Protein.RotatedAtoms>
  152.3561  133.6239  159.5980 H   0  0  0  0  0  0  0  0  0  0  0  0  # atno 6907 bound_to 6896
  150.7570  133.9497  159.3491 H   0  0  0  0  0  0  0  0  0  0  0  0  # atno 6908 bound_to 6896
  151.7342  135.0869  160.0356 H   0  0  0  0  0  0  0  0  0  0  0  0  # atno 6909 bound_to 6896
  145.0849  140.8451  143.4017 H   0  0  0  0  0  0  0  0  0  0  0  0  # atno 7974 bound_to 7965
  156.0955  140.1430  156.9536 H   0  0  0  0  0  0  0  0  0  0  0  0  # atno 8008 bound_to 7997
  154.4669  140.0923  156.7089 H   0  0  0  0  0  0  0  0  0  0  0  0  # atno 8009 bound_to 7997
  155.4848  140.3446  155.4347 H   0  0  0  0  0  0  0  0  0  0  0  0  # atno 8010 bound_to 7997
  140.4307  144.1329  150.6159 H   0  0  0  0  0  0  0  0  0  0  0  0  # atno 10167 bound_to 10162
  156.8332  130.9660  151.3105 H   0  0  0  0  0  0  0  0  0  0  0  0  # atno 10718 bound_to 10713
  153.0589  135.5024  154.8048 H   0  0  0  0  0  0  0  0  0  0  0  0  # atno 10763 bound_to 10752
  154.6852  135.2975  154.9560 H   0  0  0  0  0  0  0  0  0  0  0  0  # atno 10764 bound_to 10752
  154.0333  135.6727  153.4835 H   0  0  0  0  0  0  0  0  0  0  0  0  # atno 10765 bound_to 10752
  139.8850  134.9440  156.6023 H   0  0  0  0  0  0  0  0  0  0  0  0  # atno 11005 bound_to 11000
  145.1134  139.2742  143.5626 LP  0  0  0  0  0  0  0  0  0  0  0  0  # atno 17320 bound_to 7965
  146.3531  140.0736  142.8622 LP  0  0  0  0  0  0  0  0  0  0  0  0  # atno 17321 bound_to 7965
  140.4431  143.2518  151.9447 LP  0  0  0  0  0  0  0  0  0  0  0  0  # atno 17342 bound_to 10162
  139.4785  144.5635  151.8201 LP  0  0  0  0  0  0  0  0  0  0  0  0  # atno 17343 bound_to 10162
  157.6395  130.8794  149.9422 LP  0  0  0  0  0  0  0  0  0  0  0  0  # atno 17370 bound_to 10713
  156.0922  130.3662  150.0373 LP  0  0  0  0  0  0  0  0  0  0  0  0  # atno 17371 bound_to 10713
  140.7874  133.8610  155.8618 LP  0  0  0  0  0  0  0  0  0  0  0  0  # atno 17394 bound_to 11000
  140.9707  134.1535  157.4579 LP  0  0  0  0  0  0  0  0  0  0  0  0  # atno 17395 bound_to 11000

$$$$
