AV-unprocessed.smi:2451|AV-procd|sdf|9670|dock7
  -GOLD-   2272013313D 1   1.00000     0.00000
 Structure written by MMmdl.
 38 39  0  0  0  0  0  0  0  0  1 V2000
  152.3873  144.9294  158.4029 C   0  0  0  0  0  0  0  0  0  0  0  0
  152.7125  143.4871  158.8252 C   0  0  1  0  0  0  0  0  0  0  0  0
  152.6007  143.2984  160.3533 C   0  0  0  0  0  0  0  0  0  0  0  0
  153.0227  141.8835  160.7847 C   0  0  0  0  0  0  0  0  0  0  0  0
  152.2452  140.7997  160.0218 C   0  0  0  0  0  0  0  0  0  0  0  0
  152.3682  141.0082  158.5019 C   0  0  1  0  0  0  0  0  0  0  0  0
  151.6560  139.9510  157.7789 N   0  0  0  0  0  0  0  0  0  0  0  0
  152.4675  138.4594  157.4825 S   0  0  0  0  0  0  0  0  0  0  0  0
  153.8171  138.5661  158.0587 O   0  0  0  0  0  0  0  0  0  0  0  0
  151.5697  137.3767  157.9128 O   0  0  0  0  0  0  0  0  0  0  0  0
  152.6103  138.4385  155.6464 C   0  0  0  0  0  0  0  0  0  0  0  0
  151.2472  138.5890  155.0334 C   0  0  0  0  0  0  0  0  0  0  0  0
  150.3564  137.5703  154.5950 C   0  0  0  0  0  0  0  0  0  0  0  0
  149.2786  138.2676  154.1304 C   0  0  0  0  0  0  0  0  0  0  0  0
  149.4832  139.6024  154.2635 O   0  0  0  0  0  0  0  0  0  0  0  0
  150.7434  139.7977  154.8396 N   0  0  0  0  0  0  0  0  0  0  0  0
  151.8944  142.4145  158.0567 C   0  0  1  0  0  0  0  0  0  0  0  0
  150.3649  142.6080  158.1822 C   0  0  0  0  0  0  0  0  0  0  0  0
  151.3852  145.2275  158.7111 H   0  0  0  0  0  0  0  0  0  0  0  0
  152.4579  145.0489  157.3215 H   0  0  0  0  0  0  0  0  0  0  0  0
  153.0874  145.6319  158.8560 H   0  0  0  0  0  0  0  0  0  0  0  0
  153.7600  143.3291  158.5631 H   0  0  0  0  0  0  0  0  0  0  0  0
  153.2279  144.0303  160.8632 H   0  0  0  0  0  0  0  0  0  0  0  0
  151.5801  143.4942  160.6837 H   0  0  0  0  0  0  0  0  0  0  0  0
  154.0907  141.7548  160.6049 H   0  0  0  0  0  0  0  0  0  0  0  0
  152.8744  141.7621  161.8580 H   0  0  0  0  0  0  0  0  0  0  0  0
  152.6288  139.8162  160.2956 H   0  0  0  0  0  0  0  0  0  0  0  0
  151.1978  140.8148  160.3241 H   0  0  0  0  0  0  0  0  0  0  0  0
  153.4272  140.9242  158.2518 H   0  0  0  0  0  0  0  0  0  0  0  0
  150.7266  139.7973  158.1695 H   0  0  0  0  0  0  0  0  0  0  0  0
  153.2741  139.2492  155.3449 H   0  0  0  0  0  0  0  0  0  0  0  0
  153.0746  137.4991  155.3472 H   0  0  0  0  0  0  0  0  0  0  0  0
  150.4862  136.4986  154.6228 H   0  0  0  0  0  0  0  0  0  0  0  0
  148.3348  137.9729  153.6960 H   0  0  0  0  0  0  0  0  0  0  0  0
  152.1363  142.5164  156.9976 H   0  0  0  0  0  0  0  0  0  0  0  0
  150.0233  142.5441  159.2146 H   0  0  0  0  0  0  0  0  0  0  0  0
  149.8193  141.8570  157.6109 H   0  0  0  0  0  0  0  0  0  0  0  0
  150.0519  143.5754  157.7909 H   0  0  0  0  0  0  0  0  0  0  0  0
  1  2  1  0  0  0  0
  1 19  1  0  0  0  0
  1 20  1  0  0  0  0
  1 21  1  0  0  0  0
  2 17  1  0  0  0  0
  2  3  1  0  0  0  0
  2 22  1  0  0  0  0
  3  4  1  0  0  0  0
  3 23  1  0  0  0  0
  3 24  1  0  0  0  0
  4  5  1  0  0  0  0
  4 25  1  0  0  0  0
  4 26  1  0  0  0  0
  5  6  1  0  0  0  0
  5 27  1  0  0  0  0
  5 28  1  0  0  0  0
  6  7  1  0  0  0  0
  6 17  1  0  0  0  0
  6 29  1  0  0  0  0
  7  8  1  0  0  0  0
  7 30  1  0  0  0  0
  8  9  2  0  0  0  0
  8 10  2  0  0  0  0
  8 11  1  0  0  0  0
 11 12  1  0  0  0  0
 11 31  1  0  0  0  0
 11 32  1  0  0  0  0
 12 16  2  0  0  0  0
 12 13  1  0  0  0  0
 13 14  2  0  0  0  0
 13 33  1  0  0  0  0
 14 15  1  0  0  0  0
 14 34  1  0  0  0  0
 15 16  1  0  0  0  0
 17 18  1  0  0  0  0
 17 35  1  0  0  0  0
 18 36  1  0  0  0  0
 18 37  1  0  0  0  0
 18 38  1  0  0  0  0
M  END
> <s_m_source_file>
AV-unprocessed.smi

> <i_m_source_file_index>
2451

> <i_lp_mmshare_version>
43012

> <i_f3d_flags>
0

> <s_epik_input>
W0NIM11bQ0BASF0xW0NIMl1bQ0gyXVtDSDJdW0NASF0oW0NASF0xW0NIM10pW05IXVMoPU8pKD1PKVtDSDJdYzJbY0hdW2NIXW9uMg==

> <s_epik_cmdline>
J2VwaWtfcHl0aG9uJywgJy1waCcsICc3LjAnLCAnLXRuJywgJzgnLCAnLW1hJywgJzIwMCcsICctbWV0YWxfYmluZGluZycsICctaW1hZScsICc8aW5maWxlLm1hZT4nLCAnLW9tYWUnLCAnPG91dGZpbGUubWFlPic=

> <r_lp_tautomer_probability>
1

> <r_epik_Ionization_Penalty>
8.73668e-05

> <r_epik_Ionization_Penalty_Charging>
0

> <r_epik_Ionization_Penalty_Neutral>
8.73668e-05

> <r_epik_State_Penalty>
-0

> <r_epik_Charging_Adjusted_Penalty>
0

> <i_epik_Tot_Q>
0

> <i_epik_Tot_abs_Q>
0

> <r_epik_Metal_State_Penalty>
0.0716439

> <b_epik_Metal_Only>
0

> <s_lp_Force_Field>
OPLS_2005

> <r_lp_Energy>
8.89421

> <b_lp_Chiralities_Consistent>
1

> <s_lp_Variant>
AV-unprocessed.smi:2451-2

> <Gold.Version>
5.8.1

> <Gold.Id.Protein>
6NUR|6NUR_protein|mol2

> <Gold.PLP.Fitness>
42.7775

> <Gold.PLP.PLP>
-36.3587

> <Gold.PLP.part.hbond>
-2.2470

> <Gold.PLP.part.metal>
0.0000

> <Gold.PLP.part.buried>
-2.7166

> <Gold.PLP.part.nonpolar>
-32.2088

> <Gold.PLP.part.repulsive>
0.8775

> <Gold.PLP.ligand.clash>
0.0000

> <Gold.PLP.ligand.torsion>
0.8042

> <Gold.PLP.Chemscore.Hbond>
2.0000

> <Gold.PLP.Chemscore.CHOScore>
0.6279

> <Gold.PLP.Chemscore.Metal>
0.0000

> <Gold.Chemscore.Hbonds>
donor molecule, donor type, donor heavy atom, donor atom, acceptor molecule, acceptor atom, score
      P1  H  7989  7998       L1    16  1.00
      P1  H  7997  8009       L1     9  1.00
      L1  C    14    34       P1  7948  0.41

> <Gold.PLP.Chemscore.Internal.Correction>
0.1434

> <Gold.Rescore>
     Score         DG    S(hbond)    S(metal)    S(lipo)     H(rot)  DE(clash)    DE(int)     intcor
     19.20     -20.23       1.83        0.00     110.18       1.66       0.34       0.69       ----

> <Gold.Chemscore.Fitness>
19.1990

> <Gold.Chemscore.DG>
-20.2258

> <Gold.Chemscore.ZeroCoef>
-5.4800

> <Gold.Chemscore.Hbond>
1.8266

> <Gold.Chemscore.Metal>
0.0000

> <Gold.Chemscore.Lipo>
110.1842

> <Gold.Chemscore.Internal_Hbond>
0.0000

> <Gold.Chemscore.DEClash>
0.3404

> <Gold.Chemscore.DEInternal>
0.6864

> <Gold.Chemscore.Rot>
1.6588

> <Gold.Chemscore.Internal.Correction>
   9.000000E+99

> <Gold.Chemscore.Hbonds>
donor molecule, donor type, donor heavy atom, donor atom, acceptor molecule, acceptor atom, score
      P1  H  7989  7998       L1    16  0.32
      P1  H  7997  8009       L1     9  0.65

> <Gold.Chemscore.Hbond.Weighted>
-6.1009

> <Gold.Chemscore.Metal.Weighted>
-0.0000

> <Gold.Chemscore.Lipo.Weighted>
-12.8916

> <Gold.Chemscore.Internal_Hbond.Weighted>
0.0000

> <Gold.Chemscore.DEClash.Weighted>
0.3404

> <Gold.Chemscore.DEInternal.Weighted>
0.6864

> <Gold.Chemscore.Rot.Weighted>
4.2466

> <Gold.Chemscore.Internal.Correction.Weighted>
   9.000000E+99

> <Gold.Protein.RotatedTorsions>
[ 6907 6896 6895 6894 ] final   91.26 input  -60.11 | X-H torsion
[ 7974 7965 7964 7962 ] final  106.87 input  175.53 | X-H torsion
[ 8008 7997 7996 7995 ] final  144.47 input   59.86 | X-H torsion
[ 10167 10162 10161 10158 ] final  154.90 input  -65.29 | X-H torsion
[ 10718 10713 10712 10709 ] final -165.59 input   66.30 | X-H torsion
[ 10763 10752 10751 10750 ] final  148.23 input  -60.55 | X-H torsion
[ 11005 11000 10999 10996 ] final   32.71 input  -57.11 | X-H torsion

> <Gold.Protein.ActiveResidues>
 VAL166  LYS551  ARG553  GLY616  TRP617  ASP618  TYR619  PRO620  LYS621  CYS622 
 ASP623  PHE694  ASN695  SER759  ASP760  ASP761  ALA762  ILE779  LEU786  VAL792 
 PHE793  MET794  SER795  GLU796  ALA797  LYS798  CYS799  TRP800  GLU811  SER814 

> <Gold.Protein.RotatedAtoms>
  152.5449  134.1685  159.8586 H   0  0  0  0  0  0  0  0  0  0  0  0  # atno 6907 bound_to 6896
  151.1697  133.4785  159.2601 H   0  0  0  0  0  0  0  0  0  0  0  0  # atno 6908 bound_to 6896
  151.1288  135.0130  159.8628 H   0  0  0  0  0  0  0  0  0  0  0  0  # atno 6909 bound_to 6896
  145.3010  139.2569  143.3814 H   0  0  0  0  0  0  0  0  0  0  0  0  # atno 7974 bound_to 7965
  156.2907  140.2235  156.5058 H   0  0  0  0  0  0  0  0  0  0  0  0  # atno 8008 bound_to 7997
  154.7651  140.0470  157.1027 H   0  0  0  0  0  0  0  0  0  0  0  0  # atno 8009 bound_to 7997
  154.9943  140.3094  155.4896 H   0  0  0  0  0  0  0  0  0  0  0  0  # atno 8010 bound_to 7997
  139.4822  144.5146  151.7971 H   0  0  0  0  0  0  0  0  0  0  0  0  # atno 10167 bound_to 10162
  156.6557  130.9025  151.3021 H   0  0  0  0  0  0  0  0  0  0  0  0  # atno 10718 bound_to 10713
  154.0513  135.2881  155.3340 H   0  0  0  0  0  0  0  0  0  0  0  0  # atno 10763 bound_to 10752
  154.6867  135.5242  153.8340 H   0  0  0  0  0  0  0  0  0  0  0  0  # atno 10764 bound_to 10752
  153.0560  135.6595  154.0709 H   0  0  0  0  0  0  0  0  0  0  0  0  # atno 10765 bound_to 10752
  140.2706  134.3086  155.7829 H   0  0  0  0  0  0  0  0  0  0  0  0  # atno 11005 bound_to 11000
  146.3152  140.3524  142.8657 LP  0  0  0  0  0  0  0  0  0  0  0  0  # atno 17320 bound_to 7965
  144.9094  140.7738  143.5817 LP  0  0  0  0  0  0  0  0  0  0  0  0  # atno 17321 bound_to 7965
  140.4653  144.1664  150.5911 LP  0  0  0  0  0  0  0  0  0  0  0  0  # atno 17342 bound_to 10162
  140.4441  143.2514  151.9435 LP  0  0  0  0  0  0  0  0  0  0  0  0  # atno 17343 bound_to 10162
  157.7126  130.9459  150.1143 LP  0  0  0  0  0  0  0  0  0  0  0  0  # atno 17370 bound_to 10713
  156.2050  130.3662  149.8741 LP  0  0  0  0  0  0  0  0  0  0  0  0  # atno 17371 bound_to 10713
  141.2178  133.7465  156.9329 LP  0  0  0  0  0  0  0  0  0  0  0  0  # atno 17394 bound_to 11000
  140.1376  134.9315  157.2423 LP  0  0  0  0  0  0  0  0  0  0  0  0  # atno 17395 bound_to 11000

$$$$
