AV-unprocessed.smi:2390|AV-procd|sdf|9480|dock5
  -GOLD-   2272013113D 1   1.00000     0.00000
 Structure written by MMmdl.
 46 47  0  0  0  0  0  0  0  0  2 V2000
  152.9502  141.4530  160.5418 C   0  0  0  0  0  0  0  0  0  0  0  0
  152.4634  142.5014  159.5635 C   0  0  0  0  0  0  0  0  0  0  0  0
  152.9545  143.8200  159.6180 C   0  0  0  0  0  0  0  0  0  0  0  0
  152.4534  144.7523  158.6928 C   0  0  0  0  0  0  0  0  0  0  0  0
  151.4938  144.3301  157.7525 C   0  0  0  0  0  0  0  0  0  0  0  0
  151.0665  142.9773  157.7547 C   0  0  0  0  0  0  0  0  0  0  0  0
  150.0796  142.5293  156.8370 N   0  0  0  0  0  0  0  0  0  0  0  0
  149.6134  141.2808  156.6623 C   0  0  0  0  0  0  0  0  0  0  0  0
  149.9813  140.2897  157.2940 O   0  0  0  0  0  0  0  0  0  0  0  0
  148.6800  141.2382  155.6995 N   0  0  0  0  0  0  0  0  0  0  0  0
  147.9575  140.0440  155.2558 C   0  0  1  0  0  0  0  0  0  0  0  0
  146.4859  140.4097  155.0007 C   0  0  0  0  0  0  0  0  0  0  0  0
  148.6450  139.3628  154.0332 C   0  0  1  0  0  0  0  0  0  0  0  0
  150.0680  138.8630  154.3873 C   0  0  0  0  0  0  0  0  0  0  0  0
  147.7547  138.3005  153.4583 N   0  3  0  0  0  0  0  0  0  0  0  0
  147.1228  137.4525  154.5030 C   0  0  0  0  0  0  0  0  0  0  0  0
  146.3670  136.2779  153.8621 C   0  0  0  0  0  0  0  0  0  0  0  0
  145.3822  136.7816  152.9703 O   0  0  0  0  0  0  0  0  0  0  0  0
  145.9650  137.5297  151.9122 C   0  0  0  0  0  0  0  0  0  0  0  0
  146.7238  138.7418  152.4806 C   0  0  0  0  0  0  0  0  0  0  0  0
  151.5403  142.0954  158.6645 N   0  0  0  0  0  0  0  0  0  0  0  0
  153.9463  141.6977  160.9116 H   0  0  0  0  0  0  0  0  0  0  0  0
  152.9977  140.4708  160.0699 H   0  0  0  0  0  0  0  0  0  0  0  0
  152.2731  141.3925  161.3943 H   0  0  0  0  0  0  0  0  0  0  0  0
  153.6898  144.1132  160.3532 H   0  0  0  0  0  0  0  0  0  0  0  0
  152.7938  145.7771  158.7071 H   0  0  0  0  0  0  0  0  0  0  0  0
  151.0942  145.0517  157.0565 H   0  0  0  0  0  0  0  0  0  0  0  0
  149.6062  143.2589  156.3245 H   0  0  0  0  0  0  0  0  0  0  0  0
  148.4406  142.1044  155.2387 H   0  0  0  0  0  0  0  0  0  0  0  0
  147.9319  139.3387  156.0865 H   0  0  0  0  0  0  0  0  0  0  0  0
  145.9216  139.5452  154.6494 H   0  0  0  0  0  0  0  0  0  0  0  0
  146.3792  141.2031  154.2614 H   0  0  0  0  0  0  0  0  0  0  0  0
  146.0093  140.7578  155.9178 H   0  0  0  0  0  0  0  0  0  0  0  0
  148.7777  140.1186  153.2574 H   0  0  0  0  0  0  0  0  0  0  0  0
  150.6850  139.6639  154.7922 H   0  0  0  0  0  0  0  0  0  0  0  0
  150.5996  138.4986  153.5082 H   0  0  0  0  0  0  0  0  0  0  0  0
  150.0476  138.0619  155.1265 H   0  0  0  0  0  0  0  0  0  0  0  0
  147.8703  137.0581  155.1898 H   0  0  0  0  0  0  0  0  0  0  0  0
  146.4351  138.0557  155.0975 H   0  0  0  0  0  0  0  0  0  0  0  0
  147.0528  135.6124  153.3352 H   0  0  0  0  0  0  0  0  0  0  0  0
  145.8740  135.6834  154.6315 H   0  0  0  0  0  0  0  0  0  0  0  0
  146.6318  136.8940  151.3267 H   0  0  0  0  0  0  0  0  0  0  0  0
  145.1745  137.8637  151.2400 H   0  0  0  0  0  0  0  0  0  0  0  0
  146.0278  139.4296  152.9632 H   0  0  0  0  0  0  0  0  0  0  0  0
  147.1801  139.2667  151.6419 H   0  0  0  0  0  0  0  0  0  0  0  0
  148.3703  137.6920  152.9365 H   0  0  0  0  0  0  0  0  0  0  0  0
  1  2  1  0  0  0  0
  1 22  1  0  0  0  0
  1 23  1  0  0  0  0
  1 24  1  0  0  0  0
  2 21  1  0  0  0  0
  2  3  2  0  0  0  0
  3  4  1  0  0  0  0
  3 25  1  0  0  0  0
  4  5  2  0  0  0  0
  4 26  1  0  0  0  0
  5  6  1  0  0  0  0
  5 27  1  0  0  0  0
  6  7  1  0  0  0  0
  6 21  2  0  0  0  0
  7  8  1  0  0  0  0
  7 28  1  0  0  0  0
  8  9  2  0  0  0  0
  8 10  1  0  0  0  0
 10 11  1  0  0  0  0
 10 29  1  0  0  0  0
 11 12  1  0  0  0  0
 11 13  1  0  0  0  0
 11 30  1  0  0  0  0
 12 31  1  0  0  0  0
 12 32  1  0  0  0  0
 12 33  1  0  0  0  0
 13 14  1  0  0  0  0
 13 15  1  0  0  0  0
 13 34  1  0  0  0  0
 14 35  1  0  0  0  0
 14 36  1  0  0  0  0
 14 37  1  0  0  0  0
 15 20  1  0  0  0  0
 15 16  1  0  0  0  0
 15 46  1  0  0  0  0
 16 17  1  0  0  0  0
 16 38  1  0  0  0  0
 16 39  1  0  0  0  0
 17 18  1  0  0  0  0
 17 40  1  0  0  0  0
 17 41  1  0  0  0  0
 18 19  1  0  0  0  0
 19 20  1  0  0  0  0
 19 42  1  0  0  0  0
 19 43  1  0  0  0  0
 20 44  1  0  0  0  0
 20 45  1  0  0  0  0
M  CHG  1  15   1
M  END
> <s_m_source_file>
AV-unprocessed.smi

> <i_m_source_file_index>
2390

> <i_lp_mmshare_version>
43012

> <i_f3d_flags>
0

> <s_epik_input>
W0NIM11jMVtjSF1bY0hdW2NIXWMobjEpW05IXUMoPU8pW05IXVtDQEhdKFtDSDNdKVtDQEhdKFtDSDNdKU4yW0NIMl1bQ0gyXU9bQ0gyXVtDSDJdMg==

> <s_epik_cmdline>
J2VwaWtfcHl0aG9uJywgJy1waCcsICc3LjAnLCAnLXRuJywgJzgnLCAnLW1hJywgJzIwMCcsICctbWV0YWxfYmluZGluZycsICctaW1hZScsICc8aW5maWxlLm1hZT4nLCAnLW9tYWUnLCAnPG91dGZpbGUubWFlPic=

> <r_epik_Ionization_Penalty>
0.60259

> <r_epik_Ionization_Penalty_Charging>
0.602531

> <r_epik_Ionization_Penalty_Neutral>
5.9516e-05

> <r_epik_State_Penalty>
0.617039

> <r_epik_Charging_Adjusted_Penalty>
1.21957

> <i_epik_Tot_Q>
1

> <i_epik_Tot_abs_Q>
1

> <r_epik_Metal_State_Penalty>
0.617047

> <b_epik_Metal_Only>
0

> <s_lp_Force_Field>
OPLS_2005

> <r_lp_Energy>
33.8146

> <b_lp_Chiralities_Consistent>
1

> <s_lp_Variant>
AV-unprocessed.smi:2390-8

> <Gold.Version>
5.8.1

> <Gold.Id.Protein>
6NUR|6NUR_protein|mol2

> <Gold.PLP.Fitness>
45.3739

> <Gold.PLP.PLP>
-38.0795

> <Gold.PLP.part.hbond>
-2.0000

> <Gold.PLP.part.metal>
0.0000

> <Gold.PLP.part.buried>
-2.5113

> <Gold.PLP.part.nonpolar>
-34.3331

> <Gold.PLP.part.repulsive>
0.2887

> <Gold.PLP.ligand.clash>
0.0000

> <Gold.PLP.ligand.torsion>
0.9237

> <Gold.PLP.Chemscore.Hbond>
3.0000

> <Gold.PLP.Chemscore.CHOScore>
0.0000

> <Gold.PLP.Chemscore.Metal>
0.0000

> <Gold.Chemscore.Hbonds>
donor molecule, donor type, donor heavy atom, donor atom, acceptor molecule, acceptor atom, score
      L1  H     7    28       P1  8028  1.00
      L1  H    15    46       P1  7948  2.00

> <Gold.PLP.Chemscore.Internal.Correction>
0.1418

> <Gold.Rescore>
     Score         DG    S(hbond)    S(metal)    S(lipo)     H(rot)  DE(clash)    DE(int)     intcor
     17.52     -20.15       1.98        0.00     101.29       1.48       0.30       2.33       ----

> <Gold.Chemscore.Fitness>
17.5231

> <Gold.Chemscore.DG>
-20.1507

> <Gold.Chemscore.ZeroCoef>
-5.4800

> <Gold.Chemscore.Hbond>
1.9821

> <Gold.Chemscore.Metal>
0.0000

> <Gold.Chemscore.Lipo>
101.2853

> <Gold.Chemscore.Internal_Hbond>
0.0000

> <Gold.Chemscore.DEClash>
0.2951

> <Gold.Chemscore.DEInternal>
2.3326

> <Gold.Chemscore.Rot>
1.4844

> <Gold.Chemscore.Internal.Correction>
   9.000000E+99

> <Gold.Chemscore.Hbonds>
donor molecule, donor type, donor heavy atom, donor atom, acceptor molecule, acceptor atom, score
      L1  H     7    28       P1  8028  1.00
      L1  H    15    46       P1  7948  1.00

> <Gold.Chemscore.Hbond.Weighted>
-6.6203

> <Gold.Chemscore.Metal.Weighted>
-0.0000

> <Gold.Chemscore.Lipo.Weighted>
-11.8504

> <Gold.Chemscore.Internal_Hbond.Weighted>
0.0000

> <Gold.Chemscore.DEClash.Weighted>
0.2951

> <Gold.Chemscore.DEInternal.Weighted>
2.3326

> <Gold.Chemscore.Rot.Weighted>
3.8000

> <Gold.Chemscore.Internal.Correction.Weighted>
   9.000000E+99

> <Gold.Protein.RotatedTorsions>
[ 6907 6896 6895 6894 ] final -113.59 input  -60.11 | X-H torsion
[ 7974 7965 7964 7962 ] final  -21.22 input  175.53 | X-H torsion
[ 8008 7997 7996 7995 ] final  -60.38 input   59.86 | X-H torsion
[ 10167 10162 10161 10158 ] final  160.46 input  -65.29 | X-H torsion
[ 10718 10713 10712 10709 ] final    0.38 input   66.30 | X-H torsion
[ 10763 10752 10751 10750 ] final  152.79 input  -60.55 | X-H torsion
[ 11005 11000 10999 10996 ] final -171.09 input  -57.11 | X-H torsion

> <Gold.Protein.ActiveResidues>
 VAL166  LYS551  ARG553  GLY616  TRP617  ASP618  TYR619  PRO620  LYS621  CYS622 
 ASP623  PHE694  ASN695  SER759  ASP760  ASP761  ALA762  ILE779  LEU786  VAL792 
 PHE793  MET794  SER795  GLU796  ALA797  LYS798  CYS799  TRP800  GLU811  SER814 

> <Gold.Protein.RotatedAtoms>
  150.7840  133.8922  159.3316 H   0  0  0  0  0  0  0  0  0  0  0  0  # atno 6907 bound_to 6896
  151.6778  135.0964  160.0219 H   0  0  0  0  0  0  0  0  0  0  0  0  # atno 6908 bound_to 6896
  152.3899  133.6626  159.6265 H   0  0  0  0  0  0  0  0  0  0  0  0  # atno 6909 bound_to 6896
  146.1745  140.4310  142.8519 H   0  0  0  0  0  0  0  0  0  0  0  0  # atno 7974 bound_to 7965
  154.4396  140.1041  156.6264 H   0  0  0  0  0  0  0  0  0  0  0  0  # atno 8008 bound_to 7997
  155.5652  140.3488  155.4482 H   0  0  0  0  0  0  0  0  0  0  0  0  # atno 8009 bound_to 7997
  156.0430  140.1286  157.0124 H   0  0  0  0  0  0  0  0  0  0  0  0  # atno 8010 bound_to 7997
  139.4840  144.4632  151.8677 H   0  0  0  0  0  0  0  0  0  0  0  0  # atno 10167 bound_to 10162
  156.8325  130.5493  149.5685 H   0  0  0  0  0  0  0  0  0  0  0  0  # atno 10718 bound_to 10713
  154.1258  135.2830  155.3197 H   0  0  0  0  0  0  0  0  0  0  0  0  # atno 10763 bound_to 10752
  154.6391  135.5409  153.7771 H   0  0  0  0  0  0  0  0  0  0  0  0  # atno 10764 bound_to 10752
  153.0297  135.6482  154.1410 H   0  0  0  0  0  0  0  0  0  0  0  0  # atno 10765 bound_to 10752
  140.5121  134.5791  157.5022 H   0  0  0  0  0  0  0  0  0  0  0  0  # atno 11005 bound_to 11000
  144.8214  140.6557  143.6350 LP  0  0  0  0  0  0  0  0  0  0  0  0  # atno 17320 bound_to 7965
  145.4249  139.1558  143.4054 LP  0  0  0  0  0  0  0  0  0  0  0  0  # atno 17321 bound_to 7965
  140.4095  144.2387  150.5889 LP  0  0  0  0  0  0  0  0  0  0  0  0  # atno 17342 bound_to 10162
  140.4980  143.2327  151.8721 LP  0  0  0  0  0  0  0  0  0  0  0  0  # atno 17343 bound_to 10162
  156.0926  130.5907  150.9759 LP  0  0  0  0  0  0  0  0  0  0  0  0  # atno 17370 bound_to 10713
  157.6399  131.0911  150.8272 LP  0  0  0  0  0  0  0  0  0  0  0  0  # atno 17371 bound_to 10713
  139.9653  134.7384  156.0152 LP  0  0  0  0  0  0  0  0  0  0  0  0  # atno 17394 bound_to 11000
  141.1380  133.6571  156.3647 LP  0  0  0  0  0  0  0  0  0  0  0  0  # atno 17395 bound_to 11000

$$$$
