AV-unprocessed.smi:295|AV-procd|sdf|2256|dock8
  -GOLD-   2262022143D 1   1.00000     0.00000
 Structure written by MMmdl.
 35 36  0  0  0  0  0  0  0  0  1 V2000
  152.7482  142.8557  161.9929 C   0  0  0  0  0  0  0  0  0  0  0  0
  152.5724  143.8056  160.7946 C   0  0  2  0  0  0  0  0  0  0  0  0
  151.1257  144.3359  160.7099 C   0  0  0  0  0  0  0  0  0  0  0  0
  150.9533  145.3272  159.5484 C   0  0  0  0  0  0  0  0  0  0  0  0
  151.3807  144.7026  158.2122 C   0  0  0  0  0  0  0  0  0  0  0  0
  152.8229  144.1701  158.2823 C   0  0  0  0  0  0  0  0  0  0  0  0
  153.0254  143.1819  159.4485 C   0  0  2  0  0  0  0  0  0  0  0  0
  152.3080  141.9374  159.1761 N   0  0  0  0  0  0  0  0  0  0  0  0
  152.8524  140.7243  158.9929 C   0  0  0  0  0  0  0  0  0  0  0  0
  154.0636  140.5170  158.9298 O   0  0  0  0  0  0  0  0  0  0  0  0
  151.8688  139.5577  158.9035 C   0  0  0  0  0  0  0  0  0  0  0  0
  152.5844  138.2950  158.8511 N   0  0  0  0  0  0  0  0  0  0  0  0
  152.7325  137.3428  159.7781 C   0  0  0  0  0  0  0  0  0  0  0  0
  153.4198  136.2865  159.3613 N   0  0  0  0  0  0  0  0  0  0  0  0
  153.6768  136.6916  158.0836 C   0  0  0  0  0  0  0  0  0  0  0  0
  154.4159  135.8535  157.1551 C   0  0  0  0  0  0  0  0  0  0  0  0
  155.0048  135.1867  156.4153 N   0  0  0  0  0  0  0  0  0  0  0  0
  153.2097  137.8839  157.7201 N   0  0  0  0  0  0  0  0  0  0  0  0
  152.0735  142.0010  161.9351 H   0  0  0  0  0  0  0  0  0  0  0  0
  152.5415  143.3711  162.9311 H   0  0  0  0  0  0  0  0  0  0  0  0
  153.7677  142.4732  162.0448 H   0  0  0  0  0  0  0  0  0  0  0  0
  153.2200  144.6641  160.9791 H   0  0  0  0  0  0  0  0  0  0  0  0
  150.4296  143.5048  160.5872 H   0  0  0  0  0  0  0  0  0  0  0  0
  150.8543  144.8246  161.6461 H   0  0  0  0  0  0  0  0  0  0  0  0
  149.9149  145.6540  159.4905 H   0  0  0  0  0  0  0  0  0  0  0  0
  151.5483  146.2209  159.7407 H   0  0  0  0  0  0  0  0  0  0  0  0
  150.6980  143.8929  157.9519 H   0  0  0  0  0  0  0  0  0  0  0  0
  151.2976  145.4413  157.4145 H   0  0  0  0  0  0  0  0  0  0  0  0
  153.0931  143.6980  157.3368 H   0  0  0  0  0  0  0  0  0  0  0  0
  153.5060  145.0112  158.4057 H   0  0  0  0  0  0  0  0  0  0  0  0
  154.0947  142.9737  159.5145 H   0  0  0  0  0  0  0  0  0  0  0  0
  151.2998  141.9914  159.2052 H   0  0  0  0  0  0  0  0  0  0  0  0
  151.1990  139.5642  159.7646 H   0  0  0  0  0  0  0  0  0  0  0  0
  151.2516  139.6512  158.0089 H   0  0  0  0  0  0  0  0  0  0  0  0
  152.3161  137.4185  160.7720 H   0  0  0  0  0  0  0  0  0  0  0  0
  1  2  1  0  0  0  0
  1 19  1  0  0  0  0
  1 20  1  0  0  0  0
  1 21  1  0  0  0  0
  2  7  1  0  0  0  0
  2  3  1  0  0  0  0
  2 22  1  0  0  0  0
  3  4  1  0  0  0  0
  3 23  1  0  0  0  0
  3 24  1  0  0  0  0
  4  5  1  0  0  0  0
  4 25  1  0  0  0  0
  4 26  1  0  0  0  0
  5  6  1  0  0  0  0
  5 27  1  0  0  0  0
  5 28  1  0  0  0  0
  6  7  1  0  0  0  0
  6 29  1  0  0  0  0
  6 30  1  0  0  0  0
  7  8  1  0  0  0  0
  7 31  1  0  0  0  0
  8  9  1  0  0  0  0
  8 32  1  0  0  0  0
  9 10  2  0  0  0  0
  9 11  1  0  0  0  0
 11 12  1  0  0  0  0
 11 33  1  0  0  0  0
 11 34  1  0  0  0  0
 12 18  1  0  0  0  0
 12 13  1  0  0  0  0
 13 14  2  0  0  0  0
 13 35  1  0  0  0  0
 14 15  1  0  0  0  0
 15 16  1  0  0  0  0
 15 18  2  0  0  0  0
 16 17  3  0  0  0  0
M  END
> <s_m_source_file>
AV-unprocessed.smi

> <i_m_source_file_index>
295

> <i_lp_mmshare_version>
43012

> <i_f3d_flags>
0

> <s_epik_input>
W0NIM11bQ0BASF0xW0NIMl1bQ0gyXVtDSDJdW0NIMl1bQ0BIXTFbTkhdQyg9TylbQ0gyXW4yW2NIXW5jKG4yKUMjTg==

> <s_epik_cmdline>
J2VwaWtfcHl0aG9uJywgJy1waCcsICc3LjAnLCAnLXRuJywgJzgnLCAnLW1hJywgJzIwMCcsICctbWV0YWxfYmluZGluZycsICctaW1hZScsICc8aW5maWxlLm1hZT4nLCAnLW9tYWUnLCAnPG91dGZpbGUubWFlPic=

> <r_lp_tautomer_probability>
1

> <r_epik_Ionization_Penalty>
5.31112e-08

> <r_epik_Ionization_Penalty_Charging>
0

> <r_epik_Ionization_Penalty_Neutral>
5.31112e-08

> <r_epik_State_Penalty>
-0

> <r_epik_Charging_Adjusted_Penalty>
0

> <i_epik_Tot_Q>
0

> <i_epik_Tot_abs_Q>
0

> <r_epik_Metal_State_Penalty>
-0

> <b_epik_Metal_Only>
0

> <s_lp_Force_Field>
OPLS_2005

> <r_lp_Energy>
12.1326

> <b_lp_Chiralities_Consistent>
1

> <s_lp_Variant>
AV-unprocessed.smi:295-3

> <Gold.Version>
5.8.1

> <Gold.Id.Protein>
6NUR|6NUR_protein|mol2

> <Gold.PLP.Fitness>
45.0134

> <Gold.PLP.PLP>
-37.6723

> <Gold.PLP.part.hbond>
-3.0000

> <Gold.PLP.part.metal>
0.0000

> <Gold.PLP.part.buried>
-4.7080

> <Gold.PLP.part.nonpolar>
-29.1560

> <Gold.PLP.part.repulsive>
0.0960

> <Gold.PLP.ligand.clash>
0.0000

> <Gold.PLP.ligand.torsion>
0.2160

> <Gold.PLP.Chemscore.Hbond>
2.5866

> <Gold.PLP.Chemscore.CHOScore>
0.0000

> <Gold.PLP.Chemscore.Metal>
0.0000

> <Gold.Chemscore.Hbonds>
donor molecule, donor type, donor heavy atom, donor atom, acceptor molecule, acceptor atom, score
      P1  H  6896  6908       L1    14  0.90
      P1  H  7997  8009       L1    10  0.72
      P1  H 10752 10764       L1    17  0.41

> <Gold.PLP.Chemscore.Internal.Correction>
0.0134

> <Gold.Rescore>
     Score         DG    S(hbond)    S(metal)    S(lipo)     H(rot)  DE(clash)    DE(int)     intcor
     17.14     -17.44       1.85        0.00      91.92       1.95       0.06       0.23       ----

> <Gold.Chemscore.Fitness>
17.1435

> <Gold.Chemscore.DG>
-17.4356

> <Gold.Chemscore.ZeroCoef>
-5.4800

> <Gold.Chemscore.Hbond>
1.8522

> <Gold.Chemscore.Metal>
0.0000

> <Gold.Chemscore.Lipo>
91.9185

> <Gold.Chemscore.Internal_Hbond>
0.0000

> <Gold.Chemscore.DEClash>
0.0627

> <Gold.Chemscore.DEInternal>
0.2294

> <Gold.Chemscore.Rot>
1.9474

> <Gold.Chemscore.Internal.Correction>
   9.000000E+99

> <Gold.Chemscore.Hbonds>
donor molecule, donor type, donor heavy atom, donor atom, acceptor molecule, acceptor atom, score
      P1  H  6896  6908       L1    14  0.17
      P1  H  7997  8009       L1    10  0.71
      P1  H 10752 10764       L1    17  0.14

> <Gold.Chemscore.Hbond.Weighted>
-6.1864

> <Gold.Chemscore.Metal.Weighted>
-0.0000

> <Gold.Chemscore.Lipo.Weighted>
-10.7545

> <Gold.Chemscore.Internal_Hbond.Weighted>
0.0000

> <Gold.Chemscore.DEClash.Weighted>
0.0627

> <Gold.Chemscore.DEInternal.Weighted>
0.2294

> <Gold.Chemscore.Rot.Weighted>
4.9852

> <Gold.Chemscore.Internal.Correction.Weighted>
   9.000000E+99

> <Gold.Protein.RotatedTorsions>
[ 6907 6896 6895 6894 ] final  -78.54 input  -60.11 | X-H torsion
[ 7974 7965 7964 7962 ] final -101.85 input  175.53 | X-H torsion
[ 8008 7997 7996 7995 ] final  126.23 input   59.86 | X-H torsion
[ 10167 10162 10161 10158 ] final   87.30 input  -65.29 | X-H torsion
[ 10718 10713 10712 10709 ] final  -39.64 input   66.30 | X-H torsion
[ 10763 10752 10751 10750 ] final   41.92 input  -60.55 | X-H torsion
[ 11005 11000 10999 10996 ] final  -96.35 input  -57.11 | X-H torsion

> <Gold.Protein.ActiveResidues>
 VAL166  LYS551  ARG553  GLY616  TRP617  ASP618  TYR619  PRO620  LYS621  CYS622 
 ASP623  PHE694  ASN695  SER759  ASP760  ASP761  ALA762  ILE779  LEU786  VAL792 
 PHE793  MET794  SER795  GLU796  ALA797  LYS798  CYS799  TRP800  GLU811  SER814 

> <Gold.Protein.RotatedAtoms>
  150.6970  134.4257  159.5224 H   0  0  0  0  0  0  0  0  0  0  0  0  # atno 6907 bound_to 6896
  152.1992  134.8600  160.0519 H   0  0  0  0  0  0  0  0  0  0  0  0  # atno 6908 bound_to 6896
  151.9527  133.3636  159.4043 H   0  0  0  0  0  0  0  0  0  0  0  0  # atno 6909 bound_to 6896
  145.2762  140.9313  143.2958 H   0  0  0  0  0  0  0  0  0  0  0  0  # atno 7974 bound_to 7965
  156.2858  140.2697  156.2078 H   0  0  0  0  0  0  0  0  0  0  0  0  # atno 8008 bound_to 7997
  155.0295  140.0386  157.2487 H   0  0  0  0  0  0  0  0  0  0  0  0  # atno 8009 bound_to 7997
  154.7366  140.2717  155.6414 H   0  0  0  0  0  0  0  0  0  0  0  0  # atno 8010 bound_to 7997
  139.8788  144.6452  150.8866 H   0  0  0  0  0  0  0  0  0  0  0  0  # atno 10167 bound_to 10162
  156.2902  130.4227  149.8246 H   0  0  0  0  0  0  0  0  0  0  0  0  # atno 10718 bound_to 10713
  152.9896  135.6147  154.2866 H   0  0  0  0  0  0  0  0  0  0  0  0  # atno 10763 bound_to 10752
  154.2593  135.2783  155.2786 H   0  0  0  0  0  0  0  0  0  0  0  0  # atno 10764 bound_to 10752
  154.5220  135.5812  153.6745 H   0  0  0  0  0  0  0  0  0  0  0  0  # atno 10765 bound_to 10752
  141.1414  133.8091  157.0559 H   0  0  0  0  0  0  0  0  0  0  0  0  # atno 11005 bound_to 11000
  144.9292  139.4319  143.6503 LP  0  0  0  0  0  0  0  0  0  0  0  0  # atno 17320 bound_to 7965
  146.3231  139.8194  142.8930 LP  0  0  0  0  0  0  0  0  0  0  0  0  # atno 17321 bound_to 7965
  140.7748  143.3603  151.1842 LP  0  0  0  0  0  0  0  0  0  0  0  0  # atno 17342 bound_to 10162
  139.7215  143.9215  152.2987 LP  0  0  0  0  0  0  0  0  0  0  0  0  # atno 17343 bound_to 10162
  156.5662  130.8405  151.3343 LP  0  0  0  0  0  0  0  0  0  0  0  0  # atno 17370 bound_to 10713
  157.7340  130.9739  150.2007 LP  0  0  0  0  0  0  0  0  0  0  0  0  # atno 17371 bound_to 10713
  140.0602  134.9759  157.1292 LP  0  0  0  0  0  0  0  0  0  0  0  0  # atno 17394 bound_to 11000
  140.3859  134.2236  155.7168 LP  0  0  0  0  0  0  0  0  0  0  0  0  # atno 17395 bound_to 11000

$$$$
