AV-unprocessed.smi:818|AV-procd|sdf|3832|dock2
  -GOLD-   22720 1273D 1   1.00000     0.00000
 Structure written by MMmdl.
 44 45  0  0  0  0  0  0  0  0  1 V2000
  149.7501  141.9578  156.6964 C   0  0  0  0  0  0  0  0  0  0  0  0
  151.1848  141.6305  156.2669 C   0  0  0  0  0  0  0  0  0  0  0  0
  151.2732  140.3214  155.6506 N   0  0  0  0  0  0  0  0  0  0  0  0
  150.2483  139.4401  155.3685 C   0  0  0  0  0  0  0  0  0  0  0  0
  150.8430  138.3576  154.7845 C   0  0  0  0  0  0  0  0  0  0  0  0
  150.2556  137.1639  154.2947 N   0  0  0  0  0  0  0  0  0  0  0  0
  149.6847  136.1827  155.0122 C   0  0  0  0  0  0  0  0  0  0  0  0
  149.5938  136.1634  156.2401 O   0  0  0  0  0  0  0  0  0  0  0  0
  149.2139  135.2092  154.2186 N   0  0  0  0  0  0  0  0  0  0  0  0
  148.5076  134.0147  154.6796 C   0  0  2  0  0  0  0  0  0  0  0  0
  149.4970  132.8377  154.6603 C   0  0  0  0  0  0  0  0  0  0  0  0
  147.3429  133.6778  153.7349 C   0  0  0  0  0  0  0  0  0  0  0  0
  146.6103  132.7131  153.9608 O   0  0  0  0  0  0  0  0  0  0  0  0
  147.1792  134.4943  152.6833 N   0  0  0  0  0  0  0  0  0  0  0  0
  146.1438  134.3500  151.6643 C   0  0  0  0  0  0  0  0  0  0  0  0
  144.7635  134.0587  152.2906 C   0  0  0  0  0  0  0  0  0  0  0  0
  144.2045  132.8476  151.5416 C   0  0  0  0  0  0  0  0  0  0  0  0
  145.4417  132.0707  151.1037 C   0  0  0  0  0  0  0  0  0  0  0  0
  146.4547  133.1573  150.7419 C   0  0  0  0  0  0  0  0  0  0  0  0
  152.2305  138.6522  154.7449 C   0  0  0  0  0  0  0  0  0  0  0  0
  152.4831  139.8414  155.2702 N   0  0  0  0  0  0  0  0  0  0  0  0
  149.6998  142.9431  157.1600 H   0  0  0  0  0  0  0  0  0  0  0  0
  149.3803  141.2301  157.4195 H   0  0  0  0  0  0  0  0  0  0  0  0
  149.0717  141.9570  155.8425 H   0  0  0  0  0  0  0  0  0  0  0  0
  151.5512  142.3783  155.5620 H   0  0  0  0  0  0  0  0  0  0  0  0
  151.8512  141.6550  157.1299 H   0  0  0  0  0  0  0  0  0  0  0  0
  149.2181  139.6647  155.6025 H   0  0  0  0  0  0  0  0  0  0  0  0
  150.2618  137.0503  153.2917 H   0  0  0  0  0  0  0  0  0  0  0  0
  149.3267  135.3120  153.2208 H   0  0  0  0  0  0  0  0  0  0  0  0
  148.1399  134.1677  155.6963 H   0  0  0  0  0  0  0  0  0  0  0  0
  149.0227  131.9159  154.9996 H   0  0  0  0  0  0  0  0  0  0  0  0
  150.3420  133.0291  155.3225 H   0  0  0  0  0  0  0  0  0  0  0  0
  149.8964  132.6581  153.6608 H   0  0  0  0  0  0  0  0  0  0  0  0
  147.8244  135.2631  152.5742 H   0  0  0  0  0  0  0  0  0  0  0  0
  146.1015  135.2588  151.0608 H   0  0  0  0  0  0  0  0  0  0  0  0
  144.8652  133.8052  153.3473 H   0  0  0  0  0  0  0  0  0  0  0  0
  144.0953  134.9186  152.2308 H   0  0  0  0  0  0  0  0  0  0  0  0
  143.5282  132.2508  152.1543 H   0  0  0  0  0  0  0  0  0  0  0  0
  143.6517  133.1815  150.6625 H   0  0  0  0  0  0  0  0  0  0  0  0
  145.8186  131.4784  151.9386 H   0  0  0  0  0  0  0  0  0  0  0  0
  145.2405  131.3912  150.2750 H   0  0  0  0  0  0  0  0  0  0  0  0
  146.3005  133.4578  149.7047 H   0  0  0  0  0  0  0  0  0  0  0  0
  147.4834  132.8024  150.8214 H   0  0  0  0  0  0  0  0  0  0  0  0
  153.0454  138.0570  154.3598 H   0  0  0  0  0  0  0  0  0  0  0  0
  1  2  1  0  0  0  0
  1 22  1  0  0  0  0
  1 23  1  0  0  0  0
  1 24  1  0  0  0  0
  2  3  1  0  0  0  0
  2 25  1  0  0  0  0
  2 26  1  0  0  0  0
  3 21  1  0  0  0  0
  3  4  1  0  0  0  0
  4  5  2  0  0  0  0
  4 27  1  0  0  0  0
  5  6  1  0  0  0  0
  5 20  1  0  0  0  0
  6  7  1  0  0  0  0
  6 28  1  0  0  0  0
  7  8  2  0  0  0  0
  7  9  1  0  0  0  0
  9 10  1  0  0  0  0
  9 29  1  0  0  0  0
 10 11  1  0  0  0  0
 10 12  1  0  0  0  0
 10 30  1  0  0  0  0
 11 31  1  0  0  0  0
 11 32  1  0  0  0  0
 11 33  1  0  0  0  0
 12 13  2  0  0  0  0
 12 14  1  0  0  0  0
 14 15  1  0  0  0  0
 14 34  1  0  0  0  0
 15 19  1  0  0  0  0
 15 16  1  0  0  0  0
 15 35  1  0  0  0  0
 16 17  1  0  0  0  0
 16 36  1  0  0  0  0
 16 37  1  0  0  0  0
 17 18  1  0  0  0  0
 17 38  1  0  0  0  0
 17 39  1  0  0  0  0
 18 19  1  0  0  0  0
 18 40  1  0  0  0  0
 18 41  1  0  0  0  0
 19 42  1  0  0  0  0
 19 43  1  0  0  0  0
 20 21  2  0  0  0  0
 20 44  1  0  0  0  0
M  END
> <s_m_source_file>
AV-unprocessed.smi

> <i_m_source_file_index>
818

> <i_lp_mmshare_version>
43012

> <i_f3d_flags>
0

> <s_epik_input>
W0NIM11bQ0gyXW4xW2NIXWMoW2NIXW4xKVtOSF1DKD1PKVtOSF1bQ0BIXShbQ0gzXSlDKD1PKVtOSF1bQ0hdMltDSDJdW0NIMl1bQ0gyXVtDSDJdMg==

> <s_epik_cmdline>
J2VwaWtfcHl0aG9uJywgJy1waCcsICc3LjAnLCAnLXRuJywgJzgnLCAnLW1hJywgJzIwMCcsICctbWV0YWxfYmluZGluZycsICctaW1hZScsICc8aW5maWxlLm1hZT4nLCAnLW9tYWUnLCAnPG91dGZpbGUubWFlPic=

> <r_lp_tautomer_probability>
1

> <r_epik_Ionization_Penalty>
0.00015627

> <r_epik_Ionization_Penalty_Charging>
0

> <r_epik_Ionization_Penalty_Neutral>
0.00015627

> <r_epik_State_Penalty>
-0

> <r_epik_Charging_Adjusted_Penalty>
0

> <i_epik_Tot_Q>
0

> <i_epik_Tot_abs_Q>
0

> <r_epik_Metal_State_Penalty>
-0

> <b_epik_Metal_Only>
0

> <s_lp_Force_Field>
OPLS_2005

> <r_lp_Energy>
21.5062

> <b_lp_Chiralities_Consistent>
1

> <s_lp_Variant>
AV-unprocessed.smi:818-1

> <Gold.Version>
5.8.1

> <Gold.Id.Protein>
6NUR|6NUR_protein|mol2

> <Gold.PLP.Fitness>
44.2951

> <Gold.PLP.PLP>
-37.3396

> <Gold.PLP.part.hbond>
-5.7973

> <Gold.PLP.part.metal>
0.0000

> <Gold.PLP.part.buried>
-4.0964

> <Gold.PLP.part.nonpolar>
-28.2490

> <Gold.PLP.part.repulsive>
0.2036

> <Gold.PLP.ligand.clash>
0.0000

> <Gold.PLP.ligand.torsion>
1.1024

> <Gold.PLP.Chemscore.Hbond>
3.0385

> <Gold.PLP.Chemscore.CHOScore>
0.0000

> <Gold.PLP.Chemscore.Metal>
0.0000

> <Gold.Chemscore.Hbonds>
donor molecule, donor type, donor heavy atom, donor atom, acceptor molecule, acceptor atom, score
      L1  H     6    28       P1  7948  0.46
      L1  H     9    29       P1  7948  0.72
      L1  H    14    34       P1  7948  1.00
      P1  H  7997  8008       L1    21  0.88

> <Gold.PLP.Chemscore.Internal.Correction>
0.0447

> <Gold.Rescore>
     Score         DG    S(hbond)    S(metal)    S(lipo)     H(rot)  DE(clash)    DE(int)     intcor
     15.35     -17.78       2.66        0.00      65.92       1.68       0.00       2.43       ----

> <Gold.Chemscore.Fitness>
15.3500

> <Gold.Chemscore.DG>
-17.7797

> <Gold.Chemscore.ZeroCoef>
-5.4800

> <Gold.Chemscore.Hbond>
2.6633

> <Gold.Chemscore.Metal>
0.0000

> <Gold.Chemscore.Lipo>
65.9183

> <Gold.Chemscore.Internal_Hbond>
0.0000

> <Gold.Chemscore.DEClash>
0.0000

> <Gold.Chemscore.DEInternal>
2.4297

> <Gold.Chemscore.Rot>
1.6828

> <Gold.Chemscore.Internal.Correction>
   9.000000E+99

> <Gold.Chemscore.Hbonds>
donor molecule, donor type, donor heavy atom, donor atom, acceptor molecule, acceptor atom, score
      L1  H     6    28       P1  7948  0.04
      L1  H     9    29       P1  7948  0.09
      L1  H    14    34       P1  7948  0.98
      P1  H  7997  8008       L1    21  0.82

> <Gold.Chemscore.Hbond.Weighted>
-8.8954

> <Gold.Chemscore.Metal.Weighted>
-0.0000

> <Gold.Chemscore.Lipo.Weighted>
-7.7124

> <Gold.Chemscore.Internal_Hbond.Weighted>
0.0000

> <Gold.Chemscore.DEClash.Weighted>
0.0000

> <Gold.Chemscore.DEInternal.Weighted>
2.4297

> <Gold.Chemscore.Rot.Weighted>
4.3081

> <Gold.Chemscore.Internal.Correction.Weighted>
   9.000000E+99

> <Gold.Protein.RotatedTorsions>
[ 6907 6896 6895 6894 ] final   23.80 input  -60.11 | X-H torsion
[ 7974 7965 7964 7962 ] final  -23.01 input  175.53 | X-H torsion
[ 8008 7997 7996 7995 ] final  -23.95 input   59.86 | X-H torsion
[ 10167 10162 10161 10158 ] final   78.25 input  -65.29 | X-H torsion
[ 10718 10713 10712 10709 ] final -112.96 input   66.30 | X-H torsion
[ 10763 10752 10751 10750 ] final  107.23 input  -60.55 | X-H torsion
[ 11005 11000 10999 10996 ] final  156.60 input  -57.11 | X-H torsion

> <Gold.Protein.ActiveResidues>
 VAL166  LYS551  ARG553  GLY616  TRP617  ASP618  TYR619  PRO620  LYS621  CYS622 
 ASP623  PHE694  ASN695  SER759  ASP760  ASP761  ALA762  ILE779  LEU786  VAL792 
 PHE793  MET794  SER795  GLU796  ALA797  LYS798  CYS799  TRP800  GLU811  SER814 

> <Gold.Protein.RotatedAtoms>
  151.9479  135.0183  160.0539 H   0  0  0  0  0  0  0  0  0  0  0  0  # atno 6907 bound_to 6896
  152.1979  133.4815  159.5051 H   0  0  0  0  0  0  0  0  0  0  0  0  # atno 6908 bound_to 6896
  150.6948  134.1545  159.4196 H   0  0  0  0  0  0  0  0  0  0  0  0  # atno 6909 bound_to 6896
  146.1642  140.4557  142.8559 H   0  0  0  0  0  0  0  0  0  0  0  0  # atno 7974 bound_to 7965
  154.4556  140.1967  156.0389 H   0  0  0  0  0  0  0  0  0  0  0  0  # atno 8008 bound_to 7997
  156.0739  140.3280  155.7582 H   0  0  0  0  0  0  0  0  0  0  0  0  # atno 8009 bound_to 7997
  155.5219  140.0570  157.2896 H   0  0  0  0  0  0  0  0  0  0  0  0  # atno 8010 bound_to 7997
  139.9729  144.5881  150.7969 H   0  0  0  0  0  0  0  0  0  0  0  0  # atno 10167 bound_to 10162
  156.0737  130.5947  150.8578 H   0  0  0  0  0  0  0  0  0  0  0  0  # atno 10718 bound_to 10713
  153.4039  135.3851  155.2005 H   0  0  0  0  0  0  0  0  0  0  0  0  # atno 10763 bound_to 10752
  154.8732  135.3778  154.4585 H   0  0  0  0  0  0  0  0  0  0  0  0  # atno 10764 bound_to 10752
  153.5085  135.7087  153.5855 H   0  0  0  0  0  0  0  0  0  0  0  0  # atno 10765 bound_to 10752
  140.1690  134.8556  157.2667 H   0  0  0  0  0  0  0  0  0  0  0  0  # atno 11005 bound_to 11000
  144.8069  140.6315  143.6441 LP  0  0  0  0  0  0  0  0  0  0  0  0  # atno 17320 bound_to 7965
  145.4511  139.1523  143.3918 LP  0  0  0  0  0  0  0  0  0  0  0  0  # atno 17321 bound_to 7965
  140.7515  143.2975  151.3167 LP  0  0  0  0  0  0  0  0  0  0  0  0  # atno 17342 bound_to 10162
  139.6467  144.0438  152.2596 LP  0  0  0  0  0  0  0  0  0  0  0  0  # atno 17343 bound_to 10162
  157.5821  131.0946  150.9254 LP  0  0  0  0  0  0  0  0  0  0  0  0  # atno 17370 bound_to 10713
  156.9447  130.5397  149.5281 LP  0  0  0  0  0  0  0  0  0  0  0  0  # atno 17371 bound_to 10713
  140.2400  134.3807  155.7485 LP  0  0  0  0  0  0  0  0  0  0  0  0  # atno 17394 bound_to 11000
  141.2216  133.7260  156.8773 LP  0  0  0  0  0  0  0  0  0  0  0  0  # atno 17395 bound_to 11000

$$$$
