AV-unprocessed.smi:1840|AV-procd|sdf|7495|dock6
  -GOLD-   22720 9193D 1   1.00000     0.00000
 Structure written by MMmdl.
 43 44  0  0  0  0  0  0  0  0  1 V2000
  146.6517  142.1627  154.3376 C   0  0  0  0  0  0  0  0  0  0  0  0
  147.7216  141.2973  155.0168 C   0  0  1  0  0  0  0  0  0  0  0  0
  148.5948  140.5619  153.9773 C   0  0  0  0  0  0  0  0  0  0  0  0
  149.4278  139.5315  154.5738 N   0  0  0  0  0  0  0  0  0  0  0  0
  149.0491  138.2949  155.0522 C   0  0  0  0  0  0  0  0  0  0  0  0
  150.1701  137.6876  155.5408 C   0  0  0  0  0  0  0  0  0  0  0  0
  151.1996  138.6427  155.3110 C   0  0  0  0  0  0  0  0  0  0  0  0
  150.7536  139.7431  154.7272 N   0  0  0  0  0  0  0  0  0  0  0  0
  148.5438  142.1442  155.8808 N   0  0  0  0  0  0  0  0  0  0  0  0
  149.2716  141.7159  156.9229 C   0  0  0  0  0  0  0  0  0  0  0  0
  149.2901  140.5509  157.3216 O   0  0  0  0  0  0  0  0  0  0  0  0
  150.0017  142.7035  157.4587 N   0  0  0  0  0  0  0  0  0  0  0  0
  150.9487  142.5448  158.5602 C   0  0  1  0  0  0  0  0  0  0  0  0
  151.7416  141.2321  158.3794 C   0  0  0  0  0  0  0  0  0  0  0  0
  152.7917  141.0480  159.4839 C   0  0  0  0  0  0  0  0  0  0  0  0
  153.7393  142.2533  159.5474 C   0  0  0  0  0  0  0  0  0  0  0  0
  152.9561  143.5601  159.7433 C   0  0  0  0  0  0  0  0  0  0  0  0
  151.8967  143.7674  158.6414 C   0  0  2  0  0  0  0  0  0  0  0  0
  151.1372  145.0877  158.8642 C   0  0  0  0  0  0  0  0  0  0  0  0
  145.9993  141.5562  153.7088 H   0  0  0  0  0  0  0  0  0  0  0  0
  147.1016  142.9303  153.7066 H   0  0  0  0  0  0  0  0  0  0  0  0
  146.0240  142.6632  155.0757 H   0  0  0  0  0  0  0  0  0  0  0  0
  147.1974  140.5528  155.6189 H   0  0  0  0  0  0  0  0  0  0  0  0
  147.9608  140.0838  153.2295 H   0  0  0  0  0  0  0  0  0  0  0  0
  149.2287  141.2693  153.4395 H   0  0  0  0  0  0  0  0  0  0  0  0
  148.0235  137.9584  155.0133 H   0  0  0  0  0  0  0  0  0  0  0  0
  150.2433  136.7114  155.9966 H   0  0  0  0  0  0  0  0  0  0  0  0
  152.2506  138.5695  155.5488 H   0  0  0  0  0  0  0  0  0  0  0  0
  148.6018  143.1213  155.6337 H   0  0  0  0  0  0  0  0  0  0  0  0
  149.9216  143.6264  157.0578 H   0  0  0  0  0  0  0  0  0  0  0  0
  150.3926  142.4873  159.4983 H   0  0  0  0  0  0  0  0  0  0  0  0
  151.0633  140.3778  158.3798 H   0  0  0  0  0  0  0  0  0  0  0  0
  152.2357  141.2301  157.4068 H   0  0  0  0  0  0  0  0  0  0  0  0
  152.2932  140.9222  160.4458 H   0  0  0  0  0  0  0  0  0  0  0  0
  153.3611  140.1349  159.3079 H   0  0  0  0  0  0  0  0  0  0  0  0
  154.4533  142.1224  160.3609 H   0  0  0  0  0  0  0  0  0  0  0  0
  154.3238  142.3096  158.6282 H   0  0  0  0  0  0  0  0  0  0  0  0
  152.4725  143.5489  160.7211 H   0  0  0  0  0  0  0  0  0  0  0  0
  153.6518  144.3999  159.7547 H   0  0  0  0  0  0  0  0  0  0  0  0
  152.4247  143.8504  157.6898 H   0  0  0  0  0  0  0  0  0  0  0  0
  150.5525  145.0559  159.7840 H   0  0  0  0  0  0  0  0  0  0  0  0
  150.4537  145.3039  158.0431 H   0  0  0  0  0  0  0  0  0  0  0  0
  151.8271  145.9285  158.9391 H   0  0  0  0  0  0  0  0  0  0  0  0
  1  2  1  0  0  0  0
  1 20  1  0  0  0  0
  1 21  1  0  0  0  0
  1 22  1  0  0  0  0
  2  3  1  0  0  0  0
  2  9  1  0  0  0  0
  2 23  1  0  0  0  0
  3  4  1  0  0  0  0
  3 24  1  0  0  0  0
  3 25  1  0  0  0  0
  4  8  1  0  0  0  0
  4  5  1  0  0  0  0
  5  6  2  0  0  0  0
  5 26  1  0  0  0  0
  6  7  1  0  0  0  0
  6 27  1  0  0  0  0
  7  8  2  0  0  0  0
  7 28  1  0  0  0  0
  9 10  1  0  0  0  0
  9 29  1  0  0  0  0
 10 11  2  0  0  0  0
 10 12  1  0  0  0  0
 12 13  1  0  0  0  0
 12 30  1  0  0  0  0
 13 18  1  0  0  0  0
 13 14  1  0  0  0  0
 13 31  1  0  0  0  0
 14 15  1  0  0  0  0
 14 32  1  0  0  0  0
 14 33  1  0  0  0  0
 15 16  1  0  0  0  0
 15 34  1  0  0  0  0
 15 35  1  0  0  0  0
 16 17  1  0  0  0  0
 16 36  1  0  0  0  0
 16 37  1  0  0  0  0
 17 18  1  0  0  0  0
 17 38  1  0  0  0  0
 17 39  1  0  0  0  0
 18 19  1  0  0  0  0
 18 40  1  0  0  0  0
 19 41  1  0  0  0  0
 19 42  1  0  0  0  0
 19 43  1  0  0  0  0
M  END
> <s_m_source_file>
AV-unprocessed.smi

> <i_m_source_file_index>
1840

> <i_lp_mmshare_version>
43012

> <i_f3d_flags>
0

> <s_epik_input>
bjFbY0hdW2NIXVtjSF1uMVtDSDJdW0NAQEhdKFtDSDNdKVtOSF1DKD1PKVtOSF1bQ0BASF0yW0NIMl1bQ0gyXVtDSDJdW0NIMl1bQ0BIXTJbQ0gzXQ==

> <s_epik_cmdline>
J2VwaWtfcHl0aG9uJywgJy1waCcsICc3LjAnLCAnLXRuJywgJzgnLCAnLW1hJywgJzIwMCcsICctbWV0YWxfYmluZGluZycsICctaW1hZScsICc8aW5maWxlLm1hZT4nLCAnLW9tYWUnLCAnPG91dGZpbGUubWFlPic=

> <r_lp_tautomer_probability>
1

> <r_epik_Ionization_Penalty>
7.38659e-05

> <r_epik_Ionization_Penalty_Charging>
0

> <r_epik_Ionization_Penalty_Neutral>
7.38659e-05

> <r_epik_State_Penalty>
-0

> <r_epik_Charging_Adjusted_Penalty>
0

> <i_epik_Tot_Q>
0

> <i_epik_Tot_abs_Q>
0

> <r_epik_Metal_State_Penalty>
-0

> <b_epik_Metal_Only>
0

> <s_lp_Force_Field>
OPLS_2005

> <r_lp_Energy>
7.84096

> <b_lp_Chiralities_Consistent>
1

> <s_lp_Variant>
AV-unprocessed.smi:1840-8

> <Gold.Version>
5.8.1

> <Gold.Id.Protein>
6NUR|6NUR_protein|mol2

> <Gold.PLP.Fitness>
48.6274

> <Gold.PLP.PLP>
-41.6123

> <Gold.PLP.part.hbond>
-3.0000

> <Gold.PLP.part.metal>
0.0000

> <Gold.PLP.part.buried>
-3.7603

> <Gold.PLP.part.nonpolar>
-36.1619

> <Gold.PLP.part.repulsive>
0.2339

> <Gold.PLP.ligand.clash>
0.0000

> <Gold.PLP.ligand.torsion>
0.7717

> <Gold.PLP.Chemscore.Hbond>
2.8480

> <Gold.PLP.Chemscore.CHOScore>
0.0000

> <Gold.PLP.Chemscore.Metal>
0.0000

> <Gold.Chemscore.Hbonds>
donor molecule, donor type, donor heavy atom, donor atom, acceptor molecule, acceptor atom, score
      L1  H     9    29       P1  8028  1.00
      L1  H    12    30       P1  8028  0.86
      P1  H  7989  7998       L1     8  1.00

> <Gold.PLP.Chemscore.Internal.Correction>
0.0145

> <Gold.Rescore>
     Score         DG    S(hbond)    S(metal)    S(lipo)     H(rot)  DE(clash)    DE(int)     intcor
     21.41     -23.84       2.90        0.00     108.33       1.56       0.48       1.95       ----

> <Gold.Chemscore.Fitness>
21.4079

> <Gold.Chemscore.DG>
-23.8434

> <Gold.Chemscore.ZeroCoef>
-5.4800

> <Gold.Chemscore.Hbond>
2.8970

> <Gold.Chemscore.Metal>
0.0000

> <Gold.Chemscore.Lipo>
108.3335

> <Gold.Chemscore.Internal_Hbond>
0.0000

> <Gold.Chemscore.DEClash>
0.4842

> <Gold.Chemscore.DEInternal>
1.9513

> <Gold.Chemscore.Rot>
1.5576

> <Gold.Chemscore.Internal.Correction>
   9.000000E+99

> <Gold.Chemscore.Hbonds>
donor molecule, donor type, donor heavy atom, donor atom, acceptor molecule, acceptor atom, score
      L1  H     9    29       P1  8028  0.99
      L1  H    12    30       P1  8028  0.77
      P1  H  7989  7998       L1     8  0.96

> <Gold.Chemscore.Hbond.Weighted>
-9.6759

> <Gold.Chemscore.Metal.Weighted>
-0.0000

> <Gold.Chemscore.Lipo.Weighted>
-12.6750

> <Gold.Chemscore.Internal_Hbond.Weighted>
0.0000

> <Gold.Chemscore.DEClash.Weighted>
0.4842

> <Gold.Chemscore.DEInternal.Weighted>
1.9513

> <Gold.Chemscore.Rot.Weighted>
3.9875

> <Gold.Chemscore.Internal.Correction.Weighted>
   9.000000E+99

> <Gold.Protein.RotatedTorsions>
[ 6907 6896 6895 6894 ] final  151.27 input  -60.11 | X-H torsion
[ 7974 7965 7964 7962 ] final -136.97 input  175.53 | X-H torsion
[ 8008 7997 7996 7995 ] final  169.58 input   59.86 | X-H torsion
[ 10167 10162 10161 10158 ] final -150.11 input  -65.29 | X-H torsion
[ 10718 10713 10712 10709 ] final -105.72 input   66.30 | X-H torsion
[ 10763 10752 10751 10750 ] final   -6.35 input  -60.55 | X-H torsion
[ 11005 11000 10999 10996 ] final -161.81 input  -57.11 | X-H torsion

> <Gold.Protein.ActiveResidues>
 VAL166  LYS551  ARG553  GLY616  TRP617  ASP618  TYR619  PRO620  LYS621  CYS622 
 ASP623  PHE694  ASN695  SER759  ASP760  ASP761  ALA762  ILE779  LEU786  VAL792 
 PHE793  MET794  SER795  GLU796  ALA797  LYS798  CYS799  TRP800  GLU811  SER814 

> <Gold.Protein.RotatedAtoms>
  152.1029  133.4259  159.4595 H   0  0  0  0  0  0  0  0  0  0  0  0  # atno 6907 bound_to 6896
  150.6864  134.2739  159.4608 H   0  0  0  0  0  0  0  0  0  0  0  0  # atno 6908 bound_to 6896
  152.0601  134.9599  160.0625 H   0  0  0  0  0  0  0  0  0  0  0  0  # atno 6909 bound_to 6896
  144.8881  140.6603  143.5163 H   0  0  0  0  0  0  0  0  0  0  0  0  # atno 7974 bound_to 7965
  156.1444  140.1560  156.8870 H   0  0  0  0  0  0  0  0  0  0  0  0  # atno 8008 bound_to 7997
  154.5015  140.0824  156.7846 H   0  0  0  0  0  0  0  0  0  0  0  0  # atno 8009 bound_to 7997
  155.4017  140.3414  155.4259 H   0  0  0  0  0  0  0  0  0  0  0  0  # atno 8010 bound_to 7997
  139.7383  143.8702  152.2555 H   0  0  0  0  0  0  0  0  0  0  0  0  # atno 10167 bound_to 10162
  156.0358  130.5578  150.7580 H   0  0  0  0  0  0  0  0  0  0  0  0  # atno 10718 bound_to 10713
  153.4112  135.7007  153.6358 H   0  0  0  0  0  0  0  0  0  0  0  0  # atno 10763 bound_to 10752
  153.4851  135.3685  155.2463 H   0  0  0  0  0  0  0  0  0  0  0  0  # atno 10764 bound_to 10752
  154.8717  135.4075  154.3464 H   0  0  0  0  0  0  0  0  0  0  0  0  # atno 10765 bound_to 10752
  140.6163  134.4797  157.5220 H   0  0  0  0  0  0  0  0  0  0  0  0  # atno 11005 bound_to 11000
  145.3832  139.1632  143.4269 LP  0  0  0  0  0  0  0  0  0  0  0  0  # atno 17320 bound_to 7965
  146.3037  140.3915  142.8695 LP  0  0  0  0  0  0  0  0  0  0  0  0  # atno 17321 bound_to 7965
  139.8645  144.7100  150.9060 LP  0  0  0  0  0  0  0  0  0  0  0  0  # atno 17342 bound_to 10162
  140.7782  143.3790  151.1511 LP  0  0  0  0  0  0  0  0  0  0  0  0  # atno 17343 bound_to 10162
  157.5107  131.0925  151.0202 LP  0  0  0  0  0  0  0  0  0  0  0  0  # atno 17370 bound_to 10713
  157.0558  130.5805  149.5377 LP  0  0  0  0  0  0  0  0  0  0  0  0  # atno 17371 bound_to 10713
  139.9171  134.8223  156.1329 LP  0  0  0  0  0  0  0  0  0  0  0  0  # atno 17394 bound_to 11000
  141.0773  133.6769  156.2263 LP  0  0  0  0  0  0  0  0  0  0  0  0  # atno 17395 bound_to 11000

$$$$
