AV-unprocessed.smi:1840|AV-procd|sdf|7489|dock2
  -GOLD-   22720 9183D 1   1.00000     0.00000
 Structure written by MMmdl.
 43 44  0  0  0  0  0  0  0  0  1 V2000
  150.7912  135.2034  155.9900 C   0  0  0  0  0  0  0  0  0  0  0  0
  149.8449  136.2834  155.4454 C   0  0  1  0  0  0  0  0  0  0  0  0
  150.6128  137.5464  155.0099 C   0  0  0  0  0  0  0  0  0  0  0  0
  149.7243  138.6571  154.7160 N   0  0  0  0  0  0  0  0  0  0  0  0
  148.3470  138.6581  154.6444 C   0  0  0  0  0  0  0  0  0  0  0  0
  147.9560  139.9340  154.3557 C   0  0  0  0  0  0  0  0  0  0  0  0
  149.1823  140.6504  154.2652 C   0  0  0  0  0  0  0  0  0  0  0  0
  150.2387  139.8833  154.4809 N   0  0  0  0  0  0  0  0  0  0  0  0
  149.0844  135.7492  154.3174 N   0  0  0  0  0  0  0  0  0  0  0  0
  148.2388  134.7112  154.3708 C   0  0  0  0  0  0  0  0  0  0  0  0
  148.0269  134.0432  155.3829 O   0  0  0  0  0  0  0  0  0  0  0  0
  147.6434  134.5015  153.1879 N   0  0  0  0  0  0  0  0  0  0  0  0
  146.6550  133.4637  152.8977 C   0  0  2  0  0  0  0  0  0  0  0  0
  147.2968  132.0865  153.1584 C   0  0  0  0  0  0  0  0  0  0  0  0
  146.3386  130.9376  152.8136 C   0  0  0  0  0  0  0  0  0  0  0  0
  145.8559  131.0443  151.3613 C   0  0  0  0  0  0  0  0  0  0  0  0
  145.1967  132.4070  151.1006 C   0  0  0  0  0  0  0  0  0  0  0  0
  146.1407  133.5794  151.4386 C   0  0  1  0  0  0  0  0  0  0  0  0
  145.4494  134.9254  151.1538 C   0  0  0  0  0  0  0  0  0  0  0  0
  151.3530  135.5730  156.8482 H   0  0  0  0  0  0  0  0  0  0  0  0
  151.5093  134.8855  155.2335 H   0  0  0  0  0  0  0  0  0  0  0  0
  150.2372  134.3223  156.3157 H   0  0  0  0  0  0  0  0  0  0  0  0
  149.1617  136.5663  156.2487 H   0  0  0  0  0  0  0  0  0  0  0  0
  151.3010  137.8593  155.7967 H   0  0  0  0  0  0  0  0  0  0  0  0
  151.2215  137.3420  154.1279 H   0  0  0  0  0  0  0  0  0  0  0  0
  147.7667  137.7622  154.8083 H   0  0  0  0  0  0  0  0  0  0  0  0
  146.9480  140.2996  154.2297 H   0  0  0  0  0  0  0  0  0  0  0  0
  149.3352  141.6980  154.0512 H   0  0  0  0  0  0  0  0  0  0  0  0
  149.1888  136.2283  153.4349 H   0  0  0  0  0  0  0  0  0  0  0  0
  147.8879  135.1132  152.4230 H   0  0  0  0  0  0  0  0  0  0  0  0
  145.8020  133.5625  153.5718 H   0  0  0  0  0  0  0  0  0  0  0  0
  148.2079  131.9843  152.5666 H   0  0  0  0  0  0  0  0  0  0  0  0
  147.5984  132.0079  154.2036 H   0  0  0  0  0  0  0  0  0  0  0  0
  146.8333  129.9791  152.9726 H   0  0  0  0  0  0  0  0  0  0  0  0
  145.4815  130.9599  153.4878 H   0  0  0  0  0  0  0  0  0  0  0  0
  146.6987  130.9076  150.6825 H   0  0  0  0  0  0  0  0  0  0  0  0
  145.1502  130.2420  151.1444 H   0  0  0  0  0  0  0  0  0  0  0  0
  144.8893  132.4653  150.0559 H   0  0  0  0  0  0  0  0  0  0  0  0
  144.2847  132.4865  151.6938 H   0  0  0  0  0  0  0  0  0  0  0  0
  147.0010  133.5088  150.7712 H   0  0  0  0  0  0  0  0  0  0  0  0
  144.6075  135.0871  151.8276 H   0  0  0  0  0  0  0  0  0  0  0  0
  145.0696  134.9627  150.1325 H   0  0  0  0  0  0  0  0  0  0  0  0
  146.1351  135.7646  151.2711 H   0  0  0  0  0  0  0  0  0  0  0  0
  1  2  1  0  0  0  0
  1 20  1  0  0  0  0
  1 21  1  0  0  0  0
  1 22  1  0  0  0  0
  2  3  1  0  0  0  0
  2  9  1  0  0  0  0
  2 23  1  0  0  0  0
  3  4  1  0  0  0  0
  3 24  1  0  0  0  0
  3 25  1  0  0  0  0
  4  8  1  0  0  0  0
  4  5  1  0  0  0  0
  5  6  2  0  0  0  0
  5 26  1  0  0  0  0
  6  7  1  0  0  0  0
  6 27  1  0  0  0  0
  7  8  2  0  0  0  0
  7 28  1  0  0  0  0
  9 10  1  0  0  0  0
  9 29  1  0  0  0  0
 10 11  2  0  0  0  0
 10 12  1  0  0  0  0
 12 13  1  0  0  0  0
 12 30  1  0  0  0  0
 13 18  1  0  0  0  0
 13 14  1  0  0  0  0
 13 31  1  0  0  0  0
 14 15  1  0  0  0  0
 14 32  1  0  0  0  0
 14 33  1  0  0  0  0
 15 16  1  0  0  0  0
 15 34  1  0  0  0  0
 15 35  1  0  0  0  0
 16 17  1  0  0  0  0
 16 36  1  0  0  0  0
 16 37  1  0  0  0  0
 17 18  1  0  0  0  0
 17 38  1  0  0  0  0
 17 39  1  0  0  0  0
 18 19  1  0  0  0  0
 18 40  1  0  0  0  0
 19 41  1  0  0  0  0
 19 42  1  0  0  0  0
 19 43  1  0  0  0  0
M  END
> <s_m_source_file>
AV-unprocessed.smi

> <i_m_source_file_index>
1840

> <i_lp_mmshare_version>
43012

> <i_f3d_flags>
0

> <s_epik_input>
bjFbY0hdW2NIXVtjSF1uMVtDSDJdW0NAQEhdKFtDSDNdKVtOSF1DKD1PKVtOSF1bQ0BASF0yW0NIMl1bQ0gyXVtDSDJdW0NIMl1bQ0BIXTJbQ0gzXQ==

> <s_epik_cmdline>
J2VwaWtfcHl0aG9uJywgJy1waCcsICc3LjAnLCAnLXRuJywgJzgnLCAnLW1hJywgJzIwMCcsICctbWV0YWxfYmluZGluZycsICctaW1hZScsICc8aW5maWxlLm1hZT4nLCAnLW9tYWUnLCAnPG91dGZpbGUubWFlPic=

> <r_lp_tautomer_probability>
1

> <r_epik_Ionization_Penalty>
7.38659e-05

> <r_epik_Ionization_Penalty_Charging>
0

> <r_epik_Ionization_Penalty_Neutral>
7.38659e-05

> <r_epik_State_Penalty>
-0

> <r_epik_Charging_Adjusted_Penalty>
0

> <i_epik_Tot_Q>
0

> <i_epik_Tot_abs_Q>
0

> <r_epik_Metal_State_Penalty>
-0

> <b_epik_Metal_Only>
0

> <s_lp_Force_Field>
OPLS_2005

> <r_lp_Energy>
8.744

> <b_lp_Chiralities_Consistent>
1

> <s_lp_Variant>
AV-unprocessed.smi:1840-2

> <Gold.Version>
5.8.1

> <Gold.Id.Protein>
6NUR|6NUR_protein|mol2

> <Gold.PLP.Fitness>
37.3134

> <Gold.PLP.PLP>
-28.7137

> <Gold.PLP.part.hbond>
-2.8628

> <Gold.PLP.part.metal>
0.0000

> <Gold.PLP.part.buried>
-2.0726

> <Gold.PLP.part.nonpolar>
-23.6791

> <Gold.PLP.part.repulsive>
0.1531

> <Gold.PLP.ligand.clash>
0.0000

> <Gold.PLP.ligand.torsion>
0.1203

> <Gold.PLP.Chemscore.Hbond>
2.9360

> <Gold.PLP.Chemscore.CHOScore>
0.0000

> <Gold.PLP.Chemscore.Metal>
0.0000

> <Gold.Chemscore.Hbonds>
donor molecule, donor type, donor heavy atom, donor atom, acceptor molecule, acceptor atom, score
      L1  H     9    29       P1  7948  0.98
      L1  H    12    30       P1  7948  0.93
      P1  H  7989  7998       L1     8  1.00

> <Gold.PLP.Chemscore.Internal.Correction>
0.0323

> <Gold.Rescore>
     Score         DG    S(hbond)    S(metal)    S(lipo)     H(rot)  DE(clash)    DE(int)     intcor
     17.96     -18.21       2.69        0.00      66.19       1.56       0.04       0.20       ----

> <Gold.Chemscore.Fitness>
17.9645

> <Gold.Chemscore.DG>
-18.2062

> <Gold.Chemscore.ZeroCoef>
-5.4800

> <Gold.Chemscore.Hbond>
2.6855

> <Gold.Chemscore.Metal>
0.0000

> <Gold.Chemscore.Lipo>
66.1898

> <Gold.Chemscore.Internal_Hbond>
0.0000

> <Gold.Chemscore.DEClash>
0.0398

> <Gold.Chemscore.DEInternal>
0.2019

> <Gold.Chemscore.Rot>
1.5576

> <Gold.Chemscore.Internal.Correction>
   9.000000E+99

> <Gold.Chemscore.Hbonds>
donor molecule, donor type, donor heavy atom, donor atom, acceptor molecule, acceptor atom, score
      L1  H     9    29       P1  7948  0.81
      L1  H    12    30       P1  7948  0.85
      P1  H  7989  7998       L1     8  0.29

> <Gold.Chemscore.Hbond.Weighted>
-8.9695

> <Gold.Chemscore.Metal.Weighted>
-0.0000

> <Gold.Chemscore.Lipo.Weighted>
-7.7442

> <Gold.Chemscore.Internal_Hbond.Weighted>
0.0000

> <Gold.Chemscore.DEClash.Weighted>
0.0398

> <Gold.Chemscore.DEInternal.Weighted>
0.2019

> <Gold.Chemscore.Rot.Weighted>
3.9875

> <Gold.Chemscore.Internal.Correction.Weighted>
   9.000000E+99

> <Gold.Protein.RotatedTorsions>
[ 6907 6896 6895 6894 ] final  107.49 input  -60.11 | X-H torsion
[ 7974 7965 7964 7962 ] final  -92.67 input  175.53 | X-H torsion
[ 8008 7997 7996 7995 ] final  106.43 input   59.86 | X-H torsion
[ 10167 10162 10161 10158 ] final -109.00 input  -65.29 | X-H torsion
[ 10718 10713 10712 10709 ] final  -30.39 input   66.30 | X-H torsion
[ 10763 10752 10751 10750 ] final  -17.00 input  -60.55 | X-H torsion
[ 11005 11000 10999 10996 ] final  -23.02 input  -57.11 | X-H torsion

> <Gold.Protein.ActiveResidues>
 VAL166  LYS551  ARG553  GLY616  TRP617  ASP618  TYR619  PRO620  LYS621  CYS622 
 ASP623  PHE694  ASN695  SER759  ASP760  ASP761  ALA762  ILE779  LEU786  VAL792 
 PHE793  MET794  SER795  GLU796  ALA797  LYS798  CYS799  TRP800  GLU811  SER814 

> <Gold.Protein.RotatedAtoms>
  152.5152  133.9226  159.7541 H   0  0  0  0  0  0  0  0  0  0  0  0  # atno 6907 bound_to 6896
  150.9594  133.6453  159.2764 H   0  0  0  0  0  0  0  0  0  0  0  0  # atno 6908 bound_to 6896
  151.3703  135.0926  159.9516 H   0  0  0  0  0  0  0  0  0  0  0  0  # atno 6909 bound_to 6896
  145.3967  140.9533  143.2310 H   0  0  0  0  0  0  0  0  0  0  0  0  # atno 7974 bound_to 7965
  156.1742  140.3113  155.9029 H   0  0  0  0  0  0  0  0  0  0  0  0  # atno 8008 bound_to 7997
  155.3522  140.0471  157.3063 H   0  0  0  0  0  0  0  0  0  0  0  0  # atno 8009 bound_to 7997
  154.5273  140.2218  155.8878 H   0  0  0  0  0  0  0  0  0  0  0  0  # atno 8010 bound_to 7997
  140.1601  143.4128  152.1432 H   0  0  0  0  0  0  0  0  0  0  0  0  # atno 10167 bound_to 10162
  156.4004  130.4389  149.7327 H   0  0  0  0  0  0  0  0  0  0  0  0  # atno 10718 bound_to 10713
  153.5671  135.7008  153.5521 H   0  0  0  0  0  0  0  0  0  0  0  0  # atno 10763 bound_to 10752
  153.3377  135.4029  155.1546 H   0  0  0  0  0  0  0  0  0  0  0  0  # atno 10764 bound_to 10752
  154.8639  135.3734  154.5192 H   0  0  0  0  0  0  0  0  0  0  0  0  # atno 10765 bound_to 10752
  140.8712  133.7719  156.0189 H   0  0  0  0  0  0  0  0  0  0  0  0  # atno 11005 bound_to 11000
  144.8402  139.5484  143.6904 LP  0  0  0  0  0  0  0  0  0  0  0  0  # atno 17320 bound_to 7965
  146.2771  139.6782  142.9255 LP  0  0  0  0  0  0  0  0  0  0  0  0  # atno 17321 bound_to 7965
  139.5385  144.7234  151.4812 LP  0  0  0  0  0  0  0  0  0  0  0  0  # atno 17342 bound_to 10162
  140.6649  143.8420  150.6930 LP  0  0  0  0  0  0  0  0  0  0  0  0  # atno 17343 bound_to 10162
  156.4345  130.7831  151.2851 LP  0  0  0  0  0  0  0  0  0  0  0  0  # atno 17370 bound_to 10713
  157.7503  131.0144  150.3461 LP  0  0  0  0  0  0  0  0  0  0  0  0  # atno 17371 bound_to 10713
  140.8571  134.2885  157.5250 LP  0  0  0  0  0  0  0  0  0  0  0  0  # atno 17394 bound_to 11000
  139.8712  134.9498  156.4038 LP  0  0  0  0  0  0  0  0  0  0  0  0  # atno 17395 bound_to 11000

$$$$
