AV-unprocessed.smi:775|AV-procd|sdf|3695|dock6
  -GOLD-   22720 1113D 1   1.00000     0.00000
 Structure written by MMmdl.
 39 40  0  0  0  0  0  0  0  0  2 V2000
  151.3693  140.3479  155.8036 C   0  0  0  0  0  0  0  0  0  0  0  0
  150.8114  141.7494  156.0976 C   0  0  2  0  0  0  0  0  0  0  0  0
  150.4823  141.9595  157.5961 C   0  0  0  0  0  0  0  0  0  0  0  0
  151.2622  143.0141  158.2239 N   0  0  0  0  0  0  0  0  0  0  0  0
  151.4775  144.3023  157.7782 C   0  0  0  0  0  0  0  0  0  0  0  0
  152.2739  144.9230  158.6971 C   0  0  0  0  0  0  0  0  0  0  0  0
  152.5035  143.9191  159.6788 C   0  0  0  0  0  0  0  0  0  0  0  0
  151.8983  142.7780  159.3914 N   0  0  0  0  0  0  0  0  0  0  0  0
  149.6421  142.0055  155.2257 N   0  3  0  0  0  0  0  0  0  0  0  0
  148.4852  141.1034  155.4224 C   0  0  0  0  0  0  0  0  0  0  0  0
  147.1440  141.8064  155.1606 C   0  0  0  0  0  0  0  0  0  0  0  0
  146.8972  142.1956  154.0176 O   0  0  0  0  0  0  0  0  0  0  0  0
  146.2753  141.9760  156.1886 N   0  0  0  0  0  0  0  0  0  0  0  0
  144.9819  142.6593  156.0828 C   0  0  0  0  0  0  0  0  0  0  0  0
  145.0723  143.9868  156.8553 C   0  0  0  0  0  0  0  0  0  0  0  0
  145.6825  143.8165  158.1752 N   0  0  0  0  0  0  0  0  0  0  0  0
  146.3982  142.7463  158.5684 C   0  0  0  0  0  0  0  0  0  0  0  0
  146.8758  142.6691  159.6976 O   0  0  0  0  0  0  0  0  0  0  0  0
  146.6190  141.5947  157.5683 C   0  0  0  0  0  0  0  0  0  0  0  0
  152.2283  140.1261  156.4374 H   0  0  0  0  0  0  0  0  0  0  0  0
  151.6984  140.2680  154.7669 H   0  0  0  0  0  0  0  0  0  0  0  0
  150.6229  139.5707  155.9702 H   0  0  0  0  0  0  0  0  0  0  0  0
  151.5884  142.4640  155.8230 H   0  0  0  0  0  0  0  0  0  0  0  0
  149.4241  142.2010  157.7080 H   0  0  0  0  0  0  0  0  0  0  0  0
  150.6318  141.0401  158.1621 H   0  0  0  0  0  0  0  0  0  0  0  0
  151.0508  144.6676  156.8555 H   0  0  0  0  0  0  0  0  0  0  0  0
  152.6407  145.9385  158.6705 H   0  0  0  0  0  0  0  0  0  0  0  0
  153.0884  143.9845  160.5845 H   0  0  0  0  0  0  0  0  0  0  0  0
  149.3210  142.9459  155.4071 H   0  0  0  0  0  0  0  0  0  0  0  0
  148.5713  140.2534  154.7462 H   0  0  0  0  0  0  0  0  0  0  0  0
  148.4997  140.7280  156.4464 H   0  0  0  0  0  0  0  0  0  0  0  0
  144.6388  142.8367  155.0648 H   0  0  0  0  0  0  0  0  0  0  0  0
  144.2211  142.0223  156.5370 H   0  0  0  0  0  0  0  0  0  0  0  0
  145.6728  144.7038  156.2942 H   0  0  0  0  0  0  0  0  0  0  0  0
  144.0811  144.4259  156.9714 H   0  0  0  0  0  0  0  0  0  0  0  0
  145.5458  144.5626  158.8423 H   0  0  0  0  0  0  0  0  0  0  0  0
  145.9886  140.7556  157.8642 H   0  0  0  0  0  0  0  0  0  0  0  0
  147.6500  141.2542  157.6748 H   0  0  0  0  0  0  0  0  0  0  0  0
  149.9376  141.9555  154.2608 H   0  0  0  0  0  0  0  0  0  0  0  0
  1  2  1  0  0  0  0
  1 20  1  0  0  0  0
  1 21  1  0  0  0  0
  1 22  1  0  0  0  0
  2  3  1  0  0  0  0
  2  9  1  0  0  0  0
  2 23  1  0  0  0  0
  3  4  1  0  0  0  0
  3 24  1  0  0  0  0
  3 25  1  0  0  0  0
  4  8  1  0  0  0  0
  4  5  1  0  0  0  0
  5  6  2  0  0  0  0
  5 26  1  0  0  0  0
  6  7  1  0  0  0  0
  6 27  1  0  0  0  0
  7  8  2  0  0  0  0
  7 28  1  0  0  0  0
  9 10  1  0  0  0  0
  9 29  1  0  0  0  0
  9 39  1  0  0  0  0
 10 11  1  0  0  0  0
 10 30  1  0  0  0  0
 10 31  1  0  0  0  0
 11 12  2  0  0  0  0
 11 13  1  0  0  0  0
 13 19  1  0  0  0  0
 13 14  1  0  0  0  0
 14 15  1  0  0  0  0
 14 32  1  0  0  0  0
 14 33  1  0  0  0  0
 15 16  1  0  0  0  0
 15 34  1  0  0  0  0
 15 35  1  0  0  0  0
 16 17  1  0  0  0  0
 16 36  1  0  0  0  0
 17 18  2  0  0  0  0
 17 19  1  0  0  0  0
 19 37  1  0  0  0  0
 19 38  1  0  0  0  0
M  CHG  1   9   1
M  END
> <s_m_source_file>
AV-unprocessed.smi

> <i_m_source_file_index>
775

> <i_lp_mmshare_version>
43012

> <i_f3d_flags>
0

> <s_epik_input>
bjFbY0hdW2NIXVtjSF1uMVtDSDJdW0NAQEhdKFtDSDNdKVtOSF1bQ0gyXUMoPU8pTjJbQ0gyXVtDSDJdW05IXUMoPU8pW0NIMl0y

> <s_epik_cmdline>
J2VwaWtfcHl0aG9uJywgJy1waCcsICc3LjAnLCAnLXRuJywgJzgnLCAnLW1hJywgJzIwMCcsICctbWV0YWxfYmluZGluZycsICctaW1hZScsICc8aW5maWxlLm1hZT4nLCAnLW9tYWUnLCAnPG91dGZpbGUubWFlPic=

> <r_lp_tautomer_probability>
1

> <r_epik_Ionization_Penalty>
0.165651

> <r_epik_Ionization_Penalty_Charging>
0.165647

> <r_epik_Ionization_Penalty_Neutral>
3.4358e-06

> <r_epik_State_Penalty>
0.15499

> <r_epik_Charging_Adjusted_Penalty>
0.320637

> <i_epik_Tot_Q>
1

> <i_epik_Tot_abs_Q>
1

> <r_epik_Metal_State_Penalty>
0.155003

> <b_epik_Metal_Only>
0

> <s_lp_Force_Field>
OPLS_2005

> <r_lp_Energy>
21.6432

> <b_lp_Chiralities_Consistent>
1

> <s_lp_Variant>
AV-unprocessed.smi:775-1

> <Gold.Version>
5.8.1

> <Gold.Id.Protein>
6NUR|6NUR_protein|mol2

> <Gold.PLP.Fitness>
47.2909

> <Gold.PLP.PLP>
-36.1728

> <Gold.PLP.part.hbond>
-3.8725

> <Gold.PLP.part.metal>
0.0000

> <Gold.PLP.part.buried>
-5.8696

> <Gold.PLP.part.nonpolar>
-28.3557

> <Gold.PLP.part.repulsive>
0.4051

> <Gold.PLP.ligand.clash>
0.0000

> <Gold.PLP.ligand.torsion>
1.0982

> <Gold.PLP.Chemscore.Hbond>
3.4217

> <Gold.PLP.Chemscore.CHOScore>
1.0000

> <Gold.PLP.Chemscore.Metal>
0.0000

> <Gold.Chemscore.Hbonds>
donor molecule, donor type, donor heavy atom, donor atom, acceptor molecule, acceptor atom, score
      L1  H     9    29       P1  8028  2.00
      P1  H  6933  6944       L1    18  0.07
      P1  H  6934  6946       L1    18  0.84
      L1  C     5    26       P1  8028  1.00

> <Gold.PLP.Chemscore.Internal.Correction>
0.0494

> <Gold.Rescore>
     Score         DG    S(hbond)    S(metal)    S(lipo)     H(rot)  DE(clash)    DE(int)     intcor
     15.39     -16.46       2.42        0.00      72.45       2.18       0.08       0.99       ----

> <Gold.Chemscore.Fitness>
15.3906

> <Gold.Chemscore.DG>
-16.4636

> <Gold.Chemscore.ZeroCoef>
-5.4800

> <Gold.Chemscore.Hbond>
2.4236

> <Gold.Chemscore.Metal>
0.0000

> <Gold.Chemscore.Lipo>
72.4528

> <Gold.Chemscore.Internal_Hbond>
0.0000

> <Gold.Chemscore.DEClash>
0.0823

> <Gold.Chemscore.DEInternal>
0.9908

> <Gold.Chemscore.Rot>
2.1828

> <Gold.Chemscore.Internal.Correction>
   9.000000E+99

> <Gold.Chemscore.Hbonds>
donor molecule, donor type, donor heavy atom, donor atom, acceptor molecule, acceptor atom, score
      L1  H     9    29       P1  8028  1.00
      P1  H  6933  6944       L1    18  0.09
      P1  H  6934  6946       L1    18  0.78

> <Gold.Chemscore.Hbond.Weighted>
-8.0947

> <Gold.Chemscore.Metal.Weighted>
-0.0000

> <Gold.Chemscore.Lipo.Weighted>
-8.4770

> <Gold.Chemscore.Internal_Hbond.Weighted>
0.0000

> <Gold.Chemscore.DEClash.Weighted>
0.0823

> <Gold.Chemscore.DEInternal.Weighted>
0.9908

> <Gold.Chemscore.Rot.Weighted>
5.5880

> <Gold.Chemscore.Internal.Correction.Weighted>
   9.000000E+99

> <Gold.Protein.RotatedTorsions>
[ 6907 6896 6895 6894 ] final  115.46 input  -60.11 | X-H torsion
[ 7974 7965 7964 7962 ] final  -73.17 input  175.53 | X-H torsion
[ 8008 7997 7996 7995 ] final  -64.74 input   59.86 | X-H torsion
[ 10167 10162 10161 10158 ] final -109.21 input  -65.29 | X-H torsion
[ 10718 10713 10712 10709 ] final  178.84 input   66.30 | X-H torsion
[ 10763 10752 10751 10750 ] final -152.59 input  -60.55 | X-H torsion
[ 11005 11000 10999 10996 ] final -138.73 input  -57.11 | X-H torsion

> <Gold.Protein.ActiveResidues>
 VAL166  LYS551  ARG553  GLY616  TRP617  ASP618  TYR619  PRO620  LYS621  CYS622 
 ASP623  PHE694  ASN695  SER759  ASP760  ASP761  ALA762  ILE779  LEU786  VAL792 
 PHE793  MET794  SER795  GLU796  ALA797  LYS798  CYS799  TRP800  GLU811  SER814 

> <Gold.Protein.RotatedAtoms>
  152.4740  133.8094  159.6995 H   0  0  0  0  0  0  0  0  0  0  0  0  # atno 6907 bound_to 6896
  150.8745  133.7448  159.2957 H   0  0  0  0  0  0  0  0  0  0  0  0  # atno 6908 bound_to 6896
  151.4973  135.1063  159.9871 H   0  0  0  0  0  0  0  0  0  0  0  0  # atno 6909 bound_to 6896
  145.6557  140.9269  143.0961 H   0  0  0  0  0  0  0  0  0  0  0  0  # atno 7974 bound_to 7965
  154.4629  140.0947  156.6943 H   0  0  0  0  0  0  0  0  0  0  0  0  # atno 8008 bound_to 7997
  155.4941  140.3471  155.4341 H   0  0  0  0  0  0  0  0  0  0  0  0  # atno 8009 bound_to 7997
  156.0904  140.1396  156.9588 H   0  0  0  0  0  0  0  0  0  0  0  0  # atno 8010 bound_to 7997
  140.1578  143.4145  152.1448 H   0  0  0  0  0  0  0  0  0  0  0  0  # atno 10167 bound_to 10162
  156.8846  130.9827  151.3057 H   0  0  0  0  0  0  0  0  0  0  0  0  # atno 10718 bound_to 10713
  154.7984  135.3232  154.7610 H   0  0  0  0  0  0  0  0  0  0  0  0  # atno 10763 bound_to 10752
  153.8284  135.6881  153.4822 H   0  0  0  0  0  0  0  0  0  0  0  0  # atno 10764 bound_to 10752
  153.1687  135.4631  154.9816 H   0  0  0  0  0  0  0  0  0  0  0  0  # atno 10765 bound_to 10752
  140.8587  134.2195  157.4719 H   0  0  0  0  0  0  0  0  0  0  0  0  # atno 11005 bound_to 11000
  144.7107  139.8384  143.7415 LP  0  0  0  0  0  0  0  0  0  0  0  0  # atno 17320 bound_to 7965
  146.1167  139.4179  143.0254 LP  0  0  0  0  0  0  0  0  0  0  0  0  # atno 17321 bound_to 7965
  139.5395  144.7243  151.4780 LP  0  0  0  0  0  0  0  0  0  0  0  0  # atno 17342 bound_to 10162
  140.6662  143.8392  150.6945 LP  0  0  0  0  0  0  0  0  0  0  0  0  # atno 17343 bound_to 10162
  157.6120  130.8590  149.8967 LP  0  0  0  0  0  0  0  0  0  0  0  0  # atno 17370 bound_to 10713
  156.0660  130.3692  150.0878 LP  0  0  0  0  0  0  0  0  0  0  0  0  # atno 17371 bound_to 10713
  139.8706  134.9719  156.4754 LP  0  0  0  0  0  0  0  0  0  0  0  0  # atno 17394 bound_to 11000
  140.8707  133.7990  155.9361 LP  0  0  0  0  0  0  0  0  0  0  0  0  # atno 17395 bound_to 11000

$$$$
