AV-unprocessed.smi:1116|AV-procd|sdf|4810|dock3
  -GOLD-   22720 3363D 1   1.00000     0.00000
 Structure written by MMmdl.
 35 36  0  0  0  0  0  0  0  0  2 V2000
  153.8517  142.0999  160.0162 C   0  0  0  0  0  0  0  0  0  0  0  0
  152.7986  142.6385  159.1097 C   0  0  0  0  0  0  0  0  0  0  0  0
  151.7173  141.9472  158.7407 N   0  0  0  0  0  0  0  0  0  0  0  0
  150.8821  142.6699  157.8830 C   0  0  0  0  0  0  0  0  0  0  0  0
  149.6226  142.0447  157.3656 C   0  0  0  0  0  0  0  0  0  0  0  0
  149.9046  140.9261  156.3483 C   0  0  0  0  0  0  0  0  0  0  0  0
  150.8288  139.9321  156.8811 N   0  0  0  0  0  0  0  0  0  0  0  0
  151.9720  139.5473  156.2933 C   0  0  0  0  0  0  0  0  0  0  0  0
  152.3700  140.0102  155.2239 O   0  0  0  0  0  0  0  0  0  0  0  0
  152.7899  138.4875  157.0358 C   0  0  0  0  0  0  0  0  0  0  0  0
  153.1837  138.9208  158.4609 C   0  0  0  0  0  0  0  0  0  0  0  0
  154.0079  137.8491  159.2047 C   0  0  1  0  0  0  0  0  0  0  0  0
  153.4323  136.5253  159.0398 N   0  5  0  0  0  0  0  0  0  0  0  0
  154.3623  135.7205  158.4732 C   0  0  0  0  0  0  0  0  0  0  0  0
  154.2529  134.5301  158.1876 O   0  0  0  0  0  0  0  0  0  0  0  0
  155.4908  136.3965  158.2344 N   0  0  0  0  0  0  0  0  0  0  0  0
  155.3918  137.6671  158.6113 C   0  0  0  0  0  0  0  0  0  0  0  0
  156.2471  138.5458  158.5113 O   0  0  0  0  0  0  0  0  0  0  0  0
  151.3501  143.9309  157.6083 C   0  0  0  0  0  0  0  0  0  0  0  0
  152.8592  144.2545  158.4171 S   0  0  0  0  0  0  0  0  0  0  0  0
  153.6557  141.0539  160.2546 H   0  0  0  0  0  0  0  0  0  0  0  0
  153.8723  142.6721  160.9436 H   0  0  0  0  0  0  0  0  0  0  0  0
  154.8280  142.1714  159.5371 H   0  0  0  0  0  0  0  0  0  0  0  0
  149.0423  141.6479  158.1995 H   0  0  0  0  0  0  0  0  0  0  0  0
  148.9944  142.8061  156.9015 H   0  0  0  0  0  0  0  0  0  0  0  0
  148.9753  140.4174  156.0902 H   0  0  0  0  0  0  0  0  0  0  0  0
  150.2999  141.3412  155.4195 H   0  0  0  0  0  0  0  0  0  0  0  0
  150.5789  139.4973  157.7577 H   0  0  0  0  0  0  0  0  0  0  0  0
  152.2057  137.5676  157.0755 H   0  0  0  0  0  0  0  0  0  0  0  0
  153.6879  138.2610  156.4591 H   0  0  0  0  0  0  0  0  0  0  0  0
  153.7384  139.8607  158.4245 H   0  0  0  0  0  0  0  0  0  0  0  0
  152.2751  139.1294  159.0286 H   0  0  0  0  0  0  0  0  0  0  0  0
  154.1213  138.1271  160.2536 H   0  0  0  0  0  0  0  0  0  0  0  0
  156.3125  135.9928  157.8103 H   0  0  0  0  0  0  0  0  0  0  0  0
  150.9009  144.6863  156.9807 H   0  0  0  0  0  0  0  0  0  0  0  0
  1  2  1  0  0  0  0
  1 21  1  0  0  0  0
  1 22  1  0  0  0  0
  1 23  1  0  0  0  0
  2 20  1  0  0  0  0
  2  3  2  0  0  0  0
  3  4  1  0  0  0  0
  4  5  1  0  0  0  0
  4 19  2  0  0  0  0
  5  6  1  0  0  0  0
  5 24  1  0  0  0  0
  5 25  1  0  0  0  0
  6  7  1  0  0  0  0
  6 26  1  0  0  0  0
  6 27  1  0  0  0  0
  7  8  1  0  0  0  0
  7 28  1  0  0  0  0
  8  9  2  0  0  0  0
  8 10  1  0  0  0  0
 10 11  1  0  0  0  0
 10 29  1  0  0  0  0
 10 30  1  0  0  0  0
 11 12  1  0  0  0  0
 11 31  1  0  0  0  0
 11 32  1  0  0  0  0
 12 17  1  0  0  0  0
 12 13  1  0  0  0  0
 12 33  1  0  0  0  0
 13 14  1  0  0  0  0
 14 15  2  0  0  0  0
 14 16  1  0  0  0  0
 16 17  1  0  0  0  0
 16 34  1  0  0  0  0
 17 18  2  0  0  0  0
 19 20  1  0  0  0  0
 19 35  1  0  0  0  0
M  CHG  1  13  -1
M  END
> <s_m_source_file>
AV-unprocessed.smi

> <i_m_source_file_index>
1116

> <i_lp_mmshare_version>
43012

> <i_f3d_flags>
0

> <s_epik_input>
W0NIM11jMW5jKFtjSF1zMSlbQ0gyXVtDSDJdW05IXUMoPU8pW0NIMl1bQ0gyXVtDQEBIXTJbTkhdQyg9TylbTkhdQzI9Tw==

> <s_epik_cmdline>
J2VwaWtfcHl0aG9uJywgJy1waCcsICc3LjAnLCAnLXRuJywgJzgnLCAnLW1hJywgJzIwMCcsICctbWV0YWxfYmluZGluZycsICctaW1hZScsICc8aW5maWxlLm1hZT4nLCAnLW9tYWUnLCAnPG91dGZpbGUubWFlPic=

> <r_lp_tautomer_probability>
1

> <r_epik_Ionization_Penalty>
5.7962

> <r_epik_Ionization_Penalty_Charging>
5.79516

> <r_epik_Ionization_Penalty_Neutral>
0.00104588

> <r_epik_State_Penalty>
5.80096

> <r_epik_Charging_Adjusted_Penalty>
11.5961

> <i_epik_Tot_Q>
-1

> <i_epik_Tot_abs_Q>
1

> <r_epik_Metal_State_Penalty>
2.1448

> <b_epik_Metal_Only>
1

> <s_lp_Force_Field>
OPLS_2005

> <r_lp_Energy>
5.74046

> <b_lp_Chiralities_Consistent>
1

> <s_lp_Variant>
AV-unprocessed.smi:1116-4

> <Gold.Version>
5.8.1

> <Gold.Id.Protein>
6NUR|6NUR_protein|mol2

> <Gold.PLP.Fitness>
43.0718

> <Gold.PLP.PLP>
-30.8686

> <Gold.PLP.part.hbond>
-4.1409

> <Gold.PLP.part.metal>
0.0000

> <Gold.PLP.part.buried>
-2.4582

> <Gold.PLP.part.nonpolar>
-25.1702

> <Gold.PLP.part.repulsive>
0.1687

> <Gold.PLP.ligand.clash>
0.0000

> <Gold.PLP.ligand.torsion>
0.2039

> <Gold.PLP.Chemscore.Hbond>
3.1877

> <Gold.PLP.Chemscore.CHOScore>
1.0000

> <Gold.PLP.Chemscore.Metal>
0.0000

> <Gold.Chemscore.Hbonds>
donor molecule, donor type, donor heavy atom, donor atom, acceptor molecule, acceptor atom, score
      P1  H  6896  6908       L1    13  0.90
      P1  H  7989  7998       L1     9  0.64
      P1  H  7997  8008       L1    18  1.00
      P1  H  7997  8009       L1     9  0.29
      L1  C    19    35       P1  8028  1.00

> <Gold.PLP.Chemscore.Internal.Correction>
0.0479

> <Gold.Rescore>
     Score         DG    S(hbond)    S(metal)    S(lipo)     H(rot)  DE(clash)    DE(int)     intcor
     14.83     -15.07       2.26        0.00      77.94       2.77       0.00       0.24       ----

> <Gold.Chemscore.Fitness>
14.8303

> <Gold.Chemscore.DG>
-15.0746

> <Gold.Chemscore.ZeroCoef>
-5.4800

> <Gold.Chemscore.Hbond>
2.2648

> <Gold.Chemscore.Metal>
0.0000

> <Gold.Chemscore.Lipo>
77.9395

> <Gold.Chemscore.Internal_Hbond>
0.0000

> <Gold.Chemscore.DEClash>
0.0000

> <Gold.Chemscore.DEInternal>
0.2443

> <Gold.Chemscore.Rot>
2.7691

> <Gold.Chemscore.Internal.Correction>
   9.000000E+99

> <Gold.Chemscore.Hbonds>
donor molecule, donor type, donor heavy atom, donor atom, acceptor molecule, acceptor atom, score
      P1  H  6896  6908       L1    13  0.10
      P1  H  7989  7998       L1     9  0.58
      P1  H  7997  8008       L1    18  0.71
      P1  H  7997  8009       L1     9  0.01

> <Gold.Chemscore.Hbond.Weighted>
-7.5646

> <Gold.Chemscore.Metal.Weighted>
-0.0000

> <Gold.Chemscore.Lipo.Weighted>
-9.1189

> <Gold.Chemscore.Internal_Hbond.Weighted>
0.0000

> <Gold.Chemscore.DEClash.Weighted>
0.0000

> <Gold.Chemscore.DEInternal.Weighted>
0.2443

> <Gold.Chemscore.Rot.Weighted>
7.0889

> <Gold.Chemscore.Internal.Correction.Weighted>
   9.000000E+99

> <Gold.Protein.RotatedTorsions>
[ 6907 6896 6895 6894 ] final  -83.32 input  -60.11 | X-H torsion
[ 7974 7965 7964 7962 ] final   83.29 input  175.53 | X-H torsion
[ 8008 7997 7996 7995 ] final -147.29 input   59.86 | X-H torsion
[ 10167 10162 10161 10158 ] final  -25.81 input  -65.29 | X-H torsion
[ 10718 10713 10712 10709 ] final  129.77 input   66.30 | X-H torsion
[ 10763 10752 10751 10750 ] final  166.55 input  -60.55 | X-H torsion
[ 11005 11000 10999 10996 ] final  124.90 input  -57.11 | X-H torsion

> <Gold.Protein.ActiveResidues>
 VAL166  LYS551  ARG553  GLY616  TRP617  ASP618  TYR619  PRO620  LYS621  CYS622 
 ASP623  PHE694  ASN695  SER759  ASP760  ASP761  ALA762  ILE779  LEU786  VAL792 
 PHE793  MET794  SER795  GLU796  ALA797  LYS798  CYS799  TRP800  GLU811  SER814 

> <Gold.Protein.RotatedAtoms>
  150.6887  134.3530  159.4917 H   0  0  0  0  0  0  0  0  0  0  0  0  # atno 6907 bound_to 6896
  152.1369  134.9090  160.0565 H   0  0  0  0  0  0  0  0  0  0  0  0  # atno 6908 bound_to 6896
  152.0238  133.3875  159.4306 H   0  0  0  0  0  0  0  0  0  0  0  0  # atno 6909 bound_to 6896
  145.6139  139.2373  143.2177 H   0  0  0  0  0  0  0  0  0  0  0  0  # atno 7974 bound_to 7965
  155.5731  140.0636  157.2801 H   0  0  0  0  0  0  0  0  0  0  0  0  # atno 8008 bound_to 7997
  154.4355  140.1865  156.0946 H   0  0  0  0  0  0  0  0  0  0  0  0  # atno 8009 bound_to 7997
  156.0361  140.3301  155.7196 H   0  0  0  0  0  0  0  0  0  0  0  0  # atno 8010 bound_to 7997
  140.7285  143.4232  151.0918 H   0  0  0  0  0  0  0  0  0  0  0  0  # atno 10167 bound_to 10162
  157.5124  131.1097  150.9273 H   0  0  0  0  0  0  0  0  0  0  0  0  # atno 10718 bound_to 10713
  154.3407  135.2754  155.2424 H   0  0  0  0  0  0  0  0  0  0  0  0  # atno 10763 bound_to 10752
  154.4696  135.5886  153.6315 H   0  0  0  0  0  0  0  0  0  0  0  0  # atno 10764 bound_to 10752
  152.9858  135.6085  154.3608 H   0  0  0  0  0  0  0  0  0  0  0  0  # atno 10765 bound_to 10752
  139.9380  134.9638  156.8478 H   0  0  0  0  0  0  0  0  0  0  0  0  # atno 11005 bound_to 11000
  146.1483  140.6961  142.9334 LP  0  0  0  0  0  0  0  0  0  0  0  0  # atno 17320 bound_to 7965
  144.7258  140.4521  143.6974 LP  0  0  0  0  0  0  0  0  0  0  0  0  # atno 17321 bound_to 7965
  139.7880  143.8259  152.3148 LP  0  0  0  0  0  0  0  0  0  0  0  0  # atno 17342 bound_to 10162
  139.8233  144.7286  150.9544 LP  0  0  0  0  0  0  0  0  0  0  0  0  # atno 17343 bound_to 10162
  156.9910  130.5563  149.5303 LP  0  0  0  0  0  0  0  0  0  0  0  0  # atno 17370 bound_to 10713
  156.0298  130.5390  150.8503 LP  0  0  0  0  0  0  0  0  0  0  0  0  # atno 17371 bound_to 10713
  140.6024  134.0159  155.7542 LP  0  0  0  0  0  0  0  0  0  0  0  0  # atno 17394 bound_to 11000
  141.1003  133.9778  157.3090 LP  0  0  0  0  0  0  0  0  0  0  0  0  # atno 17395 bound_to 11000

$$$$
