AV-unprocessed.smi:1267|AV-procd|sdf|5322|dock2
  -GOLD-   22720 4443D 1   1.00000     0.00000
 Structure written by MMmdl.
 37 38  0  0  0  0  0  0  0  0  1 V2000
  149.9830  141.5730  156.6314 C   0  0  0  0  0  0  0  0  0  0  0  0
  149.6205  140.8924  154.9612 S   0  0  0  0  0  0  0  0  0  0  0  0
  149.3368  142.0189  154.0590 O   0  0  0  0  0  0  0  0  0  0  0  0
  150.6809  139.9327  154.6174 O   0  0  0  0  0  0  0  0  0  0  0  0
  148.1430  139.9982  155.1772 N   0  0  0  0  0  0  0  0  0  0  0  0
  146.9500  140.3401  154.3769 C   0  0  0  0  0  0  0  0  0  0  0  0
  146.7492  139.3601  153.2075 C   0  0  0  0  0  0  0  0  0  0  0  0
  146.7174  137.9037  153.6931 C   0  0  0  0  0  0  0  0  0  0  0  0
  146.5873  137.0066  152.5493 N   0  0  0  0  0  0  0  0  0  0  0  0
  145.4286  136.6162  151.9958 C   0  0  0  0  0  0  0  0  0  0  0  0
  144.3241  136.9681  152.4095 O   0  0  0  0  0  0  0  0  0  0  0  0
  145.5324  135.6853  150.7876 C   0  0  0  0  0  0  0  0  0  0  0  0
  144.6730  134.5265  150.9477 N   0  0  0  0  0  0  0  0  0  0  0  0
  144.5749  133.4150  150.1368 C   0  0  0  0  0  0  0  0  0  0  0  0
  143.6414  132.5878  150.6923 C   0  0  0  0  0  0  0  0  0  0  0  0
  143.2199  133.2879  151.8572 C   0  0  0  0  0  0  0  0  0  0  0  0
  143.8386  134.4479  152.0078 N   0  0  0  0  0  0  0  0  0  0  0  0
  148.0019  137.6046  154.4851 C   0  0  0  0  0  0  0  0  0  0  0  0
  148.1898  138.5983  155.6445 C   0  0  0  0  0  0  0  0  0  0  0  0
  150.9040  142.1535  156.5858 H   0  0  0  0  0  0  0  0  0  0  0  0
  150.1134  140.7603  157.3436 H   0  0  0  0  0  0  0  0  0  0  0  0
  149.1716  142.2241  156.9514 H   0  0  0  0  0  0  0  0  0  0  0  0
  146.0776  140.3100  155.0305 H   0  0  0  0  0  0  0  0  0  0  0  0
  147.0211  141.3625  154.0069 H   0  0  0  0  0  0  0  0  0  0  0  0
  145.8196  139.5995  152.6897 H   0  0  0  0  0  0  0  0  0  0  0  0
  147.5453  139.4893  152.4750 H   0  0  0  0  0  0  0  0  0  0  0  0
  145.8526  137.7754  154.3470 H   0  0  0  0  0  0  0  0  0  0  0  0
  147.4442  136.6696  152.1346 H   0  0  0  0  0  0  0  0  0  0  0  0
  145.2618  136.2174  149.8740 H   0  0  0  0  0  0  0  0  0  0  0  0
  146.5620  135.3453  150.6676 H   0  0  0  0  0  0  0  0  0  0  0  0
  145.1718  133.3072  149.2431 H   0  0  0  0  0  0  0  0  0  0  0  0
  143.3108  131.6285  150.3234 H   0  0  0  0  0  0  0  0  0  0  0  0
  142.4875  132.9891  152.5926 H   0  0  0  0  0  0  0  0  0  0  0  0
  147.9699  136.5904  154.8846 H   0  0  0  0  0  0  0  0  0  0  0  0
  148.8643  137.6407  153.8203 H   0  0  0  0  0  0  0  0  0  0  0  0
  149.1269  138.4013  156.1645 H   0  0  0  0  0  0  0  0  0  0  0  0
  147.3958  138.4544  156.3782 H   0  0  0  0  0  0  0  0  0  0  0  0
  1  2  1  0  0  0  0
  1 20  1  0  0  0  0
  1 21  1  0  0  0  0
  1 22  1  0  0  0  0
  2  3  2  0  0  0  0
  2  4  2  0  0  0  0
  2  5  1  0  0  0  0
  5 19  1  0  0  0  0
  5  6  1  0  0  0  0
  6  7  1  0  0  0  0
  6 23  1  0  0  0  0
  6 24  1  0  0  0  0
  7  8  1  0  0  0  0
  7 25  1  0  0  0  0
  7 26  1  0  0  0  0
  8  9  1  0  0  0  0
  8 18  1  0  0  0  0
  8 27  1  0  0  0  0
  9 10  1  0  0  0  0
  9 28  1  0  0  0  0
 10 11  2  0  0  0  0
 10 12  1  0  0  0  0
 12 13  1  0  0  0  0
 12 29  1  0  0  0  0
 12 30  1  0  0  0  0
 13 17  1  0  0  0  0
 13 14  1  0  0  0  0
 14 15  2  0  0  0  0
 14 31  1  0  0  0  0
 15 16  1  0  0  0  0
 15 32  1  0  0  0  0
 16 17  2  0  0  0  0
 16 33  1  0  0  0  0
 18 19  1  0  0  0  0
 18 34  1  0  0  0  0
 18 35  1  0  0  0  0
 19 36  1  0  0  0  0
 19 37  1  0  0  0  0
M  END
> <s_m_source_file>
AV-unprocessed.smi

> <i_m_source_file_index>
1267

> <i_lp_mmshare_version>
43012

> <i_f3d_flags>
0

> <s_epik_input>
W0NIM11TKD1PKSg9TylOMVtDSDJdW0NIMl1bQ0hdKFtDSDJdW0NIMl0xKVtOSF1DKD1PKVtDSDJdbjJbY0hdW2NIXVtjSF1uMg==

> <s_epik_cmdline>
J2VwaWtfcHl0aG9uJywgJy1waCcsICc3LjAnLCAnLXRuJywgJzgnLCAnLW1hJywgJzIwMCcsICctbWV0YWxfYmluZGluZycsICctaW1hZScsICc8aW5maWxlLm1hZT4nLCAnLW9tYWUnLCAnPG91dGZpbGUubWFlPic=

> <r_lp_tautomer_probability>
1

> <r_epik_Ionization_Penalty>
1.58465e-05

> <r_epik_Ionization_Penalty_Charging>
0

> <r_epik_Ionization_Penalty_Neutral>
1.58465e-05

> <r_epik_State_Penalty>
-0

> <r_epik_Charging_Adjusted_Penalty>
0

> <i_epik_Tot_Q>
0

> <i_epik_Tot_abs_Q>
0

> <r_epik_Metal_State_Penalty>
-0

> <b_epik_Metal_Only>
0

> <s_lp_Force_Field>
OPLS_2005

> <r_lp_Energy>
-1.31745

> <b_lp_Chiralities_Consistent>
1

> <s_lp_Variant>
AV-unprocessed.smi:1267-1

> <Gold.Version>
5.8.1

> <Gold.Id.Protein>
6NUR|6NUR_protein|mol2

> <Gold.PLP.Fitness>
39.8012

> <Gold.PLP.PLP>
-27.7075

> <Gold.PLP.part.hbond>
-3.9896

> <Gold.PLP.part.metal>
0.0000

> <Gold.PLP.part.buried>
-3.0247

> <Gold.PLP.part.nonpolar>
-22.5889

> <Gold.PLP.part.repulsive>
0.9966

> <Gold.PLP.ligand.clash>
0.0000

> <Gold.PLP.ligand.torsion>
1.5438

> <Gold.PLP.Chemscore.Hbond>
2.4000

> <Gold.PLP.Chemscore.CHOScore>
1.9761

> <Gold.PLP.Chemscore.Metal>
0.0000

> <Gold.Chemscore.Hbonds>
donor molecule, donor type, donor heavy atom, donor atom, acceptor molecule, acceptor atom, score
      L1  H     9    28       P1  7948  1.00
      P1  H  7989  7998       L1     4  1.00
      P1  H  8011  8017       L1     3  0.38
      L1  C    14    31       P1  7921  1.00
      L1  C    16    33       P1 10957  0.97

> <Gold.PLP.Chemscore.Internal.Correction>
2.0533

> <Gold.Rescore>
     Score         DG    S(hbond)    S(metal)    S(lipo)     H(rot)  DE(clash)    DE(int)     intcor
     11.37     -15.33       2.18        0.00      55.61       1.53       0.88       3.08       ----

> <Gold.Chemscore.Fitness>
11.3695

> <Gold.Chemscore.DG>
-15.3300

> <Gold.Chemscore.ZeroCoef>
-5.4800

> <Gold.Chemscore.Hbond>
2.1757

> <Gold.Chemscore.Metal>
0.0000

> <Gold.Chemscore.Lipo>
55.6085

> <Gold.Chemscore.Internal_Hbond>
0.0000

> <Gold.Chemscore.DEClash>
0.8846

> <Gold.Chemscore.DEInternal>
3.0759

> <Gold.Chemscore.Rot>
1.5324

> <Gold.Chemscore.Internal.Correction>
   9.000000E+99

> <Gold.Chemscore.Hbonds>
donor molecule, donor type, donor heavy atom, donor atom, acceptor molecule, acceptor atom, score
      L1  H     9    28       P1  7948  0.97
      P1  H  7989  7998       L1     4  0.30
      P1  H  8011  8017       L1     3  0.40

> <Gold.Chemscore.Hbond.Weighted>
-7.2668

> <Gold.Chemscore.Metal.Weighted>
-0.0000

> <Gold.Chemscore.Lipo.Weighted>
-6.5062

> <Gold.Chemscore.Internal_Hbond.Weighted>
0.0000

> <Gold.Chemscore.DEClash.Weighted>
0.8846

> <Gold.Chemscore.DEInternal.Weighted>
3.0759

> <Gold.Chemscore.Rot.Weighted>
3.9229

> <Gold.Chemscore.Internal.Correction.Weighted>
   9.000000E+99

> <Gold.Protein.RotatedTorsions>
[ 6907 6896 6895 6894 ] final   67.35 input  -60.11 | X-H torsion
[ 7974 7965 7964 7962 ] final   89.81 input  175.53 | X-H torsion
[ 8008 7997 7996 7995 ] final  -63.27 input   59.86 | X-H torsion
[ 10167 10162 10161 10158 ] final -108.58 input  -65.29 | X-H torsion
[ 10718 10713 10712 10709 ] final    9.18 input   66.30 | X-H torsion
[ 10763 10752 10751 10750 ] final -130.31 input  -60.55 | X-H torsion
[ 11005 11000 10999 10996 ] final  -17.55 input  -57.11 | X-H torsion

> <Gold.Protein.ActiveResidues>
 VAL166  LYS551  ARG553  GLY616  TRP617  ASP618  TYR619  PRO620  LYS621  CYS622 
 ASP623  PHE694  ASN695  SER759  ASP760  ASP761  ALA762  ILE779  LEU786  VAL792 
 PHE793  MET794  SER795  GLU796  ALA797  LYS798  CYS799  TRP800  GLU811  SER814 

> <Gold.Protein.RotatedAtoms>
  152.4546  134.5320  159.9813 H   0  0  0  0  0  0  0  0  0  0  0  0  # atno 6907 bound_to 6896
  151.5384  133.3431  159.2939 H   0  0  0  0  0  0  0  0  0  0  0  0  # atno 6908 bound_to 6896
  150.8485  134.7833  159.7053 H   0  0  0  0  0  0  0  0  0  0  0  0  # atno 6909 bound_to 6896
  145.5273  139.2281  143.2638 H   0  0  0  0  0  0  0  0  0  0  0  0  # atno 7974 bound_to 7965
  154.4545  140.0978  156.6716 H   0  0  0  0  0  0  0  0  0  0  0  0  # atno 8008 bound_to 7997
  155.5182  140.3478  155.4383 H   0  0  0  0  0  0  0  0  0  0  0  0  # atno 8009 bound_to 7997
  156.0749  140.1358  156.9772 H   0  0  0  0  0  0  0  0  0  0  0  0  # atno 8010 bound_to 7997
  140.1646  143.4092  152.1400 H   0  0  0  0  0  0  0  0  0  0  0  0  # atno 10167 bound_to 10162
  156.9625  130.5938  149.5663 H   0  0  0  0  0  0  0  0  0  0  0  0  # atno 10718 bound_to 10713
  154.8756  135.3867  154.4062 H   0  0  0  0  0  0  0  0  0  0  0  0  # atno 10763 bound_to 10752
  153.4781  135.7030  153.5959 H   0  0  0  0  0  0  0  0  0  0  0  0  # atno 10764 bound_to 10752
  153.4387  135.3861  155.2182 H   0  0  0  0  0  0  0  0  0  0  0  0  # atno 10765 bound_to 10752
  140.8179  133.8090  155.9629 H   0  0  0  0  0  0  0  0  0  0  0  0  # atno 11005 bound_to 11000
  146.2067  140.6088  142.9078 LP  0  0  0  0  0  0  0  0  0  0  0  0  # atno 17320 bound_to 7965
  144.7644  140.5496  143.6713 LP  0  0  0  0  0  0  0  0  0  0  0  0  # atno 17321 bound_to 7965
  139.5365  144.7215  151.4875 LP  0  0  0  0  0  0  0  0  0  0  0  0  # atno 17342 bound_to 10162
  140.6621  143.8476  150.6900 LP  0  0  0  0  0  0  0  0  0  0  0  0  # atno 17343 bound_to 10162
  156.0316  130.5407  150.8549 LP  0  0  0  0  0  0  0  0  0  0  0  0  # atno 17370 bound_to 10713
  157.5648  131.0946  150.9506 LP  0  0  0  0  0  0  0  0  0  0  0  0  # atno 17371 bound_to 10713
  140.9130  134.2237  157.4974 LP  0  0  0  0  0  0  0  0  0  0  0  0  # atno 17394 bound_to 11000
  139.8710  134.9758  156.4898 LP  0  0  0  0  0  0  0  0  0  0  0  0  # atno 17395 bound_to 11000

$$$$
