AV-unprocessed.smi:283|AV-procd|sdf|2135|dock4
  -GOLD-   2262021453D 1   1.00000     0.00000
 Structure written by MMmdl.
 48 51  0  0  0  0  0  0  0  0  1 V2000
  149.6522  141.3284  157.2617 C   0  0  0  0  0  0  0  0  0  0  0  0
  151.1182  141.7498  157.0944 C   0  0  2  0  0  0  0  0  0  0  0  0
  151.9485  140.5766  156.8268 N   0  0  0  0  0  0  0  0  0  0  0  0
  151.5101  139.5911  156.0120 C   0  0  0  0  0  0  0  0  0  0  0  0
  150.7951  139.8719  154.8915 N   0  0  0  0  0  0  0  0  0  0  0  0
  150.3758  138.8801  154.1013 C   0  0  0  0  0  0  0  0  0  0  0  0
  150.5549  137.5660  154.2479 N   0  0  0  0  0  0  0  0  0  0  0  0
  151.2677  137.2752  155.3746 C   0  0  0  0  0  0  0  0  0  0  0  0
  151.7764  138.2281  156.3014 C   0  0  0  0  0  0  0  0  0  0  0  0
  152.4539  137.5775  157.3235 N   0  0  0  0  0  0  0  0  0  0  0  0
  152.3488  136.3133  157.0154 C   0  0  0  0  0  0  0  0  0  0  0  0
  151.6539  136.0392  155.8581 N   0  0  0  0  0  0  0  0  0  0  0  0
  151.3862  134.6859  155.2684 C   0  0  1  0  0  0  0  0  0  0  0  0
  151.9550  133.6979  156.0763 O   0  0  0  0  0  0  0  0  0  0  0  0
  150.9472  132.8275  156.5893 C   0  0  2  0  0  0  0  0  0  0  0  0
  151.5104  131.4192  156.8462 C   0  0  0  0  0  0  0  0  0  0  0  0
  152.7234  131.5087  157.5623 O   0  0  0  0  0  0  0  0  0  0  0  0
  149.8237  132.9136  155.5480 C   0  0  2  0  0  0  0  0  0  0  0  0
  150.0783  132.0587  154.4479 O   0  0  0  0  0  0  0  0  0  0  0  0
  149.8838  134.3711  155.1182 C   0  0  1  0  0  0  0  0  0  0  0  0
  149.0448  135.1663  155.9374 O   0  0  0  0  0  0  0  0  0  0  0  0
  151.5776  142.5794  158.2956 C   0  0  0  0  0  0  0  0  0  0  0  0
  151.1902  143.9359  158.3960 C   0  0  0  0  0  0  0  0  0  0  0  0
  151.5975  144.7199  159.4916 C   0  0  0  0  0  0  0  0  0  0  0  0
  152.4023  144.1564  160.4978 C   0  0  0  0  0  0  0  0  0  0  0  0
  152.8021  142.8106  160.4033 C   0  0  0  0  0  0  0  0  0  0  0  0
  152.3981  142.0207  159.3079 C   0  0  0  0  0  0  0  0  0  0  0  0
  152.9292  140.3766  159.2402 Cl  0  0  0  0  0  0  0  0  0  0  0  0
  151.9101  134.6973  154.3119 H   0  0  0  0  0  0  0  0  0  0  0  0
  150.5617  133.2439  157.5207 H   0  0  0  0  0  0  0  0  0  0  0  0
  148.8550  132.6411  155.9694 H   0  0  0  0  0  0  0  0  0  0  0  0
  149.5786  134.5158  154.0810 H   0  0  0  0  0  0  0  0  0  0  0  0
  149.0068  142.1988  157.3827 H   0  0  0  0  0  0  0  0  0  0  0  0
  149.5185  140.6905  158.1361 H   0  0  0  0  0  0  0  0  0  0  0  0
  149.2997  140.7770  156.3895 H   0  0  0  0  0  0  0  0  0  0  0  0
  151.1718  142.3642  156.1966 H   0  0  0  0  0  0  0  0  0  0  0  0
  152.9082  140.6421  157.1341 H   0  0  0  0  0  0  0  0  0  0  0  0
  149.8176  139.1823  153.2275 H   0  0  0  0  0  0  0  0  0  0  0  0
  152.7824  135.5370  157.6290 H   0  0  0  0  0  0  0  0  0  0  0  0
  150.8144  130.8406  157.4543 H   0  0  0  0  0  0  0  0  0  0  0  0
  151.6618  130.8737  155.9143 H   0  0  0  0  0  0  0  0  0  0  0  0
  153.3733  130.9881  157.1152 H   0  0  0  0  0  0  0  0  0  0  0  0
  149.7182  131.2065  154.6404 H   0  0  0  0  0  0  0  0  0  0  0  0
  148.1630  135.1161  155.6015 H   0  0  0  0  0  0  0  0  0  0  0  0
  150.5743  144.3836  157.6300 H   0  0  0  0  0  0  0  0  0  0  0  0
  151.2923  145.7537  159.5592 H   0  0  0  0  0  0  0  0  0  0  0  0
  152.7148  144.7561  161.3398 H   0  0  0  0  0  0  0  0  0  0  0  0
  153.4237  142.3822  161.1757 H   0  0  0  0  0  0  0  0  0  0  0  0
  1  2  1  0  0  0  0
  1 33  1  0  0  0  0
  1 34  1  0  0  0  0
  1 35  1  0  0  0  0
  2  3  1  0  0  0  0
  2 22  1  0  0  0  0
  2 36  1  0  0  0  0
  3  4  1  0  0  0  0
  3 37  1  0  0  0  0
  4  9  1  0  0  0  0
  4  5  2  0  0  0  0
  5  6  1  0  0  0  0
  6  7  2  0  0  0  0
  6 38  1  0  0  0  0
  7  8  1  0  0  0  0
  8 12  1  0  0  0  0
  8  9  2  0  0  0  0
  9 10  1  0  0  0  0
 10 11  2  0  0  0  0
 11 12  1  0  0  0  0
 11 39  1  0  0  0  0
 12 13  1  0  0  0  0
 13 29  1  0  0  0  0
 13 20  1  0  0  0  0
 13 14  1  0  0  0  0
 14 15  1  0  0  0  0
 15 30  1  0  0  0  0
 15 16  1  0  0  0  0
 15 18  1  0  0  0  0
 16 17  1  0  0  0  0
 16 40  1  0  0  0  0
 16 41  1  0  0  0  0
 17 42  1  0  0  0  0
 18 31  1  0  0  0  0
 18 19  1  0  0  0  0
 18 20  1  0  0  0  0
 19 43  1  0  0  0  0
 20 32  1  0  0  0  0
 20 21  1  0  0  0  0
 21 44  1  0  0  0  0
 22 27  1  0  0  0  0
 22 23  2  0  0  0  0
 23 24  1  0  0  0  0
 23 45  1  0  0  0  0
 24 25  2  0  0  0  0
 24 46  1  0  0  0  0
 25 26  1  0  0  0  0
 25 47  1  0  0  0  0
 26 27  2  0  0  0  0
 26 48  1  0  0  0  0
 27 28  1  0  0  0  0
M  END
> <s_m_source_file>
AV-unprocessed.smi

> <i_m_source_file_index>
283

> <i_lp_mmshare_version>
43012

> <i_f3d_flags>
0

> <s_epik_input>
Q2xjMVtjSF1bY0hdW2NIXVtjSF1jMVtDQEhdKFtDSDNdKVtOSF1jKG5bY0hdbjIpYyhjMjMpbltjSF1uM1tDQEBIXTRPW0NASF0oW0NIMl1bT0hdKVtDQEBIXShbT0hdKVtDQEhdNFtPSF0=

> <s_epik_cmdline>
J2VwaWtfcHl0aG9uJywgJy1waCcsICc3LjAnLCAnLXRuJywgJzgnLCAnLW1hJywgJzIwMCcsICctbWV0YWxfYmluZGluZycsICctaW1hZScsICc8aW5maWxlLm1hZT4nLCAnLW9tYWUnLCAnPG91dGZpbGUubWFlPic=

> <r_lp_tautomer_probability>
1

> <r_epik_Ionization_Penalty>
0.000266407

> <r_epik_Ionization_Penalty_Charging>
0

> <r_epik_Ionization_Penalty_Neutral>
0.000266407

> <r_epik_State_Penalty>
-0

> <r_epik_Charging_Adjusted_Penalty>
0

> <i_epik_Tot_Q>
0

> <i_epik_Tot_abs_Q>
0

> <r_epik_Metal_State_Penalty>
-0

> <b_epik_Metal_Only>
0

> <s_epik_Chemistry_Notes>
This compound contains an acetal/aminal-like group ( X-CH(R)-Y where X, Y are N, S, or O) that may be acid/base labile, releasing an aldehyde.

> <s_lp_Force_Field>
OPLS_2005

> <r_lp_Energy>
46.2986

> <b_lp_Chiralities_Consistent>
1

> <s_lp_Variant>
AV-unprocessed.smi:283-11

> <Gold.Version>
5.8.1

> <Gold.Id.Protein>
6NUR|6NUR_protein|mol2

> <Gold.PLP.Fitness>
49.7745

> <Gold.PLP.PLP>
-43.1680

> <Gold.PLP.part.hbond>
-2.0000

> <Gold.PLP.part.metal>
0.0000

> <Gold.PLP.part.buried>
-6.4221

> <Gold.PLP.part.nonpolar>
-36.2040

> <Gold.PLP.part.repulsive>
0.5425

> <Gold.PLP.ligand.clash>
0.0000

> <Gold.PLP.ligand.torsion>
1.1454

> <Gold.PLP.Chemscore.Hbond>
1.9500

> <Gold.PLP.Chemscore.CHOScore>
1.0000

> <Gold.PLP.Chemscore.Metal>
0.0000

> <Gold.Chemscore.Hbonds>
donor molecule, donor type, donor heavy atom, donor atom, acceptor molecule, acceptor atom, score
      P1  H  7989  7998       L1     5  0.75
      L1  C     6    38       P1  7957  1.00

> <Gold.PLP.Chemscore.Internal.Correction>
0.0473

> <Gold.Rescore>
     Score         DG    S(hbond)    S(metal)    S(lipo)     H(rot)  DE(clash)    DE(int)     intcor
      9.78     -12.97       1.61        0.00     107.60       4.10       0.17       3.02       ----

> <Gold.Chemscore.Fitness>
9.7835

> <Gold.Chemscore.DG>
-12.9689

> <Gold.Chemscore.ZeroCoef>
-5.4800

> <Gold.Chemscore.Hbond>
1.6132

> <Gold.Chemscore.Metal>
0.0000

> <Gold.Chemscore.Lipo>
107.5967

> <Gold.Chemscore.Internal_Hbond>
0.0000

> <Gold.Chemscore.DEClash>
0.1662

> <Gold.Chemscore.DEInternal>
3.0193

> <Gold.Chemscore.Rot>
4.0968

> <Gold.Chemscore.Internal.Correction>
   9.000000E+99

> <Gold.Chemscore.Hbonds>
donor molecule, donor type, donor heavy atom, donor atom, acceptor molecule, acceptor atom, score
      P1  H  7989  7998       L1     5  0.09

> <Gold.Chemscore.Hbond.Weighted>
-5.3880

> <Gold.Chemscore.Metal.Weighted>
-0.0000

> <Gold.Chemscore.Lipo.Weighted>
-12.5888

> <Gold.Chemscore.Internal_Hbond.Weighted>
0.0000

> <Gold.Chemscore.DEClash.Weighted>
0.1662

> <Gold.Chemscore.DEInternal.Weighted>
3.0193

> <Gold.Chemscore.Rot.Weighted>
10.4879

> <Gold.Chemscore.Internal.Correction.Weighted>
   9.000000E+99

> <Gold.Protein.RotatedTorsions>
[ 6907 6896 6895 6894 ] final   50.10 input  -60.11 | X-H torsion
[ 7974 7965 7964 7962 ] final  166.25 input  175.53 | X-H torsion
[ 8008 7997 7996 7995 ] final -125.85 input   59.86 | X-H torsion
[ 10167 10162 10161 10158 ] final   85.18 input  -65.29 | X-H torsion
[ 10718 10713 10712 10709 ] final  105.72 input   66.30 | X-H torsion
[ 10763 10752 10751 10750 ] final   75.52 input  -60.55 | X-H torsion
[ 11005 11000 10999 10996 ] final  -47.00 input  -57.11 | X-H torsion

> <Gold.Protein.ActiveResidues>
 VAL166  LYS551  ARG553  GLY616  TRP617  ASP618  TYR619  PRO620  LYS621  CYS622 
 ASP623  PHE694  ASN695  SER759  ASP760  ASP761  ALA762  ILE779  LEU786  VAL792 
 PHE793  MET794  SER795  GLU796  ALA797  LYS798  CYS799  TRP800  GLU811  SER814 

> <Gold.Protein.RotatedAtoms>
  152.2981  134.7644  160.0363 H   0  0  0  0  0  0  0  0  0  0  0  0  # atno 6907 bound_to 6896
  151.8167  133.3383  159.3580 H   0  0  0  0  0  0  0  0  0  0  0  0  # atno 6908 bound_to 6896
  150.7260  134.5542  159.5854 H   0  0  0  0  0  0  0  0  0  0  0  0  # atno 6909 bound_to 6896
  144.7470  139.8588  143.6379 H   0  0  0  0  0  0  0  0  0  0  0  0  # atno 7974 bound_to 7965
  155.2200  140.0421  157.2947 H   0  0  0  0  0  0  0  0  0  0  0  0  # atno 8008 bound_to 7997
  154.5956  140.2438  155.7833 H   0  0  0  0  0  0  0  0  0  0  0  0  # atno 8009 bound_to 7997
  156.2288  140.2945  156.0143 H   0  0  0  0  0  0  0  0  0  0  0  0  # atno 8010 bound_to 7997
  139.9004  144.6333  150.8643 H   0  0  0  0  0  0  0  0  0  0  0  0  # atno 10167 bound_to 10162
  157.6695  131.0834  150.5899 H   0  0  0  0  0  0  0  0  0  0  0  0  # atno 10718 bound_to 10713
  153.0661  135.4985  154.8202 H   0  0  0  0  0  0  0  0  0  0  0  0  # atno 10763 bound_to 10752
  154.6955  135.2992  154.9420 H   0  0  0  0  0  0  0  0  0  0  0  0  # atno 10764 bound_to 10752
  154.0161  135.6748  153.4821 H   0  0  0  0  0  0  0  0  0  0  0  0  # atno 10765 bound_to 10752
  141.0614  133.6708  156.3235 H   0  0  0  0  0  0  0  0  0  0  0  0  # atno 11005 bound_to 11000
  146.1363  139.4410  143.0137 LP  0  0  0  0  0  0  0  0  0  0  0  0  # atno 17320 bound_to 7965
  145.7086  141.0113  143.1465 LP  0  0  0  0  0  0  0  0  0  0  0  0  # atno 17321 bound_to 7965
  140.7708  143.3441  151.2147 LP  0  0  0  0  0  0  0  0  0  0  0  0  # atno 17342 bound_to 10162
  139.7030  143.9501  152.2914 LP  0  0  0  0  0  0  0  0  0  0  0  0  # atno 17343 bound_to 10162
  156.6200  130.4403  149.5826 LP  0  0  0  0  0  0  0  0  0  0  0  0  # atno 17370 bound_to 10713
  156.2363  130.6825  151.1513 LP  0  0  0  0  0  0  0  0  0  0  0  0  # atno 17371 bound_to 10713
  140.5861  134.5697  157.5490 LP  0  0  0  0  0  0  0  0  0  0  0  0  # atno 17394 bound_to 11000
  139.9436  134.7742  156.0617 LP  0  0  0  0  0  0  0  0  0  0  0  0  # atno 17395 bound_to 11000

$$$$
