AV-unprocessed.smi:3013|AV-procd|sdf|11465|dock6
  -GOLD-   2272016403D 1   1.00000     0.00000
 Structure written by MMmdl.
 45 46  0  0  0  0  0  0  0  0  2 V2000
  148.4644  129.7083  153.5797 C   0  0  0  0  0  0  0  0  0  0  0  0
  148.0443  131.1893  153.5354 C   0  0  1  0  0  0  0  0  0  0  0  0
  149.2509  132.1550  153.6277 C   0  0  0  0  0  0  0  0  0  0  0  0
  149.0716  133.2746  154.6708 C   0  0  0  0  0  0  0  0  0  0  0  0
  149.5085  134.5674  154.1554 N   0  0  0  0  0  0  0  0  0  0  0  0
  150.4917  135.3115  154.6825 C   0  0  0  0  0  0  0  0  0  0  0  0
  151.1485  134.9684  155.6660 O   0  0  0  0  0  0  0  0  0  0  0  0
  150.6562  136.4581  154.0013 N   0  0  0  0  0  0  0  0  0  0  0  0
  151.5976  137.4923  154.2528 C   0  0  0  0  0  0  0  0  0  0  0  0
  152.9009  137.3317  154.4591 N   0  0  0  0  0  0  0  0  0  0  0  0
  153.2662  138.6360  154.6350 C   0  0  0  0  0  0  0  0  0  0  0  0
  152.2854  139.5350  154.5461 N   0  0  0  0  0  0  0  0  0  0  0  0
  151.1991  138.7669  154.2957 N   0  0  0  0  0  0  0  0  0  0  0  0
  149.8880  139.3612  154.1235 C   0  0  0  0  0  0  0  0  0  0  0  0
  147.1777  131.4463  152.3473 N   0  3  0  0  0  0  0  0  0  0  0  0
  147.0746  132.8727  151.9314 C   0  0  0  0  0  0  0  0  0  0  0  0
  146.3688  132.9951  150.5707 C   0  0  0  0  0  0  0  0  0  0  0  0
  144.9833  132.3363  150.6106 C   0  0  0  0  0  0  0  0  0  0  0  0
  145.1051  130.8813  151.0837 C   0  0  0  0  0  0  0  0  0  0  0  0
  145.8417  130.7976  152.4316 C   0  0  0  0  0  0  0  0  0  0  0  0
  148.9207  129.4524  154.5357 H   0  0  0  0  0  0  0  0  0  0  0  0
  149.1855  129.4643  152.7997 H   0  0  0  0  0  0  0  0  0  0  0  0
  147.6023  129.0527  153.4538 H   0  0  0  0  0  0  0  0  0  0  0  0
  147.4217  131.3503  154.4167 H   0  0  0  0  0  0  0  0  0  0  0  0
  150.1561  131.5916  153.8566 H   0  0  0  0  0  0  0  0  0  0  0  0
  149.4222  132.6229  152.6581 H   0  0  0  0  0  0  0  0  0  0  0  0
  148.0206  133.3608  154.9477 H   0  0  0  0  0  0  0  0  0  0  0  0
  149.6178  133.0497  155.5876 H   0  0  0  0  0  0  0  0  0  0  0  0
  149.0185  134.9260  153.3487 H   0  0  0  0  0  0  0  0  0  0  0  0
  150.0399  136.6118  153.2170 H   0  0  0  0  0  0  0  0  0  0  0  0
  154.2855  138.9322  154.8341 H   0  0  0  0  0  0  0  0  0  0  0  0
  149.1825  138.9016  154.8167 H   0  0  0  0  0  0  0  0  0  0  0  0
  149.5433  139.1966  153.1024 H   0  0  0  0  0  0  0  0  0  0  0  0
  149.9246  140.4342  154.3172 H   0  0  0  0  0  0  0  0  0  0  0  0
  146.5212  133.4421  152.6793 H   0  0  0  0  0  0  0  0  0  0  0  0
  148.0652  133.3209  151.8595 H   0  0  0  0  0  0  0  0  0  0  0  0
  146.2737  134.0453  150.2930 H   0  0  0  0  0  0  0  0  0  0  0  0
  146.9778  132.5244  149.7978 H   0  0  0  0  0  0  0  0  0  0  0  0
  144.3306  132.8904  151.2865 H   0  0  0  0  0  0  0  0  0  0  0  0
  144.5182  132.3750  149.6252 H   0  0  0  0  0  0  0  0  0  0  0  0
  144.1142  130.4345  151.1718 H   0  0  0  0  0  0  0  0  0  0  0  0
  145.6428  130.2969  150.3357 H   0  0  0  0  0  0  0  0  0  0  0  0
  145.9523  129.7491  152.7104 H   0  0  0  0  0  0  0  0  0  0  0  0
  145.2439  131.2720  153.2106 H   0  0  0  0  0  0  0  0  0  0  0  0
  147.6433  130.9750  151.5846 H   0  0  0  0  0  0  0  0  0  0  0  0
  1  2  1  0  0  0  0
  1 21  1  0  0  0  0
  1 22  1  0  0  0  0
  1 23  1  0  0  0  0
  2  3  1  0  0  0  0
  2 15  1  0  0  0  0
  2 24  1  0  0  0  0
  3  4  1  0  0  0  0
  3 25  1  0  0  0  0
  3 26  1  0  0  0  0
  4  5  1  0  0  0  0
  4 27  1  0  0  0  0
  4 28  1  0  0  0  0
  5  6  1  0  0  0  0
  5 29  1  0  0  0  0
  6  7  2  0  0  0  0
  6  8  1  0  0  0  0
  8  9  1  0  0  0  0
  8 30  1  0  0  0  0
  9 13  1  0  0  0  0
  9 10  2  0  0  0  0
 10 11  1  0  0  0  0
 11 12  2  0  0  0  0
 11 31  1  0  0  0  0
 12 13  1  0  0  0  0
 13 14  1  0  0  0  0
 14 32  1  0  0  0  0
 14 33  1  0  0  0  0
 14 34  1  0  0  0  0
 15 20  1  0  0  0  0
 15 16  1  0  0  0  0
 15 45  1  0  0  0  0
 16 17  1  0  0  0  0
 16 35  1  0  0  0  0
 16 36  1  0  0  0  0
 17 18  1  0  0  0  0
 17 37  1  0  0  0  0
 17 38  1  0  0  0  0
 18 19  1  0  0  0  0
 18 39  1  0  0  0  0
 18 40  1  0  0  0  0
 19 20  1  0  0  0  0
 19 41  1  0  0  0  0
 19 42  1  0  0  0  0
 20 43  1  0  0  0  0
 20 44  1  0  0  0  0
M  CHG  1  15   1
M  END
> <s_m_source_file>
AV-unprocessed.smi

> <i_m_source_file_index>
3013

> <i_lp_mmshare_version>
43012

> <i_f3d_flags>
0

> <s_epik_input>
W0NIMl0xW0NIMl1bQ0gyXVtDSDJdW0NIMl1OMVtDQEhdKFtDSDNdKVtDSDJdW0NIMl1bTkhdQyg9TylbTkhdYzJuW2NIXW5uMltDSDNd

> <s_epik_cmdline>
J2VwaWtfcHl0aG9uJywgJy1waCcsICc3LjAnLCAnLXRuJywgJzgnLCAnLW1hJywgJzIwMCcsICctbWV0YWxfYmluZGluZycsICctaW1hZScsICc8aW5maWxlLm1hZT4nLCAnLW9tYWUnLCAnPG91dGZpbGUubWFlPic=

> <r_lp_tautomer_probability>
1

> <r_epik_Ionization_Penalty>
0.000375855

> <r_epik_Ionization_Penalty_Charging>
0.000355659

> <r_epik_Ionization_Penalty_Neutral>
2.01955e-05

> <r_epik_State_Penalty>
0.000216264

> <r_epik_Charging_Adjusted_Penalty>
0.000571923

> <i_epik_Tot_Q>
1

> <i_epik_Tot_abs_Q>
1

> <r_epik_Metal_State_Penalty>
-0

> <b_epik_Metal_Only>
0

> <s_lp_Force_Field>
OPLS_2005

> <r_lp_Energy>
21.9092

> <b_lp_Chiralities_Consistent>
1

> <s_lp_Variant>
AV-unprocessed.smi:3013-2

> <Gold.Version>
5.8.1

> <Gold.Id.Protein>
6NUR|6NUR_protein|mol2

> <Gold.PLP.Fitness>
52.0680

> <Gold.PLP.PLP>
-42.3638

> <Gold.PLP.part.hbond>
-6.5917

> <Gold.PLP.part.metal>
0.0000

> <Gold.PLP.part.buried>
-5.0528

> <Gold.PLP.part.nonpolar>
-31.6370

> <Gold.PLP.part.repulsive>
0.2851

> <Gold.PLP.ligand.clash>
0.0000

> <Gold.PLP.ligand.torsion>
1.6989

> <Gold.PLP.Chemscore.Hbond>
4.3200

> <Gold.PLP.Chemscore.CHOScore>
0.0000

> <Gold.PLP.Chemscore.Metal>
0.0000

> <Gold.Chemscore.Hbonds>
donor molecule, donor type, donor heavy atom, donor atom, acceptor molecule, acceptor atom, score
      L1  H     5    29       P1  7948  0.91
      L1  H     8    30       P1  7948  0.60
      L1  H    15    45       P1 10747  1.00
      P1  H  7989  7998       L1    12  0.43
      P1  H 10752 10764       L1    10  0.29

> <Gold.PLP.Chemscore.Internal.Correction>
0.1420

> <Gold.Rescore>
     Score         DG    S(hbond)    S(metal)    S(lipo)     H(rot)  DE(clash)    DE(int)     intcor
     17.83     -19.88       3.38        0.00      70.77       2.01       0.38       1.68       ----

> <Gold.Chemscore.Fitness>
17.8289

> <Gold.Chemscore.DG>
-19.8806

> <Gold.Chemscore.ZeroCoef>
-5.4800

> <Gold.Chemscore.Hbond>
3.3768

> <Gold.Chemscore.Metal>
0.0000

> <Gold.Chemscore.Lipo>
70.7685

> <Gold.Chemscore.Internal_Hbond>
0.0000

> <Gold.Chemscore.DEClash>
0.3755

> <Gold.Chemscore.DEInternal>
1.6762

> <Gold.Chemscore.Rot>
2.0148

> <Gold.Chemscore.Internal.Correction>
   9.000000E+99

> <Gold.Chemscore.Hbonds>
donor molecule, donor type, donor heavy atom, donor atom, acceptor molecule, acceptor atom, score
      L1  H     5    29       P1  7948  0.20
      L1  H     8    30       P1  7948  0.04
      L1  H    15    45       P1 10747  0.97
      P1  H  7989  7998       L1    12  0.03
      P1  H 10752 10764       L1    10  0.08

> <Gold.Chemscore.Hbond.Weighted>
-11.2785

> <Gold.Chemscore.Metal.Weighted>
-0.0000

> <Gold.Chemscore.Lipo.Weighted>
-8.2799

> <Gold.Chemscore.Internal_Hbond.Weighted>
0.0000

> <Gold.Chemscore.DEClash.Weighted>
0.3755

> <Gold.Chemscore.DEInternal.Weighted>
1.6762

> <Gold.Chemscore.Rot.Weighted>
5.1579

> <Gold.Chemscore.Internal.Correction.Weighted>
   9.000000E+99

> <Gold.Protein.RotatedTorsions>
[ 6907 6896 6895 6894 ] final -165.35 input  -60.11 | X-H torsion
[ 7974 7965 7964 7962 ] final -177.67 input  175.53 | X-H torsion
[ 8008 7997 7996 7995 ] final  -45.18 input   59.86 | X-H torsion
[ 10167 10162 10161 10158 ] final  176.88 input  -65.29 | X-H torsion
[ 10718 10713 10712 10709 ] final   62.83 input   66.30 | X-H torsion
[ 10763 10752 10751 10750 ] final  -58.52 input  -60.55 | X-H torsion
[ 11005 11000 10999 10996 ] final    4.82 input  -57.11 | X-H torsion

> <Gold.Protein.ActiveResidues>
 VAL166  LYS551  ARG553  GLY616  TRP617  ASP618  TYR619  PRO620  LYS621  CYS622 
 ASP623  PHE694  ASN695  SER759  ASP760  ASP761  ALA762  ILE779  LEU786  VAL792 
 PHE793  MET794  SER795  GLU796  ALA797  LYS798  CYS799  TRP800  GLU811  SER814 

> <Gold.Protein.RotatedAtoms>
  151.4263  133.3683  159.2762 H   0  0  0  0  0  0  0  0  0  0  0  0  # atno 6907 bound_to 6896
  150.9257  134.8675  159.7529 H   0  0  0  0  0  0  0  0  0  0  0  0  # atno 6908 bound_to 6896
  152.5004  134.4205  159.9531 H   0  0  0  0  0  0  0  0  0  0  0  0  # atno 6909 bound_to 6896
  144.7128  140.0984  143.6418 H   0  0  0  0  0  0  0  0  0  0  0  0  # atno 7974 bound_to 7965
  154.4000  140.1403  156.3805 H   0  0  0  0  0  0  0  0  0  0  0  0  # atno 8008 bound_to 7997
  155.8008  140.3476  155.5381 H   0  0  0  0  0  0  0  0  0  0  0  0  # atno 8009 bound_to 7997
  155.8485  140.0938  157.1680 H   0  0  0  0  0  0  0  0  0  0  0  0  # atno 8010 bound_to 7997
  139.5231  144.2863  152.0502 H   0  0  0  0  0  0  0  0  0  0  0  0  # atno 10167 bound_to 10162
  157.5928  130.9071  149.9637 H   0  0  0  0  0  0  0  0  0  0  0  0  # atno 10718 bound_to 10713
  154.2394  135.6346  153.5202 H   0  0  0  0  0  0  0  0  0  0  0  0  # atno 10763 bound_to 10752
  152.9933  135.5538  154.5927 H   0  0  0  0  0  0  0  0  0  0  0  0  # atno 10764 bound_to 10752
  154.5429  135.2896  155.1054 H   0  0  0  0  0  0  0  0  0  0  0  0  # atno 10765 bound_to 10752
  140.5776  134.0043  155.8034 H   0  0  0  0  0  0  0  0  0  0  0  0  # atno 11005 bound_to 11000
  145.9559  139.2766  143.1184 LP  0  0  0  0  0  0  0  0  0  0  0  0  # atno 17320 bound_to 7965
  145.9273  140.9073  143.0374 LP  0  0  0  0  0  0  0  0  0  0  0  0  # atno 17321 bound_to 7965
  140.2316  144.4362  150.6297 LP  0  0  0  0  0  0  0  0  0  0  0  0  # atno 17342 bound_to 10162
  140.6351  143.2193  151.6412 LP  0  0  0  0  0  0  0  0  0  0  0  0  # atno 17343 bound_to 10162
  156.0986  130.3657  150.0261 LP  0  0  0  0  0  0  0  0  0  0  0  0  # atno 17370 bound_to 10713
  156.8380  130.9415  151.3633 LP  0  0  0  0  0  0  0  0  0  0  0  0  # atno 17371 bound_to 10713
  141.1017  133.9758  157.3068 LP  0  0  0  0  0  0  0  0  0  0  0  0  # atno 17394 bound_to 11000
  139.9332  135.0198  156.8470 LP  0  0  0  0  0  0  0  0  0  0  0  0  # atno 17395 bound_to 11000

$$$$
