AV-unprocessed.smi:107|AV-procd|sdf|1027|dock1
  -GOLD-   2262018 23D 1   1.00000     0.00000
 Structure written by MMmdl.
 30 31  0  0  0  0  0  0  0  0  2 V2000
  150.5458  142.7964  158.9496 C   0  0  0  0  0  0  0  0  0  0  0  0
  150.8302  141.8911  157.7638 C   0  0  0  0  0  0  0  0  0  0  0  0
  150.0370  141.8651  156.6695 C   0  0  0  0  0  0  0  0  0  0  0  0
  150.3030  141.0399  155.5912 N   0  0  0  0  0  0  0  0  0  0  0  0
  149.4106  141.0523  154.3735 C   0  0  2  0  0  0  0  0  0  0  0  0
  148.1913  141.9378  154.5972 C   0  0  0  0  0  0  0  0  0  0  0  0
  147.1433  141.2670  153.7171 C   0  0  2  0  0  0  0  0  0  0  0  0
  145.9120  141.1816  154.4106 O   0  0  0  0  0  0  0  0  0  0  0  0
  147.7590  139.8998  153.3287 C   0  0  2  0  0  0  0  0  0  0  0  0
  146.8536  138.6672  153.5130 C   0  0  0  0  0  0  0  0  0  0  0  0
  145.9040  138.6010  152.4701 O   0  0  0  0  0  0  0  0  0  0  0  0
  148.9080  139.7760  154.1585 O   0  0  0  0  0  0  0  0  0  0  0  0
  151.4568  140.2146  155.6047 C   0  0  0  0  0  0  0  0  0  0  0  0
  151.6891  139.5259  154.6106 O   0  0  0  0  0  0  0  0  0  0  0  0
  152.2577  140.2266  156.7084 N   0  5  0  0  0  0  0  0  0  0  0  0
  152.0082  141.0152  157.7934 C   0  0  0  0  0  0  0  0  0  0  0  0
  152.7386  141.0143  158.7841 O   0  0  0  0  0  0  0  0  0  0  0  0
  149.6454  143.3898  158.7885 H   0  0  0  0  0  0  0  0  0  0  0  0
  151.3780  143.4819  159.1127 H   0  0  0  0  0  0  0  0  0  0  0  0
  150.4032  142.2052  159.8546 H   0  0  0  0  0  0  0  0  0  0  0  0
  149.1752  142.5152  156.6372 H   0  0  0  0  0  0  0  0  0  0  0  0
  150.0209  141.3433  153.5164 H   0  0  0  0  0  0  0  0  0  0  0  0
  147.9089  141.8979  155.6510 H   0  0  0  0  0  0  0  0  0  0  0  0
  148.4037  142.9720  154.3246 H   0  0  0  0  0  0  0  0  0  0  0  0
  146.9803  141.8577  152.8148 H   0  0  0  0  0  0  0  0  0  0  0  0
  145.2597  140.8340  153.8220 H   0  0  0  0  0  0  0  0  0  0  0  0
  148.0943  139.9649  152.2918 H   0  0  0  0  0  0  0  0  0  0  0  0
  147.4392  137.7481  153.5533 H   0  0  0  0  0  0  0  0  0  0  0  0
  146.2918  138.7403  154.4445 H   0  0  0  0  0  0  0  0  0  0  0  0
  145.2677  139.2874  152.5994 H   0  0  0  0  0  0  0  0  0  0  0  0
  1  2  1  0  0  0  0
  1 18  1  0  0  0  0
  1 19  1  0  0  0  0
  1 20  1  0  0  0  0
  2 16  1  0  0  0  0
  2  3  2  0  0  0  0
  3  4  1  0  0  0  0
  3 21  1  0  0  0  0
  4  5  1  0  0  0  0
  4 13  1  0  0  0  0
  5 12  1  0  0  0  0
  5  6  1  0  0  0  0
  5 22  1  0  0  0  0
  6  7  1  0  0  0  0
  6 23  1  0  0  0  0
  6 24  1  0  0  0  0
  7  8  1  0  0  0  0
  7  9  1  0  0  0  0
  7 25  1  0  0  0  0
  8 26  1  0  0  0  0
  9 10  1  0  0  0  0
  9 12  1  0  0  0  0
  9 27  1  0  0  0  0
 10 11  1  0  0  0  0
 10 28  1  0  0  0  0
 10 29  1  0  0  0  0
 11 30  1  0  0  0  0
 13 14  2  0  0  0  0
 13 15  1  0  0  0  0
 15 16  1  0  0  0  0
 16 17  2  0  0  0  0
M  CHG  1  15  -1
M  END
> <s_m_source_file>
AV-unprocessed.smi

> <i_m_source_file_index>
107

> <i_lp_mmshare_version>
43012

> <i_f3d_flags>
0

> <s_epik_input>
Tz1jMVtuSF1jKD1PKW4oW2NIXWMxW0NIM10pW0NAQEhdMltDSDJdW0NAQEhdKFtPSF0pW0NASF0oTzIpW0NIMl1bT0hd

> <s_epik_cmdline>
J2VwaWtfcHl0aG9uJywgJy1waCcsICc3LjAnLCAnLXRuJywgJzgnLCAnLW1hJywgJzIwMCcsICctbWV0YWxfYmluZGluZycsICctaW1hZScsICc8aW5maWxlLm1hZT4nLCAnLW9tYWUnLCAnPG91dGZpbGUubWFlPic=

> <r_lp_tautomer_probability>
0.999537

> <r_epik_Ionization_Penalty>
3.66603

> <r_epik_Ionization_Penalty_Charging>
1.09773e-07

> <r_epik_Ionization_Penalty_Neutral>
3.66603

> <r_epik_State_Penalty>
3.66562

> <r_epik_Charging_Adjusted_Penalty>
3.66562

> <i_epik_Tot_Q>
-1

> <i_epik_Tot_abs_Q>
1

> <r_epik_Metal_State_Penalty>
0.234536

> <b_epik_Metal_Only>
1

> <s_epik_Chemistry_Notes>
This compound contains an acetal/aminal-like group ( X-CH(R)-Y where X, Y are N, S, or O) that may be acid/base labile, releasing an aldehyde.

> <s_lp_Force_Field>
OPLS_2005

> <r_lp_Energy>
40.7454

> <b_lp_Chiralities_Consistent>
1

> <s_lp_Variant>
AV-unprocessed.smi:107-15

> <Gold.Version>
5.8.1

> <Gold.Id.Protein>
6NUR|6NUR_protein|mol2

> <Gold.PLP.Fitness>
42.8071

> <Gold.PLP.PLP>
-27.5668

> <Gold.PLP.part.hbond>
-3.7790

> <Gold.PLP.part.metal>
0.0000

> <Gold.PLP.part.buried>
2.9637

> <Gold.PLP.part.nonpolar>
-24.7630

> <Gold.PLP.part.repulsive>
0.2625

> <Gold.PLP.ligand.clash>
0.0000

> <Gold.PLP.ligand.torsion>
0.1470

> <Gold.PLP.Chemscore.Hbond>
4.1700

> <Gold.PLP.Chemscore.CHOScore>
1.0000

> <Gold.PLP.Chemscore.Metal>
0.0000

> <Gold.Chemscore.Hbonds>
donor molecule, donor type, donor heavy atom, donor atom, acceptor molecule, acceptor atom, score
      L1  H     8    26       P1 10175  0.84
      L1  H    11    30       P1 10175  1.00
      P1  H  7989  7998       L1    14  0.75
      P1  H  7997  8009       L1    15  1.69
      L1  C     3    21       P1  8028  1.00

> <Gold.PLP.Chemscore.Internal.Correction>
0.0243

> <Gold.Rescore>
     Score         DG    S(hbond)    S(metal)    S(lipo)     H(rot)  DE(clash)    DE(int)     intcor
      9.11     -12.06       2.45        0.00      45.13       2.69       1.45       1.50       ----

> <Gold.Chemscore.Fitness>
9.1090

> <Gold.Chemscore.DG>
-12.0565

> <Gold.Chemscore.ZeroCoef>
-5.4800

> <Gold.Chemscore.Hbond>
2.4477

> <Gold.Chemscore.Metal>
0.0000

> <Gold.Chemscore.Lipo>
45.1306

> <Gold.Chemscore.Internal_Hbond>
0.0000

> <Gold.Chemscore.DEClash>
1.4506

> <Gold.Chemscore.DEInternal>
1.4969

> <Gold.Chemscore.Rot>
2.6871

> <Gold.Chemscore.Internal.Correction>
   9.000000E+99

> <Gold.Chemscore.Hbonds>
donor molecule, donor type, donor heavy atom, donor atom, acceptor molecule, acceptor atom, score
      L1  H     8    26       P1 10175  0.74
      L1  H    11    30       P1 10175  0.98
      P1  H  7989  7998       L1    14  0.09
      P1  H  7997  8009       L1    15  0.47

> <Gold.Chemscore.Hbond.Weighted>
-8.1753

> <Gold.Chemscore.Metal.Weighted>
-0.0000

> <Gold.Chemscore.Lipo.Weighted>
-5.2803

> <Gold.Chemscore.Internal_Hbond.Weighted>
0.0000

> <Gold.Chemscore.DEClash.Weighted>
1.4506

> <Gold.Chemscore.DEInternal.Weighted>
1.4969

> <Gold.Chemscore.Rot.Weighted>
6.8791

> <Gold.Chemscore.Internal.Correction.Weighted>
   9.000000E+99

> <Gold.Protein.RotatedTorsions>
[ 6907 6896 6895 6894 ] final  -55.42 input  -60.11 | X-H torsion
[ 7974 7965 7964 7962 ] final  164.78 input  175.53 | X-H torsion
[ 8008 7997 7996 7995 ] final -171.60 input   59.86 | X-H torsion
[ 10167 10162 10161 10158 ] final  175.43 input  -65.29 | X-H torsion
[ 10718 10713 10712 10709 ] final  -70.15 input   66.30 | X-H torsion
[ 10763 10752 10751 10750 ] final -110.15 input  -60.55 | X-H torsion
[ 11005 11000 10999 10996 ] final -175.17 input  -57.11 | X-H torsion

> <Gold.Protein.ActiveResidues>
 VAL166  LYS551  ARG553  GLY616  TRP617  ASP618  TYR619  PRO620  LYS621  CYS622 
 ASP623  PHE694  ASN695  SER759  ASP760  ASP761  ALA762  ILE779  LEU786  VAL792 
 PHE793  MET794  SER795  GLU796  ALA797  LYS798  CYS799  TRP800  GLU811  SER814 

> <Gold.Protein.RotatedAtoms>
  150.8253  134.7481  159.6806 H   0  0  0  0  0  0  0  0  0  0  0  0  # atno 6907 bound_to 6896
  152.4364  134.5674  159.9921 H   0  0  0  0  0  0  0  0  0  0  0  0  # atno 6908 bound_to 6896
  151.5848  133.3336  159.3051 H   0  0  0  0  0  0  0  0  0  0  0  0  # atno 6909 bound_to 6896
  144.7530  139.8376  143.6359 H   0  0  0  0  0  0  0  0  0  0  0  0  # atno 7974 bound_to 7965
  155.9337  140.1096  157.1112 H   0  0  0  0  0  0  0  0  0  0  0  0  # atno 8008 bound_to 7997
  154.4075  140.1232  156.4901 H   0  0  0  0  0  0  0  0  0  0  0  0  # atno 8009 bound_to 7997
  155.7048  140.3471  155.4951 H   0  0  0  0  0  0  0  0  0  0  0  0  # atno 8010 bound_to 7997
  139.5177  144.3033  152.0359 H   0  0  0  0  0  0  0  0  0  0  0  0  # atno 10167 bound_to 10162
  156.0421  130.4326  150.2253 H   0  0  0  0  0  0  0  0  0  0  0  0  # atno 10718 bound_to 10713
  154.8232  135.4575  154.0841 H   0  0  0  0  0  0  0  0  0  0  0  0  # atno 10763 bound_to 10752
  153.2177  135.6890  153.8044 H   0  0  0  0  0  0  0  0  0  0  0  0  # atno 10764 bound_to 10752
  153.7473  135.3303  155.3291 H   0  0  0  0  0  0  0  0  0  0  0  0  # atno 10765 bound_to 10752
  140.4663  134.6207  157.4864 H   0  0  0  0  0  0  0  0  0  0  0  0  # atno 11005 bound_to 11000
  146.1505  139.4587  143.0051 LP  0  0  0  0  0  0  0  0  0  0  0  0  # atno 17320 bound_to 7965
  145.6876  141.0173  143.1572 LP  0  0  0  0  0  0  0  0  0  0  0  0  # atno 17321 bound_to 7965
  140.2479  144.4200  150.6233 LP  0  0  0  0  0  0  0  0  0  0  0  0  # atno 17342 bound_to 10162
  140.6245  143.2180  151.6625 LP  0  0  0  0  0  0  0  0  0  0  0  0  # atno 17343 bound_to 10162
  157.0347  131.0017  151.3302 LP  0  0  0  0  0  0  0  0  0  0  0  0  # atno 17370 bound_to 10713
  157.5252  130.8023  149.7854 LP  0  0  0  0  0  0  0  0  0  0  0  0  # atno 17371 bound_to 10713
  139.9913  134.6980  155.9684 LP  0  0  0  0  0  0  0  0  0  0  0  0  # atno 17394 bound_to 11000
  141.1598  133.6539  156.4280 LP  0  0  0  0  0  0  0  0  0  0  0  0  # atno 17395 bound_to 11000

$$$$
