AV-unprocessed.smi:3345|AV-procd|sdf|12901|dock1
  -GOLD-   2272019313D 1   1.00000     0.00000
 Structure written by MMmdl.
 40 41  0  0  0  0  0  0  0  0  1 V2000
  151.1138  141.1312  155.9604 C   0  0  0  0  0  0  0  0  0  0  0  0
  149.8943  141.9057  156.4841 C   0  0  2  0  0  0  0  0  0  0  0  0
  149.7393  141.7530  158.0132 C   0  0  0  0  0  0  0  0  0  0  0  0
  150.7084  142.5002  158.8153 N   0  0  0  0  0  0  0  0  0  0  0  0
  152.0197  141.8569  158.8617 C   0  0  0  0  0  0  0  0  0  0  0  0
  153.0307  142.6715  159.6876 C   0  0  0  0  0  0  0  0  0  0  0  0
  153.1290  143.9901  159.1597 O   0  0  0  0  0  0  0  0  0  0  0  0
  151.8778  144.6691  159.1444 C   0  0  0  0  0  0  0  0  0  0  0  0
  150.8650  143.8618  158.3141 C   0  0  0  0  0  0  0  0  0  0  0  0
  148.6988  141.4034  155.8108 N   0  0  0  0  0  0  0  0  0  0  0  0
  148.5443  141.2780  154.4831 C   0  0  0  0  0  0  0  0  0  0  0  0
  149.4125  141.5929  153.6686 O   0  0  0  0  0  0  0  0  0  0  0  0
  147.2059  140.6968  154.0060 C   0  0  1  0  0  0  0  0  0  0  0  0
  147.0414  139.2194  154.4171 C   0  0  0  0  0  0  0  0  0  0  0  0
  146.1066  141.5368  154.4682 N   0  0  0  0  0  0  0  0  0  0  0  0
  145.8197  142.8070  154.1740 C   0  0  0  0  0  0  0  0  0  0  0  0
  144.7654  143.2859  154.8195 N   0  0  0  0  0  0  0  0  0  0  0  0
  144.4335  142.1870  155.5598 C   0  0  0  0  0  0  0  0  0  0  0  0
  145.2112  141.1171  155.3971 N   0  0  0  0  0  0  0  0  0  0  0  0
  152.0347  141.4931  156.4184 H   0  0  0  0  0  0  0  0  0  0  0  0
  151.2196  141.2463  154.8812 H   0  0  0  0  0  0  0  0  0  0  0  0
  151.0310  140.0653  156.1756 H   0  0  0  0  0  0  0  0  0  0  0  0
  150.0521  142.9609  156.2519 H   0  0  0  0  0  0  0  0  0  0  0  0
  148.7211  141.9971  158.3218 H   0  0  0  0  0  0  0  0  0  0  0  0
  149.8634  140.6957  158.2510 H   0  0  0  0  0  0  0  0  0  0  0  0
  151.9368  140.8628  159.2995 H   0  0  0  0  0  0  0  0  0  0  0  0
  152.4032  141.7243  157.8489 H   0  0  0  0  0  0  0  0  0  0  0  0
  152.7278  142.7138  160.7351 H   0  0  0  0  0  0  0  0  0  0  0  0
  154.0131  142.2001  159.6573 H   0  0  0  0  0  0  0  0  0  0  0  0
  151.5180  144.8089  160.1650 H   0  0  0  0  0  0  0  0  0  0  0  0
  152.0156  145.6610  158.7140 H   0  0  0  0  0  0  0  0  0  0  0  0
  151.1918  143.8378  157.2734 H   0  0  0  0  0  0  0  0  0  0  0  0
  149.9026  144.3742  158.3271 H   0  0  0  0  0  0  0  0  0  0  0  0
  147.9310  141.1227  156.4033 H   0  0  0  0  0  0  0  0  0  0  0  0
  147.1908  140.7302  152.9151 H   0  0  0  0  0  0  0  0  0  0  0  0
  147.8448  138.6078  154.0048 H   0  0  0  0  0  0  0  0  0  0  0  0
  146.0998  138.8151  154.0448 H   0  0  0  0  0  0  0  0  0  0  0  0
  147.0523  139.0885  155.5000 H   0  0  0  0  0  0  0  0  0  0  0  0
  146.3976  143.3951  153.4764 H   0  0  0  0  0  0  0  0  0  0  0  0
  143.5978  142.1773  156.2440 H   0  0  0  0  0  0  0  0  0  0  0  0
  1  2  1  0  0  0  0
  1 20  1  0  0  0  0
  1 21  1  0  0  0  0
  1 22  1  0  0  0  0
  2  3  1  0  0  0  0
  2 10  1  0  0  0  0
  2 23  1  0  0  0  0
  3  4  1  0  0  0  0
  3 24  1  0  0  0  0
  3 25  1  0  0  0  0
  4  9  1  0  0  0  0
  4  5  1  0  0  0  0
  5  6  1  0  0  0  0
  5 26  1  0  0  0  0
  5 27  1  0  0  0  0
  6  7  1  0  0  0  0
  6 28  1  0  0  0  0
  6 29  1  0  0  0  0
  7  8  1  0  0  0  0
  8  9  1  0  0  0  0
  8 30  1  0  0  0  0
  8 31  1  0  0  0  0
  9 32  1  0  0  0  0
  9 33  1  0  0  0  0
 10 11  1  0  0  0  0
 10 34  1  0  0  0  0
 11 12  2  0  0  0  0
 11 13  1  0  0  0  0
 13 14  1  0  0  0  0
 13 15  1  0  0  0  0
 13 35  1  0  0  0  0
 14 36  1  0  0  0  0
 14 37  1  0  0  0  0
 14 38  1  0  0  0  0
 15 19  1  0  0  0  0
 15 16  1  0  0  0  0
 16 17  2  0  0  0  0
 16 39  1  0  0  0  0
 17 18  1  0  0  0  0
 18 19  2  0  0  0  0
 18 40  1  0  0  0  0
M  END
> <s_m_source_file>
AV-unprocessed.smi

> <i_m_source_file_index>
3345

> <i_lp_mmshare_version>
43012

> <i_f3d_flags>
0

> <s_epik_input>
W0NIMl0xW0NIMl1PW0NIMl1bQ0gyXU4xW0NIMl1bQ0BASF0oW0NIM10pW05IXUMoPU8pW0NASF0oW0NIM10pbjJbY0hdbltjSF1uMg==

> <s_epik_cmdline>
J2VwaWtfcHl0aG9uJywgJy1waCcsICc3LjAnLCAnLXRuJywgJzgnLCAnLW1hJywgJzIwMCcsICctbWV0YWxfYmluZGluZycsICctaW1hZScsICc8aW5maWxlLm1hZT4nLCAnLW9tYWUnLCAnPG91dGZpbGUubWFlPic=

> <r_lp_tautomer_probability>
1

> <r_epik_Ionization_Penalty>
0.211373

> <r_epik_Ionization_Penalty_Charging>
0

> <r_epik_Ionization_Penalty_Neutral>
0.211373

> <r_epik_State_Penalty>
0.201459

> <r_epik_Charging_Adjusted_Penalty>
0.201459

> <i_epik_Tot_Q>
0

> <i_epik_Tot_abs_Q>
0

> <r_epik_Metal_State_Penalty>
0.201458

> <b_epik_Metal_Only>
0

> <s_lp_Force_Field>
OPLS_2005

> <r_lp_Energy>
31.9389

> <b_lp_Chiralities_Consistent>
1

> <s_lp_Variant>
AV-unprocessed.smi:3345-3

> <Gold.Version>
5.8.1

> <Gold.Id.Protein>
6NUR|6NUR_protein|mol2

> <Gold.PLP.Fitness>
37.5953

> <Gold.PLP.PLP>
-34.5039

> <Gold.PLP.part.hbond>
-2.0000

> <Gold.PLP.part.metal>
0.0000

> <Gold.PLP.part.buried>
-6.4414

> <Gold.PLP.part.nonpolar>
-28.5633

> <Gold.PLP.part.repulsive>
2.6162

> <Gold.PLP.ligand.clash>
0.0000

> <Gold.PLP.ligand.torsion>
0.4778

> <Gold.PLP.Chemscore.Hbond>
1.2452

> <Gold.PLP.Chemscore.CHOScore>
0.0000

> <Gold.PLP.Chemscore.Metal>
0.0000

> <Gold.Chemscore.Hbonds>
donor molecule, donor type, donor heavy atom, donor atom, acceptor molecule, acceptor atom, score
      P1  H  7989  7998       L1    12  0.03
      P1  H  8011  8017       L1    12  0.74

> <Gold.PLP.Chemscore.Internal.Correction>
0.3114

> <Gold.Rescore>
     Score         DG    S(hbond)    S(metal)    S(lipo)     H(rot)  DE(clash)    DE(int)     intcor
      8.13     -11.17       1.21        0.00      69.62       2.54       1.39       1.65       ----

> <Gold.Chemscore.Fitness>
8.1288

> <Gold.Chemscore.DG>
-11.1696

> <Gold.Chemscore.ZeroCoef>
-5.4800

> <Gold.Chemscore.Hbond>
1.2079

> <Gold.Chemscore.Metal>
0.0000

> <Gold.Chemscore.Lipo>
69.6203

> <Gold.Chemscore.Internal_Hbond>
0.0000

> <Gold.Chemscore.DEClash>
1.3881

> <Gold.Chemscore.DEInternal>
1.6528

> <Gold.Chemscore.Rot>
2.5353

> <Gold.Chemscore.Internal.Correction>
   9.000000E+99

> <Gold.Chemscore.Hbonds>
donor molecule, donor type, donor heavy atom, donor atom, acceptor molecule, acceptor atom, score
      P1  H  7989  7998       L1    12  0.04
      P1  H  8011  8017       L1    12  0.73

> <Gold.Chemscore.Hbond.Weighted>
-4.0345

> <Gold.Chemscore.Metal.Weighted>
-0.0000

> <Gold.Chemscore.Lipo.Weighted>
-8.1456

> <Gold.Chemscore.Internal_Hbond.Weighted>
0.0000

> <Gold.Chemscore.DEClash.Weighted>
1.3881

> <Gold.Chemscore.DEInternal.Weighted>
1.6528

> <Gold.Chemscore.Rot.Weighted>
6.4905

> <Gold.Chemscore.Internal.Correction.Weighted>
   9.000000E+99

> <Gold.Protein.RotatedTorsions>
[ 6907 6896 6895 6894 ] final  157.14 input  -60.11 | X-H torsion
[ 7974 7965 7964 7962 ] final  -63.37 input  175.53 | X-H torsion
[ 8008 7997 7996 7995 ] final  -44.02 input   59.86 | X-H torsion
[ 10167 10162 10161 10158 ] final  160.66 input  -65.29 | X-H torsion
[ 10718 10713 10712 10709 ] final  172.50 input   66.30 | X-H torsion
[ 10763 10752 10751 10750 ] final -101.85 input  -60.55 | X-H torsion
[ 11005 11000 10999 10996 ] final  -72.31 input  -57.11 | X-H torsion

> <Gold.Protein.ActiveResidues>
 VAL166  LYS551  ARG553  GLY616  TRP617  ASP618  TYR619  PRO620  LYS621  CYS622 
 ASP623  PHE694  ASN695  SER759  ASP760  ASP761  ALA762  ILE779  LEU786  VAL792 
 PHE793  MET794  SER795  GLU796  ALA797  LYS798  CYS799  TRP800  GLU811  SER814 

> <Gold.Protein.RotatedAtoms>
  152.0195  133.3893  159.4251 H   0  0  0  0  0  0  0  0  0  0  0  0  # atno 6907 bound_to 6896
  150.6891  134.3642  159.4973 H   0  0  0  0  0  0  0  0  0  0  0  0  # atno 6908 bound_to 6896
  152.1414  134.9059  160.0604 H   0  0  0  0  0  0  0  0  0  0  0  0  # atno 6909 bound_to 6896
  145.7799  140.8768  143.0336 H   0  0  0  0  0  0  0  0  0  0  0  0  # atno 7974 bound_to 7965
  154.3997  140.1433  156.3614 H   0  0  0  0  0  0  0  0  0  0  0  0  # atno 8008 bound_to 7997
  155.8177  140.3470  155.5474 H   0  0  0  0  0  0  0  0  0  0  0  0  # atno 8009 bound_to 7997
  155.8320  140.0913  157.1777 H   0  0  0  0  0  0  0  0  0  0  0  0  # atno 8010 bound_to 7997
  139.4842  144.4612  151.8702 H   0  0  0  0  0  0  0  0  0  0  0  0  # atno 10167 bound_to 10162
  156.9781  131.0110  151.2888 H   0  0  0  0  0  0  0  0  0  0  0  0  # atno 10718 bound_to 10713
  154.7689  135.4882  153.9610 H   0  0  0  0  0  0  0  0  0  0  0  0  # atno 10763 bound_to 10752
  153.1343  135.6759  153.9136 H   0  0  0  0  0  0  0  0  0  0  0  0  # atno 10764 bound_to 10752
  153.8830  135.3130  155.3424 H   0  0  0  0  0  0  0  0  0  0  0  0  # atno 10765 bound_to 10752
  141.1606  133.6843  156.7039 H   0  0  0  0  0  0  0  0  0  0  0  0  # atno 11005 bound_to 11000
  144.6798  139.9973  143.7484 LP  0  0  0  0  0  0  0  0  0  0  0  0  # atno 17320 bound_to 7965
  146.0085  139.3150  143.0885 LP  0  0  0  0  0  0  0  0  0  0  0  0  # atno 17321 bound_to 7965
  140.4075  144.2413  150.5890 LP  0  0  0  0  0  0  0  0  0  0  0  0  # atno 17342 bound_to 10162
  140.4998  143.2321  151.8695 LP  0  0  0  0  0  0  0  0  0  0  0  0  # atno 17343 bound_to 10162
  157.5546  130.8205  149.8187 LP  0  0  0  0  0  0  0  0  0  0  0  0  # atno 17370 bound_to 10713
  156.0255  130.3781  150.1835 LP  0  0  0  0  0  0  0  0  0  0  0  0  # atno 17371 bound_to 10713
  140.2938  134.8219  157.4039 LP  0  0  0  0  0  0  0  0  0  0  0  0  # atno 17394 bound_to 11000
  140.1323  134.5079  155.8096 LP  0  0  0  0  0  0  0  0  0  0  0  0  # atno 17395 bound_to 11000

$$$$
