AV-unprocessed.smi:1585|AV-procd|sdf|6371|dock3
  -GOLD-   22720 6593D 1   1.00000     0.00000
 Structure written by MMmdl.
 42 43  0  0  0  0  0  0  0  0  3 V2000
  152.0598  144.6804  159.4722 C   0  0  0  0  0  0  0  0  0  0  0  0
  151.8556  143.4059  158.7269 C   0  0  0  0  0  0  0  0  0  0  0  0
  151.0852  143.0742  157.6486 C   0  0  0  0  0  0  0  0  0  0  0  0
  151.3575  141.6906  157.4683 C   0  0  0  0  0  0  0  0  0  0  0  0
  150.8389  140.9004  156.5155 N   0  5  0  0  0  0  0  0  0  0  0  0
  151.5948  139.9316  155.9504 C   0  0  0  0  0  0  0  0  0  0  0  0
  152.5385  140.0963  155.1740 O   0  0  0  0  0  0  0  0  0  0  0  0
  151.2328  138.6919  156.3043 N   0  0  0  0  0  0  0  0  0  0  0  0
  151.8627  137.4681  155.8266 C   0  0  0  0  0  0  0  0  0  0  0  0
  151.0001  136.7930  154.7468 C   0  0  2  0  0  0  0  0  0  0  0  0
  150.7447  137.7431  153.7304 O   0  0  0  0  0  0  0  0  0  0  0  0
  149.6407  136.3408  155.3176 C   0  0  0  0  0  0  0  0  0  0  0  0
  148.9211  135.4026  154.4183 N   0  3  0  0  0  0  0  0  0  0  0  0
  147.4562  135.3985  154.6691 C   0  0  0  0  0  0  0  0  0  0  0  0
  146.7156  134.5368  153.6327 C   0  0  0  0  0  0  0  0  0  0  0  0
  147.2687  133.1062  153.6098 C   0  0  0  0  0  0  0  0  0  0  0  0
  148.7858  133.1354  153.3842 C   0  0  0  0  0  0  0  0  0  0  0  0
  149.4815  134.0242  154.4289 C   0  0  0  0  0  0  0  0  0  0  0  0
  152.2301  141.2280  158.3481 N   0  0  0  0  0  0  0  0  0  0  0  0
  152.5490  142.3203  159.1638 O   0  0  0  0  0  0  0  0  0  0  0  0
  152.0622  145.5307  158.7901 H   0  0  0  0  0  0  0  0  0  0  0  0
  153.0102  144.6741  160.0063 H   0  0  0  0  0  0  0  0  0  0  0  0
  151.2630  144.8323  160.2002 H   0  0  0  0  0  0  0  0  0  0  0  0
  150.4269  143.7158  157.0824 H   0  0  0  0  0  0  0  0  0  0  0  0
  150.4563  138.5969  156.9423 H   0  0  0  0  0  0  0  0  0  0  0  0
  152.8302  137.7389  155.4002 H   0  0  0  0  0  0  0  0  0  0  0  0
  152.0635  136.7903  156.6583 H   0  0  0  0  0  0  0  0  0  0  0  0
  151.5408  135.9458  154.3253 H   0  0  0  0  0  0  0  0  0  0  0  0
  150.0551  137.4087  153.1759 H   0  0  0  0  0  0  0  0  0  0  0  0
  149.7710  135.8698  156.2930 H   0  0  0  0  0  0  0  0  0  0  0  0
  149.0295  137.2284  155.4902 H   0  0  0  0  0  0  0  0  0  0  0  0
  147.2599  135.0295  155.6772 H   0  0  0  0  0  0  0  0  0  0  0  0
  147.0708  136.4178  154.6236 H   0  0  0  0  0  0  0  0  0  0  0  0
  145.6485  134.5204  153.8557 H   0  0  0  0  0  0  0  0  0  0  0  0
  146.8182  134.9856  152.6437 H   0  0  0  0  0  0  0  0  0  0  0  0
  147.0453  132.6087  154.5546 H   0  0  0  0  0  0  0  0  0  0  0  0
  146.7810  132.5250  152.8265 H   0  0  0  0  0  0  0  0  0  0  0  0
  149.1877  132.1228  153.4282 H   0  0  0  0  0  0  0  0  0  0  0  0
  149.0009  133.5107  152.3826 H   0  0  0  0  0  0  0  0  0  0  0  0
  150.5495  134.0433  154.2164 H   0  0  0  0  0  0  0  0  0  0  0  0
  149.3668  133.5910  155.4237 H   0  0  0  0  0  0  0  0  0  0  0  0
  149.0443  135.7652  153.4832 H   0  0  0  0  0  0  0  0  0  0  0  0
  1  2  1  0  0  0  0
  1 21  1  0  0  0  0
  1 22  1  0  0  0  0
  1 23  1  0  0  0  0
  2 20  1  0  0  0  0
  2  3  2  0  0  0  0
  3  4  1  0  0  0  0
  3 24  1  0  0  0  0
  4  5  1  0  0  0  0
  4 19  2  0  0  0  0
  5  6  1  0  0  0  0
  6  7  2  0  0  0  0
  6  8  1  0  0  0  0
  8  9  1  0  0  0  0
  8 25  1  0  0  0  0
  9 10  1  0  0  0  0
  9 26  1  0  0  0  0
  9 27  1  0  0  0  0
 10 11  1  0  0  0  0
 10 12  1  0  0  0  0
 10 28  1  0  0  0  0
 11 29  1  0  0  0  0
 12 13  1  0  0  0  0
 12 30  1  0  0  0  0
 12 31  1  0  0  0  0
 13 18  1  0  0  0  0
 13 14  1  0  0  0  0
 13 42  1  0  0  0  0
 14 15  1  0  0  0  0
 14 32  1  0  0  0  0
 14 33  1  0  0  0  0
 15 16  1  0  0  0  0
 15 34  1  0  0  0  0
 15 35  1  0  0  0  0
 16 17  1  0  0  0  0
 16 36  1  0  0  0  0
 16 37  1  0  0  0  0
 17 18  1  0  0  0  0
 17 38  1  0  0  0  0
 17 39  1  0  0  0  0
 18 40  1  0  0  0  0
 18 41  1  0  0  0  0
 19 20  1  0  0  0  0
M  CHG  1   5  -1
M  CHG  1  13   1
M  END
> <s_m_source_file>
AV-unprocessed.smi

> <i_m_source_file_index>
1585

> <i_lp_mmshare_version>
43012

> <i_f3d_flags>
0

> <s_epik_input>
W0NIM11jMVtjSF1jKG5vMSlbTkhdQyg9TylbTkhdW0NIMl1bQ0BIXShbT0hdKVtDSDJdTjJbQ0gyXVtDSDJdW0NIMl1bQ0gyXVtDSDJdMg==

> <s_epik_cmdline>
J2VwaWtfcHl0aG9uJywgJy1waCcsICc3LjAnLCAnLXRuJywgJzgnLCAnLW1hJywgJzIwMCcsICctbWV0YWxfYmluZGluZycsICctaW1hZScsICc8aW5maWxlLm1hZT4nLCAnLW9tYWUnLCAnPG91dGZpbGUubWFlPic=

> <r_epik_Ionization_Penalty>
6.29903

> <r_epik_Ionization_Penalty_Charging>
6.29893

> <r_epik_Ionization_Penalty_Neutral>
0.000107719

> <r_epik_State_Penalty>
6.29786

> <r_epik_Charging_Adjusted_Penalty>
12.5968

> <i_epik_Tot_Q>
0

> <i_epik_Tot_abs_Q>
2

> <r_epik_Metal_State_Penalty>
2.22942

> <b_epik_Metal_Only>
1

> <s_lp_Force_Field>
OPLS_2005

> <r_lp_Energy>
8.76377

> <b_lp_Chiralities_Consistent>
1

> <s_lp_Variant>
AV-unprocessed.smi:1585-3

> <Gold.Version>
5.8.1

> <Gold.Id.Protein>
6NUR|6NUR_protein|mol2

> <Gold.PLP.Fitness>
44.3710

> <Gold.PLP.PLP>
-33.4704

> <Gold.PLP.part.hbond>
-5.0000

> <Gold.PLP.part.metal>
0.0000

> <Gold.PLP.part.buried>
-3.8965

> <Gold.PLP.part.nonpolar>
-25.9172

> <Gold.PLP.part.repulsive>
0.1042

> <Gold.PLP.ligand.clash>
0.0000

> <Gold.PLP.ligand.torsion>
1.3404

> <Gold.PLP.Chemscore.Hbond>
4.4567

> <Gold.PLP.Chemscore.CHOScore>
0.0000

> <Gold.PLP.Chemscore.Metal>
0.0000

> <Gold.Chemscore.Hbonds>
donor molecule, donor type, donor heavy atom, donor atom, acceptor molecule, acceptor atom, score
      L1  H    11    29       P1  7948  0.94
      L1  H    13    42       P1  7948  2.00
      P1  H  7989  7998       L1     7  0.54
      P1  H  7997  8008       L1     7  0.89

> <Gold.PLP.Chemscore.Internal.Correction>
0.2111

> <Gold.Rescore>
     Score         DG    S(hbond)    S(metal)    S(lipo)     H(rot)  DE(clash)    DE(int)     intcor
     15.17     -16.51       2.82        0.00      67.29       2.45       0.03       1.31       ----

> <Gold.Chemscore.Fitness>
15.1684

> <Gold.Chemscore.DG>
-16.5076

> <Gold.Chemscore.ZeroCoef>
-5.4800

> <Gold.Chemscore.Hbond>
2.8194

> <Gold.Chemscore.Metal>
0.0000

> <Gold.Chemscore.Lipo>
67.2852

> <Gold.Chemscore.Internal_Hbond>
0.0000

> <Gold.Chemscore.DEClash>
0.0262

> <Gold.Chemscore.DEInternal>
1.3129

> <Gold.Chemscore.Rot>
2.4459

> <Gold.Chemscore.Internal.Correction>
   9.000000E+99

> <Gold.Chemscore.Hbonds>
donor molecule, donor type, donor heavy atom, donor atom, acceptor molecule, acceptor atom, score
      L1  H    11    29       P1  7948  0.20
      L1  H    13    42       P1  7948  0.85
      P1  H  7989  7998       L1     7  0.25
      P1  H  7997  8008       L1     7  0.66

> <Gold.Chemscore.Hbond.Weighted>
-9.4167

> <Gold.Chemscore.Metal.Weighted>
-0.0000

> <Gold.Chemscore.Lipo.Weighted>
-7.8724

> <Gold.Chemscore.Internal_Hbond.Weighted>
0.0000

> <Gold.Chemscore.DEClash.Weighted>
0.0262

> <Gold.Chemscore.DEInternal.Weighted>
1.3129

> <Gold.Chemscore.Rot.Weighted>
6.2615

> <Gold.Chemscore.Internal.Correction.Weighted>
   9.000000E+99

> <Gold.Protein.RotatedTorsions>
[ 6907 6896 6895 6894 ] final  141.14 input  -60.11 | X-H torsion
[ 7974 7965 7964 7962 ] final  -19.03 input  175.53 | X-H torsion
[ 8008 7997 7996 7995 ] final  -35.37 input   59.86 | X-H torsion
[ 10167 10162 10161 10158 ] final -105.78 input  -65.29 | X-H torsion
[ 10718 10713 10712 10709 ] final  121.47 input   66.30 | X-H torsion
[ 10763 10752 10751 10750 ] final -102.58 input  -60.55 | X-H torsion
[ 11005 11000 10999 10996 ] final -125.71 input  -57.11 | X-H torsion

> <Gold.Protein.ActiveResidues>
 VAL166  LYS551  ARG553  GLY616  TRP617  ASP618  TYR619  PRO620  LYS621  CYS622 
 ASP623  PHE694  ASN695  SER759  ASP760  ASP761  ALA762  ILE779  LEU786  VAL792 
 PHE793  MET794  SER795  GLU796  ALA797  LYS798  CYS799  TRP800  GLU811  SER814 

> <Gold.Protein.RotatedAtoms>
  152.2345  133.5085  159.5234 H   0  0  0  0  0  0  0  0  0  0  0  0  # atno 6907 bound_to 6896
  150.7047  134.1171  159.4030 H   0  0  0  0  0  0  0  0  0  0  0  0  # atno 6908 bound_to 6896
  151.9092  135.0346  160.0564 H   0  0  0  0  0  0  0  0  0  0  0  0  # atno 6909 bound_to 6896
  146.1862  140.4005  142.8475 H   0  0  0  0  0  0  0  0  0  0  0  0  # atno 7974 bound_to 7965
  154.4097  140.1659  156.2201 H   0  0  0  0  0  0  0  0  0  0  0  0  # atno 8008 bound_to 7997
  155.9371  140.3410  155.6273 H   0  0  0  0  0  0  0  0  0  0  0  0  # atno 8009 bound_to 7997
  155.7035  140.0748  157.2391 H   0  0  0  0  0  0  0  0  0  0  0  0  # atno 8010 bound_to 7997
  140.1948  143.3864  152.1177 H   0  0  0  0  0  0  0  0  0  0  0  0  # atno 10167 bound_to 10162
  157.5815  131.1074  150.8178 H   0  0  0  0  0  0  0  0  0  0  0  0  # atno 10718 bound_to 10713
  154.7744  135.4855  153.9714 H   0  0  0  0  0  0  0  0  0  0  0  0  # atno 10763 bound_to 10752
  153.1409  135.6772  153.9036 H   0  0  0  0  0  0  0  0  0  0  0  0  # atno 10764 bound_to 10752
  153.8710  135.3143  155.3420 H   0  0  0  0  0  0  0  0  0  0  0  0  # atno 10765 bound_to 10752
  140.9740  134.0766  157.3839 H   0  0  0  0  0  0  0  0  0  0  0  0  # atno 11005 bound_to 11000
  144.8402  140.6845  143.6234 LP  0  0  0  0  0  0  0  0  0  0  0  0  # atno 17320 bound_to 7965
  145.3931  139.1612  143.4218 LP  0  0  0  0  0  0  0  0  0  0  0  0  # atno 17321 bound_to 7965
  139.5241  144.7079  151.5296 LP  0  0  0  0  0  0  0  0  0  0  0  0  # atno 17342 bound_to 10162
  140.6431  143.8849  150.6710 LP  0  0  0  0  0  0  0  0  0  0  0  0  # atno 17343 bound_to 10162
  156.8623  130.5117  149.5303 LP  0  0  0  0  0  0  0  0  0  0  0  0  # atno 17370 bound_to 10713
  156.0861  130.5859  150.9650 LP  0  0  0  0  0  0  0  0  0  0  0  0  # atno 17371 bound_to 10713
  139.8923  135.0124  156.6839 LP  0  0  0  0  0  0  0  0  0  0  0  0  # atno 17394 bound_to 11000
  140.7287  133.9078  155.8196 LP  0  0  0  0  0  0  0  0  0  0  0  0  # atno 17395 bound_to 11000

$$$$
