AV-unprocessed.smi:157|AV-procd|sdf|1297|dock1
  -GOLD-   2262018583D 1   1.00000     0.00000
 Structure written by MMmdl.
 35 37  0  0  0  0  0  0  0  0  1 V2000
  154.6281  139.0368  154.4204 O   0  0  0  0  0  0  0  0  0  0  0  0
  153.3637  138.4100  154.3888 C   0  0  0  0  0  0  0  0  0  0  0  0
  152.5122  138.8860  155.5751 C   0  0  1  0  0  0  0  0  0  0  0  0
  152.0267  140.2016  155.3258 O   0  0  0  0  0  0  0  0  0  0  0  0
  150.8519  140.4248  156.0497 C   0  0  2  0  0  0  0  0  0  0  0  0
  151.1539  141.3374  157.2014 N   0  0  0  0  0  0  0  0  0  0  0  0
  150.5547  142.5015  157.4890 C   0  0  0  0  0  0  0  0  0  0  0  0
  151.0251  143.1112  158.5641 N   0  0  0  0  0  0  0  0  0  0  0  0
  152.0252  142.2571  159.0245 C   0  0  0  0  0  0  0  0  0  0  0  0
  152.1188  141.1488  158.1951 C   0  0  0  0  0  0  0  0  0  0  0  0
  152.9010  140.0110  158.1372 N   0  0  0  0  0  0  0  0  0  0  0  0
  153.5372  139.6551  159.2084 C   0  0  0  0  0  0  0  0  0  0  0  0
  153.6512  140.2919  160.4360 N   0  0  0  0  0  0  0  0  0  0  0  0
  153.9859  141.6988  160.5771 C   0  0  0  0  0  0  0  0  0  0  0  0
  152.8255  142.6417  160.2352 C   0  0  2  0  0  0  0  0  0  0  0  0
  151.9281  142.6919  161.3257 O   0  0  0  0  0  0  0  0  0  0  0  0
  150.3757  139.0636  156.5715 C   0  0  0  0  0  0  0  0  0  0  0  0
  151.2127  138.1001  155.7532 C   0  0  2  0  0  0  0  0  0  0  0  0
  151.4074  136.8832  156.4446 O   0  0  0  0  0  0  0  0  0  0  0  0
  153.0827  138.8740  156.5063 H   0  0  0  0  0  0  0  0  0  0  0  0
  150.1217  140.9559  155.4381 H   0  0  0  0  0  0  0  0  0  0  0  0
  153.2252  143.6484  160.1093 H   0  0  0  0  0  0  0  0  0  0  0  0
  150.7385  137.9152  154.7880 H   0  0  0  0  0  0  0  0  0  0  0  0
  155.2321  138.5207  153.9088 H   0  0  0  0  0  0  0  0  0  0  0  0
  152.8649  138.6039  153.4388 H   0  0  0  0  0  0  0  0  0  0  0  0
  153.5304  137.3344  154.4536 H   0  0  0  0  0  0  0  0  0  0  0  0
  149.7552  142.9199  156.8957 H   0  0  0  0  0  0  0  0  0  0  0  0
  154.0928  138.7163  159.1925 H   0  0  0  0  0  0  0  0  0  0  0  0
  153.9797  139.7568  161.2270 H   0  0  0  0  0  0  0  0  0  0  0  0
  154.3599  141.8923  161.5830 H   0  0  0  0  0  0  0  0  0  0  0  0
  154.8164  141.9034  159.8996 H   0  0  0  0  0  0  0  0  0  0  0  0
  152.0379  141.9027  161.8344 H   0  0  0  0  0  0  0  0  0  0  0  0
  150.6011  138.9742  157.6361 H   0  0  0  0  0  0  0  0  0  0  0  0
  149.3022  138.9397  156.4258 H   0  0  0  0  0  0  0  0  0  0  0  0
  151.0084  136.1869  155.9453 H   0  0  0  0  0  0  0  0  0  0  0  0
  1  2  1  0  0  0  0
  1 24  1  0  0  0  0
  2  3  1  0  0  0  0
  2 25  1  0  0  0  0
  2 26  1  0  0  0  0
  3 20  1  0  0  0  0
  3 18  1  0  0  0  0
  3  4  1  0  0  0  0
  4  5  1  0  0  0  0
  5 21  1  0  0  0  0
  5  6  1  0  0  0  0
  5 17  1  0  0  0  0
  6 10  1  0  0  0  0
  6  7  1  0  0  0  0
  7  8  2  0  0  0  0
  7 27  1  0  0  0  0
  8  9  1  0  0  0  0
  9 15  1  0  0  0  0
  9 10  2  0  0  0  0
 10 11  1  0  0  0  0
 11 12  2  0  0  0  0
 12 13  1  0  0  0  0
 12 28  1  0  0  0  0
 13 14  1  0  0  0  0
 13 29  1  0  0  0  0
 14 15  1  0  0  0  0
 14 30  1  0  0  0  0
 14 31  1  0  0  0  0
 15 22  1  0  0  0  0
 15 16  1  0  0  0  0
 16 32  1  0  0  0  0
 17 18  1  0  0  0  0
 17 33  1  0  0  0  0
 17 34  1  0  0  0  0
 18 23  1  0  0  0  0
 18 19  1  0  0  0  0
 19 35  1  0  0  0  0
M  END
> <s_m_source_file>
AV-unprocessed.smi

> <i_m_source_file_index>
157

> <i_lp_mmshare_version>
43012

> <i_f3d_flags>
0

> <s_epik_input>
W09IXVtDSDJdW0NASF0xT1tDQEhdKFtDSDJdW0NAQEhdMVtPSF0pbihbY0hdbjIpYyhjMjMpTj1bQ0hdW05IXVtDSDJdW0NASF0zW09IXQ==

> <s_epik_cmdline>
J2VwaWtfcHl0aG9uJywgJy1waCcsICc3LjAnLCAnLXRuJywgJzgnLCAnLW1hJywgJzIwMCcsICctbWV0YWxfYmluZGluZycsICctaW1hZScsICc8aW5maWxlLm1hZT4nLCAnLW9tYWUnLCAnPG91dGZpbGUubWFlPic=

> <r_lp_tautomer_probability>
1

> <r_epik_Ionization_Penalty>
0.0357149

> <r_epik_Ionization_Penalty_Charging>
0.0355056

> <r_epik_Ionization_Penalty_Neutral>
0.000209255

> <r_epik_State_Penalty>
0.0296046

> <r_epik_Charging_Adjusted_Penalty>
0.0651102

> <i_epik_Tot_Q>
0

> <i_epik_Tot_abs_Q>
0

> <r_epik_Metal_State_Penalty>
3.03559e-05

> <b_epik_Metal_Only>
0

> <s_epik_Chemistry_Notes>
This compound has an imine and may undergo hydrolysis. This compound contains an acetal/aminal-like group ( X-CH(R)-Y where X, Y are N, S, or O) that may be acid/base labile, releasing an aldehyde.

> <s_lp_Force_Field>
OPLS_2005

> <r_lp_Energy>
44.0158

> <b_lp_Chiralities_Consistent>
1

> <s_lp_Variant>
AV-unprocessed.smi:157-7

> <Gold.Version>
5.8.1

> <Gold.Id.Protein>
6NUR|6NUR_protein|mol2

> <Gold.PLP.Fitness>
42.4116

> <Gold.PLP.PLP>
-32.5280

> <Gold.PLP.part.hbond>
-3.9801

> <Gold.PLP.part.metal>
0.0000

> <Gold.PLP.part.buried>
-5.0334

> <Gold.PLP.part.nonpolar>
-24.0808

> <Gold.PLP.part.repulsive>
0.1578

> <Gold.PLP.ligand.clash>
0.0000

> <Gold.PLP.ligand.torsion>
0.1077

> <Gold.PLP.Chemscore.Hbond>
2.3600

> <Gold.PLP.Chemscore.CHOScore>
1.0000

> <Gold.PLP.Chemscore.Metal>
0.0000

> <Gold.Chemscore.Hbonds>
donor molecule, donor type, donor heavy atom, donor atom, acceptor molecule, acceptor atom, score
      P1  H  7989  7998       L1     4  0.75
      P1  H  7997  8008       L1    11  1.00
      P1  H  7997  8009       L1     1  0.61
      L1  C     7    27       P1  8028  1.00

> <Gold.PLP.Chemscore.Internal.Correction>
0.0191

> <Gold.Rescore>
     Score         DG    S(hbond)    S(metal)    S(lipo)     H(rot)  DE(clash)    DE(int)     intcor
      5.53      -8.17       1.59        0.00      57.28       3.64       0.02       2.62       ----

> <Gold.Chemscore.Fitness>
5.5294

> <Gold.Chemscore.DG>
-8.1704

> <Gold.Chemscore.ZeroCoef>
-5.4800

> <Gold.Chemscore.Hbond>
1.5859

> <Gold.Chemscore.Metal>
0.0000

> <Gold.Chemscore.Lipo>
57.2849

> <Gold.Chemscore.Internal_Hbond>
0.0000

> <Gold.Chemscore.DEClash>
0.0234

> <Gold.Chemscore.DEInternal>
2.6176

> <Gold.Chemscore.Rot>
3.6362

> <Gold.Chemscore.Internal.Correction>
   9.000000E+99

> <Gold.Chemscore.Hbonds>
donor molecule, donor type, donor heavy atom, donor atom, acceptor molecule, acceptor atom, score
      P1  H  7989  7998       L1     4  0.41
      P1  H  7997  8008       L1    11  0.21
      P1  H  7997  8009       L1     1  0.54

> <Gold.Chemscore.Hbond.Weighted>
-5.2968

> <Gold.Chemscore.Metal.Weighted>
-0.0000

> <Gold.Chemscore.Lipo.Weighted>
-6.7023

> <Gold.Chemscore.Internal_Hbond.Weighted>
0.0000

> <Gold.Chemscore.DEClash.Weighted>
0.0234

> <Gold.Chemscore.DEInternal.Weighted>
2.6176

> <Gold.Chemscore.Rot.Weighted>
9.3087

> <Gold.Chemscore.Internal.Correction.Weighted>
   9.000000E+99

> <Gold.Protein.RotatedTorsions>
[ 6907 6896 6895 6894 ] final -162.50 input  -60.11 | X-H torsion
[ 7974 7965 7964 7962 ] final -122.40 input  175.53 | X-H torsion
[ 8008 7997 7996 7995 ] final  -70.77 input   59.86 | X-H torsion
[ 10167 10162 10161 10158 ] final   90.15 input  -65.29 | X-H torsion
[ 10718 10713 10712 10709 ] final   12.31 input   66.30 | X-H torsion
[ 10763 10752 10751 10750 ] final   43.94 input  -60.55 | X-H torsion
[ 11005 11000 10999 10996 ] final   49.95 input  -57.11 | X-H torsion

> <Gold.Protein.ActiveResidues>
 VAL166  LYS551  ARG553  GLY616  TRP617  ASP618  TYR619  PRO620  LYS621  CYS622 
 ASP623  PHE694  ASN695  SER759  ASP760  ASP761  ALA762  ILE779  LEU786  VAL792 
 PHE793  MET794  SER795  GLU796  ALA797  LYS798  CYS799  TRP800  GLU811  SER814 

> <Gold.Protein.RotatedAtoms>
  151.3813  133.3820  159.2710 H   0  0  0  0  0  0  0  0  0  0  0  0  # atno 6907 bound_to 6896
  150.9575  134.8969  159.7721 H   0  0  0  0  0  0  0  0  0  0  0  0  # atno 6908 bound_to 6896
  152.5136  134.3771  159.9390 H   0  0  0  0  0  0  0  0  0  0  0  0  # atno 6909 bound_to 6896
  145.0299  140.8059  143.4330 H   0  0  0  0  0  0  0  0  0  0  0  0  # atno 7974 bound_to 7965
  154.5037  140.0828  156.7851 H   0  0  0  0  0  0  0  0  0  0  0  0  # atno 8008 bound_to 7997
  155.3943  140.3434  155.4235 H   0  0  0  0  0  0  0  0  0  0  0  0  # atno 8009 bound_to 7997
  156.1489  140.1552  156.8790 H   0  0  0  0  0  0  0  0  0  0  0  0  # atno 8010 bound_to 7997
  139.8501  144.6597  150.9179 H   0  0  0  0  0  0  0  0  0  0  0  0  # atno 10167 bound_to 10162
  157.0082  130.6107  149.5705 H   0  0  0  0  0  0  0  0  0  0  0  0  # atno 10718 bound_to 10713
  152.9850  135.6086  154.3193 H   0  0  0  0  0  0  0  0  0  0  0  0  # atno 10763 bound_to 10752
  154.2903  135.2775  155.2659 H   0  0  0  0  0  0  0  0  0  0  0  0  # atno 10764 bound_to 10752
  154.4958  135.5880  153.6550 H   0  0  0  0  0  0  0  0  0  0  0  0  # atno 10765 bound_to 10752
  140.1059  134.5019  155.8721 H   0  0  0  0  0  0  0  0  0  0  0  0  # atno 11005 bound_to 11000
  145.1785  139.2365  143.5305 LP  0  0  0  0  0  0  0  0  0  0  0  0  # atno 17320 bound_to 7965
  146.3497  140.1553  142.8591 LP  0  0  0  0  0  0  0  0  0  0  0  0  # atno 17321 bound_to 7965
  140.7788  143.3834  151.1436 LP  0  0  0  0  0  0  0  0  0  0  0  0  # atno 17342 bound_to 10162
  139.7473  143.8832  152.3067 LP  0  0  0  0  0  0  0  0  0  0  0  0  # atno 17343 bound_to 10162
  156.0145  130.5239  150.8094 LP  0  0  0  0  0  0  0  0  0  0  0  0  # atno 17370 bound_to 10713
  157.5340  131.0938  150.9917 LP  0  0  0  0  0  0  0  0  0  0  0  0  # atno 17371 bound_to 10713
  141.2118  133.6711  156.6609 LP  0  0  0  0  0  0  0  0  0  0  0  0  # atno 17394 bound_to 11000
  140.3157  134.8050  157.4212 LP  0  0  0  0  0  0  0  0  0  0  0  0  # atno 17395 bound_to 11000

$$$$
