AV-unprocessed.smi:157|AV-procd|sdf|1301|dock8
  -GOLD-   2262018593D 1   1.00000     0.00000
 Structure written by MMmdl.
 35 37  0  0  0  0  0  0  0  0  1 V2000
  148.7856  136.6695  154.4502 O   0  0  0  0  0  0  0  0  0  0  0  0
  149.7891  136.5366  155.4341 C   0  0  0  0  0  0  0  0  0  0  0  0
  150.5535  137.8614  155.5974 C   0  0  1  0  0  0  0  0  0  0  0  0
  151.4674  137.7969  156.6849 O   0  0  0  0  0  0  0  0  0  0  0  0
  152.4202  138.8114  156.5576 C   0  0  2  0  0  0  0  0  0  0  0  0
  152.0429  139.9535  157.4573 N   0  0  0  0  0  0  0  0  0  0  0  0
  150.9694  140.7502  157.3516 C   0  0  0  0  0  0  0  0  0  0  0  0
  150.8777  141.6783  158.2887 N   0  0  0  0  0  0  0  0  0  0  0  0
  151.9998  141.4628  159.0859 C   0  0  0  0  0  0  0  0  0  0  0  0
  152.7333  140.3947  158.5903 C   0  0  0  0  0  0  0  0  0  0  0  0
  153.8896  139.7289  158.9503 N   0  0  0  0  0  0  0  0  0  0  0  0
  154.7142  140.3312  159.7480 C   0  0  0  0  0  0  0  0  0  0  0  0
  154.5947  141.5457  160.4083 N   0  0  0  0  0  0  0  0  0  0  0  0
  153.4173  141.9249  161.1707 C   0  0  0  0  0  0  0  0  0  0  0  0
  152.2225  142.3238  160.2955 C   0  0  1  0  0  0  0  0  0  0  0  0
  152.4050  143.6461  159.8320 O   0  0  0  0  0  0  0  0  0  0  0  0
  152.4059  139.2707  155.0886 C   0  0  0  0  0  0  0  0  0  0  0  0
  151.4388  138.3039  154.4261 C   0  0  1  0  0  0  0  0  0  0  0  0
  152.1376  137.2189  153.8460 O   0  0  0  0  0  0  0  0  0  0  0  0
  149.8400  138.6583  155.8157 H   0  0  0  0  0  0  0  0  0  0  0  0
  153.3948  138.4793  156.9170 H   0  0  0  0  0  0  0  0  0  0  0  0
  151.3261  142.3282  160.9165 H   0  0  0  0  0  0  0  0  0  0  0  0
  150.8550  138.7907  153.6443 H   0  0  0  0  0  0  0  0  0  0  0  0
  149.1588  136.4500  153.6100 H   0  0  0  0  0  0  0  0  0  0  0  0
  149.3113  136.2675  156.3764 H   0  0  0  0  0  0  0  0  0  0  0  0
  150.4567  135.7156  155.1725 H   0  0  0  0  0  0  0  0  0  0  0  0
  150.2302  140.6515  156.5706 H   0  0  0  0  0  0  0  0  0  0  0  0
  155.6644  139.8452  159.9741 H   0  0  0  0  0  0  0  0  0  0  0  0
  155.4284  141.9704  160.7882 H   0  0  0  0  0  0  0  0  0  0  0  0
  153.1348  141.0637  161.7780 H   0  0  0  0  0  0  0  0  0  0  0  0
  153.6689  142.7216  161.8713 H   0  0  0  0  0  0  0  0  0  0  0  0
  151.7357  144.1891  160.2203 H   0  0  0  0  0  0  0  0  0  0  0  0
  152.0280  140.2920  155.0190 H   0  0  0  0  0  0  0  0  0  0  0  0
  153.4100  139.2463  154.6630 H   0  0  0  0  0  0  0  0  0  0  0  0
  151.8020  137.0809  152.9733 H   0  0  0  0  0  0  0  0  0  0  0  0
  1  2  1  0  0  0  0
  1 24  1  0  0  0  0
  2  3  1  0  0  0  0
  2 25  1  0  0  0  0
  2 26  1  0  0  0  0
  3 20  1  0  0  0  0
  3 18  1  0  0  0  0
  3  4  1  0  0  0  0
  4  5  1  0  0  0  0
  5 21  1  0  0  0  0
  5  6  1  0  0  0  0
  5 17  1  0  0  0  0
  6 10  1  0  0  0  0
  6  7  1  0  0  0  0
  7  8  2  0  0  0  0
  7 27  1  0  0  0  0
  8  9  1  0  0  0  0
  9 15  1  0  0  0  0
  9 10  2  0  0  0  0
 10 11  1  0  0  0  0
 11 12  2  0  0  0  0
 12 13  1  0  0  0  0
 12 28  1  0  0  0  0
 13 14  1  0  0  0  0
 13 29  1  0  0  0  0
 14 15  1  0  0  0  0
 14 30  1  0  0  0  0
 14 31  1  0  0  0  0
 15 22  1  0  0  0  0
 15 16  1  0  0  0  0
 16 32  1  0  0  0  0
 17 18  1  0  0  0  0
 17 33  1  0  0  0  0
 17 34  1  0  0  0  0
 18 23  1  0  0  0  0
 18 19  1  0  0  0  0
 19 35  1  0  0  0  0
M  END
> <s_m_source_file>
AV-unprocessed.smi

> <i_m_source_file_index>
157

> <i_lp_mmshare_version>
43012

> <i_f3d_flags>
0

> <s_epik_input>
W09IXVtDSDJdW0NASF0xT1tDQEhdKFtDSDJdW0NAQEhdMVtPSF0pbihbY0hdbjIpYyhjMjMpTj1bQ0hdW05IXVtDSDJdW0NASF0zW09IXQ==

> <s_epik_cmdline>
J2VwaWtfcHl0aG9uJywgJy1waCcsICc3LjAnLCAnLXRuJywgJzgnLCAnLW1hJywgJzIwMCcsICctbWV0YWxfYmluZGluZycsICctaW1hZScsICc8aW5maWxlLm1hZT4nLCAnLW9tYWUnLCAnPG91dGZpbGUubWFlPic=

> <r_lp_tautomer_probability>
1

> <r_epik_Ionization_Penalty>
0.0357149

> <r_epik_Ionization_Penalty_Charging>
0.0355056

> <r_epik_Ionization_Penalty_Neutral>
0.000209255

> <r_epik_State_Penalty>
0.0296046

> <r_epik_Charging_Adjusted_Penalty>
0.0651102

> <i_epik_Tot_Q>
0

> <i_epik_Tot_abs_Q>
0

> <r_epik_Metal_State_Penalty>
3.03559e-05

> <b_epik_Metal_Only>
0

> <s_epik_Chemistry_Notes>
This compound has an imine and may undergo hydrolysis. This compound contains an acetal/aminal-like group ( X-CH(R)-Y where X, Y are N, S, or O) that may be acid/base labile, releasing an aldehyde.

> <s_lp_Force_Field>
OPLS_2005

> <r_lp_Energy>
44.137

> <b_lp_Chiralities_Consistent>
1

> <s_lp_Variant>
AV-unprocessed.smi:157-11

> <Gold.Version>
5.8.1

> <Gold.Id.Protein>
6NUR|6NUR_protein|mol2

> <Gold.PLP.Fitness>
43.2005

> <Gold.PLP.PLP>
-32.0669

> <Gold.PLP.part.hbond>
-4.6044

> <Gold.PLP.part.metal>
0.0000

> <Gold.PLP.part.buried>
-4.4961

> <Gold.PLP.part.nonpolar>
-23.4216

> <Gold.PLP.part.repulsive>
0.0696

> <Gold.PLP.ligand.clash>
0.0000

> <Gold.PLP.ligand.torsion>
0.1526

> <Gold.PLP.Chemscore.Hbond>
3.8100

> <Gold.PLP.Chemscore.CHOScore>
0.0000

> <Gold.PLP.Chemscore.Metal>
0.0000

> <Gold.Chemscore.Hbonds>
donor molecule, donor type, donor heavy atom, donor atom, acceptor molecule, acceptor atom, score
      L1  H     1    24       P1  7948  1.00
      L1  H    19    35       P1  7949  1.00
      P1  H  7997  8010       L1    11  0.76
      P1  H 10752 10765       L1    19  1.00

> <Gold.PLP.Chemscore.Internal.Correction>
0.0089

> <Gold.Rescore>
     Score         DG    S(hbond)    S(metal)    S(lipo)     H(rot)  DE(clash)    DE(int)     intcor
     11.41     -11.65       2.72        0.00      54.70       3.64       0.08       0.17       ----

> <Gold.Chemscore.Fitness>
11.4062

> <Gold.Chemscore.DG>
-11.6497

> <Gold.Chemscore.ZeroCoef>
-5.4800

> <Gold.Chemscore.Hbond>
2.7181

> <Gold.Chemscore.Metal>
0.0000

> <Gold.Chemscore.Lipo>
54.7004

> <Gold.Chemscore.Internal_Hbond>
0.0000

> <Gold.Chemscore.DEClash>
0.0767

> <Gold.Chemscore.DEInternal>
0.1668

> <Gold.Chemscore.Rot>
3.6362

> <Gold.Chemscore.Internal.Correction>
   9.000000E+99

> <Gold.Chemscore.Hbonds>
donor molecule, donor type, donor heavy atom, donor atom, acceptor molecule, acceptor atom, score
      L1  H     1    24       P1  7948  0.92
      L1  H    19    35       P1  7949  0.96
      P1  H  7997  8010       L1    11  0.03
      P1  H 10752 10765       L1    19  0.24

> <Gold.Chemscore.Hbond.Weighted>
-9.0785

> <Gold.Chemscore.Metal.Weighted>
-0.0000

> <Gold.Chemscore.Lipo.Weighted>
-6.3999

> <Gold.Chemscore.Internal_Hbond.Weighted>
0.0000

> <Gold.Chemscore.DEClash.Weighted>
0.0767

> <Gold.Chemscore.DEInternal.Weighted>
0.1668

> <Gold.Chemscore.Rot.Weighted>
9.3087

> <Gold.Chemscore.Internal.Correction.Weighted>
   9.000000E+99

> <Gold.Protein.RotatedTorsions>
[ 6907 6896 6895 6894 ] final -154.38 input  -60.11 | X-H torsion
[ 7974 7965 7964 7962 ] final -105.17 input  175.53 | X-H torsion
[ 8008 7997 7996 7995 ] final   11.99 input   59.86 | X-H torsion
[ 10167 10162 10161 10158 ] final  -83.71 input  -65.29 | X-H torsion
[ 10718 10713 10712 10709 ] final -164.84 input   66.30 | X-H torsion
[ 10763 10752 10751 10750 ] final  148.73 input  -60.55 | X-H torsion
[ 11005 11000 10999 10996 ] final   21.03 input  -57.11 | X-H torsion

> <Gold.Protein.ActiveResidues>
 VAL166  LYS551  ARG553  GLY616  TRP617  ASP618  TYR619  PRO620  LYS621  CYS622 
 ASP623  PHE694  ASN695  SER759  ASP760  ASP761  ALA762  ILE779  LEU786  VAL792 
 PHE793  MET794  SER795  GLU796  ALA797  LYS798  CYS799  TRP800  GLU811  SER814 

> <Gold.Protein.RotatedAtoms>
  151.2567  133.4323  159.2613 H   0  0  0  0  0  0  0  0  0  0  0  0  # atno 6907 bound_to 6896
  151.0568  134.9710  159.8250 H   0  0  0  0  0  0  0  0  0  0  0  0  # atno 6908 bound_to 6896
  152.5392  134.2519  159.8954 H   0  0  0  0  0  0  0  0  0  0  0  0  # atno 6909 bound_to 6896
  145.2338  140.9180  143.3189 H   0  0  0  0  0  0  0  0  0  0  0  0  # atno 7974 bound_to 7965
  154.8144  140.2873  155.5830 H   0  0  0  0  0  0  0  0  0  0  0  0  # atno 8008 bound_to 7997
  156.2991  140.2562  156.2969 H   0  0  0  0  0  0  0  0  0  0  0  0  # atno 8009 bound_to 7997
  154.9410  140.0381  157.2086 H   0  0  0  0  0  0  0  0  0  0  0  0  # atno 8010 bound_to 7997
  140.4201  143.2588  151.8901 H   0  0  0  0  0  0  0  0  0  0  0  0  # atno 10167 bound_to 10162
  156.6449  130.8984  151.3003 H   0  0  0  0  0  0  0  0  0  0  0  0  # atno 10718 bound_to 10713
  154.0595  135.2875  155.3327 H   0  0  0  0  0  0  0  0  0  0  0  0  # atno 10763 bound_to 10752
  154.6817  135.5261  153.8275 H   0  0  0  0  0  0  0  0  0  0  0  0  # atno 10764 bound_to 10752
  153.0528  135.6583  154.0785 H   0  0  0  0  0  0  0  0  0  0  0  0  # atno 10765 bound_to 10752
  140.3960  134.1768  155.7663 H   0  0  0  0  0  0  0  0  0  0  0  0  # atno 11005 bound_to 11000
  144.9652  139.3938  143.6336 LP  0  0  0  0  0  0  0  0  0  0  0  0  # atno 17320 bound_to 7965
  146.3346  139.8724  142.8838 LP  0  0  0  0  0  0  0  0  0  0  0  0  # atno 17321 bound_to 7965
  139.4782  144.5446  151.8477 LP  0  0  0  0  0  0  0  0  0  0  0  0  # atno 17342 bound_to 10162
  140.4543  144.1811  150.5900 LP  0  0  0  0  0  0  0  0  0  0  0  0  # atno 17343 bound_to 10162
  157.7159  130.9497  150.1255 LP  0  0  0  0  0  0  0  0  0  0  0  0  # atno 17370 bound_to 10713
  156.2130  130.3668  149.8647 LP  0  0  0  0  0  0  0  0  0  0  0  0  # atno 17371 bound_to 10713
  141.1874  133.8282  157.1034 LP  0  0  0  0  0  0  0  0  0  0  0  0  # atno 17394 bound_to 11000
  140.0371  134.9873  157.0892 LP  0  0  0  0  0  0  0  0  0  0  0  0  # atno 17395 bound_to 11000

$$$$
