AV-unprocessed.smi:2148|AV-procd|sdf|8751|dock2
  -GOLD-   2272011523D 1   1.00000     0.00000
 Structure written by MMmdl.
 44 45  0  0  0  0  0  0  0  0  1 V2000
  145.2368  136.4232  151.5142 C   0  0  0  0  0  0  0  0  0  0  0  0
  145.2306  137.6970  152.8031 S   0  0  0  0  0  0  0  0  0  0  0  0
  146.8843  138.4127  152.5693 C   0  0  1  0  0  0  0  0  0  0  0  0
  146.9034  139.3365  151.3401 C   0  0  0  0  0  0  0  0  0  0  0  0
  147.3678  139.1194  153.8421 C   0  0  0  0  0  0  0  0  0  0  0  0
  146.6182  139.2193  154.8135 O   0  0  0  0  0  0  0  0  0  0  0  0
  148.6347  139.5737  153.8060 N   0  0  0  0  0  0  0  0  0  0  0  0
  149.3630  140.2710  154.8083 C   0  0  0  0  0  0  0  0  0  0  0  0
  150.7754  140.3409  154.8707 C   0  0  0  0  0  0  0  0  0  0  0  0
  151.3761  141.0469  155.9304 C   0  0  0  0  0  0  0  0  0  0  0  0
  150.5472  141.6559  156.9002 C   0  0  0  0  0  0  0  0  0  0  0  0
  151.0825  142.3696  157.9805 N   0  0  0  0  0  0  0  0  0  0  0  0
  151.6739  143.6437  157.5944 C   0  0  0  0  0  0  0  0  0  0  0  0
  152.1106  144.4417  158.8396 C   0  0  1  0  0  0  0  0  0  0  0  0
  150.9347  145.0637  159.6141 C   0  0  0  0  0  0  0  0  0  0  0  0
  152.9375  143.6295  159.6781 O   0  0  0  0  0  0  0  0  0  0  0  0
  152.3515  142.3904  160.0795 C   0  0  2  0  0  0  0  0  0  0  0  0
  153.3651  141.6449  160.9533 C   0  0  0  0  0  0  0  0  0  0  0  0
  151.9630  141.5802  158.8298 C   0  0  0  0  0  0  0  0  0  0  0  0
  149.1998  141.5859  156.8503 N   0  0  0  0  0  0  0  0  0  0  0  0
  148.6305  140.9062  155.8325 C   0  0  0  0  0  0  0  0  0  0  0  0
  144.2914  135.8808  151.5177 H   0  0  0  0  0  0  0  0  0  0  0  0
  146.0445  135.7110  151.6853 H   0  0  0  0  0  0  0  0  0  0  0  0
  145.3718  136.8764  150.5320 H   0  0  0  0  0  0  0  0  0  0  0  0
  147.5795  137.5962  152.3682 H   0  0  0  0  0  0  0  0  0  0  0  0
  147.8862  139.7870  151.1965 H   0  0  0  0  0  0  0  0  0  0  0  0
  146.1755  140.1435  151.4323 H   0  0  0  0  0  0  0  0  0  0  0  0
  146.6633  138.7801  150.4338 H   0  0  0  0  0  0  0  0  0  0  0  0
  149.1580  139.3461  152.9731 H   0  0  0  0  0  0  0  0  0  0  0  0
  151.4098  139.8596  154.1435 H   0  0  0  0  0  0  0  0  0  0  0  0
  152.4522  141.1129  155.9940 H   0  0  0  0  0  0  0  0  0  0  0  0
  152.5424  143.4569  156.9612 H   0  0  0  0  0  0  0  0  0  0  0  0
  150.9655  144.2227  157.0004 H   0  0  0  0  0  0  0  0  0  0  0  0
  152.7375  145.2673  158.5020 H   0  0  0  0  0  0  0  0  0  0  0  0
  150.3982  145.7788  158.9904 H   0  0  0  0  0  0  0  0  0  0  0  0
  151.2882  145.5960  160.4972 H   0  0  0  0  0  0  0  0  0  0  0  0
  150.2124  144.3158  159.9405 H   0  0  0  0  0  0  0  0  0  0  0  0
  151.4635  142.5822  160.6820 H   0  0  0  0  0  0  0  0  0  0  0  0
  152.9579  140.6956  161.3016 H   0  0  0  0  0  0  0  0  0  0  0  0
  153.6306  142.2349  161.8309 H   0  0  0  0  0  0  0  0  0  0  0  0
  154.2825  141.4345  160.4029 H   0  0  0  0  0  0  0  0  0  0  0  0
  151.4615  140.6567  159.1217 H   0  0  0  0  0  0  0  0  0  0  0  0
  152.8594  141.3002  158.2748 H   0  0  0  0  0  0  0  0  0  0  0  0
  147.5508  140.8701  155.8368 H   0  0  0  0  0  0  0  0  0  0  0  0
  1  2  1  0  0  0  0
  1 22  1  0  0  0  0
  1 23  1  0  0  0  0
  1 24  1  0  0  0  0
  2  3  1  0  0  0  0
  3  4  1  0  0  0  0
  3  5  1  0  0  0  0
  3 25  1  0  0  0  0
  4 26  1  0  0  0  0
  4 27  1  0  0  0  0
  4 28  1  0  0  0  0
  5  6  2  0  0  0  0
  5  7  1  0  0  0  0
  7  8  1  0  0  0  0
  7 29  1  0  0  0  0
  8 21  1  0  0  0  0
  8  9  2  0  0  0  0
  9 10  1  0  0  0  0
  9 30  1  0  0  0  0
 10 11  2  0  0  0  0
 10 31  1  0  0  0  0
 11 12  1  0  0  0  0
 11 20  1  0  0  0  0
 12 19  1  0  0  0  0
 12 13  1  0  0  0  0
 13 14  1  0  0  0  0
 13 32  1  0  0  0  0
 13 33  1  0  0  0  0
 14 15  1  0  0  0  0
 14 16  1  0  0  0  0
 14 34  1  0  0  0  0
 15 35  1  0  0  0  0
 15 36  1  0  0  0  0
 15 37  1  0  0  0  0
 16 17  1  0  0  0  0
 17 18  1  0  0  0  0
 17 19  1  0  0  0  0
 17 38  1  0  0  0  0
 18 39  1  0  0  0  0
 18 40  1  0  0  0  0
 18 41  1  0  0  0  0
 19 42  1  0  0  0  0
 19 43  1  0  0  0  0
 20 21  2  0  0  0  0
 21 44  1  0  0  0  0
M  END
> <s_m_source_file>
AV-unprocessed.smi

> <i_m_source_file_index>
2148

> <i_lp_mmshare_version>
43012

> <i_f3d_flags>
0

> <s_epik_input>
W0NIM11TW0NASF0oW0NIM10pQyg9TylbTkhdYzFbY0hdW2NIXWMobltjSF0xKU4yW0NIMl1bQ0BASF0oW0NIM10pT1tDQEBIXShbQ0gzXSlbQ0gyXTI=

> <s_epik_cmdline>
J2VwaWtfcHl0aG9uJywgJy1waCcsICc3LjAnLCAnLXRuJywgJzgnLCAnLW1hJywgJzIwMCcsICctbWV0YWxfYmluZGluZycsICctaW1hZScsICc8aW5maWxlLm1hZT4nLCAnLW9tYWUnLCAnPG91dGZpbGUubWFlPic=

> <r_lp_tautomer_probability>
1

> <r_epik_Ionization_Penalty>
0.000646494

> <r_epik_Ionization_Penalty_Charging>
0

> <r_epik_Ionization_Penalty_Neutral>
0.000646494

> <r_epik_State_Penalty>
0.000408447

> <r_epik_Charging_Adjusted_Penalty>
0.000408447

> <i_epik_Tot_Q>
0

> <i_epik_Tot_abs_Q>
0

> <r_epik_Metal_State_Penalty>
-0

> <b_epik_Metal_Only>
0

> <s_lp_Force_Field>
OPLS_2005

> <r_lp_Energy>
28.0468

> <b_lp_Chiralities_Consistent>
1

> <s_lp_Variant>
AV-unprocessed.smi:2148-6

> <Gold.Version>
5.8.1

> <Gold.Id.Protein>
6NUR|6NUR_protein|mol2

> <Gold.PLP.Fitness>
42.6987

> <Gold.PLP.PLP>
-40.5351

> <Gold.PLP.part.hbond>
-1.0000

> <Gold.PLP.part.metal>
0.0000

> <Gold.PLP.part.buried>
1.4361

> <Gold.PLP.part.nonpolar>
-39.7912

> <Gold.PLP.part.repulsive>
0.2914

> <Gold.PLP.ligand.clash>
0.0000

> <Gold.PLP.ligand.torsion>
0.4158

> <Gold.PLP.Chemscore.Hbond>
0.9440

> <Gold.PLP.Chemscore.CHOScore>
0.0000

> <Gold.PLP.Chemscore.Metal>
0.0000

> <Gold.Chemscore.Hbonds>
donor molecule, donor type, donor heavy atom, donor atom, acceptor molecule, acceptor atom, score
      L1  H     7    29       P1  7957  0.85

> <Gold.PLP.Chemscore.Internal.Correction>
0.1631

> <Gold.Rescore>
     Score         DG    S(hbond)    S(metal)    S(lipo)     H(rot)  DE(clash)    DE(int)     intcor
     15.44     -19.24       0.92        0.00     119.11       1.27       2.10       1.70       ----

> <Gold.Chemscore.Fitness>
15.4373

> <Gold.Chemscore.DG>
-19.2374

> <Gold.Chemscore.ZeroCoef>
-5.4800

> <Gold.Chemscore.Hbond>
0.9169

> <Gold.Chemscore.Metal>
0.0000

> <Gold.Chemscore.Lipo>
119.1077

> <Gold.Chemscore.Internal_Hbond>
0.0000

> <Gold.Chemscore.DEClash>
2.1038

> <Gold.Chemscore.DEInternal>
1.6963

> <Gold.Chemscore.Rot>
1.2659

> <Gold.Chemscore.Internal.Correction>
   9.000000E+99

> <Gold.Chemscore.Hbonds>
donor molecule, donor type, donor heavy atom, donor atom, acceptor molecule, acceptor atom, score
      L1  H     7    29       P1  7957  0.82

> <Gold.Chemscore.Hbond.Weighted>
-3.0624

> <Gold.Chemscore.Metal.Weighted>
-0.0000

> <Gold.Chemscore.Lipo.Weighted>
-13.9356

> <Gold.Chemscore.Internal_Hbond.Weighted>
0.0000

> <Gold.Chemscore.DEClash.Weighted>
2.1038

> <Gold.Chemscore.DEInternal.Weighted>
1.6963

> <Gold.Chemscore.Rot.Weighted>
3.2406

> <Gold.Chemscore.Internal.Correction.Weighted>
   9.000000E+99

> <Gold.Protein.RotatedTorsions>
[ 6907 6896 6895 6894 ] final    8.54 input  -60.11 | X-H torsion
[ 7974 7965 7964 7962 ] final   98.91 input  175.53 | X-H torsion
[ 8008 7997 7996 7995 ] final  -24.47 input   59.86 | X-H torsion
[ 10167 10162 10161 10158 ] final   81.73 input  -65.29 | X-H torsion
[ 10718 10713 10712 10709 ] final   97.28 input   66.30 | X-H torsion
[ 10763 10752 10751 10750 ] final  -49.50 input  -60.55 | X-H torsion
[ 11005 11000 10999 10996 ] final  169.08 input  -57.11 | X-H torsion

> <Gold.Protein.ActiveResidues>
 VAL166  LYS551  ARG553  GLY616  TRP617  ASP618  TYR619  PRO620  LYS621  CYS622 
 ASP623  PHE694  ASN695  SER759  ASP760  ASP761  ALA762  ILE779  LEU786  VAL792 
 PHE793  MET794  SER795  GLU796  ALA797  LYS798  CYS799  TRP800  GLU811  SER814 

> <Gold.Protein.RotatedAtoms>
  151.7078  135.0918  160.0262 H   0  0  0  0  0  0  0  0  0  0  0  0  # atno 6907 bound_to 6896
  152.3681  133.6378  159.6074 H   0  0  0  0  0  0  0  0  0  0  0  0  # atno 6908 bound_to 6896
  150.7653  133.9232  159.3445 H   0  0  0  0  0  0  0  0  0  0  0  0  # atno 6909 bound_to 6896
  145.4059  139.2341  143.3275 H   0  0  0  0  0  0  0  0  0  0  0  0  # atno 7974 bound_to 7965
  154.4527  140.1952  156.0470 H   0  0  0  0  0  0  0  0  0  0  0  0  # atno 8008 bound_to 7997
  156.0682  140.3288  155.7516 H   0  0  0  0  0  0  0  0  0  0  0  0  # atno 8009 bound_to 7997
  155.5304  140.0577  157.2880 H   0  0  0  0  0  0  0  0  0  0  0  0  # atno 8010 bound_to 7997
  139.9362  144.6119  150.8296 H   0  0  0  0  0  0  0  0  0  0  0  0  # atno 10167 bound_to 10162
  157.6915  131.0604  150.4620 H   0  0  0  0  0  0  0  0  0  0  0  0  # atno 10718 bound_to 10713
  154.0951  135.6571  153.4859 H   0  0  0  0  0  0  0  0  0  0  0  0  # atno 10763 bound_to 10752
  153.0308  135.5211  154.7342 H   0  0  0  0  0  0  0  0  0  0  0  0  # atno 10764 bound_to 10752
  154.6477  135.2997  154.9994 H   0  0  0  0  0  0  0  0  0  0  0  0  # atno 10765 bound_to 10752
  140.2940  134.7650  157.3862 H   0  0  0  0  0  0  0  0  0  0  0  0  # atno 11005 bound_to 11000
  146.2729  140.4763  142.8807 LP  0  0  0  0  0  0  0  0  0  0  0  0  # atno 17320 bound_to 7965
  144.8342  140.6755  143.6271 LP  0  0  0  0  0  0  0  0  0  0  0  0  # atno 17321 bound_to 7965
  140.7624  143.3196  151.2652 LP  0  0  0  0  0  0  0  0  0  0  0  0  # atno 17342 bound_to 10162
  139.6741  143.9968  152.2771 LP  0  0  0  0  0  0  0  0  0  0  0  0  # atno 17343 bound_to 10162
  156.4964  130.4107  149.6377 LP  0  0  0  0  0  0  0  0  0  0  0  0  # atno 17370 bound_to 10713
  156.3369  130.7361  151.2300 LP  0  0  0  0  0  0  0  0  0  0  0  0  # atno 17371 bound_to 10713
  140.1170  134.5270  155.8217 LP  0  0  0  0  0  0  0  0  0  0  0  0  # atno 17394 bound_to 11000
  141.2141  133.6743  156.6794 LP  0  0  0  0  0  0  0  0  0  0  0  0  # atno 17395 bound_to 11000

$$$$
