AV-unprocessed.smi:714|AV-procd|sdf|3483|dock10
  -GOLD-   22720 0473D 1   1.00000     0.00000
 Structure written by MMmdl.
 38 39  0  0  0  0  0  0  0  0  1 V2000
  148.4253  132.7059  153.1686 C   0  0  0  0  0  0  0  0  0  0  0  0
  149.1974  133.3182  153.8897 C   0  0  0  0  0  0  0  0  0  0  0  0
  150.1394  134.0577  154.7469 C   0  0  0  0  0  0  0  0  0  0  0  0
  149.9601  135.5030  154.6630 N   0  0  0  0  0  0  0  0  0  0  0  0
  150.0522  136.3657  155.6909 C   0  0  0  0  0  0  0  0  0  0  0  0
  150.3129  135.9878  156.8345 O   0  0  0  0  0  0  0  0  0  0  0  0
  149.8131  137.7609  155.3139 C   0  0  0  0  0  0  0  0  0  0  0  0
  148.7882  138.1651  154.3655 C   0  0  0  0  0  0  0  0  0  0  0  0
  148.6468  139.4600  154.0238 C   0  0  0  0  0  0  0  0  0  0  0  0
  149.4989  140.5090  154.5913 C   0  0  0  0  0  0  0  0  0  0  0  0
  149.3861  141.6848  154.2444 O   0  0  0  0  0  0  0  0  0  0  0  0
  150.4130  140.1009  155.5264 N   0  0  0  0  0  0  0  0  0  0  0  0
  151.3319  141.0891  156.1442 C   0  0  1  0  0  0  0  0  0  0  0  0
  150.6033  142.2766  156.8138 C   0  0  0  0  0  0  0  0  0  0  0  0
  150.8442  142.1510  158.3240 C   0  0  0  0  0  0  0  0  0  0  0  0
  151.8403  141.1044  158.4630 N   0  0  0  0  0  0  0  0  0  0  0  0
  152.3877  140.7710  159.7768 C   0  0  0  0  0  0  0  0  0  0  0  0
  153.1378  141.9525  160.4179 C   0  0  0  0  0  0  0  0  0  0  0  0
  152.2482  142.8167  160.9046 F   0  0  0  0  0  0  0  0  0  0  0  0
  153.9195  141.5436  161.4169 F   0  0  0  0  0  0  0  0  0  0  0  0
  153.8827  142.5779  159.5063 F   0  0  0  0  0  0  0  0  0  0  0  0
  152.0961  140.4692  157.3135 C   0  0  0  0  0  0  0  0  0  0  0  0
  152.8531  139.5088  157.1758 O   0  0  0  0  0  0  0  0  0  0  0  0
  150.5768  138.7332  155.8480 C   0  0  0  0  0  0  0  0  0  0  0  0
  147.7520  132.1725  152.5357 H   0  0  0  0  0  0  0  0  0  0  0  0
  150.0337  133.7017  155.7727 H   0  0  0  0  0  0  0  0  0  0  0  0
  151.1508  133.8099  154.4250 H   0  0  0  0  0  0  0  0  0  0  0  0
  149.7434  135.8797  153.7517 H   0  0  0  0  0  0  0  0  0  0  0  0
  148.1229  137.4442  153.9136 H   0  0  0  0  0  0  0  0  0  0  0  0
  147.8811  139.7364  153.3138 H   0  0  0  0  0  0  0  0  0  0  0  0
  152.0596  141.4897  155.4368 H   0  0  0  0  0  0  0  0  0  0  0  0
  151.0434  143.2094  156.4589 H   0  0  0  0  0  0  0  0  0  0  0  0
  149.5410  142.3358  156.5734 H   0  0  0  0  0  0  0  0  0  0  0  0
  151.1940  143.0889  158.7569 H   0  0  0  0  0  0  0  0  0  0  0  0
  149.9311  141.8557  158.8423 H   0  0  0  0  0  0  0  0  0  0  0  0
  151.5731  140.4572  160.4309 H   0  0  0  0  0  0  0  0  0  0  0  0
  153.0522  139.9101  159.6881 H   0  0  0  0  0  0  0  0  0  0  0  0
  151.3761  138.5265  156.5439 H   0  0  0  0  0  0  0  0  0  0  0  0
  1  2  3  0  0  0  0
  1 25  1  0  0  0  0
  2  3  1  0  0  0  0
  3  4  1  0  0  0  0
  3 26  1  0  0  0  0
  3 27  1  0  0  0  0
  4  5  1  0  0  0  0
  4 28  1  0  0  0  0
  5  6  2  0  0  0  0
  5  7  1  0  0  0  0
  7 24  2  0  0  0  0
  7  8  1  0  0  0  0
  8  9  2  0  0  0  0
  8 29  1  0  0  0  0
  9 10  1  0  0  0  0
  9 30  1  0  0  0  0
 10 11  2  0  0  0  0
 10 12  1  0  0  0  0
 12 13  1  0  0  0  0
 12 24  1  0  0  0  0
 13 22  1  0  0  0  0
 13 14  1  0  0  0  0
 13 31  1  0  0  0  0
 14 15  1  0  0  0  0
 14 32  1  0  0  0  0
 14 33  1  0  0  0  0
 15 16  1  0  0  0  0
 15 34  1  0  0  0  0
 15 35  1  0  0  0  0
 16 17  1  0  0  0  0
 16 22  1  0  0  0  0
 17 18  1  0  0  0  0
 17 36  1  0  0  0  0
 17 37  1  0  0  0  0
 18 19  1  0  0  0  0
 18 20  1  0  0  0  0
 18 21  1  0  0  0  0
 22 23  2  0  0  0  0
 24 38  1  0  0  0  0
M  END
> <s_m_source_file>
AV-unprocessed.smi

> <i_m_source_file_index>
714

> <i_lp_mmshare_version>
43012

> <i_f3d_flags>
0

> <s_epik_input>
W0NIXSNDW0NIMl1bTkhdQyg9TyljMVtjSF1bY0hdYyg9TyluKFtjSF0xKVtDQEBIXTJbQ0gyXVtDSDJdTihDMj1PKVtDSDJdQyhGKShGKUY=

> <s_epik_cmdline>
J2VwaWtfcHl0aG9uJywgJy1waCcsICc3LjAnLCAnLXRuJywgJzgnLCAnLW1hJywgJzIwMCcsICctbWV0YWxfYmluZGluZycsICctaW1hZScsICc8aW5maWxlLm1hZT4nLCAnLW9tYWUnLCAnPG91dGZpbGUubWFlPic=

> <r_lp_tautomer_probability>
1

> <r_epik_Ionization_Penalty>
2.95503e-06

> <r_epik_Ionization_Penalty_Charging>
5.74209e-08

> <r_epik_Ionization_Penalty_Neutral>
2.89761e-06

> <r_epik_State_Penalty>
-0

> <r_epik_Charging_Adjusted_Penalty>
5.74209e-08

> <i_epik_Tot_Q>
0

> <i_epik_Tot_abs_Q>
0

> <r_epik_Metal_State_Penalty>
-0

> <b_epik_Metal_Only>
0

> <s_lp_Force_Field>
OPLS_2005

> <r_lp_Energy>
33.0774

> <b_lp_Chiralities_Consistent>
1

> <s_lp_Variant>
AV-unprocessed.smi:714-2

> <Gold.Version>
5.8.1

> <Gold.Id.Protein>
6NUR|6NUR_protein|mol2

> <Gold.PLP.Fitness>
51.4486

> <Gold.PLP.PLP>
-46.7541

> <Gold.PLP.part.hbond>
-4.0000

> <Gold.PLP.part.metal>
0.0000

> <Gold.PLP.part.buried>
-1.5372

> <Gold.PLP.part.nonpolar>
-40.2755

> <Gold.PLP.part.repulsive>
0.2529

> <Gold.PLP.ligand.clash>
0.7214

> <Gold.PLP.ligand.torsion>
1.1766

> <Gold.PLP.Chemscore.Hbond>
2.5280

> <Gold.PLP.Chemscore.CHOScore>
0.0000

> <Gold.PLP.Chemscore.Metal>
0.0000

> <Gold.Chemscore.Hbonds>
donor molecule, donor type, donor heavy atom, donor atom, acceptor molecule, acceptor atom, score
      L1  H     4    28       P1  7948  0.88
      P1  H  7997  8010       L1    23  1.00
      P1  H  8011  8017       L1    11  0.46

> <Gold.PLP.Chemscore.Internal.Correction>
0.1850

> <Gold.Rescore>
     Score         DG    S(hbond)    S(metal)    S(lipo)     H(rot)  DE(clash)    DE(int)     intcor
     13.86     -17.01       2.20        0.00      71.01       1.61       0.76       2.39       ----

> <Gold.Chemscore.Fitness>
13.8557

> <Gold.Chemscore.DG>
-17.0080

> <Gold.Chemscore.ZeroCoef>
-5.4800

> <Gold.Chemscore.Hbond>
2.2009

> <Gold.Chemscore.Metal>
0.0000

> <Gold.Chemscore.Lipo>
71.0056

> <Gold.Chemscore.Internal_Hbond>
0.0000

> <Gold.Chemscore.DEClash>
0.7591

> <Gold.Chemscore.DEInternal>
2.3933

> <Gold.Chemscore.Rot>
1.6136

> <Gold.Chemscore.Internal.Correction>
   9.000000E+99

> <Gold.Chemscore.Hbonds>
donor molecule, donor type, donor heavy atom, donor atom, acceptor molecule, acceptor atom, score
      L1  H     4    28       P1  7948  0.17
      P1  H  7997  8010       L1    23  0.70
      P1  H  8011  8017       L1    11  0.46

> <Gold.Chemscore.Hbond.Weighted>
-7.3512

> <Gold.Chemscore.Metal.Weighted>
-0.0000

> <Gold.Chemscore.Lipo.Weighted>
-8.3077

> <Gold.Chemscore.Internal_Hbond.Weighted>
0.0000

> <Gold.Chemscore.DEClash.Weighted>
0.7591

> <Gold.Chemscore.DEInternal.Weighted>
2.3933

> <Gold.Chemscore.Rot.Weighted>
4.1308

> <Gold.Chemscore.Internal.Correction.Weighted>
   9.000000E+99

> <Gold.Protein.RotatedTorsions>
[ 6907 6896 6895 6894 ] final  125.06 input  -60.11 | X-H torsion
[ 7974 7965 7964 7962 ] final  -64.94 input  175.53 | X-H torsion
[ 8008 7997 7996 7995 ] final   56.97 input   59.86 | X-H torsion
[ 10167 10162 10161 10158 ] final  131.21 input  -65.29 | X-H torsion
[ 10718 10713 10712 10709 ] final -126.48 input   66.30 | X-H torsion
[ 10763 10752 10751 10750 ] final -113.69 input  -60.55 | X-H torsion
[ 11005 11000 10999 10996 ] final  -45.86 input  -57.11 | X-H torsion

> <Gold.Protein.ActiveResidues>
 VAL166  LYS551  ARG553  GLY616  TRP617  ASP618  TYR619  PRO620  LYS621  CYS622 
 ASP623  PHE694  ASN695  SER759  ASP760  ASP761  ALA762  ILE779  LEU786  VAL792 
 PHE793  MET794  SER795  GLU796  ALA797  LYS798  CYS799  TRP800  GLU811  SER814 

> <Gold.Protein.RotatedAtoms>
  152.4025  133.6839  159.6327 H   0  0  0  0  0  0  0  0  0  0  0  0  # atno 6907 bound_to 6896
  150.7914  133.8767  159.3283 H   0  0  0  0  0  0  0  0  0  0  0  0  # atno 6908 bound_to 6896
  151.6529  135.1001  160.0215 H   0  0  0  0  0  0  0  0  0  0  0  0  # atno 6909 bound_to 6896
  145.7605  140.8864  143.0432 H   0  0  0  0  0  0  0  0  0  0  0  0  # atno 7974 bound_to 7965
  155.5261  140.3481  155.4416 H   0  0  0  0  0  0  0  0  0  0  0  0  # atno 8008 bound_to 7997
  156.0751  140.1372  156.9809 H   0  0  0  0  0  0  0  0  0  0  0  0  # atno 8009 bound_to 7997
  154.4549  140.0957  156.6702 H   0  0  0  0  0  0  0  0  0  0  0  0  # atno 8010 bound_to 7997
  139.5394  144.6716  151.4674 H   0  0  0  0  0  0  0  0  0  0  0  0  # atno 10167 bound_to 10162
  156.1769  130.6705  151.0254 H   0  0  0  0  0  0  0  0  0  0  0  0  # atno 10718 bound_to 10713
  154.8407  135.4445  154.1389 H   0  0  0  0  0  0  0  0  0  0  0  0  # atno 10763 bound_to 10752
  153.2580  135.6933  153.7615 H   0  0  0  0  0  0  0  0  0  0  0  0  # atno 10764 bound_to 10752
  153.6902  135.3388  155.3176 H   0  0  0  0  0  0  0  0  0  0  0  0  # atno 10765 bound_to 10752
  141.0542  133.6731  156.3073 H   0  0  0  0  0  0  0  0  0  0  0  0  # atno 11005 bound_to 11000
  144.6831  139.9716  143.7482 LP  0  0  0  0  0  0  0  0  0  0  0  0  # atno 17320 bound_to 7965
  146.0269  139.3300  143.0779 LP  0  0  0  0  0  0  0  0  0  0  0  0  # atno 17321 bound_to 7965
  140.6617  143.8484  150.6896 LP  0  0  0  0  0  0  0  0  0  0  0  0  # atno 17342 bound_to 10162
  140.1880  143.4059  152.1884 LP  0  0  0  0  0  0  0  0  0  0  0  0  # atno 17343 bound_to 10162
  157.6841  131.0829  150.7289 LP  0  0  0  0  0  0  0  0  0  0  0  0  # atno 17370 bound_to 10713
  156.7347  130.4720  149.5491 LP  0  0  0  0  0  0  0  0  0  0  0  0  # atno 17371 bound_to 10713
  140.5995  134.5569  157.5515 LP  0  0  0  0  0  0  0  0  0  0  0  0  # atno 17394 bound_to 11000
  139.9376  134.7846  156.0761 LP  0  0  0  0  0  0  0  0  0  0  0  0  # atno 17395 bound_to 11000

$$$$
