AV-unprocessed.smi:610|AV-procd|sdf|3055|dock5
  -GOLD-   2262023573D 1   1.00000     0.00000
 Structure written by MMmdl.
 38 39  0  0  0  0  0  0  0  0  2 V2000
  151.4248  139.9057  158.5866 C   0  0  0  0  0  0  0  0  0  0  0  0
  151.0182  140.7965  157.4034 C   0  0  2  0  0  0  0  0  0  0  0  0
  150.3080  142.0803  157.8741 C   0  0  0  0  0  0  0  0  0  0  0  0
  151.2342  143.0318  158.4609 N   0  0  0  0  0  0  0  0  0  0  0  0
  151.4876  144.3281  158.0329 C   0  0  0  0  0  0  0  0  0  0  0  0
  152.4181  144.8536  158.9008 C   0  0  0  0  0  0  0  0  0  0  0  0
  152.7495  143.9036  159.8644 N   0  0  0  0  0  0  0  0  0  0  0  0
  152.0154  142.8492  159.5346 C   0  0  0  0  0  0  0  0  0  0  0  0
  150.1450  140.0547  156.4970 N   0  0  0  0  0  0  0  0  0  0  0  0
  150.4123  139.7517  155.2164 C   0  0  0  0  0  0  0  0  0  0  0  0
  151.4841  140.0366  154.6809 O   0  0  0  0  0  0  0  0  0  0  0  0
  149.3134  139.0474  154.3860 C   0  0  0  0  0  0  0  0  0  0  0  0
  149.9238  138.6537  153.1023 N   0  3  0  0  0  0  0  0  0  0  0  0
  148.7580  137.8255  155.1379 C   0  0  0  0  0  0  0  0  0  0  0  0
  147.6694  138.3818  156.0668 C   0  0  0  0  0  0  0  0  0  0  0  0
  147.1880  139.6933  155.4254 C   0  0  0  0  0  0  0  0  0  0  0  0
  148.0343  139.8806  154.1580 C   0  0  0  0  0  0  0  0  0  0  0  0
  152.0773  140.4433  159.2753 H   0  0  0  0  0  0  0  0  0  0  0  0
  151.9654  139.0212  158.2476 H   0  0  0  0  0  0  0  0  0  0  0  0
  150.5531  139.5688  159.1485 H   0  0  0  0  0  0  0  0  0  0  0  0
  151.9254  141.0913  156.8723 H   0  0  0  0  0  0  0  0  0  0  0  0
  149.7885  142.5607  157.0434 H   0  0  0  0  0  0  0  0  0  0  0  0
  149.5504  141.8407  158.6212 H   0  0  0  0  0  0  0  0  0  0  0  0
  150.9955  144.7584  157.1730 H   0  0  0  0  0  0  0  0  0  0  0  0
  152.8698  145.8347  158.9068 H   0  0  0  0  0  0  0  0  0  0  0  0
  152.0378  141.9259  160.0949 H   0  0  0  0  0  0  0  0  0  0  0  0
  149.2467  139.7784  156.8665 H   0  0  0  0  0  0  0  0  0  0  0  0
  150.9144  138.5031  153.2281 H   0  0  0  0  0  0  0  0  0  0  0  0
  149.7762  139.3899  152.4264 H   0  0  0  0  0  0  0  0  0  0  0  0
  148.3023  137.1298  154.4314 H   0  0  0  0  0  0  0  0  0  0  0  0
  149.5158  137.2659  155.6885 H   0  0  0  0  0  0  0  0  0  0  0  0
  146.8557  137.6682  156.2002 H   0  0  0  0  0  0  0  0  0  0  0  0
  148.0866  138.5868  157.0536 H   0  0  0  0  0  0  0  0  0  0  0  0
  146.1235  139.6645  155.1901 H   0  0  0  0  0  0  0  0  0  0  0  0
  147.3453  140.5230  156.1157 H   0  0  0  0  0  0  0  0  0  0  0  0
  148.2165  140.9310  153.9260 H   0  0  0  0  0  0  0  0  0  0  0  0
  147.4826  139.4736  153.3088 H   0  0  0  0  0  0  0  0  0  0  0  0
  149.4903  137.8041  152.7702 H   0  0  0  0  0  0  0  0  0  0  0  0
  1  2  1  0  0  0  0
  1 18  1  0  0  0  0
  1 19  1  0  0  0  0
  1 20  1  0  0  0  0
  2  3  1  0  0  0  0
  2  9  1  0  0  0  0
  2 21  1  0  0  0  0
  3  4  1  0  0  0  0
  3 22  1  0  0  0  0
  3 23  1  0  0  0  0
  4  8  1  0  0  0  0
  4  5  1  0  0  0  0
  5  6  2  0  0  0  0
  5 24  1  0  0  0  0
  6  7  1  0  0  0  0
  6 25  1  0  0  0  0
  7  8  2  0  0  0  0
  8 26  1  0  0  0  0
  9 10  1  0  0  0  0
  9 27  1  0  0  0  0
 10 11  2  0  0  0  0
 10 12  1  0  0  0  0
 12 17  1  0  0  0  0
 12 13  1  0  0  0  0
 12 14  1  0  0  0  0
 13 28  1  0  0  0  0
 13 29  1  0  0  0  0
 13 38  1  0  0  0  0
 14 15  1  0  0  0  0
 14 30  1  0  0  0  0
 14 31  1  0  0  0  0
 15 16  1  0  0  0  0
 15 32  1  0  0  0  0
 15 33  1  0  0  0  0
 16 17  1  0  0  0  0
 16 34  1  0  0  0  0
 16 35  1  0  0  0  0
 17 36  1  0  0  0  0
 17 37  1  0  0  0  0
M  CHG  1  13   1
M  END
> <s_m_source_file>
AV-unprocessed.smi

> <i_m_source_file_index>
610

> <i_lp_mmshare_version>
43012

> <i_f3d_flags>
0

> <s_epik_input>
W2NIXTFuW2NIXVtjSF1uMVtDSDJdW0NAQEhdKFtDSDNdKVtOSF1DKD1PKUMyKFtOSDJdKVtDSDJdW0NIMl1bQ0gyXVtDSDJdMg==

> <s_epik_cmdline>
J2VwaWtfcHl0aG9uJywgJy1waCcsICc3LjAnLCAnLXRuJywgJzgnLCAnLW1hJywgJzIwMCcsICctbWV0YWxfYmluZGluZycsICctaW1hZScsICc8aW5maWxlLm1hZT4nLCAnLW9tYWUnLCAnPG91dGZpbGUubWFlPic=

> <r_lp_tautomer_probability>
1

> <r_epik_Ionization_Penalty>
0.661147

> <r_epik_Ionization_Penalty_Charging>
0.661145

> <r_epik_Ionization_Penalty_Neutral>
1.19451e-06

> <r_epik_State_Penalty>
0.679243

> <r_epik_Charging_Adjusted_Penalty>
1.34039

> <i_epik_Tot_Q>
1

> <i_epik_Tot_abs_Q>
1

> <r_epik_Metal_State_Penalty>
0.372892

> <b_epik_Metal_Only>
0

> <s_lp_Force_Field>
OPLS_2005

> <r_lp_Energy>
25.3563

> <b_lp_Chiralities_Consistent>
1

> <s_lp_Variant>
AV-unprocessed.smi:610-3

> <Gold.Version>
5.8.1

> <Gold.Id.Protein>
6NUR|6NUR_protein|mol2

> <Gold.PLP.Fitness>
46.0222

> <Gold.PLP.PLP>
-31.5892

> <Gold.PLP.part.hbond>
-3.6650

> <Gold.PLP.part.metal>
0.0000

> <Gold.PLP.part.buried>
-2.2830

> <Gold.PLP.part.nonpolar>
-24.3790

> <Gold.PLP.part.repulsive>
0.2076

> <Gold.PLP.ligand.clash>
0.0000

> <Gold.PLP.ligand.torsion>
0.3172

> <Gold.PLP.Chemscore.Hbond>
4.0000

> <Gold.PLP.Chemscore.CHOScore>
1.0000

> <Gold.PLP.Chemscore.Metal>
0.0000

> <Gold.Chemscore.Hbonds>
donor molecule, donor type, donor heavy atom, donor atom, acceptor molecule, acceptor atom, score
      L1  H    13    29       P1  7957  0.73
      L1  H    13    38       P1  7948  2.00
      P1  H  7989  7998       L1    11  0.80
      L1  C     5    24       P1  8028  0.94

> <Gold.PLP.Chemscore.Internal.Correction>
0.0675

> <Gold.Rescore>
     Score         DG    S(hbond)    S(metal)    S(lipo)     H(rot)  DE(clash)    DE(int)     intcor
     15.81     -16.71       2.90        0.00      56.88       2.00       0.00       0.89       ----

> <Gold.Chemscore.Fitness>
15.8143

> <Gold.Chemscore.DG>
-16.7063

> <Gold.Chemscore.ZeroCoef>
-5.4800

> <Gold.Chemscore.Hbond>
2.8994

> <Gold.Chemscore.Metal>
0.0000

> <Gold.Chemscore.Lipo>
56.8802

> <Gold.Chemscore.Internal_Hbond>
0.0000

> <Gold.Chemscore.DEClash>
0.0029

> <Gold.Chemscore.DEInternal>
0.8891

> <Gold.Chemscore.Rot>
1.9972

> <Gold.Chemscore.Internal.Correction>
   9.000000E+99

> <Gold.Chemscore.Hbonds>
donor molecule, donor type, donor heavy atom, donor atom, acceptor molecule, acceptor atom, score
      L1  H    13    29       P1  7957  0.69
      L1  H    13    38       P1  7948  0.78
      P1  H  7989  7998       L1    11  0.78

> <Gold.Chemscore.Hbond.Weighted>
-9.6840

> <Gold.Chemscore.Metal.Weighted>
-0.0000

> <Gold.Chemscore.Lipo.Weighted>
-6.6550

> <Gold.Chemscore.Internal_Hbond.Weighted>
0.0000

> <Gold.Chemscore.DEClash.Weighted>
0.0029

> <Gold.Chemscore.DEInternal.Weighted>
0.8891

> <Gold.Chemscore.Rot.Weighted>
5.1127

> <Gold.Chemscore.Internal.Correction.Weighted>
   9.000000E+99

> <Gold.Protein.RotatedTorsions>
[ 6907 6896 6895 6894 ] final   82.70 input  -60.11 | X-H torsion
[ 7974 7965 7964 7962 ] final  110.88 input  175.53 | X-H torsion
[ 8008 7997 7996 7995 ] final  117.00 input   59.86 | X-H torsion
[ 10167 10162 10161 10158 ] final    4.60 input  -65.29 | X-H torsion
[ 10718 10713 10712 10709 ] final -156.87 input   66.30 | X-H torsion
[ 10763 10752 10751 10750 ] final -138.33 input  -60.55 | X-H torsion
[ 11005 11000 10999 10996 ] final  126.97 input  -57.11 | X-H torsion

> <Gold.Protein.ActiveResidues>
 VAL166  LYS551  ARG553  GLY616  TRP617  ASP618  TYR619  PRO620  LYS621  CYS622 
 ASP623  PHE694  ASN695  SER759  ASP760  ASP761  ALA762  ILE779  LEU786  VAL792 
 PHE793  MET794  SER795  GLU796  ALA797  LYS798  CYS799  TRP800  GLU811  SER814 

> <Gold.Protein.RotatedAtoms>
  152.5306  134.3010  159.9078 H   0  0  0  0  0  0  0  0  0  0  0  0  # atno 6907 bound_to 6896
  151.2960  133.4137  159.2644 H   0  0  0  0  0  0  0  0  0  0  0  0  # atno 6908 bound_to 6896
  151.0159  134.9449  159.8090 H   0  0  0  0  0  0  0  0  0  0  0  0  # atno 6909 bound_to 6896
  145.2493  139.2746  143.4076 H   0  0  0  0  0  0  0  0  0  0  0  0  # atno 7974 bound_to 7965
  156.2470  140.2905  156.0611 H   0  0  0  0  0  0  0  0  0  0  0  0  # atno 8008 bound_to 7997
  155.1775  140.0403  157.2893 H   0  0  0  0  0  0  0  0  0  0  0  0  # atno 8009 bound_to 7997
  154.6283  140.2493  155.7472 H   0  0  0  0  0  0  0  0  0  0  0  0  # atno 8010 bound_to 7997
  140.6526  143.7507  150.7600 H   0  0  0  0  0  0  0  0  0  0  0  0  # atno 10167 bound_to 10162
  156.5324  130.8527  151.2721 H   0  0  0  0  0  0  0  0  0  0  0  0  # atno 10718 bound_to 10713
  154.8639  135.3615  154.5368 H   0  0  0  0  0  0  0  0  0  0  0  0  # atno 10763 bound_to 10752
  153.5991  135.7013  153.5396 H   0  0  0  0  0  0  0  0  0  0  0  0  # atno 10764 bound_to 10752
  153.3306  135.4125  155.1454 H   0  0  0  0  0  0  0  0  0  0  0  0  # atno 10765 bound_to 10752
  139.9483  134.9626  156.8785 H   0  0  0  0  0  0  0  0  0  0  0  0  # atno 11005 bound_to 11000
  146.3307  140.2880  142.8613 LP  0  0  0  0  0  0  0  0  0  0  0  0  # atno 17320 bound_to 7965
  144.9517  140.8185  143.5568 LP  0  0  0  0  0  0  0  0  0  0  0  0  # atno 17321 bound_to 7965
  140.1161  143.4655  152.2341 LP  0  0  0  0  0  0  0  0  0  0  0  0  # atno 17342 bound_to 10162
  139.5743  144.7479  151.3806 LP  0  0  0  0  0  0  0  0  0  0  0  0  # atno 17343 bound_to 10162
  157.7419  130.9880  150.2481 LP  0  0  0  0  0  0  0  0  0  0  0  0  # atno 17370 bound_to 10713
  156.3047  130.3763  149.7717 LP  0  0  0  0  0  0  0  0  0  0  0  0  # atno 17371 bound_to 10713
  140.5780  134.0379  155.7454 LP  0  0  0  0  0  0  0  0  0  0  0  0  # atno 17394 bound_to 11000
  141.1140  133.9571  157.2858 LP  0  0  0  0  0  0  0  0  0  0  0  0  # atno 17395 bound_to 11000

$$$$
