AV-unprocessed.smi:1784|AV-procd|sdf|7197|dock2
  -GOLD-   22720 8433D 1   1.00000     0.00000
 Structure written by MMmdl.
 43 45  0  0  0  0  0  0  0  0  1 V2000
  145.4147  138.3206  153.4387 O   0  0  0  0  0  0  0  0  0  0  0  0
  146.3997  137.6811  153.0692 C   0  0  0  0  0  0  0  0  0  0  0  0
  146.3303  136.4457  152.5550 N   0  0  0  0  0  0  0  0  0  0  0  0
  145.1034  135.6737  152.3967 C   0  0  0  0  0  0  0  0  0  0  0  0
  145.4070  134.2307  151.9634 C   0  0  1  0  0  0  0  0  0  0  0  0
  144.1691  133.3465  151.8346 C   0  0  0  0  0  0  0  0  0  0  0  0
  144.5978  132.2804  150.8376 C   0  0  0  0  0  0  0  0  0  0  0  0
  145.8603  132.8580  150.1899 C   0  0  0  0  0  0  0  0  0  0  0  0
  145.9331  134.2013  150.6462 O   0  0  0  0  0  0  0  0  0  0  0  0
  147.6727  138.1023  153.1475 N   0  0  0  0  0  0  0  0  0  0  0  0
  148.1638  139.3374  153.6592 C   0  0  0  0  0  0  0  0  0  0  0  0
  147.4109  140.5356  153.6035 C   0  0  0  0  0  0  0  0  0  0  0  0
  147.9678  141.7210  154.1158 C   0  0  0  0  0  0  0  0  0  0  0  0
  149.2630  141.6693  154.6591 C   0  0  0  0  0  0  0  0  0  0  0  0
  149.9993  140.5407  154.7039 N   0  0  0  0  0  0  0  0  0  0  0  0
  149.4700  139.3919  154.2160 C   0  0  0  0  0  0  0  0  0  0  0  0
  150.2778  138.2355  154.2432 N   0  0  0  0  0  0  0  0  0  0  0  0
  151.6653  138.5092  154.6099 C   0  0  0  0  0  0  0  0  0  0  0  0
  152.1023  137.3818  155.5492 C   0  0  0  0  0  0  0  0  0  0  0  0
  150.7887  136.9026  156.1546 C   0  0  0  0  0  0  0  0  0  0  0  0
  149.8150  137.0678  154.9905 C   0  0  0  0  0  0  0  0  0  0  0  0
  147.1906  135.9919  152.2850 H   0  0  0  0  0  0  0  0  0  0  0  0
  144.5373  135.6776  153.3296 H   0  0  0  0  0  0  0  0  0  0  0  0
  144.4776  136.1672  151.6528 H   0  0  0  0  0  0  0  0  0  0  0  0
  146.1212  133.7638  152.6449 H   0  0  0  0  0  0  0  0  0  0  0  0
  143.8489  132.9313  152.7906 H   0  0  0  0  0  0  0  0  0  0  0  0
  143.3379  133.9187  151.4207 H   0  0  0  0  0  0  0  0  0  0  0  0
  144.8209  131.3357  151.3344 H   0  0  0  0  0  0  0  0  0  0  0  0
  143.8135  132.0966  150.1027 H   0  0  0  0  0  0  0  0  0  0  0  0
  146.7461  132.3172  150.5264 H   0  0  0  0  0  0  0  0  0  0  0  0
  145.8294  132.8163  149.1008 H   0  0  0  0  0  0  0  0  0  0  0  0
  148.3802  137.4250  152.9031 H   0  0  0  0  0  0  0  0  0  0  0  0
  146.4255  140.5695  153.1652 H   0  0  0  0  0  0  0  0  0  0  0  0
  147.4161  142.6487  154.0879 H   0  0  0  0  0  0  0  0  0  0  0  0
  149.7247  142.5593  155.0603 H   0  0  0  0  0  0  0  0  0  0  0  0
  152.3002  138.5551  153.7250 H   0  0  0  0  0  0  0  0  0  0  0  0
  151.7408  139.4698  155.1224 H   0  0  0  0  0  0  0  0  0  0  0  0
  152.5572  136.5751  154.9729 H   0  0  0  0  0  0  0  0  0  0  0  0
  152.8232  137.7099  156.2984 H   0  0  0  0  0  0  0  0  0  0  0  0
  150.8358  135.8794  156.5280 H   0  0  0  0  0  0  0  0  0  0  0  0
  150.4981  137.5547  156.9794 H   0  0  0  0  0  0  0  0  0  0  0  0
  148.7807  137.1323  155.3291 H   0  0  0  0  0  0  0  0  0  0  0  0
  149.8771  136.2039  154.3281 H   0  0  0  0  0  0  0  0  0  0  0  0
  1  2  2  0  0  0  0
  2  3  1  0  0  0  0
  2 10  1  0  0  0  0
  3  4  1  0  0  0  0
  3 22  1  0  0  0  0
  4  5  1  0  0  0  0
  4 23  1  0  0  0  0
  4 24  1  0  0  0  0
  5  9  1  0  0  0  0
  5  6  1  0  0  0  0
  5 25  1  0  0  0  0
  6  7  1  0  0  0  0
  6 26  1  0  0  0  0
  6 27  1  0  0  0  0
  7  8  1  0  0  0  0
  7 28  1  0  0  0  0
  7 29  1  0  0  0  0
  8  9  1  0  0  0  0
  8 30  1  0  0  0  0
  8 31  1  0  0  0  0
 10 11  1  0  0  0  0
 10 32  1  0  0  0  0
 11 16  1  0  0  0  0
 11 12  2  0  0  0  0
 12 13  1  0  0  0  0
 12 33  1  0  0  0  0
 13 14  2  0  0  0  0
 13 34  1  0  0  0  0
 14 15  1  0  0  0  0
 14 35  1  0  0  0  0
 15 16  2  0  0  0  0
 16 17  1  0  0  0  0
 17 21  1  0  0  0  0
 17 18  1  0  0  0  0
 18 19  1  0  0  0  0
 18 36  1  0  0  0  0
 18 37  1  0  0  0  0
 19 20  1  0  0  0  0
 19 38  1  0  0  0  0
 19 39  1  0  0  0  0
 20 21  1  0  0  0  0
 20 40  1  0  0  0  0
 20 41  1  0  0  0  0
 21 42  1  0  0  0  0
 21 43  1  0  0  0  0
M  END
> <s_m_source_file>
AV-unprocessed.smi

> <i_m_source_file_index>
1784

> <i_lp_mmshare_version>
43012

> <i_f3d_flags>
0

> <s_epik_input>
TzFbQ0gyXVtDSDJdW0NIMl1bQ0BIXTFbQ0gyXVtOSF1DKD1PKVtOSF1jMltjSF1bY0hdW2NIXW5jMk4zW0NIMl1bQ0gyXVtDSDJdW0NIMl0z

> <s_epik_cmdline>
J2VwaWtfcHl0aG9uJywgJy1waCcsICc3LjAnLCAnLXRuJywgJzgnLCAnLW1hJywgJzIwMCcsICctbWV0YWxfYmluZGluZycsICctaW1hZScsICc8aW5maWxlLm1hZT4nLCAnLW9tYWUnLCAnPG91dGZpbGUubWFlPic=

> <r_lp_tautomer_probability>
1

> <r_epik_Ionization_Penalty>
0.0982482

> <r_epik_Ionization_Penalty_Charging>
0

> <r_epik_Ionization_Penalty_Neutral>
0.0982482

> <r_epik_State_Penalty>
0.0877864

> <r_epik_Charging_Adjusted_Penalty>
0.0877864

> <i_epik_Tot_Q>
0

> <i_epik_Tot_abs_Q>
0

> <r_epik_Metal_State_Penalty>
0.0752567

> <b_epik_Metal_Only>
0

> <s_lp_Force_Field>
OPLS_2005

> <r_lp_Energy>
44.9043

> <b_lp_Chiralities_Consistent>
1

> <s_lp_Variant>
AV-unprocessed.smi:1784-2

> <Gold.Version>
5.8.1

> <Gold.Id.Protein>
6NUR|6NUR_protein|mol2

> <Gold.PLP.Fitness>
41.8312

> <Gold.PLP.PLP>
-31.0139

> <Gold.PLP.part.hbond>
-3.0000

> <Gold.PLP.part.metal>
0.0000

> <Gold.PLP.part.buried>
-0.4154

> <Gold.PLP.part.nonpolar>
-28.5238

> <Gold.PLP.part.repulsive>
2.2169

> <Gold.PLP.ligand.clash>
0.0000

> <Gold.PLP.ligand.torsion>
0.3243

> <Gold.PLP.Chemscore.Hbond>
2.7780

> <Gold.PLP.Chemscore.CHOScore>
1.0000

> <Gold.PLP.Chemscore.Metal>
0.0000

> <Gold.Chemscore.Hbonds>
donor molecule, donor type, donor heavy atom, donor atom, acceptor molecule, acceptor atom, score
      L1  H     3    22       P1  7948  0.93
      L1  H    10    32       P1  7948  0.99
      P1  H  7989  7998       L1    15  0.84
      L1  C    14    35       P1  8028  1.00

> <Gold.PLP.Chemscore.Internal.Correction>
0.1319

> <Gold.Rescore>
     Score         DG    S(hbond)    S(metal)    S(lipo)     H(rot)  DE(clash)    DE(int)     intcor
     15.60     -18.11       1.99        0.00      81.39       1.38       0.18       2.33       ----

> <Gold.Chemscore.Fitness>
15.5982

> <Gold.Chemscore.DG>
-18.1105

> <Gold.Chemscore.ZeroCoef>
-5.4800

> <Gold.Chemscore.Hbond>
1.9877

> <Gold.Chemscore.Metal>
0.0000

> <Gold.Chemscore.Lipo>
81.3945

> <Gold.Chemscore.Internal_Hbond>
0.0000

> <Gold.Chemscore.DEClash>
0.1816

> <Gold.Chemscore.DEInternal>
2.3307

> <Gold.Chemscore.Rot>
1.3796

> <Gold.Chemscore.Internal.Correction>
   9.000000E+99

> <Gold.Chemscore.Hbonds>
donor molecule, donor type, donor heavy atom, donor atom, acceptor molecule, acceptor atom, score
      L1  H     3    22       P1  7948  0.90
      L1  H    10    32       P1  7948  0.94
      P1  H  7989  7998       L1    15  0.18

> <Gold.Chemscore.Hbond.Weighted>
-6.6390

> <Gold.Chemscore.Metal.Weighted>
-0.0000

> <Gold.Chemscore.Lipo.Weighted>
-9.5232

> <Gold.Chemscore.Internal_Hbond.Weighted>
0.0000

> <Gold.Chemscore.DEClash.Weighted>
0.1816

> <Gold.Chemscore.DEInternal.Weighted>
2.3307

> <Gold.Chemscore.Rot.Weighted>
3.5317

> <Gold.Chemscore.Internal.Correction.Weighted>
   9.000000E+99

> <Gold.Protein.RotatedTorsions>
[ 6907 6896 6895 6894 ] final  162.80 input  -60.11 | X-H torsion
[ 7974 7965 7964 7962 ] final -167.65 input  175.53 | X-H torsion
[ 8008 7997 7996 7995 ] final   54.94 input   59.86 | X-H torsion
[ 10167 10162 10161 10158 ] final   -3.45 input  -65.29 | X-H torsion
[ 10718 10713 10712 10709 ] final  -12.63 input   66.30 | X-H torsion
[ 10763 10752 10751 10750 ] final -146.18 input  -60.55 | X-H torsion
[ 11005 11000 10999 10996 ] final  174.86 input  -57.11 | X-H torsion

> <Gold.Protein.ActiveResidues>
 VAL166  LYS551  ARG553  GLY616  TRP617  ASP618  TYR619  PRO620  LYS621  CYS622 
 ASP623  PHE694  ASN695  SER759  ASP760  ASP761  ALA762  ILE779  LEU786  VAL792 
 PHE793  MET794  SER795  GLU796  ALA797  LYS798  CYS799  TRP800  GLU811  SER814 

> <Gold.Protein.RotatedAtoms>
  151.9349  133.3621  159.3944 H   0  0  0  0  0  0  0  0  0  0  0  0  # atno 6907 bound_to 6896
  150.7009  134.4499  159.5340 H   0  0  0  0  0  0  0  0  0  0  0  0  # atno 6908 bound_to 6896
  152.2146  134.8470  160.0544 H   0  0  0  0  0  0  0  0  0  0  0  0  # atno 6909 bound_to 6896
  144.7219  140.2488  143.6281 H   0  0  0  0  0  0  0  0  0  0  0  0  # atno 7974 bound_to 7965
  155.4930  140.3472  155.4358 H   0  0  0  0  0  0  0  0  0  0  0  0  # atno 8008 bound_to 7997
  156.0964  140.1424  156.9553 H   0  0  0  0  0  0  0  0  0  0  0  0  # atno 8009 bound_to 7997
  154.4666  140.0915  156.7015 H   0  0  0  0  0  0  0  0  0  0  0  0  # atno 8010 bound_to 7997
  140.6890  143.6538  150.8326 H   0  0  0  0  0  0  0  0  0  0  0  0  # atno 10167 bound_to 10162
  156.6418  130.4930  149.6092 H   0  0  0  0  0  0  0  0  0  0  0  0  # atno 10718 bound_to 10713
  154.8348  135.3393  154.6621 H   0  0  0  0  0  0  0  0  0  0  0  0  # atno 10763 bound_to 10752
  153.7237  135.6956  153.5011 H   0  0  0  0  0  0  0  0  0  0  0  0  # atno 10764 bound_to 10752
  153.2363  135.4399  155.0602 H   0  0  0  0  0  0  0  0  0  0  0  0  # atno 10765 bound_to 10752
  140.3559  134.7155  157.4299 H   0  0  0  0  0  0  0  0  0  0  0  0  # atno 11005 bound_to 11000
  145.8249  139.2060  143.1917 LP  0  0  0  0  0  0  0  0  0  0  0  0  # atno 17320 bound_to 7965
  146.0482  140.8096  142.9795 LP  0  0  0  0  0  0  0  0  0  0  0  0  # atno 17321 bound_to 7965
  140.0249  143.5504  152.2785 LP  0  0  0  0  0  0  0  0  0  0  0  0  # atno 17342 bound_to 10162
  139.6275  144.7639  151.2606 LP  0  0  0  0  0  0  0  0  0  0  0  0  # atno 17343 bound_to 10162
  156.2153  130.6704  151.1312 LP  0  0  0  0  0  0  0  0  0  0  0  0  # atno 17370 bound_to 10713
  157.7168  131.0705  150.6293 LP  0  0  0  0  0  0  0  0  0  0  0  0  # atno 17371 bound_to 10713
  140.0665  134.5922  155.8689 LP  0  0  0  0  0  0  0  0  0  0  0  0  # atno 17394 bound_to 11000
  141.1998  133.6609  156.5865 LP  0  0  0  0  0  0  0  0  0  0  0  0  # atno 17395 bound_to 11000

$$$$
