AV-unprocessed.smi:2530|AV-procd|sdf|9963|dock10
  -GOLD-   2272014 03D 1   1.00000     0.00000
 Structure written by MMmdl.
 44 46  0  0  0  0  0  0  0  0  1 V2000
  152.0680  145.3883  160.3594 C   0  0  0  0  0  0  0  0  0  0  0  0
  152.0897  144.0087  159.7344 C   0  0  0  0  0  0  0  0  0  0  0  0
  153.1434  143.1198  160.0169 C   0  0  0  0  0  0  0  0  0  0  0  0
  153.1605  141.8417  159.4302 C   0  0  0  0  0  0  0  0  0  0  0  0
  152.1252  141.4346  158.5615 C   0  0  0  0  0  0  0  0  0  0  0  0
  152.2023  140.0499  157.9415 C   0  0  0  0  0  0  0  0  0  0  0  0
  151.0503  142.3206  158.2837 C   0  0  0  0  0  0  0  0  0  0  0  0
  149.9045  141.9300  157.3492 C   0  0  1  0  0  0  0  0  0  0  0  0
  148.8535  142.8768  157.3925 O   0  0  0  0  0  0  0  0  0  0  0  0
  150.4018  141.8103  155.8912 C   0  0  0  0  0  0  0  0  0  0  0  0
  149.4539  141.0853  155.0273 N   0  0  0  0  0  0  0  0  0  0  0  0
  148.2865  141.7809  154.6576 C   0  0  0  0  0  0  0  0  0  0  0  0
  147.3837  141.2448  153.8994 N   0  0  0  0  0  0  0  0  0  0  0  0
  147.5569  139.9383  153.4285 C   0  0  0  0  0  0  0  0  0  0  0  0
  146.4510  139.3495  152.5631 C   0  0  0  0  0  0  0  0  0  0  0  0
  146.1895  137.8429  152.7285 C   0  0  0  0  0  0  0  0  0  0  0  0
  145.9725  137.7792  151.2127 C   0  0  0  0  0  0  0  0  0  0  0  0
  146.8278  139.0466  151.1035 C   0  0  0  0  0  0  0  0  0  0  0  0
  148.6584  139.2257  153.7646 C   0  0  0  0  0  0  0  0  0  0  0  0
  149.6969  139.8070  154.6153 C   0  0  0  0  0  0  0  0  0  0  0  0
  150.7115  139.1886  154.9367 O   0  0  0  0  0  0  0  0  0  0  0  0
  151.0515  143.6072  158.8713 C   0  0  0  0  0  0  0  0  0  0  0  0
  153.0786  145.7308  160.5841 H   0  0  0  0  0  0  0  0  0  0  0  0
  151.4962  145.3708  161.2872 H   0  0  0  0  0  0  0  0  0  0  0  0
  151.6085  146.1120  159.6855 H   0  0  0  0  0  0  0  0  0  0  0  0
  153.9432  143.4158  160.6803 H   0  0  0  0  0  0  0  0  0  0  0  0
  153.9794  141.1727  159.6506 H   0  0  0  0  0  0  0  0  0  0  0  0
  151.3807  139.4254  158.2926 H   0  0  0  0  0  0  0  0  0  0  0  0
  153.1353  139.5491  158.2015 H   0  0  0  0  0  0  0  0  0  0  0  0
  152.1558  140.1149  156.8548 H   0  0  0  0  0  0  0  0  0  0  0  0
  149.4720  140.9853  157.6743 H   0  0  0  0  0  0  0  0  0  0  0  0
  148.9688  143.4829  156.6765 H   0  0  0  0  0  0  0  0  0  0  0  0
  150.6479  142.7969  155.4928 H   0  0  0  0  0  0  0  0  0  0  0  0
  151.3504  141.2704  155.8812 H   0  0  0  0  0  0  0  0  0  0  0  0
  148.1975  142.7932  155.0557 H   0  0  0  0  0  0  0  0  0  0  0  0
  145.5301  139.9312  152.6332 H   0  0  0  0  0  0  0  0  0  0  0  0
  147.0681  137.2769  153.0441 H   0  0  0  0  0  0  0  0  0  0  0  0
  145.3126  137.5947  153.3272 H   0  0  0  0  0  0  0  0  0  0  0  0
  146.3944  136.8990  150.7266 H   0  0  0  0  0  0  0  0  0  0  0  0
  144.9327  137.9430  150.9254 H   0  0  0  0  0  0  0  0  0  0  0  0
  146.4705  139.7782  150.3783 H   0  0  0  0  0  0  0  0  0  0  0  0
  147.8871  138.8226  150.9641 H   0  0  0  0  0  0  0  0  0  0  0  0
  148.7807  138.2148  153.4039 H   0  0  0  0  0  0  0  0  0  0  0  0
  150.2484  144.2980  158.6583 H   0  0  0  0  0  0  0  0  0  0  0  0
  1  2  1  0  0  0  0
  1 23  1  0  0  0  0
  1 24  1  0  0  0  0
  1 25  1  0  0  0  0
  2 22  1  0  0  0  0
  2  3  2  0  0  0  0
  3  4  1  0  0  0  0
  3 26  1  0  0  0  0
  4  5  2  0  0  0  0
  4 27  1  0  0  0  0
  5  6  1  0  0  0  0
  5  7  1  0  0  0  0
  6 28  1  0  0  0  0
  6 29  1  0  0  0  0
  6 30  1  0  0  0  0
  7  8  1  0  0  0  0
  7 22  2  0  0  0  0
  8  9  1  0  0  0  0
  8 10  1  0  0  0  0
  8 31  1  0  0  0  0
  9 32  1  0  0  0  0
 10 11  1  0  0  0  0
 10 33  1  0  0  0  0
 10 34  1  0  0  0  0
 11 20  1  0  0  0  0
 11 12  1  0  0  0  0
 12 13  2  0  0  0  0
 12 35  1  0  0  0  0
 13 14  1  0  0  0  0
 14 15  1  0  0  0  0
 14 19  2  0  0  0  0
 15 18  1  0  0  0  0
 15 16  1  0  0  0  0
 15 36  1  0  0  0  0
 16 17  1  0  0  0  0
 16 37  1  0  0  0  0
 16 38  1  0  0  0  0
 17 18  1  0  0  0  0
 17 39  1  0  0  0  0
 17 40  1  0  0  0  0
 18 41  1  0  0  0  0
 18 42  1  0  0  0  0
 19 20  1  0  0  0  0
 19 43  1  0  0  0  0
 20 21  2  0  0  0  0
 22 44  1  0  0  0  0
M  END
> <s_m_source_file>
AV-unprocessed.smi

> <i_m_source_file_index>
2530

> <i_lp_mmshare_version>
43012

> <i_f3d_flags>
0

> <s_epik_input>
W0NIM11jMVtjSF1bY0hdYyhbQ0gzXSljKFtjSF0xKVtDQEhdKFtPSF0pW0NIMl1uMltjSF1uYyhbY0hdYzI9TylbQ0hdM1tDSDJdW0NIMl1bQ0gyXTM=

> <s_epik_cmdline>
J2VwaWtfcHl0aG9uJywgJy1waCcsICc3LjAnLCAnLXRuJywgJzgnLCAnLW1hJywgJzIwMCcsICctbWV0YWxfYmluZGluZycsICctaW1hZScsICc8aW5maWxlLm1hZT4nLCAnLW9tYWUnLCAnPG91dGZpbGUubWFlPic=

> <r_lp_tautomer_probability>
1

> <r_epik_Ionization_Penalty>
2.57341e-05

> <r_epik_Ionization_Penalty_Charging>
5.39435e-08

> <r_epik_Ionization_Penalty_Neutral>
2.56801e-05

> <r_epik_State_Penalty>
-0

> <r_epik_Charging_Adjusted_Penalty>
5.39435e-08

> <i_epik_Tot_Q>
0

> <i_epik_Tot_abs_Q>
0

> <r_epik_Metal_State_Penalty>
-0

> <b_epik_Metal_Only>
0

> <s_lp_Force_Field>
OPLS_2005

> <r_lp_Energy>
28.9103

> <b_lp_Chiralities_Consistent>
1

> <s_lp_Variant>
AV-unprocessed.smi:2530-2

> <Gold.Version>
5.8.1

> <Gold.Id.Protein>
6NUR|6NUR_protein|mol2

> <Gold.PLP.Fitness>
50.3846

> <Gold.PLP.PLP>
-45.7423

> <Gold.PLP.part.hbond>
-1.4807

> <Gold.PLP.part.metal>
0.0000

> <Gold.PLP.part.buried>
2.9181

> <Gold.PLP.part.nonpolar>
-47.0725

> <Gold.PLP.part.repulsive>
0.2079

> <Gold.PLP.ligand.clash>
0.0720

> <Gold.PLP.ligand.torsion>
0.8316

> <Gold.PLP.Chemscore.Hbond>
1.0000

> <Gold.PLP.Chemscore.CHOScore>
1.0000

> <Gold.PLP.Chemscore.Metal>
0.0000

> <Gold.Chemscore.Hbonds>
donor molecule, donor type, donor heavy atom, donor atom, acceptor molecule, acceptor atom, score
      L1  H     9    32       P1  8028  1.00
      L1  C    12    35       P1  8028  1.00

> <Gold.PLP.Chemscore.Internal.Correction>
0.3775

> <Gold.Rescore>
     Score         DG    S(hbond)    S(metal)    S(lipo)     H(rot)  DE(clash)    DE(int)     intcor
     15.81     -18.51       0.94        0.00     127.71       1.97       1.33       1.37       ----

> <Gold.Chemscore.Fitness>
15.8063

> <Gold.Chemscore.DG>
-18.5082

> <Gold.Chemscore.ZeroCoef>
-5.4800

> <Gold.Chemscore.Hbond>
0.9356

> <Gold.Chemscore.Metal>
0.0000

> <Gold.Chemscore.Lipo>
127.7130

> <Gold.Chemscore.Internal_Hbond>
0.0000

> <Gold.Chemscore.DEClash>
1.3308

> <Gold.Chemscore.DEInternal>
1.3711

> <Gold.Chemscore.Rot>
1.9684

> <Gold.Chemscore.Internal.Correction>
   9.000000E+99

> <Gold.Chemscore.Hbonds>
donor molecule, donor type, donor heavy atom, donor atom, acceptor molecule, acceptor atom, score
      L1  H     9    32       P1  8028  0.84

> <Gold.Chemscore.Hbond.Weighted>
-3.1249

> <Gold.Chemscore.Metal.Weighted>
-0.0000

> <Gold.Chemscore.Lipo.Weighted>
-14.9424

> <Gold.Chemscore.Internal_Hbond.Weighted>
0.0000

> <Gold.Chemscore.DEClash.Weighted>
1.3308

> <Gold.Chemscore.DEInternal.Weighted>
1.3711

> <Gold.Chemscore.Rot.Weighted>
5.0391

> <Gold.Chemscore.Internal.Correction.Weighted>
   9.000000E+99

> <Gold.Protein.RotatedTorsions>
[ 6907 6896 6895 6894 ] final   33.98 input  -60.11 | X-H torsion
[ 7974 7965 7964 7962 ] final -105.65 input  175.53 | X-H torsion
[ 8008 7997 7996 7995 ] final -105.11 input   59.86 | X-H torsion
[ 10167 10162 10161 10158 ] final   69.93 input  -65.29 | X-H torsion
[ 10718 10713 10712 10709 ] final   63.74 input   66.30 | X-H torsion
[ 10763 10752 10751 10750 ] final   57.51 input  -60.55 | X-H torsion
[ 11005 11000 10999 10996 ] final  -24.80 input  -57.11 | X-H torsion

> <Gold.Protein.ActiveResidues>
 VAL166  LYS551  ARG553  GLY616  TRP617  ASP618  TYR619  PRO620  LYS621  CYS622 
 ASP623  PHE694  ASN695  SER759  ASP760  ASP761  ALA762  ILE779  LEU786  VAL792 
 PHE793  MET794  SER795  GLU796  ALA797  LYS798  CYS799  TRP800  GLU811  SER814 

> <Gold.Protein.RotatedAtoms>
  152.0960  134.9374  160.0570 H   0  0  0  0  0  0  0  0  0  0  0  0  # atno 6907 bound_to 6896
  152.0607  133.4056  159.4425 H   0  0  0  0  0  0  0  0  0  0  0  0  # atno 6908 bound_to 6896
  150.6838  134.3123  159.4795 H   0  0  0  0  0  0  0  0  0  0  0  0  # atno 6909 bound_to 6896
  145.2277  140.9159  143.3222 H   0  0  0  0  0  0  0  0  0  0  0  0  # atno 7974 bound_to 7965
  154.8950  140.0414  157.1860 H   0  0  0  0  0  0  0  0  0  0  0  0  # atno 8008 bound_to 7997
  154.8502  140.2928  155.5582 H   0  0  0  0  0  0  0  0  0  0  0  0  # atno 8009 bound_to 7997
  156.2995  140.2466  156.3459 H   0  0  0  0  0  0  0  0  0  0  0  0  # atno 8010 bound_to 7997
  140.0625  144.5221  150.7284 H   0  0  0  0  0  0  0  0  0  0  0  0  # atno 10167 bound_to 10162
  157.5992  130.9122  149.9755 H   0  0  0  0  0  0  0  0  0  0  0  0  # atno 10718 bound_to 10713
  152.9851  135.5639  154.5402 H   0  0  0  0  0  0  0  0  0  0  0  0  # atno 10763 bound_to 10752
  154.4858  135.2790  155.1537 H   0  0  0  0  0  0  0  0  0  0  0  0  # atno 10764 bound_to 10752
  154.3027  135.6304  153.5485 H   0  0  0  0  0  0  0  0  0  0  0  0  # atno 10765 bound_to 10752
  140.8879  133.7609  156.0383 H   0  0  0  0  0  0  0  0  0  0  0  0  # atno 11005 bound_to 11000
  144.9705  139.3885  143.6311 LP  0  0  0  0  0  0  0  0  0  0  0  0  # atno 17320 bound_to 7965
  146.3360  139.8801  142.8826 LP  0  0  0  0  0  0  0  0  0  0  0  0  # atno 17321 bound_to 7965
  140.7165  143.2549  151.4417 LP  0  0  0  0  0  0  0  0  0  0  0  0  # atno 17342 bound_to 10162
  139.5885  144.1551  152.2059 LP  0  0  0  0  0  0  0  0  0  0  0  0  # atno 17343 bound_to 10162
  156.1061  130.3652  150.0131 LP  0  0  0  0  0  0  0  0  0  0  0  0  # atno 17370 bound_to 10713
  156.8238  130.9368  151.3640 LP  0  0  0  0  0  0  0  0  0  0  0  0  # atno 17371 bound_to 10713
  140.8383  134.3097  157.5323 LP  0  0  0  0  0  0  0  0  0  0  0  0  # atno 17394 bound_to 11000
  139.8726  134.9402  156.3762 LP  0  0  0  0  0  0  0  0  0  0  0  0  # atno 17395 bound_to 11000

$$$$
