AV-unprocessed.smi:2044|AV-procd|sdf|8300|dock3
  -GOLD-   2272010563D 1   1.00000     0.00000
 Structure written by MMmdl.
 40 41  0  0  0  0  0  0  0  0  2 V2000
  153.0291  142.2446  160.9721 C   0  0  0  0  0  0  0  0  0  0  0  0
  152.3407  142.6748  159.7225 C   0  0  0  0  0  0  0  0  0  0  0  0
  151.5200  142.0267  158.8433 C   0  0  0  0  0  0  0  0  0  0  0  0
  151.2307  143.0328  157.8761 C   0  0  0  0  0  0  0  0  0  0  0  0
  150.4170  142.8819  156.7237 N   0  0  0  0  0  0  0  0  0  0  0  0
  150.0580  141.7484  156.0984 C   0  0  0  0  0  0  0  0  0  0  0  0
  150.3748  140.6110  156.4460 O   0  0  0  0  0  0  0  0  0  0  0  0
  149.2844  142.0054  155.0326 N   0  0  0  0  0  0  0  0  0  0  0  0
  148.7310  141.0016  154.1257 C   0  0  0  0  0  0  0  0  0  0  0  0
  147.3817  141.4297  153.4891 C   0  0  2  0  0  0  0  0  0  0  0  0
  146.6284  142.4235  154.4079 C   0  0  0  0  0  0  0  0  0  0  0  0
  146.5720  140.2160  153.1379 N   0  3  0  0  0  0  0  0  0  0  0  0
  147.1764  139.3069  152.1244 C   0  0  0  0  0  0  0  0  0  0  0  0
  146.2449  138.1221  151.8147 C   0  0  0  0  0  0  0  0  0  0  0  0
  145.9403  137.4195  153.0100 O   0  0  0  0  0  0  0  0  0  0  0  0
  145.2634  138.2495  153.9418 C   0  0  0  0  0  0  0  0  0  0  0  0
  146.1724  139.4252  154.3342 C   0  0  0  0  0  0  0  0  0  0  0  0
  151.8208  144.1827  158.1458 N   0  0  0  0  0  0  0  0  0  0  0  0
  152.5340  143.9628  159.3301 O   0  0  0  0  0  0  0  0  0  0  0  0
  152.8740  141.1811  161.1554 H   0  0  0  0  0  0  0  0  0  0  0  0
  152.6480  142.7954  161.8319 H   0  0  0  0  0  0  0  0  0  0  0  0
  154.1023  142.4223  160.9036 H   0  0  0  0  0  0  0  0  0  0  0  0
  151.1941  140.9989  158.8980 H   0  0  0  0  0  0  0  0  0  0  0  0
  150.0659  143.7429  156.3311 H   0  0  0  0  0  0  0  0  0  0  0  0
  149.0739  142.9707  154.8237 H   0  0  0  0  0  0  0  0  0  0  0  0
  149.4923  140.8450  153.3641 H   0  0  0  0  0  0  0  0  0  0  0  0
  148.6153  140.0409  154.6307 H   0  0  0  0  0  0  0  0  0  0  0  0
  147.5931  141.9653  152.5621 H   0  0  0  0  0  0  0  0  0  0  0  0
  147.2364  143.2952  154.6467 H   0  0  0  0  0  0  0  0  0  0  0  0
  146.3414  141.9565  155.3507 H   0  0  0  0  0  0  0  0  0  0  0  0
  145.7316  142.8236  153.9350 H   0  0  0  0  0  0  0  0  0  0  0  0
  147.3532  139.8314  151.1859 H   0  0  0  0  0  0  0  0  0  0  0  0
  148.1395  138.9426  152.4856 H   0  0  0  0  0  0  0  0  0  0  0  0
  145.3260  138.4644  151.3355 H   0  0  0  0  0  0  0  0  0  0  0  0
  146.7296  137.4380  151.1178 H   0  0  0  0  0  0  0  0  0  0  0  0
  144.3215  138.6054  153.5207 H   0  0  0  0  0  0  0  0  0  0  0  0
  145.0147  137.6585  154.8234 H   0  0  0  0  0  0  0  0  0  0  0  0
  147.0646  139.0474  154.8364 H   0  0  0  0  0  0  0  0  0  0  0  0
  145.6408  140.0409  155.0569 H   0  0  0  0  0  0  0  0  0  0  0  0
  145.7205  140.5615  152.7180 H   0  0  0  0  0  0  0  0  0  0  0  0
  1  2  1  0  0  0  0
  1 20  1  0  0  0  0
  1 21  1  0  0  0  0
  1 22  1  0  0  0  0
  2 19  1  0  0  0  0
  2  3  2  0  0  0  0
  3  4  1  0  0  0  0
  3 23  1  0  0  0  0
  4  5  1  0  0  0  0
  4 18  2  0  0  0  0
  5  6  1  0  0  0  0
  5 24  1  0  0  0  0
  6  7  2  0  0  0  0
  6  8  1  0  0  0  0
  8  9  1  0  0  0  0
  8 25  1  0  0  0  0
  9 10  1  0  0  0  0
  9 26  1  0  0  0  0
  9 27  1  0  0  0  0
 10 11  1  0  0  0  0
 10 12  1  0  0  0  0
 10 28  1  0  0  0  0
 11 29  1  0  0  0  0
 11 30  1  0  0  0  0
 11 31  1  0  0  0  0
 12 17  1  0  0  0  0
 12 13  1  0  0  0  0
 12 40  1  0  0  0  0
 13 14  1  0  0  0  0
 13 32  1  0  0  0  0
 13 33  1  0  0  0  0
 14 15  1  0  0  0  0
 14 34  1  0  0  0  0
 14 35  1  0  0  0  0
 15 16  1  0  0  0  0
 16 17  1  0  0  0  0
 16 36  1  0  0  0  0
 16 37  1  0  0  0  0
 17 38  1  0  0  0  0
 17 39  1  0  0  0  0
 18 19  1  0  0  0  0
M  CHG  1  12   1
M  END
> <s_m_source_file>
AV-unprocessed.smi

> <i_m_source_file_index>
2044

> <i_lp_mmshare_version>
43012

> <i_f3d_flags>
0

> <s_epik_input>
W0NIM11jMVtjSF1jKG5vMSlbTkhdQyg9TylbTkhdW0NIMl1bQ0BIXShbQ0gzXSlOMltDSDJdW0NIMl1PW0NIMl1bQ0gyXTI=

> <s_epik_cmdline>
J2VwaWtfcHl0aG9uJywgJy1waCcsICc3LjAnLCAnLXRuJywgJzgnLCAnLW1hJywgJzIwMCcsICctbWV0YWxfYmluZGluZycsICctaW1hZScsICc8aW5maWxlLm1hZT4nLCAnLW9tYWUnLCAnPG91dGZpbGUubWFlPic=

> <r_epik_Ionization_Penalty>
0.707076

> <r_epik_Ionization_Penalty_Charging>
0.707039

> <r_epik_Ionization_Penalty_Neutral>
3.67886e-05

> <r_epik_State_Penalty>
0.730276

> <r_epik_Charging_Adjusted_Penalty>
1.43732

> <i_epik_Tot_Q>
1

> <i_epik_Tot_abs_Q>
1

> <r_epik_Metal_State_Penalty>
0.743216

> <b_epik_Metal_Only>
0

> <s_lp_Force_Field>
OPLS_2005

> <r_lp_Energy>
20.903

> <b_lp_Chiralities_Consistent>
1

> <s_lp_Variant>
AV-unprocessed.smi:2044-3

> <Gold.Version>
5.8.1

> <Gold.Id.Protein>
6NUR|6NUR_protein|mol2

> <Gold.PLP.Fitness>
47.1529

> <Gold.PLP.PLP>
-36.6494

> <Gold.PLP.part.hbond>
-3.0000

> <Gold.PLP.part.metal>
0.0000

> <Gold.PLP.part.buried>
-3.4924

> <Gold.PLP.part.nonpolar>
-30.6669

> <Gold.PLP.part.repulsive>
0.5760

> <Gold.PLP.ligand.clash>
0.0000

> <Gold.PLP.ligand.torsion>
0.6686

> <Gold.PLP.Chemscore.Hbond>
3.9280

> <Gold.PLP.Chemscore.CHOScore>
0.0000

> <Gold.PLP.Chemscore.Metal>
0.0000

> <Gold.Chemscore.Hbonds>
donor molecule, donor type, donor heavy atom, donor atom, acceptor molecule, acceptor atom, score
      L1  H     5    24       P1  8028  1.00
      L1  H     8    25       P1  8028  0.86
      L1  H    12    40       P1 10175  1.92

> <Gold.PLP.Chemscore.Internal.Correction>
0.0566

> <Gold.Rescore>
     Score         DG    S(hbond)    S(metal)    S(lipo)     H(rot)  DE(clash)    DE(int)     intcor
     18.47     -19.25       2.91        0.00      70.14       1.62       0.05       0.73       ----

> <Gold.Chemscore.Fitness>
18.4701

> <Gold.Chemscore.DG>
-19.2468

> <Gold.Chemscore.ZeroCoef>
-5.4800

> <Gold.Chemscore.Hbond>
2.9074

> <Gold.Chemscore.Metal>
0.0000

> <Gold.Chemscore.Lipo>
70.1440

> <Gold.Chemscore.Internal_Hbond>
0.0000

> <Gold.Chemscore.DEClash>
0.0460

> <Gold.Chemscore.DEInternal>
0.7308

> <Gold.Chemscore.Rot>
1.6213

> <Gold.Chemscore.Internal.Correction>
   9.000000E+99

> <Gold.Chemscore.Hbonds>
donor molecule, donor type, donor heavy atom, donor atom, acceptor molecule, acceptor atom, score
      L1  H     5    24       P1  8028  0.98
      L1  H     8    25       P1  8028  0.84
      L1  H    12    40       P1 10175  0.53

> <Gold.Chemscore.Hbond.Weighted>
-9.7106

> <Gold.Chemscore.Metal.Weighted>
-0.0000

> <Gold.Chemscore.Lipo.Weighted>
-8.2068

> <Gold.Chemscore.Internal_Hbond.Weighted>
0.0000

> <Gold.Chemscore.DEClash.Weighted>
0.0460

> <Gold.Chemscore.DEInternal.Weighted>
0.7308

> <Gold.Chemscore.Rot.Weighted>
4.1506

> <Gold.Chemscore.Internal.Correction.Weighted>
   9.000000E+99

> <Gold.Protein.RotatedTorsions>
[ 6907 6896 6895 6894 ] final -106.94 input  -60.11 | X-H torsion
[ 7974 7965 7964 7962 ] final  146.63 input  175.53 | X-H torsion
[ 8008 7997 7996 7995 ] final    2.56 input   59.86 | X-H torsion
[ 10167 10162 10161 10158 ] final -153.88 input  -65.29 | X-H torsion
[ 10718 10713 10712 10709 ] final  -74.01 input   66.30 | X-H torsion
[ 10763 10752 10751 10750 ] final -124.21 input  -60.55 | X-H torsion
[ 11005 11000 10999 10996 ] final   72.39 input  -57.11 | X-H torsion

> <Gold.Protein.ActiveResidues>
 VAL166  LYS551  ARG553  GLY616  TRP617  ASP618  TYR619  PRO620  LYS621  CYS622 
 ASP623  PHE694  ASN695  SER759  ASP760  ASP761  ALA762  ILE779  LEU786  VAL792 
 PHE793  MET794  SER795  GLU796  ALA797  LYS798  CYS799  TRP800  GLU811  SER814 

> <Gold.Protein.RotatedAtoms>
  150.7417  133.9900  159.3603 H   0  0  0  0  0  0  0  0  0  0  0  0  # atno 6907 bound_to 6896
  151.7848  135.0750  160.0388 H   0  0  0  0  0  0  0  0  0  0  0  0  # atno 6908 bound_to 6896
  152.3249  133.5857  159.5806 H   0  0  0  0  0  0  0  0  0  0  0  0  # atno 6909 bound_to 6896
  144.8656  139.5928  143.5910 H   0  0  0  0  0  0  0  0  0  0  0  0  # atno 7974 bound_to 7965
  154.6931  140.2657  155.6793 H   0  0  0  0  0  0  0  0  0  0  0  0  # atno 8008 bound_to 7997
  156.2739  140.2787  156.1439 H   0  0  0  0  0  0  0  0  0  0  0  0  # atno 8009 bound_to 7997
  155.0869  140.0373  157.2647 H   0  0  0  0  0  0  0  0  0  0  0  0  # atno 8010 bound_to 7997
  139.7059  143.9186  152.2448 H   0  0  0  0  0  0  0  0  0  0  0  0  # atno 10167 bound_to 10162
  156.0258  130.4407  150.2828 H   0  0  0  0  0  0  0  0  0  0  0  0  # atno 10718 bound_to 10713
  154.8720  135.4071  154.3069 H   0  0  0  0  0  0  0  0  0  0  0  0  # atno 10763 bound_to 10752
  153.3919  135.7015  153.6494 H   0  0  0  0  0  0  0  0  0  0  0  0  # atno 10764 bound_to 10752
  153.5273  135.3675  155.2631 H   0  0  0  0  0  0  0  0  0  0  0  0  # atno 10765 bound_to 10752
  139.9493  134.7255  156.0900 H   0  0  0  0  0  0  0  0  0  0  0  0  # atno 11005 bound_to 11000
  146.2893  139.7093  142.9172 LP  0  0  0  0  0  0  0  0  0  0  0  0  # atno 17320 bound_to 7965
  145.4228  141.0408  143.2954 LP  0  0  0  0  0  0  0  0  0  0  0  0  # atno 17321 bound_to 7965
  139.9042  144.6894  150.8632 LP  0  0  0  0  0  0  0  0  0  0  0  0  # atno 17342 bound_to 10162
  140.7721  143.3491  151.2051 LP  0  0  0  0  0  0  0  0  0  0  0  0  # atno 17343 bound_to 10162
  157.0931  131.0175  151.3114 LP  0  0  0  0  0  0  0  0  0  0  0  0  # atno 17370 bound_to 10713
  157.4838  130.7781  149.7440 LP  0  0  0  0  0  0  0  0  0  0  0  0  # atno 17371 bound_to 10713
  141.1152  133.6630  156.3077 LP  0  0  0  0  0  0  0  0  0  0  0  0  # atno 17394 bound_to 11000
  140.5757  134.5796  157.5468 LP  0  0  0  0  0  0  0  0  0  0  0  0  # atno 17395 bound_to 11000

$$$$
