AV-unprocessed.smi:3134|AV-procd|sdf|11941|dock9
  -GOLD-   2272017333D 1   1.00000     0.00000
 Structure written by MMmdl.
 37 37  0  0  0  0  0  0  0  0  2 V2000
  152.9689  138.5625  154.7271 C   0  0  0  0  0  0  0  0  0  0  0  0
  151.9835  138.2345  155.8598 C   0  0  0  0  0  0  0  0  0  0  0  0
  151.1101  137.0203  155.5168 C   0  0  0  0  0  0  0  0  0  0  0  0
  151.1279  139.3838  156.1410 N   0  0  0  0  0  0  0  0  0  0  0  0
  150.3703  140.0289  155.2397 C   0  0  0  0  0  0  0  0  0  0  0  0
  150.3084  139.7071  154.0525 O   0  0  0  0  0  0  0  0  0  0  0  0
  149.5441  141.2114  155.7652 C   0  0  2  0  0  0  0  0  0  0  0  0
  148.6169  141.7364  154.6584 C   0  0  0  0  0  0  0  0  0  0  0  0
  150.4053  142.3105  156.2594 N   0  3  0  0  0  0  0  0  0  0  0  0
  150.8645  142.1669  157.6572 C   0  0  0  0  0  0  0  0  0  0  0  0
  151.7473  143.3529  158.0702 C   0  0  0  0  0  0  0  0  0  0  0  0
  152.1952  143.2354  159.4443 N   0  0  0  0  0  0  0  0  0  0  0  0
  152.9756  142.2503  160.0123 C   0  0  0  0  0  0  0  0  0  0  0  0
  153.1350  142.5687  161.3305 C   0  0  0  0  0  0  0  0  0  0  0  0
  152.4082  143.7834  161.4755 C   0  0  0  0  0  0  0  0  0  0  0  0
  151.8479  144.1806  160.3441 N   0  0  0  0  0  0  0  0  0  0  0  0
  153.6177  137.7121  154.5155 H   0  0  0  0  0  0  0  0  0  0  0  0
  153.6102  139.4044  154.9899 H   0  0  0  0  0  0  0  0  0  0  0  0
  152.4449  138.8179  153.8055 H   0  0  0  0  0  0  0  0  0  0  0  0
  152.5553  137.9884  156.7565 H   0  0  0  0  0  0  0  0  0  0  0  0
  151.7227  136.1375  155.3316 H   0  0  0  0  0  0  0  0  0  0  0  0
  150.5091  137.2007  154.6249 H   0  0  0  0  0  0  0  0  0  0  0  0
  150.4296  136.7808  156.3346 H   0  0  0  0  0  0  0  0  0  0  0  0
  151.1115  139.7115  157.0962 H   0  0  0  0  0  0  0  0  0  0  0  0
  148.9211  140.8685  156.5933 H   0  0  0  0  0  0  0  0  0  0  0  0
  147.9527  140.9528  154.2911 H   0  0  0  0  0  0  0  0  0  0  0  0
  149.1834  142.1175  153.8075 H   0  0  0  0  0  0  0  0  0  0  0  0
  147.9884  142.5475  155.0273 H   0  0  0  0  0  0  0  0  0  0  0  0
  151.2100  142.3826  155.6527 H   0  0  0  0  0  0  0  0  0  0  0  0
  149.9946  142.1012  158.3123 H   0  0  0  0  0  0  0  0  0  0  0  0
  151.4231  141.2369  157.7697 H   0  0  0  0  0  0  0  0  0  0  0  0
  152.6239  143.4170  157.4240 H   0  0  0  0  0  0  0  0  0  0  0  0
  151.2036  144.2928  157.9625 H   0  0  0  0  0  0  0  0  0  0  0  0
  153.3482  141.4139  159.4392 H   0  0  0  0  0  0  0  0  0  0  0  0
  153.6877  142.0186  162.0776 H   0  0  0  0  0  0  0  0  0  0  0  0
  152.2724  144.3843  162.3627 H   0  0  0  0  0  0  0  0  0  0  0  0
  149.8777  143.1694  156.1995 H   0  0  0  0  0  0  0  0  0  0  0  0
  1  2  1  0  0  0  0
  1 17  1  0  0  0  0
  1 18  1  0  0  0  0
  1 19  1  0  0  0  0
  2  3  1  0  0  0  0
  2  4  1  0  0  0  0
  2 20  1  0  0  0  0
  3 21  1  0  0  0  0
  3 22  1  0  0  0  0
  3 23  1  0  0  0  0
  4  5  1  0  0  0  0
  4 24  1  0  0  0  0
  5  6  2  0  0  0  0
  5  7  1  0  0  0  0
  7  8  1  0  0  0  0
  7  9  1  0  0  0  0
  7 25  1  0  0  0  0
  8 26  1  0  0  0  0
  8 27  1  0  0  0  0
  8 28  1  0  0  0  0
  9 10  1  0  0  0  0
  9 29  1  0  0  0  0
  9 37  1  0  0  0  0
 10 11  1  0  0  0  0
 10 30  1  0  0  0  0
 10 31  1  0  0  0  0
 11 12  1  0  0  0  0
 11 32  1  0  0  0  0
 11 33  1  0  0  0  0
 12 16  1  0  0  0  0
 12 13  1  0  0  0  0
 13 14  2  0  0  0  0
 13 34  1  0  0  0  0
 14 15  1  0  0  0  0
 14 35  1  0  0  0  0
 15 16  2  0  0  0  0
 15 36  1  0  0  0  0
M  CHG  1   9   1
M  END
> <s_m_source_file>
AV-unprocessed.smi

> <i_m_source_file_index>
3134

> <i_lp_mmshare_version>
43012

> <i_f3d_flags>
0

> <s_epik_input>
W0NIM11bQ0hdKFtDSDNdKVtOSF1DKD1PKVtDQEhdKFtDSDNdKVtOSF1bQ0gyXVtDSDJdbjFbY0hdW2NIXVtjSF1uMQ==

> <s_epik_cmdline>
J2VwaWtfcHl0aG9uJywgJy1waCcsICc3LjAnLCAnLXRuJywgJzgnLCAnLW1hJywgJzIwMCcsICctbWV0YWxfYmluZGluZycsICctaW1hZScsICc8aW5maWxlLm1hZT4nLCAnLW9tYWUnLCAnPG91dGZpbGUubWFlPic=

> <r_lp_tautomer_probability>
1

> <r_epik_Ionization_Penalty>
0.20398

> <r_epik_Ionization_Penalty_Charging>
0.203977

> <r_epik_Ionization_Penalty_Neutral>
3.23345e-06

> <r_epik_State_Penalty>
0.193898

> <r_epik_Charging_Adjusted_Penalty>
0.397875

> <i_epik_Tot_Q>
1

> <i_epik_Tot_abs_Q>
1

> <r_epik_Metal_State_Penalty>
0.194184

> <b_epik_Metal_Only>
0

> <s_lp_Force_Field>
OPLS_2005

> <r_lp_Energy>
4.26542

> <b_lp_Chiralities_Consistent>
1

> <s_lp_Variant>
AV-unprocessed.smi:3134-1

> <Gold.Version>
5.8.1

> <Gold.Id.Protein>
6NUR|6NUR_protein|mol2

> <Gold.PLP.Fitness>
46.5218

> <Gold.PLP.PLP>
-38.2457

> <Gold.PLP.part.hbond>
-2.0000

> <Gold.PLP.part.metal>
0.0000

> <Gold.PLP.part.buried>
-4.4574

> <Gold.PLP.part.nonpolar>
-32.6957

> <Gold.PLP.part.repulsive>
0.9600

> <Gold.PLP.ligand.clash>
0.0000

> <Gold.PLP.ligand.torsion>
0.3987

> <Gold.PLP.Chemscore.Hbond>
3.0000

> <Gold.PLP.Chemscore.CHOScore>
0.0000

> <Gold.PLP.Chemscore.Metal>
0.0000

> <Gold.Chemscore.Hbonds>
donor molecule, donor type, donor heavy atom, donor atom, acceptor molecule, acceptor atom, score
      L1  H     9    37       P1  8028  2.00
      P1  H  7989  7998       L1     6  0.80

> <Gold.PLP.Chemscore.Internal.Correction>
0.0734

> <Gold.Rescore>
     Score         DG    S(hbond)    S(metal)    S(lipo)     H(rot)  DE(clash)    DE(int)     intcor
     14.40     -16.56       1.94        0.00      86.01       2.13       0.02       2.14       ----

> <Gold.Chemscore.Fitness>
14.3993

> <Gold.Chemscore.DG>
-16.5649

> <Gold.Chemscore.ZeroCoef>
-5.4800

> <Gold.Chemscore.Hbond>
1.9410

> <Gold.Chemscore.Metal>
0.0000

> <Gold.Chemscore.Lipo>
86.0139

> <Gold.Chemscore.Internal_Hbond>
0.0000

> <Gold.Chemscore.DEClash>
0.0215

> <Gold.Chemscore.DEInternal>
2.1441

> <Gold.Chemscore.Rot>
2.1334

> <Gold.Chemscore.Internal.Correction>
   9.000000E+99

> <Gold.Chemscore.Hbonds>
donor molecule, donor type, donor heavy atom, donor atom, acceptor molecule, acceptor atom, score
      L1  H     9    37       P1  8028  1.00
      P1  H  7989  7998       L1     6  0.12

> <Gold.Chemscore.Hbond.Weighted>
-6.4828

> <Gold.Chemscore.Metal.Weighted>
-0.0000

> <Gold.Chemscore.Lipo.Weighted>
-10.0636

> <Gold.Chemscore.Internal_Hbond.Weighted>
0.0000

> <Gold.Chemscore.DEClash.Weighted>
0.0215

> <Gold.Chemscore.DEInternal.Weighted>
2.1441

> <Gold.Chemscore.Rot.Weighted>
5.4615

> <Gold.Chemscore.Internal.Correction.Weighted>
   9.000000E+99

> <Gold.Protein.RotatedTorsions>
[ 6907 6896 6895 6894 ] final   13.84 input  -60.11 | X-H torsion
[ 7974 7965 7964 7962 ] final  -77.40 input  175.53 | X-H torsion
[ 8008 7997 7996 7995 ] final  -50.80 input   59.86 | X-H torsion
[ 10167 10162 10161 10158 ] final   61.69 input  -65.29 | X-H torsion
[ 10718 10713 10712 10709 ] final -141.31 input   66.30 | X-H torsion
[ 10763 10752 10751 10750 ] final   36.97 input  -60.55 | X-H torsion
[ 11005 11000 10999 10996 ] final   36.89 input  -57.11 | X-H torsion

> <Gold.Protein.ActiveResidues>
 VAL166  LYS551  ARG553  GLY616  TRP617  ASP618  TYR619  PRO620  LYS621  CYS622 
 ASP623  PHE694  ASN695  SER759  ASP760  ASP761  ALA762  ILE779  LEU786  VAL792 
 PHE793  MET794  SER795  GLU796  ALA797  LYS798  CYS799  TRP800  GLU811  SER814 

> <Gold.Protein.RotatedAtoms>
  151.7926  135.0731  160.0389 H   0  0  0  0  0  0  0  0  0  0  0  0  # atno 6907 bound_to 6896
  152.3145  133.5783  159.5711 H   0  0  0  0  0  0  0  0  0  0  0  0  # atno 6908 bound_to 6896
  150.7337  134.0019  159.3683 H   0  0  0  0  0  0  0  0  0  0  0  0  # atno 6909 bound_to 6896
  145.6001  140.9410  143.1245 H   0  0  0  0  0  0  0  0  0  0  0  0  # atno 7974 bound_to 7965
  154.4069  140.1263  156.4726 H   0  0  0  0  0  0  0  0  0  0  0  0  # atno 8008 bound_to 7997
  155.7164  140.3493  155.4977 H   0  0  0  0  0  0  0  0  0  0  0  0  # atno 8009 bound_to 7997
  155.9254  140.1060  157.1165 H   0  0  0  0  0  0  0  0  0  0  0  0  # atno 8010 bound_to 7997
  140.1520  144.4453  150.6754 H   0  0  0  0  0  0  0  0  0  0  0  0  # atno 10167 bound_to 10162
  156.3326  130.7594  151.1715 H   0  0  0  0  0  0  0  0  0  0  0  0  # atno 10718 bound_to 10713
  153.0055  135.6291  154.2071 H   0  0  0  0  0  0  0  0  0  0  0  0  # atno 10763 bound_to 10752
  154.1814  135.2813  155.3052 H   0  0  0  0  0  0  0  0  0  0  0  0  # atno 10764 bound_to 10752
  154.5831  135.5641  153.7265 H   0  0  0  0  0  0  0  0  0  0  0  0  # atno 10765 bound_to 10752
  140.2280  134.3561  155.7976 H   0  0  0  0  0  0  0  0  0  0  0  0  # atno 11005 bound_to 11000
  144.7313  139.7716  143.7346 LP  0  0  0  0  0  0  0  0  0  0  0  0  # atno 17320 bound_to 7965
  146.1582  139.4688  143.0005 LP  0  0  0  0  0  0  0  0  0  0  0  0  # atno 17321 bound_to 7965
  140.6696  143.2281  151.5657 LP  0  0  0  0  0  0  0  0  0  0  0  0  # atno 17342 bound_to 10162
  139.5421  144.2619  152.1372 LP  0  0  0  0  0  0  0  0  0  0  0  0  # atno 17343 bound_to 10162
  157.7433  131.0477  150.4958 LP  0  0  0  0  0  0  0  0  0  0  0  0  # atno 17370 bound_to 10713
  156.5126  130.4143  149.6293 LP  0  0  0  0  0  0  0  0  0  0  0  0  # atno 17371 bound_to 10713
  141.2219  133.7230  156.8685 LP  0  0  0  0  0  0  0  0  0  0  0  0  # atno 17394 bound_to 11000
  140.1780  134.9053  157.2914 LP  0  0  0  0  0  0  0  0  0  0  0  0  # atno 17395 bound_to 11000

$$$$
