AV-unprocessed.smi:1670|AV-procd|sdf|6693|dock1
  -GOLD-   22720 7423D 1   1.00000     0.00000
 Structure written by MMmdl.
 41 42  0  0  0  0  0  0  0  0  1 V2000
  147.1780  139.8877  153.1247 C   0  0  0  0  0  0  0  0  0  0  0  0
  146.8093  138.6806  153.9979 C   0  0  2  0  0  0  0  0  0  0  0  0
  147.6953  138.6083  155.2603 C   0  0  0  0  0  0  0  0  0  0  0  0
  149.0651  138.2269  154.9620 N   0  0  0  0  0  0  0  0  0  0  0  0
  149.9621  138.8495  154.1201 C   0  0  0  0  0  0  0  0  0  0  0  0
  151.1295  138.1433  154.1763 C   0  0  0  0  0  0  0  0  0  0  0  0
  150.8443  137.0911  155.0908 C   0  0  0  0  0  0  0  0  0  0  0  0
  149.6063  137.1400  155.5551 N   0  0  0  0  0  0  0  0  0  0  0  0
  146.9357  137.4603  153.2016 N   0  0  0  0  0  0  0  0  0  0  0  0
  145.9463  136.5932  152.9417 C   0  0  0  0  0  0  0  0  0  0  0  0
  144.7825  136.7453  153.3138 O   0  0  0  0  0  0  0  0  0  0  0  0
  146.3899  135.5328  152.2490 N   0  0  0  0  0  0  0  0  0  0  0  0
  145.6213  134.3562  151.8397 C   0  0  2  0  0  0  0  0  0  0  0  0
  146.3330  133.5302  150.7466 C   0  0  0  0  0  0  0  0  0  0  0  0
  145.5288  132.2653  150.4046 C   0  0  0  0  0  0  0  0  0  0  0  0
  144.0886  132.6190  149.9911 C   0  0  1  0  0  0  0  0  0  0  0  0
  143.3637  131.4317  149.7491 O   0  0  0  0  0  0  0  0  0  0  0  0
  143.3784  133.4394  151.0833 C   0  0  0  0  0  0  0  0  0  0  0  0
  144.1747  134.7082  151.4285 C   0  0  0  0  0  0  0  0  0  0  0  0
  147.0657  140.8201  153.6785 H   0  0  0  0  0  0  0  0  0  0  0  0
  146.5345  139.9485  152.2465 H   0  0  0  0  0  0  0  0  0  0  0  0
  148.2106  139.8286  152.7786 H   0  0  0  0  0  0  0  0  0  0  0  0
  145.7710  138.8136  154.3072 H   0  0  0  0  0  0  0  0  0  0  0  0
  147.6938  139.5644  155.7869 H   0  0  0  0  0  0  0  0  0  0  0  0
  147.2919  137.8714  155.9560 H   0  0  0  0  0  0  0  0  0  0  0  0
  149.6994  139.7371  153.5632 H   0  0  0  0  0  0  0  0  0  0  0  0
  152.0481  138.3497  153.6475 H   0  0  0  0  0  0  0  0  0  0  0  0
  151.4951  136.2975  155.4272 H   0  0  0  0  0  0  0  0  0  0  0  0
  147.8581  137.2417  152.8543 H   0  0  0  0  0  0  0  0  0  0  0  0
  147.3684  135.5246  152.0009 H   0  0  0  0  0  0  0  0  0  0  0  0
  145.5633  133.7328  152.7328 H   0  0  0  0  0  0  0  0  0  0  0  0
  146.4610  134.1229  149.8404 H   0  0  0  0  0  0  0  0  0  0  0  0
  147.3335  133.2512  151.0786 H   0  0  0  0  0  0  0  0  0  0  0  0
  146.0263  131.7184  149.6027 H   0  0  0  0  0  0  0  0  0  0  0  0
  145.5143  131.6018  151.2705 H   0  0  0  0  0  0  0  0  0  0  0  0
  144.1100  133.1937  149.0641 H   0  0  0  0  0  0  0  0  0  0  0  0
  142.4430  131.6149  149.8565 H   0  0  0  0  0  0  0  0  0  0  0  0
  142.3745  133.7118  150.7553 H   0  0  0  0  0  0  0  0  0  0  0  0
  143.2569  132.8335  151.9825 H   0  0  0  0  0  0  0  0  0  0  0  0
  143.6762  135.2477  152.2346 H   0  0  0  0  0  0  0  0  0  0  0  0
  144.1723  135.3735  150.5645 H   0  0  0  0  0  0  0  0  0  0  0  0
  1  2  1  0  0  0  0
  1 20  1  0  0  0  0
  1 21  1  0  0  0  0
  1 22  1  0  0  0  0
  2  3  1  0  0  0  0
  2  9  1  0  0  0  0
  2 23  1  0  0  0  0
  3  4  1  0  0  0  0
  3 24  1  0  0  0  0
  3 25  1  0  0  0  0
  4  8  1  0  0  0  0
  4  5  1  0  0  0  0
  5  6  2  0  0  0  0
  5 26  1  0  0  0  0
  6  7  1  0  0  0  0
  6 27  1  0  0  0  0
  7  8  2  0  0  0  0
  7 28  1  0  0  0  0
  9 10  1  0  0  0  0
  9 29  1  0  0  0  0
 10 11  2  0  0  0  0
 10 12  1  0  0  0  0
 12 13  1  0  0  0  0
 12 30  1  0  0  0  0
 13 19  1  0  0  0  0
 13 14  1  0  0  0  0
 13 31  1  0  0  0  0
 14 15  1  0  0  0  0
 14 32  1  0  0  0  0
 14 33  1  0  0  0  0
 15 16  1  0  0  0  0
 15 34  1  0  0  0  0
 15 35  1  0  0  0  0
 16 17  1  0  0  0  0
 16 18  1  0  0  0  0
 16 36  1  0  0  0  0
 17 37  1  0  0  0  0
 18 19  1  0  0  0  0
 18 38  1  0  0  0  0
 18 39  1  0  0  0  0
 19 40  1  0  0  0  0
 19 41  1  0  0  0  0
M  END
> <s_m_source_file>
AV-unprocessed.smi

> <i_m_source_file_index>
1670

> <i_lp_mmshare_version>
43012

> <i_f3d_flags>
0

> <s_epik_input>
bjFbY0hdW2NIXVtjSF1uMVtDSDJdW0NAQEhdKFtDSDNdKVtOSF1DKD1PKVtOSF1bQ0BASF0yW0NIMl1bQ0gyXVtDQEBIXShbT0hdKVtDSDJdW0NIMl0y

> <s_epik_cmdline>
J2VwaWtfcHl0aG9uJywgJy1waCcsICc3LjAnLCAnLXRuJywgJzgnLCAnLW1hJywgJzIwMCcsICctbWV0YWxfYmluZGluZycsICctaW1hZScsICc8aW5maWxlLm1hZT4nLCAnLW9tYWUnLCAnPG91dGZpbGUubWFlPic=

> <r_lp_tautomer_probability>
1

> <r_epik_Ionization_Penalty>
7.33369e-05

> <r_epik_Ionization_Penalty_Charging>
0

> <r_epik_Ionization_Penalty_Neutral>
7.33369e-05

> <r_epik_State_Penalty>
-0

> <r_epik_Charging_Adjusted_Penalty>
0

> <i_epik_Tot_Q>
0

> <i_epik_Tot_abs_Q>
0

> <r_epik_Metal_State_Penalty>
-0

> <b_epik_Metal_Only>
0

> <s_lp_Force_Field>
OPLS_2005

> <r_lp_Energy>
5.26958

> <b_lp_Chiralities_Consistent>
1

> <s_lp_Variant>
AV-unprocessed.smi:1670-1

> <Gold.Version>
5.8.1

> <Gold.Id.Protein>
6NUR|6NUR_protein|mol2

> <Gold.PLP.Fitness>
43.9040

> <Gold.PLP.PLP>
-31.1569

> <Gold.PLP.part.hbond>
-4.0000

> <Gold.PLP.part.metal>
0.0000

> <Gold.PLP.part.buried>
-2.8466

> <Gold.PLP.part.nonpolar>
-23.9528

> <Gold.PLP.part.repulsive>
0.2546

> <Gold.PLP.ligand.clash>
0.0000

> <Gold.PLP.ligand.torsion>
0.3294

> <Gold.PLP.Chemscore.Hbond>
3.5120

> <Gold.PLP.Chemscore.CHOScore>
0.9397

> <Gold.PLP.Chemscore.Metal>
0.0000

> <Gold.Chemscore.Hbonds>
donor molecule, donor type, donor heavy atom, donor atom, acceptor molecule, acceptor atom, score
      L1  H     9    29       P1  7948  1.00
      L1  H    12    30       P1  7948  1.00
      L1  H    17    37       P1 10952  0.52
      P1  H 10785 10796       L1    17  0.85
      L1  C     5    26       P1  7957  0.97

> <Gold.PLP.Chemscore.Internal.Correction>
0.0508

> <Gold.Rescore>
     Score         DG    S(hbond)    S(metal)    S(lipo)     H(rot)  DE(clash)    DE(int)     intcor
     16.50     -19.25       3.10        0.00      77.81       2.22       1.32       1.43       ----

> <Gold.Chemscore.Fitness>
16.4987

> <Gold.Chemscore.DG>
-19.2480

> <Gold.Chemscore.ZeroCoef>
-5.4800

> <Gold.Chemscore.Hbond>
3.0998

> <Gold.Chemscore.Metal>
0.0000

> <Gold.Chemscore.Lipo>
77.8106

> <Gold.Chemscore.Internal_Hbond>
0.0000

> <Gold.Chemscore.DEClash>
1.3165

> <Gold.Chemscore.DEInternal>
1.4327

> <Gold.Chemscore.Rot>
2.2224

> <Gold.Chemscore.Internal.Correction>
   9.000000E+99

> <Gold.Chemscore.Hbonds>
donor molecule, donor type, donor heavy atom, donor atom, acceptor molecule, acceptor atom, score
      L1  H     9    29       P1  7948  0.95
      L1  H    12    30       P1  7948  0.98
      L1  H    17    37       P1 10952  0.49
      P1  H 10785 10796       L1    17  0.14

> <Gold.Chemscore.Hbond.Weighted>
-10.3534

> <Gold.Chemscore.Metal.Weighted>
-0.0000

> <Gold.Chemscore.Lipo.Weighted>
-9.1038

> <Gold.Chemscore.Internal_Hbond.Weighted>
0.0000

> <Gold.Chemscore.DEClash.Weighted>
1.3165

> <Gold.Chemscore.DEInternal.Weighted>
1.4327

> <Gold.Chemscore.Rot.Weighted>
5.6893

> <Gold.Chemscore.Internal.Correction.Weighted>
   9.000000E+99

> <Gold.Protein.RotatedTorsions>
[ 6907 6896 6895 6894 ] final   79.68 input  -60.11 | X-H torsion
[ 7974 7965 7964 7962 ] final  167.34 input  175.53 | X-H torsion
[ 8008 7997 7996 7995 ] final -112.60 input   59.86 | X-H torsion
[ 10167 10162 10161 10158 ] final   23.96 input  -65.29 | X-H torsion
[ 10718 10713 10712 10709 ] final   33.61 input   66.30 | X-H torsion
[ 10763 10752 10751 10750 ] final -119.72 input  -60.55 | X-H torsion
[ 11005 11000 10999 10996 ] final  176.63 input  -57.11 | X-H torsion

> <Gold.Protein.ActiveResidues>
 VAL166  LYS551  ARG553  GLY616  TRP617  ASP618  TYR619  PRO620  LYS621  CYS622 
 ASP623  PHE694  ASN695  SER759  ASP760  ASP761  ALA762  ILE779  LEU786  VAL792 
 PHE793  MET794  SER795  GLU796  ALA797  LYS798  CYS799  TRP800  GLU811  SER814 

> <Gold.Protein.RotatedAtoms>
  152.5207  134.3474  159.9238 H   0  0  0  0  0  0  0  0  0  0  0  0  # atno 6907 bound_to 6896
  151.3424  133.3951  159.2680 H   0  0  0  0  0  0  0  0  0  0  0  0  # atno 6908 bound_to 6896
  150.9793  134.9169  159.7892 H   0  0  0  0  0  0  0  0  0  0  0  0  # atno 6909 bound_to 6896
  144.7428  139.8746  143.6391 H   0  0  0  0  0  0  0  0  0  0  0  0  # atno 7974 bound_to 7965
  155.0077  140.0394  157.2386 H   0  0  0  0  0  0  0  0  0  0  0  0  # atno 8008 bound_to 7997
  154.7487  140.2763  155.6288 H   0  0  0  0  0  0  0  0  0  0  0  0  # atno 8009 bound_to 7997
  156.2880  140.2651  156.2235 H   0  0  0  0  0  0  0  0  0  0  0  0  # atno 8010 bound_to 7997
  140.5227  143.9975  150.6425 H   0  0  0  0  0  0  0  0  0  0  0  0  # atno 10167 bound_to 10162
  157.3000  130.7346  149.6661 H   0  0  0  0  0  0  0  0  0  0  0  0  # atno 10718 bound_to 10713
  154.8625  135.4228  154.2344 H   0  0  0  0  0  0  0  0  0  0  0  0  # atno 10763 bound_to 10752
  153.3322  135.6989  153.6944 H   0  0  0  0  0  0  0  0  0  0  0  0  # atno 10764 bound_to 10752
  153.5956  135.3546  155.2900 H   0  0  0  0  0  0  0  0  0  0  0  0  # atno 10765 bound_to 10752
  140.3753  134.6994  157.4417 H   0  0  0  0  0  0  0  0  0  0  0  0  # atno 11005 bound_to 11000
  146.1255  139.4280  143.0201 LP  0  0  0  0  0  0  0  0  0  0  0  0  # atno 17320 bound_to 7965
  145.7241  141.0065  143.1387 LP  0  0  0  0  0  0  0  0  0  0  0  0  # atno 17321 bound_to 7965
  140.3328  143.3067  152.0669 LP  0  0  0  0  0  0  0  0  0  0  0  0  # atno 17342 bound_to 10162
  139.4928  144.6497  151.6702 LP  0  0  0  0  0  0  0  0  0  0  0  0  # atno 17343 bound_to 10162
  155.9671  130.4283  150.4781 LP  0  0  0  0  0  0  0  0  0  0  0  0  # atno 17370 bound_to 10713
  157.2760  131.0597  151.2229 LP  0  0  0  0  0  0  0  0  0  0  0  0  # atno 17371 bound_to 10713
  140.0520  134.6117  155.8850 LP  0  0  0  0  0  0  0  0  0  0  0  0  # atno 17394 bound_to 11000
  141.1941  133.6581  156.5581 LP  0  0  0  0  0  0  0  0  0  0  0  0  # atno 17395 bound_to 11000

$$$$
