AV-unprocessed.smi:3267|AV-procd|sdf|12504|dock9
  -GOLD-   2272018413D 1   1.00000     0.00000
 Structure written by MMmdl.
 38 39  0  0  0  0  0  0  0  0  1 V2000
  148.5367  131.7126  153.5208 C   0  0  0  0  0  0  0  0  0  0  0  0
  147.5913  132.8923  153.2533 C   0  0  2  0  0  0  0  0  0  0  0  0
  147.0391  132.8743  151.8071 C   0  0  0  0  0  0  0  0  0  0  0  0
  145.9142  133.7751  151.6412 N   0  0  0  0  0  0  0  0  0  0  0  0
  145.9129  135.1538  151.6337 C   0  0  0  0  0  0  0  0  0  0  0  0
  144.6210  135.5573  151.4529 C   0  0  0  0  0  0  0  0  0  0  0  0
  143.8956  134.3366  151.3609 C   0  0  0  0  0  0  0  0  0  0  0  0
  144.6723  133.2712  151.4757 N   0  0  0  0  0  0  0  0  0  0  0  0
  148.2985  134.1416  153.5240 N   0  0  0  0  0  0  0  0  0  0  0  0
  148.7660  134.5239  154.7208 C   0  0  0  0  0  0  0  0  0  0  0  0
  148.6636  133.8548  155.7492 O   0  0  0  0  0  0  0  0  0  0  0  0
  149.3549  135.7259  154.6625 N   0  0  0  0  0  0  0  0  0  0  0  0
  149.9738  136.4083  155.7930 C   0  0  0  0  0  0  0  0  0  0  0  0
  150.4851  137.8028  155.3966 C   0  0  2  0  0  0  0  0  0  0  0  0
  151.6875  137.7694  154.4556 C   0  0  0  0  0  0  0  0  0  0  0  0
  152.3289  139.1097  154.7320 C   0  0  0  0  0  0  0  0  0  0  0  0
  152.1253  139.2473  156.2378 C   0  0  0  0  0  0  0  0  0  0  0  0
  150.9399  138.5168  156.5443 O   0  0  0  0  0  0  0  0  0  0  0  0
  148.0257  130.7618  153.3658 H   0  0  0  0  0  0  0  0  0  0  0  0
  148.9010  131.7254  154.5488 H   0  0  0  0  0  0  0  0  0  0  0  0
  149.4030  131.7372  152.8587 H   0  0  0  0  0  0  0  0  0  0  0  0
  146.7671  132.8053  153.9646 H   0  0  0  0  0  0  0  0  0  0  0  0
  147.8064  133.1531  151.0830 H   0  0  0  0  0  0  0  0  0  0  0  0
  146.7180  131.8709  151.5229 H   0  0  0  0  0  0  0  0  0  0  0  0
  146.8208  135.7253  151.7590 H   0  0  0  0  0  0  0  0  0  0  0  0
  144.2504  136.5700  151.3961 H   0  0  0  0  0  0  0  0  0  0  0  0
  142.8352  134.1935  151.2154 H   0  0  0  0  0  0  0  0  0  0  0  0
  148.4389  134.7621  152.7401 H   0  0  0  0  0  0  0  0  0  0  0  0
  149.3921  136.1978  153.7708 H   0  0  0  0  0  0  0  0  0  0  0  0
  149.2370  136.4918  156.5925 H   0  0  0  0  0  0  0  0  0  0  0  0
  150.7923  135.8049  156.1895 H   0  0  0  0  0  0  0  0  0  0  0  0
  149.6890  138.3856  154.9302 H   0  0  0  0  0  0  0  0  0  0  0  0
  152.3716  136.9655  154.7307 H   0  0  0  0  0  0  0  0  0  0  0  0
  151.4055  137.6371  153.4108 H   0  0  0  0  0  0  0  0  0  0  0  0
  153.3776  139.1543  154.4369 H   0  0  0  0  0  0  0  0  0  0  0  0
  151.7897  139.8983  154.2055 H   0  0  0  0  0  0  0  0  0  0  0  0
  152.9580  138.7958  156.7779 H   0  0  0  0  0  0  0  0  0  0  0  0
  152.0440  140.2883  156.5510 H   0  0  0  0  0  0  0  0  0  0  0  0
  1  2  1  0  0  0  0
  1 19  1  0  0  0  0
  1 20  1  0  0  0  0
  1 21  1  0  0  0  0
  2  3  1  0  0  0  0
  2  9  1  0  0  0  0
  2 22  1  0  0  0  0
  3  4  1  0  0  0  0
  3 23  1  0  0  0  0
  3 24  1  0  0  0  0
  4  8  1  0  0  0  0
  4  5  1  0  0  0  0
  5  6  2  0  0  0  0
  5 25  1  0  0  0  0
  6  7  1  0  0  0  0
  6 26  1  0  0  0  0
  7  8  2  0  0  0  0
  7 27  1  0  0  0  0
  9 10  1  0  0  0  0
  9 28  1  0  0  0  0
 10 11  2  0  0  0  0
 10 12  1  0  0  0  0
 12 13  1  0  0  0  0
 12 29  1  0  0  0  0
 13 14  1  0  0  0  0
 13 30  1  0  0  0  0
 13 31  1  0  0  0  0
 14 18  1  0  0  0  0
 14 15  1  0  0  0  0
 14 32  1  0  0  0  0
 15 16  1  0  0  0  0
 15 33  1  0  0  0  0
 15 34  1  0  0  0  0
 16 17  1  0  0  0  0
 16 35  1  0  0  0  0
 16 36  1  0  0  0  0
 17 18  1  0  0  0  0
 17 37  1  0  0  0  0
 17 38  1  0  0  0  0
M  END
> <s_m_source_file>
AV-unprocessed.smi

> <i_m_source_file_index>
3267

> <i_lp_mmshare_version>
43012

> <i_f3d_flags>
0

> <s_epik_input>
bjFbY0hdW2NIXVtjSF1uMVtDSDJdW0NAQEhdKFtDSDNdKVtOSF1DKD1PKVtOSF1bQ0gyXVtDQEBIXTJbQ0gyXVtDSDJdW0NIMl1PMg==

> <s_epik_cmdline>
J2VwaWtfcHl0aG9uJywgJy1waCcsICc3LjAnLCAnLXRuJywgJzgnLCAnLW1hJywgJzIwMCcsICctbWV0YWxfYmluZGluZycsICctaW1hZScsICc8aW5maWxlLm1hZT4nLCAnLW9tYWUnLCAnPG91dGZpbGUubWFlPic=

> <r_lp_tautomer_probability>
1

> <r_epik_Ionization_Penalty>
6.24796e-05

> <r_epik_Ionization_Penalty_Charging>
0

> <r_epik_Ionization_Penalty_Neutral>
6.24796e-05

> <r_epik_State_Penalty>
-0

> <r_epik_Charging_Adjusted_Penalty>
0

> <i_epik_Tot_Q>
0

> <i_epik_Tot_abs_Q>
0

> <r_epik_Metal_State_Penalty>
-0

> <b_epik_Metal_Only>
0

> <s_lp_Force_Field>
OPLS_2005

> <r_lp_Energy>
17.87

> <b_lp_Chiralities_Consistent>
1

> <s_lp_Variant>
AV-unprocessed.smi:3267-1

> <Gold.Version>
5.8.1

> <Gold.Id.Protein>
6NUR|6NUR_protein|mol2

> <Gold.PLP.Fitness>
40.9049

> <Gold.PLP.PLP>
-29.4172

> <Gold.PLP.part.hbond>
-2.0000

> <Gold.PLP.part.metal>
0.0000

> <Gold.PLP.part.buried>
-1.5766

> <Gold.PLP.part.nonpolar>
-25.6205

> <Gold.PLP.part.repulsive>
0.1545

> <Gold.PLP.ligand.clash>
0.0000

> <Gold.PLP.ligand.torsion>
0.2663

> <Gold.PLP.Chemscore.Hbond>
2.0000

> <Gold.PLP.Chemscore.CHOScore>
2.0000

> <Gold.PLP.Chemscore.Metal>
0.0000

> <Gold.Chemscore.Hbonds>
donor molecule, donor type, donor heavy atom, donor atom, acceptor molecule, acceptor atom, score
      L1  H     9    28       P1  7948  1.00
      L1  H    12    29       P1  7948  0.99
      L1  C     5    25       P1  7948  1.00
      L1  C     7    27       P1 10186  1.00

> <Gold.PLP.Chemscore.Internal.Correction>
0.0203

> <Gold.Rescore>
     Score         DG    S(hbond)    S(metal)    S(lipo)     H(rot)  DE(clash)    DE(int)     intcor
     12.98     -13.20       1.56        0.00      62.55       1.87       0.02       0.20       ----

> <Gold.Chemscore.Fitness>
12.9757

> <Gold.Chemscore.DG>
-13.2019

> <Gold.Chemscore.ZeroCoef>
-5.4800

> <Gold.Chemscore.Hbond>
1.5561

> <Gold.Chemscore.Metal>
0.0000

> <Gold.Chemscore.Lipo>
62.5454

> <Gold.Chemscore.Internal_Hbond>
0.0000

> <Gold.Chemscore.DEClash>
0.0215

> <Gold.Chemscore.DEInternal>
0.2047

> <Gold.Chemscore.Rot>
1.8724

> <Gold.Chemscore.Internal.Correction>
   9.000000E+99

> <Gold.Chemscore.Hbonds>
donor molecule, donor type, donor heavy atom, donor atom, acceptor molecule, acceptor atom, score
      L1  H     9    28       P1  7948  0.34
      L1  H    12    29       P1  7948  0.74

> <Gold.Chemscore.Hbond.Weighted>
-5.1973

> <Gold.Chemscore.Metal.Weighted>
-0.0000

> <Gold.Chemscore.Lipo.Weighted>
-7.3178

> <Gold.Chemscore.Internal_Hbond.Weighted>
0.0000

> <Gold.Chemscore.DEClash.Weighted>
0.0215

> <Gold.Chemscore.DEInternal.Weighted>
0.2047

> <Gold.Chemscore.Rot.Weighted>
4.7933

> <Gold.Chemscore.Internal.Correction.Weighted>
   9.000000E+99

> <Gold.Protein.RotatedTorsions>
[ 6907 6896 6895 6894 ] final  103.64 input  -60.11 | X-H torsion
[ 7974 7965 7964 7962 ] final   35.89 input  175.53 | X-H torsion
[ 8008 7997 7996 7995 ] final -155.23 input   59.86 | X-H torsion
[ 10167 10162 10161 10158 ] final -173.74 input  -65.29 | X-H torsion
[ 10718 10713 10712 10709 ] final  150.27 input   66.30 | X-H torsion
[ 10763 10752 10751 10750 ] final -169.99 input  -60.55 | X-H torsion
[ 11005 11000 10999 10996 ] final  165.10 input  -57.11 | X-H torsion

> <Gold.Protein.ActiveResidues>
 VAL166  LYS551  ARG553  GLY616  TRP617  ASP618  TYR619  PRO620  LYS621  CYS622 
 ASP623  PHE694  ASN695  SER759  ASP760  ASP761  ALA762  ILE779  LEU786  VAL792 
 PHE793  MET794  SER795  GLU796  ALA797  LYS798  CYS799  TRP800  GLU811  SER814 

> <Gold.Protein.RotatedAtoms>
  152.5289  133.9796  159.7800 H   0  0  0  0  0  0  0  0  0  0  0  0  # atno 6907 bound_to 6896
  151.0052  133.6009  159.2697 H   0  0  0  0  0  0  0  0  0  0  0  0  # atno 6908 bound_to 6896
  151.3104  135.0799  159.9323 H   0  0  0  0  0  0  0  0  0  0  0  0  # atno 6909 bound_to 6896
  146.1250  139.6085  142.9264 H   0  0  0  0  0  0  0  0  0  0  0  0  # atno 7974 bound_to 7965
  155.6986  140.0764  157.2419 H   0  0  0  0  0  0  0  0  0  0  0  0  # atno 8008 bound_to 7997
  154.4077  140.1651  156.2218 H   0  0  0  0  0  0  0  0  0  0  0  0  # atno 8009 bound_to 7997
  155.9388  140.3386  155.6313 H   0  0  0  0  0  0  0  0  0  0  0  0  # atno 8010 bound_to 7997
  139.5672  144.1728  152.1330 H   0  0  0  0  0  0  0  0  0  0  0  0  # atno 10167 bound_to 10162
  157.2856  131.0843  151.1500 H   0  0  0  0  0  0  0  0  0  0  0  0  # atno 10718 bound_to 10713
  154.6464  135.2905  155.0041 H   0  0  0  0  0  0  0  0  0  0  0  0  # atno 10763 bound_to 10752
  154.1149  135.6557  153.4896 H   0  0  0  0  0  0  0  0  0  0  0  0  # atno 10764 bound_to 10752
  153.0353  135.5274  154.7353 H   0  0  0  0  0  0  0  0  0  0  0  0  # atno 10765 bound_to 10752
  140.2527  134.7964  157.3517 H   0  0  0  0  0  0  0  0  0  0  0  0  # atno 11005 bound_to 11000
  145.5384  141.0422  143.2344 LP  0  0  0  0  0  0  0  0  0  0  0  0  # atno 17320 bound_to 7965
  144.7634  139.6903  143.7225 LP  0  0  0  0  0  0  0  0  0  0  0  0  # atno 17321 bound_to 7965
  140.1253  144.5336  150.6836 LP  0  0  0  0  0  0  0  0  0  0  0  0  # atno 17342 bound_to 10162
  140.6955  143.2401  151.5011 LP  0  0  0  0  0  0  0  0  0  0  0  0  # atno 17343 bound_to 10162
  157.2916  130.6799  149.6117 LP  0  0  0  0  0  0  0  0  0  0  0  0  # atno 17370 bound_to 10713
  155.9665  130.4419  150.5359 LP  0  0  0  0  0  0  0  0  0  0  0  0  # atno 17371 bound_to 10713
  140.1542  134.4811  155.7939 LP  0  0  0  0  0  0  0  0  0  0  0  0  # atno 17394 bound_to 11000
  141.2199  133.6875  156.7432 LP  0  0  0  0  0  0  0  0  0  0  0  0  # atno 17395 bound_to 11000

$$$$
