AV-unprocessed.smi:135|AV-procd|sdf|1170|dock6
  -GOLD-   2262018313D 1   1.00000     0.00000
 Structure written by MMmdl.
 51 54  0  0  0  0  0  0  0  0  1 V2000
  151.1250  137.1330  159.8130 O   0  0  0  0  0  0  0  0  0  0  0  0
  150.9583  137.4053  158.6242 C   0  0  0  0  0  0  0  0  0  0  0  0
  152.0437  138.1617  157.8420 C   0  0  0  0  0  0  0  0  0  0  0  0
  152.5763  139.3400  158.5604 N   0  0  0  0  0  0  0  0  0  0  0  0
  153.8689  139.2538  159.1341 C   0  0  0  0  0  0  0  0  0  0  0  0
  154.5438  138.2278  159.0354 O   0  0  0  0  0  0  0  0  0  0  0  0
  154.3262  140.4461  159.8389 C   0  0  0  0  0  0  0  0  0  0  0  0
  155.5457  140.4585  160.4032 F   0  0  0  0  0  0  0  0  0  0  0  0
  153.5445  141.5416  159.9320 C   0  0  0  0  0  0  0  0  0  0  0  0
  152.2775  141.6065  159.3795 N   0  0  0  0  0  0  0  0  0  0  0  0
  151.4124  142.8443  159.4917 C   0  0  1  0  0  0  0  0  0  0  0  0
  151.9721  143.8046  160.5586 C   0  0  0  0  0  0  0  0  0  0  0  0
  152.0421  145.1247  159.8169 C   0  0  0  0  0  0  0  0  0  0  0  0
  152.2695  144.6680  158.3839 C   0  0  0  0  0  0  0  0  0  0  0  0
  151.4137  143.5381  158.2762 O   0  0  0  0  0  0  0  0  0  0  0  0
  151.7673  140.4955  158.6731 C   0  0  0  0  0  0  0  0  0  0  0  0
  150.6405  140.5340  158.1739 O   0  0  0  0  0  0  0  0  0  0  0  0
  149.8562  137.1131  157.9107 N   0  0  0  0  0  0  0  0  0  0  0  0
  148.6705  136.4122  158.2762 C   0  0  0  0  0  0  0  0  0  0  0  0
  148.2393  136.2292  159.6145 C   0  0  0  0  0  0  0  0  0  0  0  0
  147.0498  135.5286  159.8915 C   0  0  0  0  0  0  0  0  0  0  0  0
  146.2768  135.0035  158.8408 C   0  0  0  0  0  0  0  0  0  0  0  0
  146.6993  135.1729  157.5105 C   0  0  0  0  0  0  0  0  0  0  0  0
  147.8949  135.8628  157.2246 C   0  0  0  0  0  0  0  0  0  0  0  0
  148.2718  136.0064  155.9117 O   0  0  0  0  0  0  0  0  0  0  0  0
  148.6121  134.8735  155.2136 C   0  0  0  0  0  0  0  0  0  0  0  0
  149.7596  134.1167  155.5425 C   0  0  0  0  0  0  0  0  0  0  0  0
  150.0799  132.9597  154.8060 C   0  0  0  0  0  0  0  0  0  0  0  0
  149.2538  132.5501  153.7419 C   0  0  0  0  0  0  0  0  0  0  0  0
  148.1049  133.2965  153.4160 C   0  0  0  0  0  0  0  0  0  0  0  0
  147.7842  134.4531  154.1526 C   0  0  0  0  0  0  0  0  0  0  0  0
  152.8506  137.4690  157.5949 H   0  0  0  0  0  0  0  0  0  0  0  0
  151.6313  138.4400  156.8712 H   0  0  0  0  0  0  0  0  0  0  0  0
  153.9445  142.3912  160.4636 H   0  0  0  0  0  0  0  0  0  0  0  0
  150.4043  142.4817  159.7006 H   0  0  0  0  0  0  0  0  0  0  0  0
  151.3240  143.8370  161.4348 H   0  0  0  0  0  0  0  0  0  0  0  0
  152.9699  143.4883  160.8667 H   0  0  0  0  0  0  0  0  0  0  0  0
  151.0895  145.6504  159.8946 H   0  0  0  0  0  0  0  0  0  0  0  0
  152.8290  145.7826  160.1862 H   0  0  0  0  0  0  0  0  0  0  0  0
  152.0175  145.4341  157.6504 H   0  0  0  0  0  0  0  0  0  0  0  0
  153.3082  144.3712  158.2314 H   0  0  0  0  0  0  0  0  0  0  0  0
  149.8677  137.4409  156.9557 H   0  0  0  0  0  0  0  0  0  0  0  0
  148.7972  136.6087  160.4545 H   0  0  0  0  0  0  0  0  0  0  0  0
  146.7296  135.3958  160.9143 H   0  0  0  0  0  0  0  0  0  0  0  0
  145.3629  134.4696  159.0550 H   0  0  0  0  0  0  0  0  0  0  0  0
  146.1073  134.7664  156.7037 H   0  0  0  0  0  0  0  0  0  0  0  0
  150.3989  134.4200  156.3587 H   0  0  0  0  0  0  0  0  0  0  0  0
  150.9595  132.3860  155.0583 H   0  0  0  0  0  0  0  0  0  0  0  0
  149.4998  131.6624  153.1780 H   0  0  0  0  0  0  0  0  0  0  0  0
  147.4691  132.9813  152.6018 H   0  0  0  0  0  0  0  0  0  0  0  0
  146.9020  135.0227  153.8993 H   0  0  0  0  0  0  0  0  0  0  0  0
  1  2  2  0  0  0  0
  2  3  1  0  0  0  0
  2 18  1  0  0  0  0
  3  4  1  0  0  0  0
  3 32  1  0  0  0  0
  3 33  1  0  0  0  0
  4 16  1  0  0  0  0
  4  5  1  0  0  0  0
  5  6  2  0  0  0  0
  5  7  1  0  0  0  0
  7  8  1  0  0  0  0
  7  9  2  0  0  0  0
  9 10  1  0  0  0  0
  9 34  1  0  0  0  0
 10 11  1  0  0  0  0
 10 16  1  0  0  0  0
 11 15  1  0  0  0  0
 11 12  1  0  0  0  0
 11 35  1  0  0  0  0
 12 13  1  0  0  0  0
 12 36  1  0  0  0  0
 12 37  1  0  0  0  0
 13 14  1  0  0  0  0
 13 38  1  0  0  0  0
 13 39  1  0  0  0  0
 14 15  1  0  0  0  0
 14 40  1  0  0  0  0
 14 41  1  0  0  0  0
 16 17  2  0  0  0  0
 18 19  1  0  0  0  0
 18 42  1  0  0  0  0
 19 24  1  0  0  0  0
 19 20  2  0  0  0  0
 20 21  1  0  0  0  0
 20 43  1  0  0  0  0
 21 22  2  0  0  0  0
 21 44  1  0  0  0  0
 22 23  1  0  0  0  0
 22 45  1  0  0  0  0
 23 24  2  0  0  0  0
 23 46  1  0  0  0  0
 24 25  1  0  0  0  0
 25 26  1  0  0  0  0
 26 31  1  0  0  0  0
 26 27  2  0  0  0  0
 27 28  1  0  0  0  0
 27 47  1  0  0  0  0
 28 29  2  0  0  0  0
 28 48  1  0  0  0  0
 29 30  1  0  0  0  0
 29 49  1  0  0  0  0
 30 31  2  0  0  0  0
 30 50  1  0  0  0  0
 31 51  1  0  0  0  0
M  END
> <s_m_source_file>
AV-unprocessed.smi

> <i_m_source_file_index>
135

> <i_lp_mmshare_version>
43012

> <i_f3d_flags>
0

> <s_epik_input>
TzFbQ0gyXVtDSDJdW0NIMl1bQ0BIXTFuKGMyPU8pW2NIXWMoRiljKD1PKW4yW0NIMl1DKD1PKVtOSF1jM1tjSF1bY0hdW2NIXVtjSF1jM09jNFtjSF1bY0hdW2NIXVtjSF1bY0hdNA==

> <s_epik_cmdline>
J2VwaWtfcHl0aG9uJywgJy1waCcsICc3LjAnLCAnLXRuJywgJzgnLCAnLW1hJywgJzIwMCcsICctbWV0YWxfYmluZGluZycsICctaW1hZScsICc8aW5maWxlLm1hZT4nLCAnLW9tYWUnLCAnPG91dGZpbGUubWFlPic=

> <r_lp_tautomer_probability>
1

> <r_epik_Ionization_Penalty>
1.89877e-06

> <r_epik_Ionization_Penalty_Charging>
3.88729e-08

> <r_epik_Ionization_Penalty_Neutral>
1.8599e-06

> <r_epik_State_Penalty>
-0

> <r_epik_Charging_Adjusted_Penalty>
3.88729e-08

> <i_epik_Tot_Q>
0

> <i_epik_Tot_abs_Q>
0

> <r_epik_Metal_State_Penalty>
-0

> <b_epik_Metal_Only>
0

> <s_epik_Chemistry_Notes>
This compound contains an acetal/aminal-like group ( X-CH(R)-Y where X, Y are N, S, or O) that may be acid/base labile, releasing an aldehyde.

> <s_lp_Force_Field>
OPLS_2005

> <r_lp_Energy>
40.6736

> <b_lp_Chiralities_Consistent>
1

> <s_lp_Variant>
AV-unprocessed.smi:135-2

> <Gold.Version>
5.8.1

> <Gold.Id.Protein>
6NUR|6NUR_protein|mol2

> <Gold.PLP.Fitness>
50.3747

> <Gold.PLP.PLP>
-49.1571

> <Gold.PLP.part.hbond>
-0.9369

> <Gold.PLP.part.metal>
0.0000

> <Gold.PLP.part.buried>
-6.4899

> <Gold.PLP.part.nonpolar>
-42.1721

> <Gold.PLP.part.repulsive>
0.2168

> <Gold.PLP.ligand.clash>
0.0000

> <Gold.PLP.ligand.torsion>
0.8525

> <Gold.PLP.Chemscore.Hbond>
0.9425

> <Gold.PLP.Chemscore.CHOScore>
0.0000

> <Gold.PLP.Chemscore.Metal>
0.0000

> <Gold.Chemscore.Hbonds>
donor molecule, donor type, donor heavy atom, donor atom, acceptor molecule, acceptor atom, score
      P1  H  6896  6909       L1     1  1.00

> <Gold.PLP.Chemscore.Internal.Correction>
0.0952

> <Gold.Rescore>
     Score         DG    S(hbond)    S(metal)    S(lipo)     H(rot)  DE(clash)    DE(int)     intcor
     14.27     -15.43       0.95        0.00     102.43       2.04       0.02       1.14       ----

> <Gold.Chemscore.Fitness>
14.2682

> <Gold.Chemscore.DG>
-15.4311

> <Gold.Chemscore.ZeroCoef>
-5.4800

> <Gold.Chemscore.Hbond>
0.9531

> <Gold.Chemscore.Metal>
0.0000

> <Gold.Chemscore.Lipo>
102.4293

> <Gold.Chemscore.Internal_Hbond>
0.0000

> <Gold.Chemscore.DEClash>
0.0234

> <Gold.Chemscore.DEInternal>
1.1394

> <Gold.Chemscore.Rot>
2.0377

> <Gold.Chemscore.Internal.Correction>
   9.000000E+99

> <Gold.Chemscore.Hbonds>
donor molecule, donor type, donor heavy atom, donor atom, acceptor molecule, acceptor atom, score
      P1  H  6896  6909       L1     1  0.58

> <Gold.Chemscore.Hbond.Weighted>
-3.1834

> <Gold.Chemscore.Metal.Weighted>
-0.0000

> <Gold.Chemscore.Lipo.Weighted>
-11.9842

> <Gold.Chemscore.Internal_Hbond.Weighted>
0.0000

> <Gold.Chemscore.DEClash.Weighted>
0.0234

> <Gold.Chemscore.DEInternal.Weighted>
1.1394

> <Gold.Chemscore.Rot.Weighted>
5.2165

> <Gold.Chemscore.Internal.Correction.Weighted>
   9.000000E+99

> <Gold.Protein.RotatedTorsions>
[ 6907 6896 6895 6894 ] final  102.59 input  -60.11 | X-H torsion
[ 7974 7965 7964 7962 ] final  108.43 input  175.53 | X-H torsion
[ 8008 7997 7996 7995 ] final    0.00 input   59.86 | X-H torsion
[ 10167 10162 10161 10158 ] final   64.15 input  -65.29 | X-H torsion
[ 10718 10713 10712 10709 ] final   48.09 input   66.30 | X-H torsion
[ 10763 10752 10751 10750 ] final   84.33 input  -60.55 | X-H torsion
[ 11005 11000 10999 10996 ] final  -62.30 input  -57.11 | X-H torsion

> <Gold.Protein.ActiveResidues>
 VAL166  LYS551  ARG553  GLY616  TRP617  ASP618  TYR619  PRO620  LYS621  CYS622 
 ASP623  PHE694  ASN695  SER759  ASP760  ASP761  ALA762  ILE779  LEU786  VAL792 
 PHE793  MET794  SER795  GLU796  ALA797  LYS798  CYS799  TRP800  GLU811  SER814 

> <Gold.Protein.RotatedAtoms>
  152.5319  133.9952  159.7869 H   0  0  0  0  0  0  0  0  0  0  0  0  # atno 6907 bound_to 6896
  151.0181  133.5894  159.2681 H   0  0  0  0  0  0  0  0  0  0  0  0  # atno 6908 bound_to 6896
  151.2944  135.0758  159.9269 H   0  0  0  0  0  0  0  0  0  0  0  0  # atno 6909 bound_to 6896
  145.2808  139.2633  143.3917 H   0  0  0  0  0  0  0  0  0  0  0  0  # atno 7974 bound_to 7965
  154.6631  140.2595  155.7088 H   0  0  0  0  0  0  0  0  0  0  0  0  # atno 8008 bound_to 7997
  156.2627  140.2844  156.1032 H   0  0  0  0  0  0  0  0  0  0  0  0  # atno 8009 bound_to 7997
  155.1279  140.0378  157.2757 H   0  0  0  0  0  0  0  0  0  0  0  0  # atno 8010 bound_to 7997
  140.1253  144.4693  150.6896 H   0  0  0  0  0  0  0  0  0  0  0  0  # atno 10167 bound_to 10162
  157.4652  130.8221  149.7928 H   0  0  0  0  0  0  0  0  0  0  0  0  # atno 10718 bound_to 10713
  153.1372  135.4658  154.9440 H   0  0  0  0  0  0  0  0  0  0  0  0  # atno 10763 bound_to 10752
  154.7716  135.3160  154.8180 H   0  0  0  0  0  0  0  0  0  0  0  0  # atno 10764 bound_to 10752
  153.8710  135.6903  153.4828 H   0  0  0  0  0  0  0  0  0  0  0  0  # atno 10765 bound_to 10752
  141.1355  133.6638  156.5507 H   0  0  0  0  0  0  0  0  0  0  0  0  # atno 11005 bound_to 11000
  146.3217  140.3274  142.8638 LP  0  0  0  0  0  0  0  0  0  0  0  0  # atno 17320 bound_to 7965
  144.9255  140.7916  143.5722 LP  0  0  0  0  0  0  0  0  0  0  0  0  # atno 17321 bound_to 7965
  140.6848  143.2344  151.5289 LP  0  0  0  0  0  0  0  0  0  0  0  0  # atno 17342 bound_to 10162
  139.5547  144.2305  152.1592 LP  0  0  0  0  0  0  0  0  0  0  0  0  # atno 17343 bound_to 10162
  156.0047  130.3862  150.2475 LP  0  0  0  0  0  0  0  0  0  0  0  0  # atno 17370 bound_to 10713
  157.0655  131.0102  151.3208 LP  0  0  0  0  0  0  0  0  0  0  0  0  # atno 17371 bound_to 10713
  140.4066  134.7309  157.4811 LP  0  0  0  0  0  0  0  0  0  0  0  0  # atno 17394 bound_to 11000
  140.0457  134.6202  155.8924 LP  0  0  0  0  0  0  0  0  0  0  0  0  # atno 17395 bound_to 11000

$$$$
