AV-unprocessed.smi:38|AV-procd|sdf|344|dock9
  -GOLD-   2262016183D 1   1.00000     0.00000
 Structure written by MMmdl.
 27 28  0  0  0  0  0  0  0  0  2 V2000
  153.1911  135.7130  158.5483 O   0  0  0  0  0  0  0  0  0  0  0  0
  152.8585  136.7191  157.9235 C   0  0  0  0  0  0  0  0  0  0  0  0
  153.0688  136.8583  156.5826 N   0  5  0  0  0  0  0  0  0  0  0  0
  152.7015  137.9768  155.8911 C   0  0  0  0  0  0  0  0  0  0  0  0
  152.8910  138.1128  154.6819 O   0  0  0  0  0  0  0  0  0  0  0  0
  152.0726  139.0436  156.5900 N   0  0  0  0  0  0  0  0  0  0  0  0
  151.6697  140.2827  155.8165 C   0  0  2  0  0  0  0  0  0  0  0  0
  150.9761  141.2945  156.7417 C   0  0  0  0  0  0  0  0  0  0  0  0
  149.7383  141.6640  155.9478 C   0  0  2  0  0  0  0  0  0  0  0  0
  148.6820  142.0475  156.8043 O   0  0  0  0  0  0  0  0  0  0  0  0
  149.4416  140.3673  155.1951 C   0  0  1  0  0  0  0  0  0  0  0  0
  148.5748  140.5670  153.9425 C   0  0  0  0  0  0  0  0  0  0  0  0
  148.4053  139.3391  153.2667 O   0  0  0  0  0  0  0  0  0  0  0  0
  150.7490  139.9441  154.8185 O   0  0  0  0  0  0  0  0  0  0  0  0
  151.8446  138.9285  157.9522 C   0  0  0  0  0  0  0  0  0  0  0  0
  152.2103  137.8218  158.6311 C   0  0  0  0  0  0  0  0  0  0  0  0
  151.9767  137.7394  159.9525 F   0  0  0  0  0  0  0  0  0  0  0  0
  152.5827  140.6547  155.3485 H   0  0  0  0  0  0  0  0  0  0  0  0
  149.9689  142.4693  155.2487 H   0  0  0  0  0  0  0  0  0  0  0  0
  148.9960  139.6391  155.8760 H   0  0  0  0  0  0  0  0  0  0  0  0
  150.7066  140.8092  157.6820 H   0  0  0  0  0  0  0  0  0  0  0  0
  151.6260  142.1434  156.9554 H   0  0  0  0  0  0  0  0  0  0  0  0
  148.3474  142.8816  156.5119 H   0  0  0  0  0  0  0  0  0  0  0  0
  147.5838  140.9222  154.2261 H   0  0  0  0  0  0  0  0  0  0  0  0
  149.0076  141.3126  153.2750 H   0  0  0  0  0  0  0  0  0  0  0  0
  148.5792  139.4755  152.3480 H   0  0  0  0  0  0  0  0  0  0  0  0
  151.3673  139.7278  158.4979 H   0  0  0  0  0  0  0  0  0  0  0  0
  1  2  2  0  0  0  0
  2 16  1  0  0  0  0
  2  3  1  0  0  0  0
  3  4  1  0  0  0  0
  4  5  2  0  0  0  0
  4  6  1  0  0  0  0
  6  7  1  0  0  0  0
  6 15  1  0  0  0  0
  7 18  1  0  0  0  0
  7 14  1  0  0  0  0
  7  8  1  0  0  0  0
  8  9  1  0  0  0  0
  8 21  1  0  0  0  0
  8 22  1  0  0  0  0
  9 19  1  0  0  0  0
  9 10  1  0  0  0  0
  9 11  1  0  0  0  0
 10 23  1  0  0  0  0
 11 20  1  0  0  0  0
 11 12  1  0  0  0  0
 11 14  1  0  0  0  0
 12 13  1  0  0  0  0
 12 24  1  0  0  0  0
 12 25  1  0  0  0  0
 13 26  1  0  0  0  0
 15 16  2  0  0  0  0
 15 27  1  0  0  0  0
 16 17  1  0  0  0  0
M  CHG  1   3  -1
M  END
> <s_m_source_file>
AV-unprocessed.smi

> <i_m_source_file_index>
38

> <i_lp_mmshare_version>
43012

> <i_f3d_flags>
0

> <s_epik_input>
Tz1jMVtuSF1jKD1PKW4oW2NIXWMxRilbQ0BIXTJbQ0gyXVtDQEhdKFtPSF0pW0NASF0oTzIpW0NIMl1bT0hd

> <s_epik_cmdline>
J2VwaWtfcHl0aG9uJywgJy1waCcsICc3LjAnLCAnLXRuJywgJzgnLCAnLW1hJywgJzIwMCcsICctbWV0YWxfYmluZGluZycsICctaW1hZScsICc8aW5maWxlLm1hZT4nLCAnLW9tYWUnLCAnPG91dGZpbGUubWFlPic=

> <r_epik_Ionization_Penalty>
1.68146

> <r_epik_Ionization_Penalty_Charging>
3.4211e-08

> <r_epik_Ionization_Penalty_Neutral>
1.68146

> <r_epik_State_Penalty>
1.78593

> <r_epik_Charging_Adjusted_Penalty>
1.78593

> <i_epik_Tot_Q>
-1

> <i_epik_Tot_abs_Q>
1

> <r_epik_Metal_State_Penalty>
0.0113696

> <b_epik_Metal_Only>
0

> <s_epik_Chemistry_Notes>
This compound contains an acetal/aminal-like group ( X-CH(R)-Y where X, Y are N, S, or O) that may be acid/base labile, releasing an aldehyde.

> <s_lp_Force_Field>
OPLS_2005

> <r_lp_Energy>
37.5177

> <b_lp_Chiralities_Consistent>
1

> <s_lp_Variant>
AV-unprocessed.smi:38-10

> <Gold.Version>
5.8.1

> <Gold.Id.Protein>
6NUR|6NUR_protein|mol2

> <Gold.PLP.Fitness>
42.2488

> <Gold.PLP.PLP>
-26.2415

> <Gold.PLP.part.hbond>
-6.0000

> <Gold.PLP.part.metal>
0.0000

> <Gold.PLP.part.buried>
-3.4772

> <Gold.PLP.part.nonpolar>
-17.1897

> <Gold.PLP.part.repulsive>
0.0883

> <Gold.PLP.ligand.clash>
0.0000

> <Gold.PLP.ligand.torsion>
0.0084

> <Gold.PLP.Chemscore.Hbond>
5.3360

> <Gold.PLP.Chemscore.CHOScore>
0.0000

> <Gold.PLP.Chemscore.Metal>
0.0000

> <Gold.Chemscore.Hbonds>
donor molecule, donor type, donor heavy atom, donor atom, acceptor molecule, acceptor atom, score
      L1  H    10    23       P1  8028  0.77
      L1  H    13    26       P1  7957  0.99
      P1  H  6896  6907       L1     1  0.53
      P1  H  7989  7998       L1    14  0.70
      P1  H 10752 10763       L1     3  1.70

> <Gold.PLP.Chemscore.Internal.Correction>
0.0161

> <Gold.Rescore>
     Score         DG    S(hbond)    S(metal)    S(lipo)     H(rot)  DE(clash)    DE(int)     intcor
     12.54     -14.09       3.48        0.00      37.38       2.88       0.00       1.55       ----

> <Gold.Chemscore.Fitness>
12.5371

> <Gold.Chemscore.DG>
-14.0899

> <Gold.Chemscore.ZeroCoef>
-5.4800

> <Gold.Chemscore.Hbond>
3.4768

> <Gold.Chemscore.Metal>
0.0000

> <Gold.Chemscore.Lipo>
37.3849

> <Gold.Chemscore.Internal_Hbond>
0.0000

> <Gold.Chemscore.DEClash>
0.0009

> <Gold.Chemscore.DEInternal>
1.5519

> <Gold.Chemscore.Rot>
2.8815

> <Gold.Chemscore.Internal.Correction>
   9.000000E+99

> <Gold.Chemscore.Hbonds>
donor molecule, donor type, donor heavy atom, donor atom, acceptor molecule, acceptor atom, score
      L1  H    10    23       P1  8028  0.55
      L1  H    13    26       P1  7957  0.94
      P1  H  6896  6907       L1     1  0.52
      P1  H  7989  7998       L1    14  0.07
      P1  H 10752 10763       L1     3  0.63

> <Gold.Chemscore.Hbond.Weighted>
-11.6124

> <Gold.Chemscore.Metal.Weighted>
-0.0000

> <Gold.Chemscore.Lipo.Weighted>
-4.3740

> <Gold.Chemscore.Internal_Hbond.Weighted>
0.0000

> <Gold.Chemscore.DEClash.Weighted>
0.0009

> <Gold.Chemscore.DEInternal.Weighted>
1.5519

> <Gold.Chemscore.Rot.Weighted>
7.3765

> <Gold.Chemscore.Internal.Correction.Weighted>
   9.000000E+99

> <Gold.Protein.RotatedTorsions>
[ 6907 6896 6895 6894 ] final   43.65 input  -60.11 | X-H torsion
[ 7974 7965 7964 7962 ] final  113.65 input  175.53 | X-H torsion
[ 8008 7997 7996 7995 ] final  175.76 input   59.86 | X-H torsion
[ 10167 10162 10161 10158 ] final   41.41 input  -65.29 | X-H torsion
[ 10718 10713 10712 10709 ] final -116.20 input   66.30 | X-H torsion
[ 10763 10752 10751 10750 ] final  121.42 input  -60.55 | X-H torsion
[ 11005 11000 10999 10996 ] final -179.07 input  -57.11 | X-H torsion

> <Gold.Protein.ActiveResidues>
 VAL166  LYS551  ARG553  GLY616  TRP617  ASP618  TYR619  PRO620  LYS621  CYS622 
 ASP623  PHE694  ASN695  SER759  ASP760  ASP761  ALA762  ILE779  LEU786  VAL792 
 PHE793  MET794  SER795  GLU796  ALA797  LYS798  CYS799  TRP800  GLU811  SER814 

> <Gold.Protein.RotatedAtoms>
  152.2229  134.8396  160.0483 H   0  0  0  0  0  0  0  0  0  0  0  0  # atno 6907 bound_to 6896
  151.9173  133.3571  159.3892 H   0  0  0  0  0  0  0  0  0  0  0  0  # atno 6908 bound_to 6896
  150.7004  134.4597  159.5419 H   0  0  0  0  0  0  0  0  0  0  0  0  # atno 6909 bound_to 6896
  145.2143  139.2891  143.4252 H   0  0  0  0  0  0  0  0  0  0  0  0  # atno 7974 bound_to 7965
  156.0836  140.1401  156.9681 H   0  0  0  0  0  0  0  0  0  0  0  0  # atno 8008 bound_to 7997
  154.4600  140.0947  156.6914 H   0  0  0  0  0  0  0  0  0  0  0  0  # atno 8009 bound_to 7997
  155.5035  140.3451  155.4377 H   0  0  0  0  0  0  0  0  0  0  0  0  # atno 8010 bound_to 7997
  140.3646  144.2184  150.6136 H   0  0  0  0  0  0  0  0  0  0  0  0  # atno 10167 bound_to 10162
  156.0947  130.6122  150.9005 H   0  0  0  0  0  0  0  0  0  0  0  0  # atno 10718 bound_to 10713
  153.6138  135.3425  155.2987 H   0  0  0  0  0  0  0  0  0  0  0  0  # atno 10763 bound_to 10752
  154.8613  135.4256  154.2281 H   0  0  0  0  0  0  0  0  0  0  0  0  # atno 10764 bound_to 10752
  153.3138  135.7033  153.7164 H   0  0  0  0  0  0  0  0  0  0  0  0  # atno 10765 bound_to 10752
  140.4228  134.6590  157.4672 H   0  0  0  0  0  0  0  0  0  0  0  0  # atno 11005 bound_to 11000
  146.3390  140.2429  142.8596 LP  0  0  0  0  0  0  0  0  0  0  0  0  # atno 17320 bound_to 7965
  144.9826  140.8473  143.5388 LP  0  0  0  0  0  0  0  0  0  0  0  0  # atno 17321 bound_to 7965
  140.5093  143.2295  151.8559 LP  0  0  0  0  0  0  0  0  0  0  0  0  # atno 17342 bound_to 10162
  139.4810  144.4968  151.9113 LP  0  0  0  0  0  0  0  0  0  0  0  0  # atno 17343 bound_to 10162
  157.6105  131.0936  150.8802 LP  0  0  0  0  0  0  0  0  0  0  0  0  # atno 17370 bound_to 10713
  156.8943  130.5224  149.5285 LP  0  0  0  0  0  0  0  0  0  0  0  0  # atno 17371 bound_to 10713
  140.0188  134.6578  155.9269 LP  0  0  0  0  0  0  0  0  0  0  0  0  # atno 17394 bound_to 11000
  141.1777  133.6542  156.4895 LP  0  0  0  0  0  0  0  0  0  0  0  0  # atno 17395 bound_to 11000

$$$$
