AV-unprocessed.smi:2860|AV-procd|sdf|11006|dock3
  -GOLD-   2272015463D 1   1.00000     0.00000
 Structure written by MMmdl.
 45 46  0  0  0  0  0  0  0  0  1 V2000
  145.0570  133.6254  150.3225 C   0  0  0  0  0  0  0  0  0  0  0  0
  143.6996  133.1538  150.8606 C   0  0  0  0  0  0  0  0  0  0  0  0
  143.4077  133.7470  152.1597 N   0  0  0  0  0  0  0  0  0  0  0  0
  143.3284  135.0643  152.4056 C   0  0  0  0  0  0  0  0  0  0  0  0
  143.4651  135.9265  151.5382 O   0  0  0  0  0  0  0  0  0  0  0  0
  143.0631  135.4726  153.8552 C   0  0  0  0  0  0  0  0  0  0  0  0
  141.7443  136.0639  153.9944 N   0  0  0  0  0  0  0  0  0  0  0  0
  141.3409  137.3460  153.6754 C   0  0  0  0  0  0  0  0  0  0  0  0
  140.0091  137.4422  153.9628 C   0  0  0  0  0  0  0  0  0  0  0  0
  139.6884  136.1498  154.4617 C   0  0  0  0  0  0  0  0  0  0  0  0
  138.3665  135.8414  154.8709 N   0  0  0  0  0  0  0  0  0  0  0  0
  137.3073  136.6691  154.9274 C   0  0  0  0  0  0  0  0  0  0  0  0
  137.3085  137.8295  154.5168 O   0  0  0  0  0  0  0  0  0  0  0  0
  136.0698  136.0133  155.4500 C   0  0  0  0  0  0  0  0  0  0  0  0
  134.7672  136.8073  155.5414 C   0  0  0  0  0  0  0  0  0  0  0  0
  134.6529  138.2814  155.1519 C   0  0  0  0  0  0  0  0  0  0  0  0
  133.4756  136.1092  155.1364 C   0  0  0  0  0  0  0  0  0  0  0  0
  135.5089  136.4013  156.8155 C   0  0  0  0  0  0  0  0  0  0  0  0
  134.9724  135.2909  157.7088 C   0  0  0  0  0  0  0  0  0  0  0  0
  136.1630  137.4581  157.7064 C   0  0  0  0  0  0  0  0  0  0  0  0
  140.7247  135.3233  154.4816 N   0  0  0  0  0  0  0  0  0  0  0  0
  145.2789  133.1544  149.3650 H   0  0  0  0  0  0  0  0  0  0  0  0
  145.8631  133.3733  151.0121 H   0  0  0  0  0  0  0  0  0  0  0  0
  145.0710  134.7053  150.1709 H   0  0  0  0  0  0  0  0  0  0  0  0
  142.9058  133.3870  150.1490 H   0  0  0  0  0  0  0  0  0  0  0  0
  143.7058  132.0698  150.9748 H   0  0  0  0  0  0  0  0  0  0  0  0
  143.2762  133.1108  152.9327 H   0  0  0  0  0  0  0  0  0  0  0  0
  143.1428  134.6026  154.5093 H   0  0  0  0  0  0  0  0  0  0  0  0
  143.8108  136.1938  154.1879 H   0  0  0  0  0  0  0  0  0  0  0  0
  142.0283  138.0738  153.2699 H   0  0  0  0  0  0  0  0  0  0  0  0
  139.3668  138.3008  153.8343 H   0  0  0  0  0  0  0  0  0  0  0  0
  138.2147  134.8950  155.1871 H   0  0  0  0  0  0  0  0  0  0  0  0
  135.9596  134.9764  155.1371 H   0  0  0  0  0  0  0  0  0  0  0  0
  133.8352  138.7510  155.6991 H   0  0  0  0  0  0  0  0  0  0  0  0
  134.4498  138.3754  154.0846 H   0  0  0  0  0  0  0  0  0  0  0  0
  135.5607  138.8441  155.3594 H   0  0  0  0  0  0  0  0  0  0  0  0
  132.6467  136.4624  155.7503 H   0  0  0  0  0  0  0  0  0  0  0  0
  133.5507  135.0282  155.2479 H   0  0  0  0  0  0  0  0  0  0  0  0
  133.2438  136.3127  154.0905 H   0  0  0  0  0  0  0  0  0  0  0  0
  134.1446  135.6609  158.3145 H   0  0  0  0  0  0  0  0  0  0  0  0
  135.7539  134.9263  158.3764 H   0  0  0  0  0  0  0  0  0  0  0  0
  134.6206  134.4407  157.1258 H   0  0  0  0  0  0  0  0  0  0  0  0
  135.4124  137.9281  158.3425 H   0  0  0  0  0  0  0  0  0  0  0  0
  136.6591  138.2412  157.1360 H   0  0  0  0  0  0  0  0  0  0  0  0
  136.9165  136.9997  158.3474 H   0  0  0  0  0  0  0  0  0  0  0  0
  1  2  1  0  0  0  0
  1 22  1  0  0  0  0
  1 23  1  0  0  0  0
  1 24  1  0  0  0  0
  2  3  1  0  0  0  0
  2 25  1  0  0  0  0
  2 26  1  0  0  0  0
  3  4  1  0  0  0  0
  3 27  1  0  0  0  0
  4  5  2  0  0  0  0
  4  6  1  0  0  0  0
  6  7  1  0  0  0  0
  6 28  1  0  0  0  0
  6 29  1  0  0  0  0
  7 21  1  0  0  0  0
  7  8  1  0  0  0  0
  8  9  2  0  0  0  0
  8 30  1  0  0  0  0
  9 10  1  0  0  0  0
  9 31  1  0  0  0  0
 10 11  1  0  0  0  0
 10 21  2  0  0  0  0
 11 12  1  0  0  0  0
 11 32  1  0  0  0  0
 12 13  2  0  0  0  0
 12 14  1  0  0  0  0
 14 18  1  0  0  0  0
 14 15  1  0  0  0  0
 14 33  1  0  0  0  0
 15 16  1  0  0  0  0
 15 17  1  0  0  0  0
 15 18  1  0  0  0  0
 16 34  1  0  0  0  0
 16 35  1  0  0  0  0
 16 36  1  0  0  0  0
 17 37  1  0  0  0  0
 17 38  1  0  0  0  0
 17 39  1  0  0  0  0
 18 19  1  0  0  0  0
 18 20  1  0  0  0  0
 19 40  1  0  0  0  0
 19 41  1  0  0  0  0
 19 42  1  0  0  0  0
 20 43  1  0  0  0  0
 20 44  1  0  0  0  0
 20 45  1  0  0  0  0
M  END
> <s_m_source_file>
AV-unprocessed.smi

> <i_m_source_file_index>
2860

> <i_lp_mmshare_version>
43012

> <i_f3d_flags>
0

> <s_epik_input>
W0NIM11bQ0gyXVtOSF1DKD1PKVtDSDJdbjFbY0hdW2NIXWMobjEpW05IXUMoPU8pW0NIXShDMihbQ0gzXSlbQ0gzXSlDMihbQ0gzXSlbQ0gzXQ==

> <s_epik_cmdline>
J2VwaWtfcHl0aG9uJywgJy1waCcsICc3LjAnLCAnLXRuJywgJzgnLCAnLW1hJywgJzIwMCcsICctbWV0YWxfYmluZGluZycsICctaW1hZScsICc8aW5maWxlLm1hZT4nLCAnLW9tYWUnLCAnPG91dGZpbGUubWFlPic=

> <r_lp_tautomer_probability>
1

> <r_epik_Ionization_Penalty>
1.3586e-05

> <r_epik_Ionization_Penalty_Charging>
0

> <r_epik_Ionization_Penalty_Neutral>
1.3586e-05

> <r_epik_State_Penalty>
-0

> <r_epik_Charging_Adjusted_Penalty>
0

> <i_epik_Tot_Q>
0

> <i_epik_Tot_abs_Q>
0

> <r_epik_Metal_State_Penalty>
-0

> <b_epik_Metal_Only>
0

> <s_lp_Force_Field>
OPLS_2005

> <r_lp_Energy>
28.3378

> <b_lp_Chiralities_Consistent>
1

> <s_lp_Variant>
AV-unprocessed.smi:2860-1

> <Gold.Version>
5.8.1

> <Gold.Id.Protein>
6NUR|6NUR_protein|mol2

> <Gold.PLP.Fitness>
40.0111

> <Gold.PLP.PLP>
-32.1109

> <Gold.PLP.part.hbond>
-2.0000

> <Gold.PLP.part.metal>
0.0000

> <Gold.PLP.part.buried>
-6.8231

> <Gold.PLP.part.nonpolar>
-24.4009

> <Gold.PLP.part.repulsive>
0.3891

> <Gold.PLP.ligand.clash>
0.0000

> <Gold.PLP.ligand.torsion>
0.4585

> <Gold.PLP.Chemscore.Hbond>
1.9040

> <Gold.PLP.Chemscore.CHOScore>
0.9856

> <Gold.PLP.Chemscore.Metal>
0.0000

> <Gold.Chemscore.Hbonds>
donor molecule, donor type, donor heavy atom, donor atom, acceptor molecule, acceptor atom, score
      L1  H     3    27       P1 10957  0.18
      P1  H 11000 11005       L1    21  0.62

> <Gold.PLP.Chemscore.Internal.Correction>
0.1484

> <Gold.Rescore>
     Score         DG    S(hbond)    S(metal)    S(lipo)     H(rot)  DE(clash)    DE(int)     intcor
     11.13     -14.44       1.88        0.00      59.74       1.68       0.04       3.27       ----

> <Gold.Chemscore.Fitness>
11.1303

> <Gold.Chemscore.DG>
-14.4357

> <Gold.Chemscore.ZeroCoef>
-5.4800

> <Gold.Chemscore.Hbond>
1.8754

> <Gold.Chemscore.Metal>
0.0000

> <Gold.Chemscore.Lipo>
59.7424

> <Gold.Chemscore.Internal_Hbond>
0.0000

> <Gold.Chemscore.DEClash>
0.0354

> <Gold.Chemscore.DEInternal>
3.2700

> <Gold.Chemscore.Rot>
1.6789

> <Gold.Chemscore.Internal.Correction>
   9.000000E+99

> <Gold.Chemscore.Hbonds>
donor molecule, donor type, donor heavy atom, donor atom, acceptor molecule, acceptor atom, score
      L1  H     3    27       P1 10957  0.12
      P1  H 11000 11005       L1    21  0.05

> <Gold.Chemscore.Hbond.Weighted>
-6.2639

> <Gold.Chemscore.Metal.Weighted>
-0.0000

> <Gold.Chemscore.Lipo.Weighted>
-6.9899

> <Gold.Chemscore.Internal_Hbond.Weighted>
0.0000

> <Gold.Chemscore.DEClash.Weighted>
0.0354

> <Gold.Chemscore.DEInternal.Weighted>
3.2700

> <Gold.Chemscore.Rot.Weighted>
4.2981

> <Gold.Chemscore.Internal.Correction.Weighted>
   9.000000E+99

> <Gold.Protein.RotatedTorsions>
[ 6907 6896 6895 6894 ] final  -36.86 input  -60.11 | X-H torsion
[ 7974 7965 7964 7962 ] final  163.28 input  175.53 | X-H torsion
[ 8008 7997 7996 7995 ] final  153.98 input   59.86 | X-H torsion
[ 10167 10162 10161 10158 ] final  -57.33 input  -65.29 | X-H torsion
[ 10718 10713 10712 10709 ] final -170.36 input   66.30 | X-H torsion
[ 10763 10752 10751 10750 ] final    1.29 input  -60.55 | X-H torsion
[ 11005 11000 10999 10996 ] final   46.84 input  -57.11 | X-H torsion

> <Gold.Protein.ActiveResidues>
 VAL166  LYS551  ARG553  GLY616  TRP617  ASP618  TYR619  PRO620  LYS621  CYS622 
 ASP623  PHE694  ASN695  SER759  ASP760  ASP761  ALA762  ILE779  LEU786  VAL792 
 PHE793  MET794  SER795  GLU796  ALA797  LYS798  CYS799  TRP800  GLU811  SER814 

> <Gold.Protein.RotatedAtoms>
  151.0219  134.9475  159.8063 H   0  0  0  0  0  0  0  0  0  0  0  0  # atno 6907 bound_to 6896
  152.5327  134.2893  159.9047 H   0  0  0  0  0  0  0  0  0  0  0  0  # atno 6908 bound_to 6896
  151.2900  133.4128  159.2666 H   0  0  0  0  0  0  0  0  0  0  0  0  # atno 6909 bound_to 6896
  144.7597  139.8160  143.6337 H   0  0  0  0  0  0  0  0  0  0  0  0  # atno 7974 bound_to 7965
  156.2554  140.1979  156.6575 H   0  0  0  0  0  0  0  0  0  0  0  0  # atno 8008 bound_to 7997
  154.6489  140.0574  156.9958 H   0  0  0  0  0  0  0  0  0  0  0  0  # atno 8009 bound_to 7997
  155.1448  140.3246  155.4447 H   0  0  0  0  0  0  0  0  0  0  0  0  # atno 8010 bound_to 7997
  140.6264  143.2440  151.5352 H   0  0  0  0  0  0  0  0  0  0  0  0  # atno 10167 bound_to 10162
  156.7250  130.9284  151.3100 H   0  0  0  0  0  0  0  0  0  0  0  0  # atno 10718 bound_to 10713
  153.3099  135.6962  153.7125 H   0  0  0  0  0  0  0  0  0  0  0  0  # atno 10763 bound_to 10752
  153.6006  135.3463  155.2944 H   0  0  0  0  0  0  0  0  0  0  0  0  # atno 10764 bound_to 10752
  154.8572  135.4339  154.2235 H   0  0  0  0  0  0  0  0  0  0  0  0  # atno 10765 bound_to 10752
  140.1333  134.4678  155.8505 H   0  0  0  0  0  0  0  0  0  0  0  0  # atno 11005 bound_to 11000
  146.1646  139.4773  142.9966 LP  0  0  0  0  0  0  0  0  0  0  0  0  # atno 17320 bound_to 7965
  145.6661  141.0228  143.1683 LP  0  0  0  0  0  0  0  0  0  0  0  0  # atno 17321 bound_to 7965
  139.5484  144.2460  152.1485 LP  0  0  0  0  0  0  0  0  0  0  0  0  # atno 17342 bound_to 10162
  140.1693  144.4951  150.6588 LP  0  0  0  0  0  0  0  0  0  0  0  0  # atno 17343 bound_to 10162
  157.6882  130.9207  150.0443 LP  0  0  0  0  0  0  0  0  0  0  0  0  # atno 17370 bound_to 10713
  156.1568  130.3643  149.9357 LP  0  0  0  0  0  0  0  0  0  0  0  0  # atno 17371 bound_to 10713
  141.2174  133.6804  156.7110 LP  0  0  0  0  0  0  0  0  0  0  0  0  # atno 17394 bound_to 11000
  140.2815  134.8313  157.3937 LP  0  0  0  0  0  0  0  0  0  0  0  0  # atno 17395 bound_to 11000

$$$$
