AV-unprocessed.smi:1146|AV-procd|sdf|4886|dock3
  -GOLD-   22720 3463D 1   1.00000     0.00000
 Structure written by MMmdl.
 46 47  0  0  0  0  0  0  0  0  1 V2000
  152.6283  144.7436  158.1607 C   0  0  0  0  0  0  0  0  0  0  0  0
  152.0514  143.9937  159.3678 C   0  0  0  0  0  0  0  0  0  0  0  0
  151.8007  142.5901  159.0496 N   0  0  0  0  0  0  0  0  0  0  0  0
  150.8596  142.1124  158.2023 C   0  0  0  0  0  0  0  0  0  0  0  0
  150.0562  142.7889  157.5606 O   0  0  0  0  0  0  0  0  0  0  0  0
  150.9538  140.7616  158.1847 N   0  0  0  0  0  0  0  0  0  0  0  0
  150.1159  139.8438  157.4079 C   0  0  0  0  0  0  0  0  0  0  0  0
  150.5001  139.7499  155.9074 C   0  0  0  0  0  0  0  0  0  0  0  0
  151.9602  139.3277  155.6524 C   0  0  0  0  0  0  0  0  0  0  0  0
  149.5368  138.7958  155.1810 C   0  0  0  0  0  0  0  0  0  0  0  0
  150.2916  141.0171  155.3157 O   0  0  0  0  0  0  0  0  0  0  0  0
  151.9780  140.3631  159.0589 C   0  0  0  0  0  0  0  0  0  0  0  0
  152.4668  139.0878  159.3934 C   0  0  0  0  0  0  0  0  0  0  0  0
  153.5317  139.0362  160.3238 C   0  0  0  0  0  0  0  0  0  0  0  0
  154.2072  137.4547  160.8115 S   0  0  0  0  0  0  0  0  0  0  0  0
  154.8140  137.5686  162.1473 O   0  0  0  0  0  0  0  0  0  0  0  0
  153.1767  136.4385  160.5468 O   0  0  0  0  0  0  0  0  0  0  0  0
  155.4866  137.2301  159.6647 N   0  0  0  0  0  0  0  0  0  0  0  0
  156.6855  138.0641  159.7983 C   0  0  0  0  0  0  0  0  0  0  0  0
  155.1084  136.9415  158.2781 C   0  0  0  0  0  0  0  0  0  0  0  0
  154.0717  140.2171  160.8962 C   0  0  0  0  0  0  0  0  0  0  0  0
  153.5600  141.4856  160.5375 C   0  0  0  0  0  0  0  0  0  0  0  0
  152.5079  141.5148  159.6049 C   0  0  0  0  0  0  0  0  0  0  0  0
  152.8162  145.7886  158.4078 H   0  0  0  0  0  0  0  0  0  0  0  0
  151.9398  144.7205  157.3154 H   0  0  0  0  0  0  0  0  0  0  0  0
  153.5726  144.3043  157.8375 H   0  0  0  0  0  0  0  0  0  0  0  0
  152.7408  144.0639  160.2105 H   0  0  0  0  0  0  0  0  0  0  0  0
  151.1264  144.4681  159.6961 H   0  0  0  0  0  0  0  0  0  0  0  0
  150.1939  138.8556  157.8610 H   0  0  0  0  0  0  0  0  0  0  0  0
  149.0656  140.1203  157.5178 H   0  0  0  0  0  0  0  0  0  0  0  0
  152.1722  138.3565  156.1001 H   0  0  0  0  0  0  0  0  0  0  0  0
  152.6719  140.0454  156.0614 H   0  0  0  0  0  0  0  0  0  0  0  0
  152.1660  139.2470  154.5845 H   0  0  0  0  0  0  0  0  0  0  0  0
  149.6247  137.7791  155.5658 H   0  0  0  0  0  0  0  0  0  0  0  0
  149.7423  138.7591  154.1103 H   0  0  0  0  0  0  0  0  0  0  0  0
  148.4982  139.1056  155.3056 H   0  0  0  0  0  0  0  0  0  0  0  0
  149.5874  141.4518  155.7725 H   0  0  0  0  0  0  0  0  0  0  0  0
  152.0522  138.1911  158.9584 H   0  0  0  0  0  0  0  0  0  0  0  0
  157.4743  137.7165  159.1305 H   0  0  0  0  0  0  0  0  0  0  0  0
  157.0687  138.0229  160.8178 H   0  0  0  0  0  0  0  0  0  0  0  0
  156.4517  139.1010  159.5547 H   0  0  0  0  0  0  0  0  0  0  0  0
  155.9604  136.5523  157.7197 H   0  0  0  0  0  0  0  0  0  0  0  0
  154.7514  137.8477  157.7880 H   0  0  0  0  0  0  0  0  0  0  0  0
  154.3141  136.1955  158.2477 H   0  0  0  0  0  0  0  0  0  0  0  0
  154.8798  140.1482  161.6096 H   0  0  0  0  0  0  0  0  0  0  0  0
  153.9636  142.3911  160.9658 H   0  0  0  0  0  0  0  0  0  0  0  0
  1  2  1  0  0  0  0
  1 24  1  0  0  0  0
  1 25  1  0  0  0  0
  1 26  1  0  0  0  0
  2  3  1  0  0  0  0
  2 27  1  0  0  0  0
  2 28  1  0  0  0  0
  3 23  1  0  0  0  0
  3  4  1  0  0  0  0
  4  5  2  0  0  0  0
  4  6  1  0  0  0  0
  6  7  1  0  0  0  0
  6 12  1  0  0  0  0
  7  8  1  0  0  0  0
  7 29  1  0  0  0  0
  7 30  1  0  0  0  0
  8  9  1  0  0  0  0
  8 10  1  0  0  0  0
  8 11  1  0  0  0  0
  9 31  1  0  0  0  0
  9 32  1  0  0  0  0
  9 33  1  0  0  0  0
 10 34  1  0  0  0  0
 10 35  1  0  0  0  0
 10 36  1  0  0  0  0
 11 37  1  0  0  0  0
 12 23  2  0  0  0  0
 12 13  1  0  0  0  0
 13 14  2  0  0  0  0
 13 38  1  0  0  0  0
 14 15  1  0  0  0  0
 14 21  1  0  0  0  0
 15 16  2  0  0  0  0
 15 17  2  0  0  0  0
 15 18  1  0  0  0  0
 18 19  1  0  0  0  0
 18 20  1  0  0  0  0
 19 39  1  0  0  0  0
 19 40  1  0  0  0  0
 19 41  1  0  0  0  0
 20 42  1  0  0  0  0
 20 43  1  0  0  0  0
 20 44  1  0  0  0  0
 21 22  2  0  0  0  0
 21 45  1  0  0  0  0
 22 23  1  0  0  0  0
 22 46  1  0  0  0  0
M  END
> <s_m_source_file>
AV-unprocessed.smi

> <i_m_source_file_index>
1146

> <i_lp_mmshare_version>
43012

> <i_f3d_flags>
0

> <s_epik_input>
W0NIM11DKFtDSDNdKShbT0hdKVtDSDJdbjFjKD1PKW4oW0NIMl1bQ0gzXSljKGMxMilbY0hdW2NIXWMoW2NIXTIpUyg9TykoPU8pTihbQ0gzXSlbQ0gzXQ==

> <s_epik_cmdline>
J2VwaWtfcHl0aG9uJywgJy1waCcsICc3LjAnLCAnLXRuJywgJzgnLCAnLW1hJywgJzIwMCcsICctbWV0YWxfYmluZGluZycsICctaW1hZScsICc8aW5maWxlLm1hZT4nLCAnLW9tYWUnLCAnPG91dGZpbGUubWFlPic=

> <r_lp_tautomer_probability>
1

> <r_epik_Ionization_Penalty>
3.29736e-08

> <r_epik_Ionization_Penalty_Charging>
1.95861e-09

> <r_epik_Ionization_Penalty_Neutral>
3.1015e-08

> <r_epik_State_Penalty>
-0

> <r_epik_Charging_Adjusted_Penalty>
1.95861e-09

> <i_epik_Tot_Q>
0

> <i_epik_Tot_abs_Q>
0

> <r_epik_Metal_State_Penalty>
-0

> <b_epik_Metal_Only>
0

> <s_lp_Force_Field>
OPLS_2005

> <r_lp_Energy>
36.7985

> <b_lp_Chiralities_Consistent>
1

> <s_lp_Variant>
AV-unprocessed.smi:1146-1

> <Gold.Version>
5.8.1

> <Gold.Id.Protein>
6NUR|6NUR_protein|mol2

> <Gold.PLP.Fitness>
45.4551

> <Gold.PLP.PLP>
-40.6836

> <Gold.PLP.part.hbond>
-2.0000

> <Gold.PLP.part.metal>
0.0000

> <Gold.PLP.part.buried>
-4.6637

> <Gold.PLP.part.nonpolar>
-34.9818

> <Gold.PLP.part.repulsive>
0.3442

> <Gold.PLP.ligand.clash>
0.0000

> <Gold.PLP.ligand.torsion>
1.6835

> <Gold.PLP.Chemscore.Hbond>
1.7750

> <Gold.PLP.Chemscore.CHOScore>
0.0000

> <Gold.PLP.Chemscore.Metal>
0.0000

> <Gold.Chemscore.Hbonds>
donor molecule, donor type, donor heavy atom, donor atom, acceptor molecule, acceptor atom, score
      P1  H  6896  6909       L1    17  1.00
      P1  H  7989  7998       L1    11  0.33

> <Gold.PLP.Chemscore.Internal.Correction>
2.8134

> <Gold.Rescore>
     Score         DG    S(hbond)    S(metal)    S(lipo)     H(rot)  DE(clash)    DE(int)     intcor
     16.12     -17.99       1.95        0.00      95.86       2.04       0.04       1.84       ----

> <Gold.Chemscore.Fitness>
16.1174

> <Gold.Chemscore.DG>
-17.9937

> <Gold.Chemscore.ZeroCoef>
-5.4800

> <Gold.Chemscore.Hbond>
1.9508

> <Gold.Chemscore.Metal>
0.0000

> <Gold.Chemscore.Lipo>
95.8634

> <Gold.Chemscore.Internal_Hbond>
0.0000

> <Gold.Chemscore.DEClash>
0.0368

> <Gold.Chemscore.DEInternal>
1.8394

> <Gold.Chemscore.Rot>
2.0383

> <Gold.Chemscore.Internal.Correction>
   9.000000E+99

> <Gold.Chemscore.Hbonds>
donor molecule, donor type, donor heavy atom, donor atom, acceptor molecule, acceptor atom, score
      P1  H  6896  6909       L1    17  1.00
      P1  H  7989  7998       L1    11  0.11

> <Gold.Chemscore.Hbond.Weighted>
-6.5158

> <Gold.Chemscore.Metal.Weighted>
-0.0000

> <Gold.Chemscore.Lipo.Weighted>
-11.2160

> <Gold.Chemscore.Internal_Hbond.Weighted>
0.0000

> <Gold.Chemscore.DEClash.Weighted>
0.0368

> <Gold.Chemscore.DEInternal.Weighted>
1.8394

> <Gold.Chemscore.Rot.Weighted>
5.2181

> <Gold.Chemscore.Internal.Correction.Weighted>
   9.000000E+99

> <Gold.Protein.RotatedTorsions>
[ 6907 6896 6895 6894 ] final  153.68 input  -60.11 | X-H torsion
[ 7974 7965 7964 7962 ] final -126.61 input  175.53 | X-H torsion
[ 8008 7997 7996 7995 ] final  -19.95 input   59.86 | X-H torsion
[ 10167 10162 10161 10158 ] final  159.95 input  -65.29 | X-H torsion
[ 10718 10713 10712 10709 ] final  173.76 input   66.30 | X-H torsion
[ 10763 10752 10751 10750 ] final  -28.70 input  -60.55 | X-H torsion
[ 11005 11000 10999 10996 ] final -110.14 input  -57.11 | X-H torsion

> <Gold.Protein.ActiveResidues>
 VAL166  LYS551  ARG553  GLY616  TRP617  ASP618  TYR619  PRO620  LYS621  CYS622 
 ASP623  PHE694  ASN695  SER759  ASP760  ASP761  ALA762  ILE779  LEU786  VAL792 
 PHE793  MET794  SER795  GLU796  ALA797  LYS798  CYS799  TRP800  GLU811  SER814 

> <Gold.Protein.RotatedAtoms>
  152.0693  133.4099  159.4451 H   0  0  0  0  0  0  0  0  0  0  0  0  # atno 6907 bound_to 6896
  150.6864  134.3110  159.4755 H   0  0  0  0  0  0  0  0  0  0  0  0  # atno 6908 bound_to 6896
  152.0940  134.9387  160.0622 H   0  0  0  0  0  0  0  0  0  0  0  0  # atno 6909 bound_to 6896
  144.9855  140.7682  143.4586 H   0  0  0  0  0  0  0  0  0  0  0  0  # atno 7974 bound_to 7965
  154.4802  140.2075  155.9782 H   0  0  0  0  0  0  0  0  0  0  0  0  # atno 8008 bound_to 7997
  156.1153  140.3222  155.8100 H   0  0  0  0  0  0  0  0  0  0  0  0  # atno 8009 bound_to 7997
  155.4564  140.0521  157.2986 H   0  0  0  0  0  0  0  0  0  0  0  0  # atno 8010 bound_to 7997
  139.4836  144.4681  151.8613 H   0  0  0  0  0  0  0  0  0  0  0  0  # atno 10167 bound_to 10162
  156.9596  131.0056  151.2930 H   0  0  0  0  0  0  0  0  0  0  0  0  # atno 10718 bound_to 10713
  153.7526  135.6925  153.4942 H   0  0  0  0  0  0  0  0  0  0  0  0  # atno 10763 bound_to 10752
  153.1993  135.4442  155.0245 H   0  0  0  0  0  0  0  0  0  0  0  0  # atno 10764 bound_to 10752
  154.8182  135.3409  154.7046 H   0  0  0  0  0  0  0  0  0  0  0  0  # atno 10765 bound_to 10752
  141.0808  133.9222  157.2291 H   0  0  0  0  0  0  0  0  0  0  0  0  # atno 11005 bound_to 11000
  145.2360  139.2094  143.5018 LP  0  0  0  0  0  0  0  0  0  0  0  0  # atno 17320 bound_to 7965
  146.3419  140.2246  142.8592 LP  0  0  0  0  0  0  0  0  0  0  0  0  # atno 17321 bound_to 7965
  140.4148  144.2321  150.5888 LP  0  0  0  0  0  0  0  0  0  0  0  0  # atno 17342 bound_to 10162
  140.4931  143.2341  151.8789 LP  0  0  0  0  0  0  0  0  0  0  0  0  # atno 17343 bound_to 10162
  157.5667  130.8282  149.8337 LP  0  0  0  0  0  0  0  0  0  0  0  0  # atno 17370 bound_to 10713
  156.0328  130.3760  150.1641 LP  0  0  0  0  0  0  0  0  0  0  0  0  # atno 17371 bound_to 10713
  139.9622  135.0151  156.9292 LP  0  0  0  0  0  0  0  0  0  0  0  0  # atno 17394 bound_to 11000
  140.5471  134.0663  155.7358 LP  0  0  0  0  0  0  0  0  0  0  0  0  # atno 17395 bound_to 11000

$$$$
