AV-unprocessed.smi:2281|AV-procd|sdf|9193|dock7
  -GOLD-   2272012413D 1   1.00000     0.00000
 Structure written by MMmdl.
 40 41  0  0  0  0  0  0  0  0  1 V2000
  154.8561  140.0345  160.5680 C   0  0  0  0  0  0  0  0  0  0  0  0
  153.6920  140.6524  159.8138 C   0  0  0  0  0  0  0  0  0  0  0  0
  153.3881  140.0630  158.5838 N   0  0  0  0  0  0  0  0  0  0  0  0
  152.4189  140.5301  157.8671 C   0  0  0  0  0  0  0  0  0  0  0  0
  151.6534  141.6321  158.2837 N   0  0  0  0  0  0  0  0  0  0  0  0
  150.5712  142.0523  157.3697 C   0  0  0  0  0  0  0  0  0  0  0  0
  149.2319  141.2654  157.5170 C   0  0  1  0  0  0  0  0  0  0  0  0
  149.3916  139.7345  157.6485 C   0  0  0  0  0  0  0  0  0  0  0  0
  148.6591  141.6828  158.7444 O   0  0  0  0  0  0  0  0  0  0  0  0
  148.3179  141.5989  156.3281 C   0  0  0  0  0  0  0  0  0  0  0  0
  148.6829  141.2898  154.9953 C   0  0  0  0  0  0  0  0  0  0  0  0
  147.8215  141.6015  153.9265 C   0  0  0  0  0  0  0  0  0  0  0  0
  146.5850  142.2249  154.1733 C   0  0  0  0  0  0  0  0  0  0  0  0
  146.2027  142.5440  155.4924 C   0  0  0  0  0  0  0  0  0  0  0  0
  144.8584  143.2058  155.7576 C   0  0  0  0  0  0  0  0  0  0  0  0
  144.7218  143.5267  157.0447 F   0  0  0  0  0  0  0  0  0  0  0  0
  144.7337  144.3197  155.0352 F   0  0  0  0  0  0  0  0  0  0  0  0
  143.8823  142.3638  155.4203 F   0  0  0  0  0  0  0  0  0  0  0  0
  147.0695  142.2234  156.5598 C   0  0  0  0  0  0  0  0  0  0  0  0
  151.8667  142.2478  159.4844 C   0  0  0  0  0  0  0  0  0  0  0  0
  151.1746  143.1961  159.8594 O   0  0  0  0  0  0  0  0  0  0  0  0
  152.9776  141.7097  160.2861 C   0  0  0  0  0  0  0  0  0  0  0  0
  153.2646  142.3940  161.6170 C   0  0  0  0  0  0  0  0  0  0  0  0
  155.6360  140.7764  160.7417 H   0  0  0  0  0  0  0  0  0  0  0  0
  155.2990  139.2094  160.0090 H   0  0  0  0  0  0  0  0  0  0  0  0
  154.5235  139.6453  161.5305 H   0  0  0  0  0  0  0  0  0  0  0  0
  152.1387  140.1030  156.9026 H   0  0  0  0  0  0  0  0  0  0  0  0
  150.3818  143.1241  157.4614 H   0  0  0  0  0  0  0  0  0  0  0  0
  150.9375  141.9530  156.3469 H   0  0  0  0  0  0  0  0  0  0  0  0
  149.8965  139.3001  156.7862 H   0  0  0  0  0  0  0  0  0  0  0  0
  148.4198  139.2469  157.7350 H   0  0  0  0  0  0  0  0  0  0  0  0
  149.9655  139.4585  158.5337 H   0  0  0  0  0  0  0  0  0  0  0  0
  149.3031  141.5788  159.4278 H   0  0  0  0  0  0  0  0  0  0  0  0
  149.6223  140.8085  154.7690 H   0  0  0  0  0  0  0  0  0  0  0  0
  148.1098  141.3592  152.9142 H   0  0  0  0  0  0  0  0  0  0  0  0
  145.9294  142.4537  153.3460 H   0  0  0  0  0  0  0  0  0  0  0  0
  146.7694  142.4530  157.5714 H   0  0  0  0  0  0  0  0  0  0  0  0
  153.5404  143.4359  161.4508 H   0  0  0  0  0  0  0  0  0  0  0  0
  154.0725  141.9248  162.1761 H   0  0  0  0  0  0  0  0  0  0  0  0
  152.3765  142.3758  162.2494 H   0  0  0  0  0  0  0  0  0  0  0  0
  1  2  1  0  0  0  0
  1 24  1  0  0  0  0
  1 25  1  0  0  0  0
  1 26  1  0  0  0  0
  2 22  2  0  0  0  0
  2  3  1  0  0  0  0
  3  4  2  0  0  0  0
  4  5  1  0  0  0  0
  4 27  1  0  0  0  0
  5  6  1  0  0  0  0
  5 20  1  0  0  0  0
  6  7  1  0  0  0  0
  6 28  1  0  0  0  0
  6 29  1  0  0  0  0
  7  8  1  0  0  0  0
  7  9  1  0  0  0  0
  7 10  1  0  0  0  0
  8 30  1  0  0  0  0
  8 31  1  0  0  0  0
  8 32  1  0  0  0  0
  9 33  1  0  0  0  0
 10 19  1  0  0  0  0
 10 11  2  0  0  0  0
 11 12  1  0  0  0  0
 11 34  1  0  0  0  0
 12 13  2  0  0  0  0
 12 35  1  0  0  0  0
 13 14  1  0  0  0  0
 13 36  1  0  0  0  0
 14 15  1  0  0  0  0
 14 19  2  0  0  0  0
 15 16  1  0  0  0  0
 15 17  1  0  0  0  0
 15 18  1  0  0  0  0
 19 37  1  0  0  0  0
 20 21  2  0  0  0  0
 20 22  1  0  0  0  0
 22 23  1  0  0  0  0
 23 38  1  0  0  0  0
 23 39  1  0  0  0  0
 23 40  1  0  0  0  0
M  END
> <s_m_source_file>
AV-unprocessed.smi

> <i_m_source_file_index>
2281

> <i_lp_mmshare_version>
43012

> <i_f3d_flags>
0

> <s_epik_input>
W0NIM11jMW5bY0hdbihjKD1PKWMxW0NIM10pW0NIMl1bQ0BAXShbQ0gzXSkoW09IXSljMltjSF1bY0hdW2NIXWMoQyhGKShGKUYpW2NIXTI=

> <s_epik_cmdline>
J2VwaWtfcHl0aG9uJywgJy1waCcsICc3LjAnLCAnLXRuJywgJzgnLCAnLW1hJywgJzIwMCcsICctbWV0YWxfYmluZGluZycsICctaW1hZScsICc8aW5maWxlLm1hZT4nLCAnLW9tYWUnLCAnPG91dGZpbGUubWFlPic=

> <r_lp_tautomer_probability>
1

> <r_epik_Ionization_Penalty>
5.68222e-05

> <r_epik_Ionization_Penalty_Charging>
9.07816e-08

> <r_epik_Ionization_Penalty_Neutral>
5.67314e-05

> <r_epik_State_Penalty>
-0

> <r_epik_Charging_Adjusted_Penalty>
9.07816e-08

> <i_epik_Tot_Q>
0

> <i_epik_Tot_abs_Q>
0

> <r_epik_Metal_State_Penalty>
-0

> <b_epik_Metal_Only>
0

> <s_lp_Force_Field>
OPLS_2005

> <r_lp_Energy>
23.727

> <b_lp_Chiralities_Consistent>
1

> <s_lp_Variant>
AV-unprocessed.smi:2281-1

> <Gold.Version>
5.8.1

> <Gold.Id.Protein>
6NUR|6NUR_protein|mol2

> <Gold.PLP.Fitness>
45.1062

> <Gold.PLP.PLP>
-43.1448

> <Gold.PLP.part.hbond>
-2.2684

> <Gold.PLP.part.metal>
0.0000

> <Gold.PLP.part.buried>
-4.8956

> <Gold.PLP.part.nonpolar>
-34.6942

> <Gold.PLP.part.repulsive>
0.0443

> <Gold.PLP.ligand.clash>
0.7740

> <Gold.PLP.ligand.torsion>
0.6009

> <Gold.PLP.Chemscore.Hbond>
0.9600

> <Gold.PLP.Chemscore.CHOScore>
0.0000

> <Gold.PLP.Chemscore.Metal>
0.0000

> <Gold.Chemscore.Hbonds>
donor molecule, donor type, donor heavy atom, donor atom, acceptor molecule, acceptor atom, score
      P1  H  7997  8010       L1     3  0.60

> <Gold.PLP.Chemscore.Internal.Correction>
1.0571

> <Gold.Rescore>
     Score         DG    S(hbond)    S(metal)    S(lipo)     H(rot)  DE(clash)    DE(int)     intcor
     10.73     -11.67       0.59        0.00      81.58       2.09       0.24       0.70       ----

> <Gold.Chemscore.Fitness>
10.7298

> <Gold.Chemscore.DG>
-11.6683

> <Gold.Chemscore.ZeroCoef>
-5.4800

> <Gold.Chemscore.Hbond>
0.5938

> <Gold.Chemscore.Metal>
0.0000

> <Gold.Chemscore.Lipo>
81.5823

> <Gold.Chemscore.Internal_Hbond>
0.0000

> <Gold.Chemscore.DEClash>
0.2394

> <Gold.Chemscore.DEInternal>
0.6991

> <Gold.Chemscore.Rot>
2.0860

> <Gold.Chemscore.Internal.Correction>
   9.000000E+99

> <Gold.Chemscore.Hbonds>
donor molecule, donor type, donor heavy atom, donor atom, acceptor molecule, acceptor atom, score
      P1  H  7997  8010       L1     3  0.04

> <Gold.Chemscore.Hbond.Weighted>
-1.9834

> <Gold.Chemscore.Metal.Weighted>
-0.0000

> <Gold.Chemscore.Lipo.Weighted>
-9.5451

> <Gold.Chemscore.Internal_Hbond.Weighted>
0.0000

> <Gold.Chemscore.DEClash.Weighted>
0.2394

> <Gold.Chemscore.DEInternal.Weighted>
0.6991

> <Gold.Chemscore.Rot.Weighted>
5.3402

> <Gold.Chemscore.Internal.Correction.Weighted>
   9.000000E+99

> <Gold.Protein.RotatedTorsions>
[ 6907 6896 6895 6894 ] final -142.26 input  -60.11 | X-H torsion
[ 7974 7965 7964 7962 ] final -150.39 input  175.53 | X-H torsion
[ 8008 7997 7996 7995 ] final   33.46 input   59.86 | X-H torsion
[ 10167 10162 10161 10158 ] final  124.85 input  -65.29 | X-H torsion
[ 10718 10713 10712 10709 ] final  -71.91 input   66.30 | X-H torsion
[ 10763 10752 10751 10750 ] final   78.68 input  -60.55 | X-H torsion
[ 11005 11000 10999 10996 ] final   65.29 input  -57.11 | X-H torsion

> <Gold.Protein.ActiveResidues>
 VAL166  LYS551  ARG553  GLY616  TRP617  ASP618  TYR619  PRO620  LYS621  CYS622 
 ASP623  PHE694  ASN695  SER759  ASP760  ASP761  ALA762  ILE779  LEU786  VAL792 
 PHE793  MET794  SER795  GLU796  ALA797  LYS798  CYS799  TRP800  GLU811  SER814 

> <Gold.Protein.RotatedAtoms>
  151.0847  133.5363  159.2618 H   0  0  0  0  0  0  0  0  0  0  0  0  # atno 6907 bound_to 6896
  151.2253  135.0533  159.8976 H   0  0  0  0  0  0  0  0  0  0  0  0  # atno 6908 bound_to 6896
  152.5427  134.0643  159.8219 H   0  0  0  0  0  0  0  0  0  0  0  0  # atno 6909 bound_to 6896
  144.7910  140.4938  143.5772 H   0  0  0  0  0  0  0  0  0  0  0  0  # atno 7974 bound_to 7965
  155.1390  140.3264  155.4456 H   0  0  0  0  0  0  0  0  0  0  0  0  # atno 8008 bound_to 7997
  156.2610  140.1997  156.6456 H   0  0  0  0  0  0  0  0  0  0  0  0  # atno 8009 bound_to 7997
  154.6556  140.0553  156.9991 H   0  0  0  0  0  0  0  0  0  0  0  0  # atno 8010 bound_to 7997
  139.5718  144.6943  151.3758 H   0  0  0  0  0  0  0  0  0  0  0  0  # atno 10167 bound_to 10162
  156.0343  130.4361  150.2514 H   0  0  0  0  0  0  0  0  0  0  0  0  # atno 10718 bound_to 10713
  153.0893  135.4868  154.8659 H   0  0  0  0  0  0  0  0  0  0  0  0  # atno 10763 bound_to 10752
  154.7250  135.3047  154.8989 H   0  0  0  0  0  0  0  0  0  0  0  0  # atno 10764 bound_to 10752
  153.9641  135.6809  153.4799 H   0  0  0  0  0  0  0  0  0  0  0  0  # atno 10765 bound_to 10752
  139.9904  134.6601  156.0101 H   0  0  0  0  0  0  0  0  0  0  0  0  # atno 11005 bound_to 11000
  145.5794  139.1488  143.3244 LP  0  0  0  0  0  0  0  0  0  0  0  0  # atno 17320 bound_to 7965
  146.2162  140.5924  142.9037 LP  0  0  0  0  0  0  0  0  0  0  0  0  # atno 17321 bound_to 7965
  140.7002  143.7650  150.7391 LP  0  0  0  0  0  0  0  0  0  0  0  0  # atno 17342 bound_to 10162
  140.1158  143.4657  152.2343 LP  0  0  0  0  0  0  0  0  0  0  0  0  # atno 17343 bound_to 10162
  157.0614  131.0091  151.3221 LP  0  0  0  0  0  0  0  0  0  0  0  0  # atno 17370 bound_to 10713
  157.5067  130.7913  149.7662 LP  0  0  0  0  0  0  0  0  0  0  0  0  # atno 17371 bound_to 10713
  141.1561  133.6543  156.4165 LP  0  0  0  0  0  0  0  0  0  0  0  0  # atno 17394 bound_to 11000
  140.4920  134.6567  157.5214 LP  0  0  0  0  0  0  0  0  0  0  0  0  # atno 17395 bound_to 11000

$$$$
