AV-unprocessed.smi:620|AV-procd|sdf|3088|dock6
  -GOLD-   22720 0 13D 1   1.00000     0.00000
 Structure written by MMmdl.
 32 34  0  0  0  0  0  0  0  0  2 V2000
  150.2995  134.9976  156.9606 C   0  0  0  0  0  0  0  0  0  0  0  0
  151.2548  136.1406  157.0041 C   0  0  0  0  0  0  0  0  0  0  0  0
  152.2809  136.2624  156.1608 N   0  0  0  0  0  0  0  0  0  0  0  0
  153.0225  137.4075  156.4061 N   0  0  0  0  0  0  0  0  0  0  0  0
  152.5544  138.1454  157.4300 C   0  0  0  0  0  0  0  0  0  0  0  0
  153.0790  139.3043  157.8889 N   0  5  0  0  0  0  0  0  0  0  0  0
  152.3764  140.4319  158.1694 C   0  0  0  0  0  0  0  0  0  0  0  0
  151.2772  140.7597  157.7185 O   0  0  0  0  0  0  0  0  0  0  0  0
  153.0061  141.2353  159.0404 N   0  0  0  0  0  0  0  0  0  0  0  0
  152.5399  142.5215  159.5534 C   0  0  0  0  0  0  0  0  0  0  0  0
  152.7959  143.6459  158.5664 C   0  0  0  0  0  0  0  0  0  0  0  0
  152.1980  145.0191  158.7622 C   0  0  0  0  0  0  0  0  0  0  0  0
  151.7060  144.1310  157.6413 C   0  0  0  0  0  0  0  0  0  0  0  0
  153.1564  142.8465  160.9018 C   0  0  0  0  0  0  0  0  0  0  0  0
  152.5242  142.3598  162.1834 C   0  0  0  0  0  0  0  0  0  0  0  0
  152.5124  143.8340  161.8460 C   0  0  0  0  0  0  0  0  0  0  0  0
  151.1196  137.4396  158.1748 S   0  0  0  0  0  0  0  0  0  0  0  0
  150.5595  134.3089  156.1560 H   0  0  0  0  0  0  0  0  0  0  0  0
  149.2870  135.3646  156.7929 H   0  0  0  0  0  0  0  0  0  0  0  0
  150.3245  134.4556  157.9060 H   0  0  0  0  0  0  0  0  0  0  0  0
  153.9026  140.9187  159.3795 H   0  0  0  0  0  0  0  0  0  0  0  0
  151.4600  142.4814  159.7062 H   0  0  0  0  0  0  0  0  0  0  0  0
  153.7983  143.6278  158.1422 H   0  0  0  0  0  0  0  0  0  0  0  0
  151.5298  145.1707  159.6075 H   0  0  0  0  0  0  0  0  0  0  0  0
  152.8117  145.8763  158.4935 H   0  0  0  0  0  0  0  0  0  0  0  0
  151.9920  144.3946  156.6251 H   0  0  0  0  0  0  0  0  0  0  0  0
  150.7180  143.6870  157.7475 H   0  0  0  0  0  0  0  0  0  0  0  0
  154.2450  142.8534  160.8883 H   0  0  0  0  0  0  0  0  0  0  0  0
  151.5827  141.8188  162.1090 H   0  0  0  0  0  0  0  0  0  0  0  0
  153.1911  142.0284  162.9766 H   0  0  0  0  0  0  0  0  0  0  0  0
  153.1711  144.4864  162.4152 H   0  0  0  0  0  0  0  0  0  0  0  0
  151.5588  144.2712  161.5572 H   0  0  0  0  0  0  0  0  0  0  0  0
  1  2  1  0  0  0  0
  1 18  1  0  0  0  0
  1 19  1  0  0  0  0
  1 20  1  0  0  0  0
  2 17  1  0  0  0  0
  2  3  2  0  0  0  0
  3  4  1  0  0  0  0
  4  5  2  0  0  0  0
  5  6  1  0  0  0  0
  5 17  1  0  0  0  0
  6  7  1  0  0  0  0
  7  8  2  0  0  0  0
  7  9  1  0  0  0  0
  9 10  1  0  0  0  0
  9 21  1  0  0  0  0
 10 11  1  0  0  0  0
 10 14  1  0  0  0  0
 10 22  1  0  0  0  0
 11 13  1  0  0  0  0
 11 12  1  0  0  0  0
 11 23  1  0  0  0  0
 12 13  1  0  0  0  0
 12 24  1  0  0  0  0
 12 25  1  0  0  0  0
 13 26  1  0  0  0  0
 13 27  1  0  0  0  0
 14 16  1  0  0  0  0
 14 15  1  0  0  0  0
 14 28  1  0  0  0  0
 15 16  1  0  0  0  0
 15 29  1  0  0  0  0
 15 30  1  0  0  0  0
 16 31  1  0  0  0  0
 16 32  1  0  0  0  0
M  CHG  1   6  -1
M  END
> <s_m_source_file>
AV-unprocessed.smi

> <i_m_source_file_index>
620

> <i_lp_mmshare_version>
43012

> <i_f3d_flags>
0

> <s_epik_input>
W0NIM11jMW5uYyhzMSlbTkhdQyg9TylbTkhdW0NIXShbQ0hdMltDSDJdW0NIMl0yKVtDSF0zW0NIMl1bQ0gyXTM=

> <s_epik_cmdline>
J2VwaWtfcHl0aG9uJywgJy1waCcsICc3LjAnLCAnLXRuJywgJzgnLCAnLW1hJywgJzIwMCcsICctbWV0YWxfYmluZGluZycsICctaW1hZScsICc8aW5maWxlLm1hZT4nLCAnLW9tYWUnLCAnPG91dGZpbGUubWFlPic=

> <r_lp_tautomer_probability>
1

> <r_epik_Ionization_Penalty>
4.60723

> <r_epik_Ionization_Penalty_Charging>
4.45392

> <r_epik_Ionization_Penalty_Neutral>
0.153307

> <r_epik_State_Penalty>
4.4536

> <r_epik_Charging_Adjusted_Penalty>
8.90752

> <i_epik_Tot_Q>
-1

> <i_epik_Tot_abs_Q>
1

> <r_epik_Metal_State_Penalty>
0.796734

> <b_epik_Metal_Only>
1

> <s_lp_Force_Field>
OPLS_2005

> <r_lp_Energy>
26.5225

> <b_lp_Chiralities_Consistent>
1

> <s_lp_Variant>
AV-unprocessed.smi:620-2

> <Gold.Version>
5.8.1

> <Gold.Id.Protein>
6NUR|6NUR_protein|mol2

> <Gold.PLP.Fitness>
45.1731

> <Gold.PLP.PLP>
-37.9668

> <Gold.PLP.part.hbond>
-2.7156

> <Gold.PLP.part.metal>
0.0000

> <Gold.PLP.part.buried>
-4.7998

> <Gold.PLP.part.nonpolar>
-30.6854

> <Gold.PLP.part.repulsive>
0.1089

> <Gold.PLP.ligand.clash>
0.0000

> <Gold.PLP.ligand.torsion>
1.9706

> <Gold.PLP.Chemscore.Hbond>
3.0000

> <Gold.PLP.Chemscore.CHOScore>
0.0000

> <Gold.PLP.Chemscore.Metal>
0.0000

> <Gold.Chemscore.Hbonds>
donor molecule, donor type, donor heavy atom, donor atom, acceptor molecule, acceptor atom, score
      P1  H  7997  8010       L1     6  1.76
      P1  H 10752 10764       L1     3  1.00

> <Gold.PLP.Chemscore.Internal.Correction>
2.1475

> <Gold.Rescore>
     Score         DG    S(hbond)    S(metal)    S(lipo)     H(rot)  DE(clash)    DE(int)     intcor
     16.81     -18.79       1.62        0.00      98.44       1.41       0.03       1.95       ----

> <Gold.Chemscore.Fitness>
16.8133

> <Gold.Chemscore.DG>
-18.7926

> <Gold.Chemscore.ZeroCoef>
-5.4800

> <Gold.Chemscore.Hbond>
1.6204

> <Gold.Chemscore.Metal>
0.0000

> <Gold.Chemscore.Lipo>
98.4366

> <Gold.Chemscore.Internal_Hbond>
0.0000

> <Gold.Chemscore.DEClash>
0.0324

> <Gold.Chemscore.DEInternal>
1.9468

> <Gold.Chemscore.Rot>
1.4127

> <Gold.Chemscore.Internal.Correction>
   9.000000E+99

> <Gold.Chemscore.Hbonds>
donor molecule, donor type, donor heavy atom, donor atom, acceptor molecule, acceptor atom, score
      P1  H  7997  8010       L1     6  0.13
      P1  H 10752 10764       L1     3  0.49

> <Gold.Chemscore.Hbond.Weighted>
-5.4120

> <Gold.Chemscore.Metal.Weighted>
-0.0000

> <Gold.Chemscore.Lipo.Weighted>
-11.5171

> <Gold.Chemscore.Internal_Hbond.Weighted>
0.0000

> <Gold.Chemscore.DEClash.Weighted>
0.0324

> <Gold.Chemscore.DEInternal.Weighted>
1.9468

> <Gold.Chemscore.Rot.Weighted>
3.6165

> <Gold.Chemscore.Internal.Correction.Weighted>
   9.000000E+99

> <Gold.Protein.RotatedTorsions>
[ 6907 6896 6895 6894 ] final  -54.80 input  -60.11 | X-H torsion
[ 7974 7965 7964 7962 ] final  -74.09 input  175.53 | X-H torsion
[ 8008 7997 7996 7995 ] final   63.18 input   59.86 | X-H torsion
[ 10167 10162 10161 10158 ] final  -75.21 input  -65.29 | X-H torsion
[ 10718 10713 10712 10709 ] final  117.25 input   66.30 | X-H torsion
[ 10763 10752 10751 10750 ] final  -40.06 input  -60.55 | X-H torsion
[ 11005 11000 10999 10996 ] final  173.79 input  -57.11 | X-H torsion

> <Gold.Protein.ActiveResidues>
 VAL166  LYS551  ARG553  GLY616  TRP617  ASP618  TYR619  PRO620  LYS621  CYS622 
 ASP623  PHE694  ASN695  SER759  ASP760  ASP761  ALA762  ILE779  LEU786  VAL792 
 PHE793  MET794  SER795  GLU796  ALA797  LYS798  CYS799  TRP800  GLU811  SER814 

> <Gold.Protein.RotatedAtoms>
  150.8307  134.7558  159.6850 H   0  0  0  0  0  0  0  0  0  0  0  0  # atno 6907 bound_to 6896
  152.4412  134.5584  159.9897 H   0  0  0  0  0  0  0  0  0  0  0  0  # atno 6908 bound_to 6896
  151.5746  133.3348  159.3032 H   0  0  0  0  0  0  0  0  0  0  0  0  # atno 6909 bound_to 6896
  145.6436  140.9304  143.1022 H   0  0  0  0  0  0  0  0  0  0  0  0  # atno 7974 bound_to 7965
  155.6261  140.3496  155.4668 H   0  0  0  0  0  0  0  0  0  0  0  0  # atno 8008 bound_to 7997
  156.0040  140.1219  157.0543 H   0  0  0  0  0  0  0  0  0  0  0  0  # atno 8009 bound_to 7997
  154.4258  140.1095  156.5723 H   0  0  0  0  0  0  0  0  0  0  0  0  # atno 8010 bound_to 7997
  140.4962  143.2370  151.7827 H   0  0  0  0  0  0  0  0  0  0  0  0  # atno 10167 bound_to 10162
  157.6108  131.1035  150.7589 H   0  0  0  0  0  0  0  0  0  0  0  0  # atno 10718 bound_to 10713
  153.9397  135.6762  153.4744 H   0  0  0  0  0  0  0  0  0  0  0  0  # atno 10763 bound_to 10752
  153.0937  135.4861  154.8736 H   0  0  0  0  0  0  0  0  0  0  0  0  # atno 10764 bound_to 10752
  154.7383  135.3154  154.8730 H   0  0  0  0  0  0  0  0  0  0  0  0  # atno 10765 bound_to 10752
  140.3443  134.7250  157.4224 H   0  0  0  0  0  0  0  0  0  0  0  0  # atno 11005 bound_to 11000
  144.7148  139.8236  143.7402 LP  0  0  0  0  0  0  0  0  0  0  0  0  # atno 17320 bound_to 7965
  146.1261  139.4287  143.0198 LP  0  0  0  0  0  0  0  0  0  0  0  0  # atno 17321 bound_to 7965
  139.4862  144.4583  151.9571 LP  0  0  0  0  0  0  0  0  0  0  0  0  # atno 17342 bound_to 10162
  140.3671  144.2901  150.5925 LP  0  0  0  0  0  0  0  0  0  0  0  0  # atno 17343 bound_to 10162
  156.7966  130.4907  149.5376 LP  0  0  0  0  0  0  0  0  0  0  0  0  # atno 17370 bound_to 10713
  156.1211  130.6110  151.0194 LP  0  0  0  0  0  0  0  0  0  0  0  0  # atno 17371 bound_to 10713
  140.0755  134.5803  155.8595 LP  0  0  0  0  0  0  0  0  0  0  0  0  # atno 17394 bound_to 11000
  141.2030  133.6629  156.6037 LP  0  0  0  0  0  0  0  0  0  0  0  0  # atno 17395 bound_to 11000

$$$$
