AV-unprocessed.smi:1389|AV-procd|sdf|5650|dock10
  -GOLD-   22720 5273D 1   1.00000     0.00000
 Structure written by MMmdl.
 52 54  0  0  0  0  0  0  0  0  2 V2000
  156.6704  137.9015  160.4222 C   0  0  0  0  0  0  0  0  0  0  0  0
  155.3603  137.9990  161.2377 C   0  0  2  0  0  0  0  0  0  0  0  0
  155.0916  139.4971  161.5399 C   0  0  0  0  0  0  0  0  0  0  0  0
  154.2471  140.1099  160.5168 N   0  0  0  0  0  0  0  0  0  0  0  0
  153.5952  141.2746  160.6350 C   0  0  0  0  0  0  0  0  0  0  0  0
  153.5432  141.9327  161.6739 O   0  0  0  0  0  0  0  0  0  0  0  0
  153.0394  141.6365  159.4679 N   0  0  0  0  0  0  0  0  0  0  0  0
  152.3772  142.8596  159.1695 C   0  0  0  0  0  0  0  0  0  0  0  0
  152.5754  144.0244  159.9529 C   0  0  0  0  0  0  0  0  0  0  0  0
  151.8963  145.2128  159.6221 C   0  0  0  0  0  0  0  0  0  0  0  0
  151.0229  145.2152  158.5197 C   0  0  0  0  0  0  0  0  0  0  0  0
  150.8443  144.0849  157.8045 N   0  3  0  0  0  0  0  0  0  0  0  0
  151.4720  142.9137  158.0749 C   0  0  0  0  0  0  0  0  0  0  0  0
  151.1951  141.7878  157.2714 N   0  0  0  0  0  0  0  0  0  0  0  0
  150.6071  140.6637  157.9940 C   0  0  0  0  0  0  0  0  0  0  0  0
  149.6364  139.9881  157.0240 C   0  0  0  0  0  0  0  0  0  0  0  0
  149.2172  141.1293  156.1057 C   0  0  0  0  0  0  0  0  0  0  0  0
  150.4969  141.9564  155.9978 C   0  0  0  0  0  0  0  0  0  0  0  0
  155.3411  137.1350  162.4382 N   0  0  0  0  0  0  0  0  0  0  0  0
  155.6037  135.7256  162.1338 C   0  0  0  0  0  0  0  0  0  0  0  0
  155.5742  134.8369  163.3899 C   0  0  0  0  0  0  0  0  0  0  0  0
  154.3227  134.9759  164.0498 O   0  0  0  0  0  0  0  0  0  0  0  0
  154.0529  136.3228  164.4164 C   0  0  0  0  0  0  0  0  0  0  0  0
  154.0672  137.2095  163.1603 C   0  0  0  0  0  0  0  0  0  0  0  0
  156.6909  138.6364  159.6169 H   0  0  0  0  0  0  0  0  0  0  0  0
  156.7813  136.9280  159.9454 H   0  0  0  0  0  0  0  0  0  0  0  0
  157.5475  138.0721  161.0474 H   0  0  0  0  0  0  0  0  0  0  0  0
  154.5596  137.6676  160.5749 H   0  0  0  0  0  0  0  0  0  0  0  0
  154.5663  139.5870  162.4913 H   0  0  0  0  0  0  0  0  0  0  0  0
  156.0175  140.0527  161.6878 H   0  0  0  0  0  0  0  0  0  0  0  0
  154.2209  139.6429  159.6224 H   0  0  0  0  0  0  0  0  0  0  0  0
  153.2429  141.0434  158.6771 H   0  0  0  0  0  0  0  0  0  0  0  0
  153.2329  144.0197  160.8091 H   0  0  0  0  0  0  0  0  0  0  0  0
  152.0417  146.1080  160.2090 H   0  0  0  0  0  0  0  0  0  0  0  0
  150.4597  146.0780  158.1950 H   0  0  0  0  0  0  0  0  0  0  0  0
  151.3737  139.9668  158.3338 H   0  0  0  0  0  0  0  0  0  0  0  0
  150.0679  141.0243  158.8719 H   0  0  0  0  0  0  0  0  0  0  0  0
  150.1596  139.2248  156.4461 H   0  0  0  0  0  0  0  0  0  0  0  0
  148.7944  139.5126  157.5274 H   0  0  0  0  0  0  0  0  0  0  0  0
  148.8497  140.7870  155.1380 H   0  0  0  0  0  0  0  0  0  0  0  0
  148.4312  141.7187  156.5800 H   0  0  0  0  0  0  0  0  0  0  0  0
  150.2862  142.9904  155.7263 H   0  0  0  0  0  0  0  0  0  0  0  0
  151.1361  141.5483  155.2142 H   0  0  0  0  0  0  0  0  0  0  0  0
  154.8726  135.3595  161.4113 H   0  0  0  0  0  0  0  0  0  0  0  0
  156.5853  135.6098  161.6764 H   0  0  0  0  0  0  0  0  0  0  0  0
  155.7182  133.7913  163.1172 H   0  0  0  0  0  0  0  0  0  0  0  0
  156.3838  135.1043  164.0708 H   0  0  0  0  0  0  0  0  0  0  0  0
  153.0790  136.3710  164.9036 H   0  0  0  0  0  0  0  0  0  0  0  0
  154.7920  136.6684  165.1411 H   0  0  0  0  0  0  0  0  0  0  0  0
  153.8568  138.2285  163.4756 H   0  0  0  0  0  0  0  0  0  0  0  0
  153.2503  136.9133  162.5006 H   0  0  0  0  0  0  0  0  0  0  0  0
  150.1974  144.1137  157.0163 H   0  0  0  0  0  0  0  0  0  0  0  0
  1  2  1  0  0  0  0
  1 25  1  0  0  0  0
  1 26  1  0  0  0  0
  1 27  1  0  0  0  0
  2  3  1  0  0  0  0
  2 19  1  0  0  0  0
  2 28  1  0  0  0  0
  3  4  1  0  0  0  0
  3 29  1  0  0  0  0
  3 30  1  0  0  0  0
  4  5  1  0  0  0  0
  4 31  1  0  0  0  0
  5  6  2  0  0  0  0
  5  7  1  0  0  0  0
  7  8  1  0  0  0  0
  7 32  1  0  0  0  0
  8 13  1  0  0  0  0
  8  9  2  0  0  0  0
  9 10  1  0  0  0  0
  9 33  1  0  0  0  0
 10 11  2  0  0  0  0
 10 34  1  0  0  0  0
 11 12  1  0  0  0  0
 11 35  1  0  0  0  0
 12 13  2  0  0  0  0
 12 52  1  0  0  0  0
 13 14  1  0  0  0  0
 14 18  1  0  0  0  0
 14 15  1  0  0  0  0
 15 16  1  0  0  0  0
 15 36  1  0  0  0  0
 15 37  1  0  0  0  0
 16 17  1  0  0  0  0
 16 38  1  0  0  0  0
 16 39  1  0  0  0  0
 17 18  1  0  0  0  0
 17 40  1  0  0  0  0
 17 41  1  0  0  0  0
 18 42  1  0  0  0  0
 18 43  1  0  0  0  0
 19 24  1  0  0  0  0
 19 20  1  0  0  0  0
 20 21  1  0  0  0  0
 20 44  1  0  0  0  0
 20 45  1  0  0  0  0
 21 22  1  0  0  0  0
 21 46  1  0  0  0  0
 21 47  1  0  0  0  0
 22 23  1  0  0  0  0
 23 24  1  0  0  0  0
 23 48  1  0  0  0  0
 23 49  1  0  0  0  0
 24 50  1  0  0  0  0
 24 51  1  0  0  0  0
M  CHG  1  12   1
M  END
> <s_m_source_file>
AV-unprocessed.smi

> <i_m_source_file_index>
1389

> <i_lp_mmshare_version>
43012

> <i_f3d_flags>
0

> <s_epik_input>
W0NIMl0xW0NIMl1PW0NIMl1bQ0gyXU4xW0NASF0oW0NIM10pW0NIMl1bTkhdQyg9TylbTkhdYzJbY0hdW2NIXVtjSF1uYzJOM1tDSDJdW0NIMl1bQ0gyXVtDSDJdMw==

> <s_epik_cmdline>
J2VwaWtfcHl0aG9uJywgJy1waCcsICc3LjAnLCAnLXRuJywgJzgnLCAnLW1hJywgJzIwMCcsICctbWV0YWxfYmluZGluZycsICctaW1hZScsICc8aW5maWxlLm1hZT4nLCAnLW9tYWUnLCAnPG91dGZpbGUubWFlPic=

> <r_epik_Ionization_Penalty>
1.37675

> <r_epik_Ionization_Penalty_Charging>
1.11074

> <r_epik_Ionization_Penalty_Neutral>
0.26601

> <r_epik_State_Penalty>
1.46015

> <r_epik_Charging_Adjusted_Penalty>
2.57089

> <i_epik_Tot_Q>
1

> <i_epik_Tot_abs_Q>
1

> <r_epik_Metal_State_Penalty>
1.54223

> <b_epik_Metal_Only>
0

> <s_lp_Force_Field>
OPLS_2005

> <r_lp_Energy>
66.6842

> <b_lp_Chiralities_Consistent>
1

> <s_lp_Variant>
AV-unprocessed.smi:1389-5

> <Gold.Version>
5.8.1

> <Gold.Id.Protein>
6NUR|6NUR_protein|mol2

> <Gold.PLP.Fitness>
47.4140

> <Gold.PLP.PLP>
-42.8872

> <Gold.PLP.part.hbond>
-1.0000

> <Gold.PLP.part.metal>
0.0000

> <Gold.PLP.part.buried>
-7.6715

> <Gold.PLP.part.nonpolar>
-33.5533

> <Gold.PLP.part.repulsive>
0.2757

> <Gold.PLP.ligand.clash>
0.0000

> <Gold.PLP.ligand.torsion>
0.8512

> <Gold.PLP.Chemscore.Hbond>
2.0000

> <Gold.PLP.Chemscore.CHOScore>
0.0000

> <Gold.PLP.Chemscore.Metal>
0.0000

> <Gold.Chemscore.Hbonds>
donor molecule, donor type, donor heavy atom, donor atom, acceptor molecule, acceptor atom, score
      L1  H    12    52       P1  8028  2.00

> <Gold.PLP.Chemscore.Internal.Correction>
0.2293

> <Gold.Rescore>
     Score         DG    S(hbond)    S(metal)    S(lipo)     H(rot)  DE(clash)    DE(int)     intcor
     15.27     -17.81       0.97        0.00     112.69       1.60       0.20       2.33       ----

> <Gold.Chemscore.Fitness>
15.2711

> <Gold.Chemscore.DG>
-17.8062

> <Gold.Chemscore.ZeroCoef>
-5.4800

> <Gold.Chemscore.Hbond>
0.9720

> <Gold.Chemscore.Metal>
0.0000

> <Gold.Chemscore.Lipo>
112.6901

> <Gold.Chemscore.Internal_Hbond>
0.0000

> <Gold.Chemscore.DEClash>
0.2006

> <Gold.Chemscore.DEInternal>
2.3345

> <Gold.Chemscore.Rot>
1.6035

> <Gold.Chemscore.Internal.Correction>
   9.000000E+99

> <Gold.Chemscore.Hbonds>
donor molecule, donor type, donor heavy atom, donor atom, acceptor molecule, acceptor atom, score
      L1  H    12    52       P1  8028  0.91

> <Gold.Chemscore.Hbond.Weighted>
-3.2463

> <Gold.Chemscore.Metal.Weighted>
-0.0000

> <Gold.Chemscore.Lipo.Weighted>
-13.1847

> <Gold.Chemscore.Internal_Hbond.Weighted>
0.0000

> <Gold.Chemscore.DEClash.Weighted>
0.2006

> <Gold.Chemscore.DEInternal.Weighted>
2.3345

> <Gold.Chemscore.Rot.Weighted>
4.1049

> <Gold.Chemscore.Internal.Correction.Weighted>
   9.000000E+99

> <Gold.Protein.RotatedTorsions>
[ 6907 6896 6895 6894 ] final   77.82 input  -60.11 | X-H torsion
[ 7974 7965 7964 7962 ] final   68.47 input  175.53 | X-H torsion
[ 8008 7997 7996 7995 ] final   89.80 input   59.86 | X-H torsion
[ 10167 10162 10161 10158 ] final   62.35 input  -65.29 | X-H torsion
[ 10718 10713 10712 10709 ] final -179.01 input   66.30 | X-H torsion
[ 10763 10752 10751 10750 ] final  128.21 input  -60.55 | X-H torsion
[ 11005 11000 10999 10996 ] final   86.71 input  -57.11 | X-H torsion

> <Gold.Protein.ActiveResidues>
 VAL166  LYS551  ARG553  GLY616  TRP617  ASP618  TYR619  PRO620  LYS621  CYS622 
 ASP623  PHE694  ASN695  SER759  ASP760  ASP761  ALA762  ILE779  LEU786  VAL792 
 PHE793  MET794  SER795  GLU796  ALA797  LYS798  CYS799  TRP800  GLU811  SER814 

> <Gold.Protein.RotatedAtoms>
  152.5134  134.3758  159.9333 H   0  0  0  0  0  0  0  0  0  0  0  0  # atno 6907 bound_to 6896
  151.3713  133.3847  159.2708 H   0  0  0  0  0  0  0  0  0  0  0  0  # atno 6908 bound_to 6896
  150.9575  134.8987  159.7769 H   0  0  0  0  0  0  0  0  0  0  0  0  # atno 6909 bound_to 6896
  145.8022  139.2988  143.1148 H   0  0  0  0  0  0  0  0  0  0  0  0  # atno 7974 bound_to 7965
  156.0043  140.3356  155.6876 H   0  0  0  0  0  0  0  0  0  0  0  0  # atno 8008 bound_to 7997
  155.6247  140.0678  157.2685 H   0  0  0  0  0  0  0  0  0  0  0  0  # atno 8009 bound_to 7997
  154.4259  140.1770  156.1396 H   0  0  0  0  0  0  0  0  0  0  0  0  # atno 8010 bound_to 7997
  140.1449  144.4518  150.6791 H   0  0  0  0  0  0  0  0  0  0  0  0  # atno 10167 bound_to 10162
  156.8527  130.9725  151.3091 H   0  0  0  0  0  0  0  0  0  0  0  0  # atno 10718 bound_to 10713
  153.7218  135.3252  155.3268 H   0  0  0  0  0  0  0  0  0  0  0  0  # atno 10763 bound_to 10752
  154.8353  135.4501  154.1210 H   0  0  0  0  0  0  0  0  0  0  0  0  # atno 10764 bound_to 10752
  153.2332  135.6962  153.7946 H   0  0  0  0  0  0  0  0  0  0  0  0  # atno 10765 bound_to 10752
  139.8938  134.8373  156.2758 H   0  0  0  0  0  0  0  0  0  0  0  0  # atno 11005 bound_to 11000
  145.9866  140.8638  143.0087 LP  0  0  0  0  0  0  0  0  0  0  0  0  # atno 17320 bound_to 7965
  144.6767  140.2155  143.7372 LP  0  0  0  0  0  0  0  0  0  0  0  0  # atno 17321 bound_to 7965
  140.6738  143.2296  151.5559 LP  0  0  0  0  0  0  0  0  0  0  0  0  # atno 17342 bound_to 10162
  139.5454  144.2535  152.1432 LP  0  0  0  0  0  0  0  0  0  0  0  0  # atno 17343 bound_to 10162
  157.6294  130.8717  149.9247 LP  0  0  0  0  0  0  0  0  0  0  0  0  # atno 17370 bound_to 10713
  156.0819  130.3672  150.0563 LP  0  0  0  0  0  0  0  0  0  0  0  0  # atno 17371 bound_to 10713
  141.0071  133.7117  156.1052 LP  0  0  0  0  0  0  0  0  0  0  0  0  # atno 17394 bound_to 11000
  140.7418  134.4141  157.5553 LP  0  0  0  0  0  0  0  0  0  0  0  0  # atno 17395 bound_to 11000

$$$$
