AV-unprocessed.smi:315|AV-procd|sdf|2317|dock1
  -GOLD-   2262022223D 1   1.00000     0.00000
 Structure written by MMmdl.
 47 49  0  0  0  0  0  0  0  0  2 V2000
  151.9069  138.8621  155.9189 C   0  0  0  0  0  0  0  0  0  0  0  0
  151.8303  138.3620  154.4740 C   0  0  0  0  0  0  0  0  0  0  0  0
  150.4616  138.1552  154.1440 O   0  0  0  0  0  0  0  0  0  0  0  0
  149.5807  139.2145  154.2506 C   0  0  0  0  0  0  0  0  0  0  0  0
  150.0673  140.4321  154.5959 N   0  0  0  0  0  0  0  0  0  0  0  0
  149.2008  141.4617  154.6984 C   0  0  0  0  0  0  0  0  0  0  0  0
  147.8177  141.3324  154.4703 C   0  0  0  0  0  0  0  0  0  0  0  0
  147.3117  140.0695  154.1105 C   0  0  0  0  0  0  0  0  0  0  0  0
  148.2115  138.9851  153.9861 C   0  0  0  0  0  0  0  0  0  0  0  0
  147.8096  137.6675  153.6477 N   0  0  0  0  0  0  0  0  0  0  0  0
  146.6423  137.0575  153.9241 C   0  0  0  0  0  0  0  0  0  0  0  0
  145.7950  137.4880  154.7027 O   0  0  0  0  0  0  0  0  0  0  0  0
  146.4545  135.9088  153.2485 N   0  0  0  0  0  0  0  0  0  0  0  0
  145.3045  134.9999  153.3097 C   0  0  1  0  0  0  0  0  0  0  0  0
  144.0093  135.6373  152.7856 C   0  0  0  0  0  0  0  0  0  0  0  0
  143.2105  134.4804  152.1585 C   0  0  0  0  0  0  0  0  0  0  0  0
  144.0383  133.2676  152.3359 N   0  3  1  0  0  0  0  0  0  0  0  0
  143.8000  132.1536  151.3829 C   0  0  0  0  0  0  0  0  0  0  0  0
  144.4645  132.3882  150.0160 C   0  0  0  0  0  0  0  0  0  0  0  0
  145.9547  132.7022  150.1840 C   0  0  0  0  0  0  0  0  0  0  0  0
  146.1234  133.9251  151.0912 C   0  0  0  0  0  0  0  0  0  0  0  0
  145.4412  133.7168  152.4670 C   0  0  1  0  0  0  0  0  0  0  0  0
  152.9408  139.0401  156.2150 H   0  0  0  0  0  0  0  0  0  0  0  0
  151.4819  138.1330  156.6089 H   0  0  0  0  0  0  0  0  0  0  0  0
  151.3587  139.7968  156.0388 H   0  0  0  0  0  0  0  0  0  0  0  0
  152.2774  139.0995  153.8057 H   0  0  0  0  0  0  0  0  0  0  0  0
  152.3910  137.4311  154.3768 H   0  0  0  0  0  0  0  0  0  0  0  0
  149.6224  142.4162  154.9760 H   0  0  0  0  0  0  0  0  0  0  0  0
  147.1590  142.1819  154.5735 H   0  0  0  0  0  0  0  0  0  0  0  0
  146.2508  139.9506  153.9506 H   0  0  0  0  0  0  0  0  0  0  0  0
  148.3903  137.2081  152.9621 H   0  0  0  0  0  0  0  0  0  0  0  0
  147.1894  135.6436  152.6085 H   0  0  0  0  0  0  0  0  0  0  0  0
  145.1358  134.7162  154.3506 H   0  0  0  0  0  0  0  0  0  0  0  0
  143.4553  136.1322  153.5841 H   0  0  0  0  0  0  0  0  0  0  0  0
  144.2232  136.3877  152.0229 H   0  0  0  0  0  0  0  0  0  0  0  0
  142.2401  134.3458  152.6363 H   0  0  0  0  0  0  0  0  0  0  0  0
  143.0361  134.6805  151.1007 H   0  0  0  0  0  0  0  0  0  0  0  0
  144.2073  131.2441  151.8262 H   0  0  0  0  0  0  0  0  0  0  0  0
  142.7282  131.9881  151.2681 H   0  0  0  0  0  0  0  0  0  0  0  0
  144.3395  131.5052  149.3885 H   0  0  0  0  0  0  0  0  0  0  0  0
  143.9714  133.2077  149.4923 H   0  0  0  0  0  0  0  0  0  0  0  0
  146.4730  131.8443  150.6140 H   0  0  0  0  0  0  0  0  0  0  0  0
  146.4115  132.8900  149.2117 H   0  0  0  0  0  0  0  0  0  0  0  0
  147.1859  134.1293  151.2251 H   0  0  0  0  0  0  0  0  0  0  0  0
  145.7050  134.7992  150.5905 H   0  0  0  0  0  0  0  0  0  0  0  0
  145.9908  132.9528  153.0167 H   0  0  0  0  0  0  0  0  0  0  0  0
  143.7835  132.9156  153.2477 H   0  0  0  0  0  0  0  0  0  0  0  0
  1  2  1  0  0  0  0
  1 23  1  0  0  0  0
  1 24  1  0  0  0  0
  1 25  1  0  0  0  0
  2  3  1  0  0  0  0
  2 26  1  0  0  0  0
  2 27  1  0  0  0  0
  3  4  1  0  0  0  0
  4  9  1  0  0  0  0
  4  5  2  0  0  0  0
  5  6  1  0  0  0  0
  6  7  2  0  0  0  0
  6 28  1  0  0  0  0
  7  8  1  0  0  0  0
  7 29  1  0  0  0  0
  8  9  2  0  0  0  0
  8 30  1  0  0  0  0
  9 10  1  0  0  0  0
 10 11  1  0  0  0  0
 10 31  1  0  0  0  0
 11 12  2  0  0  0  0
 11 13  1  0  0  0  0
 13 14  1  0  0  0  0
 13 32  1  0  0  0  0
 14 22  1  0  0  0  0
 14 15  1  0  0  0  0
 14 33  1  0  0  0  0
 15 16  1  0  0  0  0
 15 34  1  0  0  0  0
 15 35  1  0  0  0  0
 16 17  1  0  0  0  0
 16 36  1  0  0  0  0
 16 37  1  0  0  0  0
 17 22  1  0  0  0  0
 17 18  1  0  0  0  0
 17 47  1  0  0  0  0
 18 19  1  0  0  0  0
 18 38  1  0  0  0  0
 18 39  1  0  0  0  0
 19 20  1  0  0  0  0
 19 40  1  0  0  0  0
 19 41  1  0  0  0  0
 20 21  1  0  0  0  0
 20 42  1  0  0  0  0
 20 43  1  0  0  0  0
 21 22  1  0  0  0  0
 21 44  1  0  0  0  0
 21 45  1  0  0  0  0
 22 46  1  0  0  0  0
M  CHG  1  17   1
M  END
> <s_m_source_file>
AV-unprocessed.smi

> <i_m_source_file_index>
315

> <i_lp_mmshare_version>
43012

> <i_f3d_flags>
0

> <s_epik_input>
W0NIM11bQ0gyXU9jMW5bY0hdW2NIXVtjSF1jMVtOSF1DKD1PKVtOSF1bQ0BIXShbQ0gyXVtDSDJdMilbQ0BASF0oTjIzKVtDSDJdW0NIMl1bQ0gyXVtDSDJdMw==

> <s_epik_cmdline>
J2VwaWtfcHl0aG9uJywgJy1waCcsICc3LjAnLCAnLXRuJywgJzgnLCAnLW1hJywgJzIwMCcsICctbWV0YWxfYmluZGluZycsICctaW1hZScsICc8aW5maWxlLm1hZT4nLCAnLW9tYWUnLCAnPG91dGZpbGUubWFlPic=

> <r_lp_tautomer_probability>
1

> <r_epik_Ionization_Penalty>
0.00106455

> <r_epik_Ionization_Penalty_Charging>
0.000974069

> <r_epik_Ionization_Penalty_Neutral>
9.04821e-05

> <r_epik_State_Penalty>
0.000633842

> <r_epik_Charging_Adjusted_Penalty>
0.00160791

> <i_epik_Tot_Q>
1

> <i_epik_Tot_abs_Q>
1

> <r_epik_Metal_State_Penalty>
-0

> <b_epik_Metal_Only>
0

> <s_lp_Force_Field>
OPLS_2005

> <r_lp_Energy>
48.3447

> <b_lp_Chiralities_Consistent>
1

> <s_lp_Variant>
AV-unprocessed.smi:315-2

> <Gold.Version>
5.8.1

> <Gold.Id.Protein>
6NUR|6NUR_protein|mol2

> <Gold.PLP.Fitness>
51.3948

> <Gold.PLP.PLP>
-37.3194

> <Gold.PLP.part.hbond>
-3.5050

> <Gold.PLP.part.metal>
0.0000

> <Gold.PLP.part.buried>
-5.6262

> <Gold.PLP.part.nonpolar>
-30.0690

> <Gold.PLP.part.repulsive>
0.4451

> <Gold.PLP.ligand.clash>
0.0000

> <Gold.PLP.ligand.torsion>
0.2370

> <Gold.PLP.Chemscore.Hbond>
3.8485

> <Gold.PLP.Chemscore.CHOScore>
1.0000

> <Gold.PLP.Chemscore.Metal>
0.0000

> <Gold.Chemscore.Hbonds>
donor molecule, donor type, donor heavy atom, donor atom, acceptor molecule, acceptor atom, score
      L1  H    10    31       P1  7948  1.00
      L1  H    13    32       P1  7948  0.88
      L1  H    17    47       P1 10957  1.11
      P1  H  7989  7998       L1     5  0.93
      L1  C     6    28       P1  8028  1.00

> <Gold.PLP.Chemscore.Internal.Correction>
0.0039

> <Gold.Rescore>
     Score         DG    S(hbond)    S(metal)    S(lipo)     H(rot)  DE(clash)    DE(int)     intcor
     19.64     -22.29       3.03        0.00      87.34       1.38       0.10       2.56       ----

> <Gold.Chemscore.Fitness>
19.6351

> <Gold.Chemscore.DG>
-22.2939

> <Gold.Chemscore.ZeroCoef>
-5.4800

> <Gold.Chemscore.Hbond>
3.0300

> <Gold.Chemscore.Metal>
0.0000

> <Gold.Chemscore.Lipo>
87.3420

> <Gold.Chemscore.Internal_Hbond>
0.0000

> <Gold.Chemscore.DEClash>
0.0972

> <Gold.Chemscore.DEInternal>
2.5616

> <Gold.Chemscore.Rot>
1.3770

> <Gold.Chemscore.Internal.Correction>
   9.000000E+99

> <Gold.Chemscore.Hbonds>
donor molecule, donor type, donor heavy atom, donor atom, acceptor molecule, acceptor atom, score
      L1  H    10    31       P1  7948  0.97
      L1  H    13    32       P1  7948  0.84
      L1  H    17    47       P1 10957  0.32
      P1  H  7989  7998       L1     5  0.55

> <Gold.Chemscore.Hbond.Weighted>
-10.1201

> <Gold.Chemscore.Metal.Weighted>
-0.0000

> <Gold.Chemscore.Lipo.Weighted>
-10.2190

> <Gold.Chemscore.Internal_Hbond.Weighted>
0.0000

> <Gold.Chemscore.DEClash.Weighted>
0.0972

> <Gold.Chemscore.DEInternal.Weighted>
2.5616

> <Gold.Chemscore.Rot.Weighted>
3.5252

> <Gold.Chemscore.Internal.Correction.Weighted>
   9.000000E+99

> <Gold.Protein.RotatedTorsions>
[ 6907 6896 6895 6894 ] final  -12.70 input  -60.11 | X-H torsion
[ 7974 7965 7964 7962 ] final  -93.44 input  175.53 | X-H torsion
[ 8008 7997 7996 7995 ] final -111.61 input   59.86 | X-H torsion
[ 10167 10162 10161 10158 ] final -141.99 input  -65.29 | X-H torsion
[ 10718 10713 10712 10709 ] final  -50.04 input   66.30 | X-H torsion
[ 10763 10752 10751 10750 ] final  161.36 input  -60.55 | X-H torsion
[ 11005 11000 10999 10996 ] final  -99.94 input  -57.11 | X-H torsion

> <Gold.Protein.ActiveResidues>
 VAL166  LYS551  ARG553  GLY616  TRP617  ASP618  TYR619  PRO620  LYS621  CYS622 
 ASP623  PHE694  ASN695  SER759  ASP760  ASP761  ALA762  ILE779  LEU786  VAL792 
 PHE793  MET794  SER795  GLU796  ALA797  LYS798  CYS799  TRP800  GLU811  SER814 

> <Gold.Protein.RotatedAtoms>
  151.3664  135.0914  159.9450 H   0  0  0  0  0  0  0  0  0  0  0  0  # atno 6907 bound_to 6896
  152.5148  133.9208  159.7543 H   0  0  0  0  0  0  0  0  0  0  0  0  # atno 6908 bound_to 6896
  150.9612  133.6388  159.2783 H   0  0  0  0  0  0  0  0  0  0  0  0  # atno 6909 bound_to 6896
  145.3865  140.9523  143.2364 H   0  0  0  0  0  0  0  0  0  0  0  0  # atno 7974 bound_to 7965
  154.9925  140.0395  157.2325 H   0  0  0  0  0  0  0  0  0  0  0  0  # atno 8008 bound_to 7997
  154.7616  140.2785  155.6187 H   0  0  0  0  0  0  0  0  0  0  0  0  # atno 8009 bound_to 7997
  156.2905  140.2627  156.2395 H   0  0  0  0  0  0  0  0  0  0  0  0  # atno 8010 bound_to 7997
  139.8131  143.7675  152.2664 H   0  0  0  0  0  0  0  0  0  0  0  0  # atno 10167 bound_to 10162
  156.1837  130.4151  149.9469 H   0  0  0  0  0  0  0  0  0  0  0  0  # atno 10718 bound_to 10713
  154.2617  135.2768  155.2775 H   0  0  0  0  0  0  0  0  0  0  0  0  # atno 10763 bound_to 10752
  154.5378  135.5711  153.6817 H   0  0  0  0  0  0  0  0  0  0  0  0  # atno 10764 bound_to 10752
  152.9961  135.6243  154.2768 H   0  0  0  0  0  0  0  0  0  0  0  0  # atno 10765 bound_to 10752
  141.1289  133.8360  157.1038 H   0  0  0  0  0  0  0  0  0  0  0  0  # atno 11005 bound_to 11000
  144.8471  139.5380  143.6874 LP  0  0  0  0  0  0  0  0  0  0  0  0  # atno 17320 bound_to 7965
  146.2818  139.6897  142.9224 LP  0  0  0  0  0  0  0  0  0  0  0  0  # atno 17321 bound_to 7965
  139.7830  144.7437  151.0061 LP  0  0  0  0  0  0  0  0  0  0  0  0  # atno 17342 bound_to 10162
  140.7817  143.4521  151.0397 LP  0  0  0  0  0  0  0  0  0  0  0  0  # atno 17343 bound_to 10162
  156.7232  130.9015  151.3620 LP  0  0  0  0  0  0  0  0  0  0  0  0  # atno 17370 bound_to 10713
  157.6885  130.9209  150.0450 LP  0  0  0  0  0  0  0  0  0  0  0  0  # atno 17371 bound_to 10713
  140.0317  134.9898  157.0793 LP  0  0  0  0  0  0  0  0  0  0  0  0  # atno 17394 bound_to 11000
  140.4274  134.1816  155.7166 LP  0  0  0  0  0  0  0  0  0  0  0  0  # atno 17395 bound_to 11000

$$$$
