AV-unprocessed.smi:511|AV-procd|sdf|2765|dock8
  -GOLD-   2262023233D 1   1.00000     0.00000
 Structure written by MMmdl.
 45 47  0  0  0  0  0  0  0  0  1 V2000
  150.5594  135.4763  155.4745 C   0  0  0  0  0  0  0  0  0  0  0  0
  151.8662  135.7931  155.9180 O   0  0  0  0  0  0  0  0  0  0  0  0
  152.0442  137.1816  156.1461 C   0  0  0  0  0  0  0  0  0  0  0  0
  151.1421  137.6310  157.3037 C   0  0  0  0  0  0  0  0  0  0  0  0
  151.5883  138.8983  157.8799 N   0  0  0  0  0  0  0  0  0  0  0  0
  151.4421  140.1653  157.3991 C   0  0  0  0  0  0  0  0  0  0  0  0
  150.7503  140.4476  156.2205 N   0  0  0  0  0  0  0  0  0  0  0  0
  149.9871  141.6538  155.9075 C   0  0  0  0  0  0  0  0  0  0  0  0
  148.5987  141.2945  155.3429 C   0  0  0  0  0  0  0  0  0  0  0  0
  148.7669  140.5412  154.1005 N   0  0  0  0  0  0  0  0  0  0  0  0
  147.4613  140.1899  153.5616 C   0  0  0  0  0  0  0  0  0  0  0  0
  149.5245  139.3237  154.3898 C   0  0  0  0  0  0  0  0  0  0  0  0
  150.9004  139.6967  154.9774 C   0  0  0  0  0  0  0  0  0  0  0  0
  152.0546  141.1079  158.1222 N   0  0  0  0  0  0  0  0  0  0  0  0
  152.6113  140.3889  159.1671 C   0  0  0  0  0  0  0  0  0  0  0  0
  152.3464  139.0650  159.0403 C   0  0  0  0  0  0  0  0  0  0  0  0
  152.8482  138.0692  159.9959 C   0  0  0  0  0  0  0  0  0  0  0  0
  152.6366  136.8629  159.8934 O   0  0  0  0  0  0  0  0  0  0  0  0
  153.5735  138.6167  161.0016 N   0  0  0  0  0  0  0  0  0  0  0  0
  153.8730  139.9388  161.1886 C   0  0  0  0  0  0  0  0  0  0  0  0
  154.5518  140.2786  162.1573 O   0  0  0  0  0  0  0  0  0  0  0  0
  153.3941  140.8366  160.2668 N   0  0  0  0  0  0  0  0  0  0  0  0
  153.6680  142.2716  160.3668 C   0  0  0  0  0  0  0  0  0  0  0  0
  153.9388  137.9750  161.6900 H   0  0  0  0  0  0  0  0  0  0  0  0
  150.4788  134.4015  155.3127 H   0  0  0  0  0  0  0  0  0  0  0  0
  150.3299  135.9770  154.5329 H   0  0  0  0  0  0  0  0  0  0  0  0
  149.8120  135.7628  156.2158 H   0  0  0  0  0  0  0  0  0  0  0  0
  153.0874  137.3887  156.3887 H   0  0  0  0  0  0  0  0  0  0  0  0
  151.8018  137.7427  155.2423 H   0  0  0  0  0  0  0  0  0  0  0  0
  150.1191  137.7088  156.9517 H   0  0  0  0  0  0  0  0  0  0  0  0
  151.1156  136.8720  158.0845 H   0  0  0  0  0  0  0  0  0  0  0  0
  149.8958  142.2872  156.7889 H   0  0  0  0  0  0  0  0  0  0  0  0
  150.5422  142.2482  155.1801 H   0  0  0  0  0  0  0  0  0  0  0  0
  148.0264  140.7138  156.0682 H   0  0  0  0  0  0  0  0  0  0  0  0
  148.0352  142.2064  155.1412 H   0  0  0  0  0  0  0  0  0  0  0  0
  147.5696  139.6281  152.6332 H   0  0  0  0  0  0  0  0  0  0  0  0
  146.8854  141.0893  153.3409 H   0  0  0  0  0  0  0  0  0  0  0  0
  146.8899  139.5819  154.2647 H   0  0  0  0  0  0  0  0  0  0  0  0
  148.9750  138.6874  155.0855 H   0  0  0  0  0  0  0  0  0  0  0  0
  149.6601  138.7534  153.4700 H   0  0  0  0  0  0  0  0  0  0  0  0
  151.4803  140.2810  154.2614 H   0  0  0  0  0  0  0  0  0  0  0  0
  151.4692  138.7866  155.1706 H   0  0  0  0  0  0  0  0  0  0  0  0
  154.2446  142.5541  161.2481 H   0  0  0  0  0  0  0  0  0  0  0  0
  152.7311  142.8285  160.3989 H   0  0  0  0  0  0  0  0  0  0  0  0
  154.2256  142.6045  159.4907 H   0  0  0  0  0  0  0  0  0  0  0  0
  1  2  1  0  0  0  0
  1 25  1  0  0  0  0
  1 26  1  0  0  0  0
  1 27  1  0  0  0  0
  2  3  1  0  0  0  0
  3  4  1  0  0  0  0
  3 28  1  0  0  0  0
  3 29  1  0  0  0  0
  4  5  1  0  0  0  0
  4 30  1  0  0  0  0
  4 31  1  0  0  0  0
  5 16  1  0  0  0  0
  5  6  1  0  0  0  0
  6  7  1  0  0  0  0
  6 14  2  0  0  0  0
  7 13  1  0  0  0  0
  7  8  1  0  0  0  0
  8  9  1  0  0  0  0
  8 32  1  0  0  0  0
  8 33  1  0  0  0  0
  9 10  1  0  0  0  0
  9 34  1  0  0  0  0
  9 35  1  0  0  0  0
 10 11  1  0  0  0  0
 10 12  1  0  0  0  0
 11 36  1  0  0  0  0
 11 37  1  0  0  0  0
 11 38  1  0  0  0  0
 12 13  1  0  0  0  0
 12 39  1  0  0  0  0
 12 40  1  0  0  0  0
 13 41  1  0  0  0  0
 13 42  1  0  0  0  0
 14 15  1  0  0  0  0
 15 22  1  0  0  0  0
 15 16  2  0  0  0  0
 16 17  1  0  0  0  0
 17 18  2  0  0  0  0
 17 19  1  0  0  0  0
 19 24  1  0  0  0  0
 19 20  1  0  0  0  0
 20 21  2  0  0  0  0
 20 22  1  0  0  0  0
 22 23  1  0  0  0  0
 23 43  1  0  0  0  0
 23 44  1  0  0  0  0
 23 45  1  0  0  0  0
M  END
> <s_m_source_file>
AV-unprocessed.smi

> <i_m_source_file_index>
511

> <i_lp_mmshare_version>
43012

> <i_f3d_flags>
0

> <s_epik_input>
W0NIM11uMWMoPU8pW25IXWMoPU8pYyhjMTIpbihbQ0gyXVtDSDJdT1tDSDNdKWMobjIpTjNbQ0gyXVtDSDJdTihbQ0gzXSlbQ0gyXVtDSDJdMw==

> <s_epik_cmdline>
J2VwaWtfcHl0aG9uJywgJy1waCcsICc3LjAnLCAnLXRuJywgJzgnLCAnLW1hJywgJzIwMCcsICctbWV0YWxfYmluZGluZycsICctaW1hZScsICc8aW5maWxlLm1hZT4nLCAnLW9tYWUnLCAnPG91dGZpbGUubWFlPic=

> <r_epik_Ionization_Penalty>
1.34394

> <r_epik_Ionization_Penalty_Charging>
1.59275e-05

> <r_epik_Ionization_Penalty_Neutral>
1.34392

> <r_epik_State_Penalty>
1.4212

> <r_epik_Charging_Adjusted_Penalty>
1.42122

> <i_epik_Tot_Q>
0

> <i_epik_Tot_abs_Q>
0

> <r_epik_Metal_State_Penalty>
1.44789

> <b_epik_Metal_Only>
0

> <s_lp_Force_Field>
OPLS_2005

> <r_lp_Energy>
49.2822

> <b_lp_Chiralities_Consistent>
1

> <s_lp_Variant>
AV-unprocessed.smi:511-2

> <Gold.Version>
5.8.1

> <Gold.Id.Protein>
6NUR|6NUR_protein|mol2

> <Gold.PLP.Fitness>
39.1744

> <Gold.PLP.PLP>
-34.8047

> <Gold.PLP.part.hbond>
-2.0000

> <Gold.PLP.part.metal>
0.0000

> <Gold.PLP.part.buried>
-3.5318

> <Gold.PLP.part.nonpolar>
-29.7193

> <Gold.PLP.part.repulsive>
0.2728

> <Gold.PLP.ligand.clash>
0.0039

> <Gold.PLP.ligand.torsion>
0.9568

> <Gold.PLP.Chemscore.Hbond>
2.0000

> <Gold.PLP.Chemscore.CHOScore>
0.0000

> <Gold.PLP.Chemscore.Metal>
0.0000

> <Gold.Chemscore.Hbonds>
donor molecule, donor type, donor heavy atom, donor atom, acceptor molecule, acceptor atom, score
      P1  H  6896  6908       L1    18  1.00
      P1  H 10752 10763       L1     2  1.00

> <Gold.PLP.Chemscore.Internal.Correction>
0.2872

> <Gold.Rescore>
     Score         DG    S(hbond)    S(metal)    S(lipo)     H(rot)  DE(clash)    DE(int)     intcor
     12.58     -14.86       1.93        0.00      57.69       1.49       0.09       2.18       ----

> <Gold.Chemscore.Fitness>
12.5826

> <Gold.Chemscore.DG>
-14.8559

> <Gold.Chemscore.ZeroCoef>
-5.4800

> <Gold.Chemscore.Hbond>
1.9296

> <Gold.Chemscore.Metal>
0.0000

> <Gold.Chemscore.Lipo>
57.6869

> <Gold.Chemscore.Internal_Hbond>
0.0000

> <Gold.Chemscore.DEClash>
0.0884

> <Gold.Chemscore.DEInternal>
2.1849

> <Gold.Chemscore.Rot>
1.4915

> <Gold.Chemscore.Internal.Correction>
   9.000000E+99

> <Gold.Chemscore.Hbonds>
donor molecule, donor type, donor heavy atom, donor atom, acceptor molecule, acceptor atom, score
      P1  H  6896  6908       L1    18  1.00
      P1  H 10752 10763       L1     2  0.29

> <Gold.Chemscore.Hbond.Weighted>
-6.4449

> <Gold.Chemscore.Metal.Weighted>
-0.0000

> <Gold.Chemscore.Lipo.Weighted>
-6.7494

> <Gold.Chemscore.Internal_Hbond.Weighted>
0.0000

> <Gold.Chemscore.DEClash.Weighted>
0.0884

> <Gold.Chemscore.DEInternal.Weighted>
2.1849

> <Gold.Chemscore.Rot.Weighted>
3.8183

> <Gold.Chemscore.Internal.Correction.Weighted>
   9.000000E+99

> <Gold.Protein.RotatedTorsions>
[ 6907 6896 6895 6894 ] final -101.67 input  -60.11 | X-H torsion
[ 7974 7965 7964 7962 ] final  168.70 input  175.53 | X-H torsion
[ 8008 7997 7996 7995 ] final -147.40 input   59.86 | X-H torsion
[ 10167 10162 10161 10158 ] final  164.40 input  -65.29 | X-H torsion
[ 10718 10713 10712 10709 ] final  108.55 input   66.30 | X-H torsion
[ 10763 10752 10751 10750 ] final   88.74 input  -60.55 | X-H torsion
[ 11005 11000 10999 10996 ] final  178.32 input  -57.11 | X-H torsion

> <Gold.Protein.ActiveResidues>
 VAL166  LYS551  ARG553  GLY616  TRP617  ASP618  TYR619  PRO620  LYS621  CYS622 
 ASP623  PHE694  ASN695  SER759  ASP760  ASP761  ALA762  ILE779  LEU786  VAL792 
 PHE793  MET794  SER795  GLU796  ALA797  LYS798  CYS799  TRP800  GLU811  SER814 

> <Gold.Protein.RotatedAtoms>
  150.7164  134.0698  159.3860 H   0  0  0  0  0  0  0  0  0  0  0  0  # atno 6907 bound_to 6896
  151.8680  135.0498  160.0485 H   0  0  0  0  0  0  0  0  0  0  0  0  # atno 6908 bound_to 6896
  152.2665  133.5308  159.5450 H   0  0  0  0  0  0  0  0  0  0  0  0  # atno 6909 bound_to 6896
  144.7380  139.8946  143.6405 H   0  0  0  0  0  0  0  0  0  0  0  0  # atno 7974 bound_to 7965
  155.5750  140.0638  157.2797 H   0  0  0  0  0  0  0  0  0  0  0  0  # atno 8008 bound_to 7997
  154.4349  140.1862  156.0964 H   0  0  0  0  0  0  0  0  0  0  0  0  # atno 8009 bound_to 7997
  156.0348  140.3302  155.7183 H   0  0  0  0  0  0  0  0  0  0  0  0  # atno 8010 bound_to 7997
  139.4888  144.4239  151.9153 H   0  0  0  0  0  0  0  0  0  0  0  0  # atno 10167 bound_to 10162
  157.6581  131.0896  150.6322 H   0  0  0  0  0  0  0  0  0  0  0  0  # atno 10718 bound_to 10713
  153.1799  135.4496  155.0014 H   0  0  0  0  0  0  0  0  0  0  0  0  # atno 10763 bound_to 10752
  154.8023  135.3260  154.7521 H   0  0  0  0  0  0  0  0  0  0  0  0  # atno 10764 bound_to 10752
  153.7987  135.6964  153.4914 H   0  0  0  0  0  0  0  0  0  0  0  0  # atno 10765 bound_to 10752
  140.3938  134.6839  157.4523 H   0  0  0  0  0  0  0  0  0  0  0  0  # atno 11005 bound_to 11000
  146.1117  139.4122  143.0284 LP  0  0  0  0  0  0  0  0  0  0  0  0  # atno 17320 bound_to 7965
  145.7434  141.0000  143.1289 LP  0  0  0  0  0  0  0  0  0  0  0  0  # atno 17321 bound_to 7965
  140.3684  144.2885  150.5923 LP  0  0  0  0  0  0  0  0  0  0  0  0  # atno 17342 bound_to 10162
  140.5340  143.2237  151.8192 LP  0  0  0  0  0  0  0  0  0  0  0  0  # atno 17343 bound_to 10162
  156.6626  130.4516  149.5682 LP  0  0  0  0  0  0  0  0  0  0  0  0  # atno 17370 bound_to 10713
  156.2056  130.6647  151.1214 LP  0  0  0  0  0  0  0  0  0  0  0  0  # atno 17371 bound_to 10713
  140.0387  134.6299  155.9009 LP  0  0  0  0  0  0  0  0  0  0  0  0  # atno 17394 bound_to 11000
  141.1881  133.6561  156.5311 LP  0  0  0  0  0  0  0  0  0  0  0  0  # atno 17395 bound_to 11000

$$$$
