AV-unprocessed.smi:1417|AV-procd|sdf|5769|dock3
  -GOLD-   22720 5413D 1   1.00000     0.00000
 Structure written by MMmdl.
 39 40  0  0  0  0  0  0  0  0  3 V2000
  152.0094  141.5847  158.3760 C   0  0  0  0  0  0  0  0  0  0  0  0
  151.1717  141.2085  157.2019 C   0  0  0  0  0  0  0  0  0  0  0  0
  149.8829  141.4967  156.8524 C   0  0  0  0  0  0  0  0  0  0  0  0
  149.7202  140.8121  155.6174 C   0  0  0  0  0  0  0  0  0  0  0  0
  148.6090  140.7997  154.8650 N   0  5  0  0  0  0  0  0  0  0  0  0
  148.2156  139.6601  154.2519 C   0  0  0  0  0  0  0  0  0  0  0  0
  148.9278  138.6900  153.9825 O   0  0  0  0  0  0  0  0  0  0  0  0
  146.9140  139.6442  153.9309 N   0  0  0  0  0  0  0  0  0  0  0  0
  146.2112  138.5539  153.2621 C   0  0  2  0  0  0  0  0  0  0  0  0
  146.5132  137.2099  153.9485 C   0  0  0  0  0  0  0  0  0  0  0  0
  145.8605  136.0428  153.1918 C   0  0  0  0  0  0  0  0  0  0  0  0
  146.2939  136.0169  151.7691 N   0  3  1  0  0  0  0  0  0  0  0  0
  145.7908  134.8310  151.0299 C   0  0  0  0  0  0  0  0  0  0  0  0
  144.2749  134.8642  150.8115 C   0  0  0  0  0  0  0  0  0  0  0  0
  143.8432  134.7227  149.5565 N   0  0  0  0  0  0  0  0  0  0  0  0
  143.5030  134.9992  151.7593 O   0  0  0  0  0  0  0  0  0  0  0  0
  145.9769  137.2923  151.0775 C   0  0  0  0  0  0  0  0  0  0  0  0
  146.6361  138.4858  151.7872 C   0  0  0  0  0  0  0  0  0  0  0  0
  150.8189  140.1791  155.2412 N   0  0  0  0  0  0  0  0  0  0  0  0
  151.7527  140.4229  156.2556 O   0  0  0  0  0  0  0  0  0  0  0  0
  152.0534  142.6681  158.4868 H   0  0  0  0  0  0  0  0  0  0  0  0
  153.0289  141.2143  158.2673 H   0  0  0  0  0  0  0  0  0  0  0  0
  151.5944  141.1673  159.2935 H   0  0  0  0  0  0  0  0  0  0  0  0
  149.1685  142.0975  157.3952 H   0  0  0  0  0  0  0  0  0  0  0  0
  146.3710  140.4607  154.1714 H   0  0  0  0  0  0  0  0  0  0  0  0
  145.1363  138.7425  153.2984 H   0  0  0  0  0  0  0  0  0  0  0  0
  147.5918  137.0522  153.9982 H   0  0  0  0  0  0  0  0  0  0  0  0
  146.1557  137.2235  154.9788 H   0  0  0  0  0  0  0  0  0  0  0  0
  146.1270  135.1069  153.6834 H   0  0  0  0  0  0  0  0  0  0  0  0
  144.7737  136.1263  153.2418 H   0  0  0  0  0  0  0  0  0  0  0  0
  146.3157  134.7329  150.0781 H   0  0  0  0  0  0  0  0  0  0  0  0
  146.0034  133.9253  151.5994 H   0  0  0  0  0  0  0  0  0  0  0  0
  142.8539  134.7384  149.3541 H   0  0  0  0  0  0  0  0  0  0  0  0
  144.5109  134.6012  148.8080 H   0  0  0  0  0  0  0  0  0  0  0  0
  146.3314  137.2509  150.0468 H   0  0  0  0  0  0  0  0  0  0  0  0
  144.8948  137.4277  151.0372 H   0  0  0  0  0  0  0  0  0  0  0  0
  146.3683  139.4121  151.2773 H   0  0  0  0  0  0  0  0  0  0  0  0
  147.7213  138.3958  151.7156 H   0  0  0  0  0  0  0  0  0  0  0  0
  147.3013  135.9391  151.7711 H   0  0  0  0  0  0  0  0  0  0  0  0
  1  2  1  0  0  0  0
  1 21  1  0  0  0  0
  1 22  1  0  0  0  0
  1 23  1  0  0  0  0
  2 20  1  0  0  0  0
  2  3  2  0  0  0  0
  3  4  1  0  0  0  0
  3 24  1  0  0  0  0
  4  5  1  0  0  0  0
  4 19  2  0  0  0  0
  5  6  1  0  0  0  0
  6  7  2  0  0  0  0
  6  8  1  0  0  0  0
  8  9  1  0  0  0  0
  8 25  1  0  0  0  0
  9 18  1  0  0  0  0
  9 10  1  0  0  0  0
  9 26  1  0  0  0  0
 10 11  1  0  0  0  0
 10 27  1  0  0  0  0
 10 28  1  0  0  0  0
 11 12  1  0  0  0  0
 11 29  1  0  0  0  0
 11 30  1  0  0  0  0
 12 13  1  0  0  0  0
 12 17  1  0  0  0  0
 12 39  1  0  0  0  0
 13 14  1  0  0  0  0
 13 31  1  0  0  0  0
 13 32  1  0  0  0  0
 14 15  1  0  0  0  0
 14 16  2  0  0  0  0
 15 33  1  0  0  0  0
 15 34  1  0  0  0  0
 17 18  1  0  0  0  0
 17 35  1  0  0  0  0
 17 36  1  0  0  0  0
 18 37  1  0  0  0  0
 18 38  1  0  0  0  0
 19 20  1  0  0  0  0
M  CHG  1   5  -1
M  CHG  1  12   1
M  END
> <s_m_source_file>
AV-unprocessed.smi

> <i_m_source_file_index>
1417

> <i_lp_mmshare_version>
43012

> <i_f3d_flags>
0

> <s_epik_input>
W0NIM11jMVtjSF1jKG5vMSlbTkhdQyg9TylbTkhdW0NIXTJbQ0gyXVtDSDJdTihbQ0gyXVtDSDJdMilbQ0gyXUMoPU8pW05IMl0=

> <s_epik_cmdline>
J2VwaWtfcHl0aG9uJywgJy1waCcsICc3LjAnLCAnLXRuJywgJzgnLCAnLW1hJywgJzIwMCcsICctbWV0YWxfYmluZGluZycsICctaW1hZScsICc8aW5maWxlLm1hZT4nLCAnLW9tYWUnLCAnPG91dGZpbGUubWFlPic=

> <r_epik_Ionization_Penalty>
7.07562

> <r_epik_Ionization_Penalty_Charging>
7.07548

> <r_epik_Ionization_Penalty_Neutral>
0.00013758

> <r_epik_State_Penalty>
7.16607

> <r_epik_Charging_Adjusted_Penalty>
14.2416

> <i_epik_Tot_Q>
0

> <i_epik_Tot_abs_Q>
2

> <r_epik_Metal_State_Penalty>
3.11438

> <b_epik_Metal_Only>
1

> <s_lp_Force_Field>
OPLS_2005

> <r_lp_Energy>
-1.46184

> <b_lp_Chiralities_Consistent>
1

> <s_lp_Variant>
AV-unprocessed.smi:1417-5

> <Gold.Version>
5.8.1

> <Gold.Id.Protein>
6NUR|6NUR_protein|mol2

> <Gold.PLP.Fitness>
41.5367

> <Gold.PLP.PLP>
-27.6676

> <Gold.PLP.part.hbond>
-4.0000

> <Gold.PLP.part.metal>
0.0000

> <Gold.PLP.part.buried>
0.8896

> <Gold.PLP.part.nonpolar>
-25.5965

> <Gold.PLP.part.repulsive>
1.1577

> <Gold.PLP.ligand.clash>
0.0000

> <Gold.PLP.ligand.torsion>
0.5869

> <Gold.PLP.Chemscore.Hbond>
5.0000

> <Gold.PLP.Chemscore.CHOScore>
0.0000

> <Gold.PLP.Chemscore.Metal>
0.0000

> <Gold.Chemscore.Hbonds>
donor molecule, donor type, donor heavy atom, donor atom, acceptor molecule, acceptor atom, score
      L1  H    12    39       P1  7948  2.00
      L1  H    15    33       P1 10186  1.00
      L1  H    15    34       P1  7921  1.00
      P1  H  7989  7998       L1    19  0.98

> <Gold.PLP.Chemscore.Internal.Correction>
0.0428

> <Gold.Rescore>
     Score         DG    S(hbond)    S(metal)    S(lipo)     H(rot)  DE(clash)    DE(int)     intcor
     13.18     -19.64       3.80        0.00      56.71       2.02       1.62       4.84       ----

> <Gold.Chemscore.Fitness>
13.1768

> <Gold.Chemscore.DG>
-19.6361

> <Gold.Chemscore.ZeroCoef>
-5.4800

> <Gold.Chemscore.Hbond>
3.8020

> <Gold.Chemscore.Metal>
0.0000

> <Gold.Chemscore.Lipo>
56.7053

> <Gold.Chemscore.Internal_Hbond>
0.0000

> <Gold.Chemscore.DEClash>
1.6213

> <Gold.Chemscore.DEInternal>
4.8381

> <Gold.Chemscore.Rot>
2.0222

> <Gold.Chemscore.Internal.Correction>
   9.000000E+99

> <Gold.Chemscore.Hbonds>
donor molecule, donor type, donor heavy atom, donor atom, acceptor molecule, acceptor atom, score
      L1  H    12    39       P1  7948  1.00
      L1  H    15    33       P1 10186  0.94
      L1  H    15    34       P1  7921  0.95
      P1  H  7989  7998       L1    19  0.48

> <Gold.Chemscore.Hbond.Weighted>
-12.6985

> <Gold.Chemscore.Metal.Weighted>
-0.0000

> <Gold.Chemscore.Lipo.Weighted>
-6.6345

> <Gold.Chemscore.Internal_Hbond.Weighted>
0.0000

> <Gold.Chemscore.DEClash.Weighted>
1.6213

> <Gold.Chemscore.DEInternal.Weighted>
4.8381

> <Gold.Chemscore.Rot.Weighted>
5.1769

> <Gold.Chemscore.Internal.Correction.Weighted>
   9.000000E+99

> <Gold.Protein.RotatedTorsions>
[ 6907 6896 6895 6894 ] final -158.84 input  -60.11 | X-H torsion
[ 7974 7965 7964 7962 ] final  -14.27 input  175.53 | X-H torsion
[ 8008 7997 7996 7995 ] final   -5.07 input   59.86 | X-H torsion
[ 10167 10162 10161 10158 ] final  121.05 input  -65.29 | X-H torsion
[ 10718 10713 10712 10709 ] final   11.75 input   66.30 | X-H torsion
[ 10763 10752 10751 10750 ] final   73.02 input  -60.55 | X-H torsion
[ 11005 11000 10999 10996 ] final -114.55 input  -57.11 | X-H torsion

> <Gold.Protein.ActiveResidues>
 VAL166  LYS551  ARG553  GLY616  TRP617  ASP618  TYR619  PRO620  LYS621  CYS622 
 ASP623  PHE694  ASN695  SER759  ASP760  ASP761  ALA762  ILE779  LEU786  VAL792 
 PHE793  MET794  SER795  GLU796  ALA797  LYS798  CYS799  TRP800  GLU811  SER814 

> <Gold.Protein.RotatedAtoms>
  151.3243  133.4027  159.2656 H   0  0  0  0  0  0  0  0  0  0  0  0  # atno 6907 bound_to 6896
  151.0008  134.9321  159.7963 H   0  0  0  0  0  0  0  0  0  0  0  0  # atno 6908 bound_to 6896
  152.5274  134.3208  159.9200 H   0  0  0  0  0  0  0  0  0  0  0  0  # atno 6909 bound_to 6896
  146.2081  140.3325  142.8400 H   0  0  0  0  0  0  0  0  0  0  0  0  # atno 7974 bound_to 7965
  154.6077  140.2468  155.7709 H   0  0  0  0  0  0  0  0  0  0  0  0  # atno 8008 bound_to 7997
  156.2351  140.2953  156.0243 H   0  0  0  0  0  0  0  0  0  0  0  0  # atno 8009 bound_to 7997
  155.2104  140.0397  157.2923 H   0  0  0  0  0  0  0  0  0  0  0  0  # atno 8010 bound_to 7997
  139.5944  144.7036  151.3212 H   0  0  0  0  0  0  0  0  0  0  0  0  # atno 10167 bound_to 10162
  157.0002  130.6076  149.5695 H   0  0  0  0  0  0  0  0  0  0  0  0  # atno 10718 bound_to 10713
  153.0495  135.5078  154.7831 H   0  0  0  0  0  0  0  0  0  0  0  0  # atno 10763 bound_to 10752
  154.6704  135.2952  154.9751 H   0  0  0  0  0  0  0  0  0  0  0  0  # atno 10764 bound_to 10752
  154.0571  135.6696  153.4860 H   0  0  0  0  0  0  0  0  0  0  0  0  # atno 10765 bound_to 10752
  141.0544  133.9635  157.2779 H   0  0  0  0  0  0  0  0  0  0  0  0  # atno 11005 bound_to 11000
  144.8843  140.7441  143.5967 LP  0  0  0  0  0  0  0  0  0  0  0  0  # atno 17320 bound_to 7965
  145.3245  139.1778  143.4570 LP  0  0  0  0  0  0  0  0  0  0  0  0  # atno 17321 bound_to 7965
  140.7200  143.7163  150.7730 LP  0  0  0  0  0  0  0  0  0  0  0  0  # atno 17342 bound_to 10162
  140.0726  143.5046  152.2572 LP  0  0  0  0  0  0  0  0  0  0  0  0  # atno 17343 bound_to 10162
  156.0174  130.5268  150.8175 LP  0  0  0  0  0  0  0  0  0  0  0  0  # atno 17370 bound_to 10713
  157.5396  131.0940  150.9846 LP  0  0  0  0  0  0  0  0  0  0  0  0  # atno 17371 bound_to 10713
  139.9378  135.0194  156.8611 LP  0  0  0  0  0  0  0  0  0  0  0  0  # atno 17394 bound_to 11000
  140.5992  134.0188  155.7530 LP  0  0  0  0  0  0  0  0  0  0  0  0  # atno 17395 bound_to 11000

$$$$
