AV-unprocessed.smi:846|AV-procd|sdf|3936|dock5
  -GOLD-   22720 1403D 1   1.00000     0.00000
 Structure written by MMmdl.
 37 38  0  0  0  0  0  0  0  0  1 V2000
  145.1389  134.1625  151.0211 C   0  0  0  0  0  0  0  0  0  0  0  0
  145.9171  132.9314  151.4927 C   0  0  0  0  0  0  0  0  0  0  0  0
  146.9586  133.3670  152.3584 O   0  0  0  0  0  0  0  0  0  0  0  0
  147.5371  132.4562  153.2214 C   0  0  0  0  0  0  0  0  0  0  0  0
  147.1200  131.1662  153.1818 N   0  0  0  0  0  0  0  0  0  0  0  0
  147.6908  130.2835  154.0281 C   0  0  0  0  0  0  0  0  0  0  0  0
  148.6921  130.6370  154.9521 C   0  0  0  0  0  0  0  0  0  0  0  0
  149.1253  131.9754  154.9946 C   0  0  0  0  0  0  0  0  0  0  0  0
  148.5443  132.9084  154.1034 C   0  0  0  0  0  0  0  0  0  0  0  0
  148.8842  134.2860  154.0645 N   0  0  0  0  0  0  0  0  0  0  0  0
  149.4936  135.0366  155.0008 C   0  0  0  0  0  0  0  0  0  0  0  0
  149.7590  134.6592  156.1398 O   0  0  0  0  0  0  0  0  0  0  0  0
  149.8130  136.2746  154.5802 N   0  0  0  0  0  0  0  0  0  0  0  0
  150.4778  137.3387  155.3369 C   0  0  1  0  0  0  0  0  0  0  0  0
  151.6987  136.7968  156.1032 C   0  0  0  0  0  0  0  0  0  0  0  0
  152.5445  137.9824  156.5882 C   0  0  0  0  0  0  0  0  0  0  0  0
  152.2793  139.3329  155.3760 S   0  0  0  0  0  0  0  0  0  0  0  0
  151.6954  140.4892  156.0728 O   0  0  0  0  0  0  0  0  0  0  0  0
  153.4718  139.4816  154.5284 O   0  0  0  0  0  0  0  0  0  0  0  0
  150.9700  138.4766  154.4265 C   0  0  0  0  0  0  0  0  0  0  0  0
  144.3268  133.8781  150.3519 H   0  0  0  0  0  0  0  0  0  0  0  0
  145.7886  134.8550  150.4847 H   0  0  0  0  0  0  0  0  0  0  0  0
  144.7051  134.6987  151.8657 H   0  0  0  0  0  0  0  0  0  0  0  0
  145.2459  132.2494  152.0171 H   0  0  0  0  0  0  0  0  0  0  0  0
  146.3307  132.4059  150.6307 H   0  0  0  0  0  0  0  0  0  0  0  0
  147.3344  129.2656  153.9708 H   0  0  0  0  0  0  0  0  0  0  0  0
  149.1147  129.8986  155.6175 H   0  0  0  0  0  0  0  0  0  0  0  0
  149.8775  132.2613  155.7133 H   0  0  0  0  0  0  0  0  0  0  0  0
  148.7740  134.7242  153.1618 H   0  0  0  0  0  0  0  0  0  0  0  0
  149.5676  136.5015  153.6271 H   0  0  0  0  0  0  0  0  0  0  0  0
  149.7879  137.7514  156.0752 H   0  0  0  0  0  0  0  0  0  0  0  0
  151.4044  136.1513  156.9313 H   0  0  0  0  0  0  0  0  0  0  0  0
  152.3052  136.1906  155.4286 H   0  0  0  0  0  0  0  0  0  0  0  0
  152.1995  138.3326  157.5614 H   0  0  0  0  0  0  0  0  0  0  0  0
  153.6057  137.7441  156.6605 H   0  0  0  0  0  0  0  0  0  0  0  0
  151.4217  138.0839  153.5149 H   0  0  0  0  0  0  0  0  0  0  0  0
  150.1879  139.1843  154.1511 H   0  0  0  0  0  0  0  0  0  0  0  0
  1  2  1  0  0  0  0
  1 21  1  0  0  0  0
  1 22  1  0  0  0  0
  1 23  1  0  0  0  0
  2  3  1  0  0  0  0
  2 24  1  0  0  0  0
  2 25  1  0  0  0  0
  3  4  1  0  0  0  0
  4  9  1  0  0  0  0
  4  5  2  0  0  0  0
  5  6  1  0  0  0  0
  6  7  2  0  0  0  0
  6 26  1  0  0  0  0
  7  8  1  0  0  0  0
  7 27  1  0  0  0  0
  8  9  2  0  0  0  0
  8 28  1  0  0  0  0
  9 10  1  0  0  0  0
 10 11  1  0  0  0  0
 10 29  1  0  0  0  0
 11 12  2  0  0  0  0
 11 13  1  0  0  0  0
 13 14  1  0  0  0  0
 13 30  1  0  0  0  0
 14 20  1  0  0  0  0
 14 15  1  0  0  0  0
 14 31  1  0  0  0  0
 15 16  1  0  0  0  0
 15 32  1  0  0  0  0
 15 33  1  0  0  0  0
 16 17  1  0  0  0  0
 16 34  1  0  0  0  0
 16 35  1  0  0  0  0
 17 18  2  0  0  0  0
 17 19  2  0  0  0  0
 17 20  1  0  0  0  0
 20 36  1  0  0  0  0
 20 37  1  0  0  0  0
M  END
> <s_m_source_file>
AV-unprocessed.smi

> <i_m_source_file_index>
846

> <i_lp_mmshare_version>
43012

> <i_f3d_flags>
0

> <s_epik_input>
W0NIM11bQ0gyXU9jMW5bY0hdW2NIXVtjSF1jMVtOSF1DKD1PKVtOSF1bQ0BASF0oW0NIMl0yKVtDSDJdW0NIMl1TMig9Tyk9Tw==

> <s_epik_cmdline>
J2VwaWtfcHl0aG9uJywgJy1waCcsICc3LjAnLCAnLXRuJywgJzgnLCAnLW1hJywgJzIwMCcsICctbWV0YWxfYmluZGluZycsICctaW1hZScsICc8aW5maWxlLm1hZT4nLCAnLW9tYWUnLCAnPG91dGZpbGUubWFlPic=

> <r_lp_tautomer_probability>
1

> <r_epik_Ionization_Penalty>
9.45557e-05

> <r_epik_Ionization_Penalty_Charging>
0

> <r_epik_Ionization_Penalty_Neutral>
9.45557e-05

> <r_epik_State_Penalty>
-0

> <r_epik_Charging_Adjusted_Penalty>
0

> <i_epik_Tot_Q>
0

> <i_epik_Tot_abs_Q>
0

> <r_epik_Metal_State_Penalty>
-0

> <b_epik_Metal_Only>
0

> <s_lp_Force_Field>
OPLS_2005

> <r_lp_Energy>
17.3952

> <b_lp_Chiralities_Consistent>
1

> <s_lp_Variant>
AV-unprocessed.smi:846-2

> <Gold.Version>
5.8.1

> <Gold.Id.Protein>
6NUR|6NUR_protein|mol2

> <Gold.PLP.Fitness>
39.3202

> <Gold.PLP.PLP>
-31.6125

> <Gold.PLP.part.hbond>
-4.0000

> <Gold.PLP.part.metal>
0.0000

> <Gold.PLP.part.buried>
-4.9428

> <Gold.PLP.part.nonpolar>
-23.9153

> <Gold.PLP.part.repulsive>
0.7910

> <Gold.PLP.ligand.clash>
0.0000

> <Gold.PLP.ligand.torsion>
0.3471

> <Gold.PLP.Chemscore.Hbond>
2.8000

> <Gold.PLP.Chemscore.CHOScore>
0.0000

> <Gold.PLP.Chemscore.Metal>
0.0000

> <Gold.Chemscore.Hbonds>
donor molecule, donor type, donor heavy atom, donor atom, acceptor molecule, acceptor atom, score
      L1  H    10    29       P1  7948  0.95
      L1  H    13    30       P1  7948  1.00
      P1  H  7997  8009       L1    19  0.80

> <Gold.PLP.Chemscore.Internal.Correction>
0.0020

> <Gold.Rescore>
     Score         DG    S(hbond)    S(metal)    S(lipo)     H(rot)  DE(clash)    DE(int)     intcor
     15.49     -17.01       2.91        0.00      48.30       1.50       0.03       1.50       ----

> <Gold.Chemscore.Fitness>
15.4871

> <Gold.Chemscore.DG>
-17.0142

> <Gold.Chemscore.ZeroCoef>
-5.4800

> <Gold.Chemscore.Hbond>
2.9138

> <Gold.Chemscore.Metal>
0.0000

> <Gold.Chemscore.Lipo>
48.2965

> <Gold.Chemscore.Internal_Hbond>
0.0000

> <Gold.Chemscore.DEClash>
0.0310

> <Gold.Chemscore.DEInternal>
1.4962

> <Gold.Chemscore.Rot>
1.5033

> <Gold.Chemscore.Internal.Correction>
   9.000000E+99

> <Gold.Chemscore.Hbonds>
donor molecule, donor type, donor heavy atom, donor atom, acceptor molecule, acceptor atom, score
      L1  H    10    29       P1  7948  0.21
      L1  H    13    30       P1  7948  0.65
      P1  H  7997  8009       L1    19  0.12

> <Gold.Chemscore.Hbond.Weighted>
-9.7320

> <Gold.Chemscore.Metal.Weighted>
-0.0000

> <Gold.Chemscore.Lipo.Weighted>
-5.6507

> <Gold.Chemscore.Internal_Hbond.Weighted>
0.0000

> <Gold.Chemscore.DEClash.Weighted>
0.0310

> <Gold.Chemscore.DEInternal.Weighted>
1.4962

> <Gold.Chemscore.Rot.Weighted>
3.8484

> <Gold.Chemscore.Internal.Correction.Weighted>
   9.000000E+99

> <Gold.Protein.RotatedTorsions>
[ 6907 6896 6895 6894 ] final  157.75 input  -60.11 | X-H torsion
[ 7974 7965 7964 7962 ] final   34.85 input  175.53 | X-H torsion
[ 8008 7997 7996 7995 ] final -129.38 input   59.86 | X-H torsion
[ 10167 10162 10161 10158 ] final   69.18 input  -65.29 | X-H torsion
[ 10718 10713 10712 10709 ] final   41.41 input   66.30 | X-H torsion
[ 10763 10752 10751 10750 ] final  -14.23 input  -60.55 | X-H torsion
[ 11005 11000 10999 10996 ] final   72.62 input  -57.11 | X-H torsion

> <Gold.Protein.ActiveResidues>
 VAL166  LYS551  ARG553  GLY616  TRP617  ASP618  TYR619  PRO620  LYS621  CYS622 
 ASP623  PHE694  ASN695  SER759  ASP760  ASP761  ALA762  ILE779  LEU786  VAL792 
 PHE793  MET794  SER795  GLU796  ALA797  LYS798  CYS799  TRP800  GLU811  SER814 

> <Gold.Protein.RotatedAtoms>
  152.0105  133.3859  159.4217 H   0  0  0  0  0  0  0  0  0  0  0  0  # atno 6907 bound_to 6896
  150.6900  134.3735  159.5012 H   0  0  0  0  0  0  0  0  0  0  0  0  # atno 6908 bound_to 6896
  152.1495  134.8999  160.0599 H   0  0  0  0  0  0  0  0  0  0  0  0  # atno 6909 bound_to 6896
  146.1324  139.6217  142.9218 H   0  0  0  0  0  0  0  0  0  0  0  0  # atno 7974 bound_to 7965
  155.2782  140.0443  157.3013 H   0  0  0  0  0  0  0  0  0  0  0  0  # atno 8008 bound_to 7997
  154.5612  140.2346  155.8300 H   0  0  0  0  0  0  0  0  0  0  0  0  # atno 8009 bound_to 7997
  156.2049  140.3015  155.9612 H   0  0  0  0  0  0  0  0  0  0  0  0  # atno 8010 bound_to 7997
  140.0706  144.5155  150.7229 H   0  0  0  0  0  0  0  0  0  0  0  0  # atno 10167 bound_to 10162
  157.3932  130.7818  149.7287 H   0  0  0  0  0  0  0  0  0  0  0  0  # atno 10718 bound_to 10713
  153.5252  135.7015  153.5711 H   0  0  0  0  0  0  0  0  0  0  0  0  # atno 10763 bound_to 10752
  153.3742  135.3937  155.1811 H   0  0  0  0  0  0  0  0  0  0  0  0  # atno 10764 bound_to 10752
  154.8690  135.3819  154.4744 H   0  0  0  0  0  0  0  0  0  0  0  0  # atno 10765 bound_to 10752
  139.9481  134.7275  156.0928 H   0  0  0  0  0  0  0  0  0  0  0  0  # atno 11005 bound_to 11000
  145.5231  141.0431  143.2424 LP  0  0  0  0  0  0  0  0  0  0  0  0  # atno 17320 bound_to 7965
  144.7704  139.6747  143.7197 LP  0  0  0  0  0  0  0  0  0  0  0  0  # atno 17321 bound_to 7965
  140.7127  143.2518  151.4531 LP  0  0  0  0  0  0  0  0  0  0  0  0  # atno 17342 bound_to 10162
  139.5838  144.1650  152.2002 LP  0  0  0  0  0  0  0  0  0  0  0  0  # atno 17343 bound_to 10162
  155.9804  130.4030  150.3533 LP  0  0  0  0  0  0  0  0  0  0  0  0  # atno 17370 bound_to 10713
  157.1651  131.0355  151.2822 LP  0  0  0  0  0  0  0  0  0  0  0  0  # atno 17371 bound_to 10713
  141.1137  133.6634  156.3042 LP  0  0  0  0  0  0  0  0  0  0  0  0  # atno 17394 bound_to 11000
  140.5784  134.5770  157.5474 LP  0  0  0  0  0  0  0  0  0  0  0  0  # atno 17395 bound_to 11000

$$$$
