AV-unprocessed.smi:824|AV-procd|sdf|3849|dock4
  -GOLD-   22720 1293D 1   1.00000     0.00000
 Structure written by MMmdl.
 52 53  0  0  0  0  0  0  0  0  1 V2000
  149.7854  140.4794  155.5242 C   0  0  0  0  0  0  0  0  0  0  0  0
  151.0034  139.9616  156.2691 C   0  0  0  0  0  0  0  0  0  0  0  0
  151.3475  140.6961  157.3892 N   0  0  0  0  0  0  0  0  0  0  0  0
  152.4506  140.3102  158.1404 C   0  0  0  0  0  0  0  0  0  0  0  0
  152.7008  141.1173  159.2478 N   0  0  0  0  0  0  0  0  0  0  0  0
  152.2993  142.5231  159.2111 C   0  0  0  0  0  0  0  0  0  0  0  0
  152.2222  143.1186  160.6271 C   0  0  0  0  0  0  0  0  0  0  0  0
  153.4680  142.9426  161.2887 O   0  0  0  0  0  0  0  0  0  0  0  0
  153.7958  141.5657  161.4231 C   0  0  0  0  0  0  0  0  0  0  0  0
  153.9214  140.9261  160.0303 C   0  0  0  0  0  0  0  0  0  0  0  0
  153.1857  139.2771  157.8453 N   0  0  0  0  0  0  0  0  0  0  0  0
  152.8917  138.4963  156.7175 C   0  0  0  0  0  0  0  0  0  0  0  0
  153.5916  137.5260  156.4308 O   0  0  0  0  0  0  0  0  0  0  0  0
  151.7275  138.8808  155.8926 C   0  0  0  0  0  0  0  0  0  0  0  0
  151.3893  138.0361  154.6671 C   0  0  0  0  0  0  0  0  0  0  0  0
  150.2549  137.0325  154.9545 C   0  0  0  0  0  0  0  0  0  0  0  0
  150.7273  135.7374  155.6414 C   0  0  0  0  0  0  0  0  0  0  0  0
  151.9329  135.5728  155.8384 O   0  0  0  0  0  0  0  0  0  0  0  0
  149.8125  134.7983  155.9877 N   0  0  0  0  0  0  0  0  0  0  0  0
  148.3818  135.0803  155.8286 C   0  0  0  0  0  0  0  0  0  0  0  0
  150.1395  133.4974  156.5943 C   0  0  0  0  0  0  0  0  0  0  0  0
  150.7359  132.4852  155.5859 C   0  0  0  0  0  0  0  0  0  0  0  0
  149.7837  132.1733  154.4188 C   0  0  0  0  0  0  0  0  0  0  0  0
  151.1484  131.1910  156.3023 C   0  0  0  0  0  0  0  0  0  0  0  0
  150.7757  141.4936  157.6267 H   0  0  0  0  0  0  0  0  0  0  0  0
  150.0305  140.6731  154.4797 H   0  0  0  0  0  0  0  0  0  0  0  0
  149.4130  141.4080  155.9583 H   0  0  0  0  0  0  0  0  0  0  0  0
  148.9791  139.7464  155.5595 H   0  0  0  0  0  0  0  0  0  0  0  0
  151.3331  142.6404  158.7193 H   0  0  0  0  0  0  0  0  0  0  0  0
  153.0244  143.0788  158.6151 H   0  0  0  0  0  0  0  0  0  0  0  0
  151.9967  144.1838  160.5742 H   0  0  0  0  0  0  0  0  0  0  0  0
  151.4210  142.6520  161.2024 H   0  0  0  0  0  0  0  0  0  0  0  0
  154.7383  141.4764  161.9634 H   0  0  0  0  0  0  0  0  0  0  0  0
  153.0372  141.0550  162.0184 H   0  0  0  0  0  0  0  0  0  0  0  0
  154.7626  141.3662  159.4926 H   0  0  0  0  0  0  0  0  0  0  0  0
  154.1342  139.8616  160.1394 H   0  0  0  0  0  0  0  0  0  0  0  0
  152.2780  137.5007  154.3329 H   0  0  0  0  0  0  0  0  0  0  0  0
  151.1207  138.6919  153.8373 H   0  0  0  0  0  0  0  0  0  0  0  0
  149.5075  137.5276  155.5717 H   0  0  0  0  0  0  0  0  0  0  0  0
  149.7641  136.7627  154.0187 H   0  0  0  0  0  0  0  0  0  0  0  0
  148.1580  135.3976  154.8090 H   0  0  0  0  0  0  0  0  0  0  0  0
  148.0737  135.8757  156.5085 H   0  0  0  0  0  0  0  0  0  0  0  0
  147.7579  134.2099  156.0339 H   0  0  0  0  0  0  0  0  0  0  0  0
  150.8256  133.6371  157.4302 H   0  0  0  0  0  0  0  0  0  0  0  0
  149.2477  133.0679  157.0532 H   0  0  0  0  0  0  0  0  0  0  0  0
  151.6404  132.9101  155.1524 H   0  0  0  0  0  0  0  0  0  0  0  0
  148.8340  131.7746  154.7769 H   0  0  0  0  0  0  0  0  0  0  0  0
  150.2193  131.4359  153.7438 H   0  0  0  0  0  0  0  0  0  0  0  0
  149.5718  133.0630  153.8259 H   0  0  0  0  0  0  0  0  0  0  0  0
  150.2881  130.6973  156.7557 H   0  0  0  0  0  0  0  0  0  0  0  0
  151.8719  131.3924  157.0927 H   0  0  0  0  0  0  0  0  0  0  0  0
  151.6091  130.4866  155.6093 H   0  0  0  0  0  0  0  0  0  0  0  0
  1 26  1  0  0  0  0
  1 27  1  0  0  0  0
  1 28  1  0  0  0  0
  1  2  1  0  0  0  0
  2 14  2  0  0  0  0
  2  3  1  0  0  0  0
  3 25  1  0  0  0  0
  3  4  1  0  0  0  0
  4  5  1  0  0  0  0
  4 11  2  0  0  0  0
  5 10  1  0  0  0  0
  5  6  1  0  0  0  0
  6  7  1  0  0  0  0
  6 29  1  0  0  0  0
  6 30  1  0  0  0  0
  7  8  1  0  0  0  0
  7 31  1  0  0  0  0
  7 32  1  0  0  0  0
  8  9  1  0  0  0  0
  9 10  1  0  0  0  0
  9 33  1  0  0  0  0
  9 34  1  0  0  0  0
 10 35  1  0  0  0  0
 10 36  1  0  0  0  0
 11 12  1  0  0  0  0
 12 13  2  0  0  0  0
 12 14  1  0  0  0  0
 14 15  1  0  0  0  0
 15 16  1  0  0  0  0
 15 37  1  0  0  0  0
 15 38  1  0  0  0  0
 16 17  1  0  0  0  0
 16 39  1  0  0  0  0
 16 40  1  0  0  0  0
 17 18  2  0  0  0  0
 17 19  1  0  0  0  0
 19 20  1  0  0  0  0
 19 21  1  0  0  0  0
 20 41  1  0  0  0  0
 20 42  1  0  0  0  0
 20 43  1  0  0  0  0
 21 22  1  0  0  0  0
 21 44  1  0  0  0  0
 21 45  1  0  0  0  0
 22 23  1  0  0  0  0
 22 24  1  0  0  0  0
 22 46  1  0  0  0  0
 23 47  1  0  0  0  0
 23 48  1  0  0  0  0
 23 49  1  0  0  0  0
 24 50  1  0  0  0  0
 24 51  1  0  0  0  0
 24 52  1  0  0  0  0
M  END
> <s_m_source_file>
AV-unprocessed.smi

> <i_m_source_file_index>
824

> <i_lp_mmshare_version>
43012

> <i_f3d_flags>
0

> <s_epik_input>
W0NIMl0xW0NIMl1PW0NIMl1bQ0gyXU4xYyhuYzJbQ0gzXSlbbkhdYyg9TyljMltDSDJdW0NIMl1DKD1PKU4oW0NIM10pW0NIMl1bQ0hdKFtDSDNdKVtDSDNd

> <s_epik_cmdline>
J2VwaWtfcHl0aG9uJywgJy1waCcsICc3LjAnLCAnLXRuJywgJzgnLCAnLW1hJywgJzIwMCcsICctbWV0YWxfYmluZGluZycsICctaW1hZScsICc8aW5maWxlLm1hZT4nLCAnLW9tYWUnLCAnPG91dGZpbGUubWFlPic=

> <r_lp_tautomer_probability>
0.108306

> <r_epik_Ionization_Penalty>
0.0729191

> <r_epik_Ionization_Penalty_Charging>
0.0597558

> <r_epik_Ionization_Penalty_Neutral>
0.0131634

> <r_epik_State_Penalty>
1.71329

> <r_epik_Charging_Adjusted_Penalty>
1.77304

> <i_epik_Tot_Q>
0

> <i_epik_Tot_abs_Q>
0

> <r_epik_Metal_State_Penalty>
2.71696

> <b_epik_Metal_Only>
0

> <s_lp_Force_Field>
OPLS_2005

> <r_lp_Energy>
37.7489

> <b_lp_Chiralities_Consistent>
1

> <s_lp_Variant>
AV-unprocessed.smi:824-2

> <Gold.Version>
5.8.1

> <Gold.Id.Protein>
6NUR|6NUR_protein|mol2

> <Gold.PLP.Fitness>
48.5648

> <Gold.PLP.PLP>
-43.7434

> <Gold.PLP.part.hbond>
-2.9290

> <Gold.PLP.part.metal>
0.0000

> <Gold.PLP.part.buried>
-1.5697

> <Gold.PLP.part.nonpolar>
-39.3034

> <Gold.PLP.part.repulsive>
0.2213

> <Gold.PLP.ligand.clash>
0.0000

> <Gold.PLP.ligand.torsion>
0.7692

> <Gold.PLP.Chemscore.Hbond>
2.0000

> <Gold.PLP.Chemscore.CHOScore>
0.0000

> <Gold.PLP.Chemscore.Metal>
0.0000

> <Gold.Chemscore.Hbonds>
donor molecule, donor type, donor heavy atom, donor atom, acceptor molecule, acceptor atom, score
      P1  H  7997  8008       L1    11  0.50
      P1  H 10752 10764       L1    18  0.90

> <Gold.PLP.Chemscore.Internal.Correction>
0.3598

> <Gold.Rescore>
     Score         DG    S(hbond)    S(metal)    S(lipo)     H(rot)  DE(clash)    DE(int)     intcor
     14.11     -16.63       1.15        0.00      99.81       1.71       0.31       2.21       ----

> <Gold.Chemscore.Fitness>
14.1117

> <Gold.Chemscore.DG>
-16.6329

> <Gold.Chemscore.ZeroCoef>
-5.4800

> <Gold.Chemscore.Hbond>
1.1531

> <Gold.Chemscore.Metal>
0.0000

> <Gold.Chemscore.Lipo>
99.8080

> <Gold.Chemscore.Internal_Hbond>
0.0000

> <Gold.Chemscore.DEClash>
0.3112

> <Gold.Chemscore.DEInternal>
2.2101

> <Gold.Chemscore.Rot>
1.7093

> <Gold.Chemscore.Internal.Correction>
   9.000000E+99

> <Gold.Chemscore.Hbonds>
donor molecule, donor type, donor heavy atom, donor atom, acceptor molecule, acceptor atom, score
      P1  H  7997  8008       L1    11  0.01
      P1  H 10752 10764       L1    18  0.82

> <Gold.Chemscore.Hbond.Weighted>
-3.8512

> <Gold.Chemscore.Metal.Weighted>
-0.0000

> <Gold.Chemscore.Lipo.Weighted>
-11.6775

> <Gold.Chemscore.Internal_Hbond.Weighted>
0.0000

> <Gold.Chemscore.DEClash.Weighted>
0.3112

> <Gold.Chemscore.DEInternal.Weighted>
2.2101

> <Gold.Chemscore.Rot.Weighted>
4.3759

> <Gold.Chemscore.Internal.Correction.Weighted>
   9.000000E+99

> <Gold.Protein.RotatedTorsions>
[ 6907 6896 6895 6894 ] final   58.43 input  -60.11 | X-H torsion
[ 7974 7965 7964 7962 ] final  135.54 input  175.53 | X-H torsion
[ 8008 7997 7996 7995 ] final  -81.01 input   59.86 | X-H torsion
[ 10167 10162 10161 10158 ] final  -56.85 input  -65.29 | X-H torsion
[ 10718 10713 10712 10709 ] final  -37.19 input   66.30 | X-H torsion
[ 10763 10752 10751 10750 ] final  -55.17 input  -60.55 | X-H torsion
[ 11005 11000 10999 10996 ] final -129.65 input  -57.11 | X-H torsion

> <Gold.Protein.ActiveResidues>
 VAL166  LYS551  ARG553  GLY616  TRP617  ASP618  TYR619  PRO620  LYS621  CYS622 
 ASP623  PHE694  ASN695  SER759  ASP760  ASP761  ALA762  ILE779  LEU786  VAL792 
 PHE793  MET794  SER795  GLU796  ALA797  LYS798  CYS799  TRP800  GLU811  SER814 

> <Gold.Protein.RotatedAtoms>
  152.3823  134.6571  160.0138 H   0  0  0  0  0  0  0  0  0  0  0  0  # atno 6907 bound_to 6896
  151.6830  133.3306  159.3232 H   0  0  0  0  0  0  0  0  0  0  0  0  # atno 6908 bound_to 6896
  150.7757  134.6700  159.6431 H   0  0  0  0  0  0  0  0  0  0  0  0  # atno 6909 bound_to 6896
  144.9653  139.4665  143.5459 H   0  0  0  0  0  0  0  0  0  0  0  0  # atno 7974 bound_to 7965
  154.5940  140.0654  156.9278 H   0  0  0  0  0  0  0  0  0  0  0  0  # atno 8008 bound_to 7997
  155.2245  140.3333  155.4293 H   0  0  0  0  0  0  0  0  0  0  0  0  # atno 8009 bound_to 7997
  156.2275  140.1826  156.7311 H   0  0  0  0  0  0  0  0  0  0  0  0  # atno 8010 bound_to 7997
  140.6293  143.2452  151.5283 H   0  0  0  0  0  0  0  0  0  0  0  0  # atno 10167 bound_to 10162
  156.3181  130.4262  149.7986 H   0  0  0  0  0  0  0  0  0  0  0  0  # atno 10718 bound_to 10713
  154.1865  135.6434  153.5048 H   0  0  0  0  0  0  0  0  0  0  0  0  # atno 10763 bound_to 10752
  153.0046  135.5418  154.6459 H   0  0  0  0  0  0  0  0  0  0  0  0  # atno 10764 bound_to 10752
  154.5837  135.2927  155.0679 H   0  0  0  0  0  0  0  0  0  0  0  0  # atno 10765 bound_to 10752
  140.9413  134.1189  157.4148 H   0  0  0  0  0  0  0  0  0  0  0  0  # atno 11005 bound_to 11000
  146.3366  139.8830  142.8821 LP  0  0  0  0  0  0  0  0  0  0  0  0  # atno 17320 bound_to 7965
  145.2639  141.0086  143.3811 LP  0  0  0  0  0  0  0  0  0  0  0  0  # atno 17321 bound_to 7965
  139.5509  144.2398  152.1528 LP  0  0  0  0  0  0  0  0  0  0  0  0  # atno 17342 bound_to 10162
  140.1638  144.5001  150.6618 LP  0  0  0  0  0  0  0  0  0  0  0  0  # atno 17343 bound_to 10162
  156.5304  130.8255  151.3235 LP  0  0  0  0  0  0  0  0  0  0  0  0  # atno 17370 bound_to 10713
  157.7406  130.9853  150.2388 LP  0  0  0  0  0  0  0  0  0  0  0  0  # atno 17371 bound_to 10713
  139.8821  135.0037  156.6205 LP  0  0  0  0  0  0  0  0  0  0  0  0  # atno 17394 bound_to 11000
  140.7730  133.8722  155.8507 LP  0  0  0  0  0  0  0  0  0  0  0  0  # atno 17395 bound_to 11000

$$$$
