AV-unprocessed.smi:1401|AV-procd|sdf|5693|dock7
  -GOLD-   22720 5323D 1   1.00000     0.00000
 Structure written by MMmdl.
 48 50  0  0  0  0  0  0  0  0  1 V2000
  149.5677  129.1799  153.8446 C   0  0  0  0  0  0  0  0  0  0  0  0
  150.0092  130.4259  154.5640 C   0  0  0  0  0  0  0  0  0  0  0  0
  149.5540  131.5485  154.1129 N   0  0  0  0  0  0  0  0  0  0  0  0
  149.9014  132.7513  154.6962 N   0  0  0  0  0  0  0  0  0  0  0  0
  149.3354  133.9317  154.0283 C   0  0  0  0  0  0  0  0  0  0  0  0
  147.8122  133.8285  153.8805 C   0  0  0  0  0  0  0  0  0  0  0  0
  147.1718  133.0635  154.6021 O   0  0  0  0  0  0  0  0  0  0  0  0
  147.2531  134.6013  152.9359 N   0  0  0  0  0  0  0  0  0  0  0  0
  145.8370  134.6234  152.5742 C   0  0  1  0  0  0  0  0  0  0  0  0
  145.3382  136.0740  152.6790 C   0  0  0  0  0  0  0  0  0  0  0  0
  145.6276  134.0345  151.1541 C   0  0  2  0  0  0  0  0  0  0  0  0
  144.1784  134.1978  150.6324 C   0  0  0  0  0  0  0  0  0  0  0  0
  143.7752  132.7649  150.2411 C   0  0  1  0  0  0  0  0  0  0  0  0
  144.5633  132.3309  148.9922 C   0  0  0  0  0  0  0  0  0  0  0  0
  145.9848  132.1263  149.5465 C   0  0  0  0  0  0  0  0  0  0  0  0
  145.8279  132.4997  151.0329 C   0  0  2  0  0  0  0  0  0  0  0  0
  144.4407  131.9478  151.3403 C   0  0  0  0  0  0  0  0  0  0  0  0
  150.7120  132.8806  155.7867 C   0  0  0  0  0  0  0  0  0  0  0  0
  150.9811  133.9742  156.2867 O   0  0  0  0  0  0  0  0  0  0  0  0
  151.2262  131.6055  156.2900 C   0  0  0  0  0  0  0  0  0  0  0  0
  152.0905  131.6978  157.4221 C   0  0  0  0  0  0  0  0  0  0  0  0
  152.7861  131.7912  158.3428 N   0  0  0  0  0  0  0  0  0  0  0  0
  150.9053  130.4190  155.7161 C   0  0  0  0  0  0  0  0  0  0  0  0
  151.4146  129.0683  156.2002 C   0  0  0  0  0  0  0  0  0  0  0  0
  149.0942  128.4809  154.5342 H   0  0  0  0  0  0  0  0  0  0  0  0
  150.4191  128.6781  153.3844 H   0  0  0  0  0  0  0  0  0  0  0  0
  148.8485  129.3998  153.0540 H   0  0  0  0  0  0  0  0  0  0  0  0
  149.5600  134.8364  154.5958 H   0  0  0  0  0  0  0  0  0  0  0  0
  149.8055  134.0728  153.0529 H   0  0  0  0  0  0  0  0  0  0  0  0
  147.8648  135.1964  152.3961 H   0  0  0  0  0  0  0  0  0  0  0  0
  145.2660  134.0295  153.2897 H   0  0  0  0  0  0  0  0  0  0  0  0
  144.2706  136.1490  152.4732 H   0  0  0  0  0  0  0  0  0  0  0  0
  145.8572  136.7241  151.9738 H   0  0  0  0  0  0  0  0  0  0  0  0
  145.5018  136.4728  153.6807 H   0  0  0  0  0  0  0  0  0  0  0  0
  146.3208  134.5378  150.4779 H   0  0  0  0  0  0  0  0  0  0  0  0
  143.5102  134.5648  151.4122 H   0  0  0  0  0  0  0  0  0  0  0  0
  144.1160  134.8910  149.7928 H   0  0  0  0  0  0  0  0  0  0  0  0
  142.6980  132.6237  150.1504 H   0  0  0  0  0  0  0  0  0  0  0  0
  144.1711  131.3965  148.5885 H   0  0  0  0  0  0  0  0  0  0  0  0
  144.5279  133.0797  148.2001 H   0  0  0  0  0  0  0  0  0  0  0  0
  146.2893  131.0842  149.4412 H   0  0  0  0  0  0  0  0  0  0  0  0
  146.7265  132.7417  149.0361 H   0  0  0  0  0  0  0  0  0  0  0  0
  146.6268  132.0871  151.6463 H   0  0  0  0  0  0  0  0  0  0  0  0
  144.0860  132.1939  152.3424 H   0  0  0  0  0  0  0  0  0  0  0  0
  144.3602  130.8700  151.1878 H   0  0  0  0  0  0  0  0  0  0  0  0
  152.1502  129.1670  156.9977 H   0  0  0  0  0  0  0  0  0  0  0  0
  151.8916  128.5210  155.3865 H   0  0  0  0  0  0  0  0  0  0  0  0
  150.5906  128.4662  156.5836 H   0  0  0  0  0  0  0  0  0  0  0  0
  1  2  1  0  0  0  0
  1 25  1  0  0  0  0
  1 26  1  0  0  0  0
  1 27  1  0  0  0  0
  2 23  1  0  0  0  0
  2  3  2  0  0  0  0
  3  4  1  0  0  0  0
  4  5  1  0  0  0  0
  4 18  1  0  0  0  0
  5  6  1  0  0  0  0
  5 28  1  0  0  0  0
  5 29  1  0  0  0  0
  6  7  2  0  0  0  0
  6  8  1  0  0  0  0
  8  9  1  0  0  0  0
  8 30  1  0  0  0  0
  9 10  1  0  0  0  0
  9 11  1  0  0  0  0
  9 31  1  0  0  0  0
 10 32  1  0  0  0  0
 10 33  1  0  0  0  0
 10 34  1  0  0  0  0
 11 16  1  0  0  0  0
 11 12  1  0  0  0  0
 11 35  1  0  0  0  0
 12 13  1  0  0  0  0
 12 36  1  0  0  0  0
 12 37  1  0  0  0  0
 13 17  1  0  0  0  0
 13 14  1  0  0  0  0
 13 38  1  0  0  0  0
 14 15  1  0  0  0  0
 14 39  1  0  0  0  0
 14 40  1  0  0  0  0
 15 16  1  0  0  0  0
 15 41  1  0  0  0  0
 15 42  1  0  0  0  0
 16 17  1  0  0  0  0
 16 43  1  0  0  0  0
 17 44  1  0  0  0  0
 17 45  1  0  0  0  0
 18 19  2  0  0  0  0
 18 20  1  0  0  0  0
 20 21  1  0  0  0  0
 20 23  2  0  0  0  0
 21 22  3  0  0  0  0
 23 24  1  0  0  0  0
 24 46  1  0  0  0  0
 24 47  1  0  0  0  0
 24 48  1  0  0  0  0
M  END
> <s_m_source_file>
AV-unprocessed.smi

> <i_m_source_file_index>
1401

> <i_lp_mmshare_version>
43012

> <i_f3d_flags>
0

> <s_epik_input>
TiNDYyhjMVtDSDNdKWMoPU8pbihuYzFbQ0gzXSlbQ0gyXUMoPU8pW05IXVtDQEhdKFtDSDNdKVtDQEhdKFtDSDJdW0NASF0yMylbQ0BIXShbQ0gyXTMpW0NIMl1bQ0gyXTI=

> <s_epik_cmdline>
J2VwaWtfcHl0aG9uJywgJy1waCcsICc3LjAnLCAnLXRuJywgJzgnLCAnLW1hJywgJzIwMCcsICctbWV0YWxfYmluZGluZycsICctaW1hZScsICc8aW5maWxlLm1hZT4nLCAnLW9tYWUnLCAnPG91dGZpbGUubWFlPic=

> <r_lp_tautomer_probability>
1

> <r_epik_Ionization_Penalty>
2.16501e-08

> <r_epik_Ionization_Penalty_Charging>
2.29436e-11

> <r_epik_Ionization_Penalty_Neutral>
2.16271e-08

> <r_epik_State_Penalty>
-0

> <r_epik_Charging_Adjusted_Penalty>
2.29436e-11

> <i_epik_Tot_Q>
0

> <i_epik_Tot_abs_Q>
0

> <r_epik_Metal_State_Penalty>
-0

> <b_epik_Metal_Only>
0

> <s_lp_Force_Field>
OPLS_2005

> <r_lp_Energy>
65.2014

> <b_lp_Chiralities_Consistent>
1

> <s_lp_Variant>
AV-unprocessed.smi:1401-6

> <Gold.Version>
5.8.1

> <Gold.Id.Protein>
6NUR|6NUR_protein|mol2

> <Gold.PLP.Fitness>
46.6809

> <Gold.PLP.PLP>
-41.6375

> <Gold.PLP.part.hbond>
-2.0000

> <Gold.PLP.part.metal>
0.0000

> <Gold.PLP.part.buried>
-4.7023

> <Gold.PLP.part.nonpolar>
-35.7184

> <Gold.PLP.part.repulsive>
0.0932

> <Gold.PLP.ligand.clash>
0.0000

> <Gold.PLP.ligand.torsion>
0.4892

> <Gold.PLP.Chemscore.Hbond>
2.0000

> <Gold.PLP.Chemscore.CHOScore>
0.0000

> <Gold.PLP.Chemscore.Metal>
0.0000

> <Gold.Chemscore.Hbonds>
donor molecule, donor type, donor heavy atom, donor atom, acceptor molecule, acceptor atom, score
      L1  H     8    30       P1  7948  1.00
      P1  H  6896  6907       L1    22  1.00

> <Gold.PLP.Chemscore.Internal.Correction>
0.0219

> <Gold.Rescore>
     Score         DG    S(hbond)    S(metal)    S(lipo)     H(rot)  DE(clash)    DE(int)     intcor
     17.77     -19.53       1.84        0.00     103.01       1.63       0.13       1.63       ----

> <Gold.Chemscore.Fitness>
17.7713

> <Gold.Chemscore.DG>
-19.5252

> <Gold.Chemscore.ZeroCoef>
-5.4800

> <Gold.Chemscore.Hbond>
1.8447

> <Gold.Chemscore.Metal>
0.0000

> <Gold.Chemscore.Lipo>
103.0071

> <Gold.Chemscore.Internal_Hbond>
0.0000

> <Gold.Chemscore.DEClash>
0.1283

> <Gold.Chemscore.DEInternal>
1.6256

> <Gold.Chemscore.Rot>
1.6281

> <Gold.Chemscore.Internal.Correction>
   9.000000E+99

> <Gold.Chemscore.Hbonds>
donor molecule, donor type, donor heavy atom, donor atom, acceptor molecule, acceptor atom, score
      L1  H     8    30       P1  7948  0.94
      P1  H  6896  6907       L1    22  0.38

> <Gold.Chemscore.Hbond.Weighted>
-6.1612

> <Gold.Chemscore.Metal.Weighted>
-0.0000

> <Gold.Chemscore.Lipo.Weighted>
-12.0518

> <Gold.Chemscore.Internal_Hbond.Weighted>
0.0000

> <Gold.Chemscore.DEClash.Weighted>
0.1283

> <Gold.Chemscore.DEInternal.Weighted>
1.6256

> <Gold.Chemscore.Rot.Weighted>
4.1678

> <Gold.Chemscore.Internal.Correction.Weighted>
   9.000000E+99

> <Gold.Protein.RotatedTorsions>
[ 6907 6896 6895 6894 ] final  162.17 input  -60.11 | X-H torsion
[ 7974 7965 7964 7962 ] final  -81.55 input  175.53 | X-H torsion
[ 8008 7997 7996 7995 ] final -172.09 input   59.86 | X-H torsion
[ 10167 10162 10161 10158 ] final  135.75 input  -65.29 | X-H torsion
[ 10718 10713 10712 10709 ] final   48.06 input   66.30 | X-H torsion
[ 10763 10752 10751 10750 ] final  135.96 input  -60.55 | X-H torsion
[ 11005 11000 10999 10996 ] final -163.47 input  -57.11 | X-H torsion

> <Gold.Protein.ActiveResidues>
 VAL166  LYS551  ARG553  GLY616  TRP617  ASP618  TYR619  PRO620  LYS621  CYS622 
 ASP623  PHE694  ASN695  SER759  ASP760  ASP761  ALA762  ILE779  LEU786  VAL792 
 PHE793  MET794  SER795  GLU796  ALA797  LYS798  CYS799  TRP800  GLU811  SER814 

> <Gold.Protein.RotatedAtoms>
  151.9445  133.3647  159.3976 H   0  0  0  0  0  0  0  0  0  0  0  0  # atno 6907 bound_to 6896
  150.6992  134.4405  159.5299 H   0  0  0  0  0  0  0  0  0  0  0  0  # atno 6908 bound_to 6896
  152.2067  134.8538  160.0552 H   0  0  0  0  0  0  0  0  0  0  0  0  # atno 6909 bound_to 6896
  145.5451  140.9504  143.1529 H   0  0  0  0  0  0  0  0  0  0  0  0  # atno 7974 bound_to 7965
  155.9400  140.1107  157.1063 H   0  0  0  0  0  0  0  0  0  0  0  0  # atno 8008 bound_to 7997
  154.4087  140.1221  156.4981 H   0  0  0  0  0  0  0  0  0  0  0  0  # atno 8009 bound_to 7997
  155.6973  140.3472  155.4920 H   0  0  0  0  0  0  0  0  0  0  0  0  # atno 8010 bound_to 7997
  139.5205  144.6500  151.5328 H   0  0  0  0  0  0  0  0  0  0  0  0  # atno 10167 bound_to 10162
  157.4648  130.8219  149.7925 H   0  0  0  0  0  0  0  0  0  0  0  0  # atno 10718 bound_to 10713
  153.8487  135.3082  155.3431 H   0  0  0  0  0  0  0  0  0  0  0  0  # atno 10763 bound_to 10752
  154.7901  135.4787  154.0036 H   0  0  0  0  0  0  0  0  0  0  0  0  # atno 10764 bound_to 10752
  153.1531  135.6847  153.8945 H   0  0  0  0  0  0  0  0  0  0  0  0  # atno 10765 bound_to 10752
  140.5977  134.4980  157.5201 H   0  0  0  0  0  0  0  0  0  0  0  0  # atno 11005 bound_to 11000
  144.7557  139.7081  143.7255 LP  0  0  0  0  0  0  0  0  0  0  0  0  # atno 17320 bound_to 7965
  146.1954  139.5218  142.9778 LP  0  0  0  0  0  0  0  0  0  0  0  0  # atno 17321 bound_to 7965
  140.6302  143.9092  150.6598 LP  0  0  0  0  0  0  0  0  0  0  0  0  # atno 17342 bound_to 10162
  140.2393  143.3676  152.1500 LP  0  0  0  0  0  0  0  0  0  0  0  0  # atno 17343 bound_to 10162
  156.0045  130.3862  150.2480 LP  0  0  0  0  0  0  0  0  0  0  0  0  # atno 17370 bound_to 10713
  157.0660  131.0103  151.3206 LP  0  0  0  0  0  0  0  0  0  0  0  0  # atno 17371 bound_to 10713
  139.9246  134.8081  156.1107 LP  0  0  0  0  0  0  0  0  0  0  0  0  # atno 17394 bound_to 11000
  141.0893  133.6721  156.2505 LP  0  0  0  0  0  0  0  0  0  0  0  0  # atno 17395 bound_to 11000

$$$$
