AV-unprocessed.smi:1695|AV-procd|sdf|6789|dock2
  -GOLD-   22720 7553D 1   1.00000     0.00000
 Structure written by MMmdl.
 51 53  0  0  0  0  0  0  0  0  2 V2000
  152.6194  142.8303  160.7077 C   0  0  0  0  0  0  0  0  0  0  0  0
  152.2144  142.2118  159.3812 C   0  0  0  0  0  0  0  0  0  0  0  0
  152.8125  140.9965  158.9787 C   0  0  0  0  0  0  0  0  0  0  0  0
  152.4641  140.3888  157.7530 C   0  0  0  0  0  0  0  0  0  0  0  0
  152.9130  139.2155  157.1715 N   0  0  0  0  0  0  0  0  0  0  0  0
  152.2137  139.1913  156.0409 C   0  0  0  0  0  0  0  0  0  0  0  0
  151.3582  140.2086  155.8233 N   0  0  0  0  0  0  0  0  0  0  0  0
  150.4885  140.3843  154.6749 C   0  0  0  0  0  0  0  0  0  0  0  0
  149.6163  139.1434  154.4026 C   0  0  2  0  0  0  0  0  0  0  0  0
  150.3057  138.3262  153.4784 O   0  0  0  0  0  0  0  0  0  0  0  0
  148.2238  139.4810  153.8250 C   0  0  0  0  0  0  0  0  0  0  0  0
  147.5095  138.2793  153.3233 N   0  3  1  0  0  0  0  0  0  0  0  0
  146.8891  137.4731  154.4079 C   0  0  0  0  0  0  0  0  0  0  0  0
  146.2741  136.1727  153.8555 C   0  0  0  0  0  0  0  0  0  0  0  0
  145.2672  136.4122  152.7103 C   0  0  1  0  0  0  0  0  0  0  0  0
  143.9036  136.9244  153.2115 C   0  0  0  0  0  0  0  0  0  0  0  0
  143.1270  137.5489  152.3226 N   0  0  0  0  0  0  0  0  0  0  0  0
  143.5501  136.7645  154.3777 O   0  0  0  0  0  0  0  0  0  0  0  0
  145.9032  137.3413  151.6544 C   0  0  0  0  0  0  0  0  0  0  0  0
  146.5290  138.6131  152.2592 C   0  0  0  0  0  0  0  0  0  0  0  0
  151.4930  141.0357  156.9337 C   0  0  0  0  0  0  0  0  0  0  0  0
  150.8908  142.2453  157.3229 C   0  0  0  0  0  0  0  0  0  0  0  0
  151.2504  142.8385  158.5511 C   0  0  0  0  0  0  0  0  0  0  0  0
  150.5948  144.1446  158.9633 C   0  0  0  0  0  0  0  0  0  0  0  0
  153.3589  142.2173  161.2238 H   0  0  0  0  0  0  0  0  0  0  0  0
  151.7540  142.9321  161.3628 H   0  0  0  0  0  0  0  0  0  0  0  0
  153.0542  143.8178  160.5516 H   0  0  0  0  0  0  0  0  0  0  0  0
  153.5463  140.5185  159.6111 H   0  0  0  0  0  0  0  0  0  0  0  0
  152.3244  138.3839  155.3318 H   0  0  0  0  0  0  0  0  0  0  0  0
  149.8649  141.2638  154.8409 H   0  0  0  0  0  0  0  0  0  0  0  0
  151.1129  140.6052  153.8077 H   0  0  0  0  0  0  0  0  0  0  0  0
  149.5179  138.5846  155.3329 H   0  0  0  0  0  0  0  0  0  0  0  0
  149.6923  137.7171  153.0955 H   0  0  0  0  0  0  0  0  0  0  0  0
  147.5937  139.9704  154.5682 H   0  0  0  0  0  0  0  0  0  0  0  0
  148.3532  140.2042  153.0182 H   0  0  0  0  0  0  0  0  0  0  0  0
  147.6358  137.2118  155.1566 H   0  0  0  0  0  0  0  0  0  0  0  0
  146.1368  138.0688  154.9258 H   0  0  0  0  0  0  0  0  0  0  0  0
  147.0773  135.5313  153.4901 H   0  0  0  0  0  0  0  0  0  0  0  0
  145.7991  135.6188  154.6664 H   0  0  0  0  0  0  0  0  0  0  0  0
  145.0850  135.4492  152.2295 H   0  0  0  0  0  0  0  0  0  0  0  0
  142.2230  137.9038  152.5992 H   0  0  0  0  0  0  0  0  0  0  0  0
  143.4477  137.6644  151.3717 H   0  0  0  0  0  0  0  0  0  0  0  0
  146.6766  136.7881  151.1198 H   0  0  0  0  0  0  0  0  0  0  0  0
  145.1644  137.6191  150.9011 H   0  0  0  0  0  0  0  0  0  0  0  0
  145.7623  139.2765  152.6601 H   0  0  0  0  0  0  0  0  0  0  0  0
  147.0303  139.1668  151.4643 H   0  0  0  0  0  0  0  0  0  0  0  0
  150.1578  142.7131  156.6829 H   0  0  0  0  0  0  0  0  0  0  0  0
  149.8856  144.4893  158.2103 H   0  0  0  0  0  0  0  0  0  0  0  0
  151.3457  144.9237  159.0968 H   0  0  0  0  0  0  0  0  0  0  0  0
  150.0532  144.0209  159.9013 H   0  0  0  0  0  0  0  0  0  0  0  0
  148.2105  137.6977  152.8862 H   0  0  0  0  0  0  0  0  0  0  0  0
  1  2  1  0  0  0  0
  1 25  1  0  0  0  0
  1 26  1  0  0  0  0
  1 27  1  0  0  0  0
  2 23  1  0  0  0  0
  2  3  2  0  0  0  0
  3  4  1  0  0  0  0
  3 28  1  0  0  0  0
  4 21  2  0  0  0  0
  4  5  1  0  0  0  0
  5  6  2  0  0  0  0
  6  7  1  0  0  0  0
  6 29  1  0  0  0  0
  7  8  1  0  0  0  0
  7 21  1  0  0  0  0
  8  9  1  0  0  0  0
  8 30  1  0  0  0  0
  8 31  1  0  0  0  0
  9 10  1  0  0  0  0
  9 11  1  0  0  0  0
  9 32  1  0  0  0  0
 10 33  1  0  0  0  0
 11 12  1  0  0  0  0
 11 34  1  0  0  0  0
 11 35  1  0  0  0  0
 12 20  1  0  0  0  0
 12 13  1  0  0  0  0
 12 51  1  0  0  0  0
 13 14  1  0  0  0  0
 13 36  1  0  0  0  0
 13 37  1  0  0  0  0
 14 15  1  0  0  0  0
 14 38  1  0  0  0  0
 14 39  1  0  0  0  0
 15 16  1  0  0  0  0
 15 19  1  0  0  0  0
 15 40  1  0  0  0  0
 16 17  1  0  0  0  0
 16 18  2  0  0  0  0
 17 41  1  0  0  0  0
 17 42  1  0  0  0  0
 19 20  1  0  0  0  0
 19 43  1  0  0  0  0
 19 44  1  0  0  0  0
 20 45  1  0  0  0  0
 20 46  1  0  0  0  0
 21 22  1  0  0  0  0
 22 23  2  0  0  0  0
 22 47  1  0  0  0  0
 23 24  1  0  0  0  0
 24 48  1  0  0  0  0
 24 49  1  0  0  0  0
 24 50  1  0  0  0  0
M  CHG  1  12   1
M  END
> <s_m_source_file>
AV-unprocessed.smi

> <i_m_source_file_index>
1695

> <i_lp_mmshare_version>
43012

> <i_f3d_flags>
0

> <s_epik_input>
W0NIM11jKFtjSF0xKWMoW0NIM10pW2NIXWMoYzEyKW4oW2NIXW4yKVtDSDJdW0NASF0oW09IXSlbQ0gyXU4zW0NIMl1bQ0gyXVtDSF0oQyg9TylbTkgyXSlbQ0gyXVtDSDJdMw==

> <s_epik_cmdline>
J2VwaWtfcHl0aG9uJywgJy1waCcsICc3LjAnLCAnLXRuJywgJzgnLCAnLW1hJywgJzIwMCcsICctbWV0YWxfYmluZGluZycsICctaW1hZScsICc8aW5maWxlLm1hZT4nLCAnLW9tYWUnLCAnPG91dGZpbGUubWFlPic=

> <r_epik_Ionization_Penalty>
0.113899

> <r_epik_Ionization_Penalty_Charging>
0.0258844

> <r_epik_Ionization_Penalty_Neutral>
0.0880147

> <r_epik_State_Penalty>
0.0974403

> <r_epik_Charging_Adjusted_Penalty>
0.123325

> <i_epik_Tot_Q>
1

> <i_epik_Tot_abs_Q>
1

> <r_epik_Metal_State_Penalty>
0.0851148

> <b_epik_Metal_Only>
0

> <s_lp_Force_Field>
OPLS_2005

> <r_lp_Energy>
17.7393

> <b_lp_Chiralities_Consistent>
1

> <s_lp_Variant>
AV-unprocessed.smi:1695-1

> <Gold.Version>
5.8.1

> <Gold.Id.Protein>
6NUR|6NUR_protein|mol2

> <Gold.PLP.Fitness>
53.0904

> <Gold.PLP.PLP>
-41.8846

> <Gold.PLP.part.hbond>
-6.3539

> <Gold.PLP.part.metal>
0.0000

> <Gold.PLP.part.buried>
3.0140

> <Gold.PLP.part.nonpolar>
-38.9157

> <Gold.PLP.part.repulsive>
0.1386

> <Gold.PLP.ligand.clash>
0.0000

> <Gold.PLP.ligand.torsion>
1.4140

> <Gold.PLP.Chemscore.Hbond>
4.6250

> <Gold.PLP.Chemscore.CHOScore>
0.0000

> <Gold.PLP.Chemscore.Metal>
0.0000

> <Gold.Chemscore.Hbonds>
donor molecule, donor type, donor heavy atom, donor atom, acceptor molecule, acceptor atom, score
      L1  H    10    33       P1  7948  1.00
      L1  H    12    51       P1  7948  2.00
      L1  H    17    42       P1 10171  1.00
      P1  H  7997  8009       L1     5  0.45

> <Gold.PLP.Chemscore.Internal.Correction>
0.1588

> <Gold.Rescore>
     Score         DG    S(hbond)    S(metal)    S(lipo)     H(rot)  DE(clash)    DE(int)     intcor
     17.11     -19.82       2.66        0.00     108.90       2.85       1.36       1.35       ----

> <Gold.Chemscore.Fitness>
17.1149

> <Gold.Chemscore.DG>
-19.8241

> <Gold.Chemscore.ZeroCoef>
-5.4800

> <Gold.Chemscore.Hbond>
2.6614

> <Gold.Chemscore.Metal>
0.0000

> <Gold.Chemscore.Lipo>
108.9048

> <Gold.Chemscore.Internal_Hbond>
0.0000

> <Gold.Chemscore.DEClash>
1.3631

> <Gold.Chemscore.DEInternal>
1.3462

> <Gold.Chemscore.Rot>
2.8464

> <Gold.Chemscore.Internal.Correction>
   9.000000E+99

> <Gold.Chemscore.Hbonds>
donor molecule, donor type, donor heavy atom, donor atom, acceptor molecule, acceptor atom, score
      L1  H    10    33       P1  7948  0.65
      L1  H    12    51       P1  7948  0.99
      L1  H    17    42       P1 10171  0.91
      P1  H  7997  8009       L1     5  0.01

> <Gold.Chemscore.Hbond.Weighted>
-8.8890

> <Gold.Chemscore.Metal.Weighted>
-0.0000

> <Gold.Chemscore.Lipo.Weighted>
-12.7419

> <Gold.Chemscore.Internal_Hbond.Weighted>
0.0000

> <Gold.Chemscore.DEClash.Weighted>
1.3631

> <Gold.Chemscore.DEInternal.Weighted>
1.3462

> <Gold.Chemscore.Rot.Weighted>
7.2867

> <Gold.Chemscore.Internal.Correction.Weighted>
   9.000000E+99

> <Gold.Protein.RotatedTorsions>
[ 6907 6896 6895 6894 ] final   68.66 input  -60.11 | X-H torsion
[ 7974 7965 7964 7962 ] final -162.61 input  175.53 | X-H torsion
[ 8008 7997 7996 7995 ] final  175.67 input   59.86 | X-H torsion
[ 10167 10162 10161 10158 ] final   -7.77 input  -65.29 | X-H torsion
[ 10718 10713 10712 10709 ] final   98.58 input   66.30 | X-H torsion
[ 10763 10752 10751 10750 ] final  -54.96 input  -60.55 | X-H torsion
[ 11005 11000 10999 10996 ] final  134.37 input  -57.11 | X-H torsion

> <Gold.Protein.ActiveResidues>
 VAL166  LYS551  ARG553  GLY616  TRP617  ASP618  TYR619  PRO620  LYS621  CYS622 
 ASP623  PHE694  ASN695  SER759  ASP760  ASP761  ALA762  ILE779  LEU786  VAL792 
 PHE793  MET794  SER795  GLU796  ALA797  LYS798  CYS799  TRP800  GLU811  SER814 

> <Gold.Protein.RotatedAtoms>
  152.4635  134.5129  159.9759 H   0  0  0  0  0  0  0  0  0  0  0  0  # atno 6907 bound_to 6896
  151.5172  133.3467  159.2903 H   0  0  0  0  0  0  0  0  0  0  0  0  # atno 6908 bound_to 6896
  150.8609  134.7989  159.7144 H   0  0  0  0  0  0  0  0  0  0  0  0  # atno 6909 bound_to 6896
  144.7352  140.3228  143.6167 H   0  0  0  0  0  0  0  0  0  0  0  0  # atno 7974 bound_to 7965
  156.0846  140.1403  156.9669 H   0  0  0  0  0  0  0  0  0  0  0  0  # atno 8008 bound_to 7997
  154.4605  140.0945  156.6929 H   0  0  0  0  0  0  0  0  0  0  0  0  # atno 8009 bound_to 7997
  155.5019  140.3451  155.4375 H   0  0  0  0  0  0  0  0  0  0  0  0  # atno 8010 bound_to 7997
  140.7039  143.6044  150.8766 H   0  0  0  0  0  0  0  0  0  0  0  0  # atno 10167 bound_to 10162
  157.6893  131.0644  150.4818 H   0  0  0  0  0  0  0  0  0  0  0  0  # atno 10718 bound_to 10713
  154.1832  135.6440  153.5040 H   0  0  0  0  0  0  0  0  0  0  0  0  # atno 10763 bound_to 10752
  153.0054  135.5411  154.6492 H   0  0  0  0  0  0  0  0  0  0  0  0  # atno 10764 bound_to 10752
  154.5862  135.2930  155.0655 H   0  0  0  0  0  0  0  0  0  0  0  0  # atno 10765 bound_to 10752
  139.9910  134.9515  156.9857 H   0  0  0  0  0  0  0  0  0  0  0  0  # atno 11005 bound_to 11000
  145.7551  139.1806  143.2299 LP  0  0  0  0  0  0  0  0  0  0  0  0  # atno 17320 bound_to 7965
  146.1030  140.7521  142.9540 LP  0  0  0  0  0  0  0  0  0  0  0  0  # atno 17321 bound_to 7965
  139.9768  143.5996  152.2956 LP  0  0  0  0  0  0  0  0  0  0  0  0  # atno 17342 bound_to 10162
  139.6602  144.7662  151.1977 LP  0  0  0  0  0  0  0  0  0  0  0  0  # atno 17343 bound_to 10162
  156.5149  130.4148  149.6281 LP  0  0  0  0  0  0  0  0  0  0  0  0  # atno 17370 bound_to 10713
  156.3206  130.7278  151.2190 LP  0  0  0  0  0  0  0  0  0  0  0  0  # atno 17371 bound_to 10713
  140.4908  134.1195  155.7232 LP  0  0  0  0  0  0  0  0  0  0  0  0  # atno 17394 bound_to 11000
  141.1566  133.8871  157.1961 LP  0  0  0  0  0  0  0  0  0  0  0  0  # atno 17395 bound_to 11000

$$$$
