AV-unprocessed.smi:125|AV-procd|sdf|1150|dock2
  -GOLD-   2262018283D 1   1.00000     0.00000
 Structure written by MMmdl.
 59 62  0  0  0  0  0  0  0  0  1 V2000
  144.4413  134.6169  159.3511 C   0  0  0  0  0  0  0  0  0  0  0  0
  145.7750  135.2612  159.0099 C   0  0  0  0  0  0  0  0  0  0  0  0
  145.9185  135.8835  157.7518 C   0  0  0  0  0  0  0  0  0  0  0  0
  147.1316  136.4935  157.3820 C   0  0  0  0  0  0  0  0  0  0  0  0
  148.2268  136.4994  158.2765 C   0  0  0  0  0  0  0  0  0  0  0  0
  149.4910  137.0685  157.9650 N   0  0  0  0  0  0  0  0  0  0  0  0
  150.5406  137.2796  158.7796 C   0  0  0  0  0  0  0  0  0  0  0  0
  150.5776  136.9541  159.9670 O   0  0  0  0  0  0  0  0  0  0  0  0
  151.7540  137.9481  158.1137 C   0  0  0  0  0  0  0  0  0  0  0  0
  152.1794  139.2021  158.7742 N   0  0  0  0  0  0  0  0  0  0  0  0
  153.3661  139.1925  159.5487 C   0  0  0  0  0  0  0  0  0  0  0  0
  154.0359  138.1666  159.6774 O   0  0  0  0  0  0  0  0  0  0  0  0
  153.7271  140.4644  160.1646 C   0  0  0  0  0  0  0  0  0  0  0  0
  154.8278  140.5443  160.9313 F   0  0  0  0  0  0  0  0  0  0  0  0
  152.9693  141.5650  159.9807 C   0  0  0  0  0  0  0  0  0  0  0  0
  151.8232  141.5643  159.2065 N   0  0  0  0  0  0  0  0  0  0  0  0
  150.9941  142.8166  159.0205 C   0  0  1  0  0  0  0  0  0  0  0  0
  151.5136  143.9344  159.9311 C   0  0  0  0  0  0  0  0  0  0  0  0
  152.4878  144.6473  159.0191 C   0  0  0  0  0  0  0  0  0  0  0  0
  151.7935  144.5187  157.6677 C   0  0  0  0  0  0  0  0  0  0  0  0
  151.1218  143.2612  157.7002 O   0  0  0  0  0  0  0  0  0  0  0  0
  151.4003  140.3685  158.5863 C   0  0  0  0  0  0  0  0  0  0  0  0
  150.3763  140.3440  157.8998 O   0  0  0  0  0  0  0  0  0  0  0  0
  148.0940  135.8669  159.5282 C   0  0  0  0  0  0  0  0  0  0  0  0
  146.8784  135.2560  159.9024 C   0  0  0  0  0  0  0  0  0  0  0  0
  146.8045  134.4628  161.5181 S   0  0  0  0  0  0  0  0  0  0  0  0
  146.8191  133.0013  161.3464 O   0  0  0  0  0  0  0  0  0  0  0  0
  147.7996  135.1070  162.3895 O   0  0  0  0  0  0  0  0  0  0  0  0
  145.2244  134.8980  162.0770 N   0  0  0  0  0  0  0  0  0  0  0  0
  144.8790  136.3180  162.2497 C   0  0  0  0  0  0  0  0  0  0  0  0
  143.3550  136.5059  162.3300 C   0  0  0  0  0  0  0  0  0  0  0  0
  142.8024  135.6493  163.3183 O   0  0  0  0  0  0  0  0  0  0  0  0
  143.0088  134.2819  162.9966 C   0  0  0  0  0  0  0  0  0  0  0  0
  144.5128  133.9687  162.9667 C   0  0  0  0  0  0  0  0  0  0  0  0
  143.7361  134.7134  158.5253 H   0  0  0  0  0  0  0  0  0  0  0  0
  143.9893  135.0938  160.2197 H   0  0  0  0  0  0  0  0  0  0  0  0
  144.5587  133.5534  159.5514 H   0  0  0  0  0  0  0  0  0  0  0  0
  145.0944  135.8914  157.0532 H   0  0  0  0  0  0  0  0  0  0  0  0
  147.2035  136.9359  156.4005 H   0  0  0  0  0  0  0  0  0  0  0  0
  149.6381  137.2898  156.9908 H   0  0  0  0  0  0  0  0  0  0  0  0
  152.5710  137.2255  158.0798 H   0  0  0  0  0  0  0  0  0  0  0  0
  151.5179  138.1253  157.0632 H   0  0  0  0  0  0  0  0  0  0  0  0
  153.2826  142.4765  160.4673 H   0  0  0  0  0  0  0  0  0  0  0  0
  149.9599  142.5273  159.2143 H   0  0  0  0  0  0  0  0  0  0  0  0
  150.6803  144.5895  160.1882 H   0  0  0  0  0  0  0  0  0  0  0  0
  151.9605  143.5524  160.8495 H   0  0  0  0  0  0  0  0  0  0  0  0
  152.6687  145.6824  159.3096 H   0  0  0  0  0  0  0  0  0  0  0  0
  153.4445  144.1237  159.0055 H   0  0  0  0  0  0  0  0  0  0  0  0
  151.0490  145.3069  157.5480 H   0  0  0  0  0  0  0  0  0  0  0  0
  152.4895  144.5790  156.8308 H   0  0  0  0  0  0  0  0  0  0  0  0
  148.9363  135.8563  160.2037 H   0  0  0  0  0  0  0  0  0  0  0  0
  145.3536  136.6852  163.1601 H   0  0  0  0  0  0  0  0  0  0  0  0
  145.2744  136.9047  161.4208 H   0  0  0  0  0  0  0  0  0  0  0  0
  143.1200  137.5390  162.5863 H   0  0  0  0  0  0  0  0  0  0  0  0
  142.8907  136.3081  161.3624 H   0  0  0  0  0  0  0  0  0  0  0  0
  142.5139  133.6640  163.7458 H   0  0  0  0  0  0  0  0  0  0  0  0
  142.5454  134.0467  162.0370 H   0  0  0  0  0  0  0  0  0  0  0  0
  144.6750  132.9429  162.6350 H   0  0  0  0  0  0  0  0  0  0  0  0
  144.9338  134.0518  163.9692 H   0  0  0  0  0  0  0  0  0  0  0  0
  1  2  1  0  0  0  0
  1 35  1  0  0  0  0
  1 36  1  0  0  0  0
  1 37  1  0  0  0  0
  2 25  1  0  0  0  0
  2  3  2  0  0  0  0
  3  4  1  0  0  0  0
  3 38  1  0  0  0  0
  4  5  2  0  0  0  0
  4 39  1  0  0  0  0
  5  6  1  0  0  0  0
  5 24  1  0  0  0  0
  6  7  1  0  0  0  0
  6 40  1  0  0  0  0
  7  8  2  0  0  0  0
  7  9  1  0  0  0  0
  9 10  1  0  0  0  0
  9 41  1  0  0  0  0
  9 42  1  0  0  0  0
 10 22  1  0  0  0  0
 10 11  1  0  0  0  0
 11 12  2  0  0  0  0
 11 13  1  0  0  0  0
 13 14  1  0  0  0  0
 13 15  2  0  0  0  0
 15 16  1  0  0  0  0
 15 43  1  0  0  0  0
 16 17  1  0  0  0  0
 16 22  1  0  0  0  0
 17 21  1  0  0  0  0
 17 18  1  0  0  0  0
 17 44  1  0  0  0  0
 18 19  1  0  0  0  0
 18 45  1  0  0  0  0
 18 46  1  0  0  0  0
 19 20  1  0  0  0  0
 19 47  1  0  0  0  0
 19 48  1  0  0  0  0
 20 21  1  0  0  0  0
 20 49  1  0  0  0  0
 20 50  1  0  0  0  0
 22 23  2  0  0  0  0
 24 25  2  0  0  0  0
 24 51  1  0  0  0  0
 25 26  1  0  0  0  0
 26 27  2  0  0  0  0
 26 28  2  0  0  0  0
 26 29  1  0  0  0  0
 29 34  1  0  0  0  0
 29 30  1  0  0  0  0
 30 31  1  0  0  0  0
 30 52  1  0  0  0  0
 30 53  1  0  0  0  0
 31 32  1  0  0  0  0
 31 54  1  0  0  0  0
 31 55  1  0  0  0  0
 32 33  1  0  0  0  0
 33 34  1  0  0  0  0
 33 56  1  0  0  0  0
 33 57  1  0  0  0  0
 34 58  1  0  0  0  0
 34 59  1  0  0  0  0
M  END
> <s_m_source_file>
AV-unprocessed.smi

> <i_m_source_file_index>
125

> <i_lp_mmshare_version>
43012

> <i_f3d_flags>
0

> <s_epik_input>
W0NIMl0xW0NIMl1PW0NIMl1bQ0gyXU4xUyg9TykoPU8pYzJbY0hdYyhbY0hdW2NIXWMyW0NIM10pW05IXUMoPU8pW0NIMl1uM2MoPU8pYyhGKVtjSF1uKGMzPU8pW0NAQEhdNFtDSDJdW0NIMl1bQ0gyXU80

> <s_epik_cmdline>
J2VwaWtfcHl0aG9uJywgJy1waCcsICc3LjAnLCAnLXRuJywgJzgnLCAnLW1hJywgJzIwMCcsICctbWV0YWxfYmluZGluZycsICctaW1hZScsICc8aW5maWxlLm1hZT4nLCAnLW9tYWUnLCAnPG91dGZpbGUubWFlPic=

> <r_lp_tautomer_probability>
1

> <r_epik_Ionization_Penalty>
4.12263e-06

> <r_epik_Ionization_Penalty_Charging>
3.88729e-08

> <r_epik_Ionization_Penalty_Neutral>
4.08376e-06

> <r_epik_State_Penalty>
-0

> <r_epik_Charging_Adjusted_Penalty>
3.88729e-08

> <i_epik_Tot_Q>
0

> <i_epik_Tot_abs_Q>
0

> <r_epik_Metal_State_Penalty>
-0

> <b_epik_Metal_Only>
0

> <s_epik_Chemistry_Notes>
This compound contains an acetal/aminal-like group ( X-CH(R)-Y where X, Y are N, S, or O) that may be acid/base labile, releasing an aldehyde.

> <s_lp_Force_Field>
OPLS_2005

> <r_lp_Energy>
38.7063

> <b_lp_Chiralities_Consistent>
1

> <s_lp_Variant>
AV-unprocessed.smi:125-2

> <Gold.Version>
5.8.1

> <Gold.Id.Protein>
6NUR|6NUR_protein|mol2

> <Gold.PLP.Fitness>
53.4953

> <Gold.PLP.PLP>
-51.7855

> <Gold.PLP.part.hbond>
-1.7792

> <Gold.PLP.part.metal>
0.0000

> <Gold.PLP.part.buried>
-9.7495

> <Gold.PLP.part.nonpolar>
-41.9520

> <Gold.PLP.part.repulsive>
0.3158

> <Gold.PLP.ligand.clash>
0.1312

> <Gold.PLP.ligand.torsion>
2.6080

> <Gold.PLP.Chemscore.Hbond>
0.9500

> <Gold.PLP.Chemscore.CHOScore>
0.0000

> <Gold.PLP.Chemscore.Metal>
0.0000

> <Gold.Chemscore.Hbonds>
donor molecule, donor type, donor heavy atom, donor atom, acceptor molecule, acceptor atom, score
      P1  H  6896  6907       L1     8  1.00

> <Gold.PLP.Chemscore.Internal.Correction>
4.2069

> <Gold.Rescore>
     Score         DG    S(hbond)    S(metal)    S(lipo)     H(rot)  DE(clash)    DE(int)     intcor
      9.14     -15.56       0.94        0.00      95.33       1.65       0.09       6.33       ----

> <Gold.Chemscore.Fitness>
9.1403

> <Gold.Chemscore.DG>
-15.5581

> <Gold.Chemscore.ZeroCoef>
-5.4800

> <Gold.Chemscore.Hbond>
0.9433

> <Gold.Chemscore.Metal>
0.0000

> <Gold.Chemscore.Lipo>
95.3342

> <Gold.Chemscore.Internal_Hbond>
0.0000

> <Gold.Chemscore.DEClash>
0.0892

> <Gold.Chemscore.DEInternal>
6.3286

> <Gold.Chemscore.Rot>
1.6510

> <Gold.Chemscore.Internal.Correction>
   9.000000E+99

> <Gold.Chemscore.Hbonds>
donor molecule, donor type, donor heavy atom, donor atom, acceptor molecule, acceptor atom, score
      P1  H  6896  6907       L1     8  0.44

> <Gold.Chemscore.Hbond.Weighted>
-3.1505

> <Gold.Chemscore.Metal.Weighted>
-0.0000

> <Gold.Chemscore.Lipo.Weighted>
-11.1541

> <Gold.Chemscore.Internal_Hbond.Weighted>
0.0000

> <Gold.Chemscore.DEClash.Weighted>
0.0892

> <Gold.Chemscore.DEInternal.Weighted>
6.3286

> <Gold.Chemscore.Rot.Weighted>
4.2265

> <Gold.Chemscore.Internal.Correction.Weighted>
   9.000000E+99

> <Gold.Protein.RotatedTorsions>
[ 6907 6896 6895 6894 ] final  -16.95 input  -60.11 | X-H torsion
[ 7974 7965 7964 7962 ] final -175.30 input  175.53 | X-H torsion
[ 8008 7997 7996 7995 ] final  156.99 input   59.86 | X-H torsion
[ 10167 10162 10161 10158 ] final  -68.50 input  -65.29 | X-H torsion
[ 10718 10713 10712 10709 ] final  -50.30 input   66.30 | X-H torsion
[ 10763 10752 10751 10750 ] final -136.32 input  -60.55 | X-H torsion
[ 11005 11000 10999 10996 ] final  -37.27 input  -57.11 | X-H torsion

> <Gold.Protein.ActiveResidues>
 VAL166  LYS551  ARG553  GLY616  TRP617  ASP618  TYR619  PRO620  LYS621  CYS622 
 ASP623  PHE694  ASN695  SER759  ASP760  ASP761  ALA762  ILE779  LEU786  VAL792 
 PHE793  MET794  SER795  GLU796  ALA797  LYS798  CYS799  TRP800  GLU811  SER814 

> <Gold.Protein.RotatedAtoms>
  151.3008  135.0768  159.9237 H   0  0  0  0  0  0  0  0  0  0  0  0  # atno 6907 bound_to 6896
  152.5298  133.9835  159.7828 H   0  0  0  0  0  0  0  0  0  0  0  0  # atno 6908 bound_to 6896
  151.0122  133.5903  159.2712 H   0  0  0  0  0  0  0  0  0  0  0  0  # atno 6909 bound_to 6896
  144.7128  140.1342  143.6396 H   0  0  0  0  0  0  0  0  0  0  0  0  # atno 7974 bound_to 7965
  156.2390  140.1897  156.7039 H   0  0  0  0  0  0  0  0  0  0  0  0  # atno 8008 bound_to 7997
  154.6161  140.0615  156.9583 H   0  0  0  0  0  0  0  0  0  0  0  0  # atno 8009 bound_to 7997
  155.1936  140.3286  155.4357 H   0  0  0  0  0  0  0  0  0  0  0  0  # atno 8010 bound_to 7997
  140.5502  143.2312  151.6925 H   0  0  0  0  0  0  0  0  0  0  0  0  # atno 10167 bound_to 10162
  156.1813  130.4150  149.9503 H   0  0  0  0  0  0  0  0  0  0  0  0  # atno 10718 bound_to 10713
  154.8686  135.3676  154.5042 H   0  0  0  0  0  0  0  0  0  0  0  0  # atno 10763 bound_to 10752
  153.5681  135.7021  153.5522 H   0  0  0  0  0  0  0  0  0  0  0  0  # atno 10764 bound_to 10752
  153.3567  135.4057  155.1650 H   0  0  0  0  0  0  0  0  0  0  0  0  # atno 10765 bound_to 10752
  140.9939  133.6990  156.1899 H   0  0  0  0  0  0  0  0  0  0  0  0  # atno 11005 bound_to 11000
  145.9260  139.2576  143.1353 LP  0  0  0  0  0  0  0  0  0  0  0  0  # atno 17320 bound_to 7965
  145.9572  140.8864  143.0229 LP  0  0  0  0  0  0  0  0  0  0  0  0  # atno 17321 bound_to 7965
  139.5024  144.3829  152.0357 LP  0  0  0  0  0  0  0  0  0  0  0  0  # atno 17342 bound_to 10162
  140.2946  144.3715  150.6078 LP  0  0  0  0  0  0  0  0  0  0  0  0  # atno 17343 bound_to 10162
  156.7272  130.9029  151.3623 LP  0  0  0  0  0  0  0  0  0  0  0  0  # atno 17370 bound_to 10713
  157.6870  130.9195  150.0412 LP  0  0  0  0  0  0  0  0  0  0  0  0  # atno 17371 bound_to 10713
  140.6996  134.4578  157.5586 LP  0  0  0  0  0  0  0  0  0  0  0  0  # atno 17394 bound_to 11000
  139.9005  134.8567  156.1915 LP  0  0  0  0  0  0  0  0  0  0  0  0  # atno 17395 bound_to 11000

$$$$
