AV-unprocessed.smi:3327|AV-procd|sdf|12788|dock8
  -GOLD-   2272019133D 1   1.00000     0.00000
 Structure written by MMmdl.
 41 42  0  0  0  0  0  0  0  0  2 V2000
  152.8428  143.1748  162.2929 C   0  0  0  0  0  0  0  0  0  0  0  0
  152.1766  143.3210  160.9179 C   0  0  1  0  0  0  0  0  0  0  0  0
  151.9616  144.8048  160.5477 C   0  0  0  0  0  0  0  0  0  0  0  0
  151.4063  144.9681  159.1204 C   0  0  0  0  0  0  0  0  0  0  0  0
  152.2528  144.1762  158.1088 C   0  0  0  0  0  0  0  0  0  0  0  0
  152.2935  142.7688  158.5284 N   0  0  0  0  0  0  0  0  0  0  0  0
  151.6838  141.7395  157.8915 C   0  0  0  0  0  0  0  0  0  0  0  0
  151.7143  140.5863  158.3252 O   0  0  0  0  0  0  0  0  0  0  0  0
  150.9235  142.0170  156.5853 C   0  0  0  0  0  0  0  0  0  0  0  0
  149.5236  142.4252  156.8219 N   0  3  0  0  0  0  0  0  0  0  0  0
  148.5185  141.4833  156.2894 C   0  0  0  0  0  0  0  0  0  0  0  0
  148.4285  141.5555  154.7565 C   0  0  0  0  0  0  0  0  0  0  0  0
  147.9835  140.3030  154.1724 N   0  0  0  0  0  0  0  0  0  0  0  0
  146.8462  140.0590  153.4316 C   0  0  0  0  0  0  0  0  0  0  0  0
  146.8584  138.7362  153.0932 C   0  0  0  0  0  0  0  0  0  0  0  0
  148.0576  138.2469  153.6822 C   0  0  0  0  0  0  0  0  0  0  0  0
  148.7307  139.1881  154.3248 N   0  0  0  0  0  0  0  0  0  0  0  0
  152.9864  142.6080  159.8141 C   0  0  0  0  0  0  0  0  0  0  0  0
  153.8342  143.6287  162.3038 H   0  0  0  0  0  0  0  0  0  0  0  0
  152.9546  142.1249  162.5649 H   0  0  0  0  0  0  0  0  0  0  0  0
  152.2479  143.6547  163.0703 H   0  0  0  0  0  0  0  0  0  0  0  0
  151.1971  142.8436  160.9755 H   0  0  0  0  0  0  0  0  0  0  0  0
  151.2907  145.2803  161.2641 H   0  0  0  0  0  0  0  0  0  0  0  0
  152.9122  145.3353  160.6187 H   0  0  0  0  0  0  0  0  0  0  0  0
  150.3738  144.6180  159.0863 H   0  0  0  0  0  0  0  0  0  0  0  0
  151.3853  146.0235  158.8477 H   0  0  0  0  0  0  0  0  0  0  0  0
  151.8623  144.3271  157.1039 H   0  0  0  0  0  0  0  0  0  0  0  0
  153.2697  144.5712  158.0860 H   0  0  0  0  0  0  0  0  0  0  0  0
  151.4319  142.8075  156.0315 H   0  0  0  0  0  0  0  0  0  0  0  0
  150.9255  141.1160  155.9704 H   0  0  0  0  0  0  0  0  0  0  0  0
  149.3827  142.5137  157.8187 H   0  0  0  0  0  0  0  0  0  0  0  0
  148.7921  140.4719  156.5923 H   0  0  0  0  0  0  0  0  0  0  0  0
  147.5438  141.6964  156.7309 H   0  0  0  0  0  0  0  0  0  0  0  0
  147.7561  142.3560  154.4435 H   0  0  0  0  0  0  0  0  0  0  0  0
  149.4088  141.7927  154.3413 H   0  0  0  0  0  0  0  0  0  0  0  0
  146.1313  140.8378  153.2083 H   0  0  0  0  0  0  0  0  0  0  0  0
  146.1216  138.1989  152.5146 H   0  0  0  0  0  0  0  0  0  0  0  0
  148.4572  137.2437  153.6607 H   0  0  0  0  0  0  0  0  0  0  0  0
  153.9863  143.0387  159.7403 H   0  0  0  0  0  0  0  0  0  0  0  0
  153.1373  141.5611  160.0812 H   0  0  0  0  0  0  0  0  0  0  0  0
  149.3769  143.3312  156.4002 H   0  0  0  0  0  0  0  0  0  0  0  0
  1  2  1  0  0  0  0
  1 19  1  0  0  0  0
  1 20  1  0  0  0  0
  1 21  1  0  0  0  0
  2 18  1  0  0  0  0
  2  3  1  0  0  0  0
  2 22  1  0  0  0  0
  3  4  1  0  0  0  0
  3 23  1  0  0  0  0
  3 24  1  0  0  0  0
  4  5  1  0  0  0  0
  4 25  1  0  0  0  0
  4 26  1  0  0  0  0
  5  6  1  0  0  0  0
  5 27  1  0  0  0  0
  5 28  1  0  0  0  0
  6  7  1  0  0  0  0
  6 18  1  0  0  0  0
  7  8  2  0  0  0  0
  7  9  1  0  0  0  0
  9 10  1  0  0  0  0
  9 29  1  0  0  0  0
  9 30  1  0  0  0  0
 10 11  1  0  0  0  0
 10 31  1  0  0  0  0
 10 41  1  0  0  0  0
 11 12  1  0  0  0  0
 11 32  1  0  0  0  0
 11 33  1  0  0  0  0
 12 13  1  0  0  0  0
 12 34  1  0  0  0  0
 12 35  1  0  0  0  0
 13 17  1  0  0  0  0
 13 14  1  0  0  0  0
 14 15  2  0  0  0  0
 14 36  1  0  0  0  0
 15 16  1  0  0  0  0
 15 37  1  0  0  0  0
 16 17  2  0  0  0  0
 16 38  1  0  0  0  0
 18 39  1  0  0  0  0
 18 40  1  0  0  0  0
M  CHG  1  10   1
M  END
> <s_m_source_file>
AV-unprocessed.smi

> <i_m_source_file_index>
3327

> <i_lp_mmshare_version>
43012

> <i_f3d_flags>
0

> <s_epik_input>
W0NIM11bQ0BASF0xW0NIMl1bQ0gyXVtDSDJdTihbQ0gyXTEpQyg9TylbQ0gyXVtOSF1bQ0gyXVtDSDJdbjJbY0hdW2NIXVtjSF1uMg==

> <s_epik_cmdline>
J2VwaWtfcHl0aG9uJywgJy1waCcsICc3LjAnLCAnLXRuJywgJzgnLCAnLW1hJywgJzIwMCcsICctbWV0YWxfYmluZGluZycsICctaW1hZScsICc8aW5maWxlLm1hZT4nLCAnLW9tYWUnLCAnPG91dGZpbGUubWFlPic=

> <r_lp_tautomer_probability>
1

> <r_epik_Ionization_Penalty>
0.195801

> <r_epik_Ionization_Penalty_Charging>
0.195799

> <r_epik_Ionization_Penalty_Neutral>
2.33113e-06

> <r_epik_State_Penalty>
0.185548

> <r_epik_Charging_Adjusted_Penalty>
0.381347

> <i_epik_Tot_Q>
1

> <i_epik_Tot_abs_Q>
1

> <r_epik_Metal_State_Penalty>
0.186014

> <b_epik_Metal_Only>
0

> <s_lp_Force_Field>
OPLS_2005

> <r_lp_Energy>
21.4811

> <b_lp_Chiralities_Consistent>
1

> <s_lp_Variant>
AV-unprocessed.smi:3327-2

> <Gold.Version>
5.8.1

> <Gold.Id.Protein>
6NUR|6NUR_protein|mol2

> <Gold.PLP.Fitness>
52.1977

> <Gold.PLP.PLP>
-42.7295

> <Gold.PLP.part.hbond>
-1.0000

> <Gold.PLP.part.metal>
0.0000

> <Gold.PLP.part.buried>
-2.4580

> <Gold.PLP.part.nonpolar>
-40.1651

> <Gold.PLP.part.repulsive>
0.1701

> <Gold.PLP.ligand.clash>
0.0000

> <Gold.PLP.ligand.torsion>
0.9521

> <Gold.PLP.Chemscore.Hbond>
2.0000

> <Gold.PLP.Chemscore.CHOScore>
1.7804

> <Gold.PLP.Chemscore.Metal>
0.0000

> <Gold.Chemscore.Hbonds>
donor molecule, donor type, donor heavy atom, donor atom, acceptor molecule, acceptor atom, score
      L1  H    10    41       P1  8028  2.00
      L1  C    14    36       P1 10175  0.83
      L1  C    16    38       P1  7948  0.86

> <Gold.PLP.Chemscore.Internal.Correction>
0.0311

> <Gold.Rescore>
     Score         DG    S(hbond)    S(metal)    S(lipo)     H(rot)  DE(clash)    DE(int)     intcor
     16.82     -17.73       0.97        0.00     116.21       1.80       0.08       0.83       ----

> <Gold.Chemscore.Fitness>
16.8207

> <Gold.Chemscore.DG>
-17.7322

> <Gold.Chemscore.ZeroCoef>
-5.4800

> <Gold.Chemscore.Hbond>
0.9743

> <Gold.Chemscore.Metal>
0.0000

> <Gold.Chemscore.Lipo>
116.2079

> <Gold.Chemscore.Internal_Hbond>
0.0000

> <Gold.Chemscore.DEClash>
0.0771

> <Gold.Chemscore.DEInternal>
0.8343

> <Gold.Chemscore.Rot>
1.7963

> <Gold.Chemscore.Internal.Correction>
   9.000000E+99

> <Gold.Chemscore.Hbonds>
donor molecule, donor type, donor heavy atom, donor atom, acceptor molecule, acceptor atom, score
      L1  H    10    41       P1  8028  1.00

> <Gold.Chemscore.Hbond.Weighted>
-3.2543

> <Gold.Chemscore.Metal.Weighted>
-0.0000

> <Gold.Chemscore.Lipo.Weighted>
-13.5963

> <Gold.Chemscore.Internal_Hbond.Weighted>
0.0000

> <Gold.Chemscore.DEClash.Weighted>
0.0771

> <Gold.Chemscore.DEInternal.Weighted>
0.8343

> <Gold.Chemscore.Rot.Weighted>
4.5985

> <Gold.Chemscore.Internal.Correction.Weighted>
   9.000000E+99

> <Gold.Protein.RotatedTorsions>
[ 6907 6896 6895 6894 ] final   79.75 input  -60.11 | X-H torsion
[ 7974 7965 7964 7962 ] final  -52.02 input  175.53 | X-H torsion
[ 8008 7997 7996 7995 ] final -168.53 input   59.86 | X-H torsion
[ 10167 10162 10161 10158 ] final -179.11 input  -65.29 | X-H torsion
[ 10718 10713 10712 10709 ] final  166.31 input   66.30 | X-H torsion
[ 10763 10752 10751 10750 ] final -116.64 input  -60.55 | X-H torsion
[ 11005 11000 10999 10996 ] final  117.35 input  -57.11 | X-H torsion

> <Gold.Protein.ActiveResidues>
 VAL166  LYS551  ARG553  GLY616  TRP617  ASP618  TYR619  PRO620  LYS621  CYS622 
 ASP623  PHE694  ASN695  SER759  ASP760  ASP761  ALA762  ILE779  LEU786  VAL792 
 PHE793  MET794  SER795  GLU796  ALA797  LYS798  CYS799  TRP800  GLU811  SER814 

> <Gold.Protein.RotatedAtoms>
  152.5210  134.3463  159.9234 H   0  0  0  0  0  0  0  0  0  0  0  0  # atno 6907 bound_to 6896
  151.3413  133.3955  159.2679 H   0  0  0  0  0  0  0  0  0  0  0  0  # atno 6908 bound_to 6896
  150.9801  134.9176  159.7897 H   0  0  0  0  0  0  0  0  0  0  0  0  # atno 6909 bound_to 6896
  145.9126  140.7902  142.9688 H   0  0  0  0  0  0  0  0  0  0  0  0  # atno 7974 bound_to 7965
  155.8927  140.1027  157.1407 H   0  0  0  0  0  0  0  0  0  0  0  0  # atno 8008 bound_to 7997
  154.4017  140.1307  156.4400 H   0  0  0  0  0  0  0  0  0  0  0  0  # atno 8009 bound_to 7997
  155.7515  140.3465  155.5155 H   0  0  0  0  0  0  0  0  0  0  0  0  # atno 8010 bound_to 7997
  139.5401  144.2387  152.0877 H   0  0  0  0  0  0  0  0  0  0  0  0  # atno 10167 bound_to 10162
  157.0676  131.0357  151.2623 H   0  0  0  0  0  0  0  0  0  0  0  0  # atno 10718 bound_to 10713
  154.8527  135.4338  154.1853 H   0  0  0  0  0  0  0  0  0  0  0  0  # atno 10763 bound_to 10752
  153.2934  135.6963  153.7277 H   0  0  0  0  0  0  0  0  0  0  0  0  # atno 10764 bound_to 10752
  153.6435  135.3464  155.3053 H   0  0  0  0  0  0  0  0  0  0  0  0  # atno 10765 bound_to 10752
  139.9071  134.9609  156.7338 H   0  0  0  0  0  0  0  0  0  0  0  0  # atno 11005 bound_to 11000
  144.6744  140.1849  143.7402 LP  0  0  0  0  0  0  0  0  0  0  0  0  # atno 17320 bound_to 7965
  145.8652  139.2243  143.1693 LP  0  0  0  0  0  0  0  0  0  0  0  0  # atno 17321 bound_to 7965
  140.1864  144.4795  150.6502 LP  0  0  0  0  0  0  0  0  0  0  0  0  # atno 17342 bound_to 10162
  140.6627  143.2257  151.5817 LP  0  0  0  0  0  0  0  0  0  0  0  0  # atno 17343 bound_to 10162
  157.4904  130.7818  149.7502 LP  0  0  0  0  0  0  0  0  0  0  0  0  # atno 17370 bound_to 10713
  155.9960  130.3908  150.2798 LP  0  0  0  0  0  0  0  0  0  0  0  0  # atno 17371 bound_to 10713
  140.6904  133.9395  155.7963 LP  0  0  0  0  0  0  0  0  0  0  0  0  # atno 17394 bound_to 11000
  141.0446  134.0573  157.3860 LP  0  0  0  0  0  0  0  0  0  0  0  0  # atno 17395 bound_to 11000

$$$$
