AV-unprocessed.smi:1754|AV-procd|sdf|7064|dock5
  -GOLD-   22720 8283D 1   1.00000     0.00000
 Structure written by MMmdl.
 45 46  0  0  0  0  0  0  0  0  2 V2000
  143.8444  132.6675  149.3202 C   0  0  0  0  0  0  0  0  0  0  0  0
  144.9934  132.2415  150.2479 C   0  0  0  0  0  0  0  0  0  0  0  0
  144.7619  132.5960  151.6501 N   0  0  0  0  0  0  0  0  0  0  0  0
  145.6861  132.0391  152.6375 C   0  0  0  0  0  0  0  0  0  0  0  0
  147.0906  132.6563  152.5546 C   0  0  0  0  0  0  0  0  0  0  0  0
  144.2579  133.8810  151.9540 C   0  0  0  0  0  0  0  0  0  0  0  0
  144.7230  135.0456  151.2990 C   0  0  0  0  0  0  0  0  0  0  0  0
  144.1814  136.3030  151.6341 C   0  0  0  0  0  0  0  0  0  0  0  0
  143.1708  136.3934  152.6135 C   0  0  0  0  0  0  0  0  0  0  0  0
  142.6713  137.6857  152.9276 N   0  0  0  0  0  0  0  0  0  0  0  0
  141.5378  138.0212  153.5750 C   0  0  0  0  0  0  0  0  0  0  0  0
  140.6859  137.2203  153.9530 O   0  0  0  0  0  0  0  0  0  0  0  0
  141.3763  139.3452  153.7529 N   0  0  0  0  0  0  0  0  0  0  0  0
  140.2682  140.0408  154.4105 C   0  0  2  0  0  0  0  0  0  0  0  0
  138.9862  140.0348  153.5511 C   0  0  0  0  0  0  0  0  0  0  0  0
  138.0106  141.0845  154.0994 C   0  0  0  0  0  0  0  0  0  0  0  0
  139.0381  142.3757  154.8989 S   0  0  0  0  0  0  0  0  0  0  0  0
  139.0363  143.5946  154.0763 O   0  0  0  0  0  0  0  0  0  0  0  0
  138.7026  142.4256  156.3301 O   0  0  0  0  0  0  0  0  0  0  0  0
  140.6344  141.5048  154.6833 C   0  0  0  0  0  0  0  0  0  0  0  0
  142.7444  135.2019  153.2470 C   0  0  0  0  0  0  0  0  0  0  0  0
  143.2929  134.0185  152.8964 N   0  3  0  0  0  0  0  0  0  0  0  0
  144.0381  132.3411  148.2985 H   0  0  0  0  0  0  0  0  0  0  0  0
  143.7096  133.7486  149.2969 H   0  0  0  0  0  0  0  0  0  0  0  0
  142.9012  132.2201  149.6348 H   0  0  0  0  0  0  0  0  0  0  0  0
  145.1160  131.1605  150.1733 H   0  0  0  0  0  0  0  0  0  0  0  0
  145.9348  132.6734  149.9065 H   0  0  0  0  0  0  0  0  0  0  0  0
  145.2936  132.1517  153.6473 H   0  0  0  0  0  0  0  0  0  0  0  0
  145.7562  130.9632  152.4735 H   0  0  0  0  0  0  0  0  0  0  0  0
  147.7533  132.2031  153.2923 H   0  0  0  0  0  0  0  0  0  0  0  0
  147.0672  133.7292  152.7474 H   0  0  0  0  0  0  0  0  0  0  0  0
  147.5374  132.5015  151.5721 H   0  0  0  0  0  0  0  0  0  0  0  0
  145.5018  134.9909  150.5533 H   0  0  0  0  0  0  0  0  0  0  0  0
  144.5430  137.1921  151.1381 H   0  0  0  0  0  0  0  0  0  0  0  0
  143.2308  138.4572  152.5948 H   0  0  0  0  0  0  0  0  0  0  0  0
  142.0799  139.9397  153.3387 H   0  0  0  0  0  0  0  0  0  0  0  0
  140.0493  139.5752  155.3732 H   0  0  0  0  0  0  0  0  0  0  0  0
  139.2441  140.3051  152.5261 H   0  0  0  0  0  0  0  0  0  0  0  0
  138.5238  139.0482  153.5102 H   0  0  0  0  0  0  0  0  0  0  0  0
  137.3883  141.5277  153.3218 H   0  0  0  0  0  0  0  0  0  0  0  0
  137.3604  140.6536  154.8609 H   0  0  0  0  0  0  0  0  0  0  0  0
  141.2580  141.6369  155.5677 H   0  0  0  0  0  0  0  0  0  0  0  0
  141.1423  141.9520  153.8279 H   0  0  0  0  0  0  0  0  0  0  0  0
  141.9996  135.1413  154.0258 H   0  0  0  0  0  0  0  0  0  0  0  0
  142.9614  133.1790  153.3718 H   0  0  0  0  0  0  0  0  0  0  0  0
  1  2  1  0  0  0  0
  1 23  1  0  0  0  0
  1 24  1  0  0  0  0
  1 25  1  0  0  0  0
  2  3  1  0  0  0  0
  2 26  1  0  0  0  0
  2 27  1  0  0  0  0
  3  4  1  0  0  0  0
  3  6  1  0  0  0  0
  4  5  1  0  0  0  0
  4 28  1  0  0  0  0
  4 29  1  0  0  0  0
  5 30  1  0  0  0  0
  5 31  1  0  0  0  0
  5 32  1  0  0  0  0
  6 22  1  0  0  0  0
  6  7  2  0  0  0  0
  7  8  1  0  0  0  0
  7 33  1  0  0  0  0
  8  9  2  0  0  0  0
  8 34  1  0  0  0  0
  9 10  1  0  0  0  0
  9 21  1  0  0  0  0
 10 11  1  0  0  0  0
 10 35  1  0  0  0  0
 11 12  2  0  0  0  0
 11 13  1  0  0  0  0
 13 14  1  0  0  0  0
 13 36  1  0  0  0  0
 14 20  1  0  0  0  0
 14 15  1  0  0  0  0
 14 37  1  0  0  0  0
 15 16  1  0  0  0  0
 15 38  1  0  0  0  0
 15 39  1  0  0  0  0
 16 17  1  0  0  0  0
 16 40  1  0  0  0  0
 16 41  1  0  0  0  0
 17 18  2  0  0  0  0
 17 19  2  0  0  0  0
 17 20  1  0  0  0  0
 20 42  1  0  0  0  0
 20 43  1  0  0  0  0
 21 22  2  0  0  0  0
 21 44  1  0  0  0  0
 22 45  1  0  0  0  0
M  CHG  1  22   1
M  END
> <s_m_source_file>
AV-unprocessed.smi

> <i_m_source_file_index>
1754

> <i_lp_mmshare_version>
43012

> <i_f3d_flags>
0

> <s_epik_input>
W0NIM11bQ0gyXU4oW0NIMl1bQ0gzXSljMVtjSF1bY0hdYyhbY0hdbjEpW05IXUMoPU8pW05IXVtDQEBIXShbQ0gyXTIpW0NIMl1bQ0gyXVMyKD1PKT1P

> <s_epik_cmdline>
J2VwaWtfcHl0aG9uJywgJy1waCcsICc3LjAnLCAnLXRuJywgJzgnLCAnLW1hJywgJzIwMCcsICctbWV0YWxfYmluZGluZycsICctaW1hZScsICc8aW5maWxlLm1hZT4nLCAnLW9tYWUnLCAnPG91dGZpbGUubWFlPic=

> <r_lp_tautomer_probability>
0.999994

> <r_epik_Ionization_Penalty>
0.271106

> <r_epik_Ionization_Penalty_Charging>
0.271085

> <r_epik_Ionization_Penalty_Neutral>
2.10634e-05

> <r_epik_State_Penalty>
0.017795

> <r_epik_Charging_Adjusted_Penalty>
0.28888

> <i_epik_Tot_Q>
1

> <i_epik_Tot_abs_Q>
1

> <r_epik_Metal_State_Penalty>
0.0544868

> <b_epik_Metal_Only>
0

> <s_lp_Force_Field>
OPLS_2005

> <r_lp_Energy>
28.7888

> <b_lp_Chiralities_Consistent>
1

> <s_lp_Variant>
AV-unprocessed.smi:1754-1

> <Gold.Version>
5.8.1

> <Gold.Id.Protein>
6NUR|6NUR_protein|mol2

> <Gold.PLP.Fitness>
49.4731

> <Gold.PLP.PLP>
-36.7415

> <Gold.PLP.part.hbond>
-4.4226

> <Gold.PLP.part.metal>
0.0000

> <Gold.PLP.part.buried>
-4.4615

> <Gold.PLP.part.nonpolar>
-28.3618

> <Gold.PLP.part.repulsive>
0.1873

> <Gold.PLP.ligand.clash>
0.0000

> <Gold.PLP.ligand.torsion>
1.5712

> <Gold.PLP.Chemscore.Hbond>
5.0000

> <Gold.PLP.Chemscore.CHOScore>
0.0000

> <Gold.PLP.Chemscore.Metal>
0.0000

> <Gold.Chemscore.Hbonds>
donor molecule, donor type, donor heavy atom, donor atom, acceptor molecule, acceptor atom, score
      L1  H    10    35       P1 10175  1.00
      L1  H    13    36       P1 10175  1.00
      L1  H    22    45       P1 10957  2.00
      P1  H 10162 10167       L1    18  1.00

> <Gold.PLP.Chemscore.Internal.Correction>
0.8740

> <Gold.Rescore>
     Score         DG    S(hbond)    S(metal)    S(lipo)     H(rot)  DE(clash)    DE(int)     intcor
     19.31     -22.05       3.76        0.00      65.15       1.41       0.05       2.69       ----

> <Gold.Chemscore.Fitness>
19.3127

> <Gold.Chemscore.DG>
-22.0456

> <Gold.Chemscore.ZeroCoef>
-5.4800

> <Gold.Chemscore.Hbond>
3.7561

> <Gold.Chemscore.Metal>
0.0000

> <Gold.Chemscore.Lipo>
65.1485

> <Gold.Chemscore.Internal_Hbond>
0.0000

> <Gold.Chemscore.DEClash>
0.0456

> <Gold.Chemscore.DEInternal>
2.6873

> <Gold.Chemscore.Rot>
1.4070

> <Gold.Chemscore.Internal.Correction>
   9.000000E+99

> <Gold.Chemscore.Hbonds>
donor molecule, donor type, donor heavy atom, donor atom, acceptor molecule, acceptor atom, score
      L1  H    10    35       P1 10175  0.90
      L1  H    13    36       P1 10175  0.65
      L1  H    22    45       P1 10957  0.88
      P1  H 10162 10167       L1    18  1.00

> <Gold.Chemscore.Hbond.Weighted>
-12.5452

> <Gold.Chemscore.Metal.Weighted>
-0.0000

> <Gold.Chemscore.Lipo.Weighted>
-7.6224

> <Gold.Chemscore.Internal_Hbond.Weighted>
0.0000

> <Gold.Chemscore.DEClash.Weighted>
0.0456

> <Gold.Chemscore.DEInternal.Weighted>
2.6873

> <Gold.Chemscore.Rot.Weighted>
3.6020

> <Gold.Chemscore.Internal.Correction.Weighted>
   9.000000E+99

> <Gold.Protein.RotatedTorsions>
[ 6907 6896 6895 6894 ] final  -52.70 input  -60.11 | X-H torsion
[ 7974 7965 7964 7962 ] final -110.44 input  175.53 | X-H torsion
[ 8008 7997 7996 7995 ] final   61.95 input   59.86 | X-H torsion
[ 10167 10162 10161 10158 ] final -152.17 input  -65.29 | X-H torsion
[ 10718 10713 10712 10709 ] final    8.18 input   66.30 | X-H torsion
[ 10763 10752 10751 10750 ] final    2.19 input  -60.55 | X-H torsion
[ 11005 11000 10999 10996 ] final -100.65 input  -57.11 | X-H torsion

> <Gold.Protein.ActiveResidues>
 VAL166  LYS551  ARG553  GLY616  TRP617  ASP618  TYR619  PRO620  LYS621  CYS622 
 ASP623  PHE694  ASN695  SER759  ASP760  ASP761  ALA762  ILE779  LEU786  VAL792 
 PHE793  MET794  SER795  GLU796  ALA797  LYS798  CYS799  TRP800  GLU811  SER814 

> <Gold.Protein.RotatedAtoms>
  150.8494  134.7813  159.6995 H   0  0  0  0  0  0  0  0  0  0  0  0  # atno 6907 bound_to 6896
  152.4562  134.5282  159.9813 H   0  0  0  0  0  0  0  0  0  0  0  0  # atno 6908 bound_to 6896
  151.5406  133.3395  159.2970 H   0  0  0  0  0  0  0  0  0  0  0  0  # atno 6909 bound_to 6896
  145.1682  140.8912  143.3551 H   0  0  0  0  0  0  0  0  0  0  0  0  # atno 7974 bound_to 7965
  155.6066  140.3494  155.4610 H   0  0  0  0  0  0  0  0  0  0  0  0  # atno 8008 bound_to 7997
  156.0187  140.1249  157.0404 H   0  0  0  0  0  0  0  0  0  0  0  0  # atno 8009 bound_to 7997
  154.4307  140.1067  156.5918 H   0  0  0  0  0  0  0  0  0  0  0  0  # atno 8010 bound_to 7997
  139.7204  143.8965  152.2501 H   0  0  0  0  0  0  0  0  0  0  0  0  # atno 10167 bound_to 10162
  156.9478  130.5885  149.5655 H   0  0  0  0  0  0  0  0  0  0  0  0  # atno 10718 bound_to 10713
  153.2987  135.6954  153.7224 H   0  0  0  0  0  0  0  0  0  0  0  0  # atno 10763 bound_to 10752
  153.6147  135.3438  155.2991 H   0  0  0  0  0  0  0  0  0  0  0  0  # atno 10764 bound_to 10752
  154.8544  135.4372  154.2091 H   0  0  0  0  0  0  0  0  0  0  0  0  # atno 10765 bound_to 10752
  141.1262  133.8416  157.1130 H   0  0  0  0  0  0  0  0  0  0  0  0  # atno 11005 bound_to 11000
  145.0260  139.3382  143.6048 LP  0  0  0  0  0  0  0  0  0  0  0  0  # atno 17320 bound_to 7965
  146.3472  139.9580  142.8721 LP  0  0  0  0  0  0  0  0  0  0  0  0  # atno 17321 bound_to 7965
  139.8860  144.6992  150.8824 LP  0  0  0  0  0  0  0  0  0  0  0  0  # atno 17342 bound_to 10162
  140.7752  143.3623  151.1804 LP  0  0  0  0  0  0  0  0  0  0  0  0  # atno 17343 bound_to 10162
  156.0376  130.5462  150.8692 LP  0  0  0  0  0  0  0  0  0  0  0  0  # atno 17370 bound_to 10713
  157.5742  131.0946  150.9371 LP  0  0  0  0  0  0  0  0  0  0  0  0  # atno 17371 bound_to 10713
  140.0263  134.9922  157.0693 LP  0  0  0  0  0  0  0  0  0  0  0  0  # atno 17394 bound_to 11000
  140.4357  134.1734  155.7170 LP  0  0  0  0  0  0  0  0  0  0  0  0  # atno 17395 bound_to 11000

$$$$
