AV-unprocessed.smi:1487|AV-procd|sdf|6021|dock10
  -GOLD-   22720 6123D 1   1.00000     0.00000
 Structure written by MMmdl.
 49 51  0  0  0  0  0  0  0  0  3 V2000
  153.6731  142.3045  160.6388 C   0  0  0  0  0  0  0  0  0  0  0  0
  152.7335  141.9976  159.4850 C   0  0  0  0  0  0  0  0  0  0  0  0
  152.8211  140.7323  158.8627 C   0  0  0  0  0  0  0  0  0  0  0  0
  151.9496  140.4814  157.8095 C   0  0  0  0  0  0  0  0  0  0  0  0
  151.7916  139.3512  157.0053 N   0  3  0  0  0  0  0  0  0  0  0  0
  150.8043  139.5752  156.0950 C   0  0  0  0  0  0  0  0  0  0  0  0
  150.3246  140.8310  156.3090 N   0  0  0  0  0  0  0  0  0  0  0  0
  149.2699  141.5624  155.5923 C   0  0  0  0  0  0  0  0  0  0  0  0
  148.6948  140.7811  154.3933 C   0  0  2  0  0  0  0  0  0  0  0  0
  149.5181  141.0668  153.2805 O   0  0  0  0  0  0  0  0  0  0  0  0
  147.2342  141.1570  154.0551 C   0  0  0  0  0  0  0  0  0  0  0  0
  146.4304  140.0096  153.5591 N   0  3  2  0  0  0  0  0  0  0  0  0
  146.2558  138.9619  154.5992 C   0  0  0  0  0  0  0  0  0  0  0  0
  145.3033  137.8534  154.1210 C   0  0  0  0  0  0  0  0  0  0  0  0
  145.7975  137.2345  152.8076 C   0  0  0  0  0  0  0  0  0  0  0  0
  145.9989  138.3362  151.7568 C   0  0  2  0  0  0  0  0  0  0  0  0
  146.5427  137.7690  150.5841 O   0  0  0  0  0  0  0  0  0  0  0  0
  146.9407  139.4342  152.2851 C   0  0  0  0  0  0  0  0  0  0  0  0
  151.0137  141.4372  157.3676 C   0  0  0  0  0  0  0  0  0  0  0  0
  150.9149  142.6896  157.9711 C   0  0  0  0  0  0  0  0  0  0  0  0
  151.7921  142.9636  159.0448 C   0  0  0  0  0  0  0  0  0  0  0  0
  151.7064  144.3210  159.7218 C   0  0  0  0  0  0  0  0  0  0  0  0
  154.3205  141.4561  160.8624 H   0  0  0  0  0  0  0  0  0  0  0  0
  153.1090  142.5391  161.5418 H   0  0  0  0  0  0  0  0  0  0  0  0
  154.3106  143.1553  160.3972 H   0  0  0  0  0  0  0  0  0  0  0  0
  153.5368  139.9926  159.1916 H   0  0  0  0  0  0  0  0  0  0  0  0
  150.4669  138.8830  155.3366 H   0  0  0  0  0  0  0  0  0  0  0  0
  148.4841  141.8451  156.2929 H   0  0  0  0  0  0  0  0  0  0  0  0
  149.7139  142.4970  155.2464 H   0  0  0  0  0  0  0  0  0  0  0  0
  148.7785  139.7169  154.6108 H   0  0  0  0  0  0  0  0  0  0  0  0
  149.3720  140.4155  152.6118 H   0  0  0  0  0  0  0  0  0  0  0  0
  146.7304  141.5834  154.9232 H   0  0  0  0  0  0  0  0  0  0  0  0
  147.2528  141.9422  153.2978 H   0  0  0  0  0  0  0  0  0  0  0  0
  147.2278  138.5383  154.8573 H   0  0  0  0  0  0  0  0  0  0  0  0
  145.8524  139.4074  155.5096 H   0  0  0  0  0  0  0  0  0  0  0  0
  145.2149  137.0815  154.8861 H   0  0  0  0  0  0  0  0  0  0  0  0
  144.3031  138.2652  153.9796 H   0  0  0  0  0  0  0  0  0  0  0  0
  146.7361  136.7066  152.9829 H   0  0  0  0  0  0  0  0  0  0  0  0
  145.0824  136.4926  152.4502 H   0  0  0  0  0  0  0  0  0  0  0  0
  145.0333  138.7753  151.5021 H   0  0  0  0  0  0  0  0  0  0  0  0
  145.9170  137.8597  149.8815 H   0  0  0  0  0  0  0  0  0  0  0  0
  147.0351  140.2115  151.5281 H   0  0  0  0  0  0  0  0  0  0  0  0
  147.9410  139.0288  152.4479 H   0  0  0  0  0  0  0  0  0  0  0  0
  150.2008  143.4289  157.6403 H   0  0  0  0  0  0  0  0  0  0  0  0
  150.9454  144.9511  159.2608 H   0  0  0  0  0  0  0  0  0  0  0  0
  152.6598  144.8451  159.6505 H   0  0  0  0  0  0  0  0  0  0  0  0
  151.4513  144.2074  160.7757 H   0  0  0  0  0  0  0  0  0  0  0  0
  145.5057  140.3698  153.3713 H   0  0  0  0  0  0  0  0  0  0  0  0
  152.3227  138.4916  157.0668 H   0  0  0  0  0  0  0  0  0  0  0  0
  1  2  1  0  0  0  0
  1 23  1  0  0  0  0
  1 24  1  0  0  0  0
  1 25  1  0  0  0  0
  2 21  1  0  0  0  0
  2  3  2  0  0  0  0
  3  4  1  0  0  0  0
  3 26  1  0  0  0  0
  4 19  2  0  0  0  0
  4  5  1  0  0  0  0
  5  6  2  0  0  0  0
  5 49  1  0  0  0  0
  6  7  1  0  0  0  0
  6 27  1  0  0  0  0
  7  8  1  0  0  0  0
  7 19  1  0  0  0  0
  8  9  1  0  0  0  0
  8 28  1  0  0  0  0
  8 29  1  0  0  0  0
  9 10  1  0  0  0  0
  9 11  1  0  0  0  0
  9 30  1  0  0  0  0
 10 31  1  0  0  0  0
 11 12  1  0  0  0  0
 11 32  1  0  0  0  0
 11 33  1  0  0  0  0
 12 18  1  0  0  0  0
 12 13  1  0  0  0  0
 12 48  1  0  0  0  0
 13 14  1  0  0  0  0
 13 34  1  0  0  0  0
 13 35  1  0  0  0  0
 14 15  1  0  0  0  0
 14 36  1  0  0  0  0
 14 37  1  0  0  0  0
 15 16  1  0  0  0  0
 15 38  1  0  0  0  0
 15 39  1  0  0  0  0
 16 17  1  0  0  0  0
 16 18  1  0  0  0  0
 16 40  1  0  0  0  0
 17 41  1  0  0  0  0
 18 42  1  0  0  0  0
 18 43  1  0  0  0  0
 19 20  1  0  0  0  0
 20 21  2  0  0  0  0
 20 44  1  0  0  0  0
 21 22  1  0  0  0  0
 22 45  1  0  0  0  0
 22 46  1  0  0  0  0
 22 47  1  0  0  0  0
M  CHG  1   5   1
M  CHG  1  12   1
M  END
> <s_m_source_file>
AV-unprocessed.smi

> <i_m_source_file_index>
1487

> <i_lp_mmshare_version>
43012

> <i_f3d_flags>
0

> <s_epik_input>
W0NIM11jKFtjSF0xKWMoW0NIM10pW2NIXWMoYzEyKW4oW2NIXW4yKVtDSDJdW0NASF0oW09IXSlbQ0gyXU4zW0NIMl1bQ0gyXVtDSDJdW0NAQEhdKFtPSF0pW0NIMl0z

> <s_epik_cmdline>
J2VwaWtfcHl0aG9uJywgJy1waCcsICc3LjAnLCAnLXRuJywgJzgnLCAnLW1hJywgJzIwMCcsICctbWV0YWxfYmluZGluZycsICctaW1hZScsICc8aW5maWxlLm1hZT4nLCAnLW9tYWUnLCAnPG91dGZpbGUubWFlPic=

> <r_epik_Ionization_Penalty>
1.1857

> <r_epik_Ionization_Penalty_Charging>
1.1857

> <r_epik_Ionization_Penalty_Neutral>
1.75578e-06

> <r_epik_State_Penalty>
1.26953

> <r_epik_Charging_Adjusted_Penalty>
2.45524

> <i_epik_Tot_Q>
2

> <i_epik_Tot_abs_Q>
2

> <r_epik_Metal_State_Penalty>
5.28243

> <b_epik_Metal_Only>
0

> <s_lp_Force_Field>
OPLS_2005

> <r_lp_Energy>
34.3912

> <b_lp_Chiralities_Consistent>
1

> <s_lp_Variant>
AV-unprocessed.smi:1487-15

> <Gold.Version>
5.8.1

> <Gold.Id.Protein>
6NUR|6NUR_protein|mol2

> <Gold.PLP.Fitness>
58.6106

> <Gold.PLP.PLP>
-43.5389

> <Gold.PLP.part.hbond>
-6.1981

> <Gold.PLP.part.metal>
0.0000

> <Gold.PLP.part.buried>
-1.5280

> <Gold.PLP.part.nonpolar>
-37.4396

> <Gold.PLP.part.repulsive>
0.0796

> <Gold.PLP.ligand.clash>
0.0000

> <Gold.PLP.ligand.torsion>
0.8048

> <Gold.PLP.Chemscore.Hbond>
5.5514

> <Gold.PLP.Chemscore.CHOScore>
0.0000

> <Gold.PLP.Chemscore.Metal>
0.0000

> <Gold.Chemscore.Hbonds>
donor molecule, donor type, donor heavy atom, donor atom, acceptor molecule, acceptor atom, score
      L1  H    10    31       P1  7957  0.86
      L1  H    12    48       P1 10175  1.98
      L1  H    17    41       P1 10171  0.47
      P1  H  7954  7966       L1    17  1.00
      P1  H  7989  7998       L1    10  0.13
      P1  H  8011  8017       L1    10  1.00

> <Gold.PLP.Chemscore.Internal.Correction>
0.0269

> <Gold.Rescore>
     Score         DG    S(hbond)    S(metal)    S(lipo)     H(rot)  DE(clash)    DE(int)     intcor
     22.40     -24.42       3.61        0.00     118.64       2.74       1.28       0.74       ----

> <Gold.Chemscore.Fitness>
22.4011

> <Gold.Chemscore.DG>
-24.4170

> <Gold.Chemscore.ZeroCoef>
-5.4800

> <Gold.Chemscore.Hbond>
3.6128

> <Gold.Chemscore.Metal>
0.0000

> <Gold.Chemscore.Lipo>
118.6389

> <Gold.Chemscore.Internal_Hbond>
0.0000

> <Gold.Chemscore.DEClash>
1.2790

> <Gold.Chemscore.DEInternal>
0.7369

> <Gold.Chemscore.Rot>
2.7384

> <Gold.Chemscore.Internal.Correction>
   9.000000E+99

> <Gold.Chemscore.Hbonds>
donor molecule, donor type, donor heavy atom, donor atom, acceptor molecule, acceptor atom, score
      L1  H    10    31       P1  7957  0.80
      L1  H    12    48       P1 10175  0.90
      L1  H    17    41       P1 10171  0.48
      P1  H  7954  7966       L1    17  0.57
      P1  H  7989  7998       L1    10  0.03
      P1  H  8011  8017       L1    10  0.25

> <Gold.Chemscore.Hbond.Weighted>
-12.0666

> <Gold.Chemscore.Metal.Weighted>
-0.0000

> <Gold.Chemscore.Lipo.Weighted>
-13.8808

> <Gold.Chemscore.Internal_Hbond.Weighted>
0.0000

> <Gold.Chemscore.DEClash.Weighted>
1.2790

> <Gold.Chemscore.DEInternal.Weighted>
0.7369

> <Gold.Chemscore.Rot.Weighted>
7.0103

> <Gold.Chemscore.Internal.Correction.Weighted>
   9.000000E+99

> <Gold.Protein.RotatedTorsions>
[ 6907 6896 6895 6894 ] final  112.84 input  -60.11 | X-H torsion
[ 7974 7965 7964 7962 ] final -173.94 input  175.53 | X-H torsion
[ 8008 7997 7996 7995 ] final   64.02 input   59.86 | X-H torsion
[ 10167 10162 10161 10158 ] final -137.42 input  -65.29 | X-H torsion
[ 10718 10713 10712 10709 ] final   19.51 input   66.30 | X-H torsion
[ 10763 10752 10751 10750 ] final -166.05 input  -60.55 | X-H torsion
[ 11005 11000 10999 10996 ] final  -27.96 input  -57.11 | X-H torsion

> <Gold.Protein.ActiveResidues>
 VAL166  LYS551  ARG553  GLY616  TRP617  ASP618  TYR619  PRO620  LYS621  CYS622 
 ASP623  PHE694  ASN695  SER759  ASP760  ASP761  ALA762  ILE779  LEU786  VAL792 
 PHE793  MET794  SER795  GLU796  ALA797  LYS798  CYS799  TRP800  GLU811  SER814 

> <Gold.Protein.RotatedAtoms>
  152.4894  133.8460  159.7176 H   0  0  0  0  0  0  0  0  0  0  0  0  # atno 6907 bound_to 6896
  150.9010  133.7109  159.2885 H   0  0  0  0  0  0  0  0  0  0  0  0  # atno 6908 bound_to 6896
  151.4550  135.1037  159.9761 H   0  0  0  0  0  0  0  0  0  0  0  0  # atno 6909 bound_to 6896
  144.7134  140.1546  143.6381 H   0  0  0  0  0  0  0  0  0  0  0  0  # atno 7974 bound_to 7965
  155.6395  140.3496  155.4710 H   0  0  0  0  0  0  0  0  0  0  0  0  # atno 8008 bound_to 7997
  155.9938  140.1199  157.0637 H   0  0  0  0  0  0  0  0  0  0  0  0  # atno 8009 bound_to 7997
  154.4227  140.1114  156.5588 H   0  0  0  0  0  0  0  0  0  0  0  0  # atno 8010 bound_to 7997
  139.8580  143.7114  152.2652 H   0  0  0  0  0  0  0  0  0  0  0  0  # atno 10167 bound_to 10162
  157.1114  130.6510  149.5898 H   0  0  0  0  0  0  0  0  0  0  0  0  # atno 10718 bound_to 10713
  154.6871  135.2964  154.9532 H   0  0  0  0  0  0  0  0  0  0  0  0  # atno 10763 bound_to 10752
  154.0507  135.6645  153.4804 H   0  0  0  0  0  0  0  0  0  0  0  0  # atno 10764 bound_to 10752
  153.0586  135.5129  154.7944 H   0  0  0  0  0  0  0  0  0  0  0  0  # atno 10765 bound_to 10752
  140.9166  133.7426  156.0743 H   0  0  0  0  0  0  0  0  0  0  0  0  # atno 11005 bound_to 11000
  145.9086  139.2473  143.1451 LP  0  0  0  0  0  0  0  0  0  0  0  0  # atno 17320 bound_to 7965
  145.9739  140.8738  143.0148 LP  0  0  0  0  0  0  0  0  0  0  0  0  # atno 17321 bound_to 7965
  139.7401  144.7561  151.0666 LP  0  0  0  0  0  0  0  0  0  0  0  0  # atno 17342 bound_to 10162
  140.7779  143.4983  150.9804 LP  0  0  0  0  0  0  0  0  0  0  0  0  # atno 17343 bound_to 10162
  155.9849  130.4877  150.7008 LP  0  0  0  0  0  0  0  0  0  0  0  0  # atno 17370 bound_to 10713
  157.4556  131.0877  151.0800 LP  0  0  0  0  0  0  0  0  0  0  0  0  # atno 17371 bound_to 10713
  140.8042  134.3474  157.5431 LP  0  0  0  0  0  0  0  0  0  0  0  0  # atno 17394 bound_to 11000
  139.8767  134.9215  156.3278 LP  0  0  0  0  0  0  0  0  0  0  0  0  # atno 17395 bound_to 11000

$$$$
