AV-unprocessed.smi:1854|AV-procd|sdf|7529|dock1
  -GOLD-   22720 9243D 1   1.00000     0.00000
 Structure written by MMmdl.
 39 41  0  0  0  0  0  0  0  0  1 V2000
  151.7140  137.1332  154.6592 O   0  0  0  0  0  0  0  0  0  0  0  0
  152.2241  138.2402  154.4953 C   0  0  0  0  0  0  0  0  0  0  0  0
  152.2816  139.1970  155.4326 N   0  0  0  0  0  0  0  0  0  0  0  0
  151.7444  139.0805  156.7846 C   0  0  0  0  0  0  0  0  0  0  0  0
  151.8230  140.4170  157.4634 C   0  0  0  0  0  0  0  0  0  0  0  0
  152.5059  140.5956  158.5949 N   0  0  0  0  0  0  0  0  0  0  0  0
  152.3208  141.9395  158.8537 C   0  0  0  0  0  0  0  0  0  0  0  0
  152.7952  142.7448  159.9138 C   0  0  0  0  0  0  0  0  0  0  0  0
  152.4770  144.1179  159.9645 C   0  0  0  0  0  0  0  0  0  0  0  0
  151.6812  144.7039  158.9588 C   0  0  0  0  0  0  0  0  0  0  0  0
  151.1966  143.9189  157.8949 C   0  0  0  0  0  0  0  0  0  0  0  0
  151.5164  142.5489  157.8496 C   0  0  0  0  0  0  0  0  0  0  0  0
  151.2109  141.5206  156.9644 N   0  0  0  0  0  0  0  0  0  0  0  0
  150.4101  141.6394  155.7563 C   0  0  0  0  0  0  0  0  0  0  0  0
  149.3020  140.5810  155.7113 C   0  0  0  0  0  0  0  0  0  0  0  0
  148.1910  141.0592  156.4553 O   0  0  0  0  0  0  0  0  0  0  0  0
  147.2365  141.8098  155.8004 C   0  0  0  0  0  0  0  0  0  0  0  0
  147.1598  141.9335  154.3892 C   0  0  0  0  0  0  0  0  0  0  0  0
  146.1539  142.7187  153.7935 C   0  0  0  0  0  0  0  0  0  0  0  0
  145.2133  143.3895  154.5957 C   0  0  0  0  0  0  0  0  0  0  0  0
  145.2807  143.2749  155.9961 C   0  0  0  0  0  0  0  0  0  0  0  0
  146.2860  142.4901  156.5946 C   0  0  0  0  0  0  0  0  0  0  0  0
  146.3442  142.3656  158.3167 Cl  0  0  0  0  0  0  0  0  0  0  0  0
  152.6957  138.5793  153.5601 H   0  0  0  0  0  0  0  0  0  0  0  0
  152.7230  140.0723  155.1906 H   0  0  0  0  0  0  0  0  0  0  0  0
  150.7102  138.7318  156.7687 H   0  0  0  0  0  0  0  0  0  0  0  0
  152.3162  138.3404  157.3441 H   0  0  0  0  0  0  0  0  0  0  0  0
  153.4063  142.3055  160.6884 H   0  0  0  0  0  0  0  0  0  0  0  0
  152.8458  144.7247  160.7785 H   0  0  0  0  0  0  0  0  0  0  0  0
  151.4428  145.7564  159.0044 H   0  0  0  0  0  0  0  0  0  0  0  0
  150.5874  144.3646  157.1227 H   0  0  0  0  0  0  0  0  0  0  0  0
  149.9866  142.6418  155.6964 H   0  0  0  0  0  0  0  0  0  0  0  0
  151.0660  141.5328  154.8918 H   0  0  0  0  0  0  0  0  0  0  0  0
  149.0122  140.3957  154.6757 H   0  0  0  0  0  0  0  0  0  0  0  0
  149.6661  139.6448  156.1375 H   0  0  0  0  0  0  0  0  0  0  0  0
  147.8624  141.4357  153.7386 H   0  0  0  0  0  0  0  0  0  0  0  0
  146.1047  142.8063  152.7181 H   0  0  0  0  0  0  0  0  0  0  0  0
  144.4418  143.9911  154.1380 H   0  0  0  0  0  0  0  0  0  0  0  0
  144.5587  143.7908  156.6120 H   0  0  0  0  0  0  0  0  0  0  0  0
  1  2  2  0  0  0  0
  2  3  1  0  0  0  0
  2 24  1  0  0  0  0
  3  4  1  0  0  0  0
  3 25  1  0  0  0  0
  4  5  1  0  0  0  0
  4 26  1  0  0  0  0
  4 27  1  0  0  0  0
  5 13  1  0  0  0  0
  5  6  2  0  0  0  0
  6  7  1  0  0  0  0
  7 12  2  0  0  0  0
  7  8  1  0  0  0  0
  8  9  2  0  0  0  0
  8 28  1  0  0  0  0
  9 10  1  0  0  0  0
  9 29  1  0  0  0  0
 10 11  2  0  0  0  0
 10 30  1  0  0  0  0
 11 12  1  0  0  0  0
 11 31  1  0  0  0  0
 12 13  1  0  0  0  0
 13 14  1  0  0  0  0
 14 15  1  0  0  0  0
 14 32  1  0  0  0  0
 14 33  1  0  0  0  0
 15 16  1  0  0  0  0
 15 34  1  0  0  0  0
 15 35  1  0  0  0  0
 16 17  1  0  0  0  0
 17 22  1  0  0  0  0
 17 18  2  0  0  0  0
 18 19  1  0  0  0  0
 18 36  1  0  0  0  0
 19 20  2  0  0  0  0
 19 37  1  0  0  0  0
 20 21  1  0  0  0  0
 20 38  1  0  0  0  0
 21 22  2  0  0  0  0
 21 39  1  0  0  0  0
 22 23  1  0  0  0  0
M  END
> <s_m_source_file>
AV-unprocessed.smi

> <i_m_source_file_index>
1854

> <i_lp_mmshare_version>
43012

> <i_f3d_flags>
0

> <s_epik_input>
Tz1bQ0hdW05IXVtDSDJdYyhuMSluKGMoYzEyKVtjSF1bY0hdW2NIXVtjSF0yKVtDSDJdW0NIMl1PYzNbY0hdW2NIXVtjSF1bY0hdYzNDbA==

> <s_epik_cmdline>
J2VwaWtfcHl0aG9uJywgJy1waCcsICc3LjAnLCAnLXRuJywgJzgnLCAnLW1hJywgJzIwMCcsICctbWV0YWxfYmluZGluZycsICctaW1hZScsICc8aW5maWxlLm1hZT4nLCAnLW9tYWUnLCAnPG91dGZpbGUubWFlPic=

> <r_lp_tautomer_probability>
1

> <r_epik_Ionization_Penalty>
0.0546265

> <r_epik_Ionization_Penalty_Charging>
0

> <r_epik_Ionization_Penalty_Neutral>
0.0546265

> <r_epik_State_Penalty>
0.0470049

> <r_epik_Charging_Adjusted_Penalty>
0.0470049

> <i_epik_Tot_Q>
0

> <i_epik_Tot_abs_Q>
0

> <r_epik_Metal_State_Penalty>
0.0430103

> <b_epik_Metal_Only>
0

> <s_lp_Force_Field>
OPLS_2005

> <r_lp_Energy>
13.3616

> <b_lp_Chiralities_Consistent>
1

> <s_lp_Variant>
AV-unprocessed.smi:1854-1

> <Gold.Version>
5.8.1

> <Gold.Id.Protein>
6NUR|6NUR_protein|mol2

> <Gold.PLP.Fitness>
50.7997

> <Gold.PLP.PLP>
-48.8553

> <Gold.PLP.part.hbond>
-1.0000

> <Gold.PLP.part.metal>
0.0000

> <Gold.PLP.part.buried>
-8.0704

> <Gold.PLP.part.nonpolar>
-40.2965

> <Gold.PLP.part.repulsive>
0.4175

> <Gold.PLP.ligand.clash>
0.0000

> <Gold.PLP.ligand.torsion>
0.5403

> <Gold.PLP.Chemscore.Hbond>
0.9920

> <Gold.PLP.Chemscore.CHOScore>
0.0000

> <Gold.PLP.Chemscore.Metal>
0.0000

> <Gold.Chemscore.Hbonds>
donor molecule, donor type, donor heavy atom, donor atom, acceptor molecule, acceptor atom, score
      P1  H 10752 10765       L1     1  0.96

> <Gold.PLP.Chemscore.Internal.Correction>
0.0491

> <Gold.Rescore>
     Score         DG    S(hbond)    S(metal)    S(lipo)     H(rot)  DE(clash)    DE(int)     intcor
     15.14     -15.88       0.91        0.00     115.75       2.42       0.14       0.60       ----

> <Gold.Chemscore.Fitness>
15.1376

> <Gold.Chemscore.DG>
-15.8806

> <Gold.Chemscore.ZeroCoef>
-5.4800

> <Gold.Chemscore.Hbond>
0.9146

> <Gold.Chemscore.Metal>
0.0000

> <Gold.Chemscore.Lipo>
115.7471

> <Gold.Chemscore.Internal_Hbond>
0.0000

> <Gold.Chemscore.DEClash>
0.1448

> <Gold.Chemscore.DEInternal>
0.5982

> <Gold.Chemscore.Rot>
2.4205

> <Gold.Chemscore.Internal.Correction>
   9.000000E+99

> <Gold.Chemscore.Hbonds>
donor molecule, donor type, donor heavy atom, donor atom, acceptor molecule, acceptor atom, score
      P1  H 10752 10765       L1     1  0.71

> <Gold.Chemscore.Hbond.Weighted>
-3.0547

> <Gold.Chemscore.Metal.Weighted>
-0.0000

> <Gold.Chemscore.Lipo.Weighted>
-13.5424

> <Gold.Chemscore.Internal_Hbond.Weighted>
0.0000

> <Gold.Chemscore.DEClash.Weighted>
0.1448

> <Gold.Chemscore.DEInternal.Weighted>
0.5982

> <Gold.Chemscore.Rot.Weighted>
6.1965

> <Gold.Chemscore.Internal.Correction.Weighted>
   9.000000E+99

> <Gold.Protein.RotatedTorsions>
[ 6907 6896 6895 6894 ] final  172.55 input  -60.11 | X-H torsion
[ 7974 7965 7964 7962 ] final  132.82 input  175.53 | X-H torsion
[ 8008 7997 7996 7995 ] final -114.00 input   59.86 | X-H torsion
[ 10167 10162 10161 10158 ] final   73.86 input  -65.29 | X-H torsion
[ 10718 10713 10712 10709 ] final  -47.74 input   66.30 | X-H torsion
[ 10763 10752 10751 10750 ] final  152.98 input  -60.55 | X-H torsion
[ 11005 11000 10999 10996 ] final  117.27 input  -57.11 | X-H torsion

> <Gold.Protein.ActiveResidues>
 VAL166  LYS551  ARG553  GLY616  TRP617  ASP618  TYR619  PRO620  LYS621  CYS622 
 ASP623  PHE694  ASN695  SER759  ASP760  ASP761  ALA762  ILE779  LEU786  VAL792 
 PHE793  MET794  SER795  GLU796  ALA797  LYS798  CYS799  TRP800  GLU811  SER814 

> <Gold.Protein.RotatedAtoms>
  151.7826  133.3351  159.3475 H   0  0  0  0  0  0  0  0  0  0  0  0  # atno 6907 bound_to 6896
  150.7421  134.5917  159.6000 H   0  0  0  0  0  0  0  0  0  0  0  0  # atno 6908 bound_to 6896
  152.3266  134.7315  160.0352 H   0  0  0  0  0  0  0  0  0  0  0  0  # atno 6909 bound_to 6896
  144.9928  139.4389  143.5330 H   0  0  0  0  0  0  0  0  0  0  0  0  # atno 7974 bound_to 7965
  155.0295  140.0393  157.2468 H   0  0  0  0  0  0  0  0  0  0  0  0  # atno 8008 bound_to 7997
  154.7309  140.2730  155.6434 H   0  0  0  0  0  0  0  0  0  0  0  0  # atno 8009 bound_to 7997
  156.2841  140.2684  156.2008 H   0  0  0  0  0  0  0  0  0  0  0  0  # atno 8010 bound_to 7997
  140.0199  144.5549  150.7590 H   0  0  0  0  0  0  0  0  0  0  0  0  # atno 10167 bound_to 10162
  156.2055  130.4158  149.9184 H   0  0  0  0  0  0  0  0  0  0  0  0  # atno 10718 bound_to 10713
  154.1287  135.2828  155.3190 H   0  0  0  0  0  0  0  0  0  0  0  0  # atno 10763 bound_to 10752
  154.6371  135.5415  153.7749 H   0  0  0  0  0  0  0  0  0  0  0  0  # atno 10764 bound_to 10752
  153.0288  135.6477  154.1438 H   0  0  0  0  0  0  0  0  0  0  0  0  # atno 10765 bound_to 10752
  139.9069  134.9608  156.7326 H   0  0  0  0  0  0  0  0  0  0  0  0  # atno 11005 bound_to 11000
  146.3435  139.9270  142.8758 LP  0  0  0  0  0  0  0  0  0  0  0  0  # atno 17320 bound_to 7965
  145.2261  140.9954  143.4017 LP  0  0  0  0  0  0  0  0  0  0  0  0  # atno 17321 bound_to 7965
  140.7347  143.2732  151.3824 LP  0  0  0  0  0  0  0  0  0  0  0  0  # atno 17342 bound_to 10162
  139.6147  144.1027  152.2334 LP  0  0  0  0  0  0  0  0  0  0  0  0  # atno 17343 bound_to 10162
  156.6879  130.8884  151.3584 LP  0  0  0  0  0  0  0  0  0  0  0  0  # atno 17370 bound_to 10713
  157.7010  130.9333  150.0785 LP  0  0  0  0  0  0  0  0  0  0  0  0  # atno 17371 bound_to 10713
  140.6913  133.9387  155.7968 LP  0  0  0  0  0  0  0  0  0  0  0  0  # atno 17394 bound_to 11000
  141.0439  134.0581  157.3868 LP  0  0  0  0  0  0  0  0  0  0  0  0  # atno 17395 bound_to 11000

$$$$
