AV-unprocessed.smi:515|AV-procd|sdf|2783|dock2
  -GOLD-   2262023253D 1   1.00000     0.00000
 Structure written by MMmdl.
 47 49  0  0  0  0  0  0  0  0  3 V2000
  149.1243  131.5914  158.6497 C   0  0  0  0  0  0  0  0  0  0  0  0
  149.8231  132.2080  157.4358 C   0  0  0  0  0  0  0  0  0  0  0  0
  150.1366  133.5559  157.7354 O   0  0  0  0  0  0  0  0  0  0  0  0
  151.0674  134.1286  156.8329 C   0  0  0  0  0  0  0  0  0  0  0  0
  150.4533  134.1889  155.4262 C   0  0  0  0  0  0  0  0  0  0  0  0
  149.7714  135.4568  155.1784 N   0  0  0  0  0  0  0  0  0  0  0  0
  148.4774  135.6327  154.8014 C   0  0  0  0  0  0  0  0  0  0  0  0
  147.5137  134.5037  154.5695 C   0  0  0  0  0  0  0  0  0  0  0  0
  147.2936  134.4956  153.1012 N   0  3  0  0  0  0  0  0  0  0  0  0
  147.2786  133.1379  152.4986 C   0  0  0  0  0  0  0  0  0  0  0  0
  147.0945  133.2307  150.9750 C   0  0  0  0  0  0  0  0  0  0  0  0
  145.8986  133.9418  150.6806 O   0  0  0  0  0  0  0  0  0  0  0  0
  145.9357  135.2737  151.1778 C   0  0  0  0  0  0  0  0  0  0  0  0
  146.0801  135.2495  152.7087 C   0  0  0  0  0  0  0  0  0  0  0  0
  148.1197  136.9103  154.6494 N   0  0  0  0  0  0  0  0  0  0  0  0
  149.2797  137.6035  154.9588 C   0  0  0  0  0  0  0  0  0  0  0  0
  150.2883  136.7524  155.2854 C   0  0  0  0  0  0  0  0  0  0  0  0
  151.6450  137.1981  155.6773 C   0  0  0  0  0  0  0  0  0  0  0  0
  152.5216  136.3882  155.9707 O   0  0  0  0  0  0  0  0  0  0  0  0
  151.7637  138.5634  155.6649 N   0  5  0  0  0  0  0  0  0  0  0  0
  150.7698  139.4610  155.3392 C   0  0  0  0  0  0  0  0  0  0  0  0
  150.9600  140.6775  155.3587 O   0  0  0  0  0  0  0  0  0  0  0  0
  149.5292  139.0024  154.9812 N   0  0  0  0  0  0  0  0  0  0  0  0
  148.4528  139.9327  154.6293 C   0  0  0  0  0  0  0  0  0  0  0  0
  148.8656  130.5490  158.4641 H   0  0  0  0  0  0  0  0  0  0  0  0
  148.2052  132.1284  158.8860 H   0  0  0  0  0  0  0  0  0  0  0  0
  149.7670  131.6264  159.5299 H   0  0  0  0  0  0  0  0  0  0  0  0
  150.7327  131.6520  157.2040 H   0  0  0  0  0  0  0  0  0  0  0  0
  149.1698  132.1564  156.5636 H   0  0  0  0  0  0  0  0  0  0  0  0
  151.3418  135.1319  157.1609 H   0  0  0  0  0  0  0  0  0  0  0  0
  151.9792  133.5296  156.8162 H   0  0  0  0  0  0  0  0  0  0  0  0
  151.2195  134.0317  154.6697 H   0  0  0  0  0  0  0  0  0  0  0  0
  149.7533  133.3666  155.2842 H   0  0  0  0  0  0  0  0  0  0  0  0
  147.8770  133.5443  154.9355 H   0  0  0  0  0  0  0  0  0  0  0  0
  146.5874  134.7302  155.0993 H   0  0  0  0  0  0  0  0  0  0  0  0
  148.2087  132.6116  152.7136 H   0  0  0  0  0  0  0  0  0  0  0  0
  146.4701  132.5512  152.9378 H   0  0  0  0  0  0  0  0  0  0  0  0
  147.9498  133.7222  150.5082 H   0  0  0  0  0  0  0  0  0  0  0  0
  147.0270  132.2320  150.5436 H   0  0  0  0  0  0  0  0  0  0  0  0
  146.7575  135.8247  150.7173 H   0  0  0  0  0  0  0  0  0  0  0  0
  145.0135  135.7820  150.8956 H   0  0  0  0  0  0  0  0  0  0  0  0
  145.2000  134.7896  153.1615 H   0  0  0  0  0  0  0  0  0  0  0  0
  146.1403  136.2707  153.0869 H   0  0  0  0  0  0  0  0  0  0  0  0
  148.1768  140.5367  155.4943 H   0  0  0  0  0  0  0  0  0  0  0  0
  147.5535  139.4242  154.2832 H   0  0  0  0  0  0  0  0  0  0  0  0
  148.7690  140.6053  153.8310 H   0  0  0  0  0  0  0  0  0  0  0  0
  148.0779  134.9890  152.6979 H   0  0  0  0  0  0  0  0  0  0  0  0
  1  2  1  0  0  0  0
  1 25  1  0  0  0  0
  1 26  1  0  0  0  0
  1 27  1  0  0  0  0
  2  3  1  0  0  0  0
  2 28  1  0  0  0  0
  2 29  1  0  0  0  0
  3  4  1  0  0  0  0
  4  5  1  0  0  0  0
  4 30  1  0  0  0  0
  4 31  1  0  0  0  0
  5  6  1  0  0  0  0
  5 32  1  0  0  0  0
  5 33  1  0  0  0  0
  6 17  1  0  0  0  0
  6  7  1  0  0  0  0
  7  8  1  0  0  0  0
  7 15  2  0  0  0  0
  8  9  1  0  0  0  0
  8 34  1  0  0  0  0
  8 35  1  0  0  0  0
  9 14  1  0  0  0  0
  9 10  1  0  0  0  0
  9 47  1  0  0  0  0
 10 11  1  0  0  0  0
 10 36  1  0  0  0  0
 10 37  1  0  0  0  0
 11 12  1  0  0  0  0
 11 38  1  0  0  0  0
 11 39  1  0  0  0  0
 12 13  1  0  0  0  0
 13 14  1  0  0  0  0
 13 40  1  0  0  0  0
 13 41  1  0  0  0  0
 14 42  1  0  0  0  0
 14 43  1  0  0  0  0
 15 16  1  0  0  0  0
 16 23  1  0  0  0  0
 16 17  2  0  0  0  0
 17 18  1  0  0  0  0
 18 19  2  0  0  0  0
 18 20  1  0  0  0  0
 20 21  1  0  0  0  0
 21 22  2  0  0  0  0
 21 23  1  0  0  0  0
 23 24  1  0  0  0  0
 24 44  1  0  0  0  0
 24 45  1  0  0  0  0
 24 46  1  0  0  0  0
M  CHG  1   9   1
M  CHG  1  20  -1
M  END
> <s_m_source_file>
AV-unprocessed.smi

> <i_m_source_file_index>
515

> <i_lp_mmshare_version>
43012

> <i_f3d_flags>
0

> <s_epik_input>
W0NIM11uMWMoPU8pW25IXWMoPU8pYyhjMTIpbihbQ0gyXVtDSDJdT1tDSDJdW0NIM10pYyhuMilbQ0gyXU4zW0NIMl1bQ0gyXU9bQ0gyXVtDSDJdMw==

> <s_epik_cmdline>
J2VwaWtfcHl0aG9uJywgJy1waCcsICc3LjAnLCAnLXRuJywgJzgnLCAnLW1hJywgJzIwMCcsICctbWV0YWxfYmluZGluZycsICctaW1hZScsICc8aW5maWxlLm1hZT4nLCAnLW9tYWUnLCAnPG91dGZpbGUubWFlPic=

> <r_epik_Ionization_Penalty>
5.22184

> <r_epik_Ionization_Penalty_Charging>
1.12852

> <r_epik_Ionization_Penalty_Neutral>
4.09332

> <r_epik_State_Penalty>
5.27165

> <r_epik_Charging_Adjusted_Penalty>
6.40017

> <i_epik_Tot_Q>
0

> <i_epik_Tot_abs_Q>
2

> <r_epik_Metal_State_Penalty>
1.73647

> <b_epik_Metal_Only>
1

> <s_lp_Force_Field>
OPLS_2005

> <r_lp_Energy>
35.0341

> <b_lp_Chiralities_Consistent>
1

> <s_lp_Variant>
AV-unprocessed.smi:515-4

> <Gold.Version>
5.8.1

> <Gold.Id.Protein>
6NUR|6NUR_protein|mol2

> <Gold.PLP.Fitness>
38.7608

> <Gold.PLP.PLP>
-26.2549

> <Gold.PLP.part.hbond>
-3.6361

> <Gold.PLP.part.metal>
0.0000

> <Gold.PLP.part.buried>
-2.7286

> <Gold.PLP.part.nonpolar>
-21.4720

> <Gold.PLP.part.repulsive>
0.6525

> <Gold.PLP.ligand.clash>
0.0000

> <Gold.PLP.ligand.torsion>
0.9171

> <Gold.PLP.Chemscore.Hbond>
4.7600

> <Gold.PLP.Chemscore.CHOScore>
0.0000

> <Gold.PLP.Chemscore.Metal>
0.0000

> <Gold.Chemscore.Hbonds>
donor molecule, donor type, donor heavy atom, donor atom, acceptor molecule, acceptor atom, score
      L1  H     9    47       P1  7948  2.00
      P1  H  6896  6909       L1     3  1.00
      P1  H  7989  7998       L1    22  0.78
      P1  H 10752 10765       L1    19  0.80

> <Gold.PLP.Chemscore.Internal.Correction>
0.0601

> <Gold.Rescore>
     Score         DG    S(hbond)    S(metal)    S(lipo)     H(rot)  DE(clash)    DE(int)     intcor
     11.85     -14.48       2.74        0.00      46.34       2.17       0.08       2.56       ----

> <Gold.Chemscore.Fitness>
11.8488

> <Gold.Chemscore.DG>
-14.4849

> <Gold.Chemscore.ZeroCoef>
-5.4800

> <Gold.Chemscore.Hbond>
2.7384

> <Gold.Chemscore.Metal>
0.0000

> <Gold.Chemscore.Lipo>
46.3411

> <Gold.Chemscore.Internal_Hbond>
0.0000

> <Gold.Chemscore.DEClash>
0.0790

> <Gold.Chemscore.DEInternal>
2.5571

> <Gold.Chemscore.Rot>
2.1731

> <Gold.Chemscore.Internal.Correction>
   9.000000E+99

> <Gold.Chemscore.Hbonds>
donor molecule, donor type, donor heavy atom, donor atom, acceptor molecule, acceptor atom, score
      L1  H     9    47       P1  7948  0.88
      P1  H  6896  6909       L1     3  0.26
      P1  H  7989  7998       L1    22  0.15
      P1  H 10752 10765       L1    19  0.65

> <Gold.Chemscore.Hbond.Weighted>
-9.1461

> <Gold.Chemscore.Metal.Weighted>
-0.0000

> <Gold.Chemscore.Lipo.Weighted>
-5.4219

> <Gold.Chemscore.Internal_Hbond.Weighted>
0.0000

> <Gold.Chemscore.DEClash.Weighted>
0.0790

> <Gold.Chemscore.DEInternal.Weighted>
2.5571

> <Gold.Chemscore.Rot.Weighted>
5.5631

> <Gold.Chemscore.Internal.Correction.Weighted>
   9.000000E+99

> <Gold.Protein.RotatedTorsions>
[ 6907 6896 6895 6894 ] final  -15.79 input  -60.11 | X-H torsion
[ 7974 7965 7964 7962 ] final  -36.60 input  175.53 | X-H torsion
[ 8008 7997 7996 7995 ] final  -39.26 input   59.86 | X-H torsion
[ 10167 10162 10161 10158 ] final   68.51 input  -65.29 | X-H torsion
[ 10718 10713 10712 10709 ] final -118.29 input   66.30 | X-H torsion
[ 10763 10752 10751 10750 ] final -168.99 input  -60.55 | X-H torsion
[ 11005 11000 10999 10996 ] final  -45.52 input  -57.11 | X-H torsion

> <Gold.Protein.ActiveResidues>
 VAL166  LYS551  ARG553  GLY616  TRP617  ASP618  TYR619  PRO620  LYS621  CYS622 
 ASP623  PHE694  ASN695  SER759  ASP760  ASP761  ALA762  ILE779  LEU786  VAL792 
 PHE793  MET794  SER795  GLU796  ALA797  LYS798  CYS799  TRP800  GLU811  SER814 

> <Gold.Protein.RotatedAtoms>
  151.3185  135.0812  159.9296 H   0  0  0  0  0  0  0  0  0  0  0  0  # atno 6907 bound_to 6896
  152.5262  133.9663  159.7751 H   0  0  0  0  0  0  0  0  0  0  0  0  # atno 6908 bound_to 6896
  150.9980  133.6032  159.2729 H   0  0  0  0  0  0  0  0  0  0  0  0  # atno 6909 bound_to 6896
  146.0648  140.6297  142.8980 H   0  0  0  0  0  0  0  0  0  0  0  0  # atno 7974 bound_to 7965
  154.4025  140.1556  156.2835 H   0  0  0  0  0  0  0  0  0  0  0  0  # atno 8008 bound_to 7997
  155.8849  140.3442  155.5892 H   0  0  0  0  0  0  0  0  0  0  0  0  # atno 8009 bound_to 7997
  155.7625  140.0819  157.2138 H   0  0  0  0  0  0  0  0  0  0  0  0  # atno 8010 bound_to 7997
  140.0779  144.5097  150.7182 H   0  0  0  0  0  0  0  0  0  0  0  0  # atno 10167 bound_to 10162
  156.1096  130.6238  150.9273 H   0  0  0  0  0  0  0  0  0  0  0  0  # atno 10718 bound_to 10713
  154.6570  135.2919  154.9914 H   0  0  0  0  0  0  0  0  0  0  0  0  # atno 10763 bound_to 10752
  154.0987  135.6580  153.4868 H   0  0  0  0  0  0  0  0  0  0  0  0  # atno 10764 bound_to 10752
  153.0408  135.5237  154.7504 H   0  0  0  0  0  0  0  0  0  0  0  0  # atno 10765 bound_to 10752
  141.0521  133.6739  156.3025 H   0  0  0  0  0  0  0  0  0  0  0  0  # atno 11005 bound_to 11000
  144.7196  140.4327  143.7018 LP  0  0  0  0  0  0  0  0  0  0  0  0  # atno 17320 bound_to 7965
  145.6497  139.1563  143.2869 LP  0  0  0  0  0  0  0  0  0  0  0  0  # atno 17321 bound_to 7965
  140.7093  143.2492  151.4631 LP  0  0  0  0  0  0  0  0  0  0  0  0  # atno 17342 bound_to 10162
  139.5797  144.1737  152.1952 LP  0  0  0  0  0  0  0  0  0  0  0  0  # atno 17343 bound_to 10162
  157.6276  131.0924  150.8504 LP  0  0  0  0  0  0  0  0  0  0  0  0  # atno 17370 bound_to 10713
  156.8617  130.5115  149.5303 LP  0  0  0  0  0  0  0  0  0  0  0  0  # atno 17371 bound_to 10713
  140.6036  134.5530  157.5522 LP  0  0  0  0  0  0  0  0  0  0  0  0  # atno 17394 bound_to 11000
  139.9359  134.7877  156.0805 LP  0  0  0  0  0  0  0  0  0  0  0  0  # atno 17395 bound_to 11000

$$$$
