AV-unprocessed.smi:1978|AV-procd|sdf|8005|dock1
  -GOLD-   2272010193D 1   1.00000     0.00000
 Structure written by MMmdl.
 44 45  0  0  0  0  0  0  0  0  3 V2000
  153.5002  141.3334  160.0518 C   0  0  0  0  0  0  0  0  0  0  0  0
  152.6309  140.9844  158.8925 C   0  0  0  0  0  0  0  0  0  0  0  0
  151.5179  141.5695  158.3586 C   0  0  0  0  0  0  0  0  0  0  0  0
  151.1929  140.7155  157.2694 C   0  0  0  0  0  0  0  0  0  0  0  0
  150.1695  140.8780  156.4169 N   0  5  0  0  0  0  0  0  0  0  0  0
  150.0441  140.0683  155.3410 C   0  0  0  0  0  0  0  0  0  0  0  0
  150.9566  139.6542  154.6224 O   0  0  0  0  0  0  0  0  0  0  0  0
  148.7795  139.7143  155.0807 N   0  0  0  0  0  0  0  0  0  0  0  0
  148.3574  138.8543  153.9832 C   0  0  0  0  0  0  0  0  0  0  0  0
  147.2184  137.9047  154.4203 C   0  0  1  0  0  0  0  0  0  0  0  0
  145.9748  138.6644  154.9278 C   0  0  0  0  0  0  0  0  0  0  0  0
  146.8583  136.8998  153.3681 N   0  3  1  0  0  0  0  0  0  0  0  0
  146.3318  135.6145  153.9153 C   0  0  0  0  0  0  0  0  0  0  0  0
  146.2450  134.5352  152.8263 C   0  0  0  0  0  0  0  0  0  0  0  0
  145.3646  135.0084  151.6676 C   0  0  0  0  0  0  0  0  0  0  0  0
  145.8929  136.3432  151.1324 C   0  0  0  0  0  0  0  0  0  0  0  0
  145.9993  137.4078  152.2463 C   0  0  2  0  0  0  0  0  0  0  0  0
  146.5000  138.7302  151.6306 C   0  0  0  0  0  0  0  0  0  0  0  0
  152.0441  139.7115  157.1424 N   0  0  0  0  0  0  0  0  0  0  0  0
  152.9658  139.8726  158.1838 O   0  0  0  0  0  0  0  0  0  0  0  0
  154.0491  142.2546  159.8575 H   0  0  0  0  0  0  0  0  0  0  0  0
  154.2251  140.5439  160.2523 H   0  0  0  0  0  0  0  0  0  0  0  0
  152.9024  141.4783  160.9517 H   0  0  0  0  0  0  0  0  0  0  0  0
  151.0139  142.4631  158.6948 H   0  0  0  0  0  0  0  0  0  0  0  0
  148.0603  140.0748  155.6907 H   0  0  0  0  0  0  0  0  0  0  0  0
  148.0365  139.4856  153.1539 H   0  0  0  0  0  0  0  0  0  0  0  0
  149.2236  138.2876  153.6407 H   0  0  0  0  0  0  0  0  0  0  0  0
  147.5615  137.3582  155.2965 H   0  0  0  0  0  0  0  0  0  0  0  0
  146.1911  139.1969  155.8543 H   0  0  0  0  0  0  0  0  0  0  0  0
  145.1527  137.9797  155.1383 H   0  0  0  0  0  0  0  0  0  0  0  0
  145.6232  139.4071  154.2122 H   0  0  0  0  0  0  0  0  0  0  0  0
  146.9702  135.2359  154.7114 H   0  0  0  0  0  0  0  0  0  0  0  0
  145.3445  135.7719  154.3513 H   0  0  0  0  0  0  0  0  0  0  0  0
  147.2450  134.2993  152.4594 H   0  0  0  0  0  0  0  0  0  0  0  0
  145.8427  133.6127  153.2462 H   0  0  0  0  0  0  0  0  0  0  0  0
  145.3499  134.2611  150.8735 H   0  0  0  0  0  0  0  0  0  0  0  0
  144.3348  135.1261  152.0074 H   0  0  0  0  0  0  0  0  0  0  0  0
  146.8717  136.1892  150.6757 H   0  0  0  0  0  0  0  0  0  0  0  0
  145.2352  136.6957  150.3370 H   0  0  0  0  0  0  0  0  0  0  0  0
  144.9953  137.5815  152.6360 H   0  0  0  0  0  0  0  0  0  0  0  0
  145.9275  138.9849  150.7383 H   0  0  0  0  0  0  0  0  0  0  0  0
  147.5488  138.6633  151.3392 H   0  0  0  0  0  0  0  0  0  0  0  0
  146.3849  139.5717  152.3135 H   0  0  0  0  0  0  0  0  0  0  0  0
  147.7392  136.6649  152.9340 H   0  0  0  0  0  0  0  0  0  0  0  0
  1  2  1  0  0  0  0
  1 21  1  0  0  0  0
  1 22  1  0  0  0  0
  1 23  1  0  0  0  0
  2 20  1  0  0  0  0
  2  3  2  0  0  0  0
  3  4  1  0  0  0  0
  3 24  1  0  0  0  0
  4  5  1  0  0  0  0
  4 19  2  0  0  0  0
  5  6  1  0  0  0  0
  6  7  2  0  0  0  0
  6  8  1  0  0  0  0
  8  9  1  0  0  0  0
  8 25  1  0  0  0  0
  9 10  1  0  0  0  0
  9 26  1  0  0  0  0
  9 27  1  0  0  0  0
 10 11  1  0  0  0  0
 10 12  1  0  0  0  0
 10 28  1  0  0  0  0
 11 29  1  0  0  0  0
 11 30  1  0  0  0  0
 11 31  1  0  0  0  0
 12 17  1  0  0  0  0
 12 13  1  0  0  0  0
 12 44  1  0  0  0  0
 13 14  1  0  0  0  0
 13 32  1  0  0  0  0
 13 33  1  0  0  0  0
 14 15  1  0  0  0  0
 14 34  1  0  0  0  0
 14 35  1  0  0  0  0
 15 16  1  0  0  0  0
 15 36  1  0  0  0  0
 15 37  1  0  0  0  0
 16 17  1  0  0  0  0
 16 38  1  0  0  0  0
 16 39  1  0  0  0  0
 17 18  1  0  0  0  0
 17 40  1  0  0  0  0
 18 41  1  0  0  0  0
 18 42  1  0  0  0  0
 18 43  1  0  0  0  0
 19 20  1  0  0  0  0
M  CHG  1   5  -1
M  CHG  1  12   1
M  END
> <s_m_source_file>
AV-unprocessed.smi

> <i_m_source_file_index>
1978

> <i_lp_mmshare_version>
43012

> <i_f3d_flags>
0

> <s_epik_input>
W0NIM11jMVtjSF1jKG5vMSlbTkhdQyg9TylbTkhdW0NIMl1bQ0BIXShbQ0gzXSlOMltDSDJdW0NIMl1bQ0gyXVtDSDJdW0NASF0yW0NIM10=

> <s_epik_cmdline>
J2VwaWtfcHl0aG9uJywgJy1waCcsICc3LjAnLCAnLXRuJywgJzgnLCAnLW1hJywgJzIwMCcsICctbWV0YWxfYmluZGluZycsICctaW1hZScsICc8aW5maWxlLm1hZT4nLCAnLW9tYWUnLCAnPG91dGZpbGUubWFlPic=

> <r_epik_Ionization_Penalty>
6.22372

> <r_epik_Ionization_Penalty_Charging>
6.22362

> <r_epik_Ionization_Penalty_Neutral>
9.65074e-05

> <r_epik_State_Penalty>
6.22363

> <r_epik_Charging_Adjusted_Penalty>
12.4472

> <i_epik_Tot_Q>
0

> <i_epik_Tot_abs_Q>
2

> <r_epik_Metal_State_Penalty>
2.16675

> <b_epik_Metal_Only>
1

> <s_lp_Force_Field>
OPLS_2005

> <r_lp_Energy>
11.9993

> <b_lp_Chiralities_Consistent>
1

> <s_lp_Variant>
AV-unprocessed.smi:1978-14

> <Gold.Version>
5.8.1

> <Gold.Id.Protein>
6NUR|6NUR_protein|mol2

> <Gold.PLP.Fitness>
40.4767

> <Gold.PLP.PLP>
-30.0324

> <Gold.PLP.part.hbond>
-3.0000

> <Gold.PLP.part.metal>
0.0000

> <Gold.PLP.part.buried>
-0.5619

> <Gold.PLP.part.nonpolar>
-26.9752

> <Gold.PLP.part.repulsive>
0.2463

> <Gold.PLP.ligand.clash>
0.0000

> <Gold.PLP.ligand.torsion>
0.8649

> <Gold.PLP.Chemscore.Hbond>
3.9760

> <Gold.PLP.Chemscore.CHOScore>
0.0000

> <Gold.PLP.Chemscore.Metal>
0.0000

> <Gold.Chemscore.Hbonds>
donor molecule, donor type, donor heavy atom, donor atom, acceptor molecule, acceptor atom, score
      L1  H    12    44       P1  7948  2.00
      P1  H  7989  7998       L1     7  1.00
      P1  H  7997  8010       L1    20  0.80

> <Gold.PLP.Chemscore.Internal.Correction>
0.2461

> <Gold.Rescore>
     Score         DG    S(hbond)    S(metal)    S(lipo)     H(rot)  DE(clash)    DE(int)     intcor
     13.98     -17.55       2.36        0.00      68.99       1.52       0.32       3.26       ----

> <Gold.Chemscore.Fitness>
13.9816

> <Gold.Chemscore.DG>
-17.5533

> <Gold.Chemscore.ZeroCoef>
-5.4800

> <Gold.Chemscore.Hbond>
2.3623

> <Gold.Chemscore.Metal>
0.0000

> <Gold.Chemscore.Lipo>
68.9890

> <Gold.Chemscore.Internal_Hbond>
0.0000

> <Gold.Chemscore.DEClash>
0.3154

> <Gold.Chemscore.DEInternal>
3.2562

> <Gold.Chemscore.Rot>
1.5190

> <Gold.Chemscore.Internal.Correction>
   9.000000E+99

> <Gold.Chemscore.Hbonds>
donor molecule, donor type, donor heavy atom, donor atom, acceptor molecule, acceptor atom, score
      L1  H    12    44       P1  7948  1.00
      P1  H  7989  7998       L1     7  0.91
      P1  H  7997  8010       L1    20  0.10

> <Gold.Chemscore.Hbond.Weighted>
-7.8902

> <Gold.Chemscore.Metal.Weighted>
-0.0000

> <Gold.Chemscore.Lipo.Weighted>
-8.0717

> <Gold.Chemscore.Internal_Hbond.Weighted>
0.0000

> <Gold.Chemscore.DEClash.Weighted>
0.3154

> <Gold.Chemscore.DEInternal.Weighted>
3.2562

> <Gold.Chemscore.Rot.Weighted>
3.8886

> <Gold.Chemscore.Internal.Correction.Weighted>
   9.000000E+99

> <Gold.Protein.RotatedTorsions>
[ 6907 6896 6895 6894 ] final  -19.83 input  -60.11 | X-H torsion
[ 7974 7965 7964 7962 ] final -150.45 input  175.53 | X-H torsion
[ 8008 7997 7996 7995 ] final   35.77 input   59.86 | X-H torsion
[ 10167 10162 10161 10158 ] final  -29.70 input  -65.29 | X-H torsion
[ 10718 10713 10712 10709 ] final -156.30 input   66.30 | X-H torsion
[ 10763 10752 10751 10750 ] final -129.81 input  -60.55 | X-H torsion
[ 11005 11000 10999 10996 ] final -122.33 input  -57.11 | X-H torsion

> <Gold.Protein.ActiveResidues>
 VAL166  LYS551  ARG553  GLY616  TRP617  ASP618  TYR619  PRO620  LYS621  CYS622 
 ASP623  PHE694  ASN695  SER759  ASP760  ASP761  ALA762  ILE779  LEU786  VAL792 
 PHE793  MET794  SER795  GLU796  ALA797  LYS798  CYS799  TRP800  GLU811  SER814 

> <Gold.Protein.RotatedAtoms>
  151.2573  135.0642  159.9084 H   0  0  0  0  0  0  0  0  0  0  0  0  # atno 6907 bound_to 6896
  152.5371  134.0269  159.8017 H   0  0  0  0  0  0  0  0  0  0  0  0  # atno 6908 bound_to 6896
  151.0486  133.5594  159.2675 H   0  0  0  0  0  0  0  0  0  0  0  0  # atno 6909 bound_to 6896
  144.7907  140.4931  143.5774 H   0  0  0  0  0  0  0  0  0  0  0  0  # atno 7974 bound_to 7965
  155.1765  140.3296  155.4383 H   0  0  0  0  0  0  0  0  0  0  0  0  # atno 8008 bound_to 7997
  156.2492  140.1934  156.6815 H   0  0  0  0  0  0  0  0  0  0  0  0  # atno 8009 bound_to 7997
  154.6301  140.0583  156.9708 H   0  0  0  0  0  0  0  0  0  0  0  0  # atno 8010 bound_to 7997
  140.7257  143.3907  151.1435 H   0  0  0  0  0  0  0  0  0  0  0  0  # atno 10167 bound_to 10162
  156.5247  130.8494  151.2695 H   0  0  0  0  0  0  0  0  0  0  0  0  # atno 10718 bound_to 10713
  154.8757  135.3883  154.3981 H   0  0  0  0  0  0  0  0  0  0  0  0  # atno 10763 bound_to 10752
  153.4709  135.7030  153.5999 H   0  0  0  0  0  0  0  0  0  0  0  0  # atno 10764 bound_to 10752
  153.4457  135.3845  155.2222 H   0  0  0  0  0  0  0  0  0  0  0  0  # atno 10765 bound_to 10752
  141.0003  134.0412  157.3546 H   0  0  0  0  0  0  0  0  0  0  0  0  # atno 11005 bound_to 11000
  145.5802  139.1488  143.3240 LP  0  0  0  0  0  0  0  0  0  0  0  0  # atno 17320 bound_to 7965
  146.2158  140.5932  142.9039 LP  0  0  0  0  0  0  0  0  0  0  0  0  # atno 17321 bound_to 7965
  139.7512  143.8776  152.3077 LP  0  0  0  0  0  0  0  0  0  0  0  0  # atno 17342 bound_to 10162
  139.8630  144.7107  150.9076 LP  0  0  0  0  0  0  0  0  0  0  0  0  # atno 17343 bound_to 10162
  157.7431  130.9905  150.2569 LP  0  0  0  0  0  0  0  0  0  0  0  0  # atno 17370 bound_to 10713
  156.3116  130.3773  149.7656 LP  0  0  0  0  0  0  0  0  0  0  0  0  # atno 17371 bound_to 10713
  139.9035  135.0172  156.7381 LP  0  0  0  0  0  0  0  0  0  0  0  0  # atno 17394 bound_to 11000
  140.6900  133.9399  155.7960 LP  0  0  0  0  0  0  0  0  0  0  0  0  # atno 17395 bound_to 11000

$$$$
