AV-unprocessed.smi:529|AV-procd|sdf|2841|dock8
  -GOLD-   2262023333D 1   1.00000     0.00000
 Structure written by MMmdl.
 30 31  0  0  0  0  0  0  0  0  1 V2000
  149.5099  138.5669  153.4479 N   0  0  0  0  0  0  0  0  0  0  0  0
  148.8331  139.6483  153.6144 C   0  0  0  0  0  0  0  0  0  0  0  0
  147.2018  140.0359  152.8877 S   0  0  0  0  0  0  0  0  0  0  0  0
  147.2156  141.5843  153.7047 C   0  0  0  0  0  0  0  0  0  0  0  0
  148.3222  141.7629  154.4241 C   0  0  0  0  0  0  0  0  0  0  0  0
  149.2382  140.7309  154.3982 N   0  0  0  0  0  0  0  0  0  0  0  0
  150.4739  140.7578  155.1816 C   0  0  0  0  0  0  0  0  0  0  0  0
  150.2671  141.2335  156.6259 C   0  0  0  0  0  0  0  0  0  0  0  0
  149.3844  140.7483  157.3354 O   0  0  0  0  0  0  0  0  0  0  0  0
  151.0892  142.2082  157.0428 N   0  0  0  0  0  0  0  0  0  0  0  0
  151.0742  142.8061  158.3751 C   0  0  0  0  0  0  0  0  0  0  0  0
  150.9706  144.3449  158.3153 C   0  0  0  0  0  0  0  0  0  0  0  0
  152.0783  144.8808  159.2239 C   0  0  0  0  0  0  0  0  0  0  0  0
  153.1631  143.8104  159.1676 C   0  0  0  0  0  0  0  0  0  0  0  0
  152.3850  142.4953  159.1206 C   0  0  0  0  0  0  0  0  0  0  0  0
  149.0112  137.9331  152.8399 H   0  0  0  0  0  0  0  0  0  0  0  0
  146.3932  142.2772  153.6059 H   0  0  0  0  0  0  0  0  0  0  0  0
  148.5663  142.6299  155.0204 H   0  0  0  0  0  0  0  0  0  0  0  0
  150.9375  139.7698  155.1853 H   0  0  0  0  0  0  0  0  0  0  0  0
  151.1915  141.4236  154.7005 H   0  0  0  0  0  0  0  0  0  0  0  0
  151.7821  142.5540  156.3951 H   0  0  0  0  0  0  0  0  0  0  0  0
  150.2390  142.3930  158.9441 H   0  0  0  0  0  0  0  0  0  0  0  0
  151.1410  144.7044  157.2991 H   0  0  0  0  0  0  0  0  0  0  0  0
  149.9863  144.7017  158.6200 H   0  0  0  0  0  0  0  0  0  0  0  0
  152.4379  145.8622  158.9134 H   0  0  0  0  0  0  0  0  0  0  0  0
  151.7047  144.9704  160.2448 H   0  0  0  0  0  0  0  0  0  0  0  0
  153.7460  143.9259  158.2528 H   0  0  0  0  0  0  0  0  0  0  0  0
  153.8512  143.8624  160.0116 H   0  0  0  0  0  0  0  0  0  0  0  0
  152.1518  142.1818  160.1392 H   0  0  0  0  0  0  0  0  0  0  0  0
  152.9646  141.6914  158.6647 H   0  0  0  0  0  0  0  0  0  0  0  0
  1  2  2  0  0  0  0
  1 16  1  0  0  0  0
  2  6  1  0  0  0  0
  2  3  1  0  0  0  0
  3  4  1  0  0  0  0
  4  5  2  0  0  0  0
  4 17  1  0  0  0  0
  5  6  1  0  0  0  0
  5 18  1  0  0  0  0
  6  7  1  0  0  0  0
  7  8  1  0  0  0  0
  7 19  1  0  0  0  0
  7 20  1  0  0  0  0
  8  9  2  0  0  0  0
  8 10  1  0  0  0  0
 10 11  1  0  0  0  0
 10 21  1  0  0  0  0
 11 15  1  0  0  0  0
 11 12  1  0  0  0  0
 11 22  1  0  0  0  0
 12 13  1  0  0  0  0
 12 23  1  0  0  0  0
 12 24  1  0  0  0  0
 13 14  1  0  0  0  0
 13 25  1  0  0  0  0
 13 26  1  0  0  0  0
 14 15  1  0  0  0  0
 14 27  1  0  0  0  0
 14 28  1  0  0  0  0
 15 29  1  0  0  0  0
 15 30  1  0  0  0  0
M  END
> <s_m_source_file>
AV-unprocessed.smi

> <i_m_source_file_index>
529

> <i_lp_mmshare_version>
43012

> <i_f3d_flags>
0

> <s_epik_input>
W0hdL049YzFcc1tjSF1bY0hdbjFbQ0gyXUMoPU8pW05IXVtDSF0yW0NIMl1bQ0gyXVtDSDJdW0NIMl0y

> <s_epik_cmdline>
J2VwaWtfcHl0aG9uJywgJy1waCcsICc3LjAnLCAnLXRuJywgJzgnLCAnLW1hJywgJzIwMCcsICctbWV0YWxfYmluZGluZycsICctaW1hZScsICc8aW5maWxlLm1hZT4nLCAnLW9tYWUnLCAnPG91dGZpbGUubWFlPic=

> <r_epik_Ionization_Penalty>
2.18041

> <r_epik_Ionization_Penalty_Charging>
2.18041

> <r_epik_Ionization_Penalty_Neutral>
1.25369e-07

> <r_epik_State_Penalty>
2.33404

> <r_epik_Charging_Adjusted_Penalty>
4.51444

> <i_epik_Tot_Q>
0

> <i_epik_Tot_abs_Q>
0

> <r_epik_Metal_State_Penalty>
2.33404

> <b_epik_Metal_Only>
0

> <s_lp_Force_Field>
OPLS_2005

> <r_lp_Energy>
18.55

> <b_lp_Chiralities_Consistent>
1

> <s_lp_Variant>
AV-unprocessed.smi:529-3

> <Gold.Version>
5.8.1

> <Gold.Id.Protein>
6NUR|6NUR_protein|mol2

> <Gold.PLP.Fitness>
40.1681

> <Gold.PLP.PLP>
-35.0924

> <Gold.PLP.part.hbond>
-2.0000

> <Gold.PLP.part.metal>
0.0000

> <Gold.PLP.part.buried>
0.1480

> <Gold.PLP.part.nonpolar>
-33.3525

> <Gold.PLP.part.repulsive>
0.0823

> <Gold.PLP.ligand.clash>
0.0000

> <Gold.PLP.ligand.torsion>
0.2870

> <Gold.PLP.Chemscore.Hbond>
0.8800

> <Gold.PLP.Chemscore.CHOScore>
1.0000

> <Gold.PLP.Chemscore.Metal>
0.0000

> <Gold.Chemscore.Hbonds>
donor molecule, donor type, donor heavy atom, donor atom, acceptor molecule, acceptor atom, score
      L1  H     1    16       P1  7948  0.96
      L1  C     5    18       P1  8028  1.00

> <Gold.PLP.Chemscore.Internal.Correction>
0.0098

> <Gold.Rescore>
     Score         DG    S(hbond)    S(metal)    S(lipo)     H(rot)  DE(clash)    DE(int)     intcor
     14.09     -14.65       0.93        0.00      86.04       1.56       0.34       0.22       ----

> <Gold.Chemscore.Fitness>
14.0907

> <Gold.Chemscore.DG>
-14.6520

> <Gold.Chemscore.ZeroCoef>
-5.4800

> <Gold.Chemscore.Hbond>
0.9304

> <Gold.Chemscore.Metal>
0.0000

> <Gold.Chemscore.Lipo>
86.0418

> <Gold.Chemscore.Internal_Hbond>
0.0000

> <Gold.Chemscore.DEClash>
0.3418

> <Gold.Chemscore.DEInternal>
0.2195

> <Gold.Chemscore.Rot>
1.5635

> <Gold.Chemscore.Internal.Correction>
   9.000000E+99

> <Gold.Chemscore.Hbonds>
donor molecule, donor type, donor heavy atom, donor atom, acceptor molecule, acceptor atom, score
      L1  H     1    16       P1  7948  0.91

> <Gold.Chemscore.Hbond.Weighted>
-3.1077

> <Gold.Chemscore.Metal.Weighted>
-0.0000

> <Gold.Chemscore.Lipo.Weighted>
-10.0669

> <Gold.Chemscore.Internal_Hbond.Weighted>
0.0000

> <Gold.Chemscore.DEClash.Weighted>
0.3418

> <Gold.Chemscore.DEInternal.Weighted>
0.2195

> <Gold.Chemscore.Rot.Weighted>
4.0025

> <Gold.Chemscore.Internal.Correction.Weighted>
   9.000000E+99

> <Gold.Protein.RotatedTorsions>
[ 6907 6896 6895 6894 ] final   68.45 input  -60.11 | X-H torsion
[ 7974 7965 7964 7962 ] final -173.09 input  175.53 | X-H torsion
[ 8008 7997 7996 7995 ] final -164.37 input   59.86 | X-H torsion
[ 10167 10162 10161 10158 ] final   18.08 input  -65.29 | X-H torsion
[ 10718 10713 10712 10709 ] final  -31.53 input   66.30 | X-H torsion
[ 10763 10752 10751 10750 ] final   91.72 input  -60.55 | X-H torsion
[ 11005 11000 10999 10996 ] final  -37.52 input  -57.11 | X-H torsion

> <Gold.Protein.ActiveResidues>
 VAL166  LYS551  ARG553  GLY616  TRP617  ASP618  TYR619  PRO620  LYS621  CYS622 
 ASP623  PHE694  ASN695  SER759  ASP760  ASP761  ALA762  ILE779  LEU786  VAL792 
 PHE793  MET794  SER795  GLU796  ALA797  LYS798  CYS799  TRP800  GLU811  SER814 

> <Gold.Protein.RotatedAtoms>
  152.4621  134.5160  159.9768 H   0  0  0  0  0  0  0  0  0  0  0  0  # atno 6907 bound_to 6896
  151.5207  133.3461  159.2908 H   0  0  0  0  0  0  0  0  0  0  0  0  # atno 6908 bound_to 6896
  150.8588  134.7964  159.7129 H   0  0  0  0  0  0  0  0  0  0  0  0  # atno 6909 bound_to 6896
  144.7140  140.1674  143.6370 H   0  0  0  0  0  0  0  0  0  0  0  0  # atno 7974 bound_to 7965
  155.8347  140.0939  157.1771 H   0  0  0  0  0  0  0  0  0  0  0  0  # atno 8008 bound_to 7997
  154.3980  140.1412  156.3717 H   0  0  0  0  0  0  0  0  0  0  0  0  # atno 8009 bound_to 7997
  155.8129  140.3449  155.5470 H   0  0  0  0  0  0  0  0  0  0  0  0  # atno 8010 bound_to 7997
  140.5679  143.9216  150.6690 H   0  0  0  0  0  0  0  0  0  0  0  0  # atno 10167 bound_to 10162
  156.3861  130.4364  149.7431 H   0  0  0  0  0  0  0  0  0  0  0  0  # atno 10718 bound_to 10713
  153.2113  135.4387  155.0383 H   0  0  0  0  0  0  0  0  0  0  0  0  # atno 10763 bound_to 10752
  154.8202  135.3334  154.7064 H   0  0  0  0  0  0  0  0  0  0  0  0  # atno 10764 bound_to 10752
  153.7502  135.6999  153.5003 H   0  0  0  0  0  0  0  0  0  0  0  0  # atno 10765 bound_to 10752
  140.9958  133.6981  156.1933 H   0  0  0  0  0  0  0  0  0  0  0  0  # atno 11005 bound_to 11000
  145.8975  139.2411  143.1513 LP  0  0  0  0  0  0  0  0  0  0  0  0  # atno 17320 bound_to 7965
  145.9843  140.8656  143.0098 LP  0  0  0  0  0  0  0  0  0  0  0  0  # atno 17321 bound_to 7965
  140.2684  143.3474  152.1260 LP  0  0  0  0  0  0  0  0  0  0  0  0  # atno 17342 bound_to 10162
  139.5102  144.6881  151.5834 LP  0  0  0  0  0  0  0  0  0  0  0  0  # atno 17343 bound_to 10162
  156.4502  130.7903  151.2924 LP  0  0  0  0  0  0  0  0  0  0  0  0  # atno 17370 bound_to 10713
  157.7496  131.0098  150.3280 LP  0  0  0  0  0  0  0  0  0  0  0  0  # atno 17371 bound_to 10713
  140.6967  134.4607  157.5587 LP  0  0  0  0  0  0  0  0  0  0  0  0  # atno 17394 bound_to 11000
  139.9014  134.8547  156.1880 LP  0  0  0  0  0  0  0  0  0  0  0  0  # atno 17395 bound_to 11000

$$$$
