AV-unprocessed.smi:1542|AV-procd|sdf|6204|dock6
  -GOLD-   22720 6373D 1   1.00000     0.00000
 Structure written by MMmdl.
 46 48  0  0  0  0  0  0  0  0  2 V2000
  146.0788  141.2716  153.8102 O   0  0  0  0  0  0  0  0  0  0  0  0
  147.3862  140.7857  153.5911 C   0  0  0  0  0  0  0  0  0  0  0  0
  148.4124  141.6579  154.3284 C   0  0  0  0  0  0  0  0  0  0  0  0
  149.6863  140.8877  154.7193 C   0  0  0  0  0  0  0  0  0  0  0  0
  150.3394  141.4192  155.9585 C   0  0  0  0  0  0  0  0  0  0  0  0
  150.0549  142.5972  156.5855 N   0  3  0  0  0  0  0  0  0  0  0  0
  150.9061  142.7736  157.6765 C   0  0  0  0  0  0  0  0  0  0  0  0
  150.9933  143.8044  158.6068 C   0  0  0  0  0  0  0  0  0  0  0  0
  151.9919  143.6819  159.5952 C   0  0  0  0  0  0  0  0  0  0  0  0
  152.8566  142.5689  159.6309 C   0  0  0  0  0  0  0  0  0  0  0  0
  152.7573  141.5294  158.6828 C   0  0  0  0  0  0  0  0  0  0  0  0
  151.7635  141.6557  157.7121 C   0  0  0  0  0  0  0  0  0  0  0  0
  151.3781  140.8479  156.6353 N   0  0  0  0  0  0  0  0  0  0  0  0
  152.0954  139.5851  156.3879 C   0  0  0  0  0  0  0  0  0  0  0  0
  151.6344  138.3762  157.2598 C   0  0  0  0  0  0  0  0  0  0  0  0
  152.4091  137.2704  156.8321 O   0  0  0  0  0  0  0  0  0  0  0  0
  151.9602  138.6366  158.7510 C   0  0  0  0  0  0  0  0  0  0  0  0
  151.5082  137.4983  159.6838 C   0  0  0  0  0  0  0  0  0  0  0  0
  150.0184  137.1796  159.5004 C   0  0  0  0  0  0  0  0  0  0  0  0
  149.7086  136.8424  158.0360 C   0  0  0  0  0  0  0  0  0  0  0  0
  150.1388  137.9852  157.0995 C   0  0  0  0  0  0  0  0  0  0  0  0
  145.5113  140.9229  153.1394 H   0  0  0  0  0  0  0  0  0  0  0  0
  147.4383  139.7584  153.9527 H   0  0  0  0  0  0  0  0  0  0  0  0
  147.5921  140.7624  152.5205 H   0  0  0  0  0  0  0  0  0  0  0  0
  148.6647  142.5212  153.7109 H   0  0  0  0  0  0  0  0  0  0  0  0
  147.9465  142.0517  155.2325 H   0  0  0  0  0  0  0  0  0  0  0  0
  149.4406  139.8366  154.8709 H   0  0  0  0  0  0  0  0  0  0  0  0
  150.4131  140.9259  153.9075 H   0  0  0  0  0  0  0  0  0  0  0  0
  150.3350  144.6602  158.5783 H   0  0  0  0  0  0  0  0  0  0  0  0
  152.0988  144.4589  160.3384 H   0  0  0  0  0  0  0  0  0  0  0  0
  153.6132  142.5115  160.4002 H   0  0  0  0  0  0  0  0  0  0  0  0
  153.4299  140.6851  158.7159 H   0  0  0  0  0  0  0  0  0  0  0  0
  152.0214  139.3633  155.3224 H   0  0  0  0  0  0  0  0  0  0  0  0
  153.1565  139.7847  156.5385 H   0  0  0  0  0  0  0  0  0  0  0  0
  153.1835  137.5980  156.4005 H   0  0  0  0  0  0  0  0  0  0  0  0
  153.0304  138.8060  158.8798 H   0  0  0  0  0  0  0  0  0  0  0  0
  151.4697  139.5579  159.0671 H   0  0  0  0  0  0  0  0  0  0  0  0
  152.1001  136.6031  159.4902 H   0  0  0  0  0  0  0  0  0  0  0  0
  151.7021  137.7731  160.7208 H   0  0  0  0  0  0  0  0  0  0  0  0
  149.7341  136.3459  160.1432 H   0  0  0  0  0  0  0  0  0  0  0  0
  149.4185  138.0342  159.8159 H   0  0  0  0  0  0  0  0  0  0  0  0
  150.2145  135.9180  157.7558 H   0  0  0  0  0  0  0  0  0  0  0  0
  148.6412  136.6529  157.9191 H   0  0  0  0  0  0  0  0  0  0  0  0
  149.5064  138.8453  157.3214 H   0  0  0  0  0  0  0  0  0  0  0  0
  149.9259  137.7048  156.0674 H   0  0  0  0  0  0  0  0  0  0  0  0
  149.3301  143.2352  156.2826 H   0  0  0  0  0  0  0  0  0  0  0  0
  1  2  1  0  0  0  0
  1 22  1  0  0  0  0
  2  3  1  0  0  0  0
  2 23  1  0  0  0  0
  2 24  1  0  0  0  0
  3  4  1  0  0  0  0
  3 25  1  0  0  0  0
  3 26  1  0  0  0  0
  4  5  1  0  0  0  0
  4 27  1  0  0  0  0
  4 28  1  0  0  0  0
  5 13  1  0  0  0  0
  5  6  2  0  0  0  0
  6  7  1  0  0  0  0
  6 46  1  0  0  0  0
  7 12  2  0  0  0  0
  7  8  1  0  0  0  0
  8  9  2  0  0  0  0
  8 29  1  0  0  0  0
  9 10  1  0  0  0  0
  9 30  1  0  0  0  0
 10 11  2  0  0  0  0
 10 31  1  0  0  0  0
 11 12  1  0  0  0  0
 11 32  1  0  0  0  0
 12 13  1  0  0  0  0
 13 14  1  0  0  0  0
 14 15  1  0  0  0  0
 14 33  1  0  0  0  0
 14 34  1  0  0  0  0
 15 21  1  0  0  0  0
 15 16  1  0  0  0  0
 15 17  1  0  0  0  0
 16 35  1  0  0  0  0
 17 18  1  0  0  0  0
 17 36  1  0  0  0  0
 17 37  1  0  0  0  0
 18 19  1  0  0  0  0
 18 38  1  0  0  0  0
 18 39  1  0  0  0  0
 19 20  1  0  0  0  0
 19 40  1  0  0  0  0
 19 41  1  0  0  0  0
 20 21  1  0  0  0  0
 20 42  1  0  0  0  0
 20 43  1  0  0  0  0
 21 44  1  0  0  0  0
 21 45  1  0  0  0  0
M  CHG  1   6   1
M  END
> <s_m_source_file>
AV-unprocessed.smi

> <i_m_source_file_index>
1542

> <i_lp_mmshare_version>
43012

> <i_f3d_flags>
0

> <s_epik_input>
W09IXVtDSDJdW0NIMl1bQ0gyXWMobjEpbihjKGMxMilbY0hdW2NIXVtjSF1bY0hdMilbQ0gyXUMzKFtPSF0pW0NIMl1bQ0gyXVtDSDJdW0NIMl1bQ0gyXTM=

> <s_epik_cmdline>
J2VwaWtfcHl0aG9uJywgJy1waCcsICc3LjAnLCAnLXRuJywgJzgnLCAnLW1hJywgJzIwMCcsICctbWV0YWxfYmluZGluZycsICctaW1hZScsICc8aW5maWxlLm1hZT4nLCAnLW9tYWUnLCAnPG91dGZpbGUubWFlPic=

> <r_epik_Ionization_Penalty>
0.555973

> <r_epik_Ionization_Penalty_Charging>
0.555973

> <r_epik_Ionization_Penalty_Neutral>
2.09159e-07

> <r_epik_State_Penalty>
0.566728

> <r_epik_Charging_Adjusted_Penalty>
1.1227

> <i_epik_Tot_Q>
1

> <i_epik_Tot_abs_Q>
1

> <r_epik_Metal_State_Penalty>
4.37256

> <b_epik_Metal_Only>
0

> <s_lp_Force_Field>
OPLS_2005

> <r_lp_Energy>
23.0728

> <b_lp_Chiralities_Consistent>
1

> <s_lp_Variant>
AV-unprocessed.smi:1542-2

> <Gold.Version>
5.8.1

> <Gold.Id.Protein>
6NUR|6NUR_protein|mol2

> <Gold.PLP.Fitness>
46.7752

> <Gold.PLP.PLP>
-38.9986

> <Gold.PLP.part.hbond>
-2.0000

> <Gold.PLP.part.metal>
0.0000

> <Gold.PLP.part.buried>
-3.3391

> <Gold.PLP.part.nonpolar>
-33.8236

> <Gold.PLP.part.repulsive>
0.0581

> <Gold.PLP.ligand.clash>
0.0000

> <Gold.PLP.ligand.torsion>
0.7659

> <Gold.PLP.Chemscore.Hbond>
3.0000

> <Gold.PLP.Chemscore.CHOScore>
0.0000

> <Gold.PLP.Chemscore.Metal>
0.0000

> <Gold.Chemscore.Hbonds>
donor molecule, donor type, donor heavy atom, donor atom, acceptor molecule, acceptor atom, score
      L1  H     1    22       P1 10175  1.00
      L1  H     6    46       P1  8028  1.98

> <Gold.PLP.Chemscore.Internal.Correction>
0.3084

> <Gold.Rescore>
     Score         DG    S(hbond)    S(metal)    S(lipo)     H(rot)  DE(clash)    DE(int)     intcor
     16.35     -17.44       1.87        0.00     110.37       2.82       0.17       0.93       ----

> <Gold.Chemscore.Fitness>
16.3452

> <Gold.Chemscore.DG>
-17.4427

> <Gold.Chemscore.ZeroCoef>
-5.4800

> <Gold.Chemscore.Hbond>
1.8748

> <Gold.Chemscore.Metal>
0.0000

> <Gold.Chemscore.Lipo>
110.3726

> <Gold.Chemscore.Internal_Hbond>
0.0000

> <Gold.Chemscore.DEClash>
0.1688

> <Gold.Chemscore.DEInternal>
0.9286

> <Gold.Chemscore.Rot>
2.8175

> <Gold.Chemscore.Internal.Correction>
   9.000000E+99

> <Gold.Chemscore.Hbonds>
donor molecule, donor type, donor heavy atom, donor atom, acceptor molecule, acceptor atom, score
      L1  H     1    22       P1 10175  0.46
      L1  H     6    46       P1  8028  0.94

> <Gold.Chemscore.Hbond.Weighted>
-6.2619

> <Gold.Chemscore.Metal.Weighted>
-0.0000

> <Gold.Chemscore.Lipo.Weighted>
-12.9136

> <Gold.Chemscore.Internal_Hbond.Weighted>
0.0000

> <Gold.Chemscore.DEClash.Weighted>
0.1688

> <Gold.Chemscore.DEInternal.Weighted>
0.9286

> <Gold.Chemscore.Rot.Weighted>
7.2128

> <Gold.Chemscore.Internal.Correction.Weighted>
   9.000000E+99

> <Gold.Protein.RotatedTorsions>
[ 6907 6896 6895 6894 ] final   30.57 input  -60.11 | X-H torsion
[ 7974 7965 7964 7962 ] final  128.61 input  175.53 | X-H torsion
[ 8008 7997 7996 7995 ] final  -20.54 input   59.86 | X-H torsion
[ 10167 10162 10161 10158 ] final   90.73 input  -65.29 | X-H torsion
[ 10718 10713 10712 10709 ] final -170.98 input   66.30 | X-H torsion
[ 10763 10752 10751 10750 ] final -136.89 input  -60.55 | X-H torsion
[ 11005 11000 10999 10996 ] final    1.23 input  -57.11 | X-H torsion

> <Gold.Protein.ActiveResidues>
 VAL166  LYS551  ARG553  GLY616  TRP617  ASP618  TYR619  PRO620  LYS621  CYS622 
 ASP623  PHE694  ASN695  SER759  ASP760  ASP761  ALA762  ILE779  LEU786  VAL792 
 PHE793  MET794  SER795  GLU796  ALA797  LYS798  CYS799  TRP800  GLU811  SER814 

> <Gold.Protein.RotatedAtoms>
  152.0479  134.9671  160.0574 H   0  0  0  0  0  0  0  0  0  0  0  0  # atno 6907 bound_to 6896
  152.1084  133.4282  159.4628 H   0  0  0  0  0  0  0  0  0  0  0  0  # atno 6908 bound_to 6896
  150.6842  134.2596  159.4587 H   0  0  0  0  0  0  0  0  0  0  0  0  # atno 6909 bound_to 6896
  145.0377  139.3991  143.5118 H   0  0  0  0  0  0  0  0  0  0  0  0  # atno 7974 bound_to 7965
  154.4763  140.2059  155.9870 H   0  0  0  0  0  0  0  0  0  0  0  0  # atno 8008 bound_to 7997
  156.1094  140.3231  155.8022 H   0  0  0  0  0  0  0  0  0  0  0  0  # atno 8009 bound_to 7997
  155.4661  140.0527  157.2976 H   0  0  0  0  0  0  0  0  0  0  0  0  # atno 8010 bound_to 7997
  139.8444  144.6625  150.9244 H   0  0  0  0  0  0  0  0  0  0  0  0  # atno 10167 bound_to 10162
  156.7342  130.9318  151.3106 H   0  0  0  0  0  0  0  0  0  0  0  0  # atno 10718 bound_to 10713
  154.8674  135.3659  154.5133 H   0  0  0  0  0  0  0  0  0  0  0  0  # atno 10763 bound_to 10752
  153.5767  135.7019  153.5485 H   0  0  0  0  0  0  0  0  0  0  0  0  # atno 10764 bound_to 10752
  153.3493  135.4076  155.1596 H   0  0  0  0  0  0  0  0  0  0  0  0  # atno 10765 bound_to 10752
  140.6178  133.9689  155.8209 H   0  0  0  0  0  0  0  0  0  0  0  0  # atno 11005 bound_to 11000
  146.3506  139.9960  142.8681 LP  0  0  0  0  0  0  0  0  0  0  0  0  # atno 17320 bound_to 7965
  145.1689  140.9710  143.4333 LP  0  0  0  0  0  0  0  0  0  0  0  0  # atno 17321 bound_to 7965
  140.7794  143.3883  151.1355 LP  0  0  0  0  0  0  0  0  0  0  0  0  # atno 17342 bound_to 10162
  139.7526  143.8755  152.3081 LP  0  0  0  0  0  0  0  0  0  0  0  0  # atno 17343 bound_to 10162
  157.6846  130.9173  150.0354 LP  0  0  0  0  0  0  0  0  0  0  0  0  # atno 17370 bound_to 10713
  156.1508  130.3642  149.9440 LP  0  0  0  0  0  0  0  0  0  0  0  0  # atno 17371 bound_to 10713
  141.0763  134.0129  157.3452 LP  0  0  0  0  0  0  0  0  0  0  0  0  # atno 17394 bound_to 11000
  139.9166  135.0197  156.7903 LP  0  0  0  0  0  0  0  0  0  0  0  0  # atno 17395 bound_to 11000

$$$$
