AV-unprocessed.smi:229|AV-procd|sdf|1752|dock10
  -GOLD-   2262020273D 1   1.00000     0.00000
 Structure written by MMmdl.
 58 62  0  0  0  0  0  0  0  0  1 V2000
  151.5914  145.6275  160.1878 C   0  0  0  0  0  0  0  0  0  0  0  0
  151.1314  144.8773  158.9288 C   0  0  0  0  0  0  0  0  0  0  0  0
  151.4033  143.3628  158.9529 C   0  0  1  0  0  0  0  0  0  0  0  0
  151.0637  142.6555  157.6276 C   0  0  0  0  0  0  0  0  0  0  0  0
  151.4377  141.2495  157.7142 N   0  0  0  0  0  0  0  0  0  0  0  0
  150.9460  140.3889  156.7895 C   0  0  0  0  0  0  0  0  0  0  0  0
  150.9273  140.7354  155.4748 N   0  0  0  0  0  0  0  0  0  0  0  0
  150.4560  139.8826  154.5599 C   0  0  0  0  0  0  0  0  0  0  0  0
  149.9615  138.6558  154.7385 N   0  0  0  0  0  0  0  0  0  0  0  0
  149.9670  138.3077  156.0568 C   0  0  0  0  0  0  0  0  0  0  0  0
  150.4367  139.1066  157.1370 C   0  0  0  0  0  0  0  0  0  0  0  0
  150.2731  138.4245  158.3373 N   0  0  0  0  0  0  0  0  0  0  0  0
  149.7450  137.2841  157.9860 C   0  0  0  0  0  0  0  0  0  0  0  0
  149.5311  137.1286  156.6355 N   0  0  0  0  0  0  0  0  0  0  0  0
  148.9611  135.9644  155.9807 C   0  0  0  0  0  0  0  0  0  0  0  0
  150.0203  135.1443  155.2193 C   0  0  2  0  0  0  0  0  0  0  0  0
  150.6799  135.9854  154.2922 O   0  0  0  0  0  0  0  0  0  0  0  0
  149.4024  133.9532  154.4648 C   0  0  1  0  0  0  0  0  0  0  0  0
  150.4156  133.0606  153.7469 C   0  0  0  0  0  0  0  0  0  0  0  0
  149.7039  131.7207  153.6498 C   0  0  0  0  0  0  0  0  0  0  0  0
  148.5728  131.8246  154.6765 C   0  0  0  0  0  0  0  0  0  0  0  0
  148.8111  133.0387  155.3754 O   0  0  0  0  0  0  0  0  0  0  0  0
  152.8447  141.0607  158.0445 C   0  0  0  0  0  0  0  0  0  0  0  0
  153.1927  141.7784  159.3644 C   0  0  1  0  0  0  0  0  0  0  0  0
  152.6698  141.0724  160.6118 C   0  0  0  0  0  0  0  0  0  0  0  0
  153.6201  141.5783  161.6859 C   0  0  0  0  0  0  0  0  0  0  0  0
  154.8841  141.5935  161.0404 O   0  0  0  0  0  0  0  0  0  0  0  0
  154.7052  141.7955  159.6401 C   0  0  0  0  0  0  0  0  0  0  0  0
  152.7745  143.1480  159.2943 O   0  0  0  0  0  0  0  0  0  0  0  0
  151.3099  146.6791  160.1316 H   0  0  0  0  0  0  0  0  0  0  0  0
  152.6735  145.5870  160.3091 H   0  0  0  0  0  0  0  0  0  0  0  0
  151.1352  145.2124  161.0868 H   0  0  0  0  0  0  0  0  0  0  0  0
  150.0609  145.0388  158.7983 H   0  0  0  0  0  0  0  0  0  0  0  0
  151.6102  145.3176  158.0538 H   0  0  0  0  0  0  0  0  0  0  0  0
  150.7733  142.9415  159.7356 H   0  0  0  0  0  0  0  0  0  0  0  0
  149.9968  142.7520  157.4212 H   0  0  0  0  0  0  0  0  0  0  0  0
  151.6012  143.1110  156.7952 H   0  0  0  0  0  0  0  0  0  0  0  0
  150.4797  140.2329  153.5385 H   0  0  0  0  0  0  0  0  0  0  0  0
  149.4969  136.5186  158.7067 H   0  0  0  0  0  0  0  0  0  0  0  0
  148.4846  135.3498  156.7451 H   0  0  0  0  0  0  0  0  0  0  0  0
  148.1686  136.2893  155.3052 H   0  0  0  0  0  0  0  0  0  0  0  0
  150.7652  134.7740  155.9250 H   0  0  0  0  0  0  0  0  0  0  0  0
  150.0479  136.2834  153.6559 H   0  0  0  0  0  0  0  0  0  0  0  0
  148.6408  134.2958  153.7612 H   0  0  0  0  0  0  0  0  0  0  0  0
  150.7102  133.4553  152.7742 H   0  0  0  0  0  0  0  0  0  0  0  0
  151.3167  132.9513  154.3520 H   0  0  0  0  0  0  0  0  0  0  0  0
  149.2972  131.5597  152.6510 H   0  0  0  0  0  0  0  0  0  0  0  0
  150.3835  130.8979  153.8733 H   0  0  0  0  0  0  0  0  0  0  0  0
  147.6053  131.8814  154.1758 H   0  0  0  0  0  0  0  0  0  0  0  0
  148.5514  130.9777  155.3626 H   0  0  0  0  0  0  0  0  0  0  0  0
  153.1079  140.0055  158.1126 H   0  0  0  0  0  0  0  0  0  0  0  0
  153.4431  141.4758  157.2322 H   0  0  0  0  0  0  0  0  0  0  0  0
  151.6238  141.2631  160.8449 H   0  0  0  0  0  0  0  0  0  0  0  0
  152.7872  139.9927  160.5083 H   0  0  0  0  0  0  0  0  0  0  0  0
  153.3552  142.5924  161.9878 H   0  0  0  0  0  0  0  0  0  0  0  0
  153.6307  140.9462  162.5739 H   0  0  0  0  0  0  0  0  0  0  0  0
  155.2112  140.9799  159.1220 H   0  0  0  0  0  0  0  0  0  0  0  0
  155.1723  142.7266  159.3172 H   0  0  0  0  0  0  0  0  0  0  0  0
  1  2  1  0  0  0  0
  1 30  1  0  0  0  0
  1 31  1  0  0  0  0
  1 32  1  0  0  0  0
  2  3  1  0  0  0  0
  2 33  1  0  0  0  0
  2 34  1  0  0  0  0
  3 29  1  0  0  0  0
  3  4  1  0  0  0  0
  3 35  1  0  0  0  0
  4  5  1  0  0  0  0
  4 36  1  0  0  0  0
  4 37  1  0  0  0  0
  5  6  1  0  0  0  0
  5 23  1  0  0  0  0
  6 11  1  0  0  0  0
  6  7  2  0  0  0  0
  7  8  1  0  0  0  0
  8  9  2  0  0  0  0
  8 38  1  0  0  0  0
  9 10  1  0  0  0  0
 10 14  1  0  0  0  0
 10 11  2  0  0  0  0
 11 12  1  0  0  0  0
 12 13  2  0  0  0  0
 13 14  1  0  0  0  0
 13 39  1  0  0  0  0
 14 15  1  0  0  0  0
 15 16  1  0  0  0  0
 15 40  1  0  0  0  0
 15 41  1  0  0  0  0
 16 17  1  0  0  0  0
 16 18  1  0  0  0  0
 16 42  1  0  0  0  0
 17 43  1  0  0  0  0
 18 22  1  0  0  0  0
 18 19  1  0  0  0  0
 18 44  1  0  0  0  0
 19 20  1  0  0  0  0
 19 45  1  0  0  0  0
 19 46  1  0  0  0  0
 20 21  1  0  0  0  0
 20 47  1  0  0  0  0
 20 48  1  0  0  0  0
 21 22  1  0  0  0  0
 21 49  1  0  0  0  0
 21 50  1  0  0  0  0
 23 24  1  0  0  0  0
 23 51  1  0  0  0  0
 23 52  1  0  0  0  0
 24 28  1  0  0  0  0
 24 25  1  0  0  0  0
 24 29  1  0  0  0  0
 25 26  1  0  0  0  0
 25 53  1  0  0  0  0
 25 54  1  0  0  0  0
 26 27  1  0  0  0  0
 26 55  1  0  0  0  0
 26 56  1  0  0  0  0
 27 28  1  0  0  0  0
 28 57  1  0  0  0  0
 28 58  1  0  0  0  0
M  END
> <s_m_source_file>
AV-unprocessed.smi

> <i_m_source_file_index>
229

> <i_lp_mmshare_version>
43012

> <i_f3d_flags>
0

> <s_epik_input>
W0NIMl0xT1tDSDJdW0NIMl1bQ0BdMTJbQ0gyXU4oW0NIMl1bQ0BIXShPMilbQ0gyXVtDSDNdKWMobltjSF1uMyljKGMzNCluW2NIXW40W0NIMl1bQ0BIXShbT0hdKVtDQEBIXTVbQ0gyXVtDSDJdW0NIMl1PNQ==

> <s_epik_cmdline>
J2VwaWtfcHl0aG9uJywgJy1waCcsICc3LjAnLCAnLXRuJywgJzgnLCAnLW1hJywgJzIwMCcsICctbWV0YWxfYmluZGluZycsICctaW1hZScsICc8aW5maWxlLm1hZT4nLCAnLW9tYWUnLCAnPG91dGZpbGUubWFlPic=

> <r_lp_tautomer_probability>
1

> <r_epik_Ionization_Penalty>
0.00318402

> <r_epik_Ionization_Penalty_Charging>
0

> <r_epik_Ionization_Penalty_Neutral>
0.00318402

> <r_epik_State_Penalty>
0.00215642

> <r_epik_Charging_Adjusted_Penalty>
0.00215642

> <i_epik_Tot_Q>
0

> <i_epik_Tot_abs_Q>
0

> <r_epik_Metal_State_Penalty>
-0

> <b_epik_Metal_Only>
0

> <s_lp_Force_Field>
OPLS_2005

> <r_lp_Energy>
54.3536

> <b_lp_Chiralities_Consistent>
1

> <s_lp_Variant>
AV-unprocessed.smi:229-6

> <Gold.Version>
5.8.1

> <Gold.Id.Protein>
6NUR|6NUR_protein|mol2

> <Gold.PLP.Fitness>
43.7622

> <Gold.PLP.PLP>
-38.9798

> <Gold.PLP.part.hbond>
-3.6038

> <Gold.PLP.part.metal>
0.0000

> <Gold.PLP.part.buried>
-3.4147

> <Gold.PLP.part.nonpolar>
-31.2355

> <Gold.PLP.part.repulsive>
0.2076

> <Gold.PLP.ligand.clash>
0.0000

> <Gold.PLP.ligand.torsion>
0.7743

> <Gold.PLP.Chemscore.Hbond>
0.9920

> <Gold.PLP.Chemscore.CHOScore>
0.9967

> <Gold.PLP.Chemscore.Metal>
0.0000

> <Gold.Chemscore.Hbonds>
donor molecule, donor type, donor heavy atom, donor atom, acceptor molecule, acceptor atom, score
      L1  H    17    43       P1  7948  0.69
      L1  C     8    38       P1  7957  1.00

> <Gold.PLP.Chemscore.Internal.Correction>
0.3649

> <Gold.Rescore>
     Score         DG    S(hbond)    S(metal)    S(lipo)     H(rot)  DE(clash)    DE(int)     intcor
     11.28     -14.37       0.69        0.00     110.02       2.46       1.25       1.85       ----

> <Gold.Chemscore.Fitness>
11.2754

> <Gold.Chemscore.DG>
-14.3740

> <Gold.Chemscore.ZeroCoef>
-5.4800

> <Gold.Chemscore.Hbond>
0.6936

> <Gold.Chemscore.Metal>
0.0000

> <Gold.Chemscore.Lipo>
110.0239

> <Gold.Chemscore.Internal_Hbond>
0.0000

> <Gold.Chemscore.DEClash>
1.2501

> <Gold.Chemscore.DEInternal>
1.8485

> <Gold.Chemscore.Rot>
2.4591

> <Gold.Chemscore.Internal.Correction>
   9.000000E+99

> <Gold.Chemscore.Hbonds>
donor molecule, donor type, donor heavy atom, donor atom, acceptor molecule, acceptor atom, score
      L1  H    17    43       P1  7948  0.08

> <Gold.Chemscore.Hbond.Weighted>
-2.3165

> <Gold.Chemscore.Metal.Weighted>
-0.0000

> <Gold.Chemscore.Lipo.Weighted>
-12.8728

> <Gold.Chemscore.Internal_Hbond.Weighted>
0.0000

> <Gold.Chemscore.DEClash.Weighted>
1.2501

> <Gold.Chemscore.DEInternal.Weighted>
1.8485

> <Gold.Chemscore.Rot.Weighted>
6.2953

> <Gold.Chemscore.Internal.Correction.Weighted>
   9.000000E+99

> <Gold.Protein.RotatedTorsions>
[ 6907 6896 6895 6894 ] final   90.60 input  -60.11 | X-H torsion
[ 7974 7965 7964 7962 ] final   31.58 input  175.53 | X-H torsion
[ 8008 7997 7996 7995 ] final -168.50 input   59.86 | X-H torsion
[ 10167 10162 10161 10158 ] final  -79.07 input  -65.29 | X-H torsion
[ 10718 10713 10712 10709 ] final  133.20 input   66.30 | X-H torsion
[ 10763 10752 10751 10750 ] final  121.54 input  -60.55 | X-H torsion
[ 11005 11000 10999 10996 ] final  105.43 input  -57.11 | X-H torsion

> <Gold.Protein.ActiveResidues>
 VAL166  LYS551  ARG553  GLY616  TRP617  ASP618  TYR619  PRO620  LYS621  CYS622 
 ASP623  PHE694  ASN695  SER759  ASP760  ASP761  ALA762  ILE779  LEU786  VAL792 
 PHE793  MET794  SER795  GLU796  ALA797  LYS798  CYS799  TRP800  GLU811  SER814 

> <Gold.Protein.RotatedAtoms>
  152.5445  134.1786  159.8626 H   0  0  0  0  0  0  0  0  0  0  0  0  # atno 6907 bound_to 6896
  151.1791  133.4729  159.2601 H   0  0  0  0  0  0  0  0  0  0  0  0  # atno 6908 bound_to 6896
  151.1197  135.0084  159.8588 H   0  0  0  0  0  0  0  0  0  0  0  0  # atno 6909 bound_to 6896
  146.1541  139.6638  142.9078 H   0  0  0  0  0  0  0  0  0  0  0  0  # atno 7974 bound_to 7965
  155.8923  140.1027  157.1410 H   0  0  0  0  0  0  0  0  0  0  0  0  # atno 8008 bound_to 7997
  154.4016  140.1308  156.4395 H   0  0  0  0  0  0  0  0  0  0  0  0  # atno 8009 bound_to 7997
  155.7519  140.3465  155.5157 H   0  0  0  0  0  0  0  0  0  0  0  0  # atno 8010 bound_to 7997
  140.4626  143.2449  151.8326 H   0  0  0  0  0  0  0  0  0  0  0  0  # atno 10167 bound_to 10162
  157.4796  131.1085  150.9698 H   0  0  0  0  0  0  0  0  0  0  0  0  # atno 10718 bound_to 10713
  153.6157  135.3422  155.2994 H   0  0  0  0  0  0  0  0  0  0  0  0  # atno 10763 bound_to 10752
  154.8610  135.4261  154.2262 H   0  0  0  0  0  0  0  0  0  0  0  0  # atno 10764 bound_to 10752
  153.3123  135.7032  153.7177 H   0  0  0  0  0  0  0  0  0  0  0  0  # atno 10765 bound_to 10752
  139.8802  134.9335  156.5512 H   0  0  0  0  0  0  0  0  0  0  0  0  # atno 11005 bound_to 11000
  145.4751  141.0437  143.2677 LP  0  0  0  0  0  0  0  0  0  0  0  0  # atno 17320 bound_to 7965
  144.7941  139.6269  143.7100 LP  0  0  0  0  0  0  0  0  0  0  0  0  # atno 17321 bound_to 7965
  139.4808  144.4989  151.9086 LP  0  0  0  0  0  0  0  0  0  0  0  0  # atno 17342 bound_to 10162
  140.4075  144.2413  150.5890 LP  0  0  0  0  0  0  0  0  0  0  0  0  # atno 17343 bound_to 10162
  157.0436  130.5759  149.5359 LP  0  0  0  0  0  0  0  0  0  0  0  0  # atno 17370 bound_to 10713
  156.0115  130.5206  150.8002 LP  0  0  0  0  0  0  0  0  0  0  0  0  # atno 17371 bound_to 10713
  140.8238  133.8332  155.8920 LP  0  0  0  0  0  0  0  0  0  0  0  0  # atno 17394 bound_to 11000
  140.9393  134.1921  157.4809 LP  0  0  0  0  0  0  0  0  0  0  0  0  # atno 17395 bound_to 11000

$$$$
