AV-unprocessed.smi:1702|AV-procd|sdf|6852|dock1
  -GOLD-   22720 8 33D 1   1.00000     0.00000
 Structure written by MMmdl.
 45 47  0  0  0  0  0  0  0  0  3 V2000
  144.2298  137.3162  154.0162 C   0  0  0  0  0  0  0  0  0  0  0  0
  145.3170  136.7306  153.0975 C   0  0  2  0  0  0  0  0  0  0  0  0
  146.4528  136.0456  153.8789 C   0  0  0  0  0  0  0  0  0  0  0  0
  147.3829  137.0617  154.5662 C   0  0  0  0  0  0  0  0  0  0  0  0
  147.9359  138.0336  153.5857 N   0  3  2  0  0  0  0  0  0  0  0  0
  148.9385  138.9587  154.1755 C   0  0  0  0  0  0  0  0  0  0  0  0
  150.0550  138.2159  154.9362 C   0  0  1  0  0  0  0  0  0  0  0  0
  150.4631  137.0973  154.1717 O   0  0  0  0  0  0  0  0  0  0  0  0
  151.2741  139.1238  155.1937 C   0  0  0  0  0  0  0  0  0  0  0  0
  150.9386  140.3266  155.9686 N   0  0  0  0  0  0  0  0  0  0  0  0
  150.0549  141.3260  155.6968 C   0  0  0  0  0  0  0  0  0  0  0  0
  150.1091  142.2146  156.7275 N   0  3  0  0  0  0  0  0  0  0  0  0
  151.0402  141.7773  157.6722 C   0  0  0  0  0  0  0  0  0  0  0  0
  151.4450  142.3356  158.8805 C   0  0  0  0  0  0  0  0  0  0  0  0
  152.4245  141.6298  159.6098 C   0  0  0  0  0  0  0  0  0  0  0  0
  152.8556  142.1296  160.7920 F   0  0  0  0  0  0  0  0  0  0  0  0
  152.9626  140.4160  159.1317 C   0  0  0  0  0  0  0  0  0  0  0  0
  153.9011  139.7699  159.8631 F   0  0  0  0  0  0  0  0  0  0  0  0
  152.5438  139.8593  157.9049 C   0  0  0  0  0  0  0  0  0  0  0  0
  151.5764  140.5645  157.1908 C   0  0  0  0  0  0  0  0  0  0  0  0
  146.8570  138.7568  152.8643 C   0  0  0  0  0  0  0  0  0  0  0  0
  145.9153  137.7775  152.1407 C   0  0  0  0  0  0  0  0  0  0  0  0
  144.6182  138.0959  154.6709 H   0  0  0  0  0  0  0  0  0  0  0  0
  143.7953  136.5418  154.6491 H   0  0  0  0  0  0  0  0  0  0  0  0
  143.4189  137.7518  153.4318 H   0  0  0  0  0  0  0  0  0  0  0  0
  144.8288  135.9684  152.4887 H   0  0  0  0  0  0  0  0  0  0  0  0
  146.0413  135.3546  154.6157 H   0  0  0  0  0  0  0  0  0  0  0  0
  147.0424  135.4369  153.1917 H   0  0  0  0  0  0  0  0  0  0  0  0
  146.8471  137.5966  155.3512 H   0  0  0  0  0  0  0  0  0  0  0  0
  148.1899  136.5191  155.0573 H   0  0  0  0  0  0  0  0  0  0  0  0
  149.3990  139.5583  153.3883 H   0  0  0  0  0  0  0  0  0  0  0  0
  148.4305  139.6657  154.8331 H   0  0  0  0  0  0  0  0  0  0  0  0
  149.6836  137.8521  155.8935 H   0  0  0  0  0  0  0  0  0  0  0  0
  149.9492  137.0677  153.3786 H   0  0  0  0  0  0  0  0  0  0  0  0
  152.0414  138.5816  155.7483 H   0  0  0  0  0  0  0  0  0  0  0  0
  151.7354  139.4353  154.2556 H   0  0  0  0  0  0  0  0  0  0  0  0
  149.4260  141.4028  154.8212 H   0  0  0  0  0  0  0  0  0  0  0  0
  151.0358  143.2641  159.2505 H   0  0  0  0  0  0  0  0  0  0  0  0
  152.9622  138.9297  157.5496 H   0  0  0  0  0  0  0  0  0  0  0  0
  146.3000  139.3798  153.5653 H   0  0  0  0  0  0  0  0  0  0  0  0
  147.2967  139.4300  152.1275 H   0  0  0  0  0  0  0  0  0  0  0  0
  146.4744  137.2654  151.3561 H   0  0  0  0  0  0  0  0  0  0  0  0
  145.1202  138.3259  151.6344 H   0  0  0  0  0  0  0  0  0  0  0  0
  148.4276  137.4974  152.8846 H   0  0  0  0  0  0  0  0  0  0  0  0
  149.5502  143.0572  156.7792 H   0  0  0  0  0  0  0  0  0  0  0  0
  1  2  1  0  0  0  0
  1 23  1  0  0  0  0
  1 24  1  0  0  0  0
  1 25  1  0  0  0  0
  2 22  1  0  0  0  0
  2  3  1  0  0  0  0
  2 26  1  0  0  0  0
  3  4  1  0  0  0  0
  3 27  1  0  0  0  0
  3 28  1  0  0  0  0
  4  5  1  0  0  0  0
  4 29  1  0  0  0  0
  4 30  1  0  0  0  0
  5  6  1  0  0  0  0
  5 21  1  0  0  0  0
  5 44  1  0  0  0  0
  6  7  1  0  0  0  0
  6 31  1  0  0  0  0
  6 32  1  0  0  0  0
  7  8  1  0  0  0  0
  7  9  1  0  0  0  0
  7 33  1  0  0  0  0
  8 34  1  0  0  0  0
  9 10  1  0  0  0  0
  9 35  1  0  0  0  0
  9 36  1  0  0  0  0
 10 20  1  0  0  0  0
 10 11  1  0  0  0  0
 11 12  2  0  0  0  0
 11 37  1  0  0  0  0
 12 13  1  0  0  0  0
 12 45  1  0  0  0  0
 13 20  2  0  0  0  0
 13 14  1  0  0  0  0
 14 15  2  0  0  0  0
 14 38  1  0  0  0  0
 15 16  1  0  0  0  0
 15 17  1  0  0  0  0
 17 18  1  0  0  0  0
 17 19  2  0  0  0  0
 19 20  1  0  0  0  0
 19 39  1  0  0  0  0
 21 22  1  0  0  0  0
 21 40  1  0  0  0  0
 21 41  1  0  0  0  0
 22 42  1  0  0  0  0
 22 43  1  0  0  0  0
M  CHG  1   5   1
M  CHG  1  12   1
M  END
> <s_m_source_file>
AV-unprocessed.smi

> <i_m_source_file_index>
1702

> <i_lp_mmshare_version>
43012

> <i_f3d_flags>
0

> <s_epik_input>
W0NIM11bQ0hdMVtDSDJdW0NIMl1OKFtDSDJdW0NIMl0xKVtDSDJdW0NASF0oW09IXSlbQ0gyXW4oW2NIXW4yKWMoYzIzKVtjSF1jKEYpYyhGKVtjSF0z

> <s_epik_cmdline>
J2VwaWtfcHl0aG9uJywgJy1waCcsICc3LjAnLCAnLXRuJywgJzgnLCAnLW1hJywgJzIwMCcsICctbWV0YWxfYmluZGluZycsICctaW1hZScsICc8aW5maWxlLm1hZT4nLCAnLW9tYWUnLCAnPG91dGZpbGUubWFlPic=

> <r_epik_Ionization_Penalty>
2.33291

> <r_epik_Ionization_Penalty_Charging>
2.33291

> <r_epik_Ionization_Penalty_Neutral>
6.90208e-07

> <r_epik_State_Penalty>
2.4838

> <r_epik_Charging_Adjusted_Penalty>
4.81672

> <i_epik_Tot_Q>
2

> <i_epik_Tot_abs_Q>
2

> <r_epik_Metal_State_Penalty>
6.56754

> <b_epik_Metal_Only>
0

> <s_lp_Force_Field>
OPLS_2005

> <r_lp_Energy>
31.9784

> <b_lp_Chiralities_Consistent>
1

> <s_lp_Variant>
AV-unprocessed.smi:1702-8

> <Gold.Version>
5.8.1

> <Gold.Id.Protein>
6NUR|6NUR_protein|mol2

> <Gold.PLP.Fitness>
55.8951

> <Gold.PLP.PLP>
-41.1635

> <Gold.PLP.part.hbond>
-3.6698

> <Gold.PLP.part.metal>
0.0000

> <Gold.PLP.part.buried>
-2.0200

> <Gold.PLP.part.nonpolar>
-36.8531

> <Gold.PLP.part.repulsive>
0.1272

> <Gold.PLP.ligand.clash>
0.0000

> <Gold.PLP.ligand.torsion>
0.1486

> <Gold.PLP.Chemscore.Hbond>
5.0000

> <Gold.PLP.Chemscore.CHOScore>
0.0000

> <Gold.PLP.Chemscore.Metal>
0.0000

> <Gold.Chemscore.Hbonds>
donor molecule, donor type, donor heavy atom, donor atom, acceptor molecule, acceptor atom, score
      L1  H     5    44       P1  7948  2.00
      L1  H     8    34       P1  7948  1.00
      L1  H    12    45       P1  8028  1.40

> <Gold.PLP.Chemscore.Internal.Correction>
0.0288

> <Gold.Rescore>
     Score         DG    S(hbond)    S(metal)    S(lipo)     H(rot)  DE(clash)    DE(int)     intcor
     18.54     -18.86       2.74        0.00      87.07       2.32       0.15       0.17       ----

> <Gold.Chemscore.Fitness>
18.5416

> <Gold.Chemscore.DG>
-18.8616

> <Gold.Chemscore.ZeroCoef>
-5.4800

> <Gold.Chemscore.Hbond>
2.7354

> <Gold.Chemscore.Metal>
0.0000

> <Gold.Chemscore.Lipo>
87.0670

> <Gold.Chemscore.Internal_Hbond>
0.0000

> <Gold.Chemscore.DEClash>
0.1491

> <Gold.Chemscore.DEInternal>
0.1709

> <Gold.Chemscore.Rot>
2.3210

> <Gold.Chemscore.Internal.Correction>
   9.000000E+99

> <Gold.Chemscore.Hbonds>
donor molecule, donor type, donor heavy atom, donor atom, acceptor molecule, acceptor atom, score
      L1  H     5    44       P1  7948  1.00
      L1  H     8    34       P1  7948  0.29
      L1  H    12    45       P1  8028  0.68

> <Gold.Chemscore.Hbond.Weighted>
-9.1364

> <Gold.Chemscore.Metal.Weighted>
-0.0000

> <Gold.Chemscore.Lipo.Weighted>
-10.1868

> <Gold.Chemscore.Internal_Hbond.Weighted>
0.0000

> <Gold.Chemscore.DEClash.Weighted>
0.1491

> <Gold.Chemscore.DEInternal.Weighted>
0.1709

> <Gold.Chemscore.Rot.Weighted>
5.9416

> <Gold.Chemscore.Internal.Correction.Weighted>
   9.000000E+99

> <Gold.Protein.RotatedTorsions>
[ 6907 6896 6895 6894 ] final  -95.23 input  -60.11 | X-H torsion
[ 7974 7965 7964 7962 ] final    1.39 input  175.53 | X-H torsion
[ 8008 7997 7996 7995 ] final   73.97 input   59.86 | X-H torsion
[ 10167 10162 10161 10158 ] final -101.26 input  -65.29 | X-H torsion
[ 10718 10713 10712 10709 ] final -165.09 input   66.30 | X-H torsion
[ 10763 10752 10751 10750 ] final   25.90 input  -60.55 | X-H torsion
[ 11005 11000 10999 10996 ] final  -74.31 input  -57.11 | X-H torsion

> <Gold.Protein.ActiveResidues>
 VAL166  LYS551  ARG553  GLY616  TRP617  ASP618  TYR619  PRO620  LYS621  CYS622 
 ASP623  PHE694  ASN695  SER759  ASP760  ASP761  ALA762  ILE779  LEU786  VAL792 
 PHE793  MET794  SER795  GLU796  ALA797  LYS798  CYS799  TRP800  GLU811  SER814 

> <Gold.Protein.RotatedAtoms>
  150.6959  134.1689  159.4204 H   0  0  0  0  0  0  0  0  0  0  0  0  # atno 6907 bound_to 6896
  151.9667  135.0094  160.0560 H   0  0  0  0  0  0  0  0  0  0  0  0  # atno 6908 bound_to 6896
  152.1878  133.4717  159.5028 H   0  0  0  0  0  0  0  0  0  0  0  0  # atno 6909 bound_to 6896
  146.2440  140.0994  142.8348 H   0  0  0  0  0  0  0  0  0  0  0  0  # atno 7974 bound_to 7965
  155.7914  140.3479  155.5351 H   0  0  0  0  0  0  0  0  0  0  0  0  # atno 8008 bound_to 7997
  155.8630  140.0974  157.1621 H   0  0  0  0  0  0  0  0  0  0  0  0  # atno 8009 bound_to 7997
  154.4013  140.1355  156.3971 H   0  0  0  0  0  0  0  0  0  0  0  0  # atno 8010 bound_to 7997
  140.2432  143.3524  152.0783 H   0  0  0  0  0  0  0  0  0  0  0  0  # atno 10167 bound_to 10162
  156.6485  130.8997  151.3009 H   0  0  0  0  0  0  0  0  0  0  0  0  # atno 10718 bound_to 10713
  153.0659  135.6572  154.0355 H   0  0  0  0  0  0  0  0  0  0  0  0  # atno 10763 bound_to 10752
  154.0012  135.2937  155.3404 H   0  0  0  0  0  0  0  0  0  0  0  0  # atno 10764 bound_to 10752
  154.7017  135.5242  153.8605 H   0  0  0  0  0  0  0  0  0  0  0  0  # atno 10765 bound_to 10752
  141.1633  133.6907  156.7345 H   0  0  0  0  0  0  0  0  0  0  0  0  # atno 11005 bound_to 11000
  145.0581  140.9068  143.4955 LP  0  0  0  0  0  0  0  0  0  0  0  0  # atno 17320 bound_to 7965
  145.1105  139.2761  143.5640 LP  0  0  0  0  0  0  0  0  0  0  0  0  # atno 17321 bound_to 7965
  139.5070  144.6825  151.5973 LP  0  0  0  0  0  0  0  0  0  0  0  0  # atno 17342 bound_to 10162
  140.6098  143.9458  150.6445 LP  0  0  0  0  0  0  0  0  0  0  0  0  # atno 17343 bound_to 10162
  157.7148  130.9484  150.1218 LP  0  0  0  0  0  0  0  0  0  0  0  0  # atno 17370 bound_to 10713
  156.2103  130.3666  149.8678 LP  0  0  0  0  0  0  0  0  0  0  0  0  # atno 17371 bound_to 10713
  140.2721  134.8384  157.3856 LP  0  0  0  0  0  0  0  0  0  0  0  0  # atno 17394 bound_to 11000
  140.1512  134.4847  155.7960 LP  0  0  0  0  0  0  0  0  0  0  0  0  # atno 17395 bound_to 11000

$$$$
