AV-unprocessed.smi:1464|AV-procd|sdf|5943|dock9
  -GOLD-   22720 6 23D 1   1.00000     0.00000
 Structure written by MMmdl.
 41 42  0  0  0  0  0  0  0  0  1 V2000
  151.3179  145.6607  160.1786 C   0  0  0  0  0  0  0  0  0  0  0  0
  151.7133  144.1730  160.1948 C   0  0  2  0  0  0  0  0  0  0  0  0
  152.2612  143.7947  161.5866 C   0  0  0  0  0  0  0  0  0  0  0  0
  152.6605  142.3153  161.6701 C   0  0  0  0  0  0  0  0  0  0  0  0
  153.6805  141.9593  160.5790 C   0  0  0  0  0  0  0  0  0  0  0  0
  153.1652  142.3160  159.1727 C   0  0  1  0  0  0  0  0  0  0  0  0
  152.0717  141.4145  158.8017 N   0  0  0  0  0  0  0  0  0  0  0  0
  152.1959  140.1502  158.3693 C   0  0  0  0  0  0  0  0  0  0  0  0
  153.2812  139.5890  158.2128 O   0  0  0  0  0  0  0  0  0  0  0  0
  150.8814  139.4262  158.0425 C   0  0  0  0  0  0  0  0  0  0  0  0
  150.6162  139.3185  156.6008 N   0  0  0  0  0  0  0  0  0  0  0  0
  150.4843  138.0155  156.1446 N   0  0  0  0  0  0  0  0  0  0  0  0
  150.2350  137.7909  154.8988 C   0  0  0  0  0  0  0  0  0  0  0  0
  150.1087  136.4859  154.4896 O   0  0  0  0  0  0  0  0  0  0  0  0
  150.0928  138.8785  153.9556 C   0  0  0  0  0  0  0  0  0  0  0  0
  150.2285  140.1441  154.4086 C   0  0  0  0  0  0  0  0  0  0  0  0
  150.5115  140.4344  155.8154 C   0  0  0  0  0  0  0  0  0  0  0  0
  150.6428  141.5768  156.2548 O   0  0  0  0  0  0  0  0  0  0  0  0
  152.7371  143.8054  159.0843 C   0  0  1  0  0  0  0  0  0  0  0  0
  152.2501  144.1691  157.6668 C   0  0  0  0  0  0  0  0  0  0  0  0
  149.6762  136.5259  153.6507 H   0  0  0  0  0  0  0  0  0  0  0  0
  152.1930  146.3053  160.2661 H   0  0  0  0  0  0  0  0  0  0  0  0
  150.6494  145.8964  161.0072 H   0  0  0  0  0  0  0  0  0  0  0  0
  150.7922  145.9290  159.2627 H   0  0  0  0  0  0  0  0  0  0  0  0
  150.8034  143.5949  160.0273 H   0  0  0  0  0  0  0  0  0  0  0  0
  153.1274  144.4152  161.8208 H   0  0  0  0  0  0  0  0  0  0  0  0
  151.5153  144.0094  162.3526 H   0  0  0  0  0  0  0  0  0  0  0  0
  153.0807  142.1000  162.6530 H   0  0  0  0  0  0  0  0  0  0  0  0
  151.7737  141.6882  161.5717 H   0  0  0  0  0  0  0  0  0  0  0  0
  154.6086  142.4999  160.7685 H   0  0  0  0  0  0  0  0  0  0  0  0
  153.9315  140.8990  160.6322 H   0  0  0  0  0  0  0  0  0  0  0  0
  154.0000  142.1688  158.4854 H   0  0  0  0  0  0  0  0  0  0  0  0
  151.1374  141.7873  158.8881 H   0  0  0  0  0  0  0  0  0  0  0  0
  150.8903  138.4319  158.4938 H   0  0  0  0  0  0  0  0  0  0  0  0
  150.0701  139.9636  158.5367 H   0  0  0  0  0  0  0  0  0  0  0  0
  149.8834  138.6748  152.9157 H   0  0  0  0  0  0  0  0  0  0  0  0
  150.1246  140.9663  153.7157 H   0  0  0  0  0  0  0  0  0  0  0  0
  153.6352  144.3983  159.2645 H   0  0  0  0  0  0  0  0  0  0  0  0
  151.2779  143.7265  157.4488 H   0  0  0  0  0  0  0  0  0  0  0  0
  152.9524  143.8165  156.9108 H   0  0  0  0  0  0  0  0  0  0  0  0
  152.1610  145.2474  157.5363 H   0  0  0  0  0  0  0  0  0  0  0  0
  1  2  1  0  0  0  0
  1 22  1  0  0  0  0
  1 23  1  0  0  0  0
  1 24  1  0  0  0  0
  2 19  1  0  0  0  0
  2  3  1  0  0  0  0
  2 25  1  0  0  0  0
  3  4  1  0  0  0  0
  3 26  1  0  0  0  0
  3 27  1  0  0  0  0
  4  5  1  0  0  0  0
  4 28  1  0  0  0  0
  4 29  1  0  0  0  0
  5  6  1  0  0  0  0
  5 30  1  0  0  0  0
  5 31  1  0  0  0  0
  6  7  1  0  0  0  0
  6 19  1  0  0  0  0
  6 32  1  0  0  0  0
  7  8  1  0  0  0  0
  7 33  1  0  0  0  0
  8  9  2  0  0  0  0
  8 10  1  0  0  0  0
 10 34  1  0  0  0  0
 10 35  1  0  0  0  0
 10 11  1  0  0  0  0
 11 12  1  0  0  0  0
 11 17  1  0  0  0  0
 12 13  2  0  0  0  0
 13 14  1  0  0  0  0
 13 15  1  0  0  0  0
 14 21  1  0  0  0  0
 15 36  1  0  0  0  0
 15 16  2  0  0  0  0
 16 37  1  0  0  0  0
 16 17  1  0  0  0  0
 17 18  2  0  0  0  0
 19 20  1  0  0  0  0
 19 38  1  0  0  0  0
 20 39  1  0  0  0  0
 20 40  1  0  0  0  0
 20 41  1  0  0  0  0
M  END
> <s_m_source_file>
AV-unprocessed.smi

> <i_m_source_file_index>
1464

> <i_lp_mmshare_version>
43012

> <i_f3d_flags>
0

> <s_epik_input>
W0NIM11bQ0BASF0xW0NIMl1bQ0gyXVtDSDJdW0NASF0oW0NASF0xW0NIM10pW05IXUMoPU8pW0NIMl1uMltuSF1jKD1PKVtjSF1bY0hdYzI9Tw==

> <s_epik_cmdline>
J2VwaWtfcHl0aG9uJywgJy1waCcsICc3LjAnLCAnLXRuJywgJzgnLCAnLW1hJywgJzIwMCcsICctbWV0YWxfYmluZGluZycsICctaW1hZScsICc8aW5maWxlLm1hZT4nLCAnLW9tYWUnLCAnPG91dGZpbGUubWFlPic=

> <r_lp_tautomer_probability>
0.9996

> <r_epik_Ionization_Penalty>
2.10335

> <r_epik_Ionization_Penalty_Charging>
3.98079e-08

> <r_epik_Ionization_Penalty_Neutral>
2.10335

> <r_epik_State_Penalty>
1.67957

> <r_epik_Charging_Adjusted_Penalty>
1.67957

> <i_epik_Tot_Q>
0

> <i_epik_Tot_abs_Q>
0

> <r_epik_Metal_State_Penalty>
1.67957

> <b_epik_Metal_Only>
0

> <s_lp_Force_Field>
OPLS_2005

> <r_lp_Energy>
20.9709

> <b_lp_Chiralities_Consistent>
1

> <s_lp_Variant>
AV-unprocessed.smi:1464-9

> <Gold.Version>
5.8.1

> <Gold.Id.Protein>
6NUR|6NUR_protein|mol2

> <Gold.PLP.Fitness>
50.1055

> <Gold.PLP.PLP>
-45.0638

> <Gold.PLP.part.hbond>
-2.5135

> <Gold.PLP.part.metal>
0.0000

> <Gold.PLP.part.buried>
-2.2313

> <Gold.PLP.part.nonpolar>
-40.9698

> <Gold.PLP.part.repulsive>
0.1756

> <Gold.PLP.ligand.clash>
0.0000

> <Gold.PLP.ligand.torsion>
0.4844

> <Gold.PLP.Chemscore.Hbond>
2.0000

> <Gold.PLP.Chemscore.CHOScore>
0.0000

> <Gold.PLP.Chemscore.Metal>
0.0000

> <Gold.Chemscore.Hbonds>
donor molecule, donor type, donor heavy atom, donor atom, acceptor molecule, acceptor atom, score
      L1  H    14    21       P1  7948  1.00
      P1  H  7997  8009       L1     9  1.00

> <Gold.PLP.Chemscore.Internal.Correction>
0.0104

> <Gold.Rescore>
     Score         DG    S(hbond)    S(metal)    S(lipo)     H(rot)  DE(clash)    DE(int)     intcor
     15.64     -19.94       1.95        0.00     116.61       2.22       1.37       2.93       ----

> <Gold.Chemscore.Fitness>
15.6357

> <Gold.Chemscore.DG>
-19.9379

> <Gold.Chemscore.ZeroCoef>
-5.4800

> <Gold.Chemscore.Hbond>
1.9471

> <Gold.Chemscore.Metal>
0.0000

> <Gold.Chemscore.Lipo>
116.6141

> <Gold.Chemscore.Internal_Hbond>
0.0000

> <Gold.Chemscore.DEClash>
1.3712

> <Gold.Chemscore.DEInternal>
2.9310

> <Gold.Chemscore.Rot>
2.2224

> <Gold.Chemscore.Internal.Correction>
   9.000000E+99

> <Gold.Chemscore.Hbonds>
donor molecule, donor type, donor heavy atom, donor atom, acceptor molecule, acceptor atom, score
      L1  H    14    21       P1  7948  0.55
      P1  H  7997  8009       L1     9  0.99

> <Gold.Chemscore.Hbond.Weighted>
-6.5034

> <Gold.Chemscore.Metal.Weighted>
-0.0000

> <Gold.Chemscore.Lipo.Weighted>
-13.6438

> <Gold.Chemscore.Internal_Hbond.Weighted>
0.0000

> <Gold.Chemscore.DEClash.Weighted>
1.3712

> <Gold.Chemscore.DEInternal.Weighted>
2.9310

> <Gold.Chemscore.Rot.Weighted>
5.6893

> <Gold.Chemscore.Internal.Correction.Weighted>
   9.000000E+99

> <Gold.Protein.RotatedTorsions>
[ 6907 6896 6895 6894 ] final   59.70 input  -60.11 | X-H torsion
[ 7974 7965 7964 7962 ] final   -3.36 input  175.53 | X-H torsion
[ 8008 7997 7996 7995 ] final  142.37 input   59.86 | X-H torsion
[ 10167 10162 10161 10158 ] final   47.77 input  -65.29 | X-H torsion
[ 10718 10713 10712 10709 ] final   85.25 input   66.30 | X-H torsion
[ 10763 10752 10751 10750 ] final -106.77 input  -60.55 | X-H torsion
[ 11005 11000 10999 10996 ] final -125.80 input  -57.11 | X-H torsion

> <Gold.Protein.ActiveResidues>
 VAL166  LYS551  ARG553  GLY616  TRP617  ASP618  TYR619  PRO620  LYS621  CYS622 
 ASP623  PHE694  ASN695  SER759  ASP760  ASP761  ALA762  ILE779  LEU786  VAL792 
 PHE793  MET794  SER795  GLU796  ALA797  LYS798  CYS799  TRP800  GLU811  SER814 

> <Gold.Protein.RotatedAtoms>
  152.3938  134.6399  160.0097 H   0  0  0  0  0  0  0  0  0  0  0  0  # atno 6907 bound_to 6896
  151.6625  133.3311  159.3185 H   0  0  0  0  0  0  0  0  0  0  0  0  # atno 6908 bound_to 6896
  150.7849  134.6869  159.6519 H   0  0  0  0  0  0  0  0  0  0  0  0  # atno 6909 bound_to 6896
  146.2391  140.1709  142.8332 H   0  0  0  0  0  0  0  0  0  0  0  0  # atno 7974 bound_to 7965
  156.2950  140.2290  156.4717 H   0  0  0  0  0  0  0  0  0  0  0  0  # atno 8008 bound_to 7997
  154.7929  140.0453  157.1236 H   0  0  0  0  0  0  0  0  0  0  0  0  # atno 8009 bound_to 7997
  154.9623  140.3056  155.5028 H   0  0  0  0  0  0  0  0  0  0  0  0  # atno 8010 bound_to 7997
  140.3002  144.2943  150.6221 H   0  0  0  0  0  0  0  0  0  0  0  0  # atno 10167 bound_to 10162
  157.6911  131.0167  150.2794 H   0  0  0  0  0  0  0  0  0  0  0  0  # atno 10718 bound_to 10713
  154.8033  135.4700  154.0329 H   0  0  0  0  0  0  0  0  0  0  0  0  # atno 10763 bound_to 10752
  153.1818  135.6841  153.8475 H   0  0  0  0  0  0  0  0  0  0  0  0  # atno 10764 bound_to 10752
  153.8022  135.3228  155.3369 H   0  0  0  0  0  0  0  0  0  0  0  0  # atno 10765 bound_to 10752
  140.9732  134.0776  157.3846 H   0  0  0  0  0  0  0  0  0  0  0  0  # atno 11005 bound_to 11000
  145.0012  140.8634  143.5280 LP  0  0  0  0  0  0  0  0  0  0  0  0  # atno 17320 bound_to 7965
  145.1729  139.2394  143.5333 LP  0  0  0  0  0  0  0  0  0  0  0  0  # atno 17321 bound_to 7965
  140.5658  143.2186  151.7686 LP  0  0  0  0  0  0  0  0  0  0  0  0  # atno 17342 bound_to 10162
  139.4917  144.4286  151.9898 LP  0  0  0  0  0  0  0  0  0  0  0  0  # atno 17343 bound_to 10162
  156.3343  130.3805  149.7463 LP  0  0  0  0  0  0  0  0  0  0  0  0  # atno 17370 bound_to 10713
  156.4993  130.8121  151.3126 LP  0  0  0  0  0  0  0  0  0  0  0  0  # atno 17371 bound_to 10713
  139.8920  135.0122  156.6824 LP  0  0  0  0  0  0  0  0  0  0  0  0  # atno 17394 bound_to 11000
  140.7297  133.9069  155.8203 LP  0  0  0  0  0  0  0  0  0  0  0  0  # atno 17395 bound_to 11000

$$$$
