AV-unprocessed.smi:2027|AV-procd|sdf|8211|dock10
  -GOLD-   2272010473D 1   1.00000     0.00000
 Structure written by MMmdl.
 50 52  0  0  0  0  0  0  0  0  2 V2000
  153.1160  142.7727  161.9000 C   0  0  0  0  0  0  0  0  0  0  0  0
  152.5280  142.4325  160.5419 C   0  0  0  0  0  0  0  0  0  0  0  0
  152.9861  141.2800  159.8642 C   0  0  0  0  0  0  0  0  0  0  0  0
  152.4653  140.9286  158.5997 C   0  0  0  0  0  0  0  0  0  0  0  0
  152.7660  139.8639  157.7675 N   0  0  0  0  0  0  0  0  0  0  0  0
  151.9523  140.0879  156.7399 C   0  0  0  0  0  0  0  0  0  0  0  0
  151.1602  141.1753  156.8062 N   0  0  0  0  0  0  0  0  0  0  0  0
  150.2022  141.6211  155.8103 C   0  0  0  0  0  0  0  0  0  0  0  0
  149.6925  140.4679  154.9243 C   0  0  2  0  0  0  0  0  0  0  0  0
  149.8332  140.8220  153.5612 O   0  0  0  0  0  0  0  0  0  0  0  0
  148.2085  140.1564  155.1933 C   0  0  0  0  0  0  0  0  0  0  0  0
  147.9144  138.7039  155.0672 N   0  3  1  0  0  0  0  0  0  0  0  0
  148.4217  137.9168  156.2150 C   0  0  0  0  0  0  0  0  0  0  0  0
  146.4888  138.4090  154.7775 C   0  0  0  0  0  0  0  0  0  0  0  0
  146.3524  137.2682  153.8039 C   0  0  0  0  0  0  0  0  0  0  0  0
  146.8500  135.9406  153.9416 C   0  0  0  0  0  0  0  0  0  0  0  0
  146.5715  135.1759  152.8992 N   0  0  0  0  0  0  0  0  0  0  0  0
  145.8810  135.9807  152.0660 N   0  0  0  0  0  0  0  0  0  0  0  0
  145.4044  135.4592  150.8028 C   0  0  0  0  0  0  0  0  0  0  0  0
  145.7320  137.2484  152.5857 C   0  0  0  0  0  0  0  0  0  0  0  0
  151.4646  141.7673  158.0277 C   0  0  0  0  0  0  0  0  0  0  0  0
  151.0012  142.9168  158.6917 C   0  0  0  0  0  0  0  0  0  0  0  0
  151.5346  143.2555  159.9528 C   0  0  0  0  0  0  0  0  0  0  0  0
  151.0310  144.5021  160.6587 C   0  0  0  0  0  0  0  0  0  0  0  0
  153.7998  141.9961  162.2439 H   0  0  0  0  0  0  0  0  0  0  0  0
  152.3272  142.8752  162.6456 H   0  0  0  0  0  0  0  0  0  0  0  0
  153.6702  143.7103  161.8504 H   0  0  0  0  0  0  0  0  0  0  0  0
  153.7446  140.6545  160.3114 H   0  0  0  0  0  0  0  0  0  0  0  0
  151.9321  139.4241  155.8877 H   0  0  0  0  0  0  0  0  0  0  0  0
  149.3668  142.0948  156.3282 H   0  0  0  0  0  0  0  0  0  0  0  0
  150.6694  142.3965  155.2016 H   0  0  0  0  0  0  0  0  0  0  0  0
  150.3041  139.5852  155.1123 H   0  0  0  0  0  0  0  0  0  0  0  0
  149.7183  140.0446  153.0345 H   0  0  0  0  0  0  0  0  0  0  0  0
  147.9169  140.5003  156.1869 H   0  0  0  0  0  0  0  0  0  0  0  0
  147.6068  140.7367  154.4934 H   0  0  0  0  0  0  0  0  0  0  0  0
  147.8924  138.1787  157.1322 H   0  0  0  0  0  0  0  0  0  0  0  0
  149.4857  138.0889  156.3750 H   0  0  0  0  0  0  0  0  0  0  0  0
  148.2886  136.8488  156.0387 H   0  0  0  0  0  0  0  0  0  0  0  0
  145.9803  138.1532  155.7080 H   0  0  0  0  0  0  0  0  0  0  0  0
  146.0020  139.3134  154.4092 H   0  0  0  0  0  0  0  0  0  0  0  0
  147.4092  135.5148  154.7616 H   0  0  0  0  0  0  0  0  0  0  0  0
  144.8464  136.2278  150.2669 H   0  0  0  0  0  0  0  0  0  0  0  0
  144.7501  134.6044  150.9788 H   0  0  0  0  0  0  0  0  0  0  0  0
  146.2502  135.1432  150.1914 H   0  0  0  0  0  0  0  0  0  0  0  0
  145.2049  138.0246  152.0503 H   0  0  0  0  0  0  0  0  0  0  0  0
  150.2436  143.5347  158.2327 H   0  0  0  0  0  0  0  0  0  0  0  0
  150.3360  145.0611  160.0313 H   0  0  0  0  0  0  0  0  0  0  0  0
  151.8600  145.1647  160.9083 H   0  0  0  0  0  0  0  0  0  0  0  0
  150.5116  144.2342  161.5791 H   0  0  0  0  0  0  0  0  0  0  0  0
  148.4254  138.3871  154.2549 H   0  0  0  0  0  0  0  0  0  0  0  0
  1  2  1  0  0  0  0
  1 25  1  0  0  0  0
  1 26  1  0  0  0  0
  1 27  1  0  0  0  0
  2 23  1  0  0  0  0
  2  3  2  0  0  0  0
  3  4  1  0  0  0  0
  3 28  1  0  0  0  0
  4 21  2  0  0  0  0
  4  5  1  0  0  0  0
  5  6  2  0  0  0  0
  6  7  1  0  0  0  0
  6 29  1  0  0  0  0
  7  8  1  0  0  0  0
  7 21  1  0  0  0  0
  8  9  1  0  0  0  0
  8 30  1  0  0  0  0
  8 31  1  0  0  0  0
  9 10  1  0  0  0  0
  9 11  1  0  0  0  0
  9 32  1  0  0  0  0
 10 33  1  0  0  0  0
 11 12  1  0  0  0  0
 11 34  1  0  0  0  0
 11 35  1  0  0  0  0
 12 13  1  0  0  0  0
 12 14  1  0  0  0  0
 12 50  1  0  0  0  0
 13 36  1  0  0  0  0
 13 37  1  0  0  0  0
 13 38  1  0  0  0  0
 14 15  1  0  0  0  0
 14 39  1  0  0  0  0
 14 40  1  0  0  0  0
 15 20  2  0  0  0  0
 15 16  1  0  0  0  0
 16 17  2  0  0  0  0
 16 41  1  0  0  0  0
 17 18  1  0  0  0  0
 18 19  1  0  0  0  0
 18 20  1  0  0  0  0
 19 42  1  0  0  0  0
 19 43  1  0  0  0  0
 19 44  1  0  0  0  0
 20 45  1  0  0  0  0
 21 22  1  0  0  0  0
 22 23  2  0  0  0  0
 22 46  1  0  0  0  0
 23 24  1  0  0  0  0
 24 47  1  0  0  0  0
 24 48  1  0  0  0  0
 24 49  1  0  0  0  0
M  CHG  1  12   1
M  END
> <s_m_source_file>
AV-unprocessed.smi

> <i_m_source_file_index>
2027

> <i_lp_mmshare_version>
43012

> <i_f3d_flags>
0

> <s_epik_input>
W0NIM11jKFtjSF0xKWMoW0NIM10pW2NIXWMoYzEyKW4oW2NIXW4yKVtDSDJdW0NASF0oW09IXSlbQ0gyXU4oW0NIM10pW0NIMl1jM1tjSF1ubihbQ0gzXSlbY0hdMw==

> <s_epik_cmdline>
J2VwaWtfcHl0aG9uJywgJy1waCcsICc3LjAnLCAnLXRuJywgJzgnLCAnLW1hJywgJzIwMCcsICctbWV0YWxfYmluZGluZycsICctaW1hZScsICc8aW5maWxlLm1hZT4nLCAnLW9tYWUnLCAnPG91dGZpbGUubWFlPic=

> <r_lp_tautomer_probability>
1

> <r_epik_Ionization_Penalty>
0.646578

> <r_epik_Ionization_Penalty_Charging>
0.559419

> <r_epik_Ionization_Penalty_Neutral>
0.087159

> <r_epik_State_Penalty>
0.661677

> <r_epik_Charging_Adjusted_Penalty>
1.2211

> <i_epik_Tot_Q>
1

> <i_epik_Tot_abs_Q>
1

> <r_epik_Metal_State_Penalty>
0.649174

> <b_epik_Metal_Only>
0

> <s_lp_Force_Field>
OPLS_2005

> <r_lp_Energy>
8.87495

> <b_lp_Chiralities_Consistent>
1

> <s_lp_Variant>
AV-unprocessed.smi:2027-3

> <Gold.Version>
5.8.1

> <Gold.Id.Protein>
6NUR|6NUR_protein|mol2

> <Gold.PLP.Fitness>
53.8278

> <Gold.PLP.PLP>
-43.8677

> <Gold.PLP.part.hbond>
-3.3105

> <Gold.PLP.part.metal>
0.0000

> <Gold.PLP.part.buried>
-4.2842

> <Gold.PLP.part.nonpolar>
-35.1602

> <Gold.PLP.part.repulsive>
0.4203

> <Gold.PLP.ligand.clash>
0.0000

> <Gold.PLP.ligand.torsion>
2.1551

> <Gold.PLP.Chemscore.Hbond>
2.7104

> <Gold.PLP.Chemscore.CHOScore>
1.9887

> <Gold.PLP.Chemscore.Metal>
0.0000

> <Gold.Chemscore.Hbonds>
donor molecule, donor type, donor heavy atom, donor atom, acceptor molecule, acceptor atom, score
      L1  H    10    33       P1  7957  0.48
      P1  H  7989  7998       L1    10  0.31
      P1  H  7997  8009       L1     5  0.85
      P1  H  8011  8017       L1    10  1.00
      L1  C    20    45       P1 10171  0.67
      L1  C    20    45       P1 10175  0.09

> <Gold.PLP.Chemscore.Internal.Correction>
0.1730

> <Gold.Rescore>
     Score         DG    S(hbond)    S(metal)    S(lipo)     H(rot)  DE(clash)    DE(int)     intcor
     17.08     -19.35       2.20        0.00     110.65       2.50       0.09       2.17       ----

> <Gold.Chemscore.Fitness>
17.0793

> <Gold.Chemscore.DG>
-19.3453

> <Gold.Chemscore.ZeroCoef>
-5.4800

> <Gold.Chemscore.Hbond>
2.1950

> <Gold.Chemscore.Metal>
0.0000

> <Gold.Chemscore.Lipo>
110.6488

> <Gold.Chemscore.Internal_Hbond>
0.0000

> <Gold.Chemscore.DEClash>
0.0950

> <Gold.Chemscore.DEInternal>
2.1711

> <Gold.Chemscore.Rot>
2.5047

> <Gold.Chemscore.Internal.Correction>
   9.000000E+99

> <Gold.Chemscore.Hbonds>
donor molecule, donor type, donor heavy atom, donor atom, acceptor molecule, acceptor atom, score
      L1  H    10    33       P1  7957  0.48
      P1  H  7989  7998       L1    10  0.01
      P1  H  7997  8009       L1     5  0.13
      P1  H  8011  8017       L1    10  0.60

> <Gold.Chemscore.Hbond.Weighted>
-7.3314

> <Gold.Chemscore.Metal.Weighted>
-0.0000

> <Gold.Chemscore.Lipo.Weighted>
-12.9459

> <Gold.Chemscore.Internal_Hbond.Weighted>
0.0000

> <Gold.Chemscore.DEClash.Weighted>
0.0950

> <Gold.Chemscore.DEInternal.Weighted>
2.1711

> <Gold.Chemscore.Rot.Weighted>
6.4120

> <Gold.Chemscore.Internal.Correction.Weighted>
   9.000000E+99

> <Gold.Protein.RotatedTorsions>
[ 6907 6896 6895 6894 ] final  -40.42 input  -60.11 | X-H torsion
[ 7974 7965 7964 7962 ] final  132.95 input  175.53 | X-H torsion
[ 8008 7997 7996 7995 ] final  170.37 input   59.86 | X-H torsion
[ 10167 10162 10161 10158 ] final  -14.02 input  -65.29 | X-H torsion
[ 10718 10713 10712 10709 ] final   56.67 input   66.30 | X-H torsion
[ 10763 10752 10751 10750 ] final    8.58 input  -60.55 | X-H torsion
[ 11005 11000 10999 10996 ] final   86.92 input  -57.11 | X-H torsion

> <Gold.Protein.ActiveResidues>
 VAL166  LYS551  ARG553  GLY616  TRP617  ASP618  TYR619  PRO620  LYS621  CYS622 
 ASP623  PHE694  ASN695  SER759  ASP760  ASP761  ALA762  ILE779  LEU786  VAL792 
 PHE793  MET794  SER795  GLU796  ALA797  LYS798  CYS799  TRP800  GLU811  SER814 

> <Gold.Protein.RotatedAtoms>
  150.9786  134.9146  159.7830 H   0  0  0  0  0  0  0  0  0  0  0  0  # atno 6907 bound_to 6896
  152.5214  134.3441  159.9237 H   0  0  0  0  0  0  0  0  0  0  0  0  # atno 6908 bound_to 6896
  151.3449  133.3907  159.2709 H   0  0  0  0  0  0  0  0  0  0  0  0  # atno 6909 bound_to 6896
  144.9915  139.4402  143.5337 H   0  0  0  0  0  0  0  0  0  0  0  0  # atno 7974 bound_to 7965
  156.1372  140.1540  156.8976 H   0  0  0  0  0  0  0  0  0  0  0  0  # atno 8008 bound_to 7997
  154.4957  140.0839  156.7730 H   0  0  0  0  0  0  0  0  0  0  0  0  # atno 8009 bound_to 7997
  155.4147  140.3420  155.4268 H   0  0  0  0  0  0  0  0  0  0  0  0  # atno 8010 bound_to 7997
  140.7193  143.5365  150.9459 H   0  0  0  0  0  0  0  0  0  0  0  0  # atno 10167 bound_to 10162
  157.5450  130.8724  149.8878 H   0  0  0  0  0  0  0  0  0  0  0  0  # atno 10718 bound_to 10713
  153.2235  135.6884  153.7973 H   0  0  0  0  0  0  0  0  0  0  0  0  # atno 10763 bound_to 10752
  153.7163  135.3274  155.3258 H   0  0  0  0  0  0  0  0  0  0  0  0  # atno 10764 bound_to 10752
  154.8280  135.4602  154.1092 H   0  0  0  0  0  0  0  0  0  0  0  0  # atno 10765 bound_to 10752
  139.8932  134.8387  156.2787 H   0  0  0  0  0  0  0  0  0  0  0  0  # atno 11005 bound_to 11000
  146.3432  139.9249  142.8761 LP  0  0  0  0  0  0  0  0  0  0  0  0  # atno 17320 bound_to 7965
  145.2279  140.9961  143.4007 LP  0  0  0  0  0  0  0  0  0  0  0  0  # atno 17321 bound_to 7965
  139.9086  143.6747  152.3119 LP  0  0  0  0  0  0  0  0  0  0  0  0  # atno 17342 bound_to 10162
  139.7123  144.7618  151.1092 LP  0  0  0  0  0  0  0  0  0  0  0  0  # atno 17343 bound_to 10162
  156.0528  130.3714  150.1161 LP  0  0  0  0  0  0  0  0  0  0  0  0  # atno 17370 bound_to 10713
  156.9338  130.9722  151.3528 LP  0  0  0  0  0  0  0  0  0  0  0  0  # atno 17371 bound_to 10713
  141.0053  133.7127  156.1024 LP  0  0  0  0  0  0  0  0  0  0  0  0  # atno 17394 bound_to 11000
  140.7442  134.4116  157.5550 LP  0  0  0  0  0  0  0  0  0  0  0  0  # atno 17395 bound_to 11000

$$$$
