AV-unprocessed.smi:225|AV-procd|sdf|1723|dock7
  -GOLD-   2262020203D 1   1.00000     0.00000
 Structure written by MMmdl.
 56 59  0  0  0  0  0  0  0  0  1 V2000
  151.7646  137.2375  154.0613 O   0  0  0  0  0  0  0  0  0  0  0  0
  151.2037  138.4017  154.6267 C   0  0  0  0  0  0  0  0  0  0  0  0
  151.8965  138.7070  155.9657 C   0  0  0  0  0  0  0  0  0  0  0  0
  151.0093  139.3670  156.9278 N   0  0  0  0  0  0  0  0  0  0  0  0
  151.5994  139.8162  158.1897 C   0  0  0  0  0  0  0  0  0  0  0  0
  152.1905  141.2400  158.1160 C   0  0  0  0  0  0  0  0  0  0  0  0
  152.8086  141.6414  159.4701 C   0  0  0  0  0  0  0  0  0  0  0  0
  153.4110  143.0555  159.4245 C   0  0  0  0  0  0  0  0  0  0  0  0
  152.3670  144.0919  158.9822 C   0  0  0  0  0  0  0  0  0  0  0  0
  151.7390  143.7025  157.6352 C   0  0  0  0  0  0  0  0  0  0  0  0
  151.1408  142.2876  157.6879 C   0  0  0  0  0  0  0  0  0  0  0  0
  149.7544  138.8678  157.0741 C   0  0  0  0  0  0  0  0  0  0  0  0
  148.7704  139.2292  156.2074 N   0  0  0  0  0  0  0  0  0  0  0  0
  147.5372  138.7323  156.3408 C   0  0  0  0  0  0  0  0  0  0  0  0
  147.0788  137.8706  157.2506 N   0  0  0  0  0  0  0  0  0  0  0  0
  148.0620  137.5002  158.1200 C   0  0  0  0  0  0  0  0  0  0  0  0
  149.4129  137.9486  158.1052 C   0  0  0  0  0  0  0  0  0  0  0  0
  150.1159  137.3663  159.1524 N   0  0  0  0  0  0  0  0  0  0  0  0
  149.2341  136.6109  159.7476 C   0  0  0  0  0  0  0  0  0  0  0  0
  147.9764  136.6242  159.1881 N   0  0  0  0  0  0  0  0  0  0  0  0
  146.8122  135.8783  159.6397 C   0  0  0  0  0  0  0  0  0  0  0  0
  146.5327  136.0334  161.1528 C   0  0  1  0  0  0  0  0  0  0  0  0
  146.5055  137.4118  161.4804 O   0  0  0  0  0  0  0  0  0  0  0  0
  145.2208  135.4015  161.6127 C   0  0  0  0  0  0  0  0  0  0  0  0
  145.5443  134.9305  163.0235 C   0  0  0  0  0  0  0  0  0  0  0  0
  146.8691  134.4469  162.8864 O   0  0  0  0  0  0  0  0  0  0  0  0
  147.5858  135.3403  162.0409 C   0  0  0  0  0  0  0  0  0  0  0  0
  151.3442  137.0747  153.2307 H   0  0  0  0  0  0  0  0  0  0  0  0
  151.3338  139.2316  153.9316 H   0  0  0  0  0  0  0  0  0  0  0  0
  150.1323  138.2464  154.7530 H   0  0  0  0  0  0  0  0  0  0  0  0
  152.2975  137.7909  156.4016 H   0  0  0  0  0  0  0  0  0  0  0  0
  152.7598  139.3434  155.7751 H   0  0  0  0  0  0  0  0  0  0  0  0
  150.8754  139.7700  159.0048 H   0  0  0  0  0  0  0  0  0  0  0  0
  152.3884  139.1111  158.4543 H   0  0  0  0  0  0  0  0  0  0  0  0
  152.9948  141.2497  157.3806 H   0  0  0  0  0  0  0  0  0  0  0  0
  152.0482  141.5962  160.2511 H   0  0  0  0  0  0  0  0  0  0  0  0
  153.5824  140.9269  159.7529 H   0  0  0  0  0  0  0  0  0  0  0  0
  153.8069  143.3226  160.4046 H   0  0  0  0  0  0  0  0  0  0  0  0
  154.2560  143.0709  158.7353 H   0  0  0  0  0  0  0  0  0  0  0  0
  151.5869  144.1712  159.7405 H   0  0  0  0  0  0  0  0  0  0  0  0
  152.8280  145.0772  158.9078 H   0  0  0  0  0  0  0  0  0  0  0  0
  150.9664  144.4224  157.3640 H   0  0  0  0  0  0  0  0  0  0  0  0
  152.4953  143.7504  156.8508 H   0  0  0  0  0  0  0  0  0  0  0  0
  150.7310  142.0341  156.7098 H   0  0  0  0  0  0  0  0  0  0  0  0
  150.3035  142.2762  158.3869 H   0  0  0  0  0  0  0  0  0  0  0  0
  146.8149  139.0727  155.6136 H   0  0  0  0  0  0  0  0  0  0  0  0
  149.4809  136.0168  160.6153 H   0  0  0  0  0  0  0  0  0  0  0  0
  145.9502  136.2152  159.0625 H   0  0  0  0  0  0  0  0  0  0  0  0
  146.9557  134.8266  159.3872 H   0  0  0  0  0  0  0  0  0  0  0  0
  145.7429  137.5786  162.0128 H   0  0  0  0  0  0  0  0  0  0  0  0
  144.3651  136.0771  161.5687 H   0  0  0  0  0  0  0  0  0  0  0  0
  144.9864  134.5294  161.0011 H   0  0  0  0  0  0  0  0  0  0  0  0
  145.5239  135.7605  163.7314 H   0  0  0  0  0  0  0  0  0  0  0  0
  144.8656  134.1545  163.3774 H   0  0  0  0  0  0  0  0  0  0  0  0
  148.3168  134.7772  161.4600 H   0  0  0  0  0  0  0  0  0  0  0  0
  148.1380  136.0540  162.6548 H   0  0  0  0  0  0  0  0  0  0  0  0
  1  2  1  0  0  0  0
  1 28  1  0  0  0  0
  2  3  1  0  0  0  0
  2 29  1  0  0  0  0
  2 30  1  0  0  0  0
  3  4  1  0  0  0  0
  3 31  1  0  0  0  0
  3 32  1  0  0  0  0
  4  5  1  0  0  0  0
  4 12  1  0  0  0  0
  5  6  1  0  0  0  0
  5 33  1  0  0  0  0
  5 34  1  0  0  0  0
  6 11  1  0  0  0  0
  6  7  1  0  0  0  0
  6 35  1  0  0  0  0
  7  8  1  0  0  0  0
  7 36  1  0  0  0  0
  7 37  1  0  0  0  0
  8  9  1  0  0  0  0
  8 38  1  0  0  0  0
  8 39  1  0  0  0  0
  9 10  1  0  0  0  0
  9 40  1  0  0  0  0
  9 41  1  0  0  0  0
 10 11  1  0  0  0  0
 10 42  1  0  0  0  0
 10 43  1  0  0  0  0
 11 44  1  0  0  0  0
 11 45  1  0  0  0  0
 12 17  1  0  0  0  0
 12 13  2  0  0  0  0
 13 14  1  0  0  0  0
 14 15  2  0  0  0  0
 14 46  1  0  0  0  0
 15 16  1  0  0  0  0
 16 20  1  0  0  0  0
 16 17  2  0  0  0  0
 17 18  1  0  0  0  0
 18 19  2  0  0  0  0
 19 20  1  0  0  0  0
 19 47  1  0  0  0  0
 20 21  1  0  0  0  0
 21 22  1  0  0  0  0
 21 48  1  0  0  0  0
 21 49  1  0  0  0  0
 22 27  1  0  0  0  0
 22 23  1  0  0  0  0
 22 24  1  0  0  0  0
 23 50  1  0  0  0  0
 24 25  1  0  0  0  0
 24 51  1  0  0  0  0
 24 52  1  0  0  0  0
 25 26  1  0  0  0  0
 25 53  1  0  0  0  0
 25 54  1  0  0  0  0
 26 27  1  0  0  0  0
 27 55  1  0  0  0  0
 27 56  1  0  0  0  0
M  END
> <s_m_source_file>
AV-unprocessed.smi

> <i_m_source_file_index>
225

> <i_lp_mmshare_version>
43012

> <i_f3d_flags>
0

> <s_epik_input>
W0NIMl0xW0NIMl1bQ0gyXVtDSDJdW0NIMl1bQ0hdMVtDSDJdTihbQ0gyXVtDSDJdW09IXSljKG5bY0hdbjIpYyhjMjMpbltjSF1uM1tDSDJdW0NAQF00KFtPSF0pW0NIMl1bQ0gyXU9bQ0gyXTQ=

> <s_epik_cmdline>
J2VwaWtfcHl0aG9uJywgJy1waCcsICc3LjAnLCAnLXRuJywgJzgnLCAnLW1hJywgJzIwMCcsICctbWV0YWxfYmluZGluZycsICctaW1hZScsICc8aW5maWxlLm1hZT4nLCAnLW9tYWUnLCAnPG91dGZpbGUubWFlPic=

> <r_lp_tautomer_probability>
1

> <r_epik_Ionization_Penalty>
0.00405109

> <r_epik_Ionization_Penalty_Charging>
0

> <r_epik_Ionization_Penalty_Neutral>
0.00405109

> <r_epik_State_Penalty>
0.00270467

> <r_epik_Charging_Adjusted_Penalty>
0.00270467

> <i_epik_Tot_Q>
0

> <i_epik_Tot_abs_Q>
0

> <r_epik_Metal_State_Penalty>
-0

> <b_epik_Metal_Only>
0

> <s_lp_Force_Field>
OPLS_2005

> <r_lp_Energy>
35.3167

> <b_lp_Chiralities_Consistent>
1

> <s_lp_Variant>
AV-unprocessed.smi:225-1

> <Gold.Version>
5.8.1

> <Gold.Id.Protein>
6NUR|6NUR_protein|mol2

> <Gold.PLP.Fitness>
51.6964

> <Gold.PLP.PLP>
-44.5949

> <Gold.PLP.part.hbond>
-3.0000

> <Gold.PLP.part.metal>
0.0000

> <Gold.PLP.part.buried>
-8.2361

> <Gold.PLP.part.nonpolar>
-33.8022

> <Gold.PLP.part.repulsive>
0.0000

> <Gold.PLP.ligand.clash>
0.0000

> <Gold.PLP.ligand.torsion>
1.4296

> <Gold.PLP.Chemscore.Hbond>
3.0000

> <Gold.PLP.Chemscore.CHOScore>
0.0000

> <Gold.PLP.Chemscore.Metal>
0.0000

> <Gold.Chemscore.Hbonds>
donor molecule, donor type, donor heavy atom, donor atom, acceptor molecule, acceptor atom, score
      L1  H     1    28       P1  7949  0.93
      P1  H  6934  6947       L1    23  1.00
      P1  H 10752 10763       L1     1  1.00

> <Gold.PLP.Chemscore.Internal.Correction>
0.9606

> <Gold.Rescore>
     Score         DG    S(hbond)    S(metal)    S(lipo)     H(rot)  DE(clash)    DE(int)     intcor
     14.14     -16.13       2.14        0.00     112.17       3.76       0.14       1.85       ----

> <Gold.Chemscore.Fitness>
14.1397

> <Gold.Chemscore.DG>
-16.1289

> <Gold.Chemscore.ZeroCoef>
-5.4800

> <Gold.Chemscore.Hbond>
2.1444

> <Gold.Chemscore.Metal>
0.0000

> <Gold.Chemscore.Lipo>
112.1671

> <Gold.Chemscore.Internal_Hbond>
0.0000

> <Gold.Chemscore.DEClash>
0.1385

> <Gold.Chemscore.DEInternal>
1.8507

> <Gold.Chemscore.Rot>
3.7644

> <Gold.Chemscore.Internal.Correction>
   9.000000E+99

> <Gold.Chemscore.Hbonds>
donor molecule, donor type, donor heavy atom, donor atom, acceptor molecule, acceptor atom, score
      L1  H     1    28       P1  7949  0.63
      P1  H  6934  6947       L1    23  0.59
      P1  H 10752 10763       L1     1  0.29

> <Gold.Chemscore.Hbond.Weighted>
-7.1622

> <Gold.Chemscore.Metal.Weighted>
-0.0000

> <Gold.Chemscore.Lipo.Weighted>
-13.1235

> <Gold.Chemscore.Internal_Hbond.Weighted>
0.0000

> <Gold.Chemscore.DEClash.Weighted>
0.1385

> <Gold.Chemscore.DEInternal.Weighted>
1.8507

> <Gold.Chemscore.Rot.Weighted>
9.6369

> <Gold.Chemscore.Internal.Correction.Weighted>
   9.000000E+99

> <Gold.Protein.RotatedTorsions>
[ 6907 6896 6895 6894 ] final   18.44 input  -60.11 | X-H torsion
[ 7974 7965 7964 7962 ] final  121.07 input  175.53 | X-H torsion
[ 8008 7997 7996 7995 ] final -167.37 input   59.86 | X-H torsion
[ 10167 10162 10161 10158 ] final   75.72 input  -65.29 | X-H torsion
[ 10718 10713 10712 10709 ] final -179.01 input   66.30 | X-H torsion
[ 10763 10752 10751 10750 ] final   35.30 input  -60.55 | X-H torsion
[ 11005 11000 10999 10996 ] final   68.51 input  -57.11 | X-H torsion

> <Gold.Protein.ActiveResidues>
 VAL166  LYS551  ARG553  GLY616  TRP617  ASP618  TYR619  PRO620  LYS621  CYS622 
 ASP623  PHE694  ASN695  SER759  ASP760  ASP761  ALA762  ILE779  LEU786  VAL792 
 PHE793  MET794  SER795  GLU796  ALA797  LYS798  CYS799  TRP800  GLU811  SER814 

> <Gold.Protein.RotatedAtoms>
  151.8654  135.0509  160.0473 H   0  0  0  0  0  0  0  0  0  0  0  0  # atno 6907 bound_to 6896
  152.2630  133.5310  159.5401 H   0  0  0  0  0  0  0  0  0  0  0  0  # atno 6908 bound_to 6896
  150.7123  134.0719  159.3910 H   0  0  0  0  0  0  0  0  0  0  0  0  # atno 6909 bound_to 6896
  145.1237  139.3372  143.4701 H   0  0  0  0  0  0  0  0  0  0  0  0  # atno 7974 bound_to 7965
  155.8767  140.1002  157.1513 H   0  0  0  0  0  0  0  0  0  0  0  0  # atno 8008 bound_to 7997
  154.4001  140.1337  156.4208 H   0  0  0  0  0  0  0  0  0  0  0  0  # atno 8009 bound_to 7997
  155.7689  140.3461  155.5239 H   0  0  0  0  0  0  0  0  0  0  0  0  # atno 8010 bound_to 7997
  139.9999  144.5694  150.7746 H   0  0  0  0  0  0  0  0  0  0  0  0  # atno 10167 bound_to 10162
  156.8528  130.9725  151.3091 H   0  0  0  0  0  0  0  0  0  0  0  0  # atno 10718 bound_to 10713
  153.0125  135.6337  154.1805 H   0  0  0  0  0  0  0  0  0  0  0  0  # atno 10763 bound_to 10752
  154.1546  135.2827  155.3127 H   0  0  0  0  0  0  0  0  0  0  0  0  # atno 10764 bound_to 10752
  154.6028  135.5582  153.7452 H   0  0  0  0  0  0  0  0  0  0  0  0  # atno 10765 bound_to 10752
  139.9707  134.6905  156.0452 H   0  0  0  0  0  0  0  0  0  0  0  0  # atno 11005 bound_to 11000
  146.3519  140.1206  142.8600 LP  0  0  0  0  0  0  0  0  0  0  0  0  # atno 17320 bound_to 7965
  145.0712  140.9157  143.4881 LP  0  0  0  0  0  0  0  0  0  0  0  0  # atno 17321 bound_to 7965
  140.7422  143.2829  151.3545 LP  0  0  0  0  0  0  0  0  0  0  0  0  # atno 17342 bound_to 10162
  139.6279  144.0778  152.2450 LP  0  0  0  0  0  0  0  0  0  0  0  0  # atno 17343 bound_to 10162
  157.6294  130.8717  149.9247 LP  0  0  0  0  0  0  0  0  0  0  0  0  # atno 17370 bound_to 10713
  156.0819  130.3672  150.0564 LP  0  0  0  0  0  0  0  0  0  0  0  0  # atno 17371 bound_to 10713
  141.1387  133.6569  156.3667 LP  0  0  0  0  0  0  0  0  0  0  0  0  # atno 17394 bound_to 11000
  140.5299  134.6223  157.5346 LP  0  0  0  0  0  0  0  0  0  0  0  0  # atno 17395 bound_to 11000

$$$$
