AV-unprocessed.smi:283|AV-procd|sdf|2153|dock1
  -GOLD-   2262021493D 1   1.00000     0.00000
 Structure written by MMmdl.
 48 51  0  0  0  0  0  0  0  0  1 V2000
  151.0359  141.3057  156.8680 C   0  0  0  0  0  0  0  0  0  0  0  0
  152.1539  141.3518  157.9180 C   0  0  2  0  0  0  0  0  0  0  0  0
  152.1531  140.1160  158.6997 N   0  0  0  0  0  0  0  0  0  0  0  0
  152.3383  138.9133  158.1100 C   0  0  0  0  0  0  0  0  0  0  0  0
  153.5101  138.2379  158.2392 N   0  0  0  0  0  0  0  0  0  0  0  0
  153.6657  137.0504  157.6479 C   0  0  0  0  0  0  0  0  0  0  0  0
  152.7970  136.3757  156.8924 N   0  0  0  0  0  0  0  0  0  0  0  0
  151.6200  137.0515  156.7513 C   0  0  0  0  0  0  0  0  0  0  0  0
  151.3168  138.3180  157.3254 C   0  0  0  0  0  0  0  0  0  0  0  0
  150.0305  138.7009  156.9696 N   0  0  0  0  0  0  0  0  0  0  0  0
  149.6031  137.7168  156.2253 C   0  0  0  0  0  0  0  0  0  0  0  0
  150.4947  136.6837  156.0381 N   0  0  0  0  0  0  0  0  0  0  0  0
  150.2775  135.4358  155.2350 C   0  0  2  0  0  0  0  0  0  0  0  0
  149.0029  135.4685  154.6623 O   0  0  0  0  0  0  0  0  0  0  0  0
  148.2369  134.3397  155.0799 C   0  0  1  0  0  0  0  0  0  0  0  0
  147.2739  133.9418  153.9503 C   0  0  0  0  0  0  0  0  0  0  0  0
  147.9696  133.7866  152.7319 O   0  0  0  0  0  0  0  0  0  0  0  0
  149.3000  133.2938  155.4269 C   0  0  2  0  0  0  0  0  0  0  0  0
  148.8330  132.2684  156.2827 O   0  0  0  0  0  0  0  0  0  0  0  0
  150.3887  134.1435  156.0676 C   0  0  2  0  0  0  0  0  0  0  0  0
  150.1810  134.3419  157.4582 O   0  0  0  0  0  0  0  0  0  0  0  0
  152.0530  142.6308  158.7529 C   0  0  0  0  0  0  0  0  0  0  0  0
  151.4248  143.7758  158.2103 C   0  0  0  0  0  0  0  0  0  0  0  0
  151.3178  144.9606  158.9626 C   0  0  0  0  0  0  0  0  0  0  0  0
  151.8456  145.0159  160.2651 C   0  0  0  0  0  0  0  0  0  0  0  0
  152.4831  143.8866  160.8110 C   0  0  0  0  0  0  0  0  0  0  0  0
  152.5922  142.6973  160.0626 C   0  0  0  0  0  0  0  0  0  0  0  0
  153.3955  141.3449  160.7809 Cl  0  0  0  0  0  0  0  0  0  0  0  0
  151.0203  135.4875  154.4379 H   0  0  0  0  0  0  0  0  0  0  0  0
  147.6788  134.6219  155.9738 H   0  0  0  0  0  0  0  0  0  0  0  0
  149.6861  132.8443  154.5109 H   0  0  0  0  0  0  0  0  0  0  0  0
  151.3775  133.7046  155.9300 H   0  0  0  0  0  0  0  0  0  0  0  0
  151.0734  142.1802  156.2174 H   0  0  0  0  0  0  0  0  0  0  0  0
  150.0513  141.2809  157.3361 H   0  0  0  0  0  0  0  0  0  0  0  0
  151.1271  140.4224  156.2352 H   0  0  0  0  0  0  0  0  0  0  0  0
  153.1001  141.3590  157.3778 H   0  0  0  0  0  0  0  0  0  0  0  0
  152.1020  140.2312  159.7016 H   0  0  0  0  0  0  0  0  0  0  0  0
  154.6222  136.5731  157.8017 H   0  0  0  0  0  0  0  0  0  0  0  0
  148.6162  137.7189  155.7858 H   0  0  0  0  0  0  0  0  0  0  0  0
  146.7957  132.9913  154.1880 H   0  0  0  0  0  0  0  0  0  0  0  0
  146.4806  134.6801  153.8311 H   0  0  0  0  0  0  0  0  0  0  0  0
  148.2835  134.6341  152.4551 H   0  0  0  0  0  0  0  0  0  0  0  0
  149.5104  131.6128  156.3545 H   0  0  0  0  0  0  0  0  0  0  0  0
  149.4986  134.9861  157.5700 H   0  0  0  0  0  0  0  0  0  0  0  0
  151.0174  143.7511  157.2103 H   0  0  0  0  0  0  0  0  0  0  0  0
  150.8307  145.8266  158.5396 H   0  0  0  0  0  0  0  0  0  0  0  0
  151.7642  145.9240  160.8440 H   0  0  0  0  0  0  0  0  0  0  0  0
  152.8916  143.9341  161.8097 H   0  0  0  0  0  0  0  0  0  0  0  0
  1  2  1  0  0  0  0
  1 33  1  0  0  0  0
  1 34  1  0  0  0  0
  1 35  1  0  0  0  0
  2  3  1  0  0  0  0
  2 22  1  0  0  0  0
  2 36  1  0  0  0  0
  3  4  1  0  0  0  0
  3 37  1  0  0  0  0
  4  9  1  0  0  0  0
  4  5  2  0  0  0  0
  5  6  1  0  0  0  0
  6  7  2  0  0  0  0
  6 38  1  0  0  0  0
  7  8  1  0  0  0  0
  8 12  1  0  0  0  0
  8  9  2  0  0  0  0
  9 10  1  0  0  0  0
 10 11  2  0  0  0  0
 11 12  1  0  0  0  0
 11 39  1  0  0  0  0
 12 13  1  0  0  0  0
 13 29  1  0  0  0  0
 13 20  1  0  0  0  0
 13 14  1  0  0  0  0
 14 15  1  0  0  0  0
 15 30  1  0  0  0  0
 15 16  1  0  0  0  0
 15 18  1  0  0  0  0
 16 17  1  0  0  0  0
 16 40  1  0  0  0  0
 16 41  1  0  0  0  0
 17 42  1  0  0  0  0
 18 31  1  0  0  0  0
 18 19  1  0  0  0  0
 18 20  1  0  0  0  0
 19 43  1  0  0  0  0
 20 32  1  0  0  0  0
 20 21  1  0  0  0  0
 21 44  1  0  0  0  0
 22 27  1  0  0  0  0
 22 23  2  0  0  0  0
 23 24  1  0  0  0  0
 23 45  1  0  0  0  0
 24 25  2  0  0  0  0
 24 46  1  0  0  0  0
 25 26  1  0  0  0  0
 25 47  1  0  0  0  0
 26 27  2  0  0  0  0
 26 48  1  0  0  0  0
 27 28  1  0  0  0  0
M  END
> <s_m_source_file>
AV-unprocessed.smi

> <i_m_source_file_index>
283

> <i_lp_mmshare_version>
43012

> <i_f3d_flags>
0

> <s_epik_input>
Q2xjMVtjSF1bY0hdW2NIXVtjSF1jMVtDQEhdKFtDSDNdKVtOSF1jKG5bY0hdbjIpYyhjMjMpbltjSF1uM1tDQEBIXTRPW0NASF0oW0NIMl1bT0hdKVtDQEBIXShbT0hdKVtDQEhdNFtPSF0=

> <s_epik_cmdline>
J2VwaWtfcHl0aG9uJywgJy1waCcsICc3LjAnLCAnLXRuJywgJzgnLCAnLW1hJywgJzIwMCcsICctbWV0YWxfYmluZGluZycsICctaW1hZScsICc8aW5maWxlLm1hZT4nLCAnLW9tYWUnLCAnPG91dGZpbGUubWFlPic=

> <r_lp_tautomer_probability>
1

> <r_epik_Ionization_Penalty>
0.000266407

> <r_epik_Ionization_Penalty_Charging>
0

> <r_epik_Ionization_Penalty_Neutral>
0.000266407

> <r_epik_State_Penalty>
-0

> <r_epik_Charging_Adjusted_Penalty>
0

> <i_epik_Tot_Q>
0

> <i_epik_Tot_abs_Q>
0

> <r_epik_Metal_State_Penalty>
-0

> <b_epik_Metal_Only>
0

> <s_epik_Chemistry_Notes>
This compound contains an acetal/aminal-like group ( X-CH(R)-Y where X, Y are N, S, or O) that may be acid/base labile, releasing an aldehyde.

> <s_lp_Force_Field>
OPLS_2005

> <r_lp_Energy>
51.2739

> <b_lp_Chiralities_Consistent>
1

> <s_lp_Variant>
AV-unprocessed.smi:283-29

> <Gold.Version>
5.8.1

> <Gold.Id.Protein>
6NUR|6NUR_protein|mol2

> <Gold.PLP.Fitness>
47.6825

> <Gold.PLP.PLP>
-42.1924

> <Gold.PLP.part.hbond>
-3.0482

> <Gold.PLP.part.metal>
0.0000

> <Gold.PLP.part.buried>
-7.2187

> <Gold.PLP.part.nonpolar>
-32.8624

> <Gold.PLP.part.repulsive>
1.5427

> <Gold.PLP.ligand.clash>
0.0000

> <Gold.PLP.ligand.torsion>
1.4487

> <Gold.PLP.Chemscore.Hbond>
2.7680

> <Gold.PLP.Chemscore.CHOScore>
0.0000

> <Gold.PLP.Chemscore.Metal>
0.0000

> <Gold.Chemscore.Hbonds>
donor molecule, donor type, donor heavy atom, donor atom, acceptor molecule, acceptor atom, score
      L1  H    17    42       P1  7948  1.00
      P1  H  6896  6907       L1    21  0.80
      P1  H 10752 10763       L1     7  0.99

> <Gold.PLP.Chemscore.Internal.Correction>
0.0836

> <Gold.Rescore>
     Score         DG    S(hbond)    S(metal)    S(lipo)     H(rot)  DE(clash)    DE(int)     intcor
      9.34     -14.59       1.93        0.00     112.39       4.10       0.26       4.99       ----

> <Gold.Chemscore.Fitness>
9.3431

> <Gold.Chemscore.DG>
-14.5911

> <Gold.Chemscore.ZeroCoef>
-5.4800

> <Gold.Chemscore.Hbond>
1.9308

> <Gold.Chemscore.Metal>
0.0000

> <Gold.Chemscore.Lipo>
112.3948

> <Gold.Chemscore.Internal_Hbond>
0.0000

> <Gold.Chemscore.DEClash>
0.2564

> <Gold.Chemscore.DEInternal>
4.9917

> <Gold.Chemscore.Rot>
4.0968

> <Gold.Chemscore.Internal.Correction>
   9.000000E+99

> <Gold.Chemscore.Hbonds>
donor molecule, donor type, donor heavy atom, donor atom, acceptor molecule, acceptor atom, score
      L1  H    17    42       P1  7948  0.26
      P1  H  6896  6907       L1    21  0.31
      P1  H 10752 10763       L1     7  0.75

> <Gold.Chemscore.Hbond.Weighted>
-6.4488

> <Gold.Chemscore.Metal.Weighted>
-0.0000

> <Gold.Chemscore.Lipo.Weighted>
-13.1502

> <Gold.Chemscore.Internal_Hbond.Weighted>
0.0000

> <Gold.Chemscore.DEClash.Weighted>
0.2564

> <Gold.Chemscore.DEInternal.Weighted>
4.9917

> <Gold.Chemscore.Rot.Weighted>
10.4879

> <Gold.Chemscore.Internal.Correction.Weighted>
   9.000000E+99

> <Gold.Protein.RotatedTorsions>
[ 6907 6896 6895 6894 ] final -108.31 input  -60.11 | X-H torsion
[ 7974 7965 7964 7962 ] final  129.90 input  175.53 | X-H torsion
[ 8008 7997 7996 7995 ] final  -60.32 input   59.86 | X-H torsion
[ 10167 10162 10161 10158 ] final -132.51 input  -65.29 | X-H torsion
[ 10718 10713 10712 10709 ] final  -15.82 input   66.30 | X-H torsion
[ 10763 10752 10751 10750 ] final  128.39 input  -60.55 | X-H torsion
[ 11005 11000 10999 10996 ] final  156.99 input  -57.11 | X-H torsion

> <Gold.Protein.ActiveResidues>
 VAL166  LYS551  ARG553  GLY616  TRP617  ASP618  TYR619  PRO620  LYS621  CYS622 
 ASP623  PHE694  ASN695  SER759  ASP760  ASP761  ALA762  ILE779  LEU786  VAL792 
 PHE793  MET794  SER795  GLU796  ALA797  LYS798  CYS799  TRP800  GLU811  SER814 

> <Gold.Protein.RotatedAtoms>
  150.7494  133.9696  159.3541 H   0  0  0  0  0  0  0  0  0  0  0  0  # atno 6907 bound_to 6896
  151.7629  135.0803  160.0357 H   0  0  0  0  0  0  0  0  0  0  0  0  # atno 6908 bound_to 6896
  152.3391  133.6009  159.5899 H   0  0  0  0  0  0  0  0  0  0  0  0  # atno 6909 bound_to 6896
  145.0236  139.4109  143.5185 H   0  0  0  0  0  0  0  0  0  0  0  0  # atno 7974 bound_to 7965
  154.4393  140.1042  156.6255 H   0  0  0  0  0  0  0  0  0  0  0  0  # atno 8008 bound_to 7997
  155.5661  140.3488  155.4485 H   0  0  0  0  0  0  0  0  0  0  0  0  # atno 8009 bound_to 7997
  156.0424  140.1285  157.0130 H   0  0  0  0  0  0  0  0  0  0  0  0  # atno 8010 bound_to 7997
  139.9078  143.6530  152.2582 H   0  0  0  0  0  0  0  0  0  0  0  0  # atno 10167 bound_to 10162
  156.5964  130.4812  149.6258 H   0  0  0  0  0  0  0  0  0  0  0  0  # atno 10718 bound_to 10713
  153.7247  135.3248  155.3274 H   0  0  0  0  0  0  0  0  0  0  0  0  # atno 10763 bound_to 10752
  154.8345  135.4508  154.1182 H   0  0  0  0  0  0  0  0  0  0  0  0  # atno 10764 bound_to 10752
  153.2312  135.6960  153.7968 H   0  0  0  0  0  0  0  0  0  0  0  0  # atno 10765 bound_to 10752
  140.1727  134.8531  157.2710 H   0  0  0  0  0  0  0  0  0  0  0  0  # atno 11005 bound_to 11000
  146.3489  139.9748  142.8702 LP  0  0  0  0  0  0  0  0  0  0  0  0  # atno 17320 bound_to 7965
  145.1863  140.9790  143.4237 LP  0  0  0  0  0  0  0  0  0  0  0  0  # atno 17321 bound_to 7965
  139.6969  144.7640  151.1341 LP  0  0  0  0  0  0  0  0  0  0  0  0  # atno 17342 bound_to 10162
  140.7692  143.5512  150.9203 LP  0  0  0  0  0  0  0  0  0  0  0  0  # atno 17343 bound_to 10162
  156.2506  130.6905  151.1641 LP  0  0  0  0  0  0  0  0  0  0  0  0  # atno 17370 bound_to 10713
  157.7291  131.0627  150.5791 LP  0  0  0  0  0  0  0  0  0  0  0  0  # atno 17371 bound_to 10713
  140.2358  134.3854  155.7502 LP  0  0  0  0  0  0  0  0  0  0  0  0  # atno 17394 bound_to 11000
  141.2218  133.7239  156.8712 LP  0  0  0  0  0  0  0  0  0  0  0  0  # atno 17395 bound_to 11000

$$$$
