AV-unprocessed.smi:2750|AV-procd|sdf|10594|dock4
  -GOLD-   2272015 43D 1   1.00000     0.00000
 Structure written by MMmdl.
 24 25  0  0  0  0  0  0  0  0  3 V2000
  154.2767  141.2151  161.1612 O   0  0  0  0  0  0  0  0  0  0  0  0
  154.0015  141.1502  159.9426 C   0  0  0  0  0  0  0  0  0  0  0  0
  154.2664  140.1879  159.1886 O   0  5  0  0  0  0  0  0  0  0  0  0
  153.2490  142.3312  159.3257 C   0  0  0  0  0  0  0  0  0  0  0  0
  151.9800  141.9456  158.7333 N   0  0  0  0  0  0  0  0  0  0  0  0
  151.7549  141.1905  157.6002 C   0  0  0  0  0  0  0  0  0  0  0  0
  150.3926  141.1212  157.5291 C   0  0  0  0  0  0  0  0  0  0  0  0
  149.5268  140.4180  156.5255 C   0  0  0  0  0  0  0  0  0  0  0  0
  150.2439  140.1537  155.1837 C   0  0  1  0  0  0  0  0  0  0  0  0
  151.3273  139.1955  155.3312 N   0  5  0  0  0  0  0  0  0  0  0  0
  151.0867  138.1449  154.5122 C   0  0  0  0  0  0  0  0  0  0  0  0
  151.7793  137.1426  154.3506 O   0  0  0  0  0  0  0  0  0  0  0  0
  149.9365  138.3135  153.8518 N   0  0  0  0  0  0  0  0  0  0  0  0
  149.3449  139.4575  154.1802 C   0  0  0  0  0  0  0  0  0  0  0  0
  148.2722  139.8906  153.7613 O   0  0  0  0  0  0  0  0  0  0  0  0
  149.8523  141.8328  158.6003 N   0  0  0  0  0  0  0  0  0  0  0  0
  150.8158  142.3241  159.3149 N   0  0  0  0  0  0  0  0  0  0  0  0
  153.0591  143.0910  160.0851 H   0  0  0  0  0  0  0  0  0  0  0  0
  153.8744  142.7965  158.5625 H   0  0  0  0  0  0  0  0  0  0  0  0
  152.5410  140.7891  156.9783 H   0  0  0  0  0  0  0  0  0  0  0  0
  149.1589  139.4800  156.9445 H   0  0  0  0  0  0  0  0  0  0  0  0
  148.6362  141.0222  156.3468 H   0  0  0  0  0  0  0  0  0  0  0  0
  150.5734  141.0962  154.7440 H   0  0  0  0  0  0  0  0  0  0  0  0
  149.5596  137.6485  153.1935 H   0  0  0  0  0  0  0  0  0  0  0  0
  1  2  2  0  0  0  0
  2  3  1  0  0  0  0
  2  4  1  0  0  0  0
  4  5  1  0  0  0  0
  4 18  1  0  0  0  0
  4 19  1  0  0  0  0
  5 17  1  0  0  0  0
  5  6  1  0  0  0  0
  6  7  2  0  0  0  0
  6 20  1  0  0  0  0
  7  8  1  0  0  0  0
  7 16  1  0  0  0  0
  8  9  1  0  0  0  0
  8 21  1  0  0  0  0
  8 22  1  0  0  0  0
  9 14  1  0  0  0  0
  9 10  1  0  0  0  0
  9 23  1  0  0  0  0
 10 11  1  0  0  0  0
 11 12  2  0  0  0  0
 11 13  1  0  0  0  0
 13 14  1  0  0  0  0
 13 24  1  0  0  0  0
 14 15  2  0  0  0  0
 16 17  2  0  0  0  0
M  CHG  1   3  -1
M  CHG  1  10  -1
M  END
> <s_m_source_file>
AV-unprocessed.smi

> <i_m_source_file_index>
2750

> <i_lp_mmshare_version>
43012

> <i_f3d_flags>
0

> <s_epik_input>
Tz1DKFtPSF0pW0NIMl1uMVtjSF1jKG5uMSlbQ0gyXVtDQEBIXTJbTkhdQyg9TylbTkhdQzI9Tw==

> <s_epik_cmdline>
J2VwaWtfcHl0aG9uJywgJy1waCcsICc3LjAnLCAnLXRuJywgJzgnLCAnLW1hJywgJzIwMCcsICctbWV0YWxfYmluZGluZycsICctaW1hZScsICc8aW5maWxlLm1hZT4nLCAnLW9tYWUnLCAnPG91dGZpbGUubWFlPic=

> <r_lp_tautomer_probability>
1

> <r_epik_Ionization_Penalty>
5.10791

> <r_epik_Ionization_Penalty_Charging>
5.10788

> <r_epik_Ionization_Penalty_Neutral>
2.55687e-05

> <r_epik_State_Penalty>
5.12334

> <r_epik_Charging_Adjusted_Penalty>
10.2312

> <i_epik_Tot_Q>
-2

> <i_epik_Tot_abs_Q>
2

> <r_epik_Metal_State_Penalty>
1.50935

> <b_epik_Metal_Only>
1

> <s_lp_Force_Field>
OPLS_2005

> <r_lp_Energy>
16.7857

> <b_lp_Chiralities_Consistent>
1

> <s_lp_Variant>
AV-unprocessed.smi:2750-6

> <Gold.Version>
5.8.1

> <Gold.Id.Protein>
6NUR|6NUR_protein|mol2

> <Gold.PLP.Fitness>
38.4087

> <Gold.PLP.PLP>
-27.5422

> <Gold.PLP.part.hbond>
-4.9949

> <Gold.PLP.part.metal>
0.0000

> <Gold.PLP.part.buried>
-4.8516

> <Gold.PLP.part.nonpolar>
-18.2621

> <Gold.PLP.part.repulsive>
1.4805

> <Gold.PLP.ligand.clash>
0.0000

> <Gold.PLP.ligand.torsion>
0.4159

> <Gold.PLP.Chemscore.Hbond>
3.8880

> <Gold.PLP.Chemscore.CHOScore>
0.0000

> <Gold.PLP.Chemscore.Metal>
0.0000

> <Gold.Chemscore.Hbonds>
donor molecule, donor type, donor heavy atom, donor atom, acceptor molecule, acceptor atom, score
      L1  H    13    24       P1  7948  1.00
      P1  H  7997  8009       L1     3  1.89
      P1  H 10752 10765       L1    12  1.00

> <Gold.PLP.Chemscore.Internal.Correction>
0.0342

> <Gold.Rescore>
     Score         DG    S(hbond)    S(metal)    S(lipo)     H(rot)  DE(clash)    DE(int)     intcor
     10.38     -11.57       2.80        0.00      33.27       2.80       0.83       0.36       ----

> <Gold.Chemscore.Fitness>
10.3786

> <Gold.Chemscore.DG>
-11.5673

> <Gold.Chemscore.ZeroCoef>
-5.4800

> <Gold.Chemscore.Hbond>
2.8010

> <Gold.Chemscore.Metal>
0.0000

> <Gold.Chemscore.Lipo>
33.2743

> <Gold.Chemscore.Internal_Hbond>
0.0000

> <Gold.Chemscore.DEClash>
0.8335

> <Gold.Chemscore.DEInternal>
0.3552

> <Gold.Chemscore.Rot>
2.7973

> <Gold.Chemscore.Internal.Correction>
   9.000000E+99

> <Gold.Chemscore.Hbonds>
donor molecule, donor type, donor heavy atom, donor atom, acceptor molecule, acceptor atom, score
      L1  H    13    24       P1  7948  0.82
      P1  H  7997  8009       L1     3  0.86
      P1  H 10752 10765       L1    12  0.96

> <Gold.Chemscore.Hbond.Weighted>
-9.3553

> <Gold.Chemscore.Metal.Weighted>
-0.0000

> <Gold.Chemscore.Lipo.Weighted>
-3.8931

> <Gold.Chemscore.Internal_Hbond.Weighted>
0.0000

> <Gold.Chemscore.DEClash.Weighted>
0.8335

> <Gold.Chemscore.DEInternal.Weighted>
0.3552

> <Gold.Chemscore.Rot.Weighted>
7.1611

> <Gold.Chemscore.Internal.Correction.Weighted>
   9.000000E+99

> <Gold.Protein.RotatedTorsions>
[ 6907 6896 6895 6894 ] final -120.57 input  -60.11 | X-H torsion
[ 7974 7965 7964 7962 ] final  -97.34 input  175.53 | X-H torsion
[ 8008 7997 7996 7995 ] final  125.63 input   59.86 | X-H torsion
[ 10167 10162 10161 10158 ] final  -20.67 input  -65.29 | X-H torsion
[ 10718 10713 10712 10709 ] final  104.25 input   66.30 | X-H torsion
[ 10763 10752 10751 10750 ] final  151.13 input  -60.55 | X-H torsion
[ 11005 11000 10999 10996 ] final  153.77 input  -57.11 | X-H torsion

> <Gold.Protein.ActiveResidues>
 VAL166  LYS551  ARG553  GLY616  TRP617  ASP618  TYR619  PRO620  LYS621  CYS622 
 ASP623  PHE694  ASN695  SER759  ASP760  ASP761  ALA762  ILE779  LEU786  VAL792 
 PHE793  MET794  SER795  GLU796  ALA797  LYS798  CYS799  TRP800  GLU811  SER814 

> <Gold.Protein.RotatedAtoms>
  150.8405  133.7944  159.3062 H   0  0  0  0  0  0  0  0  0  0  0  0  # atno 6907 bound_to 6896
  151.5646  135.1063  159.9990 H   0  0  0  0  0  0  0  0  0  0  0  0  # atno 6908 bound_to 6896
  152.4470  133.7512  159.6751 H   0  0  0  0  0  0  0  0  0  0  0  0  # atno 6909 bound_to 6896
  145.3350  140.9449  143.2640 H   0  0  0  0  0  0  0  0  0  0  0  0  # atno 7974 bound_to 7965
  156.2840  140.2712  156.1980 H   0  0  0  0  0  0  0  0  0  0  0  0  # atno 8008 bound_to 7997
  155.0390  140.0386  157.2520 H   0  0  0  0  0  0  0  0  0  0  0  0  # atno 8009 bound_to 7997
  154.7290  140.2703  155.6478 H   0  0  0  0  0  0  0  0  0  0  0  0  # atno 8010 bound_to 7997
  140.7277  143.4700  151.0260 H   0  0  0  0  0  0  0  0  0  0  0  0  # atno 10167 bound_to 10162
  157.6746  131.0799  150.5678 H   0  0  0  0  0  0  0  0  0  0  0  0  # atno 10718 bound_to 10713
  154.0988  135.2847  155.3256 H   0  0  0  0  0  0  0  0  0  0  0  0  # atno 10763 bound_to 10752
  154.6569  135.5348  153.7973 H   0  0  0  0  0  0  0  0  0  0  0  0  # atno 10764 bound_to 10752
  153.0386  135.6524  154.1153 H   0  0  0  0  0  0  0  0  0  0  0  0  # atno 10765 bound_to 10752
  140.1428  134.8727  157.2353 H   0  0  0  0  0  0  0  0  0  0  0  0  # atno 11005 bound_to 11000
  144.8834  139.4872  143.6712 LP  0  0  0  0  0  0  0  0  0  0  0  0  # atno 17320 bound_to 7965
  146.3030  139.7488  142.9077 LP  0  0  0  0  0  0  0  0  0  0  0  0  # atno 17321 bound_to 7965
  139.8391  143.7587  152.3180 LP  0  0  0  0  0  0  0  0  0  0  0  0  # atno 17342 bound_to 10162
  139.7730  144.7470  151.0197 LP  0  0  0  0  0  0  0  0  0  0  0  0  # atno 17343 bound_to 10162
  156.5980  130.4347  149.5909 LP  0  0  0  0  0  0  0  0  0  0  0  0  # atno 17370 bound_to 10713
  156.2529  130.6918  151.1662 LP  0  0  0  0  0  0  0  0  0  0  0  0  # atno 17371 bound_to 10713
  140.2701  134.3470  155.7376 LP  0  0  0  0  0  0  0  0  0  0  0  0  # atno 17394 bound_to 11000
  141.2188  133.7418  156.9209 LP  0  0  0  0  0  0  0  0  0  0  0  0  # atno 17395 bound_to 11000

$$$$
