AV-unprocessed.smi:2134|AV-procd|sdf|8694|dock6
  -GOLD-   2272011453D 1   1.00000     0.00000
 Structure written by MMmdl.
 35 36  0  0  0  0  0  0  0  0  1 V2000
  150.9690  141.3928  156.8755 C   0  0  0  0  0  0  0  0  0  0  0  0
  150.7570  140.3183  155.9078 N   0  0  0  0  0  0  0  0  0  0  0  0
  149.5874  140.4147  155.1822 N   0  0  0  0  0  0  0  0  0  0  0  0
  149.1434  139.4351  154.4585 C   0  0  0  0  0  0  0  0  0  0  0  0
  147.8631  139.5789  153.7167 C   0  0  0  0  0  0  0  0  0  0  0  0
  147.1372  140.5584  153.8895 O   0  0  0  0  0  0  0  0  0  0  0  0
  147.5737  138.5936  152.8460 N   0  0  0  0  0  0  0  0  0  0  0  0
  146.4268  138.5646  151.9418 C   0  0  0  0  0  0  0  0  0  0  0  0
  145.3108  137.6362  152.4581 C   0  0  0  0  0  0  0  0  0  0  0  0
  145.4579  136.1959  151.9985 C   0  0  0  0  0  0  0  0  0  0  0  0
  146.0225  135.2177  152.8435 C   0  0  0  0  0  0  0  0  0  0  0  0
  146.1623  133.9027  152.3603 C   0  0  0  0  0  0  0  0  0  0  0  0
  145.7280  133.6208  151.0496 C   0  0  0  0  0  0  0  0  0  0  0  0
  145.1835  134.5481  150.2327 N   0  0  0  0  0  0  0  0  0  0  0  0
  145.0548  135.8072  150.7033 C   0  0  0  0  0  0  0  0  0  0  0  0
  149.8983  138.1224  154.3910 C   0  0  0  0  0  0  0  0  0  0  0  0
  151.4057  138.3060  154.6565 C   0  0  0  0  0  0  0  0  0  0  0  0
  151.6801  139.3362  155.7559 C   0  0  0  0  0  0  0  0  0  0  0  0
  152.7090  139.2546  156.4264 O   0  0  0  0  0  0  0  0  0  0  0  0
  151.9025  141.9188  156.6695 H   0  0  0  0  0  0  0  0  0  0  0  0
  151.0204  140.9905  157.8884 H   0  0  0  0  0  0  0  0  0  0  0  0
  150.1644  142.1298  156.8536 H   0  0  0  0  0  0  0  0  0  0  0  0
  148.2266  137.8262  152.7749 H   0  0  0  0  0  0  0  0  0  0  0  0
  146.0418  139.5797  151.8441 H   0  0  0  0  0  0  0  0  0  0  0  0
  146.7319  138.2596  150.9396 H   0  0  0  0  0  0  0  0  0  0  0  0
  145.2909  137.6605  153.5485 H   0  0  0  0  0  0  0  0  0  0  0  0
  144.3406  138.0110  152.1299 H   0  0  0  0  0  0  0  0  0  0  0  0
  146.3530  135.4704  153.8404 H   0  0  0  0  0  0  0  0  0  0  0  0
  146.5943  133.1293  152.9779 H   0  0  0  0  0  0  0  0  0  0  0  0
  145.8212  132.6231  150.6467 H   0  0  0  0  0  0  0  0  0  0  0  0
  144.6252  136.5280  150.0230 H   0  0  0  0  0  0  0  0  0  0  0  0
  149.4747  137.4270  155.1165 H   0  0  0  0  0  0  0  0  0  0  0  0
  149.7751  137.6577  153.4119 H   0  0  0  0  0  0  0  0  0  0  0  0
  151.8645  137.3507  154.9135 H   0  0  0  0  0  0  0  0  0  0  0  0
  151.8976  138.6573  153.7486 H   0  0  0  0  0  0  0  0  0  0  0  0
  1  2  1  0  0  0  0
  1 20  1  0  0  0  0
  1 21  1  0  0  0  0
  1 22  1  0  0  0  0
  2 18  1  0  0  0  0
  2  3  1  0  0  0  0
  3  4  2  0  0  0  0
  4  5  1  0  0  0  0
  4 16  1  0  0  0  0
  5  6  2  0  0  0  0
  5  7  1  0  0  0  0
  7  8  1  0  0  0  0
  7 23  1  0  0  0  0
  8  9  1  0  0  0  0
  8 24  1  0  0  0  0
  8 25  1  0  0  0  0
  9 10  1  0  0  0  0
  9 26  1  0  0  0  0
  9 27  1  0  0  0  0
 10 15  1  0  0  0  0
 10 11  2  0  0  0  0
 11 12  1  0  0  0  0
 11 28  1  0  0  0  0
 12 13  2  0  0  0  0
 12 29  1  0  0  0  0
 13 14  1  0  0  0  0
 13 30  1  0  0  0  0
 14 15  2  0  0  0  0
 15 31  1  0  0  0  0
 16 17  1  0  0  0  0
 16 32  1  0  0  0  0
 16 33  1  0  0  0  0
 17 18  1  0  0  0  0
 17 34  1  0  0  0  0
 17 35  1  0  0  0  0
 18 19  2  0  0  0  0
M  END
> <s_m_source_file>
AV-unprocessed.smi

> <i_m_source_file_index>
2134

> <i_lp_mmshare_version>
43012

> <i_f3d_flags>
0

> <s_epik_input>
Tz1DMVtDSDJdW0NIMl1DKD1OTjFbQ0gzXSlDKD1PKVtOSF1bQ0gyXVtDSDJdYzJbY0hdW2NIXVtjSF1uW2NIXTI=

> <s_epik_cmdline>
J2VwaWtfcHl0aG9uJywgJy1waCcsICc3LjAnLCAnLXRuJywgJzgnLCAnLW1hJywgJzIwMCcsICctbWV0YWxfYmluZGluZycsICctaW1hZScsICc8aW5maWxlLm1hZT4nLCAnLW9tYWUnLCAnPG91dGZpbGUubWFlPic=

> <r_epik_Ionization_Penalty>
0.00938916

> <r_epik_Ionization_Penalty_Charging>
0

> <r_epik_Ionization_Penalty_Neutral>
0.00938916

> <r_epik_State_Penalty>
0.00707201

> <r_epik_Charging_Adjusted_Penalty>
0.00707201

> <i_epik_Tot_Q>
0

> <i_epik_Tot_abs_Q>
0

> <r_epik_Metal_State_Penalty>
0.0638513

> <b_epik_Metal_Only>
0

> <s_epik_Chemistry_Notes>
This compound has an imine and may undergo hydrolysis.

> <s_lp_Force_Field>
OPLS_2005

> <r_lp_Energy>
16.2415

> <b_lp_Chiralities_Consistent>
1

> <s_lp_Variant>
AV-unprocessed.smi:2134-1

> <Gold.Version>
5.8.1

> <Gold.Id.Protein>
6NUR|6NUR_protein|mol2

> <Gold.PLP.Fitness>
43.6709

> <Gold.PLP.PLP>
-36.0696

> <Gold.PLP.part.hbond>
-3.0000

> <Gold.PLP.part.metal>
0.0000

> <Gold.PLP.part.buried>
-4.0561

> <Gold.PLP.part.nonpolar>
-31.3963

> <Gold.PLP.part.repulsive>
1.1408

> <Gold.PLP.ligand.clash>
0.0000

> <Gold.PLP.ligand.torsion>
0.6229

> <Gold.PLP.Chemscore.Hbond>
1.9440

> <Gold.PLP.Chemscore.CHOScore>
1.0000

> <Gold.PLP.Chemscore.Metal>
0.0000

> <Gold.Chemscore.Hbonds>
donor molecule, donor type, donor heavy atom, donor atom, acceptor molecule, acceptor atom, score
      L1  H     7    23       P1  7948  1.00
      P1  H  7997  8010       L1    19  1.00
      L1  C    15    31       P1 10171  1.00

> <Gold.PLP.Chemscore.Internal.Correction>
0.0150

> <Gold.Rescore>
     Score         DG    S(hbond)    S(metal)    S(lipo)     H(rot)  DE(clash)    DE(int)     intcor
     15.20     -15.92       1.97        0.00      64.51       1.45       0.00       0.72       ----

> <Gold.Chemscore.Fitness>
15.1982

> <Gold.Chemscore.DG>
-15.9165

> <Gold.Chemscore.ZeroCoef>
-5.4800

> <Gold.Chemscore.Hbond>
1.9747

> <Gold.Chemscore.Metal>
0.0000

> <Gold.Chemscore.Lipo>
64.5133

> <Gold.Chemscore.Internal_Hbond>
0.0000

> <Gold.Chemscore.DEClash>
0.0009

> <Gold.Chemscore.DEInternal>
0.7174

> <Gold.Chemscore.Rot>
1.4480

> <Gold.Chemscore.Internal.Correction>
   9.000000E+99

> <Gold.Chemscore.Hbonds>
donor molecule, donor type, donor heavy atom, donor atom, acceptor molecule, acceptor atom, score
      L1  H     7    23       P1  7948  0.95
      P1  H  7997  8010       L1    19  1.00

> <Gold.Chemscore.Hbond.Weighted>
-6.5955

> <Gold.Chemscore.Metal.Weighted>
-0.0000

> <Gold.Chemscore.Lipo.Weighted>
-7.5481

> <Gold.Chemscore.Internal_Hbond.Weighted>
0.0000

> <Gold.Chemscore.DEClash.Weighted>
0.0009

> <Gold.Chemscore.DEInternal.Weighted>
0.7174

> <Gold.Chemscore.Rot.Weighted>
3.7070

> <Gold.Chemscore.Internal.Correction.Weighted>
   9.000000E+99

> <Gold.Protein.RotatedTorsions>
[ 6907 6896 6895 6894 ] final  -45.03 input  -60.11 | X-H torsion
[ 7974 7965 7964 7962 ] final  169.31 input  175.53 | X-H torsion
[ 8008 7997 7996 7995 ] final   81.13 input   59.86 | X-H torsion
[ 10167 10162 10161 10158 ] final   25.96 input  -65.29 | X-H torsion
[ 10718 10713 10712 10709 ] final -157.62 input   66.30 | X-H torsion
[ 10763 10752 10751 10750 ] final   17.21 input  -60.55 | X-H torsion
[ 11005 11000 10999 10996 ] final  -78.44 input  -57.11 | X-H torsion

> <Gold.Protein.ActiveResidues>
 VAL166  LYS551  ARG553  GLY616  TRP617  ASP618  TYR619  PRO620  LYS621  CYS622 
 ASP623  PHE694  ASN695  SER759  ASP760  ASP761  ALA762  ILE779  LEU786  VAL792 
 PHE793  MET794  SER795  GLU796  ALA797  LYS798  CYS799  TRP800  GLU811  SER814 

> <Gold.Protein.RotatedAtoms>
  150.9264  134.8680  159.7522 H   0  0  0  0  0  0  0  0  0  0  0  0  # atno 6907 bound_to 6896
  152.5017  134.4143  159.9469 H   0  0  0  0  0  0  0  0  0  0  0  0  # atno 6908 bound_to 6896
  151.4173  133.3669  159.2786 H   0  0  0  0  0  0  0  0  0  0  0  0  # atno 6909 bound_to 6896
  144.7359  139.9036  143.6411 H   0  0  0  0  0  0  0  0  0  0  0  0  # atno 7974 bound_to 7965
  155.8930  140.3437  155.5970 H   0  0  0  0  0  0  0  0  0  0  0  0  # atno 8008 bound_to 7997
  155.7589  140.0830  157.2184 H   0  0  0  0  0  0  0  0  0  0  0  0  # atno 8009 bound_to 7997
  154.4035  140.1539  156.2797 H   0  0  0  0  0  0  0  0  0  0  0  0  # atno 8010 bound_to 7997
  140.5062  144.0234  150.6353 H   0  0  0  0  0  0  0  0  0  0  0  0  # atno 10167 bound_to 10162
  156.5428  130.8571  151.2754 H   0  0  0  0  0  0  0  0  0  0  0  0  # atno 10718 bound_to 10713
  153.1359  135.6750  153.9103 H   0  0  0  0  0  0  0  0  0  0  0  0  # atno 10763 bound_to 10752
  153.8575  135.3085  155.3437 H   0  0  0  0  0  0  0  0  0  0  0  0  # atno 10764 bound_to 10752
  154.7747  135.4920  153.9803 H   0  0  0  0  0  0  0  0  0  0  0  0  # atno 10765 bound_to 10752
  141.1665  133.7063  156.7971 H   0  0  0  0  0  0  0  0  0  0  0  0  # atno 11005 bound_to 11000
  146.1053  139.4053  143.0321 LP  0  0  0  0  0  0  0  0  0  0  0  0  # atno 17320 bound_to 7965
  145.7520  140.9969  143.1245 LP  0  0  0  0  0  0  0  0  0  0  0  0  # atno 17321 bound_to 7965
  140.3544  143.2944  152.0452 LP  0  0  0  0  0  0  0  0  0  0  0  0  # atno 17342 bound_to 10162
  139.4884  144.6350  151.6994 LP  0  0  0  0  0  0  0  0  0  0  0  0  # atno 17343 bound_to 10162
  157.7402  130.9846  150.2362 LP  0  0  0  0  0  0  0  0  0  0  0  0  # atno 17370 bound_to 10713
  156.2955  130.3751  149.7800 LP  0  0  0  0  0  0  0  0  0  0  0  0  # atno 17371 bound_to 10713
  140.2283  134.8705  157.3450 LP  0  0  0  0  0  0  0  0  0  0  0  0  # atno 17394 bound_to 11000
  140.1917  134.4363  155.7712 LP  0  0  0  0  0  0  0  0  0  0  0  0  # atno 17395 bound_to 11000

$$$$
