AV-unprocessed.smi:3068|AV-procd|sdf|11709|dock1
  -GOLD-   2272017113D 1   1.00000     0.00000
 Structure written by MMmdl.
 39 41  0  0  0  0  0  0  0  0  1 V2000
  153.8832  136.3192  159.9151 N   0  0  0  0  0  0  0  0  0  0  0  0
  154.1728  136.6628  160.9815 C   0  0  0  0  0  0  0  0  0  0  0  0
  154.5367  137.0957  162.3246 C   0  0  0  0  0  0  0  0  0  0  0  0
  154.1035  136.3253  163.3494 N   0  0  0  0  0  0  0  0  0  0  0  0
  154.4335  136.7155  164.5989 C   0  0  0  0  0  0  0  0  0  0  0  0
  155.1984  137.8748  164.8317 C   0  0  0  0  0  0  0  0  0  0  0  0
  155.6358  138.6481  163.8156 N   0  0  0  0  0  0  0  0  0  0  0  0
  155.3084  138.2699  162.5544 C   0  0  0  0  0  0  0  0  0  0  0  0
  155.7584  139.0649  161.4838 N   0  0  0  0  0  0  0  0  0  0  0  0
  154.8426  139.5770  160.4709 C   0  0  0  0  0  0  0  0  0  0  0  0
  154.5019  141.0612  160.6830 C   0  0  1  0  0  0  0  0  0  0  0  0
  153.7104  141.6377  159.4949 C   0  0  0  0  0  0  0  0  0  0  0  0
  153.3208  143.0233  159.7231 N   0  0  0  0  0  0  0  0  0  0  0  0
  152.5646  143.5565  158.5914 C   0  0  0  0  0  0  0  0  0  0  0  0
  152.1716  145.0288  158.7916 C   0  0  0  0  0  0  0  0  0  0  0  0
  151.3714  145.1948  160.0914 C   0  0  0  0  0  0  0  0  0  0  0  0
  152.1460  144.5835  161.2691 C   0  0  0  0  0  0  0  0  0  0  0  0
  152.5511  143.1260  160.9665 C   0  0  2  0  0  0  0  0  0  0  0  0
  153.3330  142.5209  162.1503 C   0  0  0  0  0  0  0  0  0  0  0  0
  153.6975  141.1766  161.8543 O   0  0  0  0  0  0  0  0  0  0  0  0
  154.0870  136.0999  165.4159 H   0  0  0  0  0  0  0  0  0  0  0  0
  155.4601  138.1821  165.8333 H   0  0  0  0  0  0  0  0  0  0  0  0
  156.7486  139.1051  161.2881 H   0  0  0  0  0  0  0  0  0  0  0  0
  155.2727  139.4236  159.4806 H   0  0  0  0  0  0  0  0  0  0  0  0
  153.9297  138.9813  160.4990 H   0  0  0  0  0  0  0  0  0  0  0  0
  155.4186  141.6385  160.8141 H   0  0  0  0  0  0  0  0  0  0  0  0
  154.3161  141.5720  158.5902 H   0  0  0  0  0  0  0  0  0  0  0  0
  152.8225  141.0278  159.3203 H   0  0  0  0  0  0  0  0  0  0  0  0
  153.1575  143.4674  157.6804 H   0  0  0  0  0  0  0  0  0  0  0  0
  151.6648  142.9600  158.4333 H   0  0  0  0  0  0  0  0  0  0  0  0
  153.0705  145.6454  158.8307 H   0  0  0  0  0  0  0  0  0  0  0  0
  151.5872  145.3818  157.9418 H   0  0  0  0  0  0  0  0  0  0  0  0
  151.1653  146.2489  160.2786 H   0  0  0  0  0  0  0  0  0  0  0  0
  150.4053  144.6986  159.9920 H   0  0  0  0  0  0  0  0  0  0  0  0
  153.0378  145.1803  161.4658 H   0  0  0  0  0  0  0  0  0  0  0  0
  151.5373  144.6270  162.1730 H   0  0  0  0  0  0  0  0  0  0  0  0
  151.6341  142.5450  160.8525 H   0  0  0  0  0  0  0  0  0  0  0  0
  154.2291  143.1049  162.3669 H   0  0  0  0  0  0  0  0  0  0  0  0
  152.7220  142.5264  163.0532 H   0  0  0  0  0  0  0  0  0  0  0  0
  1  2  3  0  0  0  0
  2  3  1  0  0  0  0
  3  8  1  0  0  0  0
  3  4  2  0  0  0  0
  4  5  1  0  0  0  0
  5  6  2  0  0  0  0
  5 21  1  0  0  0  0
  6  7  1  0  0  0  0
  6 22  1  0  0  0  0
  7  8  2  0  0  0  0
  8  9  1  0  0  0  0
  9 10  1  0  0  0  0
  9 23  1  0  0  0  0
 10 11  1  0  0  0  0
 10 24  1  0  0  0  0
 10 25  1  0  0  0  0
 11 20  1  0  0  0  0
 11 12  1  0  0  0  0
 11 26  1  0  0  0  0
 12 13  1  0  0  0  0
 12 27  1  0  0  0  0
 12 28  1  0  0  0  0
 13 18  1  0  0  0  0
 13 14  1  0  0  0  0
 14 15  1  0  0  0  0
 14 29  1  0  0  0  0
 14 30  1  0  0  0  0
 15 16  1  0  0  0  0
 15 31  1  0  0  0  0
 15 32  1  0  0  0  0
 16 17  1  0  0  0  0
 16 33  1  0  0  0  0
 16 34  1  0  0  0  0
 17 18  1  0  0  0  0
 17 35  1  0  0  0  0
 17 36  1  0  0  0  0
 18 19  1  0  0  0  0
 18 37  1  0  0  0  0
 19 20  1  0  0  0  0
 19 38  1  0  0  0  0
 19 39  1  0  0  0  0
M  END
> <s_m_source_file>
AV-unprocessed.smi

> <i_m_source_file_index>
3068

> <i_lp_mmshare_version>
43012

> <i_f3d_flags>
0

> <s_epik_input>
TiNDYzFuW2NIXVtjSF1uYzFbTkhdW0NIMl1bQ0BIXShbQ0gyXTIpT1tDSDJdW0NAQEhdKE4yMylbQ0gyXVtDSDJdW0NIMl1bQ0gyXTM=

> <s_epik_cmdline>
J2VwaWtfcHl0aG9uJywgJy1waCcsICc3LjAnLCAnLXRuJywgJzgnLCAnLW1hJywgJzIwMCcsICctbWV0YWxfYmluZGluZycsICctaW1hZScsICc8aW5maWxlLm1hZT4nLCAnLW9tYWUnLCAnPG91dGZpbGUubWFlPic=

> <r_epik_Ionization_Penalty>
1.22359

> <r_epik_Ionization_Penalty_Charging>
0

> <r_epik_Ionization_Penalty_Neutral>
1.22359

> <r_epik_State_Penalty>
1.29103

> <r_epik_Charging_Adjusted_Penalty>
1.29103

> <i_epik_Tot_Q>
0

> <i_epik_Tot_abs_Q>
0

> <r_epik_Metal_State_Penalty>
1.29103

> <b_epik_Metal_Only>
0

> <s_lp_Force_Field>
OPLS_2005

> <r_lp_Energy>
45.8407

> <b_lp_Chiralities_Consistent>
1

> <s_lp_Variant>
AV-unprocessed.smi:3068-12

> <Gold.Version>
5.8.1

> <Gold.Id.Protein>
6NUR|6NUR_protein|mol2

> <Gold.PLP.Fitness>
48.8940

> <Gold.PLP.PLP>
-47.1700

> <Gold.PLP.part.hbond>
-1.0000

> <Gold.PLP.part.metal>
0.0000

> <Gold.PLP.part.buried>
-6.0518

> <Gold.PLP.part.nonpolar>
-39.5298

> <Gold.PLP.part.repulsive>
0.0357

> <Gold.PLP.ligand.clash>
0.0000

> <Gold.PLP.ligand.torsion>
0.6402

> <Gold.PLP.Chemscore.Hbond>
1.0000

> <Gold.PLP.Chemscore.CHOScore>
0.0000

> <Gold.PLP.Chemscore.Metal>
0.0000

> <Gold.Chemscore.Hbonds>
donor molecule, donor type, donor heavy atom, donor atom, acceptor molecule, acceptor atom, score
      P1  H  6896  6909       L1     1  0.62

> <Gold.PLP.Chemscore.Internal.Correction>
0.0044

> <Gold.Rescore>
     Score         DG    S(hbond)    S(metal)    S(lipo)     H(rot)  DE(clash)    DE(int)     intcor
     19.03     -19.76       1.00        0.00     122.03       1.30       0.01       0.72       ----

> <Gold.Chemscore.Fitness>
19.0263

> <Gold.Chemscore.DG>
-19.7559

> <Gold.Chemscore.ZeroCoef>
-5.4800

> <Gold.Chemscore.Hbond>
0.9972

> <Gold.Chemscore.Metal>
0.0000

> <Gold.Chemscore.Lipo>
122.0330

> <Gold.Chemscore.Internal_Hbond>
0.0000

> <Gold.Chemscore.DEClash>
0.0121

> <Gold.Chemscore.DEInternal>
0.7175

> <Gold.Chemscore.Rot>
1.3019

> <Gold.Chemscore.Internal.Correction>
   9.000000E+99

> <Gold.Chemscore.Hbonds>
donor molecule, donor type, donor heavy atom, donor atom, acceptor molecule, acceptor atom, score
      P1  H  6896  6909       L1     1  0.45

> <Gold.Chemscore.Hbond.Weighted>
-3.3307

> <Gold.Chemscore.Metal.Weighted>
-0.0000

> <Gold.Chemscore.Lipo.Weighted>
-14.2779

> <Gold.Chemscore.Internal_Hbond.Weighted>
0.0000

> <Gold.Chemscore.DEClash.Weighted>
0.0121

> <Gold.Chemscore.DEInternal.Weighted>
0.7175

> <Gold.Chemscore.Rot.Weighted>
3.3327

> <Gold.Chemscore.Internal.Correction.Weighted>
   9.000000E+99

> <Gold.Protein.RotatedTorsions>
[ 6907 6896 6895 6894 ] final -178.88 input  -60.11 | X-H torsion
[ 7974 7965 7964 7962 ] final -126.82 input  175.53 | X-H torsion
[ 8008 7997 7996 7995 ] final  167.07 input   59.86 | X-H torsion
[ 10167 10162 10161 10158 ] final -100.76 input  -65.29 | X-H torsion
[ 10718 10713 10712 10709 ] final -161.17 input   66.30 | X-H torsion
[ 10763 10752 10751 10750 ] final  167.28 input  -60.55 | X-H torsion
[ 11005 11000 10999 10996 ] final  139.73 input  -57.11 | X-H torsion

> <Gold.Protein.ActiveResidues>
 VAL166  LYS551  ARG553  GLY616  TRP617  ASP618  TYR619  PRO620  LYS621  CYS622 
 ASP623  PHE694  ASN695  SER759  ASP760  ASP761  ALA762  ILE779  LEU786  VAL792 
 PHE793  MET794  SER795  GLU796  ALA797  LYS798  CYS799  TRP800  GLU811  SER814 

> <Gold.Protein.RotatedAtoms>
  151.6444  133.3324  159.3137 H   0  0  0  0  0  0  0  0  0  0  0  0  # atno 6907 bound_to 6896
  150.7992  134.7077  159.6595 H   0  0  0  0  0  0  0  0  0  0  0  0  # atno 6908 bound_to 6896
  152.4082  134.6174  160.0093 H   0  0  0  0  0  0  0  0  0  0  0  0  # atno 6909 bound_to 6896
  144.9834  140.7662  143.4598 H   0  0  0  0  0  0  0  0  0  0  0  0  # atno 7974 bound_to 7965
  156.1665  140.1626  156.8522 H   0  0  0  0  0  0  0  0  0  0  0  0  # atno 8008 bound_to 7997
  154.5213  140.0777  156.8211 H   0  0  0  0  0  0  0  0  0  0  0  0  # atno 8009 bound_to 7997
  155.3601  140.3395  155.4243 H   0  0  0  0  0  0  0  0  0  0  0  0  # atno 8010 bound_to 7997
  140.2485  143.3489  152.0736 H   0  0  0  0  0  0  0  0  0  0  0  0  # atno 10167 bound_to 10162
  156.5925  130.8776  151.2893 H   0  0  0  0  0  0  0  0  0  0  0  0  # atno 10718 bound_to 10713
  154.3515  135.2753  155.2369 H   0  0  0  0  0  0  0  0  0  0  0  0  # atno 10763 bound_to 10752
  154.4597  135.5910  153.6250 H   0  0  0  0  0  0  0  0  0  0  0  0  # atno 10764 bound_to 10752
  152.9849  135.6062  154.3726 H   0  0  0  0  0  0  0  0  0  0  0  0  # atno 10765 bound_to 10752
  140.0276  134.9367  157.0599 H   0  0  0  0  0  0  0  0  0  0  0  0  # atno 11005 bound_to 11000
  145.2388  139.2082  143.5003 LP  0  0  0  0  0  0  0  0  0  0  0  0  # atno 17320 bound_to 7965
  146.3414  140.2279  142.8592 LP  0  0  0  0  0  0  0  0  0  0  0  0  # atno 17321 bound_to 7965
  139.5054  144.6793  151.6048 LP  0  0  0  0  0  0  0  0  0  0  0  0  # atno 17342 bound_to 10162
  140.6059  143.9526  150.6418 LP  0  0  0  0  0  0  0  0  0  0  0  0  # atno 17343 bound_to 10162
  157.7300  130.9679  150.1813 LP  0  0  0  0  0  0  0  0  0  0  0  0  # atno 17370 bound_to 10713
  156.2538  130.3703  149.8204 LP  0  0  0  0  0  0  0  0  0  0  0  0  # atno 17371 bound_to 10713
  140.4280  134.1811  155.7167 LP  0  0  0  0  0  0  0  0  0  0  0  0  # atno 17394 bound_to 11000
  141.1812  133.8410  157.1251 LP  0  0  0  0  0  0  0  0  0  0  0  0  # atno 17395 bound_to 11000

$$$$
