AV-unprocessed.smi:2858|AV-procd|sdf|11003|dock2
  -GOLD-   2272015463D 1   1.00000     0.00000
 Structure written by MMmdl.
 39 40  0  0  0  0  0  0  0  0  3 V2000
  152.7996  139.0923  155.8477 O   0  0  0  0  0  0  0  0  0  0  0  0
  151.7755  139.7647  155.9455 C   0  0  0  0  0  0  0  0  0  0  0  0
  150.7157  139.5953  154.8230 C   0  0  0  0  0  0  0  0  0  0  0  0
  149.7637  140.7426  154.7645 N   0  3  1  0  0  0  0  0  0  0  0  0
  148.6956  140.5713  153.7470 C   0  0  0  0  0  0  0  0  0  0  0  0
  147.7775  139.3729  154.0420 C   0  0  0  0  0  0  0  0  0  0  0  0
  146.7850  139.1035  152.8986 C   0  0  0  0  0  0  0  0  0  0  0  0
  146.9622  137.7716  152.3309 N   0  0  0  0  0  0  0  0  0  0  0  0
  145.9795  136.8780  152.1462 C   0  0  0  0  0  0  0  0  0  0  0  0
  144.8030  137.0965  152.4374 O   0  0  0  0  0  0  0  0  0  0  0  0
  146.4515  135.7368  151.6137 N   0  0  0  0  0  0  0  0  0  0  0  0
  145.7248  134.5720  151.2485 C   0  0  0  0  0  0  0  0  0  0  0  0
  146.5141  133.4933  150.7896 C   0  0  0  0  0  0  0  0  0  0  0  0
  145.8880  132.2935  150.3994 C   0  0  0  0  0  0  0  0  0  0  0  0
  144.4868  132.2032  150.4783 C   0  0  0  0  0  0  0  0  0  0  0  0
  143.7756  133.3238  150.9452 C   0  0  0  0  0  0  0  0  0  0  0  0
  144.3735  134.4749  151.3189 N   0  0  0  0  0  0  0  0  0  0  0  0
  149.2173  141.0751  156.1057 C   0  0  0  0  0  0  0  0  0  0  0  0
  150.3448  141.5398  157.0468 C   0  0  0  0  0  0  0  0  0  0  0  0
  151.4775  140.6101  156.9806 N   0  5  0  0  0  0  0  0  0  0  0  0
  151.2388  139.4904  153.8732 H   0  0  0  0  0  0  0  0  0  0  0  0
  150.1694  138.6675  154.9988 H   0  0  0  0  0  0  0  0  0  0  0  0
  148.1145  141.4905  153.6617 H   0  0  0  0  0  0  0  0  0  0  0  0
  149.1613  140.4074  152.7742 H   0  0  0  0  0  0  0  0  0  0  0  0
  148.3910  138.4871  154.2121 H   0  0  0  0  0  0  0  0  0  0  0  0
  147.2152  139.5435  154.9600 H   0  0  0  0  0  0  0  0  0  0  0  0
  145.7623  139.1782  153.2689 H   0  0  0  0  0  0  0  0  0  0  0  0
  146.8876  139.8568  152.1157 H   0  0  0  0  0  0  0  0  0  0  0  0
  147.9006  137.5101  152.0655 H   0  0  0  0  0  0  0  0  0  0  0  0
  147.4460  135.6964  151.4468 H   0  0  0  0  0  0  0  0  0  0  0  0
  147.5900  133.5788  150.7367 H   0  0  0  0  0  0  0  0  0  0  0  0
  146.4733  131.4573  150.0466 H   0  0  0  0  0  0  0  0  0  0  0  0
  143.9707  131.2997  150.1892 H   0  0  0  0  0  0  0  0  0  0  0  0
  142.6986  133.2962  151.0202 H   0  0  0  0  0  0  0  0  0  0  0  0
  148.4717  141.8674  156.0296 H   0  0  0  0  0  0  0  0  0  0  0  0
  148.7097  140.2013  156.5181 H   0  0  0  0  0  0  0  0  0  0  0  0
  150.6518  142.5436  156.7522 H   0  0  0  0  0  0  0  0  0  0  0  0
  149.9535  141.6339  158.0596 H   0  0  0  0  0  0  0  0  0  0  0  0
  150.3050  141.5496  154.4895 H   0  0  0  0  0  0  0  0  0  0  0  0
  1  2  2  0  0  0  0
  2 20  1  0  0  0  0
  2  3  1  0  0  0  0
  3  4  1  0  0  0  0
  3 21  1  0  0  0  0
  3 22  1  0  0  0  0
  4  5  1  0  0  0  0
  4 18  1  0  0  0  0
  4 39  1  0  0  0  0
  5  6  1  0  0  0  0
  5 23  1  0  0  0  0
  5 24  1  0  0  0  0
  6  7  1  0  0  0  0
  6 25  1  0  0  0  0
  6 26  1  0  0  0  0
  7  8  1  0  0  0  0
  7 27  1  0  0  0  0
  7 28  1  0  0  0  0
  8  9  1  0  0  0  0
  8 29  1  0  0  0  0
  9 10  2  0  0  0  0
  9 11  1  0  0  0  0
 11 12  1  0  0  0  0
 11 30  1  0  0  0  0
 12 17  1  0  0  0  0
 12 13  2  0  0  0  0
 13 14  1  0  0  0  0
 13 31  1  0  0  0  0
 14 15  2  0  0  0  0
 14 32  1  0  0  0  0
 15 16  1  0  0  0  0
 15 33  1  0  0  0  0
 16 17  2  0  0  0  0
 16 34  1  0  0  0  0
 18 19  1  0  0  0  0
 18 35  1  0  0  0  0
 18 36  1  0  0  0  0
 19 20  1  0  0  0  0
 19 37  1  0  0  0  0
 19 38  1  0  0  0  0
M  CHG  1   4   1
M  CHG  1  20  -1
M  END
> <s_m_source_file>
AV-unprocessed.smi

> <i_m_source_file_index>
2858

> <i_lp_mmshare_version>
43012

> <i_f3d_flags>
0

> <s_epik_input>
Tz1DMVtDSDJdTihbQ0gyXVtDSDJdW05IXTEpW0NIMl1bQ0gyXVtDSDJdW05IXUMoPU8pW05IXWMyW2NIXVtjSF1bY0hdW2NIXW4y

> <s_epik_cmdline>
J2VwaWtfcHl0aG9uJywgJy1waCcsICc3LjAnLCAnLXRuJywgJzgnLCAnLW1hJywgJzIwMCcsICctbWV0YWxfYmluZGluZycsICctaW1hZScsICc8aW5maWxlLm1hZT4nLCAnLW9tYWUnLCAnPG91dGZpbGUubWFlPic=

> <r_epik_Ionization_Penalty>
5.09835

> <r_epik_Ionization_Penalty_Charging>
5.09831

> <r_epik_Ionization_Penalty_Neutral>
4.20822e-05

> <r_epik_State_Penalty>
5.19693

> <r_epik_Charging_Adjusted_Penalty>
10.2952

> <i_epik_Tot_Q>
0

> <i_epik_Tot_abs_Q>
2

> <r_epik_Metal_State_Penalty>
1.27693

> <b_epik_Metal_Only>
1

> <s_lp_Force_Field>
OPLS_2005

> <r_lp_Energy>
14.6847

> <b_lp_Chiralities_Consistent>
1

> <s_lp_Variant>
AV-unprocessed.smi:2858-5

> <Gold.Version>
5.8.1

> <Gold.Id.Protein>
6NUR|6NUR_protein|mol2

> <Gold.PLP.Fitness>
43.9894

> <Gold.PLP.PLP>
-33.1167

> <Gold.PLP.part.hbond>
-2.9418

> <Gold.PLP.part.metal>
0.0000

> <Gold.PLP.part.buried>
-2.0497

> <Gold.PLP.part.nonpolar>
-29.0728

> <Gold.PLP.part.repulsive>
1.4430

> <Gold.PLP.ligand.clash>
0.0000

> <Gold.PLP.ligand.torsion>
0.4377

> <Gold.PLP.Chemscore.Hbond>
2.9120

> <Gold.PLP.Chemscore.CHOScore>
0.9864

> <Gold.PLP.Chemscore.Metal>
0.0000

> <Gold.Chemscore.Hbonds>
donor molecule, donor type, donor heavy atom, donor atom, acceptor molecule, acceptor atom, score
      L1  H     8    29       P1  7948  0.91
      L1  H    11    30       P1  7948  0.99
      P1  H  7997  8009       L1     1  1.00
      L1  C    16    34       P1 10186  0.98

> <Gold.PLP.Chemscore.Internal.Correction>
0.0529

> <Gold.Rescore>
     Score         DG    S(hbond)    S(metal)    S(lipo)     H(rot)  DE(clash)    DE(int)     intcor
     16.15     -17.97       2.94        0.00      67.02       2.02       0.08       1.74       ----

> <Gold.Chemscore.Fitness>
16.1513

> <Gold.Chemscore.DG>
-17.9709

> <Gold.Chemscore.ZeroCoef>
-5.4800

> <Gold.Chemscore.Hbond>
2.9414

> <Gold.Chemscore.Metal>
0.0000

> <Gold.Chemscore.Lipo>
67.0167

> <Gold.Chemscore.Internal_Hbond>
0.0000

> <Gold.Chemscore.DEClash>
0.0765

> <Gold.Chemscore.DEInternal>
1.7431

> <Gold.Chemscore.Rot>
2.0213

> <Gold.Chemscore.Internal.Correction>
   9.000000E+99

> <Gold.Chemscore.Hbonds>
donor molecule, donor type, donor heavy atom, donor atom, acceptor molecule, acceptor atom, score
      L1  H     8    29       P1  7948  0.89
      L1  H    11    30       P1  7948  0.90
      P1  H  7997  8009       L1     1  0.78

> <Gold.Chemscore.Hbond.Weighted>
-9.8244

> <Gold.Chemscore.Metal.Weighted>
-0.0000

> <Gold.Chemscore.Lipo.Weighted>
-7.8410

> <Gold.Chemscore.Internal_Hbond.Weighted>
0.0000

> <Gold.Chemscore.DEClash.Weighted>
0.0765

> <Gold.Chemscore.DEInternal.Weighted>
1.7431

> <Gold.Chemscore.Rot.Weighted>
5.1744

> <Gold.Chemscore.Internal.Correction.Weighted>
   9.000000E+99

> <Gold.Protein.RotatedTorsions>
[ 6907 6896 6895 6894 ] final  -84.54 input  -60.11 | X-H torsion
[ 7974 7965 7964 7962 ] final  154.91 input  175.53 | X-H torsion
[ 8008 7997 7996 7995 ] final -157.16 input   59.86 | X-H torsion
[ 10167 10162 10161 10158 ] final -155.02 input  -65.29 | X-H torsion
[ 10718 10713 10712 10709 ] final -167.39 input   66.30 | X-H torsion
[ 10763 10752 10751 10750 ] final  -83.31 input  -60.55 | X-H torsion
[ 11005 11000 10999 10996 ] final  -22.07 input  -57.11 | X-H torsion

> <Gold.Protein.ActiveResidues>
 VAL166  LYS551  ARG553  GLY616  TRP617  ASP618  TYR619  PRO620  LYS621  CYS622 
 ASP623  PHE694  ASN695  SER759  ASP760  ASP761  ALA762  ILE779  LEU786  VAL792 
 PHE793  MET794  SER795  GLU796  ALA797  LYS798  CYS799  TRP800  GLU811  SER814 

> <Gold.Protein.RotatedAtoms>
  150.6876  134.3342  159.4839 H   0  0  0  0  0  0  0  0  0  0  0  0  # atno 6907 bound_to 6896
  152.1203  134.9207  160.0572 H   0  0  0  0  0  0  0  0  0  0  0  0  # atno 6908 bound_to 6896
  152.0416  133.3945  159.4376 H   0  0  0  0  0  0  0  0  0  0  0  0  # atno 6909 bound_to 6896
  144.8058  139.6997  143.6162 H   0  0  0  0  0  0  0  0  0  0  0  0  # atno 7974 bound_to 7965
  155.7282  140.0798  157.2300 H   0  0  0  0  0  0  0  0  0  0  0  0  # atno 8008 bound_to 7997
  154.4036  140.1600  156.2534 H   0  0  0  0  0  0  0  0  0  0  0  0  # atno 8009 bound_to 7997
  155.9133  140.3402  155.6118 H   0  0  0  0  0  0  0  0  0  0  0  0  # atno 8010 bound_to 7997
  139.6966  143.9332  152.2410 H   0  0  0  0  0  0  0  0  0  0  0  0  # atno 10167 bound_to 10162
  156.6817  130.9124  151.3058 H   0  0  0  0  0  0  0  0  0  0  0  0  # atno 10718 bound_to 10713
  154.5862  135.5560  153.7233 H   0  0  0  0  0  0  0  0  0  0  0  0  # atno 10763 bound_to 10752
  153.0099  135.6332  154.1913 H   0  0  0  0  0  0  0  0  0  0  0  0  # atno 10764 bound_to 10752
  154.1854  135.2885  155.3019 H   0  0  0  0  0  0  0  0  0  0  0  0  # atno 10765 bound_to 10752
  140.8622  133.7780  156.0088 H   0  0  0  0  0  0  0  0  0  0  0  0  # atno 11005 bound_to 11000
  146.2349  139.5886  142.9530 LP  0  0  0  0  0  0  0  0  0  0  0  0  # atno 17320 bound_to 7965
  145.5442  141.0418  143.2314 LP  0  0  0  0  0  0  0  0  0  0  0  0  # atno 17321 bound_to 7965
  139.9163  144.6826  150.8508 LP  0  0  0  0  0  0  0  0  0  0  0  0  # atno 17342 bound_to 10162
  140.7698  143.3407  151.2215 LP  0  0  0  0  0  0  0  0  0  0  0  0  # atno 17343 bound_to 10162
  157.7041  130.9365  150.0876 LP  0  0  0  0  0  0  0  0  0  0  0  0  # atno 17370 bound_to 10713
  156.1863  130.3652  149.8969 LP  0  0  0  0  0  0  0  0  0  0  0  0  # atno 17371 bound_to 10713
  140.8670  134.2772  157.5208 LP  0  0  0  0  0  0  0  0  0  0  0  0  # atno 17394 bound_to 11000
  139.8707  134.9548  156.4185 LP  0  0  0  0  0  0  0  0  0  0  0  0  # atno 17395 bound_to 11000

$$$$
