AV-unprocessed.smi:2659|AV-procd|sdf|10313|dock4
  -GOLD-   2272014333D 1   1.00000     0.00000
 Structure written by MMmdl.
 47 48  0  0  0  0  0  0  0  0  1 V2000
  148.5503  140.4719  154.9587 C   0  0  0  0  0  0  0  0  0  0  0  0
  149.4806  140.8270  156.0124 N   0  0  0  0  0  0  0  0  0  0  0  0
  150.2075  141.9607  155.9184 N   0  0  0  0  0  0  0  0  0  0  0  0
  150.9431  141.9981  157.0247 C   0  0  0  0  0  0  0  0  0  0  0  0
  151.8833  143.1536  157.2579 C   0  0  0  0  0  0  0  0  0  0  0  0
  151.9557  143.6633  158.7255 C   0  0  0  0  0  0  0  0  0  0  0  0
  150.5351  143.9205  159.2670 C   0  0  0  0  0  0  0  0  0  0  0  0
  152.7354  144.9926  158.7481 C   0  0  0  0  0  0  0  0  0  0  0  0
  152.6741  142.6599  159.6536 C   0  0  0  0  0  0  0  0  0  0  0  0
  150.7188  140.8717  157.8694 C   0  0  0  0  0  0  0  0  0  0  0  0
  149.7756  140.1598  157.1802 C   0  0  0  0  0  0  0  0  0  0  0  0
  149.1786  138.9847  157.5131 N   0  0  0  0  0  0  0  0  0  0  0  0
  149.5630  138.0751  158.4252 C   0  0  0  0  0  0  0  0  0  0  0  0
  150.5616  138.1575  159.1408 O   0  0  0  0  0  0  0  0  0  0  0  0
  148.7104  137.0418  158.4650 N   0  0  0  0  0  0  0  0  0  0  0  0
  148.8433  135.8790  159.3352 C   0  0  0  0  0  0  0  0  0  0  0  0
  147.7221  135.8269  160.3860 C   0  0  1  0  0  0  0  0  0  0  0  0
  147.7234  134.5499  161.2223 C   0  0  0  0  0  0  0  0  0  0  0  0
  146.9739  134.9978  162.4562 C   0  0  0  0  0  0  0  0  0  0  0  0
  147.4767  136.4286  162.6332 C   0  0  0  0  0  0  0  0  0  0  0  0
  147.8749  136.8755  161.3388 O   0  0  0  0  0  0  0  0  0  0  0  0
  147.5592  140.3121  155.3837 H   0  0  0  0  0  0  0  0  0  0  0  0
  148.8824  139.5546  154.4723 H   0  0  0  0  0  0  0  0  0  0  0  0
  148.4904  141.2672  154.2145 H   0  0  0  0  0  0  0  0  0  0  0  0
  152.8791  142.8312  156.9508 H   0  0  0  0  0  0  0  0  0  0  0  0
  151.6392  143.9782  156.5866 H   0  0  0  0  0  0  0  0  0  0  0  0
  150.5638  144.3282  160.2781 H   0  0  0  0  0  0  0  0  0  0  0  0
  149.9475  143.0031  159.3060 H   0  0  0  0  0  0  0  0  0  0  0  0
  149.9924  144.6318  158.6435 H   0  0  0  0  0  0  0  0  0  0  0  0
  152.2677  145.7382  158.1041 H   0  0  0  0  0  0  0  0  0  0  0  0
  153.7618  144.8588  158.4045 H   0  0  0  0  0  0  0  0  0  0  0  0
  152.7818  145.4113  159.7541 H   0  0  0  0  0  0  0  0  0  0  0  0
  152.7920  143.0664  160.6585 H   0  0  0  0  0  0  0  0  0  0  0  0
  153.6697  142.4185  159.2795 H   0  0  0  0  0  0  0  0  0  0  0  0
  152.1211  141.7253  159.7528 H   0  0  0  0  0  0  0  0  0  0  0  0
  151.1804  140.6477  158.8190 H   0  0  0  0  0  0  0  0  0  0  0  0
  148.3296  138.7757  157.0089 H   0  0  0  0  0  0  0  0  0  0  0  0
  147.9183  137.0514  157.8395 H   0  0  0  0  0  0  0  0  0  0  0  0
  148.8432  134.9666  158.7367 H   0  0  0  0  0  0  0  0  0  0  0  0
  149.8155  135.9264  159.8265 H   0  0  0  0  0  0  0  0  0  0  0  0
  146.7450  135.9377  159.9125 H   0  0  0  0  0  0  0  0  0  0  0  0
  147.2502  133.7087  160.7153 H   0  0  0  0  0  0  0  0  0  0  0  0
  148.7419  134.2626  161.4874 H   0  0  0  0  0  0  0  0  0  0  0  0
  145.9009  134.9985  162.2603 H   0  0  0  0  0  0  0  0  0  0  0  0
  147.1622  134.3686  163.3264 H   0  0  0  0  0  0  0  0  0  0  0  0
  146.7151  137.0815  163.0603 H   0  0  0  0  0  0  0  0  0  0  0  0
  148.3477  136.4508  163.2888 H   0  0  0  0  0  0  0  0  0  0  0  0
  1  2  1  0  0  0  0
  1 22  1  0  0  0  0
  1 23  1  0  0  0  0
  1 24  1  0  0  0  0
  2 11  1  0  0  0  0
  2  3  1  0  0  0  0
  3  4  2  0  0  0  0
  4  5  1  0  0  0  0
  4 10  1  0  0  0  0
  5  6  1  0  0  0  0
  5 25  1  0  0  0  0
  5 26  1  0  0  0  0
  6  7  1  0  0  0  0
  6  8  1  0  0  0  0
  6  9  1  0  0  0  0
  7 27  1  0  0  0  0
  7 28  1  0  0  0  0
  7 29  1  0  0  0  0
  8 30  1  0  0  0  0
  8 31  1  0  0  0  0
  8 32  1  0  0  0  0
  9 33  1  0  0  0  0
  9 34  1  0  0  0  0
  9 35  1  0  0  0  0
 10 11  2  0  0  0  0
 10 36  1  0  0  0  0
 11 12  1  0  0  0  0
 12 13  1  0  0  0  0
 12 37  1  0  0  0  0
 13 14  2  0  0  0  0
 13 15  1  0  0  0  0
 15 16  1  0  0  0  0
 15 38  1  0  0  0  0
 16 17  1  0  0  0  0
 16 39  1  0  0  0  0
 16 40  1  0  0  0  0
 17 21  1  0  0  0  0
 17 18  1  0  0  0  0
 17 41  1  0  0  0  0
 18 19  1  0  0  0  0
 18 42  1  0  0  0  0
 18 43  1  0  0  0  0
 19 20  1  0  0  0  0
 19 44  1  0  0  0  0
 19 45  1  0  0  0  0
 20 21  1  0  0  0  0
 20 46  1  0  0  0  0
 20 47  1  0  0  0  0
M  END
> <s_m_source_file>
AV-unprocessed.smi

> <i_m_source_file_index>
2659

> <i_lp_mmshare_version>
43012

> <i_f3d_flags>
0

> <s_epik_input>
W0NIM11uMW5jKFtDSDJdQyhbQ0gzXSkoW0NIM10pW0NIM10pW2NIXWMxW05IXUMoPU8pW05IXVtDSDJdW0NAQEhdMltDSDJdW0NIMl1bQ0gyXU8y

> <s_epik_cmdline>
J2VwaWtfcHl0aG9uJywgJy1waCcsICc3LjAnLCAnLXRuJywgJzgnLCAnLW1hJywgJzIwMCcsICctbWV0YWxfYmluZGluZycsICctaW1hZScsICc8aW5maWxlLm1hZT4nLCAnLW9tYWUnLCAnPG91dGZpbGUubWFlPic=

> <r_lp_tautomer_probability>
1

> <r_epik_Ionization_Penalty>
9.6187e-05

> <r_epik_Ionization_Penalty_Charging>
0

> <r_epik_Ionization_Penalty_Neutral>
9.6187e-05

> <r_epik_State_Penalty>
-0

> <r_epik_Charging_Adjusted_Penalty>
0

> <i_epik_Tot_Q>
0

> <i_epik_Tot_abs_Q>
0

> <r_epik_Metal_State_Penalty>
-0

> <b_epik_Metal_Only>
0

> <s_lp_Force_Field>
OPLS_2005

> <r_lp_Energy>
21.1922

> <b_lp_Chiralities_Consistent>
1

> <s_lp_Variant>
AV-unprocessed.smi:2659-2

> <Gold.Version>
5.8.1

> <Gold.Id.Protein>
6NUR|6NUR_protein|mol2

> <Gold.PLP.Fitness>
44.7186

> <Gold.PLP.PLP>
-40.3382

> <Gold.PLP.part.hbond>
-3.0000

> <Gold.PLP.part.metal>
0.0000

> <Gold.PLP.part.buried>
-6.8370

> <Gold.PLP.part.nonpolar>
-31.5589

> <Gold.PLP.part.repulsive>
0.8872

> <Gold.PLP.ligand.clash>
0.0000

> <Gold.PLP.ligand.torsion>
0.4921

> <Gold.PLP.Chemscore.Hbond>
1.7840

> <Gold.PLP.Chemscore.CHOScore>
0.0000

> <Gold.PLP.Chemscore.Metal>
0.0000

> <Gold.Chemscore.Hbonds>
donor molecule, donor type, donor heavy atom, donor atom, acceptor molecule, acceptor atom, score
      P1  H  6931  6943       L1    21  0.85
      P1  H  6934  6947       L1    21  0.29

> <Gold.PLP.Chemscore.Internal.Correction>
0.0127

> <Gold.Rescore>
     Score         DG    S(hbond)    S(metal)    S(lipo)     H(rot)  DE(clash)    DE(int)     intcor
     16.67     -19.41       1.38        0.00     112.23       1.49       1.21       1.54       ----

> <Gold.Chemscore.Fitness>
16.6709

> <Gold.Chemscore.DG>
-19.4141

> <Gold.Chemscore.ZeroCoef>
-5.4800

> <Gold.Chemscore.Hbond>
1.3821

> <Gold.Chemscore.Metal>
0.0000

> <Gold.Chemscore.Lipo>
112.2303

> <Gold.Chemscore.Internal_Hbond>
0.0000

> <Gold.Chemscore.DEClash>
1.2073

> <Gold.Chemscore.DEInternal>
1.5360

> <Gold.Chemscore.Rot>
1.4894

> <Gold.Chemscore.Internal.Correction>
   9.000000E+99

> <Gold.Chemscore.Hbonds>
donor molecule, donor type, donor heavy atom, donor atom, acceptor molecule, acceptor atom, score
      P1  H  6931  6943       L1    21  0.15
      P1  H  6934  6947       L1    21  0.23

> <Gold.Chemscore.Hbond.Weighted>
-4.6161

> <Gold.Chemscore.Metal.Weighted>
-0.0000

> <Gold.Chemscore.Lipo.Weighted>
-13.1309

> <Gold.Chemscore.Internal_Hbond.Weighted>
0.0000

> <Gold.Chemscore.DEClash.Weighted>
1.2073

> <Gold.Chemscore.DEInternal.Weighted>
1.5360

> <Gold.Chemscore.Rot.Weighted>
3.8129

> <Gold.Chemscore.Internal.Correction.Weighted>
   9.000000E+99

> <Gold.Protein.RotatedTorsions>
[ 6907 6896 6895 6894 ] final -161.05 input  -60.11 | X-H torsion
[ 7974 7965 7964 7962 ] final  -17.38 input  175.53 | X-H torsion
[ 8008 7997 7996 7995 ] final  159.88 input   59.86 | X-H torsion
[ 10167 10162 10161 10158 ] final -143.30 input  -65.29 | X-H torsion
[ 10718 10713 10712 10709 ] final  -68.88 input   66.30 | X-H torsion
[ 10763 10752 10751 10750 ] final -149.87 input  -60.55 | X-H torsion
[ 11005 11000 10999 10996 ] final -155.95 input  -57.11 | X-H torsion

> <Gold.Protein.ActiveResidues>
 VAL166  LYS551  ARG553  GLY616  TRP617  ASP618  TYR619  PRO620  LYS621  CYS622 
 ASP623  PHE694  ASN695  SER759  ASP760  ASP761  ALA762  ILE779  LEU786  VAL792 
 PHE793  MET794  SER795  GLU796  ALA797  LYS798  CYS799  TRP800  GLU811  SER814 

> <Gold.Protein.RotatedAtoms>
  151.3586  133.3898  159.2687 H   0  0  0  0  0  0  0  0  0  0  0  0  # atno 6907 bound_to 6896
  150.9744  134.9112  159.7817 H   0  0  0  0  0  0  0  0  0  0  0  0  # atno 6908 bound_to 6896
  152.5195  134.3549  159.9316 H   0  0  0  0  0  0  0  0  0  0  0  0  # atno 6909 bound_to 6896
  146.1943  140.3771  142.8446 H   0  0  0  0  0  0  0  0  0  0  0  0  # atno 7974 bound_to 7965
  156.2210  140.1819  156.7478 H   0  0  0  0  0  0  0  0  0  0  0  0  # atno 8008 bound_to 7997
  154.5865  140.0657  156.9206 H   0  0  0  0  0  0  0  0  0  0  0  0  # atno 8009 bound_to 7997
  155.2411  140.3322  155.4294 H   0  0  0  0  0  0  0  0  0  0  0  0  # atno 8010 bound_to 7997
  139.8006  143.7839  152.2658 H   0  0  0  0  0  0  0  0  0  0  0  0  # atno 10167 bound_to 10162
  156.0483  130.4302  150.2065 H   0  0  0  0  0  0  0  0  0  0  0  0  # atno 10718 bound_to 10713
  154.8152  135.3298  154.7195 H   0  0  0  0  0  0  0  0  0  0  0  0  # atno 10763 bound_to 10752
  153.7837  135.6916  153.4888 H   0  0  0  0  0  0  0  0  0  0  0  0  # atno 10764 bound_to 10752
  153.1963  135.4532  155.0159 H   0  0  0  0  0  0  0  0  0  0  0  0  # atno 10765 bound_to 10752
  140.6809  134.4146  157.5226 H   0  0  0  0  0  0  0  0  0  0  0  0  # atno 11005 bound_to 11000
  144.8549  140.7056  143.6144 LP  0  0  0  0  0  0  0  0  0  0  0  0  # atno 17320 bound_to 7965
  145.3692  139.1662  143.4341 LP  0  0  0  0  0  0  0  0  0  0  0  0  # atno 17321 bound_to 7965
  139.7958  144.7393  150.9893 LP  0  0  0  0  0  0  0  0  0  0  0  0  # atno 17342 bound_to 10162
  140.7820  143.4395  151.0572 LP  0  0  0  0  0  0  0  0  0  0  0  0  # atno 17343 bound_to 10162
  157.0152  130.9963  151.3355 LP  0  0  0  0  0  0  0  0  0  0  0  0  # atno 17370 bound_to 10713
  157.5382  130.8103  149.7997 LP  0  0  0  0  0  0  0  0  0  0  0  0  # atno 17371 bound_to 10713
  139.8952  134.8688  156.2142 LP  0  0  0  0  0  0  0  0  0  0  0  0  # atno 17394 bound_to 11000
  141.0318  133.6984  156.1444 LP  0  0  0  0  0  0  0  0  0  0  0  0  # atno 17395 bound_to 11000

$$$$
