AV-unprocessed.smi:2324|AV-procd|sdf|9291|dock5
  -GOLD-   2272012513D 1   1.00000     0.00000
 Structure written by MMmdl.
 37 39  0  0  0  0  0  0  0  0  1 V2000
  151.1050  135.1841  155.9817 O   0  0  0  0  0  0  0  0  0  0  0  0
  150.5195  135.3888  154.9197 C   0  0  0  0  0  0  0  0  0  0  0  0
  150.2011  134.3681  154.0955 N   0  0  0  0  0  0  0  0  0  0  0  0
  150.4170  132.9629  154.2019 C   0  0  0  0  0  0  0  0  0  0  0  0
  149.9296  132.2074  153.1140 C   0  0  0  0  0  0  0  0  0  0  0  0
  150.1012  130.8128  153.1360 C   0  0  0  0  0  0  0  0  0  0  0  0
  150.7536  130.2626  154.2522 C   0  0  0  0  0  0  0  0  0  0  0  0
  151.2054  131.0220  155.2733 N   0  0  0  0  0  0  0  0  0  0  0  0
  151.0376  132.3481  155.2439 N   0  0  0  0  0  0  0  0  0  0  0  0
  150.1651  136.6191  154.5126 N   0  0  0  0  0  0  0  0  0  0  0  0
  150.4126  137.8573  155.2442 C   0  0  2  0  0  0  0  0  0  0  0  0
  149.6303  139.0088  154.5991 C   0  0  0  0  0  0  0  0  0  0  0  0
  149.9659  140.3421  155.2842 C   0  0  0  0  0  0  0  0  0  0  0  0
  151.3707  140.5852  155.2427 O   0  0  0  0  0  0  0  0  0  0  0  0
  152.1827  139.5877  155.8652 C   0  0  1  0  0  0  0  0  0  0  0  0
  152.0413  139.6033  157.3816 C   0  0  0  0  0  0  0  0  0  0  0  0
  151.0994  140.5718  158.0572 C   0  0  0  0  0  0  0  0  0  0  0  0
  152.5924  140.7513  158.1943 C   0  0  0  0  0  0  0  0  0  0  0  0
  151.9116  138.2040  155.2430 C   0  0  0  0  0  0  0  0  0  0  0  0
  149.7247  134.6513  153.2515 H   0  0  0  0  0  0  0  0  0  0  0  0
  149.4353  132.6827  152.2790 H   0  0  0  0  0  0  0  0  0  0  0  0
  149.7473  130.1893  152.3285 H   0  0  0  0  0  0  0  0  0  0  0  0
  150.9174  129.1980  154.3284 H   0  0  0  0  0  0  0  0  0  0  0  0
  149.6884  136.7020  153.6256 H   0  0  0  0  0  0  0  0  0  0  0  0
  150.0653  137.7371  156.2718 H   0  0  0  0  0  0  0  0  0  0  0  0
  149.8771  139.0784  153.5387 H   0  0  0  0  0  0  0  0  0  0  0  0
  148.5579  138.8188  154.6582 H   0  0  0  0  0  0  0  0  0  0  0  0
  149.4592  141.1592  154.7708 H   0  0  0  0  0  0  0  0  0  0  0  0
  149.6034  140.3526  156.3122 H   0  0  0  0  0  0  0  0  0  0  0  0
  153.2152  139.8548  155.6374 H   0  0  0  0  0  0  0  0  0  0  0  0
  152.1245  138.6259  157.8515 H   0  0  0  0  0  0  0  0  0  0  0  0
  150.5641  141.2811  157.4290 H   0  0  0  0  0  0  0  0  0  0  0  0
  150.5525  140.2148  158.9275 H   0  0  0  0  0  0  0  0  0  0  0  0
  153.0429  140.5127  159.1554 H   0  0  0  0  0  0  0  0  0  0  0  0
  153.0510  141.5792  157.6573 H   0  0  0  0  0  0  0  0  0  0  0  0
  152.4847  137.4389  155.7681 H   0  0  0  0  0  0  0  0  0  0  0  0
  152.2770  138.2072  154.2149 H   0  0  0  0  0  0  0  0  0  0  0  0
  1  2  2  0  0  0  0
  2  3  1  0  0  0  0
  2 10  1  0  0  0  0
  3  4  1  0  0  0  0
  3 20  1  0  0  0  0
  4  9  1  0  0  0  0
  4  5  2  0  0  0  0
  5  6  1  0  0  0  0
  5 21  1  0  0  0  0
  6  7  2  0  0  0  0
  6 22  1  0  0  0  0
  7  8  1  0  0  0  0
  7 23  1  0  0  0  0
  8  9  2  0  0  0  0
 10 11  1  0  0  0  0
 10 24  1  0  0  0  0
 11 19  1  0  0  0  0
 11 12  1  0  0  0  0
 11 25  1  0  0  0  0
 12 13  1  0  0  0  0
 12 26  1  0  0  0  0
 12 27  1  0  0  0  0
 13 14  1  0  0  0  0
 13 28  1  0  0  0  0
 13 29  1  0  0  0  0
 14 15  1  0  0  0  0
 15 16  1  0  0  0  0
 15 19  1  0  0  0  0
 15 30  1  0  0  0  0
 16 18  1  0  0  0  0
 16 17  1  0  0  0  0
 16 31  1  0  0  0  0
 17 18  1  0  0  0  0
 17 32  1  0  0  0  0
 17 33  1  0  0  0  0
 18 34  1  0  0  0  0
 18 35  1  0  0  0  0
 19 36  1  0  0  0  0
 19 37  1  0  0  0  0
M  END
> <s_m_source_file>
AV-unprocessed.smi

> <i_m_source_file_index>
2324

> <i_lp_mmshare_version>
43012

> <i_f3d_flags>
0

> <s_epik_input>
bjFuW2NIXVtjSF1bY0hdYzFbTkhdQyg9TylbTkhdW0NAQEhdMltDSDJdW0NIMl1PW0NASF0oW0NIMl0yKVtDSF0zW0NIMl1bQ0gyXTM=

> <s_epik_cmdline>
J2VwaWtfcHl0aG9uJywgJy1waCcsICc3LjAnLCAnLXRuJywgJzgnLCAnLW1hJywgJzIwMCcsICctbWV0YWxfYmluZGluZycsICctaW1hZScsICc8aW5maWxlLm1hZT4nLCAnLW9tYWUnLCAnPG91dGZpbGUubWFlPic=

> <r_lp_tautomer_probability>
1

> <r_epik_Ionization_Penalty>
0.00521499

> <r_epik_Ionization_Penalty_Charging>
0

> <r_epik_Ionization_Penalty_Neutral>
0.00521499

> <r_epik_State_Penalty>
-0

> <r_epik_Charging_Adjusted_Penalty>
0

> <i_epik_Tot_Q>
0

> <i_epik_Tot_abs_Q>
0

> <r_epik_Metal_State_Penalty>
-0

> <b_epik_Metal_Only>
0

> <s_lp_Force_Field>
OPLS_2005

> <r_lp_Energy>
28.1305

> <b_lp_Chiralities_Consistent>
1

> <s_lp_Variant>
AV-unprocessed.smi:2324-1

> <Gold.Version>
5.8.1

> <Gold.Id.Protein>
6NUR|6NUR_protein|mol2

> <Gold.PLP.Fitness>
37.9193

> <Gold.PLP.PLP>
-30.4433

> <Gold.PLP.part.hbond>
-2.7990

> <Gold.PLP.part.metal>
0.0000

> <Gold.PLP.part.buried>
-2.6270

> <Gold.PLP.part.nonpolar>
-24.4414

> <Gold.PLP.part.repulsive>
0.1456

> <Gold.PLP.ligand.clash>
0.0000

> <Gold.PLP.ligand.torsion>
0.9290

> <Gold.PLP.Chemscore.Hbond>
2.7520

> <Gold.PLP.Chemscore.CHOScore>
0.0000

> <Gold.PLP.Chemscore.Metal>
0.0000

> <Gold.Chemscore.Hbonds>
donor molecule, donor type, donor heavy atom, donor atom, acceptor molecule, acceptor atom, score
      L1  H    10    24       P1  7948  1.00
      P1  H  7989  7998       L1    14  0.85
      P1  H 10752 10763       L1     1  0.15

> <Gold.PLP.Chemscore.Internal.Correction>
1.0781

> <Gold.Rescore>
     Score         DG    S(hbond)    S(metal)    S(lipo)     H(rot)  DE(clash)    DE(int)     intcor
     12.65     -15.95       2.02        0.00      59.13       1.25       0.06       3.24       ----

> <Gold.Chemscore.Fitness>
12.6527

> <Gold.Chemscore.DG>
-15.9531

> <Gold.Chemscore.ZeroCoef>
-5.4800

> <Gold.Chemscore.Hbond>
2.0205

> <Gold.Chemscore.Metal>
0.0000

> <Gold.Chemscore.Lipo>
59.1317

> <Gold.Chemscore.Internal_Hbond>
0.0000

> <Gold.Chemscore.DEClash>
0.0591

> <Gold.Chemscore.DEInternal>
3.2413

> <Gold.Chemscore.Rot>
1.2476

> <Gold.Chemscore.Internal.Correction>
   9.000000E+99

> <Gold.Chemscore.Hbonds>
donor molecule, donor type, donor heavy atom, donor atom, acceptor molecule, acceptor atom, score
      L1  H    10    24       P1  7948  0.60
      P1  H  7989  7998       L1    14  0.28

> <Gold.Chemscore.Hbond.Weighted>
-6.7485

> <Gold.Chemscore.Metal.Weighted>
-0.0000

> <Gold.Chemscore.Lipo.Weighted>
-6.9184

> <Gold.Chemscore.Internal_Hbond.Weighted>
0.0000

> <Gold.Chemscore.DEClash.Weighted>
0.0591

> <Gold.Chemscore.DEInternal.Weighted>
3.2413

> <Gold.Chemscore.Rot.Weighted>
3.1938

> <Gold.Chemscore.Internal.Correction.Weighted>
   9.000000E+99

> <Gold.Protein.RotatedTorsions>
[ 6907 6896 6895 6894 ] final  -44.67 input  -60.11 | X-H torsion
[ 7974 7965 7964 7962 ] final   74.70 input  175.53 | X-H torsion
[ 8008 7997 7996 7995 ] final  114.99 input   59.86 | X-H torsion
[ 10167 10162 10161 10158 ] final -151.92 input  -65.29 | X-H torsion
[ 10718 10713 10712 10709 ] final -144.55 input   66.30 | X-H torsion
[ 10763 10752 10751 10750 ] final   72.91 input  -60.55 | X-H torsion
[ 11005 11000 10999 10996 ] final   49.18 input  -57.11 | X-H torsion

> <Gold.Protein.ActiveResidues>
 VAL166  LYS551  ARG553  GLY616  TRP617  ASP618  TYR619  PRO620  LYS621  CYS622 
 ASP623  PHE694  ASN695  SER759  ASP760  ASP761  ALA762  ILE779  LEU786  VAL792 
 PHE793  MET794  SER795  GLU796  ALA797  LYS798  CYS799  TRP800  GLU811  SER814 

> <Gold.Protein.RotatedAtoms>
  150.9303  134.8718  159.7546 H   0  0  0  0  0  0  0  0  0  0  0  0  # atno 6907 bound_to 6896
  152.5034  134.4089  159.9452 H   0  0  0  0  0  0  0  0  0  0  0  0  # atno 6908 bound_to 6896
  151.4117  133.3685  159.2780 H   0  0  0  0  0  0  0  0  0  0  0  0  # atno 6909 bound_to 6896
  145.7250  139.2662  143.1574 H   0  0  0  0  0  0  0  0  0  0  0  0  # atno 7974 bound_to 7965
  156.2355  140.2948  156.0300 H   0  0  0  0  0  0  0  0  0  0  0  0  # atno 8008 bound_to 7997
  155.2105  140.0412  157.2949 H   0  0  0  0  0  0  0  0  0  0  0  0  # atno 8009 bound_to 7997
  154.6071  140.2442  155.7725 H   0  0  0  0  0  0  0  0  0  0  0  0  # atno 8010 bound_to 7997
  139.7225  143.8934  152.2508 H   0  0  0  0  0  0  0  0  0  0  0  0  # atno 10167 bound_to 10162
  156.3715  130.7790  151.1971 H   0  0  0  0  0  0  0  0  0  0  0  0  # atno 10718 bound_to 10713
  153.0488  135.5082  154.7815 H   0  0  0  0  0  0  0  0  0  0  0  0  # atno 10763 bound_to 10752
  154.6693  135.2950  154.9765 H   0  0  0  0  0  0  0  0  0  0  0  0  # atno 10764 bound_to 10752
  154.0589  135.6693  153.4862 H   0  0  0  0  0  0  0  0  0  0  0  0  # atno 10765 bound_to 10752
  140.1126  134.4935  155.8665 H   0  0  0  0  0  0  0  0  0  0  0  0  # atno 11005 bound_to 11000
  146.0591  140.7990  142.9744 LP  0  0  0  0  0  0  0  0  0  0  0  0  # atno 17320 bound_to 7965
  144.6907  140.3169  143.7239 LP  0  0  0  0  0  0  0  0  0  0  0  0  # atno 17321 bound_to 7965
  139.8834  144.7005  150.8852 LP  0  0  0  0  0  0  0  0  0  0  0  0  # atno 17342 bound_to 10162
  140.7756  143.3643  151.1769 LP  0  0  0  0  0  0  0  0  0  0  0  0  # atno 17343 bound_to 10162
  157.7484  131.0371  150.4439 LP  0  0  0  0  0  0  0  0  0  0  0  0  # atno 17370 bound_to 10713
  156.4667  130.4044  149.6543 LP  0  0  0  0  0  0  0  0  0  0  0  0  # atno 17371 bound_to 10713
  141.2134  133.6732  156.6734 LP  0  0  0  0  0  0  0  0  0  0  0  0  # atno 17394 bound_to 11000
  140.3071  134.8116  157.4145 LP  0  0  0  0  0  0  0  0  0  0  0  0  # atno 17395 bound_to 11000

$$$$
