AV-unprocessed.smi:2179|AV-procd|sdf|8856|dock6
  -GOLD-   2272012 53D 1   1.00000     0.00000
 Structure written by MMmdl.
 47 48  0  0  0  0  0  0  0  0  1 V2000
  149.6763  130.1912  154.2721 C   0  0  0  0  0  0  0  0  0  0  0  0
  150.2658  131.3323  155.0945 C   0  0  0  0  0  0  0  0  0  0  0  0
  151.3665  131.2000  155.6284 O   0  0  0  0  0  0  0  0  0  0  0  0
  149.5273  132.4487  155.1840 N   0  0  0  0  0  0  0  0  0  0  0  0
  149.9125  133.6494  155.9157 C   0  0  0  0  0  0  0  0  0  0  0  0
  149.5160  134.9267  155.1536 C   0  0  0  0  0  0  0  0  0  0  0  0
  149.9716  136.1247  155.8477 N   0  0  0  0  0  0  0  0  0  0  0  0
  150.9718  136.9197  155.4341 C   0  0  0  0  0  0  0  0  0  0  0  0
  151.6030  136.7329  154.3938 O   0  0  0  0  0  0  0  0  0  0  0  0
  151.2474  138.1173  156.2963 C   0  0  0  0  0  0  0  0  0  0  0  0
  150.6180  138.2929  157.5478 C   0  0  0  0  0  0  0  0  0  0  0  0
  150.9369  139.4242  158.3231 C   0  0  0  0  0  0  0  0  0  0  0  0
  151.8834  140.3546  157.8325 C   0  0  0  0  0  0  0  0  0  0  0  0
  152.2186  141.4968  158.5921 N   0  0  0  0  0  0  0  0  0  0  0  0
  152.5225  141.2566  160.0003 C   0  0  0  0  0  0  0  0  0  0  0  0
  153.1762  142.5016  160.6295 C   0  0  2  0  0  0  0  0  0  0  0  0
  153.3989  142.3347  162.1362 C   0  0  0  0  0  0  0  0  0  0  0  0
  152.3304  143.6299  160.4252 O   0  0  0  0  0  0  0  0  0  0  0  0
  152.1347  143.9201  159.0440 C   0  0  2  0  0  0  0  0  0  0  0  0
  151.2960  145.1976  158.9346 C   0  0  0  0  0  0  0  0  0  0  0  0
  151.4482  142.7186  158.3688 C   0  0  0  0  0  0  0  0  0  0  0  0
  152.4986  140.1743  156.6379 N   0  0  0  0  0  0  0  0  0  0  0  0
  152.1909  139.0880  155.8983 C   0  0  0  0  0  0  0  0  0  0  0  0
  149.9824  130.2828  153.2296 H   0  0  0  0  0  0  0  0  0  0  0  0
  148.5865  130.1964  154.3144 H   0  0  0  0  0  0  0  0  0  0  0  0
  150.0255  129.2290  154.6481 H   0  0  0  0  0  0  0  0  0  0  0  0
  148.6341  132.4667  154.7131 H   0  0  0  0  0  0  0  0  0  0  0  0
  149.4132  133.6249  156.8848 H   0  0  0  0  0  0  0  0  0  0  0  0
  150.9850  133.6352  156.1188 H   0  0  0  0  0  0  0  0  0  0  0  0
  149.9111  134.9110  154.1362 H   0  0  0  0  0  0  0  0  0  0  0  0
  148.4307  134.9842  155.0636 H   0  0  0  0  0  0  0  0  0  0  0  0
  149.4908  136.3694  156.7011 H   0  0  0  0  0  0  0  0  0  0  0  0
  149.9048  137.5732  157.9225 H   0  0  0  0  0  0  0  0  0  0  0  0
  150.4678  139.5536  159.2869 H   0  0  0  0  0  0  0  0  0  0  0  0
  151.5949  141.0157  160.5212 H   0  0  0  0  0  0  0  0  0  0  0  0
  153.1878  140.4040  160.1291 H   0  0  0  0  0  0  0  0  0  0  0  0
  154.1419  142.6878  160.1556 H   0  0  0  0  0  0  0  0  0  0  0  0
  154.0531  141.4878  162.3453 H   0  0  0  0  0  0  0  0  0  0  0  0
  152.4565  142.1676  162.6586 H   0  0  0  0  0  0  0  0  0  0  0  0
  153.8619  143.2253  162.5619 H   0  0  0  0  0  0  0  0  0  0  0  0
  153.1037  144.1007  158.5752 H   0  0  0  0  0  0  0  0  0  0  0  0
  151.1268  145.4677  157.8920 H   0  0  0  0  0  0  0  0  0  0  0  0
  151.7985  146.0360  159.4176 H   0  0  0  0  0  0  0  0  0  0  0  0
  150.3230  145.0729  159.4107 H   0  0  0  0  0  0  0  0  0  0  0  0
  151.3522  142.9126  157.2996 H   0  0  0  0  0  0  0  0  0  0  0  0
  150.4418  142.5857  158.7689 H   0  0  0  0  0  0  0  0  0  0  0  0
  152.7152  138.9999  154.9577 H   0  0  0  0  0  0  0  0  0  0  0  0
  1  2  1  0  0  0  0
  1 24  1  0  0  0  0
  1 25  1  0  0  0  0
  1 26  1  0  0  0  0
  2  3  2  0  0  0  0
  2  4  1  0  0  0  0
  4  5  1  0  0  0  0
  4 27  1  0  0  0  0
  5  6  1  0  0  0  0
  5 28  1  0  0  0  0
  5 29  1  0  0  0  0
  6  7  1  0  0  0  0
  6 30  1  0  0  0  0
  6 31  1  0  0  0  0
  7  8  1  0  0  0  0
  7 32  1  0  0  0  0
  8  9  2  0  0  0  0
  8 10  1  0  0  0  0
 10 23  1  0  0  0  0
 10 11  2  0  0  0  0
 11 12  1  0  0  0  0
 11 33  1  0  0  0  0
 12 13  2  0  0  0  0
 12 34  1  0  0  0  0
 13 14  1  0  0  0  0
 13 22  1  0  0  0  0
 14 21  1  0  0  0  0
 14 15  1  0  0  0  0
 15 16  1  0  0  0  0
 15 35  1  0  0  0  0
 15 36  1  0  0  0  0
 16 17  1  0  0  0  0
 16 18  1  0  0  0  0
 16 37  1  0  0  0  0
 17 38  1  0  0  0  0
 17 39  1  0  0  0  0
 17 40  1  0  0  0  0
 18 19  1  0  0  0  0
 19 20  1  0  0  0  0
 19 21  1  0  0  0  0
 19 41  1  0  0  0  0
 20 42  1  0  0  0  0
 20 43  1  0  0  0  0
 20 44  1  0  0  0  0
 21 45  1  0  0  0  0
 21 46  1  0  0  0  0
 22 23  2  0  0  0  0
 23 47  1  0  0  0  0
M  END
> <s_m_source_file>
AV-unprocessed.smi

> <i_m_source_file_index>
2179

> <i_lp_mmshare_version>
43012

> <i_f3d_flags>
0

> <s_epik_input>
W0NIM11DKD1PKVtOSF1bQ0gyXVtDSDJdW05IXUMoPU8pYzFbY0hdW2NIXWMobltjSF0xKU4yW0NIMl1bQ0BASF0oW0NIM10pT1tDQEBIXShbQ0gzXSlbQ0gyXTI=

> <s_epik_cmdline>
J2VwaWtfcHl0aG9uJywgJy1waCcsICc3LjAnLCAnLXRuJywgJzgnLCAnLW1hJywgJzIwMCcsICctbWV0YWxfYmluZGluZycsICctaW1hZScsICc8aW5maWxlLm1hZT4nLCAnLW9tYWUnLCAnPG91dGZpbGUubWFlPic=

> <r_lp_tautomer_probability>
1

> <r_epik_Ionization_Penalty>
2.00433e-05

> <r_epik_Ionization_Penalty_Charging>
0

> <r_epik_Ionization_Penalty_Neutral>
2.00433e-05

> <r_epik_State_Penalty>
-0

> <r_epik_Charging_Adjusted_Penalty>
0

> <i_epik_Tot_Q>
0

> <i_epik_Tot_abs_Q>
0

> <r_epik_Metal_State_Penalty>
-0

> <b_epik_Metal_Only>
0

> <s_lp_Force_Field>
OPLS_2005

> <r_lp_Energy>
13.6511

> <b_lp_Chiralities_Consistent>
1

> <s_lp_Variant>
AV-unprocessed.smi:2179-1

> <Gold.Version>
5.8.1

> <Gold.Id.Protein>
6NUR|6NUR_protein|mol2

> <Gold.PLP.Fitness>
45.5892

> <Gold.PLP.PLP>
-40.6945

> <Gold.PLP.part.hbond>
-2.0000

> <Gold.PLP.part.metal>
0.0000

> <Gold.PLP.part.buried>
-5.9924

> <Gold.PLP.part.nonpolar>
-33.0682

> <Gold.PLP.part.repulsive>
0.8692

> <Gold.PLP.ligand.clash>
0.0000

> <Gold.PLP.ligand.torsion>
0.7280

> <Gold.PLP.Chemscore.Hbond>
2.0000

> <Gold.PLP.Chemscore.CHOScore>
0.0000

> <Gold.PLP.Chemscore.Metal>
0.0000

> <Gold.Chemscore.Hbonds>
donor molecule, donor type, donor heavy atom, donor atom, acceptor molecule, acceptor atom, score
      P1  H  7997  8009       L1    22  1.00
      P1  H 10752 10765       L1     9  1.00

> <Gold.PLP.Chemscore.Internal.Correction>
0.3508

> <Gold.Rescore>
     Score         DG    S(hbond)    S(metal)    S(lipo)     H(rot)  DE(clash)    DE(int)     intcor
     17.72     -18.47       1.84        0.00      99.19       1.86       0.04       0.72       ----

> <Gold.Chemscore.Fitness>
17.7155

> <Gold.Chemscore.DG>
-18.4696

> <Gold.Chemscore.ZeroCoef>
-5.4800

> <Gold.Chemscore.Hbond>
1.8390

> <Gold.Chemscore.Metal>
0.0000

> <Gold.Chemscore.Lipo>
99.1913

> <Gold.Chemscore.Internal_Hbond>
0.0000

> <Gold.Chemscore.DEClash>
0.0365

> <Gold.Chemscore.DEInternal>
0.7176

> <Gold.Chemscore.Rot>
1.8586

> <Gold.Chemscore.Internal.Correction>
   9.000000E+99

> <Gold.Chemscore.Hbonds>
donor molecule, donor type, donor heavy atom, donor atom, acceptor molecule, acceptor atom, score
      P1  H  7997  8009       L1    22  0.24
      P1  H 10752 10765       L1     9  0.99

> <Gold.Chemscore.Hbond.Weighted>
-6.1421

> <Gold.Chemscore.Metal.Weighted>
-0.0000

> <Gold.Chemscore.Lipo.Weighted>
-11.6054

> <Gold.Chemscore.Internal_Hbond.Weighted>
0.0000

> <Gold.Chemscore.DEClash.Weighted>
0.0365

> <Gold.Chemscore.DEInternal.Weighted>
0.7176

> <Gold.Chemscore.Rot.Weighted>
4.7579

> <Gold.Chemscore.Internal.Correction.Weighted>
   9.000000E+99

> <Gold.Protein.RotatedTorsions>
[ 6907 6896 6895 6894 ] final   85.28 input  -60.11 | X-H torsion
[ 7974 7965 7964 7962 ] final   42.41 input  175.53 | X-H torsion
[ 8008 7997 7996 7995 ] final -174.99 input   59.86 | X-H torsion
[ 10167 10162 10161 10158 ] final  -72.08 input  -65.29 | X-H torsion
[ 10718 10713 10712 10709 ] final  133.81 input   66.30 | X-H torsion
[ 10763 10752 10751 10750 ] final  153.37 input  -60.55 | X-H torsion
[ 11005 11000 10999 10996 ] final  158.80 input  -57.11 | X-H torsion

> <Gold.Protein.ActiveResidues>
 VAL166  LYS551  ARG553  GLY616  TRP617  ASP618  TYR619  PRO620  LYS621  CYS622 
 ASP623  PHE694  ASN695  SER759  ASP760  ASP761  ALA762  ILE779  LEU786  VAL792 
 PHE793  MET794  SER795  GLU796  ALA797  LYS798  CYS799  TRP800  GLU811  SER814 

> <Gold.Protein.RotatedAtoms>
  152.5371  134.2610  159.8935 H   0  0  0  0  0  0  0  0  0  0  0  0  # atno 6907 bound_to 6896
  151.2570  133.4314  159.2622 H   0  0  0  0  0  0  0  0  0  0  0  0  # atno 6908 bound_to 6896
  151.0487  134.9672  159.8256 H   0  0  0  0  0  0  0  0  0  0  0  0  # atno 6909 bound_to 6896
  146.0743  139.5304  142.9578 H   0  0  0  0  0  0  0  0  0  0  0  0  # atno 7974 bound_to 7965
  155.9770  140.1174  157.0761 H   0  0  0  0  0  0  0  0  0  0  0  0  # atno 8008 bound_to 7997
  154.4172  140.1152  156.5452 H   0  0  0  0  0  0  0  0  0  0  0  0  # atno 8009 bound_to 7997
  155.6521  140.3473  155.4754 H   0  0  0  0  0  0  0  0  0  0  0  0  # atno 8010 bound_to 7997
  140.5221  143.2330  151.7412 H   0  0  0  0  0  0  0  0  0  0  0  0  # atno 10167 bound_to 10162
  157.4736  131.1081  150.9771 H   0  0  0  0  0  0  0  0  0  0  0  0  # atno 10718 bound_to 10713
  154.1350  135.2824  155.3175 H   0  0  0  0  0  0  0  0  0  0  0  0  # atno 10763 bound_to 10752
  154.6328  135.5429  153.7703 H   0  0  0  0  0  0  0  0  0  0  0  0  # atno 10764 bound_to 10752
  153.0269  135.6467  154.1499 H   0  0  0  0  0  0  0  0  0  0  0  0  # atno 10765 bound_to 10752
  140.1900  134.8414  157.2901 H   0  0  0  0  0  0  0  0  0  0  0  0  # atno 11005 bound_to 11000
  145.6335  141.0299  143.1850 LP  0  0  0  0  0  0  0  0  0  0  0  0  # atno 17320 bound_to 7965
  144.7251  139.7902  143.7368 LP  0  0  0  0  0  0  0  0  0  0  0  0  # atno 17321 bound_to 7965
  139.4926  144.4239  151.9947 LP  0  0  0  0  0  0  0  0  0  0  0  0  # atno 17342 bound_to 10162
  140.3337  144.3286  150.5982 LP  0  0  0  0  0  0  0  0  0  0  0  0  # atno 17343 bound_to 10162
  157.0528  130.5794  149.5373 LP  0  0  0  0  0  0  0  0  0  0  0  0  # atno 17370 bound_to 10713
  156.0085  130.5175  150.7912 LP  0  0  0  0  0  0  0  0  0  0  0  0  # atno 17371 bound_to 10713
  140.2170  134.4069  155.7584 LP  0  0  0  0  0  0  0  0  0  0  0  0  # atno 17394 bound_to 11000
  141.2226  133.7147  156.8430 LP  0  0  0  0  0  0  0  0  0  0  0  0  # atno 17395 bound_to 11000

$$$$
