AV-unprocessed.smi:869|AV-procd|sdf|4005|dock6
  -GOLD-   22720 1493D 1   1.00000     0.00000
 Structure written by MMmdl.
 47 49  0  0  0  0  0  0  0  0  2 V2000
  146.8333  139.5076  151.6952 C   0  0  0  0  0  0  0  0  0  0  0  0
  146.5701  138.1774  151.2848 O   0  0  0  0  0  0  0  0  0  0  0  0
  145.8398  137.4445  152.2549 C   0  0  0  0  0  0  0  0  0  0  0  0
  145.5831  136.0402  151.8161 C   0  0  0  0  0  0  0  0  0  0  0  0
  146.5127  135.1626  151.3429 N   0  3  0  0  0  0  0  0  0  0  0  0
  145.9017  133.9472  151.0340 C   0  0  0  0  0  0  0  0  0  0  0  0
  146.4322  132.7639  150.5293 C   0  0  0  0  0  0  0  0  0  0  0  0
  145.5284  131.6998  150.3299 C   0  0  0  0  0  0  0  0  0  0  0  0
  144.1575  131.8351  150.6302 C   0  0  0  0  0  0  0  0  0  0  0  0
  143.6313  133.0403  151.1403 C   0  0  0  0  0  0  0  0  0  0  0  0
  144.5310  134.0888  151.3332 C   0  0  0  0  0  0  0  0  0  0  0  0
  144.3811  135.3964  151.8116 N   0  0  0  0  0  0  0  0  0  0  0  0
  143.0517  135.8775  152.2206 C   0  0  0  0  0  0  0  0  0  0  0  0
  142.5724  135.2583  153.5492 C   0  0  2  0  0  0  0  0  0  0  0  0
  141.7788  134.1158  153.2967 O   0  0  0  0  0  0  0  0  0  0  0  0
  141.7484  136.2435  154.3906 C   0  0  0  0  0  0  0  0  0  0  0  0
  140.3703  136.0685  154.0897 O   0  0  0  0  0  0  0  0  0  0  0  0
  139.5736  137.1902  154.0047 C   0  0  0  0  0  0  0  0  0  0  0  0
  138.2137  137.0365  154.3446 C   0  0  0  0  0  0  0  0  0  0  0  0
  137.3265  138.1283  154.2842 C   0  0  0  0  0  0  0  0  0  0  0  0
  137.7912  139.3947  153.8790 C   0  0  0  0  0  0  0  0  0  0  0  0
  136.8387  140.5706  153.8148 C   0  0  0  0  0  0  0  0  0  0  0  0
  139.1482  139.5610  153.5390 C   0  0  0  0  0  0  0  0  0  0  0  0
  140.0352  138.4683  153.6002 C   0  0  0  0  0  0  0  0  0  0  0  0
  147.3855  140.0299  150.9139 H   0  0  0  0  0  0  0  0  0  0  0  0
  147.4364  139.5273  152.6040 H   0  0  0  0  0  0  0  0  0  0  0  0
  145.9079  140.0557  151.8769 H   0  0  0  0  0  0  0  0  0  0  0  0
  146.3902  137.4227  153.1967 H   0  0  0  0  0  0  0  0  0  0  0  0
  144.8819  137.9307  152.4445 H   0  0  0  0  0  0  0  0  0  0  0  0
  147.4824  132.6577  150.3008 H   0  0  0  0  0  0  0  0  0  0  0  0
  145.8941  130.7605  149.9411 H   0  0  0  0  0  0  0  0  0  0  0  0
  143.4955  130.9969  150.4682 H   0  0  0  0  0  0  0  0  0  0  0  0
  142.5807  133.1296  151.3731 H   0  0  0  0  0  0  0  0  0  0  0  0
  143.1191  136.9616  152.3189 H   0  0  0  0  0  0  0  0  0  0  0  0
  142.3381  135.6937  151.4175 H   0  0  0  0  0  0  0  0  0  0  0  0
  143.4352  134.9315  154.1305 H   0  0  0  0  0  0  0  0  0  0  0  0
  141.9598  133.4723  153.9651 H   0  0  0  0  0  0  0  0  0  0  0  0
  141.9365  136.0775  155.4528 H   0  0  0  0  0  0  0  0  0  0  0  0
  142.0433  137.2665  154.1498 H   0  0  0  0  0  0  0  0  0  0  0  0
  137.8458  136.0699  154.6559 H   0  0  0  0  0  0  0  0  0  0  0  0
  136.2885  137.9895  154.5492 H   0  0  0  0  0  0  0  0  0  0  0  0
  137.1667  141.2980  153.0714 H   0  0  0  0  0  0  0  0  0  0  0  0
  136.7893  141.0673  154.7839 H   0  0  0  0  0  0  0  0  0  0  0  0
  135.8348  140.2418  153.5445 H   0  0  0  0  0  0  0  0  0  0  0  0
  139.5149  140.5286  153.2291 H   0  0  0  0  0  0  0  0  0  0  0  0
  141.0659  138.6382  153.3295 H   0  0  0  0  0  0  0  0  0  0  0  0
  147.4946  135.3856  151.2426 H   0  0  0  0  0  0  0  0  0  0  0  0
  1  2  1  0  0  0  0
  1 25  1  0  0  0  0
  1 26  1  0  0  0  0
  1 27  1  0  0  0  0
  2  3  1  0  0  0  0
  3  4  1  0  0  0  0
  3 28  1  0  0  0  0
  3 29  1  0  0  0  0
  4 12  1  0  0  0  0
  4  5  2  0  0  0  0
  5  6  1  0  0  0  0
  5 47  1  0  0  0  0
  6 11  2  0  0  0  0
  6  7  1  0  0  0  0
  7  8  2  0  0  0  0
  7 30  1  0  0  0  0
  8  9  1  0  0  0  0
  8 31  1  0  0  0  0
  9 10  2  0  0  0  0
  9 32  1  0  0  0  0
 10 11  1  0  0  0  0
 10 33  1  0  0  0  0
 11 12  1  0  0  0  0
 12 13  1  0  0  0  0
 13 14  1  0  0  0  0
 13 34  1  0  0  0  0
 13 35  1  0  0  0  0
 14 15  1  0  0  0  0
 14 16  1  0  0  0  0
 14 36  1  0  0  0  0
 15 37  1  0  0  0  0
 16 17  1  0  0  0  0
 16 38  1  0  0  0  0
 16 39  1  0  0  0  0
 17 18  1  0  0  0  0
 18 24  1  0  0  0  0
 18 19  2  0  0  0  0
 19 20  1  0  0  0  0
 19 40  1  0  0  0  0
 20 21  2  0  0  0  0
 20 41  1  0  0  0  0
 21 22  1  0  0  0  0
 21 23  1  0  0  0  0
 22 42  1  0  0  0  0
 22 43  1  0  0  0  0
 22 44  1  0  0  0  0
 23 24  2  0  0  0  0
 23 45  1  0  0  0  0
 24 46  1  0  0  0  0
M  CHG  1   5   1
M  END
> <s_m_source_file>
AV-unprocessed.smi

> <i_m_source_file_index>
869

> <i_lp_mmshare_version>
43012

> <i_f3d_flags>
0

> <s_epik_input>
W2NIXTFbY0hdW2NIXVtjSF1jKGMxMiluKGMobjIpW0NIMl1PW0NIM10pW0NIMl1bQ0BIXShbT0hdKVtDSDJdT2MzW2NIXVtjSF1jKFtDSDNdKVtjSF1bY0hdMw==

> <s_epik_cmdline>
J2VwaWtfcHl0aG9uJywgJy1waCcsICc3LjAnLCAnLXRuJywgJzgnLCAnLW1hJywgJzIwMCcsICctbWV0YWxfYmluZGluZycsICctaW1hZScsICc8aW5maWxlLm1hZT4nLCAnLW9tYWUnLCAnPG91dGZpbGUubWFlPic=

> <r_lp_tautomer_probability>
1

> <r_epik_Ionization_Penalty>
1.5538

> <r_epik_Ionization_Penalty_Charging>
1.5538

> <r_epik_Ionization_Penalty_Neutral>
2.3993e-06

> <r_epik_State_Penalty>
1.64824

> <r_epik_Charging_Adjusted_Penalty>
3.20204

> <i_epik_Tot_Q>
1

> <i_epik_Tot_abs_Q>
1

> <r_epik_Metal_State_Penalty>
5.70315

> <b_epik_Metal_Only>
0

> <s_lp_Force_Field>
OPLS_2005

> <r_lp_Energy>
18.5065

> <b_lp_Chiralities_Consistent>
1

> <s_lp_Variant>
AV-unprocessed.smi:869-3

> <Gold.Version>
5.8.1

> <Gold.Id.Protein>
6NUR|6NUR_protein|mol2

> <Gold.PLP.Fitness>
56.7916

> <Gold.PLP.PLP>
-48.6921

> <Gold.PLP.part.hbond>
-3.2634

> <Gold.PLP.part.metal>
0.0000

> <Gold.PLP.part.buried>
-4.4386

> <Gold.PLP.part.nonpolar>
-43.2748

> <Gold.PLP.part.repulsive>
1.1445

> <Gold.PLP.ligand.clash>
0.0000

> <Gold.PLP.ligand.torsion>
1.7475

> <Gold.PLP.Chemscore.Hbond>
3.8125

> <Gold.PLP.Chemscore.CHOScore>
0.0000

> <Gold.PLP.Chemscore.Metal>
0.0000

> <Gold.Chemscore.Hbonds>
donor molecule, donor type, donor heavy atom, donor atom, acceptor molecule, acceptor atom, score
      L1  H     5    47       P1  7948  2.00
      L1  H    15    37       P1 10957  1.00
      P1  H  7954  7966       L1     2  0.73

> <Gold.PLP.Chemscore.Internal.Correction>
0.1570

> <Gold.Rescore>
     Score         DG    S(hbond)    S(metal)    S(lipo)     H(rot)  DE(clash)    DE(int)     intcor
     18.11     -20.45       2.00        0.00     124.50       2.45       0.62       1.71       ----

> <Gold.Chemscore.Fitness>
18.1113

> <Gold.Chemscore.DG>
-20.4478

> <Gold.Chemscore.ZeroCoef>
-5.4800

> <Gold.Chemscore.Hbond>
1.9976

> <Gold.Chemscore.Metal>
0.0000

> <Gold.Chemscore.Lipo>
124.4985

> <Gold.Chemscore.Internal_Hbond>
0.0000

> <Gold.Chemscore.DEClash>
0.6225

> <Gold.Chemscore.DEInternal>
1.7140

> <Gold.Chemscore.Rot>
2.4494

> <Gold.Chemscore.Internal.Correction>
   9.000000E+99

> <Gold.Chemscore.Hbonds>
donor molecule, donor type, donor heavy atom, donor atom, acceptor molecule, acceptor atom, score
      L1  H     5    47       P1  7948  0.62
      L1  H    15    37       P1 10957  0.95
      P1  H  7954  7966       L1     2  0.22

> <Gold.Chemscore.Hbond.Weighted>
-6.6720

> <Gold.Chemscore.Metal.Weighted>
-0.0000

> <Gold.Chemscore.Lipo.Weighted>
-14.5663

> <Gold.Chemscore.Internal_Hbond.Weighted>
0.0000

> <Gold.Chemscore.DEClash.Weighted>
0.6225

> <Gold.Chemscore.DEInternal.Weighted>
1.7140

> <Gold.Chemscore.Rot.Weighted>
6.2704

> <Gold.Chemscore.Internal.Correction.Weighted>
   9.000000E+99

> <Gold.Protein.RotatedTorsions>
[ 6907 6896 6895 6894 ] final   77.19 input  -60.11 | X-H torsion
[ 7974 7965 7964 7962 ] final -128.83 input  175.53 | X-H torsion
[ 8008 7997 7996 7995 ] final  -84.44 input   59.86 | X-H torsion
[ 10167 10162 10161 10158 ] final   34.04 input  -65.29 | X-H torsion
[ 10718 10713 10712 10709 ] final  -28.41 input   66.30 | X-H torsion
[ 10763 10752 10751 10750 ] final -169.77 input  -60.55 | X-H torsion
[ 11005 11000 10999 10996 ] final -110.25 input  -57.11 | X-H torsion

> <Gold.Protein.ActiveResidues>
 VAL166  LYS551  ARG553  GLY616  TRP617  ASP618  TYR619  PRO620  LYS621  CYS622 
 ASP623  PHE694  ASN695  SER759  ASP760  ASP761  ALA762  ILE779  LEU786  VAL792 
 PHE793  MET794  SER795  GLU796  ALA797  LYS798  CYS799  TRP800  GLU811  SER814 

> <Gold.Protein.RotatedAtoms>
  152.5106  134.3855  159.9365 H   0  0  0  0  0  0  0  0  0  0  0  0  # atno 6907 bound_to 6896
  151.3813  133.3814  159.2718 H   0  0  0  0  0  0  0  0  0  0  0  0  # atno 6908 bound_to 6896
  150.9502  134.8923  159.7726 H   0  0  0  0  0  0  0  0  0  0  0  0  # atno 6909 bound_to 6896
  144.9632  140.7468  143.4716 H   0  0  0  0  0  0  0  0  0  0  0  0  # atno 7974 bound_to 7965
  154.6299  140.0605  156.9719 H   0  0  0  0  0  0  0  0  0  0  0  0  # atno 8008 bound_to 7997
  155.1683  140.3288  155.4379 H   0  0  0  0  0  0  0  0  0  0  0  0  # atno 8009 bound_to 7997
  156.2477  140.1918  156.6786 H   0  0  0  0  0  0  0  0  0  0  0  0  # atno 8010 bound_to 7997
  140.4351  144.1268  150.6165 H   0  0  0  0  0  0  0  0  0  0  0  0  # atno 10167 bound_to 10162
  156.4256  130.4435  149.7153 H   0  0  0  0  0  0  0  0  0  0  0  0  # atno 10718 bound_to 10713
  154.6487  135.2908  155.0014 H   0  0  0  0  0  0  0  0  0  0  0  0  # atno 10763 bound_to 10752
  154.1114  135.6562  153.4890 H   0  0  0  0  0  0  0  0  0  0  0  0  # atno 10764 bound_to 10752
  153.0365  135.5266  154.7386 H   0  0  0  0  0  0  0  0  0  0  0  0  # atno 10765 bound_to 10752
  141.0802  133.9232  157.2304 H   0  0  0  0  0  0  0  0  0  0  0  0  # atno 11005 bound_to 11000
  145.2669  139.1970  143.4862 LP  0  0  0  0  0  0  0  0  0  0  0  0  # atno 17320 bound_to 7965
  146.3359  140.2608  142.8602 LP  0  0  0  0  0  0  0  0  0  0  0  0  # atno 17321 bound_to 7965
  140.4382  143.2538  151.9507 LP  0  0  0  0  0  0  0  0  0  0  0  0  # atno 17342 bound_to 10162
  139.4786  144.5679  151.8135 LP  0  0  0  0  0  0  0  0  0  0  0  0  # atno 17343 bound_to 10162
  156.4076  130.7706  151.2717 LP  0  0  0  0  0  0  0  0  0  0  0  0  # atno 17370 bound_to 10713
  157.7508  131.0221  150.3778 LP  0  0  0  0  0  0  0  0  0  0  0  0  # atno 17371 bound_to 10713
  139.9616  135.0153  156.9276 LP  0  0  0  0  0  0  0  0  0  0  0  0  # atno 17394 bound_to 11000
  140.5484  134.0651  155.7362 LP  0  0  0  0  0  0  0  0  0  0  0  0  # atno 17395 bound_to 11000

$$$$
