AV-unprocessed.smi:828|AV-procd|sdf|3863|dock4
  -GOLD-   22720 1313D 1   1.00000     0.00000
 Structure written by MMmdl.
 34 35  0  0  0  0  0  0  0  0  3 V2000
  148.7410  140.7439  154.5996 C   0  0  0  0  0  0  0  0  0  0  0  0
  149.6258  139.5448  154.6005 C   0  0  0  0  0  0  0  0  0  0  0  0
  150.9530  139.6274  154.4803 N   0  0  0  0  0  0  0  0  0  0  0  0
  151.5594  138.3800  154.5116 N   0  0  0  0  0  0  0  0  0  0  0  0
  150.6848  137.3733  154.6470 C   0  0  0  0  0  0  0  0  0  0  0  0
  151.0705  136.0877  154.7033 N   0  5  0  0  0  0  0  0  0  0  0  0
  150.1870  135.1325  155.0676 C   0  0  0  0  0  0  0  0  0  0  0  0
  149.9450  134.7575  156.2169 O   0  0  0  0  0  0  0  0  0  0  0  0
  149.5541  134.5661  154.0313 N   0  0  0  0  0  0  0  0  0  0  0  0
  148.5909  133.4709  154.1061 C   0  0  0  0  0  0  0  0  0  0  0  0
  147.9401  133.1611  152.7377 C   0  0  1  0  0  0  0  0  0  0  0  0
  147.0852  131.8953  152.6998 C   0  0  0  0  0  0  0  0  0  0  0  0
  146.2288  132.0690  151.4417 C   0  0  0  0  0  0  0  0  0  0  0  0
  146.3207  133.5611  151.0776 C   0  0  0  0  0  0  0  0  0  0  0  0
  147.0785  134.2242  152.1627 N   0  3  1  0  0  0  0  0  0  0  0  0
  146.1831  134.9163  153.1232 C   0  0  0  0  0  0  0  0  0  0  0  0
  149.0089  137.9094  154.7672 S   0  0  0  0  0  0  0  0  0  0  0  0
  149.0133  141.4123  153.7824 H   0  0  0  0  0  0  0  0  0  0  0  0
  148.8411  141.2810  155.5428 H   0  0  0  0  0  0  0  0  0  0  0  0
  147.7000  140.4465  154.4740 H   0  0  0  0  0  0  0  0  0  0  0  0
  149.7710  134.9212  153.1113 H   0  0  0  0  0  0  0  0  0  0  0  0
  149.0828  132.5789  154.4971 H   0  0  0  0  0  0  0  0  0  0  0  0
  147.8302  133.7391  154.8395 H   0  0  0  0  0  0  0  0  0  0  0  0
  148.7433  133.0162  152.0131 H   0  0  0  0  0  0  0  0  0  0  0  0
  147.6864  130.9859  152.6761 H   0  0  0  0  0  0  0  0  0  0  0  0
  146.4433  131.8467  153.5804 H   0  0  0  0  0  0  0  0  0  0  0  0
  146.6100  131.4571  150.6233 H   0  0  0  0  0  0  0  0  0  0  0  0
  145.1987  131.7633  151.6279 H   0  0  0  0  0  0  0  0  0  0  0  0
  146.8879  133.6749  150.1527 H   0  0  0  0  0  0  0  0  0  0  0  0
  145.3402  134.0087  150.9088 H   0  0  0  0  0  0  0  0  0  0  0  0
  145.5287  134.2108  153.6360 H   0  0  0  0  0  0  0  0  0  0  0  0
  145.5566  135.6401  152.6009 H   0  0  0  0  0  0  0  0  0  0  0  0
  146.7452  135.4720  153.8727 H   0  0  0  0  0  0  0  0  0  0  0  0
  147.6756  134.9326  151.7595 H   0  0  0  0  0  0  0  0  0  0  0  0
  1  2  1  0  0  0  0
  1 18  1  0  0  0  0
  1 19  1  0  0  0  0
  1 20  1  0  0  0  0
  2 17  1  0  0  0  0
  2  3  2  0  0  0  0
  3  4  1  0  0  0  0
  4  5  2  0  0  0  0
  5  6  1  0  0  0  0
  5 17  1  0  0  0  0
  6  7  1  0  0  0  0
  7  8  2  0  0  0  0
  7  9  1  0  0  0  0
  9 10  1  0  0  0  0
  9 21  1  0  0  0  0
 10 11  1  0  0  0  0
 10 22  1  0  0  0  0
 10 23  1  0  0  0  0
 11 15  1  0  0  0  0
 11 12  1  0  0  0  0
 11 24  1  0  0  0  0
 12 13  1  0  0  0  0
 12 25  1  0  0  0  0
 12 26  1  0  0  0  0
 13 14  1  0  0  0  0
 13 27  1  0  0  0  0
 13 28  1  0  0  0  0
 14 15  1  0  0  0  0
 14 29  1  0  0  0  0
 14 30  1  0  0  0  0
 15 16  1  0  0  0  0
 15 34  1  0  0  0  0
 16 31  1  0  0  0  0
 16 32  1  0  0  0  0
 16 33  1  0  0  0  0
M  CHG  1   6  -1
M  CHG  1  15   1
M  END
> <s_m_source_file>
AV-unprocessed.smi

> <i_m_source_file_index>
828

> <i_lp_mmshare_version>
43012

> <i_f3d_flags>
0

> <s_epik_input>
W0NIM11jMW5uYyhzMSlbTkhdQyg9TylbTkhdW0NIMl1bQ0BASF0yW0NIMl1bQ0gyXVtDSDJdTjJbQ0gzXQ==

> <s_epik_cmdline>
J2VwaWtfcHl0aG9uJywgJy1waCcsICc3LjAnLCAnLXRuJywgJzgnLCAnLW1hJywgJzIwMCcsICctbWV0YWxfYmluZGluZycsICctaW1hZScsICc8aW5maWxlLm1hZT4nLCAnLW9tYWUnLCAnPG91dGZpbGUubWFlPic=

> <r_lp_tautomer_probability>
1

> <r_epik_Ionization_Penalty>
3.94379

> <r_epik_Ionization_Penalty_Charging>
3.83377

> <r_epik_Ionization_Penalty_Neutral>
0.110023

> <r_epik_State_Penalty>
3.83036

> <r_epik_Charging_Adjusted_Penalty>
7.66413

> <i_epik_Tot_Q>
0

> <i_epik_Tot_abs_Q>
2

> <r_epik_Metal_State_Penalty>
0.575095

> <b_epik_Metal_Only>
1

> <s_lp_Force_Field>
OPLS_2005

> <r_lp_Energy>
27.8836

> <b_lp_Chiralities_Consistent>
1

> <s_lp_Variant>
AV-unprocessed.smi:828-6

> <Gold.Version>
5.8.1

> <Gold.Id.Protein>
6NUR|6NUR_protein|mol2

> <Gold.PLP.Fitness>
42.1061

> <Gold.PLP.PLP>
-28.7428

> <Gold.PLP.part.hbond>
-4.0000

> <Gold.PLP.part.metal>
0.0000

> <Gold.PLP.part.buried>
-2.9981

> <Gold.PLP.part.nonpolar>
-22.0088

> <Gold.PLP.part.repulsive>
0.4906

> <Gold.PLP.ligand.clash>
0.0000

> <Gold.PLP.ligand.torsion>
0.8211

> <Gold.PLP.Chemscore.Hbond>
5.0000

> <Gold.PLP.Chemscore.CHOScore>
0.0000

> <Gold.PLP.Chemscore.Metal>
0.0000

> <Gold.Chemscore.Hbonds>
donor molecule, donor type, donor heavy atom, donor atom, acceptor molecule, acceptor atom, score
      L1  H    15    34       P1  7948  2.00
      P1  H  7989  7998       L1     3  1.00
      P1  H 10752 10763       L1     6  2.00

> <Gold.PLP.Chemscore.Internal.Correction>
0.0056

> <Gold.Rescore>
     Score         DG    S(hbond)    S(metal)    S(lipo)     H(rot)  DE(clash)    DE(int)     intcor
     16.48     -17.37       2.83        0.00      49.60       1.31       0.01       0.89       ----

> <Gold.Chemscore.Fitness>
16.4779

> <Gold.Chemscore.DG>
-17.3709

> <Gold.Chemscore.ZeroCoef>
-5.4800

> <Gold.Chemscore.Hbond>
2.8307

> <Gold.Chemscore.Metal>
0.0000

> <Gold.Chemscore.Lipo>
49.5956

> <Gold.Chemscore.Internal_Hbond>
0.0000

> <Gold.Chemscore.DEClash>
0.0077

> <Gold.Chemscore.DEInternal>
0.8853

> <Gold.Chemscore.Rot>
1.3149

> <Gold.Chemscore.Internal.Correction>
   9.000000E+99

> <Gold.Chemscore.Hbonds>
donor molecule, donor type, donor heavy atom, donor atom, acceptor molecule, acceptor atom, score
      L1  H    15    34       P1  7948  0.59
      P1  H  7989  7998       L1     3  0.94
      P1  H 10752 10763       L1     6  0.95

> <Gold.Chemscore.Hbond.Weighted>
-9.4545

> <Gold.Chemscore.Metal.Weighted>
-0.0000

> <Gold.Chemscore.Lipo.Weighted>
-5.8027

> <Gold.Chemscore.Internal_Hbond.Weighted>
0.0000

> <Gold.Chemscore.DEClash.Weighted>
0.0077

> <Gold.Chemscore.DEInternal.Weighted>
0.8853

> <Gold.Chemscore.Rot.Weighted>
3.3662

> <Gold.Chemscore.Internal.Correction.Weighted>
   9.000000E+99

> <Gold.Protein.RotatedTorsions>
[ 6907 6896 6895 6894 ] final  -81.79 input  -60.11 | X-H torsion
[ 7974 7965 7964 7962 ] final  123.46 input  175.53 | X-H torsion
[ 8008 7997 7996 7995 ] final -116.33 input   59.86 | X-H torsion
[ 10167 10162 10161 10158 ] final  -32.37 input  -65.29 | X-H torsion
[ 10718 10713 10712 10709 ] final   52.91 input   66.30 | X-H torsion
[ 10763 10752 10751 10750 ] final   50.76 input  -60.55 | X-H torsion
[ 11005 11000 10999 10996 ] final   92.36 input  -57.11 | X-H torsion

> <Gold.Protein.ActiveResidues>
 VAL166  LYS551  ARG553  GLY616  TRP617  ASP618  TYR619  PRO620  LYS621  CYS622 
 ASP623  PHE694  ASN695  SER759  ASP760  ASP761  ALA762  ILE779  LEU786  VAL792 
 PHE793  MET794  SER795  GLU796  ALA797  LYS798  CYS799  TRP800  GLU811  SER814 

> <Gold.Protein.RotatedAtoms>
  150.6906  134.3763  159.5014 H   0  0  0  0  0  0  0  0  0  0  0  0  # atno 6907 bound_to 6896
  152.1572  134.8938  160.0553 H   0  0  0  0  0  0  0  0  0  0  0  0  # atno 6908 bound_to 6896
  152.0014  133.3792  159.4220 H   0  0  0  0  0  0  0  0  0  0  0  0  # atno 6909 bound_to 6896
  145.0957  139.3555  143.4838 H   0  0  0  0  0  0  0  0  0  0  0  0  # atno 7974 bound_to 7965
  155.0662  140.0393  157.2593 H   0  0  0  0  0  0  0  0  0  0  0  0  # atno 8008 bound_to 7997
  154.7020  140.2675  155.6686 H   0  0  0  0  0  0  0  0  0  0  0  0  # atno 8009 bound_to 7997
  156.2763  140.2738  156.1633 H   0  0  0  0  0  0  0  0  0  0  0  0  # atno 8010 bound_to 7997
  140.7222  143.3700  151.1796 H   0  0  0  0  0  0  0  0  0  0  0  0  # atno 10167 bound_to 10162
  157.5118  130.8506  149.8445 H   0  0  0  0  0  0  0  0  0  0  0  0  # atno 10718 bound_to 10713
  152.9784  135.5868  154.4305 H   0  0  0  0  0  0  0  0  0  0  0  0  # atno 10763 bound_to 10752
  154.3918  135.2768  155.2152 H   0  0  0  0  0  0  0  0  0  0  0  0  # atno 10764 bound_to 10752
  154.4020  135.6101  153.5957 H   0  0  0  0  0  0  0  0  0  0  0  0  # atno 10765 bound_to 10752
  139.8824  134.8728  156.3562 H   0  0  0  0  0  0  0  0  0  0  0  0  # atno 11005 bound_to 11000
  146.3531  140.0811  142.8617 LP  0  0  0  0  0  0  0  0  0  0  0  0  # atno 17320 bound_to 7965
  145.1014  140.9348  143.4710 LP  0  0  0  0  0  0  0  0  0  0  0  0  # atno 17321 bound_to 7965
  139.7269  143.9133  152.3006 LP  0  0  0  0  0  0  0  0  0  0  0  0  # atno 17342 bound_to 10162
  139.8909  144.6966  150.8771 LP  0  0  0  0  0  0  0  0  0  0  0  0  # atno 17343 bound_to 10162
  156.0294  130.3769  150.1730 LP  0  0  0  0  0  0  0  0  0  0  0  0  # atno 17370 bound_to 10713
  156.9919  130.9896  151.3412 LP  0  0  0  0  0  0  0  0  0  0  0  0  # atno 17371 bound_to 10713
  140.9560  133.7419  156.0337 LP  0  0  0  0  0  0  0  0  0  0  0  0  # atno 17394 bound_to 11000
  140.8047  134.3468  157.5429 LP  0  0  0  0  0  0  0  0  0  0  0  0  # atno 17395 bound_to 11000

$$$$
