AV-unprocessed.smi:1399|AV-procd|sdf|5684|dock7
  -GOLD-   22720 5313D 1   1.00000     0.00000
 Structure written by MMmdl.
 37 38  0  0  0  0  0  0  0  0  3 V2000
  142.8677  132.1239  149.0809 N   0  5  0  0  0  0  0  0  0  0  0  0
  143.8012  132.4818  149.9831 C   0  0  0  0  0  0  0  0  0  0  0  0
  144.9903  132.7230  149.7851 O   0  0  0  0  0  0  0  0  0  0  0  0
  143.2303  132.6044  151.3998 C   0  0  0  0  0  0  0  0  0  0  0  0
  142.9318  134.0247  151.7098 N   0  3  2  0  0  0  0  0  0  0  0  0
  144.1616  134.8514  151.8073 C   0  0  0  0  0  0  0  0  0  0  0  0
  143.8187  136.3404  151.9852 C   0  0  0  0  0  0  0  0  0  0  0  0
  142.9237  136.5610  153.2150 C   0  0  1  0  0  0  0  0  0  0  0  0
  142.5460  137.9681  153.3115 N   0  0  0  0  0  0  0  0  0  0  0  0
  141.5139  138.4412  154.0251 C   0  0  0  0  0  0  0  0  0  0  0  0
  140.7655  137.7278  154.6931 O   0  0  0  0  0  0  0  0  0  0  0  0
  141.4077  139.7746  153.9067 N   0  0  0  0  0  0  0  0  0  0  0  0
  140.4434  140.6145  154.5183 C   0  0  0  0  0  0  0  0  0  0  0  0
  140.1014  141.9656  154.2162 C   0  0  0  0  0  0  0  0  0  0  0  0
  139.1406  142.4072  155.0156 N   0  0  0  0  0  0  0  0  0  0  0  0
  138.8665  141.3563  155.8209 N   0  0  0  0  0  0  0  0  0  0  0  0
  139.6348  140.2452  155.5515 C   0  0  0  0  0  0  0  0  0  0  0  0
  141.6754  135.6666  153.1088 C   0  0  0  0  0  0  0  0  0  0  0  0
  142.0631  134.1928  152.9061 C   0  0  0  0  0  0  0  0  0  0  0  0
  138.1608  141.4131  156.5415 H   0  0  0  0  0  0  0  0  0  0  0  0
  142.0241  132.7025  148.9884 H   0  0  0  0  0  0  0  0  0  0  0  0
  142.3449  131.9838  151.5553 H   0  0  0  0  0  0  0  0  0  0  0  0
  143.9950  132.2268  152.0798 H   0  0  0  0  0  0  0  0  0  0  0  0
  144.7708  134.5012  152.6421 H   0  0  0  0  0  0  0  0  0  0  0  0
  144.7599  134.7291  150.9036 H   0  0  0  0  0  0  0  0  0  0  0  0
  144.7375  136.9199  152.0822 H   0  0  0  0  0  0  0  0  0  0  0  0
  143.3158  136.7047  151.0878 H   0  0  0  0  0  0  0  0  0  0  0  0
  143.4902  136.2787  154.1048 H   0  0  0  0  0  0  0  0  0  0  0  0
  143.1074  138.6279  152.7930 H   0  0  0  0  0  0  0  0  0  0  0  0
  142.0813  140.2368  153.3139 H   0  0  0  0  0  0  0  0  0  0  0  0
  140.5000  142.6311  153.4654 H   0  0  0  0  0  0  0  0  0  0  0  0
  139.5416  139.3212  156.1026 H   0  0  0  0  0  0  0  0  0  0  0  0
  141.0644  135.7627  154.0071 H   0  0  0  0  0  0  0  0  0  0  0  0
  141.0525  135.9944  152.2751 H   0  0  0  0  0  0  0  0  0  0  0  0
  141.1547  133.5993  152.7997 H   0  0  0  0  0  0  0  0  0  0  0  0
  142.5819  133.8171  153.7894 H   0  0  0  0  0  0  0  0  0  0  0  0
  142.4133  134.3746  150.9167 H   0  0  0  0  0  0  0  0  0  0  0  0
  1  2  1  0  0  0  0
  1 21  1  0  0  0  0
  2  3  2  0  0  0  0
  2  4  1  0  0  0  0
  4  5  1  0  0  0  0
  4 22  1  0  0  0  0
  4 23  1  0  0  0  0
  5 19  1  0  0  0  0
  5  6  1  0  0  0  0
  5 37  1  0  0  0  0
  6  7  1  0  0  0  0
  6 24  1  0  0  0  0
  6 25  1  0  0  0  0
  7  8  1  0  0  0  0
  7 26  1  0  0  0  0
  7 27  1  0  0  0  0
  8  9  1  0  0  0  0
  8 18  1  0  0  0  0
  8 28  1  0  0  0  0
  9 10  1  0  0  0  0
  9 29  1  0  0  0  0
 10 11  2  0  0  0  0
 10 12  1  0  0  0  0
 12 13  1  0  0  0  0
 12 30  1  0  0  0  0
 13 17  2  0  0  0  0
 13 14  1  0  0  0  0
 14 15  2  0  0  0  0
 14 31  1  0  0  0  0
 15 16  1  0  0  0  0
 16 20  1  0  0  0  0
 16 17  1  0  0  0  0
 17 32  1  0  0  0  0
 18 19  1  0  0  0  0
 18 33  1  0  0  0  0
 18 34  1  0  0  0  0
 19 35  1  0  0  0  0
 19 36  1  0  0  0  0
M  CHG  1   1  -1
M  CHG  1   5   1
M  END
> <s_m_source_file>
AV-unprocessed.smi

> <i_m_source_file_index>
1399

> <i_lp_mmshare_version>
43012

> <i_f3d_flags>
0

> <s_epik_input>
W05IMl1DKD1PKVtDSDJdTjFbQ0gyXVtDSDJdW0NIXShbQ0gyXVtDSDJdMSlbTkhdQyg9TylbTkhdYzJbY0hdbltuSF1bY0hdMg==

> <s_epik_cmdline>
J2VwaWtfcHl0aG9uJywgJy1waCcsICc3LjAnLCAnLXRuJywgJzgnLCAnLW1hJywgJzIwMCcsICctbWV0YWxfYmluZGluZycsICctaW1hZScsICc8aW5maWxlLm1hZT4nLCAnLW9tYWUnLCAnPG91dGZpbGUubWFlPic=

> <r_lp_tautomer_probability>
0.5

> <r_epik_Ionization_Penalty>
5.72885

> <r_epik_Ionization_Penalty_Charging>
5.7288

> <r_epik_Ionization_Penalty_Neutral>
4.21226e-05

> <r_epik_State_Penalty>
6.54882

> <r_epik_Charging_Adjusted_Penalty>
12.2776

> <i_epik_Tot_Q>
0

> <i_epik_Tot_abs_Q>
2

> <r_epik_Metal_State_Penalty>
2.51297

> <b_epik_Metal_Only>
1

> <s_lp_Force_Field>
OPLS_2005

> <r_lp_Energy>
11.0753

> <b_lp_Chiralities_Consistent>
1

> <s_lp_Variant>
AV-unprocessed.smi:1399-4

> <Gold.Version>
5.8.1

> <Gold.Id.Protein>
6NUR|6NUR_protein|mol2

> <Gold.PLP.Fitness>
49.5210

> <Gold.PLP.PLP>
-28.1223

> <Gold.PLP.part.hbond>
-6.2242

> <Gold.PLP.part.metal>
0.0000

> <Gold.PLP.part.buried>
-4.9995

> <Gold.PLP.part.nonpolar>
-18.1235

> <Gold.PLP.part.repulsive>
0.2517

> <Gold.PLP.ligand.clash>
0.0000

> <Gold.PLP.ligand.torsion>
0.6902

> <Gold.PLP.Chemscore.Hbond>
5.5871

> <Gold.PLP.Chemscore.CHOScore>
2.0000

> <Gold.PLP.Chemscore.Metal>
0.0000

> <Gold.Chemscore.Hbonds>
donor molecule, donor type, donor heavy atom, donor atom, acceptor molecule, acceptor atom, score
      L1  H     1    21       P1 10186  0.92
      L1  H     5    37       P1 10186  1.70
      L1  H     9    29       P1 10175  0.98
      L1  H    12    30       P1 10175  1.00
      P1  H 10785 10796       L1     1  0.99
      L1  C    14    31       P1 10162  1.00
      L1  C    14    31       P1 10174  1.00

> <Gold.PLP.Chemscore.Internal.Correction>
0.0177

> <Gold.Rescore>
     Score         DG    S(hbond)    S(metal)    S(lipo)     H(rot)  DE(clash)    DE(int)     intcor
     10.52     -15.16       3.09        0.00      39.63       2.06       0.26       4.38       ----

> <Gold.Chemscore.Fitness>
10.5162

> <Gold.Chemscore.DG>
-15.1623

> <Gold.Chemscore.ZeroCoef>
-5.4800

> <Gold.Chemscore.Hbond>
3.0883

> <Gold.Chemscore.Metal>
0.0000

> <Gold.Chemscore.Lipo>
39.6304

> <Gold.Chemscore.Internal_Hbond>
0.0000

> <Gold.Chemscore.DEClash>
0.2641

> <Gold.Chemscore.DEInternal>
4.3820

> <Gold.Chemscore.Rot>
2.0584

> <Gold.Chemscore.Internal.Correction>
   9.000000E+99

> <Gold.Chemscore.Hbonds>
donor molecule, donor type, donor heavy atom, donor atom, acceptor molecule, acceptor atom, score
      L1  H     1    21       P1 10186  0.84
      L1  H     5    37       P1 10186  0.14
      L1  H     9    29       P1 10175  0.93
      L1  H    12    30       P1 10175  0.30
      P1  H 10785 10796       L1     1  0.46

> <Gold.Chemscore.Hbond.Weighted>
-10.3150

> <Gold.Chemscore.Metal.Weighted>
-0.0000

> <Gold.Chemscore.Lipo.Weighted>
-4.6368

> <Gold.Chemscore.Internal_Hbond.Weighted>
0.0000

> <Gold.Chemscore.DEClash.Weighted>
0.2641

> <Gold.Chemscore.DEInternal.Weighted>
4.3820

> <Gold.Chemscore.Rot.Weighted>
5.2695

> <Gold.Chemscore.Internal.Correction.Weighted>
   9.000000E+99

> <Gold.Protein.RotatedTorsions>
[ 6907 6896 6895 6894 ] final   14.27 input  -60.11 | X-H torsion
[ 7974 7965 7964 7962 ] final  135.79 input  175.53 | X-H torsion
[ 8008 7997 7996 7995 ] final  126.86 input   59.86 | X-H torsion
[ 10167 10162 10161 10158 ] final   85.03 input  -65.29 | X-H torsion
[ 10718 10713 10712 10709 ] final  154.65 input   66.30 | X-H torsion
[ 10763 10752 10751 10750 ] final -176.44 input  -60.55 | X-H torsion
[ 11005 11000 10999 10996 ] final  -75.71 input  -57.11 | X-H torsion

> <Gold.Protein.ActiveResidues>
 VAL166  LYS551  ARG553  GLY616  TRP617  ASP618  TYR619  PRO620  LYS621  CYS622 
 ASP623  PHE694  ASN695  SER759  ASP760  ASP761  ALA762  ILE779  LEU786  VAL792 
 PHE793  MET794  SER795  GLU796  ALA797  LYS798  CYS799  TRP800  GLU811  SER814 

> <Gold.Protein.RotatedAtoms>
  151.7995  135.0713  160.0398 H   0  0  0  0  0  0  0  0  0  0  0  0  # atno 6907 bound_to 6896
  152.3099  133.5737  159.5682 H   0  0  0  0  0  0  0  0  0  0  0  0  # atno 6908 bound_to 6896
  150.7314  134.0084  159.3703 H   0  0  0  0  0  0  0  0  0  0  0  0  # atno 6909 bound_to 6896
  144.9629  139.4690  143.5471 H   0  0  0  0  0  0  0  0  0  0  0  0  # atno 7974 bound_to 7965
  156.2875  140.2682  156.2179 H   0  0  0  0  0  0  0  0  0  0  0  0  # atno 8008 bound_to 7997
  155.0198  140.0386  157.2451 H   0  0  0  0  0  0  0  0  0  0  0  0  # atno 8009 bound_to 7997
  154.7446  140.2731  155.6349 H   0  0  0  0  0  0  0  0  0  0  0  0  # atno 8010 bound_to 7997
  139.9019  144.6324  150.8628 H   0  0  0  0  0  0  0  0  0  0  0  0  # atno 10167 bound_to 10162
  157.2289  131.0734  151.1866 H   0  0  0  0  0  0  0  0  0  0  0  0  # atno 10718 bound_to 10713
  154.5724  135.2829  155.0814 H   0  0  0  0  0  0  0  0  0  0  0  0  # atno 10763 bound_to 10752
  154.2182  135.6396  153.5140 H   0  0  0  0  0  0  0  0  0  0  0  0  # atno 10764 bound_to 10752
  153.0061  135.5508  154.6351 H   0  0  0  0  0  0  0  0  0  0  0  0  # atno 10765 bound_to 10752
  141.1648  133.6957  156.7559 H   0  0  0  0  0  0  0  0  0  0  0  0  # atno 11005 bound_to 11000
  146.3359  139.8791  142.8827 LP  0  0  0  0  0  0  0  0  0  0  0  0  # atno 17320 bound_to 7965
  145.2673  141.0097  143.3792 LP  0  0  0  0  0  0  0  0  0  0  0  0  # atno 17321 bound_to 7965
  140.7705  143.3430  151.2168 LP  0  0  0  0  0  0  0  0  0  0  0  0  # atno 17342 bound_to 10162
  139.7018  143.9521  152.2909 LP  0  0  0  0  0  0  0  0  0  0  0  0  # atno 17343 bound_to 10162
  157.3499  130.7077  149.6434 LP  0  0  0  0  0  0  0  0  0  0  0  0  # atno 17370 bound_to 10713
  155.9677  130.4255  150.4659 LP  0  0  0  0  0  0  0  0  0  0  0  0  # atno 17371 bound_to 10713
  140.2570  134.8496  157.3722 LP  0  0  0  0  0  0  0  0  0  0  0  0  # atno 17394 bound_to 11000
  140.1648  134.4683  155.7870 LP  0  0  0  0  0  0  0  0  0  0  0  0  # atno 17395 bound_to 11000

$$$$
