AV-unprocessed.smi:2074|AV-procd|sdf|8454|dock2
  -GOLD-   2272011153D 1   1.00000     0.00000
 Structure written by MMmdl.
 44 45  0  0  0  0  0  0  0  0  2 V2000
  140.7177  143.2789  158.0099 C   0  0  0  0  0  0  0  0  0  0  0  0
  141.5076  143.5266  159.2632 C   0  0  0  0  0  0  0  0  0  0  0  0
  141.3511  144.6700  159.9084 N   0  0  0  0  0  0  0  0  0  0  0  0
  142.2047  144.6070  161.0138 O   0  0  0  0  0  0  0  0  0  0  0  0
  142.8491  143.4130  160.9913 C   0  0  0  0  0  0  0  0  0  0  0  0
  143.8112  143.1548  162.1010 C   0  0  0  0  0  0  0  0  0  0  0  0
  142.4542  142.6775  159.9072 C   0  0  0  0  0  0  0  0  0  0  0  0
  142.9070  141.3003  159.4931 C   0  0  0  0  0  0  0  0  0  0  0  0
  144.4097  141.3160  159.2126 C   0  0  0  0  0  0  0  0  0  0  0  0
  145.2053  141.5614  160.1187 O   0  0  0  0  0  0  0  0  0  0  0  0
  144.7855  141.0440  157.9546 N   0  0  0  0  0  0  0  0  0  0  0  0
  146.1688  140.9670  157.5007 C   0  0  0  0  0  0  0  0  0  0  0  0
  146.7140  142.3477  157.0475 C   0  0  2  0  0  0  0  0  0  0  0  0
  145.6527  143.0885  156.1987 C   0  0  0  0  0  0  0  0  0  0  0  0
  148.0135  142.2579  156.3013 N   0  3  0  0  0  0  0  0  0  0  0  0
  149.0879  141.5956  157.0920 C   0  0  0  0  0  0  0  0  0  0  0  0
  150.4202  141.5826  156.3249 C   0  0  0  0  0  0  0  0  0  0  0  0
  150.2441  140.9184  155.0833 O   0  0  0  0  0  0  0  0  0  0  0  0
  149.3057  141.5970  154.2630 C   0  0  0  0  0  0  0  0  0  0  0  0
  147.9305  141.6291  154.9529 C   0  0  0  0  0  0  0  0  0  0  0  0
  140.6736  142.2171  157.7691 H   0  0  0  0  0  0  0  0  0  0  0  0
  141.1654  143.7928  157.1592 H   0  0  0  0  0  0  0  0  0  0  0  0
  139.6916  143.6335  158.1123 H   0  0  0  0  0  0  0  0  0  0  0  0
  144.0362  142.0914  162.1847 H   0  0  0  0  0  0  0  0  0  0  0  0
  143.4016  143.4871  163.0550 H   0  0  0  0  0  0  0  0  0  0  0  0
  144.7477  143.6857  161.9301 H   0  0  0  0  0  0  0  0  0  0  0  0
  142.6945  140.5576  160.2627 H   0  0  0  0  0  0  0  0  0  0  0  0
  142.3805  140.9638  158.5990 H   0  0  0  0  0  0  0  0  0  0  0  0
  144.0648  140.8553  157.2732 H   0  0  0  0  0  0  0  0  0  0  0  0
  146.7402  140.5738  158.3418 H   0  0  0  0  0  0  0  0  0  0  0  0
  146.2490  140.2482  156.6830 H   0  0  0  0  0  0  0  0  0  0  0  0
  146.8946  142.9301  157.9527 H   0  0  0  0  0  0  0  0  0  0  0  0
  144.6941  143.1615  156.7115 H   0  0  0  0  0  0  0  0  0  0  0  0
  145.4777  142.5736  155.2537 H   0  0  0  0  0  0  0  0  0  0  0  0
  145.9374  144.1140  155.9711 H   0  0  0  0  0  0  0  0  0  0  0  0
  149.2520  142.1038  158.0399 H   0  0  0  0  0  0  0  0  0  0  0  0
  148.7892  140.5728  157.3279 H   0  0  0  0  0  0  0  0  0  0  0  0
  150.7906  142.5966  156.1647 H   0  0  0  0  0  0  0  0  0  0  0  0
  151.1796  141.0541  156.9013 H   0  0  0  0  0  0  0  0  0  0  0  0
  149.6567  142.6075  154.0470 H   0  0  0  0  0  0  0  0  0  0  0  0
  149.2336  141.0766  153.3078 H   0  0  0  0  0  0  0  0  0  0  0  0
  147.5329  140.6171  155.0443 H   0  0  0  0  0  0  0  0  0  0  0  0
  147.2594  142.1889  154.3026 H   0  0  0  0  0  0  0  0  0  0  0  0
  148.3130  143.2093  156.1414 H   0  0  0  0  0  0  0  0  0  0  0  0
  1  2  1  0  0  0  0
  1 21  1  0  0  0  0
  1 22  1  0  0  0  0
  1 23  1  0  0  0  0
  2  7  1  0  0  0  0
  2  3  2  0  0  0  0
  3  4  1  0  0  0  0
  4  5  1  0  0  0  0
  5  6  1  0  0  0  0
  5  7  2  0  0  0  0
  6 24  1  0  0  0  0
  6 25  1  0  0  0  0
  6 26  1  0  0  0  0
  7  8  1  0  0  0  0
  8  9  1  0  0  0  0
  8 27  1  0  0  0  0
  8 28  1  0  0  0  0
  9 10  2  0  0  0  0
  9 11  1  0  0  0  0
 11 12  1  0  0  0  0
 11 29  1  0  0  0  0
 12 13  1  0  0  0  0
 12 30  1  0  0  0  0
 12 31  1  0  0  0  0
 13 14  1  0  0  0  0
 13 15  1  0  0  0  0
 13 32  1  0  0  0  0
 14 33  1  0  0  0  0
 14 34  1  0  0  0  0
 14 35  1  0  0  0  0
 15 20  1  0  0  0  0
 15 16  1  0  0  0  0
 15 44  1  0  0  0  0
 16 17  1  0  0  0  0
 16 36  1  0  0  0  0
 16 37  1  0  0  0  0
 17 18  1  0  0  0  0
 17 38  1  0  0  0  0
 17 39  1  0  0  0  0
 18 19  1  0  0  0  0
 19 20  1  0  0  0  0
 19 40  1  0  0  0  0
 19 41  1  0  0  0  0
 20 42  1  0  0  0  0
 20 43  1  0  0  0  0
M  CHG  1  15   1
M  END
> <s_m_source_file>
AV-unprocessed.smi

> <i_m_source_file_index>
2074

> <i_lp_mmshare_version>
43012

> <i_f3d_flags>
0

> <s_epik_input>
W0NIM11jMW5vYyhbQ0gzXSljMVtDSDJdQyg9TylbTkhdW0NIMl1bQ0BIXShbQ0gzXSlOMltDSDJdW0NIMl1PW0NIMl1bQ0gyXTI=

> <s_epik_cmdline>
J2VwaWtfcHl0aG9uJywgJy1waCcsICc3LjAnLCAnLXRuJywgJzgnLCAnLW1hJywgJzIwMCcsICctbWV0YWxfYmluZGluZycsICctaW1hZScsICc8aW5maWxlLm1hZT4nLCAnLW9tYWUnLCAnPG91dGZpbGUubWFlPic=

> <r_epik_Ionization_Penalty>
0.663207

> <r_epik_Ionization_Penalty_Charging>
0.663207

> <r_epik_Ionization_Penalty_Neutral>
1.0751e-07

> <r_epik_State_Penalty>
0.682743

> <r_epik_Charging_Adjusted_Penalty>
1.34595

> <i_epik_Tot_Q>
1

> <i_epik_Tot_abs_Q>
1

> <r_epik_Metal_State_Penalty>
0.682743

> <b_epik_Metal_Only>
0

> <s_lp_Force_Field>
OPLS_2005

> <r_lp_Energy>
15.5823

> <b_lp_Chiralities_Consistent>
1

> <s_lp_Variant>
AV-unprocessed.smi:2074-3

> <Gold.Version>
5.8.1

> <Gold.Id.Protein>
6NUR|6NUR_protein|mol2

> <Gold.PLP.Fitness>
34.1194

> <Gold.PLP.PLP>
-23.4948

> <Gold.PLP.part.hbond>
-3.0000

> <Gold.PLP.part.metal>
0.0000

> <Gold.PLP.part.buried>
-3.0559

> <Gold.PLP.part.nonpolar>
-17.0310

> <Gold.PLP.part.repulsive>
0.3288

> <Gold.PLP.ligand.clash>
0.0000

> <Gold.PLP.ligand.torsion>
0.3364

> <Gold.PLP.Chemscore.Hbond>
3.7262

> <Gold.PLP.Chemscore.CHOScore>
0.0000

> <Gold.PLP.Chemscore.Metal>
0.0000

> <Gold.Chemscore.Hbonds>
donor molecule, donor type, donor heavy atom, donor atom, acceptor molecule, acceptor atom, score
      L1  H    15    44       P1  8028  2.00
      P1  H  6934  6946       L1    10  1.00
      P1  H  7989  7998       L1    18  0.31

> <Gold.PLP.Chemscore.Internal.Correction>
0.1188

> <Gold.Rescore>
     Score         DG    S(hbond)    S(metal)    S(lipo)     H(rot)  DE(clash)    DE(int)     intcor
     12.94     -13.53       1.97        0.00      51.82       1.80       0.12       0.47       ----

> <Gold.Chemscore.Fitness>
12.9364

> <Gold.Chemscore.DG>
-13.5261

> <Gold.Chemscore.ZeroCoef>
-5.4800

> <Gold.Chemscore.Hbond>
1.9704

> <Gold.Chemscore.Metal>
0.0000

> <Gold.Chemscore.Lipo>
51.8218

> <Gold.Chemscore.Internal_Hbond>
0.0000

> <Gold.Chemscore.DEClash>
0.1164

> <Gold.Chemscore.DEInternal>
0.4734

> <Gold.Chemscore.Rot>
1.7961

> <Gold.Chemscore.Internal.Correction>
   9.000000E+99

> <Gold.Chemscore.Hbonds>
donor molecule, donor type, donor heavy atom, donor atom, acceptor molecule, acceptor atom, score
      L1  H    15    44       P1  8028  0.74
      P1  H  6934  6946       L1    10  0.96
      P1  H  7989  7998       L1    18  0.01

> <Gold.Chemscore.Hbond.Weighted>
-6.5810

> <Gold.Chemscore.Metal.Weighted>
-0.0000

> <Gold.Chemscore.Lipo.Weighted>
-6.0631

> <Gold.Chemscore.Internal_Hbond.Weighted>
0.0000

> <Gold.Chemscore.DEClash.Weighted>
0.1164

> <Gold.Chemscore.DEInternal.Weighted>
0.4734

> <Gold.Chemscore.Rot.Weighted>
4.5980

> <Gold.Chemscore.Internal.Correction.Weighted>
   9.000000E+99

> <Gold.Protein.RotatedTorsions>
[ 6907 6896 6895 6894 ] final  -92.53 input  -60.11 | X-H torsion
[ 7974 7965 7964 7962 ] final  -79.60 input  175.53 | X-H torsion
[ 8008 7997 7996 7995 ] final  103.61 input   59.86 | X-H torsion
[ 10167 10162 10161 10158 ] final  -87.58 input  -65.29 | X-H torsion
[ 10718 10713 10712 10709 ] final  -59.58 input   66.30 | X-H torsion
[ 10763 10752 10751 10750 ] final  148.92 input  -60.55 | X-H torsion
[ 11005 11000 10999 10996 ] final  150.15 input  -57.11 | X-H torsion

> <Gold.Protein.ActiveResidues>
 VAL166  LYS551  ARG553  GLY616  TRP617  ASP618  TYR619  PRO620  LYS621  CYS622 
 ASP623  PHE694  ASN695  SER759  ASP760  ASP761  ALA762  ILE779  LEU786  VAL792 
 PHE793  MET794  SER795  GLU796  ALA797  LYS798  CYS799  TRP800  GLU811  SER814 

> <Gold.Protein.RotatedAtoms>
  150.6907  134.2108  159.4358 H   0  0  0  0  0  0  0  0  0  0  0  0  # atno 6907 bound_to 6896
  152.0069  134.9895  160.0576 H   0  0  0  0  0  0  0  0  0  0  0  0  # atno 6908 bound_to 6896
  152.1525  133.4496  159.4857 H   0  0  0  0  0  0  0  0  0  0  0  0  # atno 6909 bound_to 6896
  145.5711  140.9466  143.1395 H   0  0  0  0  0  0  0  0  0  0  0  0  # atno 7974 bound_to 7965
  156.1499  140.3162  155.8632 H   0  0  0  0  0  0  0  0  0  0  0  0  # atno 8008 bound_to 7997
  155.3991  140.0498  157.3054 H   0  0  0  0  0  0  0  0  0  0  0  0  # atno 8009 bound_to 7997
  154.5049  140.2143  155.9282 H   0  0  0  0  0  0  0  0  0  0  0  0  # atno 8010 bound_to 7997
  140.3831  143.2739  151.9359 H   0  0  0  0  0  0  0  0  0  0  0  0  # atno 10167 bound_to 10162
  156.1052  130.4181  150.0734 H   0  0  0  0  0  0  0  0  0  0  0  0  # atno 10718 bound_to 10713
  154.0626  135.2873  155.3322 H   0  0  0  0  0  0  0  0  0  0  0  0  # atno 10763 bound_to 10752
  154.6798  135.5267  153.8251 H   0  0  0  0  0  0  0  0  0  0  0  0  # atno 10764 bound_to 10752
  153.0516  135.6579  154.0813 H   0  0  0  0  0  0  0  0  0  0  0  0  # atno 10765 bound_to 10752
  140.1106  134.8926  157.1931 H   0  0  0  0  0  0  0  0  0  0  0  0  # atno 11005 bound_to 11000
  144.7437  139.7377  143.7300 LP  0  0  0  0  0  0  0  0  0  0  0  0  # atno 17320 bound_to 7965
  146.1784  139.4965  142.9882 LP  0  0  0  0  0  0  0  0  0  0  0  0  # atno 17321 bound_to 7965
  139.4794  144.5800  151.7948 LP  0  0  0  0  0  0  0  0  0  0  0  0  # atno 17342 bound_to 10162
  140.4917  144.1300  150.5952 LP  0  0  0  0  0  0  0  0  0  0  0  0  # atno 17343 bound_to 10162
  156.8712  130.9525  151.3609 LP  0  0  0  0  0  0  0  0  0  0  0  0  # atno 17370 bound_to 10713
  157.6227  130.8668  149.9137 LP  0  0  0  0  0  0  0  0  0  0  0  0  # atno 17371 bound_to 10713
  140.3096  134.3039  155.7270 LP  0  0  0  0  0  0  0  0  0  0  0  0  # atno 17394 bound_to 11000
  141.2129  133.7642  156.9757 LP  0  0  0  0  0  0  0  0  0  0  0  0  # atno 17395 bound_to 11000

$$$$
