AV-unprocessed.smi:1517|AV-procd|sdf|6120|dock5
  -GOLD-   22720 6253D 1   1.00000     0.00000
 Structure written by MMmdl.
 42 44  0  0  0  0  0  0  0  0  2 V2000
  146.5440  137.8567  151.0420 O   0  0  0  0  0  0  0  0  0  0  0  0
  146.2327  138.1371  152.3884 C   0  0  0  0  0  0  0  0  0  0  0  0
  147.1318  139.2708  152.8927 C   0  0  0  0  0  0  0  0  0  0  0  0
  148.4865  138.8052  153.1374 N   0  0  0  0  0  0  0  0  0  0  0  0
  149.1722  139.3302  154.2379 C   0  0  0  0  0  0  0  0  0  0  0  0
  148.8796  140.4911  154.8824 N   0  3  0  0  0  0  0  0  0  0  0  0
  149.7815  140.6463  155.9391 C   0  0  0  0  0  0  0  0  0  0  0  0
  149.9010  141.6549  156.8903 C   0  0  0  0  0  0  0  0  0  0  0  0
  150.9294  141.5076  157.8442 C   0  0  0  0  0  0  0  0  0  0  0  0
  151.7909  140.3912  157.8312 C   0  0  0  0  0  0  0  0  0  0  0  0
  151.6636  139.3737  156.8629 C   0  0  0  0  0  0  0  0  0  0  0  0
  150.6472  139.5260  155.9207 C   0  0  0  0  0  0  0  0  0  0  0  0
  150.2331  138.7346  154.8422 N   0  0  0  0  0  0  0  0  0  0  0  0
  150.9197  137.4654  154.5597 C   0  0  0  0  0  0  0  0  0  0  0  0
  150.7104  136.4244  155.6777 C   0  0  2  0  0  0  0  0  0  0  0  0
  151.9747  136.1112  156.2249 O   0  0  0  0  0  0  0  0  0  0  0  0
  149.9689  135.1888  155.1780 C   0  0  0  0  0  0  0  0  0  0  0  0
  150.6680  133.9827  154.9467 C   0  0  0  0  0  0  0  0  0  0  0  0
  149.9914  132.8503  154.4541 C   0  0  0  0  0  0  0  0  0  0  0  0
  148.6117  132.9165  154.1841 C   0  0  0  0  0  0  0  0  0  0  0  0
  147.9625  131.8299  153.7035 F   0  0  0  0  0  0  0  0  0  0  0  0
  147.9087  134.1149  154.4094 C   0  0  0  0  0  0  0  0  0  0  0  0
  148.5828  135.2485  154.9039 C   0  0  0  0  0  0  0  0  0  0  0  0
  147.8938  136.3993  155.0961 F   0  0  0  0  0  0  0  0  0  0  0  0
  146.2271  136.9908  150.8339 H   0  0  0  0  0  0  0  0  0  0  0  0
  145.1809  138.4157  152.4584 H   0  0  0  0  0  0  0  0  0  0  0  0
  146.3747  137.2346  152.9837 H   0  0  0  0  0  0  0  0  0  0  0  0
  147.1571  140.0793  152.1609 H   0  0  0  0  0  0  0  0  0  0  0  0
  146.7236  139.6816  153.8174 H   0  0  0  0  0  0  0  0  0  0  0  0
  148.7482  137.8921  152.7939 H   0  0  0  0  0  0  0  0  0  0  0  0
  149.2411  142.5099  156.9055 H   0  0  0  0  0  0  0  0  0  0  0  0
  151.0589  142.2661  158.6029 H   0  0  0  0  0  0  0  0  0  0  0  0
  152.5656  140.3127  158.5803 H   0  0  0  0  0  0  0  0  0  0  0  0
  152.3272  138.5216  156.8634 H   0  0  0  0  0  0  0  0  0  0  0  0
  150.5501  137.0868  153.6055 H   0  0  0  0  0  0  0  0  0  0  0  0
  151.9799  137.6766  154.4143 H   0  0  0  0  0  0  0  0  0  0  0  0
  150.1378  136.8793  156.4864 H   0  0  0  0  0  0  0  0  0  0  0  0
  152.2857  136.8594  156.7115 H   0  0  0  0  0  0  0  0  0  0  0  0
  151.7296  133.9231  155.1374 H   0  0  0  0  0  0  0  0  0  0  0  0
  150.5328  131.9324  154.2776 H   0  0  0  0  0  0  0  0  0  0  0  0
  146.8509  134.1663  154.1974 H   0  0  0  0  0  0  0  0  0  0  0  0
  148.1282  141.1175  154.6245 H   0  0  0  0  0  0  0  0  0  0  0  0
  1  2  1  0  0  0  0
  1 25  1  0  0  0  0
  2  3  1  0  0  0  0
  2 26  1  0  0  0  0
  2 27  1  0  0  0  0
  3  4  1  0  0  0  0
  3 28  1  0  0  0  0
  3 29  1  0  0  0  0
  4  5  1  0  0  0  0
  4 30  1  0  0  0  0
  5 13  1  0  0  0  0
  5  6  2  0  0  0  0
  6  7  1  0  0  0  0
  6 42  1  0  0  0  0
  7 12  2  0  0  0  0
  7  8  1  0  0  0  0
  8  9  2  0  0  0  0
  8 31  1  0  0  0  0
  9 10  1  0  0  0  0
  9 32  1  0  0  0  0
 10 11  2  0  0  0  0
 10 33  1  0  0  0  0
 11 12  1  0  0  0  0
 11 34  1  0  0  0  0
 12 13  1  0  0  0  0
 13 14  1  0  0  0  0
 14 15  1  0  0  0  0
 14 35  1  0  0  0  0
 14 36  1  0  0  0  0
 15 16  1  0  0  0  0
 15 17  1  0  0  0  0
 15 37  1  0  0  0  0
 16 38  1  0  0  0  0
 17 23  1  0  0  0  0
 17 18  2  0  0  0  0
 18 19  1  0  0  0  0
 18 39  1  0  0  0  0
 19 20  2  0  0  0  0
 19 40  1  0  0  0  0
 20 21  1  0  0  0  0
 20 22  1  0  0  0  0
 22 23  2  0  0  0  0
 22 41  1  0  0  0  0
 23 24  1  0  0  0  0
M  CHG  1   6   1
M  END
> <s_m_source_file>
AV-unprocessed.smi

> <i_m_source_file_index>
1517

> <i_lp_mmshare_version>
43012

> <i_f3d_flags>
0

> <s_epik_input>
W09IXVtDSDJdW0NIMl1bTkhdYyhuMSluKGMoYzEyKVtjSF1bY0hdW2NIXVtjSF0yKVtDSDJdW0NASF0oW09IXSljM1tjSF1bY0hdYyhGKVtjSF1jM0Y=

> <s_epik_cmdline>
J2VwaWtfcHl0aG9uJywgJy1waCcsICc3LjAnLCAnLXRuJywgJzgnLCAnLW1hJywgJzIwMCcsICctbWV0YWxfYmluZGluZycsICctaW1hZScsICc8aW5maWxlLm1hZT4nLCAnLW9tYWUnLCAnPG91dGZpbGUubWFlPic=

> <r_epik_Ionization_Penalty>
0.0688096

> <r_epik_Ionization_Penalty_Charging>
0.0688055

> <r_epik_Ionization_Penalty_Neutral>
4.12262e-06

> <r_epik_State_Penalty>
0.0602293

> <r_epik_Charging_Adjusted_Penalty>
0.129035

> <i_epik_Tot_Q>
1

> <i_epik_Tot_abs_Q>
1

> <r_epik_Metal_State_Penalty>
2.77411

> <b_epik_Metal_Only>
0

> <s_lp_Force_Field>
OPLS_2005

> <r_lp_Energy>
18.8563

> <b_lp_Chiralities_Consistent>
1

> <s_lp_Variant>
AV-unprocessed.smi:1517-1

> <Gold.Version>
5.8.1

> <Gold.Id.Protein>
6NUR|6NUR_protein|mol2

> <Gold.PLP.Fitness>
51.1905

> <Gold.PLP.PLP>
-41.9528

> <Gold.PLP.part.hbond>
-5.0584

> <Gold.PLP.part.metal>
0.0000

> <Gold.PLP.part.buried>
-0.2431

> <Gold.PLP.part.nonpolar>
-36.9140

> <Gold.PLP.part.repulsive>
0.2606

> <Gold.PLP.ligand.clash>
0.0000

> <Gold.PLP.ligand.torsion>
1.4044

> <Gold.PLP.Chemscore.Hbond>
4.0000

> <Gold.PLP.Chemscore.CHOScore>
0.0000

> <Gold.PLP.Chemscore.Metal>
0.0000

> <Gold.Chemscore.Hbonds>
donor molecule, donor type, donor heavy atom, donor atom, acceptor molecule, acceptor atom, score
      L1  H     4    30       P1  7948  2.00
      P1  H  7954  7966       L1     1  0.95
      P1  H 10752 10765       L1    16  1.00

> <Gold.PLP.Chemscore.Internal.Correction>
0.0465

> <Gold.Rescore>
     Score         DG    S(hbond)    S(metal)    S(lipo)     H(rot)  DE(clash)    DE(int)     intcor
     13.84     -17.32       2.78        0.00      93.76       3.29       2.29       1.19       ----

> <Gold.Chemscore.Fitness>
13.8414

> <Gold.Chemscore.DG>
-17.3197

> <Gold.Chemscore.ZeroCoef>
-5.4800

> <Gold.Chemscore.Hbond>
2.7802

> <Gold.Chemscore.Metal>
0.0000

> <Gold.Chemscore.Lipo>
93.7566

> <Gold.Chemscore.Internal_Hbond>
0.0000

> <Gold.Chemscore.DEClash>
2.2858

> <Gold.Chemscore.DEInternal>
1.1924

> <Gold.Chemscore.Rot>
3.2874

> <Gold.Chemscore.Internal.Correction>
   9.000000E+99

> <Gold.Chemscore.Hbonds>
donor molecule, donor type, donor heavy atom, donor atom, acceptor molecule, acceptor atom, score
      L1  H     4    30       P1  7948  1.00
      P1  H  7954  7966       L1     1  0.21
      P1  H 10752 10765       L1    16  0.74

> <Gold.Chemscore.Hbond.Weighted>
-9.2859

> <Gold.Chemscore.Metal.Weighted>
-0.0000

> <Gold.Chemscore.Lipo.Weighted>
-10.9695

> <Gold.Chemscore.Internal_Hbond.Weighted>
0.0000

> <Gold.Chemscore.DEClash.Weighted>
2.2858

> <Gold.Chemscore.DEInternal.Weighted>
1.1924

> <Gold.Chemscore.Rot.Weighted>
8.4158

> <Gold.Chemscore.Internal.Correction.Weighted>
   9.000000E+99

> <Gold.Protein.RotatedTorsions>
[ 6907 6896 6895 6894 ] final  169.80 input  -60.11 | X-H torsion
[ 7974 7965 7964 7962 ] final   31.42 input  175.53 | X-H torsion
[ 8008 7997 7996 7995 ] final  -50.81 input   59.86 | X-H torsion
[ 10167 10162 10161 10158 ] final  156.59 input  -65.29 | X-H torsion
[ 10718 10713 10712 10709 ] final    2.11 input   66.30 | X-H torsion
[ 10763 10752 10751 10750 ] final -154.76 input  -60.55 | X-H torsion
[ 11005 11000 10999 10996 ] final  -11.87 input  -57.11 | X-H torsion

> <Gold.Protein.ActiveResidues>
 VAL166  LYS551  ARG553  GLY616  TRP617  ASP618  TYR619  PRO620  LYS621  CYS622 
 ASP623  PHE694  ASN695  SER759  ASP760  ASP761  ALA762  ILE779  LEU786  VAL792 
 PHE793  MET794  SER795  GLU796  ALA797  LYS798  CYS799  TRP800  GLU811  SER814 

> <Gold.Protein.RotatedAtoms>
  151.8261  133.3401  159.3598 H   0  0  0  0  0  0  0  0  0  0  0  0  # atno 6907 bound_to 6896
  150.7279  134.5527  159.5812 H   0  0  0  0  0  0  0  0  0  0  0  0  # atno 6908 bound_to 6896
  152.2970  134.7656  160.0417 H   0  0  0  0  0  0  0  0  0  0  0  0  # atno 6909 bound_to 6896
  146.1551  139.6659  142.9072 H   0  0  0  0  0  0  0  0  0  0  0  0  # atno 7974 bound_to 7965
  154.4069  140.1263  156.4726 H   0  0  0  0  0  0  0  0  0  0  0  0  # atno 8008 bound_to 7997
  155.7164  140.3493  155.4976 H   0  0  0  0  0  0  0  0  0  0  0  0  # atno 8009 bound_to 7997
  155.9254  140.1060  157.1164 H   0  0  0  0  0  0  0  0  0  0  0  0  # atno 8010 bound_to 7997
  139.4821  144.4995  151.8189 H   0  0  0  0  0  0  0  0  0  0  0  0  # atno 10167 bound_to 10162
  156.8581  130.5577  149.5665 H   0  0  0  0  0  0  0  0  0  0  0  0  # atno 10718 bound_to 10713
  154.7835  135.3183  154.7937 H   0  0  0  0  0  0  0  0  0  0  0  0  # atno 10763 bound_to 10752
  153.8642  135.6850  153.4784 H   0  0  0  0  0  0  0  0  0  0  0  0  # atno 10764 bound_to 10752
  153.1479  135.4711  154.9532 H   0  0  0  0  0  0  0  0  0  0  0  0  # atno 10765 bound_to 10752
  140.7598  133.8524  155.9114 H   0  0  0  0  0  0  0  0  0  0  0  0  # atno 11005 bound_to 11000
  145.4728  141.0436  143.2689 LP  0  0  0  0  0  0  0  0  0  0  0  0  # atno 17320 bound_to 7965
  144.7953  139.6247  143.7095 LP  0  0  0  0  0  0  0  0  0  0  0  0  # atno 17321 bound_to 7965
  140.4487  144.1885  150.5896 LP  0  0  0  0  0  0  0  0  0  0  0  0  # atno 17342 bound_to 10162
  140.4608  143.2450  151.9223 LP  0  0  0  0  0  0  0  0  0  0  0  0  # atno 17343 bound_to 10162
  156.0791  130.5806  150.9530 LP  0  0  0  0  0  0  0  0  0  0  0  0  # atno 17370 bound_to 10713
  157.6265  131.0925  150.8523 LP  0  0  0  0  0  0  0  0  0  0  0  0  # atno 17371 bound_to 10713
  140.9674  134.1576  157.4604 LP  0  0  0  0  0  0  0  0  0  0  0  0  # atno 17394 bound_to 11000
  139.8773  134.9966  156.5805 LP  0  0  0  0  0  0  0  0  0  0  0  0  # atno 17395 bound_to 11000

$$$$
