AV-unprocessed.smi:287|AV-procd|sdf|2188|dock9
  -GOLD-   2262021573D 1   1.00000     0.00000
 Structure written by MMmdl.
 55 58  0  0  0  0  0  0  0  0  1 V2000
  155.1073  130.3793  154.1676 C   0  0  0  0  0  0  0  0  0  0  0  0
  153.9097  129.8418  154.8727 C   0  0  0  0  0  0  0  0  0  0  0  0
  153.1413  130.2921  155.9063 C   0  0  0  0  0  0  0  0  0  0  0  0
  152.1141  129.3259  156.1260 C   0  0  0  0  0  0  0  0  0  0  0  0
  151.0219  129.3948  157.1842 C   0  0  2  0  0  0  0  0  0  0  0  0
  151.6556  129.3487  158.5841 C   0  0  0  0  0  0  0  0  0  0  0  0
  150.1401  128.2895  157.1310 O   0  0  0  0  0  0  0  0  0  0  0  0
  150.1327  130.6513  157.0450 C   0  0  0  0  0  0  0  0  0  0  0  0
  149.1525  130.5407  155.9721 N   0  0  0  0  0  0  0  0  0  0  0  0
  148.9583  131.5541  155.1020 C   0  0  0  0  0  0  0  0  0  0  0  0
  149.7166  132.6567  155.3123 N   0  0  0  0  0  0  0  0  0  0  0  0
  149.6021  133.7160  154.5060 C   0  0  0  0  0  0  0  0  0  0  0  0
  148.8028  133.8782  153.4500 N   0  0  0  0  0  0  0  0  0  0  0  0
  148.0337  132.7722  153.2340 C   0  0  0  0  0  0  0  0  0  0  0  0
  148.0461  131.5751  154.0048 C   0  0  0  0  0  0  0  0  0  0  0  0
  147.1215  130.6823  153.4725 N   0  0  0  0  0  0  0  0  0  0  0  0
  146.5996  131.3170  152.4583 C   0  0  0  0  0  0  0  0  0  0  0  0
  147.0886  132.5882  152.2488 N   0  0  0  0  0  0  0  0  0  0  0  0
  146.7304  133.5857  151.1868 C   0  0  1  0  0  0  0  0  0  0  0  0
  145.9158  132.9546  150.2447 O   0  0  0  0  0  0  0  0  0  0  0  0
  144.5548  133.2915  150.4892 C   0  0  2  0  0  0  0  0  0  0  0  0
  143.6723  133.0050  149.2621 C   0  0  0  0  0  0  0  0  0  0  0  0
  143.2091  131.6721  149.3019 O   0  0  0  0  0  0  0  0  0  0  0  0
  144.6591  134.7645  150.9015 C   0  0  2  0  0  0  0  0  0  0  0  0
  144.7920  135.5996  149.7653 O   0  0  0  0  0  0  0  0  0  0  0  0
  145.9316  134.7928  151.7414 C   0  0  1  0  0  0  0  0  0  0  0  0
  145.5959  134.6867  153.1146 O   0  0  0  0  0  0  0  0  0  0  0  0
  152.3604  128.3378  155.2037 C   0  0  0  0  0  0  0  0  0  0  0  0
  151.7091  127.0326  154.8859 C   0  0  0  0  0  0  0  0  0  0  0  0
  153.4422  128.6460  154.4352 O   0  0  0  0  0  0  0  0  0  0  0  0
  147.6860  133.8590  150.7376 H   0  0  0  0  0  0  0  0  0  0  0  0
  144.1927  132.7240  151.3489 H   0  0  0  0  0  0  0  0  0  0  0  0
  143.7798  135.0925  151.4578 H   0  0  0  0  0  0  0  0  0  0  0  0
  146.5036  135.7100  151.5951 H   0  0  0  0  0  0  0  0  0  0  0  0
  155.3415  131.3872  154.5108 H   0  0  0  0  0  0  0  0  0  0  0  0
  154.9370  130.4204  153.0916 H   0  0  0  0  0  0  0  0  0  0  0  0
  155.9777  129.7489  154.3496 H   0  0  0  0  0  0  0  0  0  0  0  0
  153.2949  131.2165  156.4430 H   0  0  0  0  0  0  0  0  0  0  0  0
  152.3352  130.1879  158.7364 H   0  0  0  0  0  0  0  0  0  0  0  0
  152.2288  128.4320  158.7300 H   0  0  0  0  0  0  0  0  0  0  0  0
  150.8991  129.3939  159.3686 H   0  0  0  0  0  0  0  0  0  0  0  0
  149.3105  128.5853  156.7894 H   0  0  0  0  0  0  0  0  0  0  0  0
  149.6351  130.8774  157.9895 H   0  0  0  0  0  0  0  0  0  0  0  0
  150.7728  131.5030  156.8117 H   0  0  0  0  0  0  0  0  0  0  0  0
  148.6286  129.6775  155.9454 H   0  0  0  0  0  0  0  0  0  0  0  0
  150.2413  134.5538  154.7426 H   0  0  0  0  0  0  0  0  0  0  0  0
  145.8416  130.8654  151.8349 H   0  0  0  0  0  0  0  0  0  0  0  0
  142.7969  133.6555  149.2698 H   0  0  0  0  0  0  0  0  0  0  0  0
  144.2087  133.1907  148.3310 H   0  0  0  0  0  0  0  0  0  0  0  0
  142.3724  131.6576  149.7411 H   0  0  0  0  0  0  0  0  0  0  0  0
  145.2860  135.1344  149.1076 H   0  0  0  0  0  0  0  0  0  0  0  0
  144.7363  135.0598  153.2397 H   0  0  0  0  0  0  0  0  0  0  0  0
  151.5270  126.4594  155.7951 H   0  0  0  0  0  0  0  0  0  0  0  0
  152.3363  126.4280  154.2303 H   0  0  0  0  0  0  0  0  0  0  0  0
  150.7532  127.1903  154.3864 H   0  0  0  0  0  0  0  0  0  0  0  0
  1  2  1  0  0  0  0
  1 35  1  0  0  0  0
  1 36  1  0  0  0  0
  1 37  1  0  0  0  0
  2 30  1  0  0  0  0
  2  3  2  0  0  0  0
  3  4  1  0  0  0  0
  3 38  1  0  0  0  0
  4  5  1  0  0  0  0
  4 28  2  0  0  0  0
  5  6  1  0  0  0  0
  5  7  1  0  0  0  0
  5  8  1  0  0  0  0
  6 39  1  0  0  0  0
  6 40  1  0  0  0  0
  6 41  1  0  0  0  0
  7 42  1  0  0  0  0
  8  9  1  0  0  0  0
  8 43  1  0  0  0  0
  8 44  1  0  0  0  0
  9 10  1  0  0  0  0
  9 45  1  0  0  0  0
 10 15  1  0  0  0  0
 10 11  2  0  0  0  0
 11 12  1  0  0  0  0
 12 13  2  0  0  0  0
 12 46  1  0  0  0  0
 13 14  1  0  0  0  0
 14 18  1  0  0  0  0
 14 15  2  0  0  0  0
 15 16  1  0  0  0  0
 16 17  2  0  0  0  0
 17 18  1  0  0  0  0
 17 47  1  0  0  0  0
 18 19  1  0  0  0  0
 19 31  1  0  0  0  0
 19 26  1  0  0  0  0
 19 20  1  0  0  0  0
 20 21  1  0  0  0  0
 21 32  1  0  0  0  0
 21 22  1  0  0  0  0
 21 24  1  0  0  0  0
 22 23  1  0  0  0  0
 22 48  1  0  0  0  0
 22 49  1  0  0  0  0
 23 50  1  0  0  0  0
 24 33  1  0  0  0  0
 24 25  1  0  0  0  0
 24 26  1  0  0  0  0
 25 51  1  0  0  0  0
 26 34  1  0  0  0  0
 26 27  1  0  0  0  0
 27 52  1  0  0  0  0
 28 29  1  0  0  0  0
 28 30  1  0  0  0  0
 29 53  1  0  0  0  0
 29 54  1  0  0  0  0
 29 55  1  0  0  0  0
M  END
> <s_m_source_file>
AV-unprocessed.smi

> <i_m_source_file_index>
287

> <i_lp_mmshare_version>
43012

> <i_f3d_flags>
0

> <s_epik_input>
W0NIM11jMVtjSF1jKGMobzEpW0NIM10pW0NAQF0oW0NIM10pKFtPSF0pW0NIMl1bTkhdYyhuW2NIXW4yKWMoYzIzKW5bY0hdbjNbQ0BASF00T1tDQEhdKFtDSDJdW09IXSlbQ0BASF0oW09IXSlbQ0BIXTRbT0hd

> <s_epik_cmdline>
J2VwaWtfcHl0aG9uJywgJy1waCcsICc3LjAnLCAnLXRuJywgJzgnLCAnLW1hJywgJzIwMCcsICctbWV0YWxfYmluZGluZycsICctaW1hZScsICc8aW5maWxlLm1hZT4nLCAnLW9tYWUnLCAnPG91dGZpbGUubWFlPic=

> <r_lp_tautomer_probability>
1

> <r_epik_Ionization_Penalty>
0.000992612

> <r_epik_Ionization_Penalty_Charging>
0

> <r_epik_Ionization_Penalty_Neutral>
0.000992612

> <r_epik_State_Penalty>
-0

> <r_epik_Charging_Adjusted_Penalty>
0

> <i_epik_Tot_Q>
0

> <i_epik_Tot_abs_Q>
0

> <r_epik_Metal_State_Penalty>
-0

> <b_epik_Metal_Only>
0

> <s_epik_Chemistry_Notes>
This compound contains an acetal/aminal-like group ( X-CH(R)-Y where X, Y are N, S, or O) that may be acid/base labile, releasing an aldehyde.

> <s_lp_Force_Field>
OPLS_2005

> <r_lp_Energy>
43.0869

> <b_lp_Chiralities_Consistent>
1

> <s_lp_Variant>
AV-unprocessed.smi:287-12

> <Gold.Version>
5.8.1

> <Gold.Id.Protein>
6NUR|6NUR_protein|mol2

> <Gold.PLP.Fitness>
45.4017

> <Gold.PLP.PLP>
-39.2686

> <Gold.PLP.part.hbond>
-3.7739

> <Gold.PLP.part.metal>
0.0000

> <Gold.PLP.part.buried>
-4.7848

> <Gold.PLP.part.nonpolar>
-34.2151

> <Gold.PLP.part.repulsive>
2.7263

> <Gold.PLP.ligand.clash>
0.0000

> <Gold.PLP.ligand.torsion>
0.8370

> <Gold.PLP.Chemscore.Hbond>
2.5527

> <Gold.PLP.Chemscore.CHOScore>
0.0000

> <Gold.PLP.Chemscore.Metal>
0.0000

> <Gold.Chemscore.Hbonds>
donor molecule, donor type, donor heavy atom, donor atom, acceptor molecule, acceptor atom, score
      L1  H    23    50       P1 10952  0.60
      L1  H    25    51       P1  7921  1.00
      P1  H 10785 10796       L1    23  0.90

> <Gold.PLP.Chemscore.Internal.Correction>
0.1491

> <Gold.Rescore>
     Score         DG    S(hbond)    S(metal)    S(lipo)     H(rot)  DE(clash)    DE(int)     intcor
      5.17      -7.14       2.17        0.00      67.49       5.27       0.12       1.85       ----

> <Gold.Chemscore.Fitness>
5.1691

> <Gold.Chemscore.DG>
-7.1403

> <Gold.Chemscore.ZeroCoef>
-5.4800

> <Gold.Chemscore.Hbond>
2.1702

> <Gold.Chemscore.Metal>
0.0000

> <Gold.Chemscore.Lipo>
67.4850

> <Gold.Chemscore.Internal_Hbond>
0.0000

> <Gold.Chemscore.DEClash>
0.1162

> <Gold.Chemscore.DEInternal>
1.8550

> <Gold.Chemscore.Rot>
5.2672

> <Gold.Chemscore.Internal.Correction>
   9.000000E+99

> <Gold.Chemscore.Hbonds>
donor molecule, donor type, donor heavy atom, donor atom, acceptor molecule, acceptor atom, score
      L1  H    23    50       P1 10952  0.57
      L1  H    25    51       P1  7921  0.99
      P1  H 10785 10796       L1    23  0.18

> <Gold.Chemscore.Hbond.Weighted>
-7.2484

> <Gold.Chemscore.Metal.Weighted>
-0.0000

> <Gold.Chemscore.Lipo.Weighted>
-7.8957

> <Gold.Chemscore.Internal_Hbond.Weighted>
0.0000

> <Gold.Chemscore.DEClash.Weighted>
0.1162

> <Gold.Chemscore.DEInternal.Weighted>
1.8550

> <Gold.Chemscore.Rot.Weighted>
13.4839

> <Gold.Chemscore.Internal.Correction.Weighted>
   9.000000E+99

> <Gold.Protein.RotatedTorsions>
[ 6907 6896 6895 6894 ] final   19.66 input  -60.11 | X-H torsion
[ 7974 7965 7964 7962 ] final  -73.36 input  175.53 | X-H torsion
[ 8008 7997 7996 7995 ] final   20.54 input   59.86 | X-H torsion
[ 10167 10162 10161 10158 ] final  -41.47 input  -65.29 | X-H torsion
[ 10718 10713 10712 10709 ] final -166.87 input   66.30 | X-H torsion
[ 10763 10752 10751 10750 ] final  -54.11 input  -60.55 | X-H torsion
[ 11005 11000 10999 10996 ] final   -2.75 input  -57.11 | X-H torsion

> <Gold.Protein.ActiveResidues>
 VAL166  LYS551  ARG553  GLY616  TRP617  ASP618  TYR619  PRO620  LYS621  CYS622 
 ASP623  PHE694  ASN695  SER759  ASP760  ASP761  ALA762  ILE779  LEU786  VAL792 
 PHE793  MET794  SER795  GLU796  ALA797  LYS798  CYS799  TRP800  GLU811  SER814 

> <Gold.Protein.RotatedAtoms>
  151.8843  135.0441  160.0491 H   0  0  0  0  0  0  0  0  0  0  0  0  # atno 6907 bound_to 6896
  152.2488  133.5192  159.5321 H   0  0  0  0  0  0  0  0  0  0  0  0  # atno 6908 bound_to 6896
  150.7077  134.0905  159.3972 H   0  0  0  0  0  0  0  0  0  0  0  0  # atno 6909 bound_to 6896
  145.6532  140.9276  143.0974 H   0  0  0  0  0  0  0  0  0  0  0  0  # atno 7974 bound_to 7965
  154.9372  140.3048  155.5138 H   0  0  0  0  0  0  0  0  0  0  0  0  # atno 8008 bound_to 7997
  156.2999  140.2343  156.4375 H   0  0  0  0  0  0  0  0  0  0  0  0  # atno 8009 bound_to 7997
  154.8180  140.0425  157.1379 H   0  0  0  0  0  0  0  0  0  0  0  0  # atno 8010 bound_to 7997
  140.7001  143.3093  151.3071 H   0  0  0  0  0  0  0  0  0  0  0  0  # atno 10167 bound_to 10162
  156.6741  130.9096  151.3048 H   0  0  0  0  0  0  0  0  0  0  0  0  # atno 10718 bound_to 10713
  154.1697  135.6461  153.5006 H   0  0  0  0  0  0  0  0  0  0  0  0  # atno 10763 bound_to 10752
  153.0088  135.5380  154.6626 H   0  0  0  0  0  0  0  0  0  0  0  0  # atno 10764 bound_to 10752
  154.5961  135.2939  155.0556 H   0  0  0  0  0  0  0  0  0  0  0  0  # atno 10765 bound_to 10752
  140.6618  133.9313  155.8441 H   0  0  0  0  0  0  0  0  0  0  0  0  # atno 11005 bound_to 11000
  144.7115  139.8353  143.7413 LP  0  0  0  0  0  0  0  0  0  0  0  0  # atno 17320 bound_to 7965
  146.1187  139.4201  143.0242 LP  0  0  0  0  0  0  0  0  0  0  0  0  # atno 17321 bound_to 7965
  139.6510  144.0363  152.2626 LP  0  0  0  0  0  0  0  0  0  0  0  0  # atno 17342 bound_to 10162
  139.9899  144.6369  150.7824 LP  0  0  0  0  0  0  0  0  0  0  0  0  # atno 17343 bound_to 10162
  157.7067  130.9393  150.0953 LP  0  0  0  0  0  0  0  0  0  0  0  0  # atno 17370 bound_to 10713
  156.1916  130.3655  149.8902 LP  0  0  0  0  0  0  0  0  0  0  0  0  # atno 17371 bound_to 10713
  141.0459  134.0554  157.3844 LP  0  0  0  0  0  0  0  0  0  0  0  0  # atno 17394 bound_to 11000
  139.9010  135.0164  156.7269 LP  0  0  0  0  0  0  0  0  0  0  0  0  # atno 17395 bound_to 11000

$$$$
