AV-unprocessed.smi:748|AV-procd|sdf|3583|dock4
  -GOLD-   22720 0573D 1   1.00000     0.00000
 Structure written by MMmdl.
 50 51  0  0  0  0  0  0  0  0  1 V2000
  148.3547  134.3026  154.3980 C   0  0  0  0  0  0  0  0  0  0  0  0
  147.5789  135.5078  154.9522 C   0  0  0  0  0  0  0  0  0  0  0  0
  146.2525  135.0814  155.5954 C   0  0  0  0  0  0  0  0  0  0  0  0
  147.3154  136.4744  153.8900 N   0  0  0  0  0  0  0  0  0  0  0  0
  146.5550  137.5744  154.0077 C   0  0  0  0  0  0  0  0  0  0  0  0
  145.9768  137.8880  155.0489 O   0  0  0  0  0  0  0  0  0  0  0  0
  146.4356  138.4447  152.7529 C   0  0  0  0  0  0  0  0  0  0  0  0
  147.1002  139.8271  152.9059 C   0  0  0  0  0  0  0  0  0  0  0  0
  148.3324  139.7426  153.6808 N   0  0  0  0  0  0  0  0  0  0  0  0
  148.8590  140.7450  154.4028 C   0  0  0  0  0  0  0  0  0  0  0  0
  148.3387  141.8567  154.5027 O   0  0  0  0  0  0  0  0  0  0  0  0
  150.1118  140.4097  155.1602 C   0  0  0  0  0  0  0  0  0  0  0  0
  150.9075  139.2949  154.8148 C   0  0  0  0  0  0  0  0  0  0  0  0
  152.0746  139.0479  155.5603 C   0  0  0  0  0  0  0  0  0  0  0  0
  152.4789  139.8277  156.5838 N   0  0  0  0  0  0  0  0  0  0  0  0
  151.7358  140.9121  156.9147 C   0  0  0  0  0  0  0  0  0  0  0  0
  152.1761  141.7272  157.9797 N   0  0  0  0  0  0  0  0  0  0  0  0
  152.2657  141.0690  159.2802 C   0  0  0  0  0  0  0  0  0  0  0  0
  153.0365  141.9535  160.2746 C   0  0  0  0  0  0  0  0  0  0  0  0
  152.4348  143.2425  160.3417 O   0  0  0  0  0  0  0  0  0  0  0  0
  152.4616  143.9133  159.0849 C   0  0  2  0  0  0  0  0  0  0  0  0
  151.8830  145.3191  159.2751 C   0  0  0  0  0  0  0  0  0  0  0  0
  151.6598  143.0920  158.0575 C   0  0  0  0  0  0  0  0  0  0  0  0
  150.5433  141.2325  156.2236 C   0  0  0  0  0  0  0  0  0  0  0  0
  148.5652  133.5780  155.1849 H   0  0  0  0  0  0  0  0  0  0  0  0
  149.3104  134.6088  153.9713 H   0  0  0  0  0  0  0  0  0  0  0  0
  147.7902  133.7915  153.6174 H   0  0  0  0  0  0  0  0  0  0  0  0
  148.1836  135.9834  155.7264 H   0  0  0  0  0  0  0  0  0  0  0  0
  146.4217  134.3782  156.4113 H   0  0  0  0  0  0  0  0  0  0  0  0
  145.5955  134.5985  154.8713 H   0  0  0  0  0  0  0  0  0  0  0  0
  145.7216  135.9403  156.0074 H   0  0  0  0  0  0  0  0  0  0  0  0
  147.7509  136.2953  152.9967 H   0  0  0  0  0  0  0  0  0  0  0  0
  146.8884  137.9093  151.9171 H   0  0  0  0  0  0  0  0  0  0  0  0
  145.3784  138.5637  152.5131 H   0  0  0  0  0  0  0  0  0  0  0  0
  147.3500  140.2355  151.9260 H   0  0  0  0  0  0  0  0  0  0  0  0
  146.4150  140.5375  153.3728 H   0  0  0  0  0  0  0  0  0  0  0  0
  148.8181  138.8574  153.6757 H   0  0  0  0  0  0  0  0  0  0  0  0
  150.6418  138.6381  153.9992 H   0  0  0  0  0  0  0  0  0  0  0  0
  152.7036  138.2017  155.3262 H   0  0  0  0  0  0  0  0  0  0  0  0
  151.2564  140.8850  159.6506 H   0  0  0  0  0  0  0  0  0  0  0  0
  152.7585  140.1003  159.2109 H   0  0  0  0  0  0  0  0  0  0  0  0
  153.0206  141.5027  161.2669 H   0  0  0  0  0  0  0  0  0  0  0  0
  154.0842  142.0438  159.9834 H   0  0  0  0  0  0  0  0  0  0  0  0
  153.4971  144.0072  158.7522 H   0  0  0  0  0  0  0  0  0  0  0  0
  151.8965  145.8781  158.3391 H   0  0  0  0  0  0  0  0  0  0  0  0
  152.4618  145.8830  160.0069 H   0  0  0  0  0  0  0  0  0  0  0  0
  150.8515  145.2776  159.6263 H   0  0  0  0  0  0  0  0  0  0  0  0
  151.7227  143.5731  157.0804 H   0  0  0  0  0  0  0  0  0  0  0  0
  150.6064  143.0617  158.3397 H   0  0  0  0  0  0  0  0  0  0  0  0
  149.9530  142.0896  156.5135 H   0  0  0  0  0  0  0  0  0  0  0  0
  1  2  1  0  0  0  0
  1 25  1  0  0  0  0
  1 26  1  0  0  0  0
  1 27  1  0  0  0  0
  2  3  1  0  0  0  0
  2  4  1  0  0  0  0
  2 28  1  0  0  0  0
  3 29  1  0  0  0  0
  3 30  1  0  0  0  0
  3 31  1  0  0  0  0
  4  5  1  0  0  0  0
  4 32  1  0  0  0  0
  5  6  2  0  0  0  0
  5  7  1  0  0  0  0
  7  8  1  0  0  0  0
  7 33  1  0  0  0  0
  7 34  1  0  0  0  0
  8  9  1  0  0  0  0
  8 35  1  0  0  0  0
  8 36  1  0  0  0  0
  9 10  1  0  0  0  0
  9 37  1  0  0  0  0
 10 11  2  0  0  0  0
 10 12  1  0  0  0  0
 12 24  1  0  0  0  0
 12 13  2  0  0  0  0
 13 14  1  0  0  0  0
 13 38  1  0  0  0  0
 14 15  2  0  0  0  0
 14 39  1  0  0  0  0
 15 16  1  0  0  0  0
 16 17  1  0  0  0  0
 16 24  2  0  0  0  0
 17 23  1  0  0  0  0
 17 18  1  0  0  0  0
 18 19  1  0  0  0  0
 18 40  1  0  0  0  0
 18 41  1  0  0  0  0
 19 20  1  0  0  0  0
 19 42  1  0  0  0  0
 19 43  1  0  0  0  0
 20 21  1  0  0  0  0
 21 22  1  0  0  0  0
 21 23  1  0  0  0  0
 21 44  1  0  0  0  0
 22 45  1  0  0  0  0
 22 46  1  0  0  0  0
 22 47  1  0  0  0  0
 23 48  1  0  0  0  0
 23 49  1  0  0  0  0
 24 50  1  0  0  0  0
M  END
> <s_m_source_file>
AV-unprocessed.smi

> <i_m_source_file_index>
748

> <i_lp_mmshare_version>
43012

> <i_f3d_flags>
0

> <s_epik_input>
W0NIM11bQ0hdKFtDSDNdKVtOSF1DKD1PKVtDSDJdW0NIMl1bTkhdQyg9TyljMVtjSF1bY0hdbmMoW2NIXTEpTjJbQ0gyXVtDSDJdT1tDQEBIXShbQ0gzXSlbQ0gyXTI=

> <s_epik_cmdline>
J2VwaWtfcHl0aG9uJywgJy1waCcsICc3LjAnLCAnLXRuJywgJzgnLCAnLW1hJywgJzIwMCcsICctbWV0YWxfYmluZGluZycsICctaW1hZScsICc8aW5maWxlLm1hZT4nLCAnLW9tYWUnLCAnPG91dGZpbGUubWFlPic=

> <r_lp_tautomer_probability>
1

> <r_epik_Ionization_Penalty>
1.38678e-05

> <r_epik_Ionization_Penalty_Charging>
0

> <r_epik_Ionization_Penalty_Neutral>
1.38678e-05

> <r_epik_State_Penalty>
-0

> <r_epik_Charging_Adjusted_Penalty>
0

> <i_epik_Tot_Q>
0

> <i_epik_Tot_abs_Q>
0

> <r_epik_Metal_State_Penalty>
-0

> <b_epik_Metal_Only>
0

> <s_lp_Force_Field>
OPLS_2005

> <r_lp_Energy>
15.3694

> <b_lp_Chiralities_Consistent>
1

> <s_lp_Variant>
AV-unprocessed.smi:748-2

> <Gold.Version>
5.8.1

> <Gold.Id.Protein>
6NUR|6NUR_protein|mol2

> <Gold.PLP.Fitness>
48.8361

> <Gold.PLP.PLP>
-44.1203

> <Gold.PLP.part.hbond>
-3.1060

> <Gold.PLP.part.metal>
0.0000

> <Gold.PLP.part.buried>
-2.7445

> <Gold.PLP.part.nonpolar>
-37.9911

> <Gold.PLP.part.repulsive>
0.3098

> <Gold.PLP.ligand.clash>
0.0000

> <Gold.PLP.ligand.torsion>
0.8209

> <Gold.PLP.Chemscore.Hbond>
2.0000

> <Gold.PLP.Chemscore.CHOScore>
0.0000

> <Gold.PLP.Chemscore.Metal>
0.0000

> <Gold.Chemscore.Hbonds>
donor molecule, donor type, donor heavy atom, donor atom, acceptor molecule, acceptor atom, score
      L1  H     4    32       P1  7948  1.00
      P1  H  7997  8009       L1    15  1.00

> <Gold.PLP.Chemscore.Internal.Correction>
0.3575

> <Gold.Rescore>
     Score         DG    S(hbond)    S(metal)    S(lipo)     H(rot)  DE(clash)    DE(int)     intcor
     16.51     -18.89       1.79        0.00     104.24       1.87       0.04       2.34       ----

> <Gold.Chemscore.Fitness>
16.5074

> <Gold.Chemscore.DG>
-18.8863

> <Gold.Chemscore.ZeroCoef>
-5.4800

> <Gold.Chemscore.Hbond>
1.7949

> <Gold.Chemscore.Metal>
0.0000

> <Gold.Chemscore.Lipo>
104.2448

> <Gold.Chemscore.Internal_Hbond>
0.0000

> <Gold.Chemscore.DEClash>
0.0426

> <Gold.Chemscore.DEInternal>
2.3362

> <Gold.Chemscore.Rot>
1.8692

> <Gold.Chemscore.Internal.Correction>
   9.000000E+99

> <Gold.Chemscore.Hbonds>
donor molecule, donor type, donor heavy atom, donor atom, acceptor molecule, acceptor atom, score
      L1  H     4    32       P1  7948  0.99
      P1  H  7997  8009       L1    15  0.74

> <Gold.Chemscore.Hbond.Weighted>
-5.9948

> <Gold.Chemscore.Metal.Weighted>
-0.0000

> <Gold.Chemscore.Lipo.Weighted>
-12.1966

> <Gold.Chemscore.Internal_Hbond.Weighted>
0.0000

> <Gold.Chemscore.DEClash.Weighted>
0.0426

> <Gold.Chemscore.DEInternal.Weighted>
2.3362

> <Gold.Chemscore.Rot.Weighted>
4.7852

> <Gold.Chemscore.Internal.Correction.Weighted>
   9.000000E+99

> <Gold.Protein.RotatedTorsions>
[ 6907 6896 6895 6894 ] final   72.52 input  -60.11 | X-H torsion
[ 7974 7965 7964 7962 ] final  -85.78 input  175.53 | X-H torsion
[ 8008 7997 7996 7995 ] final -175.71 input   59.86 | X-H torsion
[ 10167 10162 10161 10158 ] final -108.85 input  -65.29 | X-H torsion
[ 10718 10713 10712 10709 ] final   -2.96 input   66.30 | X-H torsion
[ 10763 10752 10751 10750 ] final  -53.95 input  -60.55 | X-H torsion
[ 11005 11000 10999 10996 ] final -104.69 input  -57.11 | X-H torsion

> <Gold.Protein.ActiveResidues>
 VAL166  LYS551  ARG553  GLY616  TRP617  ASP618  TYR619  PRO620  LYS621  CYS622 
 ASP623  PHE694  ASN695  SER759  ASP760  ASP761  ALA762  ILE779  LEU786  VAL792 
 PHE793  MET794  SER795  GLU796  ALA797  LYS798  CYS799  TRP800  GLU811  SER814 

> <Gold.Protein.RotatedAtoms>
  152.4872  134.4559  159.9589 H   0  0  0  0  0  0  0  0  0  0  0  0  # atno 6907 bound_to 6896
  151.4553  133.3601  159.2809 H   0  0  0  0  0  0  0  0  0  0  0  0  # atno 6908 bound_to 6896
  150.8994  134.8429  159.7409 H   0  0  0  0  0  0  0  0  0  0  0  0  # atno 6909 bound_to 6896
  145.4887  140.9554  143.1824 H   0  0  0  0  0  0  0  0  0  0  0  0  # atno 7974 bound_to 7965
  155.9860  140.1191  157.0683 H   0  0  0  0  0  0  0  0  0  0  0  0  # atno 8008 bound_to 7997
  154.4197  140.1135  156.5568 H   0  0  0  0  0  0  0  0  0  0  0  0  # atno 8009 bound_to 7997
  155.6407  140.3473  155.4716 H   0  0  0  0  0  0  0  0  0  0  0  0  # atno 8010 bound_to 7997
  140.1617  143.4114  152.1420 H   0  0  0  0  0  0  0  0  0  0  0  0  # atno 10167 bound_to 10162
  156.7831  130.5337  149.5747 H   0  0  0  0  0  0  0  0  0  0  0  0  # atno 10718 bound_to 10713
  154.1671  135.6465  153.5000 H   0  0  0  0  0  0  0  0  0  0  0  0  # atno 10763 bound_to 10752
  153.0094  135.5374  154.6651 H   0  0  0  0  0  0  0  0  0  0  0  0  # atno 10764 bound_to 10752
  154.5980  135.2941  155.0537 H   0  0  0  0  0  0  0  0  0  0  0  0  # atno 10765 bound_to 10752
  141.1088  133.8745  157.1642 H   0  0  0  0  0  0  0  0  0  0  0  0  # atno 11005 bound_to 11000
  144.7846  139.6453  143.7139 LP  0  0  0  0  0  0  0  0  0  0  0  0  # atno 17320 bound_to 7965
  146.2297  139.5790  142.9563 LP  0  0  0  0  0  0  0  0  0  0  0  0  # atno 17321 bound_to 7965
  139.5378  144.7227  151.4835 LP  0  0  0  0  0  0  0  0  0  0  0  0  # atno 17342 bound_to 10162
  140.6638  143.8441  150.6919 LP  0  0  0  0  0  0  0  0  0  0  0  0  # atno 17343 bound_to 10162
  156.1206  130.6107  151.0187 LP  0  0  0  0  0  0  0  0  0  0  0  0  # atno 17370 bound_to 10713
  157.6637  131.0876  150.7779 LP  0  0  0  0  0  0  0  0  0  0  0  0  # atno 17371 bound_to 10713
  139.9972  135.0042  157.0108 LP  0  0  0  0  0  0  0  0  0  0  0  0  # atno 17394 bound_to 11000
  140.4830  134.1270  155.7220 LP  0  0  0  0  0  0  0  0  0  0  0  0  # atno 17395 bound_to 11000

$$$$
