AV-unprocessed.smi:1047|AV-procd|sdf|4562|dock5
  -GOLD-   22720 3 03D 1   1.00000     0.00000
 Structure written by MMmdl.
 57 59  0  0  0  0  0  0  0  0  3 V2000
  140.9897  135.4953  153.4551 C   0  0  0  0  0  0  0  0  0  0  0  0
  141.7650  134.4281  152.6705 C   0  0  0  0  0  0  0  0  0  0  0  0
  143.1535  134.2542  153.1731 N   0  3  1  0  0  0  0  0  0  0  0  0
  144.0968  133.6512  152.1974 C   0  0  0  0  0  0  0  0  0  0  0  0
  144.5681  134.6845  151.1568 C   0  0  0  0  0  0  0  0  0  0  0  0
  145.1263  135.8136  151.8189 O   0  0  0  0  0  0  0  0  0  0  0  0
  144.1888  136.4767  152.6617 C   0  0  2  0  0  0  0  0  0  0  0  0
  144.8835  137.7083  153.2629 C   0  0  0  0  0  0  0  0  0  0  0  0
  145.2727  138.6760  152.2170 N   0  3  0  0  0  0  0  0  0  0  0  0
  146.6650  139.1556  152.3322 C   0  0  0  0  0  0  0  0  0  0  0  0
  146.8413  140.0886  153.5415 C   0  0  2  0  0  0  0  0  0  0  0  0
  145.7468  140.9844  153.5856 O   0  0  0  0  0  0  0  0  0  0  0  0
  148.1548  140.8908  153.4581 C   0  0  0  0  0  0  0  0  0  0  0  0
  149.2127  140.3124  154.2671 N   0  0  0  0  0  0  0  0  0  0  0  0
  149.8015  139.1121  154.1001 C   0  0  0  0  0  0  0  0  0  0  0  0
  150.7595  138.7794  154.9598 N   0  0  0  0  0  0  0  0  0  0  0  0
  150.7908  139.8894  155.7863 C   0  0  0  0  0  0  0  0  0  0  0  0
  151.5946  140.1714  156.9122 C   0  0  0  0  0  0  0  0  0  0  0  0
  151.4508  141.3866  157.6189 C   0  0  0  0  0  0  0  0  0  0  0  0
  152.3347  141.6472  158.8261 C   0  0  0  0  0  0  0  0  0  0  0  0
  150.4902  142.3424  157.2013 C   0  0  0  0  0  0  0  0  0  0  0  0
  150.3127  143.6506  157.9514 C   0  0  0  0  0  0  0  0  0  0  0  0
  149.6821  142.0787  156.0753 C   0  0  0  0  0  0  0  0  0  0  0  0
  149.8341  140.8655  155.3812 C   0  0  0  0  0  0  0  0  0  0  0  0
  143.7335  135.4886  153.7579 C   0  0  0  0  0  0  0  0  0  0  0  0
  140.0107  135.6647  153.0061 H   0  0  0  0  0  0  0  0  0  0  0  0
  141.5206  136.4476  153.4550 H   0  0  0  0  0  0  0  0  0  0  0  0
  140.8222  135.2028  154.4911 H   0  0  0  0  0  0  0  0  0  0  0  0
  141.2245  133.4815  152.6795 H   0  0  0  0  0  0  0  0  0  0  0  0
  141.8015  134.7489  151.6286 H   0  0  0  0  0  0  0  0  0  0  0  0
  144.9622  133.2816  152.7490 H   0  0  0  0  0  0  0  0  0  0  0  0
  143.6591  132.7826  151.7068 H   0  0  0  0  0  0  0  0  0  0  0  0
  145.3311  134.2436  150.5150 H   0  0  0  0  0  0  0  0  0  0  0  0
  143.7523  134.9958  150.5036 H   0  0  0  0  0  0  0  0  0  0  0  0
  143.3287  136.8033  152.0740 H   0  0  0  0  0  0  0  0  0  0  0  0
  144.2135  138.2086  153.9632 H   0  0  0  0  0  0  0  0  0  0  0  0
  145.7658  137.4015  153.8267 H   0  0  0  0  0  0  0  0  0  0  0  0
  145.1737  138.2305  151.3152 H   0  0  0  0  0  0  0  0  0  0  0  0
  147.3216  138.2905  152.4349 H   0  0  0  0  0  0  0  0  0  0  0  0
  146.9538  139.6689  151.4134 H   0  0  0  0  0  0  0  0  0  0  0  0
  146.8400  139.4999  154.4600 H   0  0  0  0  0  0  0  0  0  0  0  0
  145.9002  141.6766  152.9595 H   0  0  0  0  0  0  0  0  0  0  0  0
  148.5040  140.9383  152.4258 H   0  0  0  0  0  0  0  0  0  0  0  0
  147.9948  141.9213  153.7796 H   0  0  0  0  0  0  0  0  0  0  0  0
  149.5139  138.4474  153.2985 H   0  0  0  0  0  0  0  0  0  0  0  0
  152.3241  139.4416  157.2314 H   0  0  0  0  0  0  0  0  0  0  0  0
  151.7307  141.7353  159.7295 H   0  0  0  0  0  0  0  0  0  0  0  0
  152.9009  142.5696  158.6955 H   0  0  0  0  0  0  0  0  0  0  0  0
  153.0491  140.8378  158.9784 H   0  0  0  0  0  0  0  0  0  0  0  0
  149.5150  144.2538  157.5170 H   0  0  0  0  0  0  0  0  0  0  0  0
  151.2312  144.2369  157.9207 H   0  0  0  0  0  0  0  0  0  0  0  0
  150.0572  143.4609  158.9944 H   0  0  0  0  0  0  0  0  0  0  0  0
  148.9471  142.7984  155.7462 H   0  0  0  0  0  0  0  0  0  0  0  0
  143.0213  135.9590  154.4369 H   0  0  0  0  0  0  0  0  0  0  0  0
  144.5913  135.2031  154.3687 H   0  0  0  0  0  0  0  0  0  0  0  0
  144.6508  139.4711  152.2539 H   0  0  0  0  0  0  0  0  0  0  0  0
  143.0735  133.5990  153.9382 H   0  0  0  0  0  0  0  0  0  0  0  0
  1  2  1  0  0  0  0
  1 26  1  0  0  0  0
  1 27  1  0  0  0  0
  1 28  1  0  0  0  0
  2  3  1  0  0  0  0
  2 29  1  0  0  0  0
  2 30  1  0  0  0  0
  3 25  1  0  0  0  0
  3  4  1  0  0  0  0
  3 57  1  0  0  0  0
  4  5  1  0  0  0  0
  4 31  1  0  0  0  0
  4 32  1  0  0  0  0
  5  6  1  0  0  0  0
  5 33  1  0  0  0  0
  5 34  1  0  0  0  0
  6  7  1  0  0  0  0
  7  8  1  0  0  0  0
  7 25  1  0  0  0  0
  7 35  1  0  0  0  0
  8  9  1  0  0  0  0
  8 36  1  0  0  0  0
  8 37  1  0  0  0  0
  9 10  1  0  0  0  0
  9 38  1  0  0  0  0
  9 56  1  0  0  0  0
 10 11  1  0  0  0  0
 10 39  1  0  0  0  0
 10 40  1  0  0  0  0
 11 12  1  0  0  0  0
 11 13  1  0  0  0  0
 11 41  1  0  0  0  0
 12 42  1  0  0  0  0
 13 14  1  0  0  0  0
 13 43  1  0  0  0  0
 13 44  1  0  0  0  0
 14 24  1  0  0  0  0
 14 15  1  0  0  0  0
 15 16  2  0  0  0  0
 15 45  1  0  0  0  0
 16 17  1  0  0  0  0
 17 24  2  0  0  0  0
 17 18  1  0  0  0  0
 18 19  2  0  0  0  0
 18 46  1  0  0  0  0
 19 20  1  0  0  0  0
 19 21  1  0  0  0  0
 20 47  1  0  0  0  0
 20 48  1  0  0  0  0
 20 49  1  0  0  0  0
 21 22  1  0  0  0  0
 21 23  2  0  0  0  0
 22 50  1  0  0  0  0
 22 51  1  0  0  0  0
 22 52  1  0  0  0  0
 23 24  1  0  0  0  0
 23 53  1  0  0  0  0
 25 54  1  0  0  0  0
 25 55  1  0  0  0  0
M  CHG  1   3   1
M  CHG  1   9   1
M  END
> <s_m_source_file>
AV-unprocessed.smi

> <i_m_source_file_index>
1047

> <i_lp_mmshare_version>
43012

> <i_f3d_flags>
0

> <s_epik_input>
W0NIM11bQ0gyXU4xW0NIMl1bQ0gyXU9bQ0BIXShbQ0gyXTEpW0NIMl1bTkhdW0NIMl1bQ0BIXShbT0hdKVtDSDJdbihbY0hdbjIpYyhjMjMpW2NIXWMoW0NIM10pYyhbY0hdMylbQ0gzXQ==

> <s_epik_cmdline>
J2VwaWtfcHl0aG9uJywgJy1waCcsICc3LjAnLCAnLXRuJywgJzgnLCAnLW1hJywgJzIwMCcsICctbWV0YWxfYmluZGluZycsICctaW1hZScsICc8aW5maWxlLm1hZT4nLCAnLW9tYWUnLCAnPG91dGZpbGUubWFlPic=

> <r_epik_Ionization_Penalty>
0.528991

> <r_epik_Ionization_Penalty_Charging>
0.438567

> <r_epik_Ionization_Penalty_Neutral>
0.0904237

> <r_epik_State_Penalty>
0.533036

> <r_epik_Charging_Adjusted_Penalty>
0.971603

> <i_epik_Tot_Q>
2

> <i_epik_Tot_abs_Q>
2

> <r_epik_Metal_State_Penalty>
0.448985

> <b_epik_Metal_Only>
0

> <s_lp_Force_Field>
OPLS_2005

> <r_lp_Energy>
30.7538

> <b_lp_Chiralities_Consistent>
1

> <s_lp_Variant>
AV-unprocessed.smi:1047-3

> <Gold.Version>
5.8.1

> <Gold.Id.Protein>
6NUR|6NUR_protein|mol2

> <Gold.PLP.Fitness>
59.9069

> <Gold.PLP.PLP>
-44.7477

> <Gold.PLP.part.hbond>
-4.0000

> <Gold.PLP.part.metal>
0.0000

> <Gold.PLP.part.buried>
-1.2801

> <Gold.PLP.part.nonpolar>
-39.8366

> <Gold.PLP.part.repulsive>
0.3193

> <Gold.PLP.ligand.clash>
0.0000

> <Gold.PLP.ligand.torsion>
1.3703

> <Gold.PLP.Chemscore.Hbond>
4.5034

> <Gold.PLP.Chemscore.CHOScore>
1.3971

> <Gold.PLP.Chemscore.Metal>
0.0000

> <Gold.Chemscore.Hbonds>
donor molecule, donor type, donor heavy atom, donor atom, acceptor molecule, acceptor atom, score
      L1  H     3    57       P1 10957  1.85
      L1  H     9    38       P1 10171  0.61
      L1  H     9    56       P1 10175  1.33
      L1  C    15    45       P1  7948  0.67
      L1  C    15    45       P1  7957  0.32

> <Gold.PLP.Chemscore.Internal.Correction>
0.1985

> <Gold.Rescore>
     Score         DG    S(hbond)    S(metal)    S(lipo)     H(rot)  DE(clash)    DE(int)     intcor
     17.26     -18.89       2.35        0.00     106.58       2.70       0.22       1.41       ----

> <Gold.Chemscore.Fitness>
17.2551

> <Gold.Chemscore.DG>
-18.8878

> <Gold.Chemscore.ZeroCoef>
-5.4800

> <Gold.Chemscore.Hbond>
2.3490

> <Gold.Chemscore.Metal>
0.0000

> <Gold.Chemscore.Lipo>
106.5833

> <Gold.Chemscore.Internal_Hbond>
0.0000

> <Gold.Chemscore.DEClash>
0.2198

> <Gold.Chemscore.DEInternal>
1.4129

> <Gold.Chemscore.Rot>
2.6985

> <Gold.Chemscore.Internal.Correction>
   9.000000E+99

> <Gold.Chemscore.Hbonds>
donor molecule, donor type, donor heavy atom, donor atom, acceptor molecule, acceptor atom, score
      L1  H     3    57       P1 10957  0.86
      L1  H     9    38       P1 10171  0.57
      L1  H     9    56       P1 10175  0.67

> <Gold.Chemscore.Hbond.Weighted>
-7.8457

> <Gold.Chemscore.Metal.Weighted>
-0.0000

> <Gold.Chemscore.Lipo.Weighted>
-12.4702

> <Gold.Chemscore.Internal_Hbond.Weighted>
0.0000

> <Gold.Chemscore.DEClash.Weighted>
0.2198

> <Gold.Chemscore.DEInternal.Weighted>
1.4129

> <Gold.Chemscore.Rot.Weighted>
6.9081

> <Gold.Chemscore.Internal.Correction.Weighted>
   9.000000E+99

> <Gold.Protein.RotatedTorsions>
[ 6907 6896 6895 6894 ] final   57.30 input  -60.11 | X-H torsion
[ 7974 7965 7964 7962 ] final -164.79 input  175.53 | X-H torsion
[ 8008 7997 7996 7995 ] final -155.81 input   59.86 | X-H torsion
[ 10167 10162 10161 10158 ] final  -91.64 input  -65.29 | X-H torsion
[ 10718 10713 10712 10709 ] final  -14.24 input   66.30 | X-H torsion
[ 10763 10752 10751 10750 ] final  136.95 input  -60.55 | X-H torsion
[ 11005 11000 10999 10996 ] final -110.07 input  -57.11 | X-H torsion

> <Gold.Protein.ActiveResidues>
 VAL166  LYS551  ARG553  GLY616  TRP617  ASP618  TYR619  PRO620  LYS621  CYS622 
 ASP623  PHE694  ASN695  SER759  ASP760  ASP761  ALA762  ILE779  LEU786  VAL792 
 PHE793  MET794  SER795  GLU796  ALA797  LYS798  CYS799  TRP800  GLU811  SER814 

> <Gold.Protein.RotatedAtoms>
  152.3718  134.6722  160.0173 H   0  0  0  0  0  0  0  0  0  0  0  0  # atno 6907 bound_to 6896
  151.7012  133.3306  159.3275 H   0  0  0  0  0  0  0  0  0  0  0  0  # atno 6908 bound_to 6896
  150.7680  134.6549  159.6353 H   0  0  0  0  0  0  0  0  0  0  0  0  # atno 6909 bound_to 6896
  144.7287  140.2909  143.6220 H   0  0  0  0  0  0  0  0  0  0  0  0  # atno 7974 bound_to 7965
  155.7076  140.0774  157.2384 H   0  0  0  0  0  0  0  0  0  0  0  0  # atno 8008 bound_to 7997
  154.4063  140.1636  156.2314 H   0  0  0  0  0  0  0  0  0  0  0  0  # atno 8009 bound_to 7997
  155.9312  140.3391  155.6253 H   0  0  0  0  0  0  0  0  0  0  0  0  # atno 8010 bound_to 7997
  140.3428  143.2933  151.9815 H   0  0  0  0  0  0  0  0  0  0  0  0  # atno 10167 bound_to 10162
  156.6187  130.4869  149.6173 H   0  0  0  0  0  0  0  0  0  0  0  0  # atno 10718 bound_to 10713
  153.8650  135.3062  155.3439 H   0  0  0  0  0  0  0  0  0  0  0  0  # atno 10763 bound_to 10752
  154.7831  135.4824  153.9891 H   0  0  0  0  0  0  0  0  0  0  0  0  # atno 10764 bound_to 10752
  153.1439  135.6829  153.9079 H   0  0  0  0  0  0  0  0  0  0  0  0  # atno 10765 bound_to 10752
  141.0812  133.9216  157.2284 H   0  0  0  0  0  0  0  0  0  0  0  0  # atno 11005 bound_to 11000
  145.7856  139.1907  143.2132 LP  0  0  0  0  0  0  0  0  0  0  0  0  # atno 17320 bound_to 7965
  146.0798  140.7777  142.9647 LP  0  0  0  0  0  0  0  0  0  0  0  0  # atno 17321 bound_to 7965
  139.4838  144.6142  151.7377 LP  0  0  0  0  0  0  0  0  0  0  0  0  # atno 17342 bound_to 10162
  140.5292  144.0757  150.6048 LP  0  0  0  0  0  0  0  0  0  0  0  0  # atno 17343 bound_to 10162
  156.2329  130.6805  151.1481 LP  0  0  0  0  0  0  0  0  0  0  0  0  # atno 17370 bound_to 10713
  157.7234  131.0667  150.6039 LP  0  0  0  0  0  0  0  0  0  0  0  0  # atno 17371 bound_to 10713
  139.9626  135.0150  156.9303 LP  0  0  0  0  0  0  0  0  0  0  0  0  # atno 17394 bound_to 11000
  140.5463  134.0670  155.7356 LP  0  0  0  0  0  0  0  0  0  0  0  0  # atno 17395 bound_to 11000

$$$$
