AV-unprocessed.smi:41|AV-procd|sdf|384|dock4
  -GOLD-   2262016243D 1   1.00000     0.00000
 Structure written by MMmdl.
 26 27  0  0  0  0  0  0  0  0  1 V2000
  149.9536  139.0570  153.4196 N   0  0  0  0  0  0  0  0  0  0  0  0
  150.2329  139.8194  154.4866 C   0  0  0  0  0  0  0  0  0  0  0  0
  151.3157  139.5605  155.1933 N   0  0  0  0  0  0  0  0  0  0  0  0
  151.6821  140.2807  156.3001 C   0  0  0  0  0  0  0  0  0  0  0  0
  152.6918  139.9753  156.9333 O   0  0  0  0  0  0  0  0  0  0  0  0
  150.8604  141.3753  156.6730 N   0  0  0  0  0  0  0  0  0  0  0  0
  151.1428  142.1382  157.8868 C   0  0  1  0  0  0  0  0  0  0  0  0
  151.5921  141.2813  159.0895 C   0  0  0  0  0  0  0  0  0  0  0  0
  152.5834  142.3546  160.1423 S   0  0  0  0  0  0  0  0  0  0  0  0
  152.5847  143.6246  158.8554 C   0  0  2  0  0  0  0  0  0  0  0  0
  151.7170  144.8392  159.2359 C   0  0  0  0  0  0  0  0  0  0  0  0
  151.9394  145.2018  160.5825 O   0  0  0  0  0  0  0  0  0  0  0  0
  152.1426  143.0723  157.6242 O   0  0  0  0  0  0  0  0  0  0  0  0
  149.7014  141.6330  155.9506 C   0  0  0  0  0  0  0  0  0  0  0  0
  149.3580  140.9042  154.8670 C   0  0  0  0  0  0  0  0  0  0  0  0
  148.2371  141.1750  154.1761 F   0  0  0  0  0  0  0  0  0  0  0  0
  150.2554  142.6991  158.1817 H   0  0  0  0  0  0  0  0  0  0  0  0
  153.6111  143.9605  158.7041 H   0  0  0  0  0  0  0  0  0  0  0  0
  149.1237  139.2400  152.8736 H   0  0  0  0  0  0  0  0  0  0  0  0
  150.5718  138.2999  153.1657 H   0  0  0  0  0  0  0  0  0  0  0  0
  150.7225  140.8895  159.6176 H   0  0  0  0  0  0  0  0  0  0  0  0
  152.2146  140.4420  158.7880 H   0  0  0  0  0  0  0  0  0  0  0  0
  151.9740  145.6937  158.6091 H   0  0  0  0  0  0  0  0  0  0  0  0
  150.6559  144.6369  159.0878 H   0  0  0  0  0  0  0  0  0  0  0  0
  152.8491  145.4367  160.6844 H   0  0  0  0  0  0  0  0  0  0  0  0
  149.0315  142.4241  156.2524 H   0  0  0  0  0  0  0  0  0  0  0  0
  1  2  1  0  0  0  0
  1 19  1  0  0  0  0
  1 20  1  0  0  0  0
  2 15  1  0  0  0  0
  2  3  2  0  0  0  0
  3  4  1  0  0  0  0
  4  5  2  0  0  0  0
  4  6  1  0  0  0  0
  6  7  1  0  0  0  0
  6 14  1  0  0  0  0
  7 17  1  0  0  0  0
  7 13  1  0  0  0  0
  7  8  1  0  0  0  0
  8  9  1  0  0  0  0
  8 21  1  0  0  0  0
  8 22  1  0  0  0  0
  9 10  1  0  0  0  0
 10 18  1  0  0  0  0
 10 11  1  0  0  0  0
 10 13  1  0  0  0  0
 11 12  1  0  0  0  0
 11 23  1  0  0  0  0
 11 24  1  0  0  0  0
 12 25  1  0  0  0  0
 14 15  2  0  0  0  0
 14 26  1  0  0  0  0
 15 16  1  0  0  0  0
M  END
> <s_m_source_file>
AV-unprocessed.smi

> <i_m_source_file_index>
41

> <i_lp_mmshare_version>
43012

> <i_f3d_flags>
0

> <s_epik_input>
W05IMl1jMW5jKD1PKW4oW2NIXWMxRilbQ0BASF0yW0NIMl1TW0NAQEhdKE8yKVtDSDJdW09IXQ==

> <s_epik_cmdline>
J2VwaWtfcHl0aG9uJywgJy1waCcsICc3LjAnLCAnLXRuJywgJzgnLCAnLW1hJywgJzIwMCcsICctbWV0YWxfYmluZGluZycsICctaW1hZScsICc8aW5maWxlLm1hZT4nLCAnLW9tYWUnLCAnPG91dGZpbGUubWFlPic=

> <r_lp_tautomer_probability>
1

> <r_epik_Ionization_Penalty>
0.000101883

> <r_epik_Ionization_Penalty_Charging>
1.48607e-08

> <r_epik_Ionization_Penalty_Neutral>
0.000101868

> <r_epik_State_Penalty>
-0

> <r_epik_Charging_Adjusted_Penalty>
1.48607e-08

> <i_epik_Tot_Q>
0

> <i_epik_Tot_abs_Q>
0

> <r_epik_Metal_State_Penalty>
-0

> <b_epik_Metal_Only>
0

> <s_epik_Chemistry_Notes>
This compound contains an acetal/aminal-like group ( X-CH(R)-Y where X, Y are N, S, or O) that may be acid/base labile, releasing an aldehyde.

> <s_lp_Force_Field>
OPLS_2005

> <r_lp_Energy>
13.4753

> <b_lp_Chiralities_Consistent>
1

> <s_lp_Variant>
AV-unprocessed.smi:41-2

> <Gold.Version>
5.8.1

> <Gold.Id.Protein>
6NUR|6NUR_protein|mol2

> <Gold.PLP.Fitness>
39.3077

> <Gold.PLP.PLP>
-33.2879

> <Gold.PLP.part.hbond>
-2.3562

> <Gold.PLP.part.metal>
0.0000

> <Gold.PLP.part.buried>
1.2686

> <Gold.PLP.part.nonpolar>
-30.6931

> <Gold.PLP.part.repulsive>
0.1751

> <Gold.PLP.ligand.clash>
0.0000

> <Gold.PLP.ligand.torsion>
0.5859

> <Gold.PLP.Chemscore.Hbond>
1.3806

> <Gold.PLP.Chemscore.CHOScore>
1.0000

> <Gold.PLP.Chemscore.Metal>
0.0000

> <Gold.Chemscore.Hbonds>
donor molecule, donor type, donor heavy atom, donor atom, acceptor molecule, acceptor atom, score
      L1  H     1    19       P1  7957  0.21
      P1  H  7997  8010       L1     5  1.00
      L1  C    14    26       P1  8028  1.00

> <Gold.PLP.Chemscore.Internal.Correction>
0.0496

> <Gold.Rescore>
     Score         DG    S(hbond)    S(metal)    S(lipo)     H(rot)  DE(clash)    DE(int)     intcor
      7.90     -10.99       1.34        0.00      56.76       2.19       1.11       1.98       ----

> <Gold.Chemscore.Fitness>
7.9037

> <Gold.Chemscore.DG>
-10.9935

> <Gold.Chemscore.ZeroCoef>
-5.4800

> <Gold.Chemscore.Hbond>
1.3433

> <Gold.Chemscore.Metal>
0.0000

> <Gold.Chemscore.Lipo>
56.7582

> <Gold.Chemscore.Internal_Hbond>
0.0000

> <Gold.Chemscore.DEClash>
1.1055

> <Gold.Chemscore.DEInternal>
1.9842

> <Gold.Chemscore.Rot>
2.1929

> <Gold.Chemscore.Internal.Correction>
   9.000000E+99

> <Gold.Chemscore.Hbonds>
donor molecule, donor type, donor heavy atom, donor atom, acceptor molecule, acceptor atom, score
      L1  H     1    19       P1  7957  0.20
      P1  H  7997  8010       L1     5  0.99

> <Gold.Chemscore.Hbond.Weighted>
-4.4865

> <Gold.Chemscore.Metal.Weighted>
-0.0000

> <Gold.Chemscore.Lipo.Weighted>
-6.6407

> <Gold.Chemscore.Internal_Hbond.Weighted>
0.0000

> <Gold.Chemscore.DEClash.Weighted>
1.1055

> <Gold.Chemscore.DEInternal.Weighted>
1.9842

> <Gold.Chemscore.Rot.Weighted>
5.6137

> <Gold.Chemscore.Internal.Correction.Weighted>
   9.000000E+99

> <Gold.Protein.RotatedTorsions>
[ 6907 6896 6895 6894 ] final  -11.20 input  -60.11 | X-H torsion
[ 7974 7965 7964 7962 ] final -147.20 input  175.53 | X-H torsion
[ 8008 7997 7996 7995 ] final   68.08 input   59.86 | X-H torsion
[ 10167 10162 10161 10158 ] final  -76.05 input  -65.29 | X-H torsion
[ 10718 10713 10712 10709 ] final   72.65 input   66.30 | X-H torsion
[ 10763 10752 10751 10750 ] final   95.15 input  -60.55 | X-H torsion
[ 11005 11000 10999 10996 ] final -165.91 input  -57.11 | X-H torsion

> <Gold.Protein.ActiveResidues>
 VAL166  LYS551  ARG553  GLY616  TRP617  ASP618  TYR619  PRO620  LYS621  CYS622 
 ASP623  PHE694  ASN695  SER759  ASP760  ASP761  ALA762  ILE779  LEU786  VAL792 
 PHE793  MET794  SER795  GLU796  ALA797  LYS798  CYS799  TRP800  GLU811  SER814 

> <Gold.Protein.RotatedAtoms>
  151.3900  135.0954  159.9522 H   0  0  0  0  0  0  0  0  0  0  0  0  # atno 6907 bound_to 6896
  152.5083  133.8989  159.7441 H   0  0  0  0  0  0  0  0  0  0  0  0  # atno 6908 bound_to 6896
  150.9441  133.6568  159.2813 H   0  0  0  0  0  0  0  0  0  0  0  0  # atno 6909 bound_to 6896
  144.8109  140.5358  143.5643 H   0  0  0  0  0  0  0  0  0  0  0  0  # atno 7974 bound_to 7965
  155.7028  140.3495  155.4940 H   0  0  0  0  0  0  0  0  0  0  0  0  # atno 8008 bound_to 7997
  155.9425  140.1104  157.1066 H   0  0  0  0  0  0  0  0  0  0  0  0  # atno 8009 bound_to 7997
  154.4105  140.1210  156.4932 H   0  0  0  0  0  0  0  0  0  0  0  0  # atno 8010 bound_to 7997
  140.4890  143.2384  151.7938 H   0  0  0  0  0  0  0  0  0  0  0  0  # atno 10167 bound_to 10162
  157.6511  130.9589  150.0958 H   0  0  0  0  0  0  0  0  0  0  0  0  # atno 10718 bound_to 10713
  153.2499  135.4264  155.0786 H   0  0  0  0  0  0  0  0  0  0  0  0  # atno 10763 bound_to 10752
  154.8377  135.3423  154.6528 H   0  0  0  0  0  0  0  0  0  0  0  0  # atno 10764 bound_to 10752
  153.6950  135.7031  153.5136 H   0  0  0  0  0  0  0  0  0  0  0  0  # atno 10765 bound_to 10752
  140.5704  134.5243  157.5161 H   0  0  0  0  0  0  0  0  0  0  0  0  # atno 11005 bound_to 11000
  145.5326  139.1475  143.3491 LP  0  0  0  0  0  0  0  0  0  0  0  0  # atno 17320 bound_to 7965
  146.2407  140.5467  142.8935 LP  0  0  0  0  0  0  0  0  0  0  0  0  # atno 17321 bound_to 7965
  139.4847  144.4674  151.9467 LP  0  0  0  0  0  0  0  0  0  0  0  0  # atno 17342 bound_to 10162
  140.3761  144.2795  150.5914 LP  0  0  0  0  0  0  0  0  0  0  0  0  # atno 17343 bound_to 10162
  156.1894  130.3654  149.8929 LP  0  0  0  0  0  0  0  0  0  0  0  0  # atno 17370 bound_to 10713
  156.6862  130.8877  151.3582 LP  0  0  0  0  0  0  0  0  0  0  0  0  # atno 17371 bound_to 10713
  139.9364  134.7867  156.0791 LP  0  0  0  0  0  0  0  0  0  0  0  0  # atno 17394 bound_to 11000
  141.1059  133.6660  156.2863 LP  0  0  0  0  0  0  0  0  0  0  0  0  # atno 17395 bound_to 11000

$$$$
