AV-unprocessed.smi:370|AV-procd|sdf|2436|dock10
  -GOLD-   2262022373D 1   1.00000     0.00000
 Structure written by MMmdl.
 42 43  0  0  0  0  0  0  0  0  1 V2000
  143.9070  132.8727  148.9073 C   0  0  0  0  0  0  0  0  0  0  0  0
  144.5057  133.4952  150.1216 C   0  0  0  0  0  0  0  0  0  0  0  0
  145.7950  133.7444  150.4986 C   0  0  0  0  0  0  0  0  0  0  0  0
  145.6413  134.3574  151.7762 C   0  0  0  0  0  0  0  0  0  0  0  0
  146.6866  134.8110  152.6214 N   0  0  0  0  0  0  0  0  0  0  0  0
  146.6358  135.0925  153.9342 C   0  0  0  0  0  0  0  0  0  0  0  0
  145.6427  134.9704  154.6510 O   0  0  0  0  0  0  0  0  0  0  0  0
  147.8250  135.5199  154.3812 N   0  0  0  0  0  0  0  0  0  0  0  0
  148.1416  135.8869  155.7615 C   0  0  0  0  0  0  0  0  0  0  0  0
  149.6732  136.0086  156.0148 C   0  0  0  0  0  0  0  0  0  0  0  0
  149.8658  136.2748  157.5275 C   0  0  0  0  0  0  0  0  0  0  0  0
  150.2810  134.6142  155.7168 C   0  0  0  0  0  0  0  0  0  0  0  0
  150.2912  137.0573  155.1548 N   0  0  0  0  0  0  0  0  0  0  0  0
  149.6306  138.3671  155.2065 C   0  0  0  0  0  0  0  0  0  0  0  0
  150.2408  139.3627  154.2057 C   0  0  0  0  0  0  0  0  0  0  0  0
  151.6341  139.4985  154.4560 O   0  0  0  0  0  0  0  0  0  0  0  0
  152.3254  138.2594  154.3571 C   0  0  0  0  0  0  0  0  0  0  0  0
  151.7317  137.2516  155.3560 C   0  0  0  0  0  0  0  0  0  0  0  0
  144.3766  134.4628  152.1409 N   0  0  0  0  0  0  0  0  0  0  0  0
  143.6408  133.9150  151.0836 O   0  0  0  0  0  0  0  0  0  0  0  0
  144.6607  132.7258  148.1332 H   0  0  0  0  0  0  0  0  0  0  0  0
  143.1195  133.5043  148.4961 H   0  0  0  0  0  0  0  0  0  0  0  0
  143.4734  131.9014  149.1455 H   0  0  0  0  0  0  0  0  0  0  0  0
  146.6900  133.5156  149.9401 H   0  0  0  0  0  0  0  0  0  0  0  0
  147.5822  134.9313  152.1717 H   0  0  0  0  0  0  0  0  0  0  0  0
  148.5853  135.5750  153.7194 H   0  0  0  0  0  0  0  0  0  0  0  0
  147.6341  136.8262  155.9795 H   0  0  0  0  0  0  0  0  0  0  0  0
  147.7002  135.1744  156.4607 H   0  0  0  0  0  0  0  0  0  0  0  0
  149.4100  135.4838  158.1241 H   0  0  0  0  0  0  0  0  0  0  0  0
  149.4043  137.2102  157.8431 H   0  0  0  0  0  0  0  0  0  0  0  0
  150.9175  136.3121  157.8101 H   0  0  0  0  0  0  0  0  0  0  0  0
  149.7149  133.8189  156.2034 H   0  0  0  0  0  0  0  0  0  0  0  0
  151.3046  134.5230  156.0799 H   0  0  0  0  0  0  0  0  0  0  0  0
  150.2907  134.3983  154.6480 H   0  0  0  0  0  0  0  0  0  0  0  0
  148.5702  138.2784  154.9784 H   0  0  0  0  0  0  0  0  0  0  0  0
  149.7048  138.7879  156.2093 H   0  0  0  0  0  0  0  0  0  0  0  0
  150.0776  139.0280  153.1800 H   0  0  0  0  0  0  0  0  0  0  0  0
  149.7648  140.3384  154.3034 H   0  0  0  0  0  0  0  0  0  0  0  0
  152.2586  137.8772  153.3373 H   0  0  0  0  0  0  0  0  0  0  0  0
  153.3819  138.4239  154.5682 H   0  0  0  0  0  0  0  0  0  0  0  0
  151.9269  137.6052  156.3685 H   0  0  0  0  0  0  0  0  0  0  0  0
  152.2707  136.3134  155.2380 H   0  0  0  0  0  0  0  0  0  0  0  0
  1  2  1  0  0  0  0
  1 21  1  0  0  0  0
  1 22  1  0  0  0  0
  1 23  1  0  0  0  0
  2 20  1  0  0  0  0
  2  3  2  0  0  0  0
  3  4  1  0  0  0  0
  3 24  1  0  0  0  0
  4  5  1  0  0  0  0
  4 19  2  0  0  0  0
  5  6  1  0  0  0  0
  5 25  1  0  0  0  0
  6  7  2  0  0  0  0
  6  8  1  0  0  0  0
  8  9  1  0  0  0  0
  8 26  1  0  0  0  0
  9 10  1  0  0  0  0
  9 27  1  0  0  0  0
  9 28  1  0  0  0  0
 10 11  1  0  0  0  0
 10 12  1  0  0  0  0
 10 13  1  0  0  0  0
 11 29  1  0  0  0  0
 11 30  1  0  0  0  0
 11 31  1  0  0  0  0
 12 32  1  0  0  0  0
 12 33  1  0  0  0  0
 12 34  1  0  0  0  0
 13 18  1  0  0  0  0
 13 14  1  0  0  0  0
 14 15  1  0  0  0  0
 14 35  1  0  0  0  0
 14 36  1  0  0  0  0
 15 16  1  0  0  0  0
 15 37  1  0  0  0  0
 15 38  1  0  0  0  0
 16 17  1  0  0  0  0
 17 18  1  0  0  0  0
 17 39  1  0  0  0  0
 17 40  1  0  0  0  0
 18 41  1  0  0  0  0
 18 42  1  0  0  0  0
 19 20  1  0  0  0  0
M  END
> <s_m_source_file>
AV-unprocessed.smi

> <i_m_source_file_index>
370

> <i_lp_mmshare_version>
43012

> <i_f3d_flags>
0

> <s_epik_input>
W0NIM11jMVtjSF1jKG5vMSlbTkhdQyg9TylbTkhdW0NIMl1DKFtDSDNdKShbQ0gzXSlOMltDSDJdW0NIMl1PW0NIMl1bQ0gyXTI=

> <s_epik_cmdline>
J2VwaWtfcHl0aG9uJywgJy1waCcsICc3LjAnLCAnLXRuJywgJzgnLCAnLW1hJywgJzIwMCcsICctbWV0YWxfYmluZGluZycsICctaW1hZScsICc8aW5maWxlLm1hZT4nLCAnLW9tYWUnLCAnPG91dGZpbGUubWFlPic=

> <r_epik_Ionization_Penalty>
0.214074

> <r_epik_Ionization_Penalty_Charging>
0

> <r_epik_Ionization_Penalty_Neutral>
0.214074

> <r_epik_State_Penalty>
0.204211

> <r_epik_Charging_Adjusted_Penalty>
0.204211

> <i_epik_Tot_Q>
0

> <i_epik_Tot_abs_Q>
0

> <r_epik_Metal_State_Penalty>
0.217151

> <b_epik_Metal_Only>
0

> <s_lp_Force_Field>
OPLS_2005

> <r_lp_Energy>
40.6457

> <b_lp_Chiralities_Consistent>
1

> <s_lp_Variant>
AV-unprocessed.smi:370-1

> <Gold.Version>
5.8.1

> <Gold.Id.Protein>
6NUR|6NUR_protein|mol2

> <Gold.PLP.Fitness>
35.7503

> <Gold.PLP.PLP>
-27.3520

> <Gold.PLP.part.hbond>
-3.0000

> <Gold.PLP.part.metal>
0.0000

> <Gold.PLP.part.buried>
-4.3984

> <Gold.PLP.part.nonpolar>
-19.4233

> <Gold.PLP.part.repulsive>
0.5384

> <Gold.PLP.ligand.clash>
0.0000

> <Gold.PLP.ligand.torsion>
0.2196

> <Gold.PLP.Chemscore.Hbond>
2.9280

> <Gold.PLP.Chemscore.CHOScore>
0.0000

> <Gold.PLP.Chemscore.Metal>
0.0000

> <Gold.Chemscore.Hbonds>
donor molecule, donor type, donor heavy atom, donor atom, acceptor molecule, acceptor atom, score
      L1  H     5    25       P1  7948  0.88
      L1  H     8    26       P1  7948  0.82
      P1  H  7989  7998       L1    16  0.50

> <Gold.PLP.Chemscore.Internal.Correction>
0.0536

> <Gold.Rescore>
     Score         DG    S(hbond)    S(metal)    S(lipo)     H(rot)  DE(clash)    DE(int)     intcor
     15.21     -17.00       2.32        0.00      66.39       1.55       0.19       1.60       ----

> <Gold.Chemscore.Fitness>
15.2091

> <Gold.Chemscore.DG>
-17.0037

> <Gold.Chemscore.ZeroCoef>
-5.4800

> <Gold.Chemscore.Hbond>
2.3161

> <Gold.Chemscore.Metal>
0.0000

> <Gold.Chemscore.Lipo>
66.3949

> <Gold.Chemscore.Internal_Hbond>
0.0000

> <Gold.Chemscore.DEClash>
0.1911

> <Gold.Chemscore.DEInternal>
1.6036

> <Gold.Chemscore.Rot>
1.5548

> <Gold.Chemscore.Internal.Correction>
   9.000000E+99

> <Gold.Chemscore.Hbonds>
donor molecule, donor type, donor heavy atom, donor atom, acceptor molecule, acceptor atom, score
      L1  H     5    25       P1  7948  0.78
      L1  H     8    26       P1  7948  0.78
      P1  H  7989  7998       L1    16  0.02

> <Gold.Chemscore.Hbond.Weighted>
-7.7358

> <Gold.Chemscore.Metal.Weighted>
-0.0000

> <Gold.Chemscore.Lipo.Weighted>
-7.7682

> <Gold.Chemscore.Internal_Hbond.Weighted>
0.0000

> <Gold.Chemscore.DEClash.Weighted>
0.1911

> <Gold.Chemscore.DEInternal.Weighted>
1.6036

> <Gold.Chemscore.Rot.Weighted>
3.9802

> <Gold.Chemscore.Internal.Correction.Weighted>
   9.000000E+99

> <Gold.Protein.RotatedTorsions>
[ 6907 6896 6895 6894 ] final  -56.13 input  -60.11 | X-H torsion
[ 7974 7965 7964 7962 ] final   32.16 input  175.53 | X-H torsion
[ 8008 7997 7996 7995 ] final   10.39 input   59.86 | X-H torsion
[ 10167 10162 10161 10158 ] final   40.91 input  -65.29 | X-H torsion
[ 10718 10713 10712 10709 ] final -135.82 input   66.30 | X-H torsion
[ 10763 10752 10751 10750 ] final  -69.59 input  -60.55 | X-H torsion
[ 11005 11000 10999 10996 ] final  148.07 input  -57.11 | X-H torsion

> <Gold.Protein.ActiveResidues>
 VAL166  LYS551  ARG553  GLY616  TRP617  ASP618  TYR619  PRO620  LYS621  CYS622 
 ASP623  PHE694  ASN695  SER759  ASP760  ASP761  ALA762  ILE779  LEU786  VAL792 
 PHE793  MET794  SER795  GLU796  ALA797  LYS798  CYS799  TRP800  GLU811  SER814 

> <Gold.Protein.RotatedAtoms>
  150.8193  134.7392  159.6757 H   0  0  0  0  0  0  0  0  0  0  0  0  # atno 6907 bound_to 6896
  152.4310  134.5775  159.9948 H   0  0  0  0  0  0  0  0  0  0  0  0  # atno 6908 bound_to 6896
  151.5963  133.3323  159.3074 H   0  0  0  0  0  0  0  0  0  0  0  0  # atno 6909 bound_to 6896
  146.1504  139.6562  142.9102 H   0  0  0  0  0  0  0  0  0  0  0  0  # atno 7974 bound_to 7965
  154.7928  140.2838  155.5979 H   0  0  0  0  0  0  0  0  0  0  0  0  # atno 8008 bound_to 7997
  156.2967  140.2601  156.2707 H   0  0  0  0  0  0  0  0  0  0  0  0  # atno 8009 bound_to 7997
  154.9650  140.0377  157.2197 H   0  0  0  0  0  0  0  0  0  0  0  0  # atno 8010 bound_to 7997
  140.3696  144.2123  150.6134 H   0  0  0  0  0  0  0  0  0  0  0  0  # atno 10167 bound_to 10162
  156.2703  130.7261  151.1226 H   0  0  0  0  0  0  0  0  0  0  0  0  # atno 10718 bound_to 10713
  154.4055  135.6021  153.5922 H   0  0  0  0  0  0  0  0  0  0  0  0  # atno 10763 bound_to 10752
  152.9789  135.5917  154.4132 H   0  0  0  0  0  0  0  0  0  0  0  0  # atno 10764 bound_to 10752
  154.3937  135.2842  155.2117 H   0  0  0  0  0  0  0  0  0  0  0  0  # atno 10765 bound_to 10752
  140.0928  134.9030  157.1677 H   0  0  0  0  0  0  0  0  0  0  0  0  # atno 11005 bound_to 11000
  145.4837  141.0438  143.2632 LP  0  0  0  0  0  0  0  0  0  0  0  0  # atno 17320 bound_to 7965
  144.7897  139.6353  143.7118 LP  0  0  0  0  0  0  0  0  0  0  0  0  # atno 17321 bound_to 7965
  140.5047  143.2307  151.8626 LP  0  0  0  0  0  0  0  0  0  0  0  0  # atno 17342 bound_to 10162
  139.4805  144.5019  151.9049 LP  0  0  0  0  0  0  0  0  0  0  0  0  # atno 17343 bound_to 10162
  157.7281  131.0634  150.5833 LP  0  0  0  0  0  0  0  0  0  0  0  0  # atno 17370 bound_to 10713
  156.5929  130.4334  149.5929 LP  0  0  0  0  0  0  0  0  0  0  0  0  # atno 17371 bound_to 10713
  140.3328  134.2791  155.7225 LP  0  0  0  0  0  0  0  0  0  0  0  0  # atno 17394 bound_to 11000
  141.2083  133.7781  157.0067 LP  0  0  0  0  0  0  0  0  0  0  0  0  # atno 17395 bound_to 11000

$$$$
