AV-unprocessed.smi:2453|AV-procd|sdf|9690|dock9
  -GOLD-   2272013333D 1   1.00000     0.00000
 Structure written by MMmdl.
 40 41  0  0  0  0  0  0  0  0  1 V2000
  150.8227  145.0963  159.9209 C   0  0  0  0  0  0  0  0  0  0  0  0
  151.6664  143.8682  160.2142 C   0  0  0  0  0  0  0  0  0  0  0  0
  152.4630  143.8236  161.3788 C   0  0  0  0  0  0  0  0  0  0  0  0
  153.2374  142.7710  161.7137 N   0  0  0  0  0  0  0  0  0  0  0  0
  153.2406  141.7058  160.8865 C   0  0  0  0  0  0  0  0  0  0  0  0
  152.4845  141.6423  159.7000 C   0  0  0  0  0  0  0  0  0  0  0  0
  151.6824  142.7529  159.3416 C   0  0  0  0  0  0  0  0  0  0  0  0
  150.8608  142.7819  158.1788 N   0  0  0  0  0  0  0  0  0  0  0  0
  150.1045  141.8021  157.6543 C   0  0  0  0  0  0  0  0  0  0  0  0
  150.0328  140.6496  158.0806 O   0  0  0  0  0  0  0  0  0  0  0  0
  149.4350  142.2350  156.5761 N   0  0  0  0  0  0  0  0  0  0  0  0
  148.5279  141.4267  155.7626 C   0  0  1  0  0  0  0  0  0  0  0  0
  147.5059  142.3437  155.0564 C   0  0  0  0  0  0  0  0  0  0  0  0
  146.5698  141.5493  154.1344 C   0  0  0  0  0  0  0  0  0  0  0  0
  147.3685  140.7411  153.1032 C   0  0  0  0  0  0  0  0  0  0  0  0
  148.3737  139.8083  153.7952 C   0  0  0  0  0  0  0  0  0  0  0  0
  149.3252  140.5818  154.7341 C   0  0  2  0  0  0  0  0  0  0  0  0
  150.3742  139.6453  155.3753 C   0  0  0  0  0  0  0  0  0  0  0  0
  151.3213  139.1927  154.4293 O   0  0  0  0  0  0  0  0  0  0  0  0
  150.9564  145.8617  160.6858 H   0  0  0  0  0  0  0  0  0  0  0  0
  149.7655  144.8320  159.8888 H   0  0  0  0  0  0  0  0  0  0  0  0
  151.1013  145.5285  158.9594 H   0  0  0  0  0  0  0  0  0  0  0  0
  152.4785  144.6563  162.0666 H   0  0  0  0  0  0  0  0  0  0  0  0
  153.8599  140.8723  161.1830 H   0  0  0  0  0  0  0  0  0  0  0  0
  152.5254  140.7446  159.1031 H   0  0  0  0  0  0  0  0  0  0  0  0
  150.8844  143.6465  157.6588 H   0  0  0  0  0  0  0  0  0  0  0  0
  149.5591  143.1965  156.2951 H   0  0  0  0  0  0  0  0  0  0  0  0
  147.9818  140.7426  156.4152 H   0  0  0  0  0  0  0  0  0  0  0  0
  146.9124  142.8850  155.7942 H   0  0  0  0  0  0  0  0  0  0  0  0
  148.0312  143.0996  154.4708 H   0  0  0  0  0  0  0  0  0  0  0  0
  145.9533  140.8756  154.7309 H   0  0  0  0  0  0  0  0  0  0  0  0
  145.8847  142.2281  153.6260 H   0  0  0  0  0  0  0  0  0  0  0  0
  146.6887  140.1581  152.4811 H   0  0  0  0  0  0  0  0  0  0  0  0
  147.8972  141.4202  152.4330 H   0  0  0  0  0  0  0  0  0  0  0  0
  147.8278  139.0518  154.3602 H   0  0  0  0  0  0  0  0  0  0  0  0
  148.9491  139.2717  153.0402 H   0  0  0  0  0  0  0  0  0  0  0  0
  149.8812  141.2811  154.1072 H   0  0  0  0  0  0  0  0  0  0  0  0
  150.9042  140.1655  156.1737 H   0  0  0  0  0  0  0  0  0  0  0  0
  149.8963  138.7793  155.8337 H   0  0  0  0  0  0  0  0  0  0  0  0
  152.1350  139.0174  154.8770 H   0  0  0  0  0  0  0  0  0  0  0  0
  1  2  1  0  0  0  0
  1 20  1  0  0  0  0
  1 21  1  0  0  0  0
  1 22  1  0  0  0  0
  2  7  1  0  0  0  0
  2  3  2  0  0  0  0
  3  4  1  0  0  0  0
  3 23  1  0  0  0  0
  4  5  2  0  0  0  0
  5  6  1  0  0  0  0
  5 24  1  0  0  0  0
  6  7  2  0  0  0  0
  6 25  1  0  0  0  0
  7  8  1  0  0  0  0
  8  9  1  0  0  0  0
  8 26  1  0  0  0  0
  9 10  2  0  0  0  0
  9 11  1  0  0  0  0
 11 12  1  0  0  0  0
 11 27  1  0  0  0  0
 12 17  1  0  0  0  0
 12 13  1  0  0  0  0
 12 28  1  0  0  0  0
 13 14  1  0  0  0  0
 13 29  1  0  0  0  0
 13 30  1  0  0  0  0
 14 15  1  0  0  0  0
 14 31  1  0  0  0  0
 14 32  1  0  0  0  0
 15 16  1  0  0  0  0
 15 33  1  0  0  0  0
 15 34  1  0  0  0  0
 16 17  1  0  0  0  0
 16 35  1  0  0  0  0
 16 36  1  0  0  0  0
 17 18  1  0  0  0  0
 17 37  1  0  0  0  0
 18 19  1  0  0  0  0
 18 38  1  0  0  0  0
 18 39  1  0  0  0  0
 19 40  1  0  0  0  0
M  END
> <s_m_source_file>
AV-unprocessed.smi

> <i_m_source_file_index>
2453

> <i_lp_mmshare_version>
43012

> <i_f3d_flags>
0

> <s_epik_input>
W0NIM11jMVtjSF1uW2NIXVtjSF1jMVtOSF1DKD1PKVtOSF1bQ0BASF0yW0NIMl1bQ0gyXVtDSDJdW0NIMl1bQ0BIXTJbQ0gyXVtPSF0=

> <s_epik_cmdline>
J2VwaWtfcHl0aG9uJywgJy1waCcsICc3LjAnLCAnLXRuJywgJzgnLCAnLW1hJywgJzIwMCcsICctbWV0YWxfYmluZGluZycsICctaW1hZScsICc8aW5maWxlLm1hZT4nLCAnLW9tYWUnLCAnPG91dGZpbGUubWFlPic=

> <r_epik_Ionization_Penalty>
0.210691

> <r_epik_Ionization_Penalty_Charging>
0

> <r_epik_Ionization_Penalty_Neutral>
0.210691

> <r_epik_State_Penalty>
0.200732

> <r_epik_Charging_Adjusted_Penalty>
0.200732

> <i_epik_Tot_Q>
0

> <i_epik_Tot_abs_Q>
0

> <r_epik_Metal_State_Penalty>
0.147519

> <b_epik_Metal_Only>
0

> <s_lp_Force_Field>
OPLS_2005

> <r_lp_Energy>
20.8004

> <b_lp_Chiralities_Consistent>
1

> <s_lp_Variant>
AV-unprocessed.smi:2453-4

> <Gold.Version>
5.8.1

> <Gold.Id.Protein>
6NUR|6NUR_protein|mol2

> <Gold.PLP.Fitness>
39.9853

> <Gold.PLP.PLP>
-35.4704

> <Gold.PLP.part.hbond>
-2.0000

> <Gold.PLP.part.metal>
0.0000

> <Gold.PLP.part.buried>
0.7242

> <Gold.PLP.part.nonpolar>
-33.6698

> <Gold.PLP.part.repulsive>
0.1226

> <Gold.PLP.ligand.clash>
0.0000

> <Gold.PLP.ligand.torsion>
0.7507

> <Gold.PLP.Chemscore.Hbond>
2.0000

> <Gold.PLP.Chemscore.CHOScore>
0.0000

> <Gold.PLP.Chemscore.Metal>
0.0000

> <Gold.Chemscore.Hbonds>
donor molecule, donor type, donor heavy atom, donor atom, acceptor molecule, acceptor atom, score
      L1  H    11    27       P1  8028  1.00
      P1  H  7989  7998       L1    19  1.00

> <Gold.PLP.Chemscore.Internal.Correction>
0.0164

> <Gold.Rescore>
     Score         DG    S(hbond)    S(metal)    S(lipo)     H(rot)  DE(clash)    DE(int)     intcor
     17.45     -18.91       1.83        0.00     100.70       1.75       0.33       1.12       ----

> <Gold.Chemscore.Fitness>
17.4541

> <Gold.Chemscore.DG>
-18.9051

> <Gold.Chemscore.ZeroCoef>
-5.4800

> <Gold.Chemscore.Hbond>
1.8326

> <Gold.Chemscore.Metal>
0.0000

> <Gold.Chemscore.Lipo>
100.7030

> <Gold.Chemscore.Internal_Hbond>
0.0000

> <Gold.Chemscore.DEClash>
0.3323

> <Gold.Chemscore.DEInternal>
1.1187

> <Gold.Chemscore.Rot>
1.7493

> <Gold.Chemscore.Internal.Correction>
   9.000000E+99

> <Gold.Chemscore.Hbonds>
donor molecule, donor type, donor heavy atom, donor atom, acceptor molecule, acceptor atom, score
      L1  H    11    27       P1  8028  0.94
      P1  H  7989  7998       L1    19  0.11

> <Gold.Chemscore.Hbond.Weighted>
-6.1210

> <Gold.Chemscore.Metal.Weighted>
-0.0000

> <Gold.Chemscore.Lipo.Weighted>
-11.7823

> <Gold.Chemscore.Internal_Hbond.Weighted>
0.0000

> <Gold.Chemscore.DEClash.Weighted>
0.3323

> <Gold.Chemscore.DEInternal.Weighted>
1.1187

> <Gold.Chemscore.Rot.Weighted>
4.4782

> <Gold.Chemscore.Internal.Correction.Weighted>
   9.000000E+99

> <Gold.Protein.RotatedTorsions>
[ 6907 6896 6895 6894 ] final  -76.85 input  -60.11 | X-H torsion
[ 7974 7965 7964 7962 ] final -172.18 input  175.53 | X-H torsion
[ 8008 7997 7996 7995 ] final  -36.29 input   59.86 | X-H torsion
[ 10167 10162 10161 10158 ] final  -72.32 input  -65.29 | X-H torsion
[ 10718 10713 10712 10709 ] final  120.89 input   66.30 | X-H torsion
[ 10763 10752 10751 10750 ] final -178.54 input  -60.55 | X-H torsion
[ 11005 11000 10999 10996 ] final -163.75 input  -57.11 | X-H torsion

> <Gold.Protein.ActiveResidues>
 VAL166  LYS551  ARG553  GLY616  TRP617  ASP618  TYR619  PRO620  LYS621  CYS622 
 ASP623  PHE694  ASN695  SER759  ASP760  ASP761  ALA762  ILE779  LEU786  VAL792 
 PHE793  MET794  SER795  GLU796  ALA797  LYS798  CYS799  TRP800  GLU811  SER814 

> <Gold.Protein.RotatedAtoms>
  150.7015  134.4510  159.5336 H   0  0  0  0  0  0  0  0  0  0  0  0  # atno 6907 bound_to 6896
  152.2203  134.8416  160.0496 H   0  0  0  0  0  0  0  0  0  0  0  0  # atno 6908 bound_to 6896
  151.9270  133.3565  159.3954 H   0  0  0  0  0  0  0  0  0  0  0  0  # atno 6909 bound_to 6896
  144.7149  140.1811  143.6358 H   0  0  0  0  0  0  0  0  0  0  0  0  # atno 7974 bound_to 7965
  154.4076  140.1634  156.2350 H   0  0  0  0  0  0  0  0  0  0  0  0  # atno 8008 bound_to 7997
  155.9250  140.3418  155.6180 H   0  0  0  0  0  0  0  0  0  0  0  0  # atno 8009 bound_to 7997
  155.7176  140.0764  157.2335 H   0  0  0  0  0  0  0  0  0  0  0  0  # atno 8010 bound_to 7997
  140.5202  143.2333  151.7443 H   0  0  0  0  0  0  0  0  0  0  0  0  # atno 10167 bound_to 10162
  157.5858  131.1070  150.8098 H   0  0  0  0  0  0  0  0  0  0  0  0  # atno 10718 bound_to 10713
  154.5464  135.2809  155.1049 H   0  0  0  0  0  0  0  0  0  0  0  0  # atno 10763 bound_to 10752
  154.2512  135.6339  153.5244 H   0  0  0  0  0  0  0  0  0  0  0  0  # atno 10764 bound_to 10752
  152.9991  135.5583  154.6017 H   0  0  0  0  0  0  0  0  0  0  0  0  # atno 10765 bound_to 10752
  140.5946  134.5010  157.5197 H   0  0  0  0  0  0  0  0  0  0  0  0  # atno 11005 bound_to 11000
  145.8856  139.2347  143.1580 LP  0  0  0  0  0  0  0  0  0  0  0  0  # atno 17320 bound_to 7965
  145.9953  140.8567  143.0046 LP  0  0  0  0  0  0  0  0  0  0  0  0  # atno 17321 bound_to 7965
  139.4921  144.4266  151.9919 LP  0  0  0  0  0  0  0  0  0  0  0  0  # atno 17342 bound_to 10162
  140.3362  144.3258  150.5976 LP  0  0  0  0  0  0  0  0  0  0  0  0  # atno 17343 bound_to 10162
  156.8532  130.5088  149.5310 LP  0  0  0  0  0  0  0  0  0  0  0  0  # atno 17370 bound_to 10713
  156.0907  130.5893  150.9727 LP  0  0  0  0  0  0  0  0  0  0  0  0  # atno 17371 bound_to 10713
  139.9259  134.8057  156.1070 LP  0  0  0  0  0  0  0  0  0  0  0  0  # atno 17394 bound_to 11000
  141.0913  133.6713  156.2546 LP  0  0  0  0  0  0  0  0  0  0  0  0  # atno 17395 bound_to 11000

$$$$
