AV-unprocessed.smi:3078|AV-procd|sdf|11731|dock6
  -GOLD-   2272017123D 1   1.00000     0.00000
 Structure written by MMmdl.
 23 23  0  0  0  0  0  0  0  0  2 V2000
  148.7224  133.1580  153.7405 C   0  0  0  0  0  0  0  0  0  0  0  0
  147.4233  133.0928  153.1060 N   0  0  0  0  0  0  0  0  0  0  0  0
  147.1231  133.0213  151.7629 C   0  0  0  0  0  0  0  0  0  0  0  0
  145.7605  132.9767  151.6469 C   0  0  0  0  0  0  0  0  0  0  0  0
  144.9087  132.9067  150.4069 C   0  0  2  0  0  0  0  0  0  0  0  0
  144.7873  134.2199  149.7989 N   0  0  0  0  0  0  0  0  0  0  0  0
  143.5012  132.3811  150.7419 C   0  0  0  0  0  0  0  0  0  0  0  0
  142.6110  132.4139  149.5686 N   0  3  0  0  0  0  0  0  0  0  0  0
  145.3156  133.0325  152.9992 C   0  0  0  0  0  0  0  0  0  0  0  0
  146.3108  133.0994  153.8678 N   0  0  0  0  0  0  0  0  0  0  0  0
  149.5055  133.2256  152.9849 H   0  0  0  0  0  0  0  0  0  0  0  0
  148.8840  132.2623  154.3406 H   0  0  0  0  0  0  0  0  0  0  0  0
  148.7758  134.0360  154.3852 H   0  0  0  0  0  0  0  0  0  0  0  0
  147.8952  133.0093  151.0074 H   0  0  0  0  0  0  0  0  0  0  0  0
  145.3730  132.2455  149.6738 H   0  0  0  0  0  0  0  0  0  0  0  0
  145.1703  134.9172  150.4222 H   0  0  0  0  0  0  0  0  0  0  0  0
  145.3410  134.2589  148.9546 H   0  0  0  0  0  0  0  0  0  0  0  0
  143.5623  131.3453  151.0780 H   0  0  0  0  0  0  0  0  0  0  0  0
  143.0518  132.9522  151.5558 H   0  0  0  0  0  0  0  0  0  0  0  0
  143.1644  132.3968  148.7241 H   0  0  0  0  0  0  0  0  0  0  0  0
  142.0535  133.2556  149.5911 H   0  0  0  0  0  0  0  0  0  0  0  0
  144.3024  133.0261  153.3731 H   0  0  0  0  0  0  0  0  0  0  0  0
  142.0041  131.6066  149.5913 H   0  0  0  0  0  0  0  0  0  0  0  0
  1  2  1  0  0  0  0
  1 11  1  0  0  0  0
  1 12  1  0  0  0  0
  1 13  1  0  0  0  0
  2 10  1  0  0  0  0
  2  3  1  0  0  0  0
  3  4  2  0  0  0  0
  3 14  1  0  0  0  0
  4  5  1  0  0  0  0
  4  9  1  0  0  0  0
  5  6  1  0  0  0  0
  5  7  1  0  0  0  0
  5 15  1  0  0  0  0
  6 16  1  0  0  0  0
  6 17  1  0  0  0  0
  7  8  1  0  0  0  0
  7 18  1  0  0  0  0
  7 19  1  0  0  0  0
  8 20  1  0  0  0  0
  8 21  1  0  0  0  0
  8 23  1  0  0  0  0
  9 10  2  0  0  0  0
  9 22  1  0  0  0  0
M  CHG  1   8   1
M  END
> <s_m_source_file>
AV-unprocessed.smi

> <i_m_source_file_index>
3078

> <i_lp_mmshare_version>
43012

> <i_f3d_flags>
0

> <s_epik_input>
W0NIM11uMVtjSF1jKFtjSF1uMSlbQ0BIXShbTkgyXSlbQ0gyXVtOSDJd

> <s_epik_cmdline>
J2VwaWtfcHl0aG9uJywgJy1waCcsICc3LjAnLCAnLXRuJywgJzgnLCAnLW1hJywgJzIwMCcsICctbWV0YWxfYmluZGluZycsICctaW1hZScsICc8aW5maWxlLm1hZT4nLCAnLW9tYWUnLCAnPG91dGZpbGUubWFlPic=

> <r_lp_tautomer_probability>
1

> <r_epik_Ionization_Penalty>
0.0498714

> <r_epik_Ionization_Penalty_Charging>
0.00651912

> <r_epik_Ionization_Penalty_Neutral>
0.0433523

> <r_epik_State_Penalty>
0.141593

> <r_epik_Charging_Adjusted_Penalty>
0.148112

> <i_epik_Tot_Q>
1

> <i_epik_Tot_abs_Q>
1

> <r_epik_Metal_State_Penalty>
0.141584

> <b_epik_Metal_Only>
0

> <s_lp_Force_Field>
OPLS_2005

> <r_lp_Energy>
-1.23343

> <b_lp_Chiralities_Consistent>
1

> <s_lp_Variant>
AV-unprocessed.smi:3078-1

> <Gold.Version>
5.8.1

> <Gold.Id.Protein>
6NUR|6NUR_protein|mol2

> <Gold.PLP.Fitness>
36.9981

> <Gold.PLP.PLP>
-20.4998

> <Gold.PLP.part.hbond>
-3.0000

> <Gold.PLP.part.metal>
0.0000

> <Gold.PLP.part.buried>
-3.8794

> <Gold.PLP.part.nonpolar>
-14.7031

> <Gold.PLP.part.repulsive>
0.2199

> <Gold.PLP.ligand.clash>
0.0000

> <Gold.PLP.ligand.torsion>
0.5896

> <Gold.PLP.Chemscore.Hbond>
4.0000

> <Gold.PLP.Chemscore.CHOScore>
1.8917

> <Gold.PLP.Chemscore.Metal>
0.0000

> <Gold.Chemscore.Hbonds>
donor molecule, donor type, donor heavy atom, donor atom, acceptor molecule, acceptor atom, score
      L1  H     6    17       P1  7921  1.00
      L1  H     8    21       P1 10186  2.00
      L1  H     8    23       P1 10952  1.00
      L1  C     3    14       P1 10747  0.84
      L1  C     9    22       P1 10957  1.00

> <Gold.PLP.Chemscore.Internal.Correction>
0.0025

> <Gold.Rescore>
     Score         DG    S(hbond)    S(metal)    S(lipo)     H(rot)  DE(clash)    DE(int)     intcor
     16.40     -16.43       3.00        0.00      38.94       1.41       0.00       0.02       ----

> <Gold.Chemscore.Fitness>
16.4004

> <Gold.Chemscore.DG>
-16.4250

> <Gold.Chemscore.ZeroCoef>
-5.4800

> <Gold.Chemscore.Hbond>
2.9955

> <Gold.Chemscore.Metal>
0.0000

> <Gold.Chemscore.Lipo>
38.9364

> <Gold.Chemscore.Internal_Hbond>
0.0000

> <Gold.Chemscore.DEClash>
0.0009

> <Gold.Chemscore.DEInternal>
0.0237

> <Gold.Chemscore.Rot>
1.4123

> <Gold.Chemscore.Internal.Correction>
   9.000000E+99

> <Gold.Chemscore.Hbonds>
donor molecule, donor type, donor heavy atom, donor atom, acceptor molecule, acceptor atom, score
      L1  H     6    17       P1  7921  0.97
      L1  H     8    21       P1 10186  0.96
      L1  H     8    23       P1 10952  1.00

> <Gold.Chemscore.Hbond.Weighted>
-10.0049

> <Gold.Chemscore.Metal.Weighted>
-0.0000

> <Gold.Chemscore.Lipo.Weighted>
-4.5556

> <Gold.Chemscore.Internal_Hbond.Weighted>
0.0000

> <Gold.Chemscore.DEClash.Weighted>
0.0009

> <Gold.Chemscore.DEInternal.Weighted>
0.0237

> <Gold.Chemscore.Rot.Weighted>
3.6154

> <Gold.Chemscore.Internal.Correction.Weighted>
   9.000000E+99

> <Gold.Protein.RotatedTorsions>
[ 6907 6896 6895 6894 ] final  -58.67 input  -60.11 | X-H torsion
[ 7974 7965 7964 7962 ] final  -24.08 input  175.53 | X-H torsion
[ 8008 7997 7996 7995 ] final   15.30 input   59.86 | X-H torsion
[ 10167 10162 10161 10158 ] final  -17.50 input  -65.29 | X-H torsion
[ 10718 10713 10712 10709 ] final  -87.03 input   66.30 | X-H torsion
[ 10763 10752 10751 10750 ] final  111.85 input  -60.55 | X-H torsion
[ 11005 11000 10999 10996 ] final  179.28 input  -57.11 | X-H torsion

> <Gold.Protein.ActiveResidues>
 VAL166  LYS551  ARG553  GLY616  TRP617  ASP618  TYR619  PRO620  LYS621  CYS622 
 ASP623  PHE694  ASN695  SER759  ASP760  ASP761  ALA762  ILE779  LEU786  VAL792 
 PHE793  MET794  SER795  GLU796  ALA797  LYS798  CYS799  TRP800  GLU811  SER814 

> <Gold.Protein.RotatedAtoms>
  150.7989  134.7068  159.6580 H   0  0  0  0  0  0  0  0  0  0  0  0  # atno 6907 bound_to 6896
  152.4104  134.6131  160.0041 H   0  0  0  0  0  0  0  0  0  0  0  0  # atno 6908 bound_to 6896
  151.6376  133.3291  159.3159 H   0  0  0  0  0  0  0  0  0  0  0  0  # atno 6909 bound_to 6896
  146.1577  140.4703  142.8584 H   0  0  0  0  0  0  0  0  0  0  0  0  # atno 7974 bound_to 7965
  154.8607  140.2944  155.5541 H   0  0  0  0  0  0  0  0  0  0  0  0  # atno 8008 bound_to 7997
  156.3019  140.2478  156.3513 H   0  0  0  0  0  0  0  0  0  0  0  0  # atno 8009 bound_to 7997
  154.8922  140.0394  157.1834 H   0  0  0  0  0  0  0  0  0  0  0  0  # atno 8010 bound_to 7997
  140.7248  143.5009  150.9870 H   0  0  0  0  0  0  0  0  0  0  0  0  # atno 10167 bound_to 10162
  155.9987  130.4785  150.4804 H   0  0  0  0  0  0  0  0  0  0  0  0  # atno 10718 bound_to 10713
  153.4693  135.3704  155.2382 H   0  0  0  0  0  0  0  0  0  0  0  0  # atno 10763 bound_to 10752
  154.8757  135.3927  154.3831 H   0  0  0  0  0  0  0  0  0  0  0  0  # atno 10764 bound_to 10752
  153.4416  135.7084  153.6230 H   0  0  0  0  0  0  0  0  0  0  0  0  # atno 10765 bound_to 10752
  140.4044  134.6748  157.4580 H   0  0  0  0  0  0  0  0  0  0  0  0  # atno 11005 bound_to 11000
  144.7985  140.6168  143.6494 LP  0  0  0  0  0  0  0  0  0  0  0  0  # atno 17320 bound_to 7965
  145.4667  139.1507  143.3836 LP  0  0  0  0  0  0  0  0  0  0  0  0  # atno 17321 bound_to 7965
  139.8719  143.7182  152.3165 LP  0  0  0  0  0  0  0  0  0  0  0  0  # atno 17342 bound_to 10162
  139.7434  144.7553  151.0618 LP  0  0  0  0  0  0  0  0  0  0  0  0  # atno 17343 bound_to 10162
  157.2810  131.0607  151.2197 LP  0  0  0  0  0  0  0  0  0  0  0  0  # atno 17370 bound_to 10713
  157.3244  130.6953  149.6287 LP  0  0  0  0  0  0  0  0  0  0  0  0  # atno 17371 bound_to 10713
  140.0313  134.6403  155.9103 LP  0  0  0  0  0  0  0  0  0  0  0  0  # atno 17394 bound_to 11000
  141.1845  133.6553  156.5158 LP  0  0  0  0  0  0  0  0  0  0  0  0  # atno 17395 bound_to 11000

$$$$
