AV-unprocessed.smi:1964|AV-procd|sdf|7928|dock1
  -GOLD-   2272010 93D 1   1.00000     0.00000
 Structure written by MMmdl.
 46 48  0  0  0  0  0  0  0  0  1 V2000
  152.0104  143.9578  157.8071 C   0  0  0  0  0  0  0  0  0  0  0  0
  151.8842  143.0217  159.0227 C   0  0  2  0  0  0  0  0  0  0  0  0
  152.6482  143.5999  160.2315 C   0  0  0  0  0  0  0  0  0  0  0  0
  152.5305  142.6967  161.4686 C   0  0  0  0  0  0  0  0  0  0  0  0
  153.0142  141.2734  161.1598 C   0  0  0  0  0  0  0  0  0  0  0  0
  152.2529  140.6793  159.9660 C   0  0  0  0  0  0  0  0  0  0  0  0
  152.3603  141.5794  158.7164 C   0  0  1  0  0  0  0  0  0  0  0  0
  151.5783  141.0071  157.6225 N   0  0  0  0  0  0  0  0  0  0  0  0
  151.7732  139.7980  157.0751 C   0  0  0  0  0  0  0  0  0  0  0  0
  152.6472  139.0179  157.4564 O   0  0  0  0  0  0  0  0  0  0  0  0
  150.8285  139.4303  155.9205 C   0  0  0  0  0  0  0  0  0  0  0  0
  149.8960  138.3288  156.2459 N   0  0  0  0  0  0  0  0  0  0  0  0
  149.1330  138.4148  157.4384 C   0  0  0  0  0  0  0  0  0  0  0  0
  149.2210  139.3953  158.1793 O   0  0  0  0  0  0  0  0  0  0  0  0
  148.2694  137.2694  157.7164 C   0  0  0  0  0  0  0  0  0  0  0  0
  147.5081  137.3054  158.9208 C   0  0  0  0  0  0  0  0  0  0  0  0
  146.8855  137.3586  159.8951 N   0  0  0  0  0  0  0  0  0  0  0  0
  148.2061  136.2241  156.8660 C   0  0  0  0  0  0  0  0  0  0  0  0
  148.9279  136.1775  155.6932 N   0  0  0  0  0  0  0  0  0  0  0  0
  148.9692  134.9910  154.8856 C   0  0  0  0  0  0  0  0  0  0  0  0
  148.5607  135.0453  153.4265 C   0  0  0  0  0  0  0  0  0  0  0  0
  147.6684  134.3637  154.4346 C   0  0  0  0  0  0  0  0  0  0  0  0
  149.8356  137.2120  155.3774 C   0  0  0  0  0  0  0  0  0  0  0  0
  150.5626  137.1417  154.3831 O   0  0  0  0  0  0  0  0  0  0  0  0
  153.0446  144.0293  157.4691 H   0  0  0  0  0  0  0  0  0  0  0  0
  151.6713  144.9645  158.0533 H   0  0  0  0  0  0  0  0  0  0  0  0
  151.4087  143.6128  156.9661 H   0  0  0  0  0  0  0  0  0  0  0  0
  150.8276  142.9786  159.2922 H   0  0  0  0  0  0  0  0  0  0  0  0
  153.7010  143.7266  159.9750 H   0  0  0  0  0  0  0  0  0  0  0  0
  152.2690  144.5939  160.4716 H   0  0  0  0  0  0  0  0  0  0  0  0
  153.1105  143.1158  162.2913 H   0  0  0  0  0  0  0  0  0  0  0  0
  151.4931  142.6674  161.8045 H   0  0  0  0  0  0  0  0  0  0  0  0
  154.0826  141.2885  160.9409 H   0  0  0  0  0  0  0  0  0  0  0  0
  152.8864  140.6379  162.0366 H   0  0  0  0  0  0  0  0  0  0  0  0
  152.6426  139.6840  159.7488 H   0  0  0  0  0  0  0  0  0  0  0  0
  151.2043  140.5461  160.2362 H   0  0  0  0  0  0  0  0  0  0  0  0
  153.4080  141.6283  158.4123 H   0  0  0  0  0  0  0  0  0  0  0  0
  150.8377  141.5813  157.2465 H   0  0  0  0  0  0  0  0  0  0  0  0
  150.2837  140.3264  155.6191 H   0  0  0  0  0  0  0  0  0  0  0  0
  151.4333  139.1834  155.0464 H   0  0  0  0  0  0  0  0  0  0  0  0
  147.5610  135.3917  157.1084 H   0  0  0  0  0  0  0  0  0  0  0  0
  149.7704  134.2946  155.1269 H   0  0  0  0  0  0  0  0  0  0  0  0
  148.2159  135.9952  153.0220 H   0  0  0  0  0  0  0  0  0  0  0  0
  149.1084  134.4140  152.7297 H   0  0  0  0  0  0  0  0  0  0  0  0
  147.6186  133.2772  154.4079 H   0  0  0  0  0  0  0  0  0  0  0  0
  146.7389  134.8657  154.6962 H   0  0  0  0  0  0  0  0  0  0  0  0
  1  2  1  0  0  0  0
  1 25  1  0  0  0  0
  1 26  1  0  0  0  0
  1 27  1  0  0  0  0
  2  7  1  0  0  0  0
  2  3  1  0  0  0  0
  2 28  1  0  0  0  0
  3  4  1  0  0  0  0
  3 29  1  0  0  0  0
  3 30  1  0  0  0  0
  4  5  1  0  0  0  0
  4 31  1  0  0  0  0
  4 32  1  0  0  0  0
  5  6  1  0  0  0  0
  5 33  1  0  0  0  0
  5 34  1  0  0  0  0
  6  7  1  0  0  0  0
  6 35  1  0  0  0  0
  6 36  1  0  0  0  0
  7  8  1  0  0  0  0
  7 37  1  0  0  0  0
  8  9  1  0  0  0  0
  8 38  1  0  0  0  0
  9 10  2  0  0  0  0
  9 11  1  0  0  0  0
 11 12  1  0  0  0  0
 11 39  1  0  0  0  0
 11 40  1  0  0  0  0
 12 23  1  0  0  0  0
 12 13  1  0  0  0  0
 13 14  2  0  0  0  0
 13 15  1  0  0  0  0
 15 16  1  0  0  0  0
 15 18  2  0  0  0  0
 16 17  3  0  0  0  0
 18 19  1  0  0  0  0
 18 41  1  0  0  0  0
 19 20  1  0  0  0  0
 19 23  1  0  0  0  0
 20 22  1  0  0  0  0
 20 21  1  0  0  0  0
 20 42  1  0  0  0  0
 21 22  1  0  0  0  0
 21 43  1  0  0  0  0
 21 44  1  0  0  0  0
 22 45  1  0  0  0  0
 22 46  1  0  0  0  0
 23 24  2  0  0  0  0
M  END
> <s_m_source_file>
AV-unprocessed.smi

> <i_m_source_file_index>
1964

> <i_lp_mmshare_version>
43012

> <i_f3d_flags>
0

> <s_epik_input>
W0NIM11bQ0BASF0xW0NIMl1bQ0gyXVtDSDJdW0NIMl1bQ0BIXTFbTkhdQyg9TylbQ0gyXW4yYyg9TyljKEMjTilbY0hdbihjMj1PKVtDSF0zW0NIMl1bQ0gyXTM=

> <s_epik_cmdline>
J2VwaWtfcHl0aG9uJywgJy1waCcsICc3LjAnLCAnLXRuJywgJzgnLCAnLW1hJywgJzIwMCcsICctbWV0YWxfYmluZGluZycsICctaW1hZScsICc8aW5maWxlLm1hZT4nLCAnLW9tYWUnLCAnPG91dGZpbGUubWFlPic=

> <r_lp_tautomer_probability>
1

> <r_epik_Ionization_Penalty>
1.91372e-08

> <r_epik_Ionization_Penalty_Charging>
9.0283e-11

> <r_epik_Ionization_Penalty_Neutral>
1.90469e-08

> <r_epik_State_Penalty>
-0

> <r_epik_Charging_Adjusted_Penalty>
9.0283e-11

> <i_epik_Tot_Q>
0

> <i_epik_Tot_abs_Q>
0

> <r_epik_Metal_State_Penalty>
-0

> <b_epik_Metal_Only>
0

> <s_lp_Force_Field>
OPLS_2005

> <r_lp_Energy>
35.656

> <b_lp_Chiralities_Consistent>
1

> <s_lp_Variant>
AV-unprocessed.smi:1964-1

> <Gold.Version>
5.8.1

> <Gold.Id.Protein>
6NUR|6NUR_protein|mol2

> <Gold.PLP.Fitness>
52.8577

> <Gold.PLP.PLP>
-42.4052

> <Gold.PLP.part.hbond>
-4.0000

> <Gold.PLP.part.metal>
0.0000

> <Gold.PLP.part.buried>
-3.5673

> <Gold.PLP.part.nonpolar>
-33.8458

> <Gold.PLP.part.repulsive>
0.1782

> <Gold.PLP.ligand.clash>
0.0000

> <Gold.PLP.ligand.torsion>
0.2867

> <Gold.PLP.Chemscore.Hbond>
3.6000

> <Gold.PLP.Chemscore.CHOScore>
0.0000

> <Gold.PLP.Chemscore.Metal>
0.0000

> <Gold.Chemscore.Hbonds>
donor molecule, donor type, donor heavy atom, donor atom, acceptor molecule, acceptor atom, score
      P1  H  6934  6947       L1    17  1.00
      P1  H  7997  8009       L1    10  0.63

> <Gold.PLP.Chemscore.Internal.Correction>
0.2261

> <Gold.Rescore>
     Score         DG    S(hbond)    S(metal)    S(lipo)     H(rot)  DE(clash)    DE(int)     intcor
     21.78     -22.33       2.67        0.00     105.06       1.70       0.07       0.48       ----

> <Gold.Chemscore.Fitness>
21.7827

> <Gold.Chemscore.DG>
-22.3339

> <Gold.Chemscore.ZeroCoef>
-5.4800

> <Gold.Chemscore.Hbond>
2.6716

> <Gold.Chemscore.Metal>
0.0000

> <Gold.Chemscore.Lipo>
105.0646

> <Gold.Chemscore.Internal_Hbond>
0.0000

> <Gold.Chemscore.DEClash>
0.0724

> <Gold.Chemscore.DEInternal>
0.4789

> <Gold.Chemscore.Rot>
1.7038

> <Gold.Chemscore.Internal.Correction>
   9.000000E+99

> <Gold.Chemscore.Hbonds>
donor molecule, donor type, donor heavy atom, donor atom, acceptor molecule, acceptor atom, score
      P1  H  6934  6947       L1    17  0.83
      P1  H  7997  8009       L1    10  0.22

> <Gold.Chemscore.Hbond.Weighted>
-8.9231

> <Gold.Chemscore.Metal.Weighted>
-0.0000

> <Gold.Chemscore.Lipo.Weighted>
-12.2926

> <Gold.Chemscore.Internal_Hbond.Weighted>
0.0000

> <Gold.Chemscore.DEClash.Weighted>
0.0724

> <Gold.Chemscore.DEInternal.Weighted>
0.4789

> <Gold.Chemscore.Rot.Weighted>
4.3618

> <Gold.Chemscore.Internal.Correction.Weighted>
   9.000000E+99

> <Gold.Protein.RotatedTorsions>
[ 6907 6896 6895 6894 ] final  -40.75 input  -60.11 | X-H torsion
[ 7974 7965 7964 7962 ] final   54.82 input  175.53 | X-H torsion
[ 8008 7997 7996 7995 ] final  165.60 input   59.86 | X-H torsion
[ 10167 10162 10161 10158 ] final  -76.13 input  -65.29 | X-H torsion
[ 10718 10713 10712 10709 ] final   28.58 input   66.30 | X-H torsion
[ 10763 10752 10751 10750 ] final -167.27 input  -60.55 | X-H torsion
[ 11005 11000 10999 10996 ] final   63.98 input  -57.11 | X-H torsion

> <Gold.Protein.ActiveResidues>
 VAL166  LYS551  ARG553  GLY616  TRP617  ASP618  TYR619  PRO620  LYS621  CYS622 
 ASP623  PHE694  ASN695  SER759  ASP760  ASP761  ALA762  ILE779  LEU786  VAL792 
 PHE793  MET794  SER795  GLU796  ALA797  LYS798  CYS799  TRP800  GLU811  SER814 

> <Gold.Protein.RotatedAtoms>
  150.9747  134.9114  159.7808 H   0  0  0  0  0  0  0  0  0  0  0  0  # atno 6907 bound_to 6896
  152.5202  134.3492  159.9255 H   0  0  0  0  0  0  0  0  0  0  0  0  # atno 6908 bound_to 6896
  151.3500  133.3888  159.2714 H   0  0  0  0  0  0  0  0  0  0  0  0  # atno 6909 bound_to 6896
  145.9569  139.4023  143.0272 H   0  0  0  0  0  0  0  0  0  0  0  0  # atno 7974 bound_to 7965
  156.1787  140.1666  156.8314 H   0  0  0  0  0  0  0  0  0  0  0  0  # atno 8008 bound_to 7997
  154.5336  140.0751  156.8421 H   0  0  0  0  0  0  0  0  0  0  0  0  # atno 8009 bound_to 7997
  155.3357  140.3381  155.4241 H   0  0  0  0  0  0  0  0  0  0  0  0  # atno 8010 bound_to 7997
  140.4883  143.2386  151.7947 H   0  0  0  0  0  0  0  0  0  0  0  0  # atno 10167 bound_to 10162
  157.2353  130.7043  149.6332 H   0  0  0  0  0  0  0  0  0  0  0  0  # atno 10718 bound_to 10713
  154.6749  135.2945  154.9692 H   0  0  0  0  0  0  0  0  0  0  0  0  # atno 10763 bound_to 10752
  154.0707  135.6618  153.4828 H   0  0  0  0  0  0  0  0  0  0  0  0  # atno 10764 bound_to 10752
  153.0510  135.5174  154.7763 H   0  0  0  0  0  0  0  0  0  0  0  0  # atno 10765 bound_to 10752
  139.9988  134.6474  155.9964 H   0  0  0  0  0  0  0  0  0  0  0  0  # atno 11005 bound_to 11000
  145.8094  140.9733  143.0957 LP  0  0  0  0  0  0  0  0  0  0  0  0  # atno 17320 bound_to 7965
  144.6807  139.9902  143.7484 LP  0  0  0  0  0  0  0  0  0  0  0  0  # atno 17321 bound_to 7965
  139.4846  144.4682  151.9458 LP  0  0  0  0  0  0  0  0  0  0  0  0  # atno 17342 bound_to 10162
  140.3768  144.2786  150.5913 LP  0  0  0  0  0  0  0  0  0  0  0  0  # atno 17343 bound_to 10162
  155.9673  130.4476  150.5585 LP  0  0  0  0  0  0  0  0  0  0  0  0  # atno 17370 bound_to 10713
  157.3436  131.0721  151.1769 LP  0  0  0  0  0  0  0  0  0  0  0  0  # atno 17371 bound_to 10713
  141.1626  133.6538  156.4370 LP  0  0  0  0  0  0  0  0  0  0  0  0  # atno 17394 bound_to 11000
  140.4766  134.6703  157.5153 LP  0  0  0  0  0  0  0  0  0  0  0  0  # atno 17395 bound_to 11000

$$$$
