AV-unprocessed.smi:3198|AV-procd|sdf|12229|dock9
  -GOLD-   2272018 63D 1   1.00000     0.00000
 Structure written by MMmdl.
 37 38  0  0  0  0  0  0  0  0  1 V2000
  151.9283  144.5767  158.1315 C   0  0  0  0  0  0  0  0  0  0  0  0
  152.3312  143.8731  159.4104 C   0  0  0  0  0  0  0  0  0  0  0  0
  151.8884  144.3390  160.6653 C   0  0  0  0  0  0  0  0  0  0  0  0
  152.2976  143.6419  161.8176 C   0  0  0  0  0  0  0  0  0  0  0  0
  153.1303  142.5155  161.6712 C   0  0  0  0  0  0  0  0  0  0  0  0
  153.5262  142.1257  160.3742 C   0  0  0  0  0  0  0  0  0  0  0  0
  154.3564  141.0037  160.2354 N   0  0  0  0  0  0  0  0  0  0  0  0
  153.8545  139.6502  160.4426 C   0  0  0  0  0  0  0  0  0  0  0  0
  152.5760  139.3691  159.6404 C   0  0  0  0  0  0  0  0  0  0  0  0
  152.8042  139.6868  158.2773 O   0  0  0  0  0  0  0  0  0  0  0  0
  151.7220  140.3892  157.6900 C   0  0  0  0  0  0  0  0  0  0  0  0
  151.4400  139.7987  156.3032 C   0  0  2  0  0  0  0  0  0  0  0  0
  150.4117  138.6694  156.3117 C   0  0  0  0  0  0  0  0  0  0  0  0
  150.7565  137.8667  155.0669 C   0  0  0  0  0  0  0  0  0  0  0  0
  152.1703  138.3313  154.7041 C   0  0  0  0  0  0  0  0  0  0  0  0
  152.5893  139.1412  155.7938 O   0  0  0  0  0  0  0  0  0  0  0  0
  153.1295  142.7932  159.2642 N   0  0  0  0  0  0  0  0  0  0  0  0
  151.2034  145.3676  158.3261 H   0  0  0  0  0  0  0  0  0  0  0  0
  151.4792  143.8693  157.4336 H   0  0  0  0  0  0  0  0  0  0  0  0
  152.8015  145.0232  157.6549 H   0  0  0  0  0  0  0  0  0  0  0  0
  151.2510  145.2072  160.7459 H   0  0  0  0  0  0  0  0  0  0  0  0
  151.9787  143.9655  162.7974 H   0  0  0  0  0  0  0  0  0  0  0  0
  153.4578  141.9651  162.5411 H   0  0  0  0  0  0  0  0  0  0  0  0
  155.2663  141.1148  159.8120 H   0  0  0  0  0  0  0  0  0  0  0  0
  154.6328  138.9430  160.1553 H   0  0  0  0  0  0  0  0  0  0  0  0
  153.6738  139.4861  161.5055 H   0  0  0  0  0  0  0  0  0  0  0  0
  152.3236  138.3111  159.7254 H   0  0  0  0  0  0  0  0  0  0  0  0
  151.7316  139.9359  160.0357 H   0  0  0  0  0  0  0  0  0  0  0  0
  150.8323  140.3338  158.3194 H   0  0  0  0  0  0  0  0  0  0  0  0
  151.9915  141.4420  157.5916 H   0  0  0  0  0  0  0  0  0  0  0  0
  151.1261  140.5800  155.6083 H   0  0  0  0  0  0  0  0  0  0  0  0
  150.5462  138.0448  157.1961 H   0  0  0  0  0  0  0  0  0  0  0  0
  149.3843  139.0344  156.3114 H   0  0  0  0  0  0  0  0  0  0  0  0
  150.7192  136.7956  155.2688 H   0  0  0  0  0  0  0  0  0  0  0  0
  150.0639  138.0795  154.2519 H   0  0  0  0  0  0  0  0  0  0  0  0
  152.8579  137.4998  154.5482 H   0  0  0  0  0  0  0  0  0  0  0  0
  152.1531  138.9342  153.7949 H   0  0  0  0  0  0  0  0  0  0  0  0
  1  2  1  0  0  0  0
  1 18  1  0  0  0  0
  1 19  1  0  0  0  0
  1 20  1  0  0  0  0
  2 17  1  0  0  0  0
  2  3  2  0  0  0  0
  3  4  1  0  0  0  0
  3 21  1  0  0  0  0
  4  5  2  0  0  0  0
  4 22  1  0  0  0  0
  5  6  1  0  0  0  0
  5 23  1  0  0  0  0
  6  7  1  0  0  0  0
  6 17  2  0  0  0  0
  7  8  1  0  0  0  0
  7 24  1  0  0  0  0
  8  9  1  0  0  0  0
  8 25  1  0  0  0  0
  8 26  1  0  0  0  0
  9 10  1  0  0  0  0
  9 27  1  0  0  0  0
  9 28  1  0  0  0  0
 10 11  1  0  0  0  0
 11 12  1  0  0  0  0
 11 29  1  0  0  0  0
 11 30  1  0  0  0  0
 12 16  1  0  0  0  0
 12 13  1  0  0  0  0
 12 31  1  0  0  0  0
 13 14  1  0  0  0  0
 13 32  1  0  0  0  0
 13 33  1  0  0  0  0
 14 15  1  0  0  0  0
 14 34  1  0  0  0  0
 14 35  1  0  0  0  0
 15 16  1  0  0  0  0
 15 36  1  0  0  0  0
 15 37  1  0  0  0  0
M  END
> <s_m_source_file>
AV-unprocessed.smi

> <i_m_source_file_index>
3198

> <i_lp_mmshare_version>
43012

> <i_f3d_flags>
0

> <s_epik_input>
W0NIM11jMVtjSF1bY0hdW2NIXWMobjEpW05IXVtDSDJdW0NIMl1PW0NIMl1bQ0BASF0yW0NIMl1bQ0gyXVtDSDJdTzI=

> <s_epik_cmdline>
J2VwaWtfcHl0aG9uJywgJy1waCcsICc3LjAnLCAnLXRuJywgJzgnLCAnLW1hJywgJzIwMCcsICctbWV0YWxfYmluZGluZycsICctaW1hZScsICc8aW5maWxlLm1hZT4nLCAnLW9tYWUnLCAnPG91dGZpbGUubWFlPic=

> <r_lp_tautomer_probability>
1

> <r_epik_Ionization_Penalty>
1.29225

> <r_epik_Ionization_Penalty_Charging>
0

> <r_epik_Ionization_Penalty_Neutral>
1.29225

> <r_epik_State_Penalty>
1.3654

> <r_epik_Charging_Adjusted_Penalty>
1.3654

> <i_epik_Tot_Q>
0

> <i_epik_Tot_abs_Q>
0

> <r_epik_Metal_State_Penalty>
0.00531989

> <b_epik_Metal_Only>
0

> <s_lp_Force_Field>
OPLS_2005

> <r_lp_Energy>
18.1736

> <b_lp_Chiralities_Consistent>
1

> <s_lp_Variant>
AV-unprocessed.smi:3198-3

> <Gold.Version>
5.8.1

> <Gold.Id.Protein>
6NUR|6NUR_protein|mol2

> <Gold.PLP.Fitness>
44.9279

> <Gold.PLP.PLP>
-44.7449

> <Gold.PLP.part.hbond>
-2.0000

> <Gold.PLP.part.metal>
0.0000

> <Gold.PLP.part.buried>
-6.4191

> <Gold.PLP.part.nonpolar>
-36.0191

> <Gold.PLP.part.repulsive>
0.0562

> <Gold.PLP.ligand.clash>
0.0000

> <Gold.PLP.ligand.torsion>
1.8058

> <Gold.PLP.Chemscore.Hbond>
1.2480

> <Gold.PLP.Chemscore.CHOScore>
0.0000

> <Gold.PLP.Chemscore.Metal>
0.0000

> <Gold.Chemscore.Hbonds>
donor molecule, donor type, donor heavy atom, donor atom, acceptor molecule, acceptor atom, score
      P1  H  7997  8008       L1    10  0.20

> <Gold.PLP.Chemscore.Internal.Correction>
0.0506

> <Gold.Rescore>
     Score         DG    S(hbond)    S(metal)    S(lipo)     H(rot)  DE(clash)    DE(int)     intcor
     17.23     -18.94       1.36        0.00     111.89       1.63       0.10       1.62       ----

> <Gold.Chemscore.Fitness>
17.2252

> <Gold.Chemscore.DG>
-18.9359

> <Gold.Chemscore.ZeroCoef>
-5.4800

> <Gold.Chemscore.Hbond>
1.3594

> <Gold.Chemscore.Metal>
0.0000

> <Gold.Chemscore.Lipo>
111.8902

> <Gold.Chemscore.Internal_Hbond>
0.0000

> <Gold.Chemscore.DEClash>
0.0956

> <Gold.Chemscore.DEInternal>
1.6150

> <Gold.Chemscore.Rot>
1.6311

> <Gold.Chemscore.Internal.Correction>
   9.000000E+99

> <Gold.Chemscore.Hbonds>
donor molecule, donor type, donor heavy atom, donor atom, acceptor molecule, acceptor atom, score
      P1  H  7997  8008       L1    10  0.18
      P1  H  7997  8009       L1    16  0.02

> <Gold.Chemscore.Hbond.Weighted>
-4.5404

> <Gold.Chemscore.Metal.Weighted>
-0.0000

> <Gold.Chemscore.Lipo.Weighted>
-13.0912

> <Gold.Chemscore.Internal_Hbond.Weighted>
0.0000

> <Gold.Chemscore.DEClash.Weighted>
0.0956

> <Gold.Chemscore.DEInternal.Weighted>
1.6150

> <Gold.Chemscore.Rot.Weighted>
4.1757

> <Gold.Chemscore.Internal.Correction.Weighted>
   9.000000E+99

> <Gold.Protein.RotatedTorsions>
[ 6907 6896 6895 6894 ] final   27.71 input  -60.11 | X-H torsion
[ 7974 7965 7964 7962 ] final   34.89 input  175.53 | X-H torsion
[ 8008 7997 7996 7995 ] final -106.81 input   59.86 | X-H torsion
[ 10167 10162 10161 10158 ] final  149.33 input  -65.29 | X-H torsion
[ 10718 10713 10712 10709 ] final -125.22 input   66.30 | X-H torsion
[ 10763 10752 10751 10750 ] final   82.19 input  -60.55 | X-H torsion
[ 11005 11000 10999 10996 ] final   79.73 input  -57.11 | X-H torsion

> <Gold.Protein.ActiveResidues>
 VAL166  LYS551  ARG553  GLY616  TRP617  ASP618  TYR619  PRO620  LYS621  CYS622 
 ASP623  PHE694  ASN695  SER759  ASP760  ASP761  ALA762  ILE779  LEU786  VAL792 
 PHE793  MET794  SER795  GLU796  ALA797  LYS798  CYS799  TRP800  GLU811  SER814 

> <Gold.Protein.RotatedAtoms>
  152.0063  134.9901  160.0566 H   0  0  0  0  0  0  0  0  0  0  0  0  # atno 6907 bound_to 6896
  152.1471  133.4494  159.4803 H   0  0  0  0  0  0  0  0  0  0  0  0  # atno 6908 bound_to 6896
  150.6871  134.2152  159.4418 H   0  0  0  0  0  0  0  0  0  0  0  0  # atno 6909 bound_to 6896
  146.1321  139.6211  142.9220 H   0  0  0  0  0  0  0  0  0  0  0  0  # atno 7974 bound_to 7965
  154.9201  140.0407  157.1993 H   0  0  0  0  0  0  0  0  0  0  0  0  # atno 8008 bound_to 7997
  154.8262  140.2892  155.5731 H   0  0  0  0  0  0  0  0  0  0  0  0  # atno 8009 bound_to 7997
  156.2983  140.2509  156.3179 H   0  0  0  0  0  0  0  0  0  0  0  0  # atno 8010 bound_to 7997
  139.4863  144.5610  151.7231 H   0  0  0  0  0  0  0  0  0  0  0  0  # atno 10167 bound_to 10162
  156.1656  130.6632  151.0110 H   0  0  0  0  0  0  0  0  0  0  0  0  # atno 10718 bound_to 10713
  153.1181  135.4737  154.9150 H   0  0  0  0  0  0  0  0  0  0  0  0  # atno 10763 bound_to 10752
  154.7549  135.3115  154.8492 H   0  0  0  0  0  0  0  0  0  0  0  0  # atno 10764 bound_to 10752
  153.9063  135.6870  153.4806 H   0  0  0  0  0  0  0  0  0  0  0  0  # atno 10765 bound_to 10752
  139.9161  134.7865  156.1816 H   0  0  0  0  0  0  0  0  0  0  0  0  # atno 11005 bound_to 11000
  145.5237  141.0430  143.2421 LP  0  0  0  0  0  0  0  0  0  0  0  0  # atno 17320 bound_to 7965
  144.7701  139.6754  143.7198 LP  0  0  0  0  0  0  0  0  0  0  0  0  # atno 17321 bound_to 7965
  140.5180  144.0923  150.6014 LP  0  0  0  0  0  0  0  0  0  0  0  0  # atno 17342 bound_to 10162
  140.3872  143.2771  152.0103 LP  0  0  0  0  0  0  0  0  0  0  0  0  # atno 17343 bound_to 10162
  157.6765  131.0849  150.7480 LP  0  0  0  0  0  0  0  0  0  0  0  0  # atno 17370 bound_to 10713
  156.7541  130.4778  149.5450 LP  0  0  0  0  0  0  0  0  0  0  0  0  # atno 17371 bound_to 10713
  141.0639  133.6829  156.2005 LP  0  0  0  0  0  0  0  0  0  0  0  0  # atno 17394 bound_to 11000
  140.6617  134.4960  157.5583 LP  0  0  0  0  0  0  0  0  0  0  0  0  # atno 17395 bound_to 11000

$$$$
