AV-unprocessed.smi:3331|AV-procd|sdf|12817|dock3
  -GOLD-   2272019193D 1   1.00000     0.00000
 Structure written by MMmdl.
 47 48  0  0  0  0  0  0  0  0  2 V2000
  150.4832  143.3371  158.4700 C   0  0  0  0  0  0  0  0  0  0  0  0
  150.6268  141.9330  157.8667 C   0  0  2  0  0  0  0  0  0  0  0  0
  151.7572  141.1352  158.5563 C   0  0  0  0  0  0  0  0  0  0  0  0
  152.0273  139.7690  157.8863 C   0  0  1  0  0  0  0  0  0  0  0  0
  150.9672  138.7174  158.2604 C   0  0  0  0  0  0  0  0  0  0  0  0
  152.1763  139.9537  156.3601 C   0  0  0  0  0  0  0  0  0  0  0  0
  150.9818  140.6223  155.8231 N   0  0  0  0  0  0  0  0  0  0  0  0
  150.0309  140.0611  155.0331 C   0  0  0  0  0  0  0  0  0  0  0  0
  150.0938  138.8830  154.6762 O   0  0  0  0  0  0  0  0  0  0  0  0
  148.8282  140.8994  154.5548 C   0  0  2  0  0  0  0  0  0  0  0  0
  147.7012  140.8711  155.6040 C   0  0  0  0  0  0  0  0  0  0  0  0
  148.3454  140.4034  153.2457 N   0  3  0  0  0  0  0  0  0  0  0  0
  147.3365  139.3237  153.3007 C   0  0  0  0  0  0  0  0  0  0  0  0
  146.5933  139.1856  151.9627 C   0  0  0  0  0  0  0  0  0  0  0  0
  146.0259  137.8600  151.7885 N   0  0  0  0  0  0  0  0  0  0  0  0
  145.0850  137.2208  152.5682 C   0  0  0  0  0  0  0  0  0  0  0  0
  144.8536  135.9986  152.0051 C   0  0  0  0  0  0  0  0  0  0  0  0
  145.7118  135.9803  150.8703 C   0  0  0  0  0  0  0  0  0  0  0  0
  146.4104  137.0970  150.7421 N   0  0  0  0  0  0  0  0  0  0  0  0
  150.8657  141.9918  156.3431 C   0  0  0  0  0  0  0  0  0  0  0  0
  151.3908  143.9247  158.3285 H   0  0  0  0  0  0  0  0  0  0  0  0
  150.2830  143.2855  159.5405 H   0  0  0  0  0  0  0  0  0  0  0  0
  149.6593  143.8811  158.0071 H   0  0  0  0  0  0  0  0  0  0  0  0
  149.6857  141.4087  158.0394 H   0  0  0  0  0  0  0  0  0  0  0  0
  152.6744  141.7247  158.5156 H   0  0  0  0  0  0  0  0  0  0  0  0
  151.5356  141.0005  159.6159 H   0  0  0  0  0  0  0  0  0  0  0  0
  152.9795  139.3994  158.2688 H   0  0  0  0  0  0  0  0  0  0  0  0
  149.9720  138.9974  157.9151 H   0  0  0  0  0  0  0  0  0  0  0  0
  150.9143  138.5846  159.3411 H   0  0  0  0  0  0  0  0  0  0  0  0
  151.2088  137.7478  157.8248 H   0  0  0  0  0  0  0  0  0  0  0  0
  153.0445  140.5828  156.1566 H   0  0  0  0  0  0  0  0  0  0  0  0
  152.4113  139.0057  155.8806 H   0  0  0  0  0  0  0  0  0  0  0  0
  149.1559  141.9235  154.3858 H   0  0  0  0  0  0  0  0  0  0  0  0
  148.0551  141.1929  156.5840 H   0  0  0  0  0  0  0  0  0  0  0  0
  147.2901  139.8671  155.7177 H   0  0  0  0  0  0  0  0  0  0  0  0
  146.8820  141.5351  155.3285 H   0  0  0  0  0  0  0  0  0  0  0  0
  147.9144  141.1855  152.7723 H   0  0  0  0  0  0  0  0  0  0  0  0
  147.8301  138.3828  153.5437 H   0  0  0  0  0  0  0  0  0  0  0  0
  146.6189  139.5240  154.0978 H   0  0  0  0  0  0  0  0  0  0  0  0
  145.7991  139.9295  151.8808 H   0  0  0  0  0  0  0  0  0  0  0  0
  147.2810  139.3714  151.1370 H   0  0  0  0  0  0  0  0  0  0  0  0
  144.6618  137.6838  153.4475 H   0  0  0  0  0  0  0  0  0  0  0  0
  144.1751  135.2330  152.3516 H   0  0  0  0  0  0  0  0  0  0  0  0
  145.8456  135.1953  150.1404 H   0  0  0  0  0  0  0  0  0  0  0  0
  150.0657  142.5588  155.8652 H   0  0  0  0  0  0  0  0  0  0  0  0
  151.7825  142.5413  156.1249 H   0  0  0  0  0  0  0  0  0  0  0  0
  149.1358  140.1024  152.6934 H   0  0  0  0  0  0  0  0  0  0  0  0
  1  2  1  0  0  0  0
  1 21  1  0  0  0  0
  1 22  1  0  0  0  0
  1 23  1  0  0  0  0
  2 20  1  0  0  0  0
  2  3  1  0  0  0  0
  2 24  1  0  0  0  0
  3  4  1  0  0  0  0
  3 25  1  0  0  0  0
  3 26  1  0  0  0  0
  4  5  1  0  0  0  0
  4  6  1  0  0  0  0
  4 27  1  0  0  0  0
  5 28  1  0  0  0  0
  5 29  1  0  0  0  0
  5 30  1  0  0  0  0
  6  7  1  0  0  0  0
  6 31  1  0  0  0  0
  6 32  1  0  0  0  0
  7  8  1  0  0  0  0
  7 20  1  0  0  0  0
  8  9  2  0  0  0  0
  8 10  1  0  0  0  0
 10 11  1  0  0  0  0
 10 12  1  0  0  0  0
 10 33  1  0  0  0  0
 11 34  1  0  0  0  0
 11 35  1  0  0  0  0
 11 36  1  0  0  0  0
 12 13  1  0  0  0  0
 12 37  1  0  0  0  0
 12 47  1  0  0  0  0
 13 14  1  0  0  0  0
 13 38  1  0  0  0  0
 13 39  1  0  0  0  0
 14 15  1  0  0  0  0
 14 40  1  0  0  0  0
 14 41  1  0  0  0  0
 15 19  1  0  0  0  0
 15 16  1  0  0  0  0
 16 17  2  0  0  0  0
 16 42  1  0  0  0  0
 17 18  1  0  0  0  0
 17 43  1  0  0  0  0
 18 19  2  0  0  0  0
 18 44  1  0  0  0  0
 20 45  1  0  0  0  0
 20 46  1  0  0  0  0
M  CHG  1  12   1
M  END
> <s_m_source_file>
AV-unprocessed.smi

> <i_m_source_file_index>
3331

> <i_lp_mmshare_version>
43012

> <i_f3d_flags>
0

> <s_epik_input>
W0NIM11bQ0BASF0xW0NIMl1bQ0BASF0oW0NIM10pW0NIMl1OKFtDSDJdMSlDKD1PKVtDQEhdKFtDSDNdKVtOSF1bQ0gyXVtDSDJdbjJbY0hdW2NIXVtjSF1uMg==

> <s_epik_cmdline>
J2VwaWtfcHl0aG9uJywgJy1waCcsICc3LjAnLCAnLXRuJywgJzgnLCAnLW1hJywgJzIwMCcsICctbWV0YWxfYmluZGluZycsICctaW1hZScsICc8aW5maWxlLm1hZT4nLCAnLW9tYWUnLCAnPG91dGZpbGUubWFlPic=

> <r_lp_tautomer_probability>
1

> <r_epik_Ionization_Penalty>
0.189706

> <r_epik_Ionization_Penalty_Charging>
0.189703

> <r_epik_Ionization_Penalty_Neutral>
2.45875e-06

> <r_epik_State_Penalty>
0.179341

> <r_epik_Charging_Adjusted_Penalty>
0.369044

> <i_epik_Tot_Q>
1

> <i_epik_Tot_abs_Q>
1

> <r_epik_Metal_State_Penalty>
0.179578

> <b_epik_Metal_Only>
0

> <s_lp_Force_Field>
OPLS_2005

> <r_lp_Energy>
28.246

> <b_lp_Chiralities_Consistent>
1

> <s_lp_Variant>
AV-unprocessed.smi:3331-1

> <Gold.Version>
5.8.1

> <Gold.Id.Protein>
6NUR|6NUR_protein|mol2

> <Gold.PLP.Fitness>
40.8190

> <Gold.PLP.PLP>
-34.8894

> <Gold.PLP.part.hbond>
-1.7111

> <Gold.PLP.part.metal>
0.0000

> <Gold.PLP.part.buried>
-0.2034

> <Gold.PLP.part.nonpolar>
-35.8296

> <Gold.PLP.part.repulsive>
2.6265

> <Gold.PLP.ligand.clash>
0.0000

> <Gold.PLP.ligand.torsion>
1.2531

> <Gold.PLP.Chemscore.Hbond>
1.7920

> <Gold.PLP.Chemscore.CHOScore>
1.0000

> <Gold.PLP.Chemscore.Metal>
0.0000

> <Gold.Chemscore.Hbonds>
donor molecule, donor type, donor heavy atom, donor atom, acceptor molecule, acceptor atom, score
      L1  H    12    47       P1  7957  0.78
      P1  H  7954  7966       L1    19  0.85
      L1  C    18    44       P1  7921  0.97

> <Gold.PLP.Chemscore.Internal.Correction>
0.0598

> <Gold.Rescore>
     Score         DG    S(hbond)    S(metal)    S(lipo)     H(rot)  DE(clash)    DE(int)     intcor
     13.35     -16.70       1.62        0.00      87.29       1.73       2.04       1.31       ----

> <Gold.Chemscore.Fitness>
13.3510

> <Gold.Chemscore.DG>
-16.6980

> <Gold.Chemscore.ZeroCoef>
-5.4800

> <Gold.Chemscore.Hbond>
1.6235

> <Gold.Chemscore.Metal>
0.0000

> <Gold.Chemscore.Lipo>
87.2860

> <Gold.Chemscore.Internal_Hbond>
0.0000

> <Gold.Chemscore.DEClash>
2.0371

> <Gold.Chemscore.DEInternal>
1.3099

> <Gold.Chemscore.Rot>
1.7254

> <Gold.Chemscore.Internal.Correction>
   9.000000E+99

> <Gold.Chemscore.Hbonds>
donor molecule, donor type, donor heavy atom, donor atom, acceptor molecule, acceptor atom, score
      L1  H    12    47       P1  7957  0.78
      P1  H  7954  7966       L1    19  0.61

> <Gold.Chemscore.Hbond.Weighted>
-5.4226

> <Gold.Chemscore.Metal.Weighted>
-0.0000

> <Gold.Chemscore.Lipo.Weighted>
-10.2125

> <Gold.Chemscore.Internal_Hbond.Weighted>
0.0000

> <Gold.Chemscore.DEClash.Weighted>
2.0371

> <Gold.Chemscore.DEInternal.Weighted>
1.3099

> <Gold.Chemscore.Rot.Weighted>
4.4170

> <Gold.Chemscore.Internal.Correction.Weighted>
   9.000000E+99

> <Gold.Protein.RotatedTorsions>
[ 6907 6896 6895 6894 ] final   13.30 input  -60.11 | X-H torsion
[ 7974 7965 7964 7962 ] final -139.30 input  175.53 | X-H torsion
[ 8008 7997 7996 7995 ] final  -67.08 input   59.86 | X-H torsion
[ 10167 10162 10161 10158 ] final -173.61 input  -65.29 | X-H torsion
[ 10718 10713 10712 10709 ] final  -89.00 input   66.30 | X-H torsion
[ 10763 10752 10751 10750 ] final  -44.22 input  -60.55 | X-H torsion
[ 11005 11000 10999 10996 ] final  -27.23 input  -57.11 | X-H torsion

> <Gold.Protein.ActiveResidues>
 VAL166  LYS551  ARG553  GLY616  TRP617  ASP618  TYR619  PRO620  LYS621  CYS622 
 ASP623  PHE694  ASN695  SER759  ASP760  ASP761  ALA762  ILE779  LEU786  VAL792 
 PHE793  MET794  SER795  GLU796  ALA797  LYS798  CYS799  TRP800  GLU811  SER814 

> <Gold.Protein.RotatedAtoms>
  151.7841  135.0753  160.0377 H   0  0  0  0  0  0  0  0  0  0  0  0  # atno 6907 bound_to 6896
  152.3202  133.5841  159.5748 H   0  0  0  0  0  0  0  0  0  0  0  0  # atno 6908 bound_to 6896
  150.7365  133.9938  159.3658 H   0  0  0  0  0  0  0  0  0  0  0  0  # atno 6909 bound_to 6896
  144.8688  140.6334  143.5280 H   0  0  0  0  0  0  0  0  0  0  0  0  # atno 7974 bound_to 7965
  154.4776  140.0900  156.7300 H   0  0  0  0  0  0  0  0  0  0  0  0  # atno 8008 bound_to 7997
  155.4555  140.3459  155.4288 H   0  0  0  0  0  0  0  0  0  0  0  0  # atno 8009 bound_to 7997
  156.1141  140.1456  156.9286 H   0  0  0  0  0  0  0  0  0  0  0  0  # atno 8010 bound_to 7997
  139.5679  144.1711  152.1340 H   0  0  0  0  0  0  0  0  0  0  0  0  # atno 10167 bound_to 10162
  155.9984  130.4856  150.5105 H   0  0  0  0  0  0  0  0  0  0  0  0  # atno 10718 bound_to 10713
  154.0084  135.6684  153.4763 H   0  0  0  0  0  0  0  0  0  0  0  0  # atno 10763 bound_to 10752
  153.0631  135.5016  154.8135 H   0  0  0  0  0  0  0  0  0  0  0  0  # atno 10764 bound_to 10752
  154.7010  135.3079  154.9304 H   0  0  0  0  0  0  0  0  0  0  0  0  # atno 10765 bound_to 10752
  140.9101  133.7466  156.0659 H   0  0  0  0  0  0  0  0  0  0  0  0  # atno 11005 bound_to 11000
  145.4171  139.1570  143.4094 LP  0  0  0  0  0  0  0  0  0  0  0  0  # atno 17320 bound_to 7965
  146.2915  140.4278  142.8738 LP  0  0  0  0  0  0  0  0  0  0  0  0  # atno 17321 bound_to 7965
  140.1238  144.5349  150.6846 LP  0  0  0  0  0  0  0  0  0  0  0  0  # atno 17342 bound_to 10162
  140.6963  143.2406  151.4991 LP  0  0  0  0  0  0  0  0  0  0  0  0  # atno 17343 bound_to 10162
  157.3079  131.0658  151.2022 LP  0  0  0  0  0  0  0  0  0  0  0  0  # atno 17370 bound_to 10713
  157.2979  130.6828  149.6148 LP  0  0  0  0  0  0  0  0  0  0  0  0  # atno 17371 bound_to 10713
  140.8121  134.3387  157.5408 LP  0  0  0  0  0  0  0  0  0  0  0  0  # atno 17394 bound_to 11000
  139.8756  134.9260  156.3389 LP  0  0  0  0  0  0  0  0  0  0  0  0  # atno 17395 bound_to 11000

$$$$
