AV-unprocessed.smi:1423|AV-procd|sdf|5797|dock6
  -GOLD-   22720 5443D 1   1.00000     0.00000
 Structure written by MMmdl.
 43 44  0  0  0  0  0  0  0  0  3 V2000
  152.6350  142.6927  162.0407 C   0  0  0  0  0  0  0  0  0  0  0  0
  152.7053  143.6139  160.9579 O   0  0  0  0  0  0  0  0  0  0  0  0
  152.1010  143.2709  159.7658 C   0  0  0  0  0  0  0  0  0  0  0  0
  152.1781  144.1733  158.6867 C   0  0  0  0  0  0  0  0  0  0  0  0
  151.5624  143.8326  157.4671 C   0  0  0  0  0  0  0  0  0  0  0  0
  150.8920  142.5899  157.3621 C   0  0  0  0  0  0  0  0  0  0  0  0
  150.2153  142.1320  156.1981 N   0  0  0  0  0  0  0  0  0  0  0  0
  149.1491  141.3186  156.1041 C   0  0  0  0  0  0  0  0  0  0  0  0
  148.5278  140.8412  157.0530 O   0  0  0  0  0  0  0  0  0  0  0  0
  148.8249  141.0922  154.8229 N   0  0  0  0  0  0  0  0  0  0  0  0
  147.7216  140.2488  154.3716 C   0  0  2  0  0  0  0  0  0  0  0  0
  147.9211  138.7941  154.8352 C   0  0  0  0  0  0  0  0  0  0  0  0
  146.8215  137.8762  154.2766 C   0  0  0  0  0  0  0  0  0  0  0  0
  146.7634  137.9522  152.7925 N   0  3  1  0  0  0  0  0  0  0  0  0
  145.8146  136.9805  152.1913 C   0  0  0  0  0  0  0  0  0  0  0  0
  144.4267  137.1098  152.8287 C   0  0  0  0  0  0  0  0  0  0  0  0
  143.4986  137.5483  151.9541 N   0  5  0  0  0  0  0  0  0  0  0  0
  144.2721  136.8224  154.0133 O   0  0  0  0  0  0  0  0  0  0  0  0
  146.5298  139.3408  152.3230 C   0  0  0  0  0  0  0  0  0  0  0  0
  147.6236  140.2913  152.8381 C   0  0  0  0  0  0  0  0  0  0  0  0
  150.8649  141.7630  158.5045 C   0  0  0  0  0  0  0  0  0  0  0  0
  151.4522  142.0837  159.6766 N   0  0  0  0  0  0  0  0  0  0  0  0
  153.1553  143.1095  162.9028 H   0  0  0  0  0  0  0  0  0  0  0  0
  153.1150  141.7454  161.7909 H   0  0  0  0  0  0  0  0  0  0  0  0
  151.6021  142.5040  162.3378 H   0  0  0  0  0  0  0  0  0  0  0  0
  152.6971  145.1144  158.7937 H   0  0  0  0  0  0  0  0  0  0  0  0
  151.6088  144.5360  156.6511 H   0  0  0  0  0  0  0  0  0  0  0  0
  150.5709  142.4953  155.3258 H   0  0  0  0  0  0  0  0  0  0  0  0
  149.3867  141.5290  154.1066 H   0  0  0  0  0  0  0  0  0  0  0  0
  146.7852  140.6297  154.7843 H   0  0  0  0  0  0  0  0  0  0  0  0
  148.8960  138.4298  154.5072 H   0  0  0  0  0  0  0  0  0  0  0  0
  147.9222  138.7413  155.9245 H   0  0  0  0  0  0  0  0  0  0  0  0
  147.0180  136.8518  154.5940 H   0  0  0  0  0  0  0  0  0  0  0  0
  145.8529  138.1548  154.6945 H   0  0  0  0  0  0  0  0  0  0  0  0
  145.7584  137.1215  151.1107 H   0  0  0  0  0  0  0  0  0  0  0  0
  146.1615  135.9585  152.3539 H   0  0  0  0  0  0  0  0  0  0  0  0
  143.2060  138.5322  151.9988 H   0  0  0  0  0  0  0  0  0  0  0  0
  146.5219  139.3638  151.2326 H   0  0  0  0  0  0  0  0  0  0  0  0
  145.5467  139.6782  152.6557 H   0  0  0  0  0  0  0  0  0  0  0  0
  147.4142  141.3082  152.5042 H   0  0  0  0  0  0  0  0  0  0  0  0
  148.5812  140.0111  152.3962 H   0  0  0  0  0  0  0  0  0  0  0  0
  150.3562  140.8101  158.4791 H   0  0  0  0  0  0  0  0  0  0  0  0
  147.6734  137.6816  152.4453 H   0  0  0  0  0  0  0  0  0  0  0  0
  1  2  1  0  0  0  0
  1 23  1  0  0  0  0
  1 24  1  0  0  0  0
  1 25  1  0  0  0  0
  2  3  1  0  0  0  0
  3 22  1  0  0  0  0
  3  4  2  0  0  0  0
  4  5  1  0  0  0  0
  4 26  1  0  0  0  0
  5  6  2  0  0  0  0
  5 27  1  0  0  0  0
  6  7  1  0  0  0  0
  6 21  1  0  0  0  0
  7  8  1  0  0  0  0
  7 28  1  0  0  0  0
  8  9  2  0  0  0  0
  8 10  1  0  0  0  0
 10 11  1  0  0  0  0
 10 29  1  0  0  0  0
 11 20  1  0  0  0  0
 11 12  1  0  0  0  0
 11 30  1  0  0  0  0
 12 13  1  0  0  0  0
 12 31  1  0  0  0  0
 12 32  1  0  0  0  0
 13 14  1  0  0  0  0
 13 33  1  0  0  0  0
 13 34  1  0  0  0  0
 14 15  1  0  0  0  0
 14 19  1  0  0  0  0
 14 43  1  0  0  0  0
 15 16  1  0  0  0  0
 15 35  1  0  0  0  0
 15 36  1  0  0  0  0
 16 17  1  0  0  0  0
 16 18  2  0  0  0  0
 17 37  1  0  0  0  0
 19 20  1  0  0  0  0
 19 38  1  0  0  0  0
 19 39  1  0  0  0  0
 20 40  1  0  0  0  0
 20 41  1  0  0  0  0
 21 22  2  0  0  0  0
 21 42  1  0  0  0  0
M  CHG  1  14   1
M  CHG  1  17  -1
M  END
> <s_m_source_file>
AV-unprocessed.smi

> <i_m_source_file_index>
1423

> <i_lp_mmshare_version>
43012

> <i_f3d_flags>
0

> <s_epik_input>
W0NIM11PYzFbY0hdW2NIXWMoW2NIXW4xKVtOSF1DKD1PKVtOSF1bQ0hdMltDSDJdW0NIMl1OKFtDSDJdW0NIMl0yKVtDSDJdQyg9TylbTkgyXQ==

> <s_epik_cmdline>
J2VwaWtfcHl0aG9uJywgJy1waCcsICc3LjAnLCAnLXRuJywgJzgnLCAnLW1hJywgJzIwMCcsICctbWV0YWxfYmluZGluZycsICctaW1hZScsICc8aW5maWxlLm1hZT4nLCAnLW9tYWUnLCAnPG91dGZpbGUubWFlPic=

> <r_lp_tautomer_probability>
1

> <r_epik_Ionization_Penalty>
5.72888

> <r_epik_Ionization_Penalty_Charging>
5.7288

> <r_epik_Ionization_Penalty_Neutral>
7.8452e-05

> <r_epik_State_Penalty>
6.54882

> <r_epik_Charging_Adjusted_Penalty>
12.2776

> <i_epik_Tot_Q>
0

> <i_epik_Tot_abs_Q>
2

> <r_epik_Metal_State_Penalty>
2.51301

> <b_epik_Metal_Only>
1

> <s_lp_Force_Field>
OPLS_2005

> <r_lp_Energy>
10.9641

> <b_lp_Chiralities_Consistent>
1

> <s_lp_Variant>
AV-unprocessed.smi:1423-4

> <Gold.Version>
5.8.1

> <Gold.Id.Protein>
6NUR|6NUR_protein|mol2

> <Gold.PLP.Fitness>
44.0520

> <Gold.PLP.PLP>
-35.5877

> <Gold.PLP.part.hbond>
-4.2272

> <Gold.PLP.part.metal>
0.0000

> <Gold.PLP.part.buried>
-0.2660

> <Gold.PLP.part.nonpolar>
-32.1094

> <Gold.PLP.part.repulsive>
0.4358

> <Gold.PLP.ligand.clash>
0.0000

> <Gold.PLP.ligand.torsion>
0.2847

> <Gold.PLP.Chemscore.Hbond>
3.0000

> <Gold.PLP.Chemscore.CHOScore>
0.0000

> <Gold.PLP.Chemscore.Metal>
0.0000

> <Gold.Chemscore.Hbonds>
donor molecule, donor type, donor heavy atom, donor atom, acceptor molecule, acceptor atom, score
      L1  H    14    43       P1  7948  2.00
      L1  H    17    37       P1 10175  1.00

> <Gold.PLP.Chemscore.Internal.Correction>
0.0337

> <Gold.Rescore>
     Score         DG    S(hbond)    S(metal)    S(lipo)     H(rot)  DE(clash)    DE(int)     intcor
     12.78     -16.04       1.97        0.00      84.19       2.29       1.45       1.81       ----

> <Gold.Chemscore.Fitness>
12.7781

> <Gold.Chemscore.DG>
-16.0407

> <Gold.Chemscore.ZeroCoef>
-5.4800

> <Gold.Chemscore.Hbond>
1.9676

> <Gold.Chemscore.Metal>
0.0000

> <Gold.Chemscore.Lipo>
84.1854

> <Gold.Chemscore.Internal_Hbond>
0.0000

> <Gold.Chemscore.DEClash>
1.4539

> <Gold.Chemscore.DEInternal>
1.8086

> <Gold.Chemscore.Rot>
2.2894

> <Gold.Chemscore.Internal.Correction>
   9.000000E+99

> <Gold.Chemscore.Hbonds>
donor molecule, donor type, donor heavy atom, donor atom, acceptor molecule, acceptor atom, score
      L1  H    14    43       P1  7948  0.91
      L1  H    17    37       P1 10175  0.91

> <Gold.Chemscore.Hbond.Weighted>
-6.5718

> <Gold.Chemscore.Metal.Weighted>
-0.0000

> <Gold.Chemscore.Lipo.Weighted>
-9.8497

> <Gold.Chemscore.Internal_Hbond.Weighted>
0.0000

> <Gold.Chemscore.DEClash.Weighted>
1.4539

> <Gold.Chemscore.DEInternal.Weighted>
1.8086

> <Gold.Chemscore.Rot.Weighted>
5.8608

> <Gold.Chemscore.Internal.Correction.Weighted>
   9.000000E+99

> <Gold.Protein.RotatedTorsions>
[ 6907 6896 6895 6894 ] final  -27.69 input  -60.11 | X-H torsion
[ 7974 7965 7964 7962 ] final  -82.27 input  175.53 | X-H torsion
[ 8008 7997 7996 7995 ] final  139.97 input   59.86 | X-H torsion
[ 10167 10162 10161 10158 ] final  -72.36 input  -65.29 | X-H torsion
[ 10718 10713 10712 10709 ] final   33.22 input   66.30 | X-H torsion
[ 10763 10752 10751 10750 ] final   31.47 input  -60.55 | X-H torsion
[ 11005 11000 10999 10996 ] final  -50.07 input  -57.11 | X-H torsion

> <Gold.Protein.ActiveResidues>
 VAL166  LYS551  ARG553  GLY616  TRP617  ASP618  TYR619  PRO620  LYS621  CYS622 
 ASP623  PHE694  ASN695  SER759  ASP760  ASP761  ALA762  ILE779  LEU786  VAL792 
 PHE793  MET794  SER795  GLU796  ALA797  LYS798  CYS799  TRP800  GLU811  SER814 

> <Gold.Protein.RotatedAtoms>
  151.1434  135.0191  159.8635 H   0  0  0  0  0  0  0  0  0  0  0  0  # atno 6907 bound_to 6896
  152.5452  134.1473  159.8514 H   0  0  0  0  0  0  0  0  0  0  0  0  # atno 6908 bound_to 6896
  151.1550  133.4836  159.2627 H   0  0  0  0  0  0  0  0  0  0  0  0  # atno 6909 bound_to 6896
  145.5355  140.9516  143.1579 H   0  0  0  0  0  0  0  0  0  0  0  0  # atno 7974 bound_to 7965
  156.2984  140.2354  156.4324 H   0  0  0  0  0  0  0  0  0  0  0  0  # atno 8008 bound_to 7997
  154.8258  140.0435  157.1463 H   0  0  0  0  0  0  0  0  0  0  0  0  # atno 8009 bound_to 7997
  154.9263  140.3010  155.5194 H   0  0  0  0  0  0  0  0  0  0  0  0  # atno 8010 bound_to 7997
  140.5199  143.2333  151.7448 H   0  0  0  0  0  0  0  0  0  0  0  0  # atno 10167 bound_to 10162
  157.2950  130.7322  149.6633 H   0  0  0  0  0  0  0  0  0  0  0  0  # atno 10718 bound_to 10713
  153.0314  135.6438  154.1205 H   0  0  0  0  0  0  0  0  0  0  0  0  # atno 10763 bound_to 10752
  154.0926  135.2865  155.3270 H   0  0  0  0  0  0  0  0  0  0  0  0  # atno 10764 bound_to 10752
  154.6454  135.5445  153.7902 H   0  0  0  0  0  0  0  0  0  0  0  0  # atno 10765 bound_to 10752
  141.0795  133.6657  156.3678 H   0  0  0  0  0  0  0  0  0  0  0  0  # atno 11005 bound_to 11000
  144.7604  139.6972  143.7237 LP  0  0  0  0  0  0  0  0  0  0  0  0  # atno 17320 bound_to 7965
  146.2016  139.5314  142.9740 LP  0  0  0  0  0  0  0  0  0  0  0  0  # atno 17321 bound_to 7965
  139.4920  144.4270  151.9915 LP  0  0  0  0  0  0  0  0  0  0  0  0  # atno 17342 bound_to 10162
  140.3366  144.3253  150.5976 LP  0  0  0  0  0  0  0  0  0  0  0  0  # atno 17343 bound_to 10162
  155.9669  130.4297  150.4844 LP  0  0  0  0  0  0  0  0  0  0  0  0  # atno 17370 bound_to 10713
  157.2814  131.0607  151.2195 LP  0  0  0  0  0  0  0  0  0  0  0  0  # atno 17371 bound_to 10713
  140.5499  134.6038  157.5404 LP  0  0  0  0  0  0  0  0  0  0  0  0  # atno 17394 bound_to 11000
  139.9608  134.7455  156.0240 LP  0  0  0  0  0  0  0  0  0  0  0  0  # atno 17395 bound_to 11000

$$$$
