AV-unprocessed.smi:169|AV-procd|sdf|1401|dock10
  -GOLD-   2262019153D 1   1.00000     0.00000
 Structure written by MMmdl.
 56 60  0  0  0  0  0  0  0  0  2 V2000
  151.6150  144.6041  160.6248 C   0  0  0  0  0  0  0  0  0  0  0  0
  151.8064  144.5128  159.1013 C   0  0  0  0  0  0  0  0  0  0  0  0
  150.9484  143.4884  158.4511 N   0  3  1  0  0  0  0  0  0  0  0  0
  149.4991  143.6169  158.8385 C   0  0  0  0  0  0  0  0  0  0  0  0
  148.6529  142.3024  158.6639 C   0  0  0  0  0  0  0  0  0  0  0  0
  149.0386  141.4996  157.4049 C   0  0  3  0  0  0  0  0  0  0  0  0
  148.6102  141.4355  155.9344 C   0  0  0  0  0  0  0  0  0  0  0  0
  149.9649  141.7976  155.2384 C   0  0  0  0  0  0  0  0  0  0  0  0
  151.0131  141.8989  156.3977 C   0  0  1  0  0  0  0  0  0  0  0  0
  151.2246  143.3472  156.9727 C   0  0  0  0  0  0  0  0  0  0  0  0
  150.4214  141.0595  157.4274 N   0  0  0  0  0  0  0  0  0  0  0  0
  150.6690  139.7209  157.4760 C   0  0  0  0  0  0  0  0  0  0  0  0
  150.8679  139.1308  158.6843 N   0  0  0  0  0  0  0  0  0  0  0  0
  151.1101  137.8204  158.7717 C   0  0  0  0  0  0  0  0  0  0  0  0
  151.1850  136.9203  157.7912 N   0  0  0  0  0  0  0  0  0  0  0  0
  150.9665  137.4956  156.5747 C   0  0  0  0  0  0  0  0  0  0  0  0
  150.7067  138.8746  156.3273 C   0  0  0  0  0  0  0  0  0  0  0  0
  150.5408  139.0777  154.9616 N   0  0  0  0  0  0  0  0  0  0  0  0
  150.6997  137.8948  154.4357 C   0  0  0  0  0  0  0  0  0  0  0  0
  150.9416  136.8813  155.3343 N   0  0  0  0  0  0  0  0  0  0  0  0
  151.1554  135.4735  155.0287 C   0  0  0  0  0  0  0  0  0  0  0  0
  150.0707  134.5138  155.5763 C   0  0  0  0  0  0  0  0  0  0  0  0
  149.0385  134.2828  154.4647 C   0  0  0  0  0  0  0  0  0  0  0  0
  148.2793  135.4497  154.2204 O   0  0  0  0  0  0  0  0  0  0  0  0
  150.5652  133.2426  156.2894 C   0  0  0  0  0  0  0  0  0  0  0  0
  150.3297  133.8188  157.5913 O   0  0  0  0  0  0  0  0  0  0  0  0
  149.5018  134.8249  156.9708 C   0  0  0  0  0  0  0  0  0  0  0  0
  152.2597  145.3772  161.0432 H   0  0  0  0  0  0  0  0  0  0  0  0
  151.8688  143.6676  161.1213 H   0  0  0  0  0  0  0  0  0  0  0  0
  150.5888  144.8591  160.8895 H   0  0  0  0  0  0  0  0  0  0  0  0
  151.6029  145.4838  158.6482 H   0  0  0  0  0  0  0  0  0  0  0  0
  152.8511  144.2958  158.8759 H   0  0  0  0  0  0  0  0  0  0  0  0
  149.4218  143.9297  159.8805 H   0  0  0  0  0  0  0  0  0  0  0  0
  149.0527  144.4226  158.2537 H   0  0  0  0  0  0  0  0  0  0  0  0
  148.8169  141.6670  159.5349 H   0  0  0  0  0  0  0  0  0  0  0  0
  147.5870  142.5365  158.6643 H   0  0  0  0  0  0  0  0  0  0  0  0
  148.9927  142.5281  157.0674 H   0  0  0  0  0  0  0  0  0  0  0  0
  148.3188  140.4162  155.6779 H   0  0  0  0  0  0  0  0  0  0  0  0
  147.7796  142.0907  155.6530 H   0  0  0  0  0  0  0  0  0  0  0  0
  150.2421  141.0017  154.5461 H   0  0  0  0  0  0  0  0  0  0  0  0
  149.9013  142.7207  154.6617 H   0  0  0  0  0  0  0  0  0  0  0  0
  151.9800  141.5299  156.0555 H   0  0  0  0  0  0  0  0  0  0  0  0
  150.6300  144.0801  156.4256 H   0  0  0  0  0  0  0  0  0  0  0  0
  152.2626  143.6181  156.7764 H   0  0  0  0  0  0  0  0  0  0  0  0
  151.2633  137.4378  159.7701 H   0  0  0  0  0  0  0  0  0  0  0  0
  150.6417  137.7295  153.3699 H   0  0  0  0  0  0  0  0  0  0  0  0
  151.2299  135.3863  153.9442 H   0  0  0  0  0  0  0  0  0  0  0  0
  152.1374  135.1968  155.4145 H   0  0  0  0  0  0  0  0  0  0  0  0
  149.5217  133.9742  153.5371 H   0  0  0  0  0  0  0  0  0  0  0  0
  148.3472  133.4836  154.7339 H   0  0  0  0  0  0  0  0  0  0  0  0
  148.4401  135.7327  153.3331 H   0  0  0  0  0  0  0  0  0  0  0  0
  149.9353  132.3674  156.1202 H   0  0  0  0  0  0  0  0  0  0  0  0
  151.6105  132.9922  156.1180 H   0  0  0  0  0  0  0  0  0  0  0  0
  149.7080  135.8314  157.3323 H   0  0  0  0  0  0  0  0  0  0  0  0
  148.4407  134.5919  157.0755 H   0  0  0  0  0  0  0  0  0  0  0  0
  151.2558  142.6166  158.8588 H   0  0  0  0  0  0  0  0  0  0  0  0
  1  2  1  0  0  0  0
  1 28  1  0  0  0  0
  1 29  1  0  0  0  0
  1 30  1  0  0  0  0
  2  3  1  0  0  0  0
  2 31  1  0  0  0  0
  2 32  1  0  0  0  0
  3 10  1  0  0  0  0
  3  4  1  0  0  0  0
  3 56  1  0  0  0  0
  4  5  1  0  0  0  0
  4 33  1  0  0  0  0
  4 34  1  0  0  0  0
  5  6  1  0  0  0  0
  5 35  1  0  0  0  0
  5 36  1  0  0  0  0
  6 11  1  0  0  0  0
  6  7  1  0  0  0  0
  6 37  1  0  0  0  0
  7  8  1  0  0  0  0
  7 38  1  0  0  0  0
  7 39  1  0  0  0  0
  8  9  1  0  0  0  0
  8 40  1  0  0  0  0
  8 41  1  0  0  0  0
  9 10  1  0  0  0  0
  9 11  1  0  0  0  0
  9 42  1  0  0  0  0
 10 43  1  0  0  0  0
 10 44  1  0  0  0  0
 11 12  1  0  0  0  0
 12 17  1  0  0  0  0
 12 13  2  0  0  0  0
 13 14  1  0  0  0  0
 14 15  2  0  0  0  0
 14 45  1  0  0  0  0
 15 16  1  0  0  0  0
 16 20  1  0  0  0  0
 16 17  2  0  0  0  0
 17 18  1  0  0  0  0
 18 19  2  0  0  0  0
 19 20  1  0  0  0  0
 19 46  1  0  0  0  0
 20 21  1  0  0  0  0
 21 22  1  0  0  0  0
 21 47  1  0  0  0  0
 21 48  1  0  0  0  0
 22 27  1  0  0  0  0
 22 23  1  0  0  0  0
 22 25  1  0  0  0  0
 23 24  1  0  0  0  0
 23 49  1  0  0  0  0
 23 50  1  0  0  0  0
 24 51  1  0  0  0  0
 25 26  1  0  0  0  0
 25 52  1  0  0  0  0
 25 53  1  0  0  0  0
 26 27  1  0  0  0  0
 27 54  1  0  0  0  0
 27 55  1  0  0  0  0
M  CHG  1   3   1
M  END
> <s_m_source_file>
AV-unprocessed.smi

> <i_m_source_file_index>
169

> <i_lp_mmshare_version>
43012

> <i_f3d_flags>
0

> <s_epik_input>
W0NASF0xMltDSDJdW0NIMl1OKFtDSDJdW0NIM10pW0NIMl1bQ0BIXShbQ0gyXVtDSDJdMSlOMmMobltjSF1uMyljKGMzNCluW2NIXW40W0NIMl1DNShbQ0gyXVtPSF0pW0NIMl1PW0NIMl01

> <s_epik_cmdline>
J2VwaWtfcHl0aG9uJywgJy1waCcsICc3LjAnLCAnLXRuJywgJzgnLCAnLW1hJywgJzIwMCcsICctbWV0YWxfYmluZGluZycsICctaW1hZScsICc8aW5maWxlLm1hZT4nLCAnLW9tYWUnLCAnPG91dGZpbGUubWFlPic=

> <r_lp_tautomer_probability>
1

> <r_epik_Ionization_Penalty>
0.00274162

> <r_epik_Ionization_Penalty_Charging>
0.00243722

> <r_epik_Ionization_Penalty_Neutral>
0.000304399

> <r_epik_State_Penalty>
-0

> <r_epik_Charging_Adjusted_Penalty>
0.00243722

> <i_epik_Tot_Q>
1

> <i_epik_Tot_abs_Q>
1

> <r_epik_Metal_State_Penalty>
-0

> <b_epik_Metal_Only>
0

> <s_lp_Force_Field>
OPLS_2005

> <r_lp_Energy>
128.509

> <b_lp_Chiralities_Consistent>
1

> <s_lp_Variant>
AV-unprocessed.smi:169-4

> <Gold.Version>
5.8.1

> <Gold.Id.Protein>
6NUR|6NUR_protein|mol2

> <Gold.PLP.Fitness>
41.6455

> <Gold.PLP.PLP>
-34.7158

> <Gold.PLP.part.hbond>
-2.0445

> <Gold.PLP.part.metal>
0.0000

> <Gold.PLP.part.buried>
-4.9338

> <Gold.PLP.part.nonpolar>
-28.1114

> <Gold.PLP.part.repulsive>
0.1631

> <Gold.PLP.ligand.clash>
0.0000

> <Gold.PLP.ligand.torsion>
1.4762

> <Gold.PLP.Chemscore.Hbond>
2.0000

> <Gold.PLP.Chemscore.CHOScore>
1.1520

> <Gold.PLP.Chemscore.Metal>
0.0000

> <Gold.Chemscore.Hbonds>
donor molecule, donor type, donor heavy atom, donor atom, acceptor molecule, acceptor atom, score
      L1  H    24    51       P1  7948  1.00
      P1  H  6896  6908       L1    26  0.86
      L1  C    19    46       P1  7948  0.40
      L1  C    19    46       P1  7949  0.55

> <Gold.PLP.Chemscore.Internal.Correction>
0.4260

> <Gold.Rescore>
     Score         DG    S(hbond)    S(metal)    S(lipo)     H(rot)  DE(clash)    DE(int)     intcor
     11.57     -16.07       1.99        0.00      90.91       2.62       0.32       4.18       ----

> <Gold.Chemscore.Fitness>
11.5707

> <Gold.Chemscore.DG>
-16.0656

> <Gold.Chemscore.ZeroCoef>
-5.4800

> <Gold.Chemscore.Hbond>
1.9938

> <Gold.Chemscore.Metal>
0.0000

> <Gold.Chemscore.Lipo>
90.9109

> <Gold.Chemscore.Internal_Hbond>
0.0000

> <Gold.Chemscore.DEClash>
0.3154

> <Gold.Chemscore.DEInternal>
4.1795

> <Gold.Chemscore.Rot>
2.6212

> <Gold.Chemscore.Internal.Correction>
   9.000000E+99

> <Gold.Chemscore.Hbonds>
donor molecule, donor type, donor heavy atom, donor atom, acceptor molecule, acceptor atom, score
      L1  H    24    51       P1  7948  0.99
      P1  H  6896  6908       L1    26  0.87

> <Gold.Chemscore.Hbond.Weighted>
-6.6593

> <Gold.Chemscore.Metal.Weighted>
-0.0000

> <Gold.Chemscore.Lipo.Weighted>
-10.6366

> <Gold.Chemscore.Internal_Hbond.Weighted>
0.0000

> <Gold.Chemscore.DEClash.Weighted>
0.3154

> <Gold.Chemscore.DEInternal.Weighted>
4.1795

> <Gold.Chemscore.Rot.Weighted>
6.7102

> <Gold.Chemscore.Internal.Correction.Weighted>
   9.000000E+99

> <Gold.Protein.RotatedTorsions>
[ 6907 6896 6895 6894 ] final  109.65 input  -60.11 | X-H torsion
[ 7974 7965 7964 7962 ] final  -97.90 input  175.53 | X-H torsion
[ 8008 7997 7996 7995 ] final  157.81 input   59.86 | X-H torsion
[ 10167 10162 10161 10158 ] final  100.45 input  -65.29 | X-H torsion
[ 10718 10713 10712 10709 ] final  -28.13 input   66.30 | X-H torsion
[ 10763 10752 10751 10750 ] final   29.19 input  -60.55 | X-H torsion
[ 11005 11000 10999 10996 ] final   36.29 input  -57.11 | X-H torsion

> <Gold.Protein.ActiveResidues>
 VAL166  LYS551  ARG553  GLY616  TRP617  ASP618  TYR619  PRO620  LYS621  CYS622 
 ASP623  PHE694  ASN695  SER759  ASP760  ASP761  ALA762  ILE779  LEU786  VAL792 
 PHE793  MET794  SER795  GLU796  ALA797  LYS798  CYS799  TRP800  GLU811  SER814 

> <Gold.Protein.RotatedAtoms>
  152.5057  133.8913  159.7395 H   0  0  0  0  0  0  0  0  0  0  0  0  # atno 6907 bound_to 6896
  150.9351  133.6712  159.2809 H   0  0  0  0  0  0  0  0  0  0  0  0  # atno 6908 bound_to 6896
  151.4043  135.0980  159.9618 H   0  0  0  0  0  0  0  0  0  0  0  0  # atno 6909 bound_to 6896
  145.3277  140.9435  143.2679 H   0  0  0  0  0  0  0  0  0  0  0  0  # atno 7974 bound_to 7965
  156.2341  140.1875  156.7165 H   0  0  0  0  0  0  0  0  0  0  0  0  # atno 8008 bound_to 7997
  154.6075  140.0627  156.9478 H   0  0  0  0  0  0  0  0  0  0  0  0  # atno 8009 bound_to 7997
  155.2071  140.3297  155.4337 H   0  0  0  0  0  0  0  0  0  0  0  0  # atno 8010 bound_to 7997
  139.7526  144.6979  151.0410 H   0  0  0  0  0  0  0  0  0  0  0  0  # atno 10167 bound_to 10162
  156.4292  130.4442  149.7129 H   0  0  0  0  0  0  0  0  0  0  0  0  # atno 10718 bound_to 10713
  153.0446  135.6495  154.0852 H   0  0  0  0  0  0  0  0  0  0  0  0  # atno 10763 bound_to 10752
  154.0552  135.2892  155.3335 H   0  0  0  0  0  0  0  0  0  0  0  0  # atno 10764 bound_to 10752
  154.6694  135.5362  153.8184 H   0  0  0  0  0  0  0  0  0  0  0  0  # atno 10765 bound_to 10752
  140.2340  134.3493  155.7952 H   0  0  0  0  0  0  0  0  0  0  0  0  # atno 11005 bound_to 11000
  144.8889  139.4802  143.6687 LP  0  0  0  0  0  0  0  0  0  0  0  0  # atno 17320 bound_to 7965
  146.3058  139.7575  142.9057 LP  0  0  0  0  0  0  0  0  0  0  0  0  # atno 17321 bound_to 7965
  140.7799  143.4791  151.0042 LP  0  0  0  0  0  0  0  0  0  0  0  0  # atno 17342 bound_to 10162
  139.8478  143.7478  152.3179 LP  0  0  0  0  0  0  0  0  0  0  0  0  # atno 17343 bound_to 10162
  156.4039  130.7688  151.2697 LP  0  0  0  0  0  0  0  0  0  0  0  0  # atno 17370 bound_to 10713
  157.7508  131.0232  150.3822 LP  0  0  0  0  0  0  0  0  0  0  0  0  # atno 17371 bound_to 10713
  141.2216  133.7261  156.8778 LP  0  0  0  0  0  0  0  0  0  0  0  0  # atno 17394 bound_to 11000
  140.1721  134.9093  157.2846 LP  0  0  0  0  0  0  0  0  0  0  0  0  # atno 17395 bound_to 11000

$$$$
