AV-unprocessed.smi:2775|AV-procd|sdf|10691|dock3
  -GOLD-   2272015133D 1   1.00000     0.00000
 Structure written by MMmdl.
 42 45  0  0  0  0  0  0  0  0  1 V2000
  146.2417  130.3769  151.8256 C   0  0  0  0  0  0  0  0  0  0  0  0
  145.6243  131.7526  151.6576 C   0  0  0  0  0  0  0  0  0  0  0  0
  144.4015  131.7795  151.0836 N   0  0  0  0  0  0  0  0  0  0  0  0
  143.8034  132.9773  150.9183 C   0  0  0  0  0  0  0  0  0  0  0  0
  144.3900  134.1964  151.3080 C   0  0  0  0  0  0  0  0  0  0  0  0
  145.6778  134.1720  151.8937 C   0  0  0  0  0  0  0  0  0  0  0  0
  146.3535  135.3386  152.3419 N   0  0  0  0  0  0  0  0  0  0  0  0
  145.8312  136.4873  152.8124 C   0  0  0  0  0  0  0  0  0  0  0  0
  144.6325  136.6953  152.9872 O   0  0  0  0  0  0  0  0  0  0  0  0
  146.7477  137.4427  153.0459 N   0  0  0  0  0  0  0  0  0  0  0  0
  146.5104  138.7956  153.5559 C   0  0  1  0  0  0  0  0  0  0  0  0
  145.6736  138.8515  154.8565 C   0  0  1  0  0  0  0  0  0  0  0  0
  145.3605  137.6343  155.6893 C   0  0  0  0  0  0  0  0  0  0  0  0
  146.6352  137.4417  156.5040 C   0  0  0  0  0  0  0  0  0  0  0  0
  147.1614  138.7583  156.6697 O   0  0  0  0  0  0  0  0  0  0  0  0
  146.8327  139.5724  155.5408 C   0  0  1  0  0  0  0  0  0  0  0  0
  147.7229  139.3803  154.2989 C   0  0  0  0  0  0  0  0  0  0  0  0
  149.0949  138.6790  154.3869 C   0  0  0  0  0  0  0  0  0  0  0  0
  149.7450  140.0643  154.3823 C   0  0  0  0  0  0  0  0  0  0  0  0
  148.4700  140.5928  153.7210 C   0  0  0  0  0  0  0  0  0  0  0  0
  146.3036  132.9181  152.0833 C   0  0  0  0  0  0  0  0  0  0  0  0
  147.8722  132.8136  152.8116 Cl  0  0  0  0  0  0  0  0  0  0  0  0
  147.1817  130.3137  151.2769 H   0  0  0  0  0  0  0  0  0  0  0  0
  145.5815  129.5918  151.4540 H   0  0  0  0  0  0  0  0  0  0  0  0
  146.4417  130.1774  152.8785 H   0  0  0  0  0  0  0  0  0  0  0  0
  142.8225  132.9639  150.4666 H   0  0  0  0  0  0  0  0  0  0  0  0
  143.8428  135.1151  151.1624 H   0  0  0  0  0  0  0  0  0  0  0  0
  147.3494  135.3468  152.1769 H   0  0  0  0  0  0  0  0  0  0  0  0
  147.7018  137.2278  152.7942 H   0  0  0  0  0  0  0  0  0  0  0  0
  146.1390  139.4929  152.8026 H   0  0  0  0  0  0  0  0  0  0  0  0
  144.8111  139.5055  154.7217 H   0  0  0  0  0  0  0  0  0  0  0  0
  144.5236  137.8447  156.3559 H   0  0  0  0  0  0  0  0  0  0  0  0
  145.0982  136.7519  155.1067 H   0  0  0  0  0  0  0  0  0  0  0  0
  146.4525  136.9591  157.4640 H   0  0  0  0  0  0  0  0  0  0  0  0
  147.3504  136.8321  155.9509 H   0  0  0  0  0  0  0  0  0  0  0  0
  146.6266  140.6140  155.7903 H   0  0  0  0  0  0  0  0  0  0  0  0
  149.2778  138.1019  155.2928 H   0  0  0  0  0  0  0  0  0  0  0  0
  149.3478  138.1076  153.4924 H   0  0  0  0  0  0  0  0  0  0  0  0
  149.8965  140.4623  155.3871 H   0  0  0  0  0  0  0  0  0  0  0  0
  150.6450  140.1462  153.7723 H   0  0  0  0  0  0  0  0  0  0  0  0
  148.5251  140.5739  152.6312 H   0  0  0  0  0  0  0  0  0  0  0  0
  148.1338  141.5625  154.0887 H   0  0  0  0  0  0  0  0  0  0  0  0
  1  2  1  0  0  0  0
  1 23  1  0  0  0  0
  1 24  1  0  0  0  0
  1 25  1  0  0  0  0
  2 21  1  0  0  0  0
  2  3  2  0  0  0  0
  3  4  1  0  0  0  0
  4  5  2  0  0  0  0
  4 26  1  0  0  0  0
  5  6  1  0  0  0  0
  5 27  1  0  0  0  0
  6  7  1  0  0  0  0
  6 21  2  0  0  0  0
  7  8  1  0  0  0  0
  7 28  1  0  0  0  0
  8  9  2  0  0  0  0
  8 10  1  0  0  0  0
 10 11  1  0  0  0  0
 10 29  1  0  0  0  0
 11 17  1  0  0  0  0
 11 12  1  0  0  0  0
 11 30  1  0  0  0  0
 12 16  1  0  0  0  0
 12 13  1  0  0  0  0
 12 31  1  0  0  0  0
 13 14  1  0  0  0  0
 13 32  1  0  0  0  0
 13 33  1  0  0  0  0
 14 15  1  0  0  0  0
 14 34  1  0  0  0  0
 14 35  1  0  0  0  0
 15 16  1  0  0  0  0
 16 17  1  0  0  0  0
 16 36  1  0  0  0  0
 17 20  1  0  0  0  0
 17 18  1  0  0  0  0
 18 19  1  0  0  0  0
 18 37  1  0  0  0  0
 18 38  1  0  0  0  0
 19 20  1  0  0  0  0
 19 39  1  0  0  0  0
 19 40  1  0  0  0  0
 20 41  1  0  0  0  0
 20 42  1  0  0  0  0
 21 22  1  0  0  0  0
M  END
> <s_m_source_file>
AV-unprocessed.smi

> <i_m_source_file_index>
2775

> <i_lp_mmshare_version>
43012

> <i_f3d_flags>
0

> <s_epik_input>
W0NIM11jMW5bY0hdW2NIXWMoYzFDbClbTkhdQyg9TylbTkhdW0NAQEhdMltDQEhdKFtDSDJdW0NIMl1PMylbQ0BASF0zQzI0W0NIMl1bQ0gyXVtDSDJdNA==

> <s_epik_cmdline>
J2VwaWtfcHl0aG9uJywgJy1waCcsICc3LjAnLCAnLXRuJywgJzgnLCAnLW1hJywgJzIwMCcsICctbWV0YWxfYmluZGluZycsICctaW1hZScsICc8aW5maWxlLm1hZT4nLCAnLW9tYWUnLCAnPG91dGZpbGUubWFlPic=

> <r_epik_Ionization_Penalty>
0.01026

> <r_epik_Ionization_Penalty_Charging>
0

> <r_epik_Ionization_Penalty_Neutral>
0.01026

> <r_epik_State_Penalty>
0.00780685

> <r_epik_Charging_Adjusted_Penalty>
0.00780685

> <i_epik_Tot_Q>
0

> <i_epik_Tot_abs_Q>
0

> <r_epik_Metal_State_Penalty>
0.00767411

> <b_epik_Metal_Only>
0

> <s_lp_Force_Field>
OPLS_2005

> <r_lp_Energy>
57.8128

> <b_lp_Chiralities_Consistent>
1

> <s_lp_Variant>
AV-unprocessed.smi:2775-4

> <Gold.Version>
5.8.1

> <Gold.Id.Protein>
6NUR|6NUR_protein|mol2

> <Gold.PLP.Fitness>
36.8894

> <Gold.PLP.PLP>
-28.5454

> <Gold.PLP.part.hbond>
-2.0000

> <Gold.PLP.part.metal>
0.0000

> <Gold.PLP.part.buried>
-0.8772

> <Gold.PLP.part.nonpolar>
-25.4331

> <Gold.PLP.part.repulsive>
0.3549

> <Gold.PLP.ligand.clash>
0.0000

> <Gold.PLP.ligand.torsion>
0.4088

> <Gold.PLP.Chemscore.Hbond>
2.0000

> <Gold.PLP.Chemscore.CHOScore>
1.0000

> <Gold.PLP.Chemscore.Metal>
0.0000

> <Gold.Chemscore.Hbonds>
donor molecule, donor type, donor heavy atom, donor atom, acceptor molecule, acceptor atom, score
      L1  H     7    28       P1  7948  1.00
      L1  H    10    29       P1  7948  1.00
      L1  C     4    26       P1 10186  1.00

> <Gold.PLP.Chemscore.Internal.Correction>
0.1616

> <Gold.Rescore>
     Score         DG    S(hbond)    S(metal)    S(lipo)     H(rot)  DE(clash)    DE(int)     intcor
     16.97     -18.40       1.89        0.00      78.28       1.00       0.10       1.33       ----

> <Gold.Chemscore.Fitness>
16.9721

> <Gold.Chemscore.DG>
-18.4016

> <Gold.Chemscore.ZeroCoef>
-5.4800

> <Gold.Chemscore.Hbond>
1.8932

> <Gold.Chemscore.Metal>
0.0000

> <Gold.Chemscore.Lipo>
78.2775

> <Gold.Chemscore.Internal_Hbond>
0.0000

> <Gold.Chemscore.DEClash>
0.0962

> <Gold.Chemscore.DEInternal>
1.3333

> <Gold.Chemscore.Rot>
1.0000

> <Gold.Chemscore.Internal.Correction>
   9.000000E+99

> <Gold.Chemscore.Hbonds>
donor molecule, donor type, donor heavy atom, donor atom, acceptor molecule, acceptor atom, score
      L1  H     7    28       P1  7948  0.97
      L1  H    10    29       P1  7948  0.96

> <Gold.Chemscore.Hbond.Weighted>
-6.3232

> <Gold.Chemscore.Metal.Weighted>
-0.0000

> <Gold.Chemscore.Lipo.Weighted>
-9.1585

> <Gold.Chemscore.Internal_Hbond.Weighted>
0.0000

> <Gold.Chemscore.DEClash.Weighted>
0.0962

> <Gold.Chemscore.DEInternal.Weighted>
1.3333

> <Gold.Chemscore.Rot.Weighted>
2.5600

> <Gold.Chemscore.Internal.Correction.Weighted>
   9.000000E+99

> <Gold.Protein.RotatedTorsions>
[ 6907 6896 6895 6894 ] final -140.47 input  -60.11 | X-H torsion
[ 7974 7965 7964 7962 ] final  -61.32 input  175.53 | X-H torsion
[ 8008 7997 7996 7995 ] final -125.10 input   59.86 | X-H torsion
[ 10167 10162 10161 10158 ] final   60.08 input  -65.29 | X-H torsion
[ 10718 10713 10712 10709 ] final   96.51 input   66.30 | X-H torsion
[ 10763 10752 10751 10750 ] final    1.76 input  -60.55 | X-H torsion
[ 11005 11000 10999 10996 ] final   79.02 input  -57.11 | X-H torsion

> <Gold.Protein.ActiveResidues>
 VAL166  LYS551  ARG553  GLY616  TRP617  ASP618  TYR619  PRO620  LYS621  CYS622 
 ASP623  PHE694  ASN695  SER759  ASP760  ASP761  ALA762  ILE779  LEU786  VAL792 
 PHE793  MET794  SER795  GLU796  ALA797  LYS798  CYS799  TRP800  GLU811  SER814 

> <Gold.Protein.RotatedAtoms>
  151.0611  133.5543  159.2634 H   0  0  0  0  0  0  0  0  0  0  0  0  # atno 6907 bound_to 6896
  151.2518  135.0624  159.9074 H   0  0  0  0  0  0  0  0  0  0  0  0  # atno 6908 bound_to 6896
  152.5398  134.0371  159.8104 H   0  0  0  0  0  0  0  0  0  0  0  0  # atno 6909 bound_to 6896
  145.8049  140.8633  143.0212 H   0  0  0  0  0  0  0  0  0  0  0  0  # atno 7974 bound_to 7965
  155.2077  140.0418  157.2928 H   0  0  0  0  0  0  0  0  0  0  0  0  # atno 8008 bound_to 7997
  154.6032  140.2457  155.7736 H   0  0  0  0  0  0  0  0  0  0  0  0  # atno 8009 bound_to 7997
  156.2334  140.2930  156.0257 H   0  0  0  0  0  0  0  0  0  0  0  0  # atno 8010 bound_to 7997
  140.1695  144.4291  150.6668 H   0  0  0  0  0  0  0  0  0  0  0  0  # atno 10167 bound_to 10162
  157.6926  131.0580  150.4503 H   0  0  0  0  0  0  0  0  0  0  0  0  # atno 10718 bound_to 10713
  153.3041  135.6958  153.7176 H   0  0  0  0  0  0  0  0  0  0  0  0  # atno 10763 bound_to 10752
  153.6079  135.3450  155.2969 H   0  0  0  0  0  0  0  0  0  0  0  0  # atno 10764 bound_to 10752
  154.8558  135.4356  154.2160 H   0  0  0  0  0  0  0  0  0  0  0  0  # atno 10765 bound_to 10752
  139.9189  134.7809  156.1724 H   0  0  0  0  0  0  0  0  0  0  0  0  # atno 11005 bound_to 11000
  144.6764  140.0312  143.7482 LP  0  0  0  0  0  0  0  0  0  0  0  0  # atno 17320 bound_to 7965
  145.9839  139.2962  143.1025 LP  0  0  0  0  0  0  0  0  0  0  0  0  # atno 17321 bound_to 7965
  140.6591  143.2246  151.5898 LP  0  0  0  0  0  0  0  0  0  0  0  0  # atno 17342 bound_to 10162
  139.5344  144.2822  152.1220 LP  0  0  0  0  0  0  0  0  0  0  0  0  # atno 17343 bound_to 10162
  156.4855  130.4083  149.6437 LP  0  0  0  0  0  0  0  0  0  0  0  0  # atno 17370 bound_to 10713
  156.3467  130.7410  151.2364 LP  0  0  0  0  0  0  0  0  0  0  0  0  # atno 17371 bound_to 10713
  141.0692  133.6805  156.2106 LP  0  0  0  0  0  0  0  0  0  0  0  0  # atno 17394 bound_to 11000
  140.6535  134.5042  157.5579 LP  0  0  0  0  0  0  0  0  0  0  0  0  # atno 17395 bound_to 11000

$$$$
