AV-unprocessed.smi:537|AV-procd|sdf|2865|dock1
  -GOLD-   2262023353D 1   1.00000     0.00000
 Structure written by MMmdl.
 32 33  0  0  0  0  0  0  0  0  2 V2000
  152.5968  143.6442  158.6501 C   0  0  0  0  0  0  0  0  0  0  0  0
  152.2071  142.2918  158.3044 N   0  0  0  0  0  0  0  0  0  0  0  0
  152.5076  141.0664  158.8869 C   0  0  0  0  0  0  0  0  0  0  0  0
  153.2766  140.9138  159.9659 N   0  0  0  0  0  0  0  0  0  0  0  0
  153.2626  139.5385  160.1521 C   0  0  0  0  0  0  0  0  0  0  0  0
  152.5068  138.9154  159.2079 C   0  0  0  0  0  0  0  0  0  0  0  0
  152.2969  137.4520  159.1583 C   0  0  0  0  0  0  0  0  0  0  0  0
  151.5962  136.9379  158.2889 O   0  0  0  0  0  0  0  0  0  0  0  0
  152.9601  136.8019  160.1667 N   0  5  0  0  0  0  0  0  0  0  0  0
  153.7391  137.3920  161.1396 C   0  0  0  0  0  0  0  0  0  0  0  0
  154.2999  136.7231  162.0080 O   0  0  0  0  0  0  0  0  0  0  0  0
  153.9003  138.7543  161.1492 N   0  0  0  0  0  0  0  0  0  0  0  0
  154.7112  139.4577  162.1479 C   0  0  0  0  0  0  0  0  0  0  0  0
  152.0110  139.9165  158.3667 N   0  0  0  0  0  0  0  0  0  0  0  0
  151.1478  139.7829  157.1960 C   0  0  0  0  0  0  0  0  0  0  0  0
  151.8872  140.1104  155.8900 C   0  0  0  0  0  0  0  0  0  0  0  0
  151.0473  139.8557  154.7764 O   0  0  0  0  0  0  0  0  0  0  0  0
  150.9589  138.4775  154.4635 C   0  0  0  0  0  0  0  0  0  0  0  0
  152.1708  144.3535  157.9407 H   0  0  0  0  0  0  0  0  0  0  0  0
  153.6823  143.7420  158.6303 H   0  0  0  0  0  0  0  0  0  0  0  0
  152.2436  143.8970  159.6499 H   0  0  0  0  0  0  0  0  0  0  0  0
  151.6112  142.2345  157.4914 H   0  0  0  0  0  0  0  0  0  0  0  0
  155.1879  138.8079  162.8821 H   0  0  0  0  0  0  0  0  0  0  0  0
  154.0902  140.1665  162.6963 H   0  0  0  0  0  0  0  0  0  0  0  0
  155.5027  140.0201  161.6519 H   0  0  0  0  0  0  0  0  0  0  0  0
  150.7597  138.7649  157.1563 H   0  0  0  0  0  0  0  0  0  0  0  0
  150.2712  140.4174  157.3113 H   0  0  0  0  0  0  0  0  0  0  0  0
  152.1923  141.1580  155.8899 H   0  0  0  0  0  0  0  0  0  0  0  0
  152.7933  139.5073  155.8194 H   0  0  0  0  0  0  0  0  0  0  0  0
  150.3013  138.3390  153.6053 H   0  0  0  0  0  0  0  0  0  0  0  0
  150.5475  137.9095  155.2987 H   0  0  0  0  0  0  0  0  0  0  0  0
  151.9369  138.0677  154.2082 H   0  0  0  0  0  0  0  0  0  0  0  0
  1  2  1  0  0  0  0
  1 19  1  0  0  0  0
  1 20  1  0  0  0  0
  1 21  1  0  0  0  0
  2  3  1  0  0  0  0
  2 22  1  0  0  0  0
  3 14  1  0  0  0  0
  3  4  2  0  0  0  0
  4  5  1  0  0  0  0
  5 12  1  0  0  0  0
  5  6  2  0  0  0  0
  6  7  1  0  0  0  0
  6 14  1  0  0  0  0
  7  8  2  0  0  0  0
  7  9  1  0  0  0  0
  9 10  1  0  0  0  0
 10 11  2  0  0  0  0
 10 12  1  0  0  0  0
 12 13  1  0  0  0  0
 13 23  1  0  0  0  0
 13 24  1  0  0  0  0
 13 25  1  0  0  0  0
 14 15  1  0  0  0  0
 15 16  1  0  0  0  0
 15 26  1  0  0  0  0
 15 27  1  0  0  0  0
 16 17  1  0  0  0  0
 16 28  1  0  0  0  0
 16 29  1  0  0  0  0
 17 18  1  0  0  0  0
 18 30  1  0  0  0  0
 18 31  1  0  0  0  0
 18 32  1  0  0  0  0
M  CHG  1   9  -1
M  END
> <s_m_source_file>
AV-unprocessed.smi

> <i_m_source_file_index>
537

> <i_lp_mmshare_version>
43012

> <i_f3d_flags>
0

> <s_epik_input>
W0NIM11PW0NIMl1bQ0gyXW4oYyhuMSlbTkhdW0NIM10pYyhjMTIpYyg9TylbbkhdYyg9TyluMltDSDNd

> <s_epik_cmdline>
J2VwaWtfcHl0aG9uJywgJy1waCcsICc3LjAnLCAnLXRuJywgJzgnLCAnLW1hJywgJzIwMCcsICctbWV0YWxfYmluZGluZycsICctaW1hZScsICc8aW5maWxlLm1hZT4nLCAnLW9tYWUnLCAnPG91dGZpbGUubWFlPic=

> <r_lp_tautomer_probability>
1

> <r_epik_Ionization_Penalty>
6.3083

> <r_epik_Ionization_Penalty_Charging>
1.44173e-08

> <r_epik_Ionization_Penalty_Neutral>
6.3083

> <r_epik_State_Penalty>
6.30819

> <r_epik_Charging_Adjusted_Penalty>
6.30819

> <i_epik_Tot_Q>
-1

> <i_epik_Tot_abs_Q>
1

> <r_epik_Metal_State_Penalty>
2.24297

> <b_epik_Metal_Only>
1

> <s_lp_Force_Field>
OPLS_2005

> <r_lp_Energy>
24.4874

> <b_lp_Chiralities_Consistent>
1

> <s_lp_Variant>
AV-unprocessed.smi:537-2

> <Gold.Version>
5.8.1

> <Gold.Id.Protein>
6NUR|6NUR_protein|mol2

> <Gold.PLP.Fitness>
38.5868

> <Gold.PLP.PLP>
-29.9102

> <Gold.PLP.part.hbond>
-2.1116

> <Gold.PLP.part.metal>
0.0000

> <Gold.PLP.part.buried>
-5.1182

> <Gold.PLP.part.nonpolar>
-22.2228

> <Gold.PLP.part.repulsive>
0.1311

> <Gold.PLP.ligand.clash>
0.0000

> <Gold.PLP.ligand.torsion>
0.1665

> <Gold.PLP.Chemscore.Hbond>
3.0000

> <Gold.PLP.Chemscore.CHOScore>
0.0000

> <Gold.PLP.Chemscore.Metal>
0.0000

> <Gold.Chemscore.Hbonds>
donor molecule, donor type, donor heavy atom, donor atom, acceptor molecule, acceptor atom, score
      P1  H  6896  6907       L1     9  2.00
      P1  H  7989  7998       L1    17  1.00

> <Gold.PLP.Chemscore.Internal.Correction>
0.0096

> <Gold.Rescore>
     Score         DG    S(hbond)    S(metal)    S(lipo)     H(rot)  DE(clash)    DE(int)     intcor
     12.06     -12.63       1.82        0.00      45.09       1.64       0.33       0.24       ----

> <Gold.Chemscore.Fitness>
12.0627

> <Gold.Chemscore.DG>
-12.6294

> <Gold.Chemscore.ZeroCoef>
-5.4800

> <Gold.Chemscore.Hbond>
1.8211

> <Gold.Chemscore.Metal>
0.0000

> <Gold.Chemscore.Lipo>
45.0893

> <Gold.Chemscore.Internal_Hbond>
0.0000

> <Gold.Chemscore.DEClash>
0.3310

> <Gold.Chemscore.DEInternal>
0.2357

> <Gold.Chemscore.Rot>
1.6439

> <Gold.Chemscore.Internal.Correction>
   9.000000E+99

> <Gold.Chemscore.Hbonds>
donor molecule, donor type, donor heavy atom, donor atom, acceptor molecule, acceptor atom, score
      P1  H  6896  6907       L1     9  0.25
      P1  H  7989  7998       L1    17  0.50

> <Gold.Chemscore.Hbond.Weighted>
-6.0824

> <Gold.Chemscore.Metal.Weighted>
-0.0000

> <Gold.Chemscore.Lipo.Weighted>
-5.2755

> <Gold.Chemscore.Internal_Hbond.Weighted>
0.0000

> <Gold.Chemscore.DEClash.Weighted>
0.3310

> <Gold.Chemscore.DEInternal.Weighted>
0.2357

> <Gold.Chemscore.Rot.Weighted>
4.2085

> <Gold.Chemscore.Internal.Correction.Weighted>
   9.000000E+99

> <Gold.Protein.RotatedTorsions>
[ 6907 6896 6895 6894 ] final   30.53 input  -60.11 | X-H torsion
[ 7974 7965 7964 7962 ] final   32.78 input  175.53 | X-H torsion
[ 8008 7997 7996 7995 ] final -110.13 input   59.86 | X-H torsion
[ 10167 10162 10161 10158 ] final  143.34 input  -65.29 | X-H torsion
[ 10718 10713 10712 10709 ] final -128.61 input   66.30 | X-H torsion
[ 10763 10752 10751 10750 ] final -135.85 input  -60.55 | X-H torsion
[ 11005 11000 10999 10996 ] final  -74.00 input  -57.11 | X-H torsion

> <Gold.Protein.ActiveResidues>
 VAL166  LYS551  ARG553  GLY616  TRP617  ASP618  TYR619  PRO620  LYS621  CYS622 
 ASP623  PHE694  ASN695  SER759  ASP760  ASP761  ALA762  ILE779  LEU786  VAL792 
 PHE793  MET794  SER795  GLU796  ALA797  LYS798  CYS799  TRP800  GLU811  SER814 

> <Gold.Protein.RotatedAtoms>
  152.0473  134.9675  160.0574 H   0  0  0  0  0  0  0  0  0  0  0  0  # atno 6907 bound_to 6896
  152.1090  133.4286  159.4630 H   0  0  0  0  0  0  0  0  0  0  0  0  # atno 6908 bound_to 6896
  150.6842  134.2589  159.4584 H   0  0  0  0  0  0  0  0  0  0  0  0  # atno 6909 bound_to 6896
  146.1464  139.6481  142.9128 H   0  0  0  0  0  0  0  0  0  0  0  0  # atno 7974 bound_to 7965
  154.9699  140.0398  157.2229 H   0  0  0  0  0  0  0  0  0  0  0  0  # atno 8008 bound_to 7997
  154.7811  140.2819  155.6041 H   0  0  0  0  0  0  0  0  0  0  0  0  # atno 8009 bound_to 7997
  156.2936  140.2591  156.2636 H   0  0  0  0  0  0  0  0  0  0  0  0  # atno 8010 bound_to 7997
  139.4972  144.6047  151.6405 H   0  0  0  0  0  0  0  0  0  0  0  0  # atno 10167 bound_to 10162
  156.1968  130.6831  151.0491 H   0  0  0  0  0  0  0  0  0  0  0  0  # atno 10718 bound_to 10713
  154.8695  135.3691  154.4965 H   0  0  0  0  0  0  0  0  0  0  0  0  # atno 10763 bound_to 10752
  153.5608  135.7023  153.5553 H   0  0  0  0  0  0  0  0  0  0  0  0  # atno 10764 bound_to 10752
  153.3630  135.4041  155.1696 H   0  0  0  0  0  0  0  0  0  0  0  0  # atno 10765 bound_to 10752
  141.1630  133.6897  156.7298 H   0  0  0  0  0  0  0  0  0  0  0  0  # atno 11005 bound_to 11000
  145.4928  141.0438  143.2584 LP  0  0  0  0  0  0  0  0  0  0  0  0  # atno 17320 bound_to 7965
  144.7851  139.6444  143.7137 LP  0  0  0  0  0  0  0  0  0  0  0  0  # atno 17321 bound_to 7965
  140.5705  144.0116  150.6214 LP  0  0  0  0  0  0  0  0  0  0  0  0  # atno 17342 bound_to 10162
  140.3232  143.3124  152.0763 LP  0  0  0  0  0  0  0  0  0  0  0  0  # atno 17343 bound_to 10162
  157.6962  131.0793  150.6961 LP  0  0  0  0  0  0  0  0  0  0  0  0  # atno 17370 bound_to 10713
  156.7018  130.4625  149.5571 LP  0  0  0  0  0  0  0  0  0  0  0  0  # atno 17371 bound_to 10713
  140.2754  134.8359  157.3885 LP  0  0  0  0  0  0  0  0  0  0  0  0  # atno 17394 bound_to 11000
  140.1483  134.4883  155.7980 LP  0  0  0  0  0  0  0  0  0  0  0  0  # atno 17395 bound_to 11000

$$$$
