AV-unprocessed.smi:1703|AV-procd|sdf|6861|dock2
  -GOLD-   22720 8 53D 1   1.00000     0.00000
 Structure written by MMmdl.
 49 51  0  0  0  0  0  0  0  0  2 V2000
  151.0660  133.2817  155.0716 C   0  0  0  0  0  0  0  0  0  0  0  0
  149.8725  134.1408  154.6400 C   0  0  2  0  0  0  0  0  0  0  0  0
  149.9844  135.5871  155.1557 C   0  0  0  0  0  0  0  0  0  0  0  0
  148.7720  136.3571  154.7894 N   0  3  2  0  0  0  0  0  0  0  0  0
  148.8445  137.7962  155.1491 C   0  0  0  0  0  0  0  0  0  0  0  0
  149.5191  138.6405  154.0503 C   0  0  1  0  0  0  0  0  0  0  0  0
  148.6290  138.7546  152.9559 O   0  0  0  0  0  0  0  0  0  0  0  0
  149.8968  140.0469  154.5575 C   0  0  0  0  0  0  0  0  0  0  0  0
  150.9804  140.0224  155.5317 N   0  0  0  0  0  0  0  0  0  0  0  0
  152.1490  139.3352  155.4685 C   0  0  0  0  0  0  0  0  0  0  0  0
  152.4922  138.4434  154.3150 C   0  0  0  0  0  0  0  0  0  0  0  0
  152.5682  137.0827  154.6822 O   0  0  0  0  0  0  0  0  0  0  0  0
  152.9750  139.4980  156.5023 N   0  0  0  0  0  0  0  0  0  0  0  0
  152.2760  140.3675  157.3164 C   0  0  0  0  0  0  0  0  0  0  0  0
  152.6170  140.9278  158.5682 C   0  0  0  0  0  0  0  0  0  0  0  0
  151.7294  141.8067  159.2225 C   0  0  0  0  0  0  0  0  0  0  0  0
  150.4900  142.1361  158.6368 C   0  0  0  0  0  0  0  0  0  0  0  0
  150.1303  141.5886  157.3903 C   0  0  0  0  0  0  0  0  0  0  0  0
  151.0210  140.7133  156.7397 C   0  0  0  0  0  0  0  0  0  0  0  0
  147.5608  135.6922  155.3242 C   0  0  0  0  0  0  0  0  0  0  0  0
  147.4779  134.2287  154.8476 C   0  0  1  0  0  0  0  0  0  0  0  0
  147.0941  134.0869  153.3637 C   0  0  0  0  0  0  0  0  0  0  0  0
  148.6890  133.5405  155.1610 O   0  0  0  0  0  0  0  0  0  0  0  0
  152.0024  133.6909  154.6914 H   0  0  0  0  0  0  0  0  0  0  0  0
  150.9703  132.2640  154.6918 H   0  0  0  0  0  0  0  0  0  0  0  0
  151.1409  133.2257  156.1579 H   0  0  0  0  0  0  0  0  0  0  0  0
  149.8361  134.1423  153.5506 H   0  0  0  0  0  0  0  0  0  0  0  0
  150.1081  135.5941  156.2398 H   0  0  0  0  0  0  0  0  0  0  0  0
  150.8735  136.0528  154.7319 H   0  0  0  0  0  0  0  0  0  0  0  0
  147.8387  138.1857  155.3159 H   0  0  0  0  0  0  0  0  0  0  0  0
  149.3728  137.9054  156.0975 H   0  0  0  0  0  0  0  0  0  0  0  0
  150.4207  138.1427  153.6960 H   0  0  0  0  0  0  0  0  0  0  0  0
  149.1297  138.9395  152.1756 H   0  0  0  0  0  0  0  0  0  0  0  0
  150.1962  140.6828  153.7233 H   0  0  0  0  0  0  0  0  0  0  0  0
  149.0303  140.5330  155.0058 H   0  0  0  0  0  0  0  0  0  0  0  0
  151.7566  138.5641  153.5205 H   0  0  0  0  0  0  0  0  0  0  0  0
  153.4543  138.7456  153.8998 H   0  0  0  0  0  0  0  0  0  0  0  0
  152.6952  137.0302  155.6171 H   0  0  0  0  0  0  0  0  0  0  0  0
  153.5639  140.6815  159.0253 H   0  0  0  0  0  0  0  0  0  0  0  0
  152.0009  142.2296  160.1787 H   0  0  0  0  0  0  0  0  0  0  0  0
  149.8160  142.8102  159.1450 H   0  0  0  0  0  0  0  0  0  0  0  0
  149.1822  141.8410  156.9404 H   0  0  0  0  0  0  0  0  0  0  0  0
  147.5898  135.7245  156.4146 H   0  0  0  0  0  0  0  0  0  0  0  0
  146.6650  136.2331  155.0157 H   0  0  0  0  0  0  0  0  0  0  0  0
  146.6936  133.7361  155.4231 H   0  0  0  0  0  0  0  0  0  0  0  0
  146.1048  134.5059  153.1791 H   0  0  0  0  0  0  0  0  0  0  0  0
  147.0666  133.0378  153.0679 H   0  0  0  0  0  0  0  0  0  0  0  0
  147.7906  134.6026  152.7030 H   0  0  0  0  0  0  0  0  0  0  0  0
  148.6913  136.3231  153.7827 H   0  0  0  0  0  0  0  0  0  0  0  0
  1  2  1  0  0  0  0
  1 24  1  0  0  0  0
  1 25  1  0  0  0  0
  1 26  1  0  0  0  0
  2 23  1  0  0  0  0
  2  3  1  0  0  0  0
  2 27  1  0  0  0  0
  3  4  1  0  0  0  0
  3 28  1  0  0  0  0
  3 29  1  0  0  0  0
  4  5  1  0  0  0  0
  4 20  1  0  0  0  0
  4 49  1  0  0  0  0
  5  6  1  0  0  0  0
  5 30  1  0  0  0  0
  5 31  1  0  0  0  0
  6  7  1  0  0  0  0
  6  8  1  0  0  0  0
  6 32  1  0  0  0  0
  7 33  1  0  0  0  0
  8  9  1  0  0  0  0
  8 34  1  0  0  0  0
  8 35  1  0  0  0  0
  9 19  1  0  0  0  0
  9 10  1  0  0  0  0
 10 11  1  0  0  0  0
 10 13  2  0  0  0  0
 11 12  1  0  0  0  0
 11 36  1  0  0  0  0
 11 37  1  0  0  0  0
 12 38  1  0  0  0  0
 13 14  1  0  0  0  0
 14 19  2  0  0  0  0
 14 15  1  0  0  0  0
 15 16  2  0  0  0  0
 15 39  1  0  0  0  0
 16 17  1  0  0  0  0
 16 40  1  0  0  0  0
 17 18  2  0  0  0  0
 17 41  1  0  0  0  0
 18 19  1  0  0  0  0
 18 42  1  0  0  0  0
 20 21  1  0  0  0  0
 20 43  1  0  0  0  0
 20 44  1  0  0  0  0
 21 22  1  0  0  0  0
 21 23  1  0  0  0  0
 21 45  1  0  0  0  0
 22 46  1  0  0  0  0
 22 47  1  0  0  0  0
 22 48  1  0  0  0  0
M  CHG  1   4   1
M  END
> <s_m_source_file>
AV-unprocessed.smi

> <i_m_source_file_index>
1703

> <i_lp_mmshare_version>
43012

> <i_f3d_flags>
0

> <s_epik_input>
W0NIM11bQ0BASF0xW0NIMl1OKFtDSDJdW0NASF0oTzEpW0NIM10pW0NIMl1bQ0BIXShbT0hdKVtDSDJdbihjKG4yKVtDSDJdW09IXSljKGMyMylbY0hdW2NIXVtjSF1bY0hdMw==

> <s_epik_cmdline>
J2VwaWtfcHl0aG9uJywgJy1waCcsICc3LjAnLCAnLXRuJywgJzgnLCAnLW1hJywgJzIwMCcsICctbWV0YWxfYmluZGluZycsICctaW1hZScsICc8aW5maWxlLm1hZT4nLCAnLW9tYWUnLCAnPG91dGZpbGUubWFlPic=

> <r_epik_Ionization_Penalty>
0.655661

> <r_epik_Ionization_Penalty_Charging>
0.608065

> <r_epik_Ionization_Penalty_Neutral>
0.0475963

> <r_epik_State_Penalty>
0.695267

> <r_epik_Charging_Adjusted_Penalty>
1.30333

> <i_epik_Tot_Q>
1

> <i_epik_Tot_abs_Q>
1

> <r_epik_Metal_State_Penalty>
0.653591

> <b_epik_Metal_Only>
0

> <s_lp_Force_Field>
OPLS_2005

> <r_lp_Energy>
24.4185

> <b_lp_Chiralities_Consistent>
1

> <s_lp_Variant>
AV-unprocessed.smi:1703-9

> <Gold.Version>
5.8.1

> <Gold.Id.Protein>
6NUR|6NUR_protein|mol2

> <Gold.PLP.Fitness>
49.4486

> <Gold.PLP.PLP>
-36.7771

> <Gold.PLP.part.hbond>
-4.1799

> <Gold.PLP.part.metal>
0.0000

> <Gold.PLP.part.buried>
-4.1039

> <Gold.PLP.part.nonpolar>
-28.4721

> <Gold.PLP.part.repulsive>
0.0391

> <Gold.PLP.ligand.clash>
0.2883

> <Gold.PLP.ligand.torsion>
0.7082

> <Gold.PLP.Chemscore.Hbond>
4.7664

> <Gold.PLP.Chemscore.CHOScore>
0.0000

> <Gold.PLP.Chemscore.Metal>
0.0000

> <Gold.Chemscore.Hbonds>
donor molecule, donor type, donor heavy atom, donor atom, acceptor molecule, acceptor atom, score
      L1  H     4    49       P1  7948  2.00
      L1  H     7    33       P1  7957  0.96
      P1  H  7997  8010       L1    13  0.91
      P1  H 10752 10765       L1    12  0.48

> <Gold.PLP.Chemscore.Internal.Correction>
0.0771

> <Gold.Rescore>
     Score         DG    S(hbond)    S(metal)    S(lipo)     H(rot)  DE(clash)    DE(int)     intcor
     15.86     -17.75       3.11        0.00      81.00       2.96       0.13       1.77       ----

> <Gold.Chemscore.Fitness>
15.8556

> <Gold.Chemscore.DG>
-17.7524

> <Gold.Chemscore.ZeroCoef>
-5.4800

> <Gold.Chemscore.Hbond>
3.1064

> <Gold.Chemscore.Metal>
0.0000

> <Gold.Chemscore.Lipo>
81.0020

> <Gold.Chemscore.Internal_Hbond>
0.0000

> <Gold.Chemscore.DEClash>
0.1311

> <Gold.Chemscore.DEInternal>
1.7657

> <Gold.Chemscore.Rot>
2.9611

> <Gold.Chemscore.Internal.Correction>
   9.000000E+99

> <Gold.Chemscore.Hbonds>
donor molecule, donor type, donor heavy atom, donor atom, acceptor molecule, acceptor atom, score
      L1  H     4    49       P1  7948  0.99
      L1  H     7    33       P1  7957  0.78
      P1  H  7997  8010       L1    13  0.39
      P1  H 10752 10765       L1    12  0.08

> <Gold.Chemscore.Hbond.Weighted>
-10.3755

> <Gold.Chemscore.Metal.Weighted>
-0.0000

> <Gold.Chemscore.Lipo.Weighted>
-9.4772

> <Gold.Chemscore.Internal_Hbond.Weighted>
0.0000

> <Gold.Chemscore.DEClash.Weighted>
0.1311

> <Gold.Chemscore.DEInternal.Weighted>
1.7657

> <Gold.Chemscore.Rot.Weighted>
7.5803

> <Gold.Chemscore.Internal.Correction.Weighted>
   9.000000E+99

> <Gold.Protein.RotatedTorsions>
[ 6907 6896 6895 6894 ] final -178.17 input  -60.11 | X-H torsion
[ 7974 7965 7964 7962 ] final   82.84 input  175.53 | X-H torsion
[ 8008 7997 7996 7995 ] final   73.85 input   59.86 | X-H torsion
[ 10167 10162 10161 10158 ] final   30.73 input  -65.29 | X-H torsion
[ 10718 10713 10712 10709 ] final -166.15 input   66.30 | X-H torsion
[ 10763 10752 10751 10750 ] final  165.81 input  -60.55 | X-H torsion
[ 11005 11000 10999 10996 ] final   22.75 input  -57.11 | X-H torsion

> <Gold.Protein.ActiveResidues>
 VAL166  LYS551  ARG553  GLY616  TRP617  ASP618  TYR619  PRO620  LYS621  CYS622 
 ASP623  PHE694  ASN695  SER759  ASP760  ASP761  ALA762  ILE779  LEU786  VAL792 
 PHE793  MET794  SER795  GLU796  ALA797  LYS798  CYS799  TRP800  GLU811  SER814 

> <Gold.Protein.RotatedAtoms>
  151.6329  133.3331  159.3112 H   0  0  0  0  0  0  0  0  0  0  0  0  # atno 6907 bound_to 6896
  150.8047  134.7168  159.6645 H   0  0  0  0  0  0  0  0  0  0  0  0  # atno 6908 bound_to 6896
  152.4142  134.6076  160.0068 H   0  0  0  0  0  0  0  0  0  0  0  0  # atno 6909 bound_to 6896
  145.6198  139.2384  143.2145 H   0  0  0  0  0  0  0  0  0  0  0  0  # atno 7974 bound_to 7965
  155.7897  140.3479  155.5342 H   0  0  0  0  0  0  0  0  0  0  0  0  # atno 8008 bound_to 7997
  155.8646  140.0977  157.1611 H   0  0  0  0  0  0  0  0  0  0  0  0  # atno 8009 bound_to 7997
  154.4014  140.1352  156.3990 H   0  0  0  0  0  0  0  0  0  0  0  0  # atno 8010 bound_to 7997
  140.4651  144.0847  150.6222 H   0  0  0  0  0  0  0  0  0  0  0  0  # atno 10167 bound_to 10162
  156.6638  130.9056  151.3033 H   0  0  0  0  0  0  0  0  0  0  0  0  # atno 10718 bound_to 10713
  154.3296  135.2755  155.2478 H   0  0  0  0  0  0  0  0  0  0  0  0  # atno 10763 bound_to 10752
  154.4796  135.5862  153.6383 H   0  0  0  0  0  0  0  0  0  0  0  0  # atno 10764 bound_to 10752
  152.9868  135.6108  154.3487 H   0  0  0  0  0  0  0  0  0  0  0  0  # atno 10765 bound_to 10752
  140.3771  134.1960  155.7664 H   0  0  0  0  0  0  0  0  0  0  0  0  # atno 11005 bound_to 11000
  146.1440  140.7019  142.9354 LP  0  0  0  0  0  0  0  0  0  0  0  0  # atno 17320 bound_to 7965
  144.7235  140.4452  143.6990 LP  0  0  0  0  0  0  0  0  0  0  0  0  # atno 17321 bound_to 7965
  140.4045  143.2687  151.9907 LP  0  0  0  0  0  0  0  0  0  0  0  0  # atno 17342 bound_to 10162
  139.4811  144.5969  151.7675 LP  0  0  0  0  0  0  0  0  0  0  0  0  # atno 17343 bound_to 10162
  157.7101  130.9430  150.1059 LP  0  0  0  0  0  0  0  0  0  0  0  0  # atno 17370 bound_to 10713
  156.1991  130.3659  149.8811 LP  0  0  0  0  0  0  0  0  0  0  0  0  # atno 17371 bound_to 10713
  141.1936  133.8148  157.0793 LP  0  0  0  0  0  0  0  0  0  0  0  0  # atno 17394 bound_to 11000
  140.0507  134.9807  157.1131 LP  0  0  0  0  0  0  0  0  0  0  0  0  # atno 17395 bound_to 11000

$$$$
