AV-unprocessed.smi:2850|AV-procd|sdf|10969|dock5
  -GOLD-   2272015423D 1   1.00000     0.00000
 Structure written by MMmdl.
 44 45  0  0  0  0  0  0  0  0  1 V2000
  142.3684  137.1813  153.0870 C   0  0  0  0  0  0  0  0  0  0  0  0
  143.8331  136.6173  153.9978 S   0  0  0  0  0  0  0  0  0  0  0  0
  145.1484  137.7351  153.6182 C   0  0  0  0  0  0  0  0  0  0  0  0
  145.7104  137.7688  152.3294 C   0  0  0  0  0  0  0  0  0  0  0  0
  146.7527  138.6865  152.1112 C   0  0  0  0  0  0  0  0  0  0  0  0
  147.1495  139.4973  153.1940 C   0  0  0  0  0  0  0  0  0  0  0  0
  148.1867  140.4198  153.0050 N   0  0  0  0  0  0  0  0  0  0  0  0
  148.5733  141.3318  154.0723 C   0  0  0  0  0  0  0  0  0  0  0  0
  149.4168  140.6253  155.1418 C   0  0  2  0  0  0  0  0  0  0  0  0
  150.1273  141.6347  156.0649 C   0  0  0  0  0  0  0  0  0  0  0  0
  150.9926  140.9777  157.0389 N   0  0  0  0  0  0  0  0  0  0  0  0
  151.6393  141.9616  157.9094 C   0  0  0  0  0  0  0  0  0  0  0  0
  151.9847  141.4774  159.3343 C   0  0  0  0  0  0  0  0  0  0  0  0
  152.5095  142.6234  160.2148 C   0  0  0  0  0  0  0  0  0  0  0  0
  153.0064  140.3324  159.2782 C   0  0  0  0  0  0  0  0  0  0  0  0
  151.9509  140.1355  156.3269 C   0  0  0  0  0  0  0  0  0  0  0  0
  151.2501  139.1354  155.3921 C   0  0  0  0  0  0  0  0  0  0  0  0
  150.4085  139.8389  154.4853 O   0  0  0  0  0  0  0  0  0  0  0  0
  146.5586  139.4069  154.4129 N   0  0  0  0  0  0  0  0  0  0  0  0
  145.5665  138.5349  154.6252 N   0  0  0  0  0  0  0  0  0  0  0  0
  141.5243  136.5221  153.2892 H   0  0  0  0  0  0  0  0  0  0  0  0
  142.5597  137.1764  152.0138 H   0  0  0  0  0  0  0  0  0  0  0  0
  142.0959  138.1924  153.3901 H   0  0  0  0  0  0  0  0  0  0  0  0
  145.3588  137.1193  151.5414 H   0  0  0  0  0  0  0  0  0  0  0  0
  147.2295  138.7638  151.1451 H   0  0  0  0  0  0  0  0  0  0  0  0
  148.5884  140.5465  152.0874 H   0  0  0  0  0  0  0  0  0  0  0  0
  149.1244  142.1765  153.6566 H   0  0  0  0  0  0  0  0  0  0  0  0
  147.6669  141.7308  154.5294 H   0  0  0  0  0  0  0  0  0  0  0  0
  148.7747  139.9775  155.7419 H   0  0  0  0  0  0  0  0  0  0  0  0
  150.7137  142.3289  155.4604 H   0  0  0  0  0  0  0  0  0  0  0  0
  149.3780  142.2329  156.5848 H   0  0  0  0  0  0  0  0  0  0  0  0
  152.5461  142.3259  157.4237 H   0  0  0  0  0  0  0  0  0  0  0  0
  150.9878  142.8315  158.0045 H   0  0  0  0  0  0  0  0  0  0  0  0
  151.0895  141.0719  159.8044 H   0  0  0  0  0  0  0  0  0  0  0  0
  153.4098  143.0690  159.7906 H   0  0  0  0  0  0  0  0  0  0  0  0
  152.7534  142.2693  161.2168 H   0  0  0  0  0  0  0  0  0  0  0  0
  151.7662  143.4138  160.3218 H   0  0  0  0  0  0  0  0  0  0  0  0
  153.9452  140.6602  158.8308 H   0  0  0  0  0  0  0  0  0  0  0  0
  152.6293  139.4978  158.6868 H   0  0  0  0  0  0  0  0  0  0  0  0
  153.2281  139.9533  160.2763 H   0  0  0  0  0  0  0  0  0  0  0  0
  152.6304  140.7593  155.7441 H   0  0  0  0  0  0  0  0  0  0  0  0
  152.5641  139.5760  157.0318 H   0  0  0  0  0  0  0  0  0  0  0  0
  151.9869  138.5656  154.8258 H   0  0  0  0  0  0  0  0  0  0  0  0
  150.6605  138.4181  155.9649 H   0  0  0  0  0  0  0  0  0  0  0  0
  1  2  1  0  0  0  0
  1 21  1  0  0  0  0
  1 22  1  0  0  0  0
  1 23  1  0  0  0  0
  2  3  1  0  0  0  0
  3 20  1  0  0  0  0
  3  4  2  0  0  0  0
  4  5  1  0  0  0  0
  4 24  1  0  0  0  0
  5  6  2  0  0  0  0
  5 25  1  0  0  0  0
  6  7  1  0  0  0  0
  6 19  1  0  0  0  0
  7  8  1  0  0  0  0
  7 26  1  0  0  0  0
  8  9  1  0  0  0  0
  8 27  1  0  0  0  0
  8 28  1  0  0  0  0
  9 18  1  0  0  0  0
  9 10  1  0  0  0  0
  9 29  1  0  0  0  0
 10 11  1  0  0  0  0
 10 30  1  0  0  0  0
 10 31  1  0  0  0  0
 11 12  1  0  0  0  0
 11 16  1  0  0  0  0
 12 13  1  0  0  0  0
 12 32  1  0  0  0  0
 12 33  1  0  0  0  0
 13 14  1  0  0  0  0
 13 15  1  0  0  0  0
 13 34  1  0  0  0  0
 14 35  1  0  0  0  0
 14 36  1  0  0  0  0
 14 37  1  0  0  0  0
 15 38  1  0  0  0  0
 15 39  1  0  0  0  0
 15 40  1  0  0  0  0
 16 17  1  0  0  0  0
 16 41  1  0  0  0  0
 16 42  1  0  0  0  0
 17 18  1  0  0  0  0
 17 43  1  0  0  0  0
 17 44  1  0  0  0  0
 19 20  2  0  0  0  0
M  END
> <s_m_source_file>
AV-unprocessed.smi

> <i_m_source_file_index>
2850

> <i_lp_mmshare_version>
43012

> <i_f3d_flags>
0

> <s_epik_input>
W0NIM11TYzFbY0hdW2NIXWMobm4xKVtOSF1bQ0gyXVtDQEBIXTJbQ0gyXU4oW0NIMl1bQ0gyXU8yKVtDSDJdW0NIXShbQ0gzXSlbQ0gzXQ==

> <s_epik_cmdline>
J2VwaWtfcHl0aG9uJywgJy1waCcsICc3LjAnLCAnLXRuJywgJzgnLCAnLW1hJywgJzIwMCcsICctbWV0YWxfYmluZGluZycsICctaW1hZScsICc8aW5maWxlLm1hZT4nLCAnLW9tYWUnLCAnPG91dGZpbGUubWFlPic=

> <r_lp_tautomer_probability>
0.999978

> <r_epik_Ionization_Penalty>
1.20939

> <r_epik_Ionization_Penalty_Charging>
0

> <r_epik_Ionization_Penalty_Neutral>
1.20939

> <r_epik_State_Penalty>
1.27042

> <r_epik_Charging_Adjusted_Penalty>
1.27042

> <i_epik_Tot_Q>
0

> <i_epik_Tot_abs_Q>
0

> <r_epik_Metal_State_Penalty>
1.26998

> <b_epik_Metal_Only>
0

> <s_lp_Force_Field>
OPLS_2005

> <r_lp_Energy>
30.5151

> <b_lp_Chiralities_Consistent>
1

> <s_lp_Variant>
AV-unprocessed.smi:2850-5

> <Gold.Version>
5.8.1

> <Gold.Id.Protein>
6NUR|6NUR_protein|mol2

> <Gold.PLP.Fitness>
40.7525

> <Gold.PLP.PLP>
-36.4650

> <Gold.PLP.part.hbond>
-1.5692

> <Gold.PLP.part.metal>
0.0000

> <Gold.PLP.part.buried>
-5.1109

> <Gold.PLP.part.nonpolar>
-30.9925

> <Gold.PLP.part.repulsive>
0.4531

> <Gold.PLP.ligand.clash>
0.0000

> <Gold.PLP.ligand.torsion>
0.6438

> <Gold.PLP.Chemscore.Hbond>
1.8320

> <Gold.PLP.Chemscore.CHOScore>
0.0000

> <Gold.PLP.Chemscore.Metal>
0.0000

> <Gold.Chemscore.Hbonds>
donor molecule, donor type, donor heavy atom, donor atom, acceptor molecule, acceptor atom, score
      L1  H     7    26       P1  7957  0.74
      P1  H  7989  7998       L1    18  1.00

> <Gold.PLP.Chemscore.Internal.Correction>
0.0791

> <Gold.Rescore>
     Score         DG    S(hbond)    S(metal)    S(lipo)     H(rot)  DE(clash)    DE(int)     intcor
     16.65     -17.25       1.41        0.00      94.35       1.55       0.01       0.59       ----

> <Gold.Chemscore.Fitness>
16.6535

> <Gold.Chemscore.DG>
-17.2541

> <Gold.Chemscore.ZeroCoef>
-5.4800

> <Gold.Chemscore.Hbond>
1.4060

> <Gold.Chemscore.Metal>
0.0000

> <Gold.Chemscore.Lipo>
94.3519

> <Gold.Chemscore.Internal_Hbond>
0.0000

> <Gold.Chemscore.DEClash>
0.0067

> <Gold.Chemscore.DEInternal>
0.5939

> <Gold.Chemscore.Rot>
1.5473

> <Gold.Chemscore.Internal.Correction>
   9.000000E+99

> <Gold.Chemscore.Hbonds>
donor molecule, donor type, donor heavy atom, donor atom, acceptor molecule, acceptor atom, score
      L1  H     7    26       P1  7957  0.69
      P1  H  7989  7998       L1    18  0.34

> <Gold.Chemscore.Hbond.Weighted>
-4.6959

> <Gold.Chemscore.Metal.Weighted>
-0.0000

> <Gold.Chemscore.Lipo.Weighted>
-11.0392

> <Gold.Chemscore.Internal_Hbond.Weighted>
0.0000

> <Gold.Chemscore.DEClash.Weighted>
0.0067

> <Gold.Chemscore.DEInternal.Weighted>
0.5939

> <Gold.Chemscore.Rot.Weighted>
3.9610

> <Gold.Chemscore.Internal.Correction.Weighted>
   9.000000E+99

> <Gold.Protein.RotatedTorsions>
[ 6907 6896 6895 6894 ] final  139.25 input  -60.11 | X-H torsion
[ 7974 7965 7964 7962 ] final   71.89 input  175.53 | X-H torsion
[ 8008 7997 7996 7995 ] final  -27.42 input   59.86 | X-H torsion
[ 10167 10162 10161 10158 ] final   46.69 input  -65.29 | X-H torsion
[ 10718 10713 10712 10709 ] final   30.35 input   66.30 | X-H torsion
[ 10763 10752 10751 10750 ] final  -83.51 input  -60.55 | X-H torsion
[ 11005 11000 10999 10996 ] final   29.54 input  -57.11 | X-H torsion

> <Gold.Protein.ActiveResidues>
 VAL166  LYS551  ARG553  GLY616  TRP617  ASP618  TYR619  PRO620  LYS621  CYS622 
 ASP623  PHE694  ASN695  SER759  ASP760  ASP761  ALA762  ILE779  LEU786  VAL792 
 PHE793  MET794  SER795  GLU796  ALA797  LYS798  CYS799  TRP800  GLU811  SER814 

> <Gold.Protein.RotatedAtoms>
  152.2571  133.5265  159.5359 H   0  0  0  0  0  0  0  0  0  0  0  0  # atno 6907 bound_to 6896
  150.7112  134.0881  159.3931 H   0  0  0  0  0  0  0  0  0  0  0  0  # atno 6908 bound_to 6896
  151.8800  135.0457  160.0538 H   0  0  0  0  0  0  0  0  0  0  0  0  # atno 6909 bound_to 6896
  145.7602  139.2797  143.1381 H   0  0  0  0  0  0  0  0  0  0  0  0  # atno 7974 bound_to 7965
  154.4378  140.1873  156.0929 H   0  0  0  0  0  0  0  0  0  0  0  0  # atno 8008 bound_to 7997
  156.0352  140.3326  155.7157 H   0  0  0  0  0  0  0  0  0  0  0  0  # atno 8009 bound_to 7997
  155.5781  140.0619  157.2781 H   0  0  0  0  0  0  0  0  0  0  0  0  # atno 8010 bound_to 7997
  140.3113  144.2817  150.6199 H   0  0  0  0  0  0  0  0  0  0  0  0  # atno 10167 bound_to 10162
  157.2584  130.7149  149.6441 H   0  0  0  0  0  0  0  0  0  0  0  0  # atno 10718 bound_to 10713
  154.5886  135.5553  153.7256 H   0  0  0  0  0  0  0  0  0  0  0  0  # atno 10763 bound_to 10752
  153.0108  135.6337  154.1881 H   0  0  0  0  0  0  0  0  0  0  0  0  # atno 10764 bound_to 10752
  154.1822  135.2886  155.3028 H   0  0  0  0  0  0  0  0  0  0  0  0  # atno 10765 bound_to 10752
  140.3039  134.2726  155.7748 H   0  0  0  0  0  0  0  0  0  0  0  0  # atno 11005 bound_to 11000
  146.0272  140.8292  142.9894 LP  0  0  0  0  0  0  0  0  0  0  0  0  # atno 17320 bound_to 7965
  144.6832  140.2715  143.7305 LP  0  0  0  0  0  0  0  0  0  0  0  0  # atno 17321 bound_to 7965
  140.5565  143.2198  151.7838 LP  0  0  0  0  0  0  0  0  0  0  0  0  # atno 17342 bound_to 10162
  139.4893  144.4406  151.9769 LP  0  0  0  0  0  0  0  0  0  0  0  0  # atno 17343 bound_to 10162
  155.9664  130.4405  150.5302 LP  0  0  0  0  0  0  0  0  0  0  0  0  # atno 17370 bound_to 10713
  157.3202  131.0680  151.1938 LP  0  0  0  0  0  0  0  0  0  0  0  0  # atno 17371 bound_to 10713
  141.2122  133.7664  156.9807 LP  0  0  0  0  0  0  0  0  0  0  0  0  # atno 17394 bound_to 11000
  140.1085  134.9491  157.2030 LP  0  0  0  0  0  0  0  0  0  0  0  0  # atno 17395 bound_to 11000

$$$$
