AV-unprocessed.smi:2125|AV-procd|sdf|8674|dock7
  -GOLD-   2272011423D 1   1.00000     0.00000
 Structure written by MMmdl.
 32 33  0  0  0  0  0  0  0  0  1 V2000
  150.7947  137.6741  154.7135 C   0  0  0  0  0  0  0  0  0  0  0  0
  150.7977  138.3550  155.9914 N   0  0  0  0  0  0  0  0  0  0  0  0
  151.1898  137.6463  157.1531 C   0  0  0  0  0  0  0  0  0  0  0  0
  151.5337  136.4643  157.1273 O   0  0  0  0  0  0  0  0  0  0  0  0
  151.1520  138.4333  158.3800 C   0  0  0  0  0  0  0  0  0  0  0  0
  150.7692  139.7289  158.3629 C   0  0  0  0  0  0  0  0  0  0  0  0
  150.3915  140.3972  157.2126 N   0  0  0  0  0  0  0  0  0  0  0  0
  149.9778  141.8042  157.2906 C   0  0  0  0  0  0  0  0  0  0  0  0
  151.0173  142.7018  157.9762 C   0  0  0  0  0  0  0  0  0  0  0  0
  151.8921  142.2179  158.6959 O   0  0  0  0  0  0  0  0  0  0  0  0
  150.9180  144.0151  157.7224 N   0  0  0  0  0  0  0  0  0  0  0  0
  151.8112  145.0376  158.2510 C   0  0  0  0  0  0  0  0  0  0  0  0
  151.5394  145.4423  159.6877 C   0  0  0  0  0  0  0  0  0  0  0  0
  151.6605  144.4463  160.8186 C   0  0  0  0  0  0  0  0  0  0  0  0
  150.3009  144.9483  160.3983 C   0  0  0  0  0  0  0  0  0  0  0  0
  150.3965  139.7087  155.9809 C   0  0  0  0  0  0  0  0  0  0  0  0
  150.0601  140.2778  154.9391 O   0  0  0  0  0  0  0  0  0  0  0  0
  151.1219  136.6398  154.8123 H   0  0  0  0  0  0  0  0  0  0  0  0
  151.4778  138.2161  154.0568 H   0  0  0  0  0  0  0  0  0  0  0  0
  149.7714  137.7032  154.3350 H   0  0  0  0  0  0  0  0  0  0  0  0
  151.4335  137.9721  159.3152 H   0  0  0  0  0  0  0  0  0  0  0  0
  150.7548  140.2675  159.2994 H   0  0  0  0  0  0  0  0  0  0  0  0
  149.8018  142.1942  156.2873 H   0  0  0  0  0  0  0  0  0  0  0  0
  149.0207  141.8857  157.8093 H   0  0  0  0  0  0  0  0  0  0  0  0
  150.1716  144.3278  157.1183 H   0  0  0  0  0  0  0  0  0  0  0  0
  152.8270  144.6458  158.1965 H   0  0  0  0  0  0  0  0  0  0  0  0
  151.7905  145.9202  157.6090 H   0  0  0  0  0  0  0  0  0  0  0  0
  151.8262  146.4675  159.9148 H   0  0  0  0  0  0  0  0  0  0  0  0
  151.9169  143.4194  160.5658 H   0  0  0  0  0  0  0  0  0  0  0  0
  152.0622  144.8074  161.7631 H   0  0  0  0  0  0  0  0  0  0  0  0
  149.7933  145.6430  161.0645 H   0  0  0  0  0  0  0  0  0  0  0  0
  149.6530  144.2541  159.8664 H   0  0  0  0  0  0  0  0  0  0  0  0
  1  2  1  0  0  0  0
  1 18  1  0  0  0  0
  1 19  1  0  0  0  0
  1 20  1  0  0  0  0
  2 16  1  0  0  0  0
  2  3  1  0  0  0  0
  3  4  2  0  0  0  0
  3  5  1  0  0  0  0
  5  6  2  0  0  0  0
  5 21  1  0  0  0  0
  6  7  1  0  0  0  0
  6 22  1  0  0  0  0
  7  8  1  0  0  0  0
  7 16  1  0  0  0  0
  8  9  1  0  0  0  0
  8 23  1  0  0  0  0
  8 24  1  0  0  0  0
  9 10  2  0  0  0  0
  9 11  1  0  0  0  0
 11 12  1  0  0  0  0
 11 25  1  0  0  0  0
 12 13  1  0  0  0  0
 12 26  1  0  0  0  0
 12 27  1  0  0  0  0
 13 15  1  0  0  0  0
 13 14  1  0  0  0  0
 13 28  1  0  0  0  0
 14 15  1  0  0  0  0
 14 29  1  0  0  0  0
 14 30  1  0  0  0  0
 15 31  1  0  0  0  0
 15 32  1  0  0  0  0
 16 17  2  0  0  0  0
M  END
> <s_m_source_file>
AV-unprocessed.smi

> <i_m_source_file_index>
2125

> <i_lp_mmshare_version>
43012

> <i_f3d_flags>
0

> <s_epik_input>
W0NIM11uMWMoPU8pW2NIXVtjSF1uKGMxPU8pW0NIMl1DKD1PKVtOSF1bQ0gyXVtDSF0yW0NIMl1bQ0gyXTI=

> <s_epik_cmdline>
J2VwaWtfcHl0aG9uJywgJy1waCcsICc3LjAnLCAnLXRuJywgJzgnLCAnLW1hJywgJzIwMCcsICctbWV0YWxfYmluZGluZycsICctaW1hZScsICc8aW5maWxlLm1hZT4nLCAnLW9tYWUnLCAnPG91dGZpbGUubWFlPic=

> <r_lp_tautomer_probability>
1

> <r_epik_Ionization_Penalty>
3.09839e-08

> <r_epik_Ionization_Penalty_Charging>
1.16822e-08

> <r_epik_Ionization_Penalty_Neutral>
1.93017e-08

> <r_epik_State_Penalty>
-0

> <r_epik_Charging_Adjusted_Penalty>
1.16822e-08

> <i_epik_Tot_Q>
0

> <i_epik_Tot_abs_Q>
0

> <r_epik_Metal_State_Penalty>
-0

> <b_epik_Metal_Only>
0

> <s_lp_Force_Field>
OPLS_2005

> <r_lp_Energy>
19.7621

> <b_lp_Chiralities_Consistent>
1

> <s_lp_Variant>
AV-unprocessed.smi:2125-1

> <Gold.Version>
5.8.1

> <Gold.Id.Protein>
6NUR|6NUR_protein|mol2

> <Gold.PLP.Fitness>
43.0523

> <Gold.PLP.PLP>
-35.1087

> <Gold.PLP.part.hbond>
-3.0000

> <Gold.PLP.part.metal>
0.0000

> <Gold.PLP.part.buried>
-6.3695

> <Gold.PLP.part.nonpolar>
-26.4108

> <Gold.PLP.part.repulsive>
0.1303

> <Gold.PLP.ligand.clash>
0.0000

> <Gold.PLP.ligand.torsion>
0.7987

> <Gold.PLP.Chemscore.Hbond>
3.0000

> <Gold.PLP.Chemscore.CHOScore>
0.0000

> <Gold.PLP.Chemscore.Metal>
0.0000

> <Gold.Chemscore.Hbonds>
donor molecule, donor type, donor heavy atom, donor atom, acceptor molecule, acceptor atom, score
      L1  H    11    25       P1  8028  1.00
      P1  H  7989  7998       L1    17  0.55

> <Gold.PLP.Chemscore.Internal.Correction>
0.5411

> <Gold.Rescore>
     Score         DG    S(hbond)    S(metal)    S(lipo)     H(rot)  DE(clash)    DE(int)     intcor
     16.44     -18.67       2.93        0.00      68.82       1.81       0.00       2.23       ----

> <Gold.Chemscore.Fitness>
16.4362

> <Gold.Chemscore.DG>
-18.6663

> <Gold.Chemscore.ZeroCoef>
-5.4800

> <Gold.Chemscore.Hbond>
2.9256

> <Gold.Chemscore.Metal>
0.0000

> <Gold.Chemscore.Lipo>
68.8170

> <Gold.Chemscore.Internal_Hbond>
0.0000

> <Gold.Chemscore.DEClash>
0.0048

> <Gold.Chemscore.DEInternal>
2.2253

> <Gold.Chemscore.Rot>
1.8112

> <Gold.Chemscore.Internal.Correction>
   9.000000E+99

> <Gold.Chemscore.Hbonds>
donor molecule, donor type, donor heavy atom, donor atom, acceptor molecule, acceptor atom, score
      L1  H    11    25       P1  8028  0.74
      P1  H  7989  7998       L1    17  0.52

> <Gold.Chemscore.Hbond.Weighted>
-9.7715

> <Gold.Chemscore.Metal.Weighted>
-0.0000

> <Gold.Chemscore.Lipo.Weighted>
-8.0516

> <Gold.Chemscore.Internal_Hbond.Weighted>
0.0000

> <Gold.Chemscore.DEClash.Weighted>
0.0048

> <Gold.Chemscore.DEInternal.Weighted>
2.2253

> <Gold.Chemscore.Rot.Weighted>
4.6367

> <Gold.Chemscore.Internal.Correction.Weighted>
   9.000000E+99

> <Gold.Protein.RotatedTorsions>
[ 6907 6896 6895 6894 ] final -130.21 input  -60.11 | X-H torsion
[ 7974 7965 7964 7962 ] final  -51.58 input  175.53 | X-H torsion
[ 8008 7997 7996 7995 ] final -100.42 input   59.86 | X-H torsion
[ 10167 10162 10161 10158 ] final   69.71 input  -65.29 | X-H torsion
[ 10718 10713 10712 10709 ] final  -27.43 input   66.30 | X-H torsion
[ 10763 10752 10751 10750 ] final -136.56 input  -60.55 | X-H torsion
[ 11005 11000 10999 10996 ] final   36.07 input  -57.11 | X-H torsion

> <Gold.Protein.ActiveResidues>
 VAL166  LYS551  ARG553  GLY616  TRP617  ASP618  TYR619  PRO620  LYS621  CYS622 
 ASP623  PHE694  ASN695  SER759  ASP760  ASP761  ALA762  ILE779  LEU786  VAL792 
 PHE793  MET794  SER795  GLU796  ALA797  LYS798  CYS799  TRP800  GLU811  SER814 

> <Gold.Protein.RotatedAtoms>
  150.9372  133.6698  159.2797 H   0  0  0  0  0  0  0  0  0  0  0  0  # atno 6907 bound_to 6896
  151.4099  135.0982  159.9591 H   0  0  0  0  0  0  0  0  0  0  0  0  # atno 6908 bound_to 6896
  152.5053  133.8848  159.7419 H   0  0  0  0  0  0  0  0  0  0  0  0  # atno 6909 bound_to 6896
  145.9174  140.7863  142.9664 H   0  0  0  0  0  0  0  0  0  0  0  0  # atno 7974 bound_to 7965
  154.8284  140.0441  157.1460 H   0  0  0  0  0  0  0  0  0  0  0  0  # atno 8008 bound_to 7997
  154.9180  140.3023  155.5211 H   0  0  0  0  0  0  0  0  0  0  0  0  # atno 8009 bound_to 7997
  156.2985  140.2346  156.4227 H   0  0  0  0  0  0  0  0  0  0  0  0  # atno 8010 bound_to 7997
  140.0648  144.5202  150.7269 H   0  0  0  0  0  0  0  0  0  0  0  0  # atno 10167 bound_to 10162
  156.4383  130.4459  149.7070 H   0  0  0  0  0  0  0  0  0  0  0  0  # atno 10718 bound_to 10713
  154.8681  135.3669  154.5081 H   0  0  0  0  0  0  0  0  0  0  0  0  # atno 10763 bound_to 10752
  153.5718  135.7020  153.5506 H   0  0  0  0  0  0  0  0  0  0  0  0  # atno 10764 bound_to 10752
  153.3535  135.4065  155.1627 H   0  0  0  0  0  0  0  0  0  0  0  0  # atno 10765 bound_to 10752
  140.2363  134.3468  155.7943 H   0  0  0  0  0  0  0  0  0  0  0  0  # atno 11005 bound_to 11000
  144.6749  140.1922  143.7395 LP  0  0  0  0  0  0  0  0  0  0  0  0  # atno 17320 bound_to 7965
  145.8593  139.2215  143.1726 LP  0  0  0  0  0  0  0  0  0  0  0  0  # atno 17321 bound_to 7965
  140.7154  143.2540  151.4450 LP  0  0  0  0  0  0  0  0  0  0  0  0  # atno 17342 bound_to 10162
  139.5872  144.1579  152.2043 LP  0  0  0  0  0  0  0  0  0  0  0  0  # atno 17343 bound_to 10162
  156.3945  130.7644  151.2647 LP  0  0  0  0  0  0  0  0  0  0  0  0  # atno 17370 bound_to 10713
  157.7507  131.0258  150.3934 LP  0  0  0  0  0  0  0  0  0  0  0  0  # atno 17371 bound_to 10713
  141.2214  133.7273  156.8812 LP  0  0  0  0  0  0  0  0  0  0  0  0  # atno 17394 bound_to 11000
  140.1699  134.9107  157.2820 LP  0  0  0  0  0  0  0  0  0  0  0  0  # atno 17395 bound_to 11000

$$$$
