AV-unprocessed.smi:646|AV-procd|sdf|3166|dock1
  -GOLD-   22720 0 83D 1   1.00000     0.00000
 Structure written by MMmdl.
 44 45  0  0  0  0  0  0  0  0  1 V2000
  144.4244  135.4631  150.5434 C   0  0  0  0  0  0  0  0  0  0  0  0
  144.8656  134.1771  150.1261 O   0  0  0  0  0  0  0  0  0  0  0  0
  144.8162  133.1189  151.0928 C   0  0  2  0  0  0  0  0  0  0  0  0
  143.3700  132.6598  151.3186 C   0  0  0  0  0  0  0  0  0  0  0  0
  145.6955  133.4696  152.3087 C   0  0  0  0  0  0  0  0  0  0  0  0
  146.8860  132.9505  151.5047 C   0  0  1  0  0  0  0  0  0  0  0  0
  147.8421  132.2160  152.3232 N   0  0  0  0  0  0  0  0  0  0  0  0
  148.2673  132.6119  153.5317 C   0  0  0  0  0  0  0  0  0  0  0  0
  147.8141  133.5895  154.1262 O   0  0  0  0  0  0  0  0  0  0  0  0
  149.4080  131.8020  154.1451 C   0  0  0  0  0  0  0  0  0  0  0  0
  149.7789  132.4063  155.4754 C   0  0  0  0  0  0  0  0  0  0  0  0
  149.8400  131.7588  156.7428 C   0  0  0  0  0  0  0  0  0  0  0  0
  149.5573  130.3208  157.0699 C   0  0  0  0  0  0  0  0  0  0  0  0
  150.1836  132.5942  157.7086 N   0  0  0  0  0  0  0  0  0  0  0  0
  150.3593  133.8378  157.0947 O   0  0  0  0  0  0  0  0  0  0  0  0
  150.1098  133.7012  155.7678 C   0  0  0  0  0  0  0  0  0  0  0  0
  150.2325  134.9337  154.9375 C   0  0  0  0  0  0  0  0  0  0  0  0
  145.8972  132.0545  150.7148 C   0  0  0  0  0  0  0  0  0  0  0  0
  145.6625  130.6321  151.2613 C   0  0  0  0  0  0  0  0  0  0  0  0
  146.1990  131.8808  149.2223 C   0  0  0  0  0  0  0  0  0  0  0  0
  144.6788  136.1929  149.7749 H   0  0  0  0  0  0  0  0  0  0  0  0
  144.8947  135.7836  151.4725 H   0  0  0  0  0  0  0  0  0  0  0  0
  143.3423  135.4928  150.6691 H   0  0  0  0  0  0  0  0  0  0  0  0
  143.3179  131.7931  151.9767 H   0  0  0  0  0  0  0  0  0  0  0  0
  142.8905  132.3856  150.3787 H   0  0  0  0  0  0  0  0  0  0  0  0
  142.7648  133.4331  151.7911 H   0  0  0  0  0  0  0  0  0  0  0  0
  145.7571  134.5262  152.5670 H   0  0  0  0  0  0  0  0  0  0  0  0
  145.4639  132.8651  153.1875 H   0  0  0  0  0  0  0  0  0  0  0  0
  147.3343  133.7367  150.8927 H   0  0  0  0  0  0  0  0  0  0  0  0
  148.2691  131.3996  151.9105 H   0  0  0  0  0  0  0  0  0  0  0  0
  149.0931  130.7635  154.2533 H   0  0  0  0  0  0  0  0  0  0  0  0
  150.2540  131.7925  153.4568 H   0  0  0  0  0  0  0  0  0  0  0  0
  150.0486  129.6548  156.3606 H   0  0  0  0  0  0  0  0  0  0  0  0
  148.4870  130.1176  157.0290 H   0  0  0  0  0  0  0  0  0  0  0  0
  149.9089  130.0562  158.0680 H   0  0  0  0  0  0  0  0  0  0  0  0
  149.6249  134.8601  154.0356 H   0  0  0  0  0  0  0  0  0  0  0  0
  151.2677  135.0929  154.6364 H   0  0  0  0  0  0  0  0  0  0  0  0
  149.9013  135.8113  155.4930 H   0  0  0  0  0  0  0  0  0  0  0  0
  146.5298  129.9900  151.1032 H   0  0  0  0  0  0  0  0  0  0  0  0
  144.8151  130.1511  150.7719 H   0  0  0  0  0  0  0  0  0  0  0  0
  145.4588  130.6296  152.3323 H   0  0  0  0  0  0  0  0  0  0  0  0
  147.0100  131.1705  149.0571 H   0  0  0  0  0  0  0  0  0  0  0  0
  146.5058  132.8171  148.7560 H   0  0  0  0  0  0  0  0  0  0  0  0
  145.3260  131.5180  148.6792 H   0  0  0  0  0  0  0  0  0  0  0  0
  1  2  1  0  0  0  0
  1 21  1  0  0  0  0
  1 22  1  0  0  0  0
  1 23  1  0  0  0  0
  2  3  1  0  0  0  0
  3 18  1  0  0  0  0
  3  4  1  0  0  0  0
  3  5  1  0  0  0  0
  4 24  1  0  0  0  0
  4 25  1  0  0  0  0
  4 26  1  0  0  0  0
  5  6  1  0  0  0  0
  5 27  1  0  0  0  0
  5 28  1  0  0  0  0
  6  7  1  0  0  0  0
  6 18  1  0  0  0  0
  6 29  1  0  0  0  0
  7  8  1  0  0  0  0
  7 30  1  0  0  0  0
  8  9  2  0  0  0  0
  8 10  1  0  0  0  0
 10 11  1  0  0  0  0
 10 31  1  0  0  0  0
 10 32  1  0  0  0  0
 11 16  2  0  0  0  0
 11 12  1  0  0  0  0
 12 13  1  0  0  0  0
 12 14  2  0  0  0  0
 13 33  1  0  0  0  0
 13 34  1  0  0  0  0
 13 35  1  0  0  0  0
 14 15  1  0  0  0  0
 15 16  1  0  0  0  0
 16 17  1  0  0  0  0
 17 36  1  0  0  0  0
 17 37  1  0  0  0  0
 17 38  1  0  0  0  0
 18 19  1  0  0  0  0
 18 20  1  0  0  0  0
 19 39  1  0  0  0  0
 19 40  1  0  0  0  0
 19 41  1  0  0  0  0
 20 42  1  0  0  0  0
 20 43  1  0  0  0  0
 20 44  1  0  0  0  0
M  END
> <s_m_source_file>
AV-unprocessed.smi

> <i_m_source_file_index>
646

> <i_lp_mmshare_version>
43012

> <i_f3d_flags>
0

> <s_epik_input>
W0NIM11PW0NAQF0xKFtDSDNdKVtDSDJdW0NASF0oQzEoW0NIM10pW0NIM10pW05IXUMoPU8pW0NIMl1jMmMoW0NIM10pbm9jMltDSDNd

> <s_epik_cmdline>
J2VwaWtfcHl0aG9uJywgJy1waCcsICc3LjAnLCAnLXRuJywgJzgnLCAnLW1hJywgJzIwMCcsICctbWV0YWxfYmluZGluZycsICctaW1hZScsICc8aW5maWxlLm1hZT4nLCAnLW9tYWUnLCAnPG91dGZpbGUubWFlPic=

> <r_lp_tautomer_probability>
1

> <r_epik_Ionization_Penalty>
2.13169e-08

> <r_epik_Ionization_Penalty_Charging>
0

> <r_epik_Ionization_Penalty_Neutral>
2.13169e-08

> <r_epik_State_Penalty>
-0

> <r_epik_Charging_Adjusted_Penalty>
0

> <i_epik_Tot_Q>
0

> <i_epik_Tot_abs_Q>
0

> <r_epik_Metal_State_Penalty>
-0

> <b_epik_Metal_Only>
0

> <s_lp_Force_Field>
OPLS_2005

> <r_lp_Energy>
15.8314

> <b_lp_Chiralities_Consistent>
1

> <s_lp_Variant>
AV-unprocessed.smi:646-2

> <Gold.Version>
5.8.1

> <Gold.Id.Protein>
6NUR|6NUR_protein|mol2

> <Gold.PLP.Fitness>
41.0323

> <Gold.PLP.PLP>
-36.2364

> <Gold.PLP.part.hbond>
-2.5595

> <Gold.PLP.part.metal>
0.0000

> <Gold.PLP.part.buried>
-4.3215

> <Gold.PLP.part.nonpolar>
-30.8707

> <Gold.PLP.part.repulsive>
1.9505

> <Gold.PLP.ligand.clash>
0.0000

> <Gold.PLP.ligand.torsion>
0.5015

> <Gold.PLP.Chemscore.Hbond>
1.8000

> <Gold.PLP.Chemscore.CHOScore>
0.0000

> <Gold.PLP.Chemscore.Metal>
0.0000

> <Gold.Chemscore.Hbonds>
donor molecule, donor type, donor heavy atom, donor atom, acceptor molecule, acceptor atom, score
      L1  H     7    30       P1 10747  0.80
      P1  H  6896  6909       L1    14  0.20

> <Gold.PLP.Chemscore.Internal.Correction>
0.3988

> <Gold.Rescore>
     Score         DG    S(hbond)    S(metal)    S(lipo)     H(rot)  DE(clash)    DE(int)     intcor
     11.09     -15.80       0.96        0.00      93.39       1.49       0.27       4.44       ----

> <Gold.Chemscore.Fitness>
11.0925

> <Gold.Chemscore.DG>
-15.7955

> <Gold.Chemscore.ZeroCoef>
-5.4800

> <Gold.Chemscore.Hbond>
0.9613

> <Gold.Chemscore.Metal>
0.0000

> <Gold.Chemscore.Lipo>
93.3868

> <Gold.Chemscore.Internal_Hbond>
0.0000

> <Gold.Chemscore.DEClash>
0.2664

> <Gold.Chemscore.DEInternal>
4.4366

> <Gold.Chemscore.Rot>
1.4928

> <Gold.Chemscore.Internal.Correction>
   9.000000E+99

> <Gold.Chemscore.Hbonds>
donor molecule, donor type, donor heavy atom, donor atom, acceptor molecule, acceptor atom, score
      L1  H     7    30       P1 10747  0.80

> <Gold.Chemscore.Hbond.Weighted>
-3.2108

> <Gold.Chemscore.Metal.Weighted>
-0.0000

> <Gold.Chemscore.Lipo.Weighted>
-10.9263

> <Gold.Chemscore.Internal_Hbond.Weighted>
0.0000

> <Gold.Chemscore.DEClash.Weighted>
0.2664

> <Gold.Chemscore.DEInternal.Weighted>
4.4366

> <Gold.Chemscore.Rot.Weighted>
3.8217

> <Gold.Chemscore.Internal.Correction.Weighted>
   9.000000E+99

> <Gold.Protein.RotatedTorsions>
[ 6907 6896 6895 6894 ] final  -33.00 input  -60.11 | X-H torsion
[ 7974 7965 7964 7962 ] final   34.62 input  175.53 | X-H torsion
[ 8008 7997 7996 7995 ] final  105.04 input   59.86 | X-H torsion
[ 10167 10162 10161 10158 ] final   43.34 input  -65.29 | X-H torsion
[ 10718 10713 10712 10709 ] final   67.99 input   66.30 | X-H torsion
[ 10763 10752 10751 10750 ] final   23.54 input  -60.55 | X-H torsion
[ 11005 11000 10999 10996 ] final -121.24 input  -57.11 | X-H torsion

> <Gold.Protein.ActiveResidues>
 VAL166  LYS551  ARG553  GLY616  TRP617  ASP618  TYR619  PRO620  LYS621  CYS622 
 ASP623  PHE694  ASN695  SER759  ASP760  ASP761  ALA762  ILE779  LEU786  VAL792 
 PHE793  MET794  SER795  GLU796  ALA797  LYS798  CYS799  TRP800  GLU811  SER814 

> <Gold.Protein.RotatedAtoms>
  151.0713  134.9800  159.8309 H   0  0  0  0  0  0  0  0  0  0  0  0  # atno 6907 bound_to 6896
  152.5408  134.2295  159.8829 H   0  0  0  0  0  0  0  0  0  0  0  0  # atno 6908 bound_to 6896
  151.2320  133.4402  159.2637 H   0  0  0  0  0  0  0  0  0  0  0  0  # atno 6909 bound_to 6896
  146.1340  139.6246  142.9207 H   0  0  0  0  0  0  0  0  0  0  0  0  # atno 7974 bound_to 7965
  156.1625  140.3137  155.8832 H   0  0  0  0  0  0  0  0  0  0  0  0  # atno 8008 bound_to 7997
  155.3753  140.0484  157.3062 H   0  0  0  0  0  0  0  0  0  0  0  0  # atno 8009 bound_to 7997
  154.5160  140.2181  155.9076 H   0  0  0  0  0  0  0  0  0  0  0  0  # atno 8010 bound_to 7997
  140.3453  144.2419  150.6151 H   0  0  0  0  0  0  0  0  0  0  0  0  # atno 10167 bound_to 10162
  157.6263  130.9350  150.0317 H   0  0  0  0  0  0  0  0  0  0  0  0  # atno 10718 bound_to 10713
  153.0830  135.6624  154.0006 H   0  0  0  0  0  0  0  0  0  0  0  0  # atno 10763 bound_to 10752
  153.9622  135.2973  155.3434 H   0  0  0  0  0  0  0  0  0  0  0  0  # atno 10764 bound_to 10752
  154.7233  135.5155  153.8918 H   0  0  0  0  0  0  0  0  0  0  0  0  # atno 10765 bound_to 10752
  141.0085  134.0299  157.3445 H   0  0  0  0  0  0  0  0  0  0  0  0  # atno 11005 bound_to 11000
  145.5197  141.0432  143.2442 LP  0  0  0  0  0  0  0  0  0  0  0  0  # atno 17320 bound_to 7965
  144.7720  139.6713  143.7190 LP  0  0  0  0  0  0  0  0  0  0  0  0  # atno 17321 bound_to 7965
  140.5270  143.2252  151.8298 LP  0  0  0  0  0  0  0  0  0  0  0  0  # atno 17342 bound_to 10162
  139.4834  144.4767  151.9358 LP  0  0  0  0  0  0  0  0  0  0  0  0  # atno 17343 bound_to 10162
  156.1437  130.3642  149.9543 LP  0  0  0  0  0  0  0  0  0  0  0  0  # atno 17370 bound_to 10713
  156.7578  130.9139  151.3640 LP  0  0  0  0  0  0  0  0  0  0  0  0  # atno 17371 bound_to 10713
  139.9076  135.0183  156.7555 LP  0  0  0  0  0  0  0  0  0  0  0  0  # atno 17394 bound_to 11000
  140.6773  133.9506  155.7890 LP  0  0  0  0  0  0  0  0  0  0  0  0  # atno 17395 bound_to 11000

$$$$
