AV-unprocessed.smi:512|AV-procd|sdf|2768|dock3
  -GOLD-   2262023233D 1   1.00000     0.00000
 Structure written by MMmdl.
 49 51  0  0  0  0  0  0  0  0  2 V2000
  150.9685  138.2575  154.7219 C   0  0  0  0  0  0  0  0  0  0  0  0
  151.1809  138.5316  156.2124 C   0  0  0  0  0  0  0  0  0  0  0  0
  151.5322  139.8938  156.3734 O   0  0  0  0  0  0  0  0  0  0  0  0
  151.3010  140.3780  157.6864 C   0  0  0  0  0  0  0  0  0  0  0  0
  151.6529  141.8710  157.7390 C   0  0  0  0  0  0  0  0  0  0  0  0
  152.0312  142.2868  159.0880 N   0  0  0  0  0  0  0  0  0  0  0  0
  151.5817  143.3493  159.8084 C   0  0  0  0  0  0  0  0  0  0  0  0
  150.5976  144.2071  159.3194 N   0  0  0  0  0  0  0  0  0  0  0  0
  149.4778  143.8040  158.4723 C   0  0  0  0  0  0  0  0  0  0  0  0
  148.1601  143.7583  159.2684 C   0  0  0  0  0  0  0  0  0  0  0  0
  147.8870  145.0609  159.9214 N   0  3  0  0  0  0  0  0  0  0  0  0
  146.6222  145.0607  160.6867 C   0  0  0  0  0  0  0  0  0  0  0  0
  149.0411  145.5260  160.7261 C   0  0  0  0  0  0  0  0  0  0  0  0
  150.3253  145.5268  159.8797 C   0  0  0  0  0  0  0  0  0  0  0  0
  152.1818  143.5190  160.9896 N   0  0  0  0  0  0  0  0  0  0  0  0
  153.0772  142.4610  161.0383 C   0  0  0  0  0  0  0  0  0  0  0  0
  153.0055  141.7149  159.9066 C   0  0  0  0  0  0  0  0  0  0  0  0
  153.8686  140.5493  159.6749 C   0  0  0  0  0  0  0  0  0  0  0  0
  153.8352  139.8747  158.6482 O   0  0  0  0  0  0  0  0  0  0  0  0
  154.7077  140.2961  160.7084 N   0  0  0  0  0  0  0  0  0  0  0  0
  154.8234  140.9979  161.8771 C   0  0  0  0  0  0  0  0  0  0  0  0
  155.6325  140.6393  162.7325 O   0  0  0  0  0  0  0  0  0  0  0  0
  154.0143  142.0929  162.0456 N   0  0  0  0  0  0  0  0  0  0  0  0
  154.0994  142.8849  163.2738 C   0  0  0  0  0  0  0  0  0  0  0  0
  155.3191  139.4995  160.6034 H   0  0  0  0  0  0  0  0  0  0  0  0
  150.6968  137.2156  154.5514 H   0  0  0  0  0  0  0  0  0  0  0  0
  151.8756  138.4647  154.1536 H   0  0  0  0  0  0  0  0  0  0  0  0
  150.1710  138.8823  154.3194 H   0  0  0  0  0  0  0  0  0  0  0  0
  150.2692  138.3089  156.7685 H   0  0  0  0  0  0  0  0  0  0  0  0
  151.9728  137.8894  156.6006 H   0  0  0  0  0  0  0  0  0  0  0  0
  150.2557  140.2311  157.9613 H   0  0  0  0  0  0  0  0  0  0  0  0
  151.9096  139.8247  158.4033 H   0  0  0  0  0  0  0  0  0  0  0  0
  152.4615  142.0754  157.0420 H   0  0  0  0  0  0  0  0  0  0  0  0
  150.8156  142.4769  157.3957 H   0  0  0  0  0  0  0  0  0  0  0  0
  149.3944  144.4937  157.6313 H   0  0  0  0  0  0  0  0  0  0  0  0
  149.6661  142.8158  158.0534 H   0  0  0  0  0  0  0  0  0  0  0  0
  147.3344  143.4998  158.6044 H   0  0  0  0  0  0  0  0  0  0  0  0
  148.2154  142.9766  160.0282 H   0  0  0  0  0  0  0  0  0  0  0  0
  146.6664  144.3538  161.5161 H   0  0  0  0  0  0  0  0  0  0  0  0
  145.7852  144.7843  160.0448 H   0  0  0  0  0  0  0  0  0  0  0  0
  146.4180  146.0522  161.0923 H   0  0  0  0  0  0  0  0  0  0  0  0
  148.8451  146.5304  161.1031 H   0  0  0  0  0  0  0  0  0  0  0  0
  149.1678  144.8769  161.5943 H   0  0  0  0  0  0  0  0  0  0  0  0
  151.1726  145.8456  160.4880 H   0  0  0  0  0  0  0  0  0  0  0  0
  150.2432  146.2485  159.0658 H   0  0  0  0  0  0  0  0  0  0  0  0
  153.7463  142.3016  164.1250 H   0  0  0  0  0  0  0  0  0  0  0  0
  153.5019  143.7952  163.2274 H   0  0  0  0  0  0  0  0  0  0  0  0
  155.1291  143.1868  163.4709 H   0  0  0  0  0  0  0  0  0  0  0  0
  147.7738  145.7331  159.1759 H   0  0  0  0  0  0  0  0  0  0  0  0
  1  2  1  0  0  0  0
  1 26  1  0  0  0  0
  1 27  1  0  0  0  0
  1 28  1  0  0  0  0
  2  3  1  0  0  0  0
  2 29  1  0  0  0  0
  2 30  1  0  0  0  0
  3  4  1  0  0  0  0
  4  5  1  0  0  0  0
  4 31  1  0  0  0  0
  4 32  1  0  0  0  0
  5  6  1  0  0  0  0
  5 33  1  0  0  0  0
  5 34  1  0  0  0  0
  6 17  1  0  0  0  0
  6  7  1  0  0  0  0
  7  8  1  0  0  0  0
  7 15  2  0  0  0  0
  8 14  1  0  0  0  0
  8  9  1  0  0  0  0
  9 10  1  0  0  0  0
  9 35  1  0  0  0  0
  9 36  1  0  0  0  0
 10 11  1  0  0  0  0
 10 37  1  0  0  0  0
 10 38  1  0  0  0  0
 11 12  1  0  0  0  0
 11 13  1  0  0  0  0
 11 49  1  0  0  0  0
 12 39  1  0  0  0  0
 12 40  1  0  0  0  0
 12 41  1  0  0  0  0
 13 14  1  0  0  0  0
 13 42  1  0  0  0  0
 13 43  1  0  0  0  0
 14 44  1  0  0  0  0
 14 45  1  0  0  0  0
 15 16  1  0  0  0  0
 16 23  1  0  0  0  0
 16 17  2  0  0  0  0
 17 18  1  0  0  0  0
 18 19  2  0  0  0  0
 18 20  1  0  0  0  0
 20 25  1  0  0  0  0
 20 21  1  0  0  0  0
 21 22  2  0  0  0  0
 21 23  1  0  0  0  0
 23 24  1  0  0  0  0
 24 46  1  0  0  0  0
 24 47  1  0  0  0  0
 24 48  1  0  0  0  0
M  CHG  1  11   1
M  END
> <s_m_source_file>
AV-unprocessed.smi

> <i_m_source_file_index>
512

> <i_lp_mmshare_version>
43012

> <i_f3d_flags>
0

> <s_epik_input>
W0NIM11uMWMoPU8pW25IXWMoPU8pYyhjMTIpbihbQ0gyXVtDSDJdT1tDSDJdW0NIM10pYyhuMilOM1tDSDJdW0NIMl1OKFtDSDNdKVtDSDJdW0NIMl0z

> <s_epik_cmdline>
J2VwaWtfcHl0aG9uJywgJy1waCcsICc3LjAnLCAnLXRuJywgJzgnLCAnLW1hJywgJzIwMCcsICctbWV0YWxfYmluZGluZycsICctaW1hZScsICc8aW5maWxlLm1hZT4nLCAnLW9tYWUnLCAnPG91dGZpbGUubWFlPic=

> <r_epik_Ionization_Penalty>
0.06478

> <r_epik_Ionization_Penalty_Charging>
0.0647782

> <r_epik_Ionization_Penalty_Neutral>
1.82007e-06

> <r_epik_State_Penalty>
0.0564218

> <r_epik_Charging_Adjusted_Penalty>
0.1212

> <i_epik_Tot_Q>
1

> <i_epik_Tot_abs_Q>
1

> <r_epik_Metal_State_Penalty>
0.0827594

> <b_epik_Metal_Only>
0

> <s_lp_Force_Field>
OPLS_2005

> <r_lp_Energy>
46.3907

> <b_lp_Chiralities_Consistent>
1

> <s_lp_Variant>
AV-unprocessed.smi:512-1

> <Gold.Version>
5.8.1

> <Gold.Id.Protein>
6NUR|6NUR_protein|mol2

> <Gold.PLP.Fitness>
53.6171

> <Gold.PLP.PLP>
-44.7884

> <Gold.PLP.part.hbond>
-4.0000

> <Gold.PLP.part.metal>
0.0000

> <Gold.PLP.part.buried>
-1.0874

> <Gold.PLP.part.nonpolar>
-39.1829

> <Gold.PLP.part.repulsive>
0.2650

> <Gold.PLP.ligand.clash>
0.0000

> <Gold.PLP.ligand.torsion>
0.6039

> <Gold.PLP.Chemscore.Hbond>
3.1017

> <Gold.PLP.Chemscore.CHOScore>
0.0000

> <Gold.PLP.Chemscore.Metal>
0.0000

> <Gold.Chemscore.Hbonds>
donor molecule, donor type, donor heavy atom, donor atom, acceptor molecule, acceptor atom, score
      L1  H    11    49       P1  8029  1.76
      P1  H  7997  8009       L1    19  0.86

> <Gold.PLP.Chemscore.Internal.Correction>
0.7316

> <Gold.Rescore>
     Score         DG    S(hbond)    S(metal)    S(lipo)     H(rot)  DE(clash)    DE(int)     intcor
     13.64     -15.93       2.00        0.00      68.68       1.66       0.06       2.23       ----

> <Gold.Chemscore.Fitness>
13.6441

> <Gold.Chemscore.DG>
-15.9346

> <Gold.Chemscore.ZeroCoef>
-5.4800

> <Gold.Chemscore.Hbond>
1.9951

> <Gold.Chemscore.Metal>
0.0000

> <Gold.Chemscore.Lipo>
68.6774

> <Gold.Chemscore.Internal_Hbond>
0.0000

> <Gold.Chemscore.DEClash>
0.0572

> <Gold.Chemscore.DEInternal>
2.2333

> <Gold.Chemscore.Rot>
1.6579

> <Gold.Chemscore.Internal.Correction>
   9.000000E+99

> <Gold.Chemscore.Hbonds>
donor molecule, donor type, donor heavy atom, donor atom, acceptor molecule, acceptor atom, score
      L1  H    11    49       P1  8029  0.86
      P1  H  7997  8009       L1    19  0.84

> <Gold.Chemscore.Hbond.Weighted>
-6.6635

> <Gold.Chemscore.Metal.Weighted>
-0.0000

> <Gold.Chemscore.Lipo.Weighted>
-8.0353

> <Gold.Chemscore.Internal_Hbond.Weighted>
0.0000

> <Gold.Chemscore.DEClash.Weighted>
0.0572

> <Gold.Chemscore.DEInternal.Weighted>
2.2333

> <Gold.Chemscore.Rot.Weighted>
4.2442

> <Gold.Chemscore.Internal.Correction.Weighted>
   9.000000E+99

> <Gold.Protein.RotatedTorsions>
[ 6907 6896 6895 6894 ] final  148.07 input  -60.11 | X-H torsion
[ 7974 7965 7964 7962 ] final  118.66 input  175.53 | X-H torsion
[ 8008 7997 7996 7995 ] final  120.08 input   59.86 | X-H torsion
[ 10167 10162 10161 10158 ] final  -22.58 input  -65.29 | X-H torsion
[ 10718 10713 10712 10709 ] final  147.20 input   66.30 | X-H torsion
[ 10763 10752 10751 10750 ] final  -54.89 input  -60.55 | X-H torsion
[ 11005 11000 10999 10996 ] final   44.36 input  -57.11 | X-H torsion

> <Gold.Protein.ActiveResidues>
 VAL166  LYS551  ARG553  GLY616  TRP617  ASP618  TYR619  PRO620  LYS621  CYS622 
 ASP623  PHE694  ASN695  SER759  ASP760  ASP761  ALA762  ILE779  LEU786  VAL792 
 PHE793  MET794  SER795  GLU796  ALA797  LYS798  CYS799  TRP800  GLU811  SER814 

> <Gold.Protein.RotatedAtoms>
  152.1464  133.4495  159.4791 H   0  0  0  0  0  0  0  0  0  0  0  0  # atno 6907 bound_to 6896
  150.6891  134.2243  159.4418 H   0  0  0  0  0  0  0  0  0  0  0  0  # atno 6908 bound_to 6896
  152.0137  134.9862  160.0619 H   0  0  0  0  0  0  0  0  0  0  0  0  # atno 6909 bound_to 6896
  145.1525  139.3202  143.4559 H   0  0  0  0  0  0  0  0  0  0  0  0  # atno 7974 bound_to 7965
  156.2626  140.2838  156.1093 H   0  0  0  0  0  0  0  0  0  0  0  0  # atno 8008 bound_to 7997
  155.1274  140.0393  157.2783 H   0  0  0  0  0  0  0  0  0  0  0  0  # atno 8009 bound_to 7997
  154.6625  140.2569  155.7100 H   0  0  0  0  0  0  0  0  0  0  0  0  # atno 8010 bound_to 7997
  140.7286  143.4522  151.0500 H   0  0  0  0  0  0  0  0  0  0  0  0  # atno 10167 bound_to 10162
  157.3239  131.0909  151.1218 H   0  0  0  0  0  0  0  0  0  0  0  0  # atno 10718 bound_to 10713
  154.1820  135.6441  153.5037 H   0  0  0  0  0  0  0  0  0  0  0  0  # atno 10763 bound_to 10752
  153.0056  135.5408  154.6504 H   0  0  0  0  0  0  0  0  0  0  0  0  # atno 10764 bound_to 10752
  154.5871  135.2930  155.0646 H   0  0  0  0  0  0  0  0  0  0  0  0  # atno 10765 bound_to 10752
  140.1559  134.4402  155.8350 H   0  0  0  0  0  0  0  0  0  0  0  0  # atno 11005 bound_to 11000
  146.3493  140.1605  142.8591 LP  0  0  0  0  0  0  0  0  0  0  0  0  # atno 17320 bound_to 7965
  145.0415  140.8949  143.5049 LP  0  0  0  0  0  0  0  0  0  0  0  0  # atno 17321 bound_to 7965
  139.8199  143.7835  152.3176 LP  0  0  0  0  0  0  0  0  0  0  0  0  # atno 17342 bound_to 10162
  139.7913  144.7409  150.9950 LP  0  0  0  0  0  0  0  0  0  0  0  0  # atno 17343 bound_to 10162
  157.2492  130.6606  149.5924 LP  0  0  0  0  0  0  0  0  0  0  0  0  # atno 17370 bound_to 10713
  155.9688  130.4544  150.5847 LP  0  0  0  0  0  0  0  0  0  0  0  0  # atno 17371 bound_to 10713
  141.2204  133.6892  156.7507 LP  0  0  0  0  0  0  0  0  0  0  0  0  # atno 17394 bound_to 11000
  140.2548  134.8513  157.3702 LP  0  0  0  0  0  0  0  0  0  0  0  0  # atno 17395 bound_to 11000

$$$$
