AV-unprocessed.smi:561|AV-procd|sdf|2940|dock8
  -GOLD-   2262023433D 1   1.00000     0.00000
 Structure written by MMmdl.
 36 37  0  0  0  0  0  0  0  0  3 V2000
  152.6216  142.5759  161.9588 C   0  0  0  0  0  0  0  0  0  0  0  0
  153.5782  142.1650  160.8311 C   0  0  2  0  0  0  0  0  0  0  0  0
  152.8232  142.0055  159.4862 C   0  0  0  0  0  0  0  0  0  0  0  0
  151.9893  143.1630  159.1133 N   0  0  0  0  0  0  0  0  0  0  0  0
  152.0219  144.4200  159.6656 C   0  0  0  0  0  0  0  0  0  0  0  0
  151.0756  145.1630  159.0091 C   0  0  0  0  0  0  0  0  0  0  0  0
  150.5122  144.3355  158.0753 N   0  3  0  0  0  0  0  0  0  0  0  0
  151.0729  143.1235  158.1342 C   0  0  0  0  0  0  0  0  0  0  0  0
  154.2275  140.9029  161.2031 N   0  5  0  0  0  0  0  0  0  0  0  0
  154.4561  139.8470  160.3632 C   0  0  0  0  0  0  0  0  0  0  0  0
  154.5691  139.9079  159.1327 O   0  0  0  0  0  0  0  0  0  0  0  0
  154.5623  138.4758  160.9446 C   0  0  0  0  0  0  0  0  0  0  0  0
  154.6498  138.3299  162.2301 N   0  0  0  0  0  0  0  0  0  0  0  0
  154.7306  137.0889  162.8272 N   0  0  0  0  0  0  0  0  0  0  0  0
  154.5612  137.0960  164.2788 C   0  0  0  0  0  0  0  0  0  0  0  0
  154.9848  135.9314  162.1685 C   0  0  0  0  0  0  0  0  0  0  0  0
  155.0397  134.8299  162.7157 O   0  0  0  0  0  0  0  0  0  0  0  0
  155.2460  136.0459  160.6645 C   0  0  0  0  0  0  0  0  0  0  0  0
  154.5303  137.2583  160.0371 C   0  0  0  0  0  0  0  0  0  0  0  0
  152.1283  143.5202  161.7281 H   0  0  0  0  0  0  0  0  0  0  0  0
  153.1555  142.7079  162.9005 H   0  0  0  0  0  0  0  0  0  0  0  0
  151.8453  141.8263  162.1173 H   0  0  0  0  0  0  0  0  0  0  0  0
  154.3009  142.9743  160.7150 H   0  0  0  0  0  0  0  0  0  0  0  0
  153.5253  141.8240  158.6708 H   0  0  0  0  0  0  0  0  0  0  0  0
  152.1669  141.1351  159.5276 H   0  0  0  0  0  0  0  0  0  0  0  0
  152.6909  144.6765  160.4744 H   0  0  0  0  0  0  0  0  0  0  0  0
  150.7685  146.1909  159.1345 H   0  0  0  0  0  0  0  0  0  0  0  0
  150.8251  142.2739  157.5230 H   0  0  0  0  0  0  0  0  0  0  0  0
  155.4742  136.7587  164.7711 H   0  0  0  0  0  0  0  0  0  0  0  0
  153.7466  136.4342  164.5764 H   0  0  0  0  0  0  0  0  0  0  0  0
  154.3300  138.0924  164.6587 H   0  0  0  0  0  0  0  0  0  0  0  0
  156.3233  136.1459  160.5274 H   0  0  0  0  0  0  0  0  0  0  0  0
  154.9489  135.1262  160.1596 H   0  0  0  0  0  0  0  0  0  0  0  0
  153.4937  137.0050  159.8124 H   0  0  0  0  0  0  0  0  0  0  0  0
  155.0092  137.4744  159.0816 H   0  0  0  0  0  0  0  0  0  0  0  0
  149.7743  144.5981  157.4344 H   0  0  0  0  0  0  0  0  0  0  0  0
  1  2  1  0  0  0  0
  1 20  1  0  0  0  0
  1 21  1  0  0  0  0
  1 22  1  0  0  0  0
  2  3  1  0  0  0  0
  2  9  1  0  0  0  0
  2 23  1  0  0  0  0
  3  4  1  0  0  0  0
  3 24  1  0  0  0  0
  3 25  1  0  0  0  0
  4  8  1  0  0  0  0
  4  5  1  0  0  0  0
  5  6  2  0  0  0  0
  5 26  1  0  0  0  0
  6  7  1  0  0  0  0
  6 27  1  0  0  0  0
  7  8  2  0  0  0  0
  7 36  1  0  0  0  0
  8 28  1  0  0  0  0
  9 10  1  0  0  0  0
 10 11  2  0  0  0  0
 10 12  1  0  0  0  0
 12 19  1  0  0  0  0
 12 13  2  0  0  0  0
 13 14  1  0  0  0  0
 14 15  1  0  0  0  0
 14 16  1  0  0  0  0
 15 29  1  0  0  0  0
 15 30  1  0  0  0  0
 15 31  1  0  0  0  0
 16 17  2  0  0  0  0
 16 18  1  0  0  0  0
 18 19  1  0  0  0  0
 18 32  1  0  0  0  0
 18 33  1  0  0  0  0
 19 34  1  0  0  0  0
 19 35  1  0  0  0  0
M  CHG  1   7   1
M  CHG  1   9  -1
M  END
> <s_m_source_file>
AV-unprocessed.smi

> <i_m_source_file_index>
561

> <i_lp_mmshare_version>
43012

> <i_f3d_flags>
0

> <s_epik_input>
W2NIXTFuW2NIXVtjSF1uMVtDSDJdW0NAQEhdKFtDSDNdKVtOSF1DKD1PKUMyPU5OKFtDSDNdKUMoPU8pW0NIMl1bQ0gyXTI=

> <s_epik_cmdline>
J2VwaWtfcHl0aG9uJywgJy1waCcsICc3LjAnLCAnLXRuJywgJzgnLCAnLW1hJywgJzIwMCcsICctbWV0YWxfYmluZGluZycsICctaW1hZScsICc8aW5maWxlLm1hZT4nLCAnLW9tYWUnLCAnPG91dGZpbGUubWFlPic=

> <r_lp_tautomer_probability>
1

> <r_epik_Ionization_Penalty>
5.37239

> <r_epik_Ionization_Penalty_Charging>
5.18263

> <r_epik_Ionization_Penalty_Neutral>
0.189756

> <r_epik_State_Penalty>
5.53772

> <r_epik_Charging_Adjusted_Penalty>
10.7204

> <i_epik_Tot_Q>
0

> <i_epik_Tot_abs_Q>
2

> <r_epik_Metal_State_Penalty>
1.80836

> <b_epik_Metal_Only>
1

> <s_epik_Chemistry_Notes>
This compound has an imine and may undergo hydrolysis.

> <s_lp_Force_Field>
OPLS_2005

> <r_lp_Energy>
20.2917

> <b_lp_Chiralities_Consistent>
1

> <s_lp_Variant>
AV-unprocessed.smi:561-5

> <Gold.Version>
5.8.1

> <Gold.Id.Protein>
6NUR|6NUR_protein|mol2

> <Gold.PLP.Fitness>
52.8436

> <Gold.PLP.PLP>
-45.0473

> <Gold.PLP.part.hbond>
-2.0000

> <Gold.PLP.part.metal>
0.0000

> <Gold.PLP.part.buried>
-5.5959

> <Gold.PLP.part.nonpolar>
-36.8788

> <Gold.PLP.part.repulsive>
0.0841

> <Gold.PLP.ligand.clash>
0.0000

> <Gold.PLP.ligand.torsion>
0.6216

> <Gold.PLP.Chemscore.Hbond>
3.0000

> <Gold.PLP.Chemscore.CHOScore>
0.0000

> <Gold.PLP.Chemscore.Metal>
0.0000

> <Gold.Chemscore.Hbonds>
donor molecule, donor type, donor heavy atom, donor atom, acceptor molecule, acceptor atom, score
      L1  H     7    36       P1  8028  1.50
      P1  H  7997  8009       L1    11  1.00

> <Gold.PLP.Chemscore.Internal.Correction>
0.0395

> <Gold.Rescore>
     Score         DG    S(hbond)    S(metal)    S(lipo)     H(rot)  DE(clash)    DE(int)     intcor
     14.98     -17.27       1.95        0.00      82.89       1.73       0.08       2.20       ----

> <Gold.Chemscore.Fitness>
14.9839

> <Gold.Chemscore.DG>
-17.2683

> <Gold.Chemscore.ZeroCoef>
-5.4800

> <Gold.Chemscore.Hbond>
1.9518

> <Gold.Chemscore.Metal>
0.0000

> <Gold.Chemscore.Lipo>
82.8884

> <Gold.Chemscore.Internal_Hbond>
0.0000

> <Gold.Chemscore.DEClash>
0.0843

> <Gold.Chemscore.DEInternal>
2.2001

> <Gold.Chemscore.Rot>
1.7299

> <Gold.Chemscore.Internal.Correction>
   9.000000E+99

> <Gold.Chemscore.Hbonds>
donor molecule, donor type, donor heavy atom, donor atom, acceptor molecule, acceptor atom, score
      L1  H     7    36       P1  8028  0.09
      P1  H  7997  8009       L1    11  0.98

> <Gold.Chemscore.Hbond.Weighted>
-6.5190

> <Gold.Chemscore.Metal.Weighted>
-0.0000

> <Gold.Chemscore.Lipo.Weighted>
-9.6979

> <Gold.Chemscore.Internal_Hbond.Weighted>
0.0000

> <Gold.Chemscore.DEClash.Weighted>
0.0843

> <Gold.Chemscore.DEInternal.Weighted>
2.2001

> <Gold.Chemscore.Rot.Weighted>
4.4286

> <Gold.Chemscore.Internal.Correction.Weighted>
   9.000000E+99

> <Gold.Protein.RotatedTorsions>
[ 6907 6896 6895 6894 ] final  -46.62 input  -60.11 | X-H torsion
[ 7974 7965 7964 7962 ] final  -57.76 input  175.53 | X-H torsion
[ 8008 7997 7996 7995 ] final  118.67 input   59.86 | X-H torsion
[ 10167 10162 10161 10158 ] final   47.29 input  -65.29 | X-H torsion
[ 10718 10713 10712 10709 ] final   91.84 input   66.30 | X-H torsion
[ 10763 10752 10751 10750 ] final   32.33 input  -60.55 | X-H torsion
[ 11005 11000 10999 10996 ] final -178.51 input  -57.11 | X-H torsion

> <Gold.Protein.ActiveResidues>
 VAL166  LYS551  ARG553  GLY616  TRP617  ASP618  TYR619  PRO620  LYS621  CYS622 
 ASP623  PHE694  ASN695  SER759  ASP760  ASP761  ALA762  ILE779  LEU786  VAL792 
 PHE793  MET794  SER795  GLU796  ALA797  LYS798  CYS799  TRP800  GLU811  SER814 

> <Gold.Protein.RotatedAtoms>
  150.9094  134.8510  159.7414 H   0  0  0  0  0  0  0  0  0  0  0  0  # atno 6907 bound_to 6896
  152.4936  134.4383  159.9545 H   0  0  0  0  0  0  0  0  0  0  0  0  # atno 6908 bound_to 6896
  151.4427  133.3600  159.2819 H   0  0  0  0  0  0  0  0  0  0  0  0  # atno 6909 bound_to 6896
  145.8473  140.8376  143.0003 H   0  0  0  0  0  0  0  0  0  0  0  0  # atno 7974 bound_to 7965
  156.2558  140.2870  156.0871 H   0  0  0  0  0  0  0  0  0  0  0  0  # atno 8008 bound_to 7997
  155.1504  140.0397  157.2837 H   0  0  0  0  0  0  0  0  0  0  0  0  # atno 8009 bound_to 7997
  154.6465  140.2534  155.7269 H   0  0  0  0  0  0  0  0  0  0  0  0  # atno 8010 bound_to 7997
  140.3051  144.2887  150.6211 H   0  0  0  0  0  0  0  0  0  0  0  0  # atno 10167 bound_to 10162
  157.6960  131.0422  150.3790 H   0  0  0  0  0  0  0  0  0  0  0  0  # atno 10718 bound_to 10713
  153.0268  135.6416  154.1337 H   0  0  0  0  0  0  0  0  0  0  0  0  # atno 10763 bound_to 10752
  154.1065  135.2856  155.3241 H   0  0  0  0  0  0  0  0  0  0  0  0  # atno 10764 bound_to 10752
  154.6362  135.5475  153.7799 H   0  0  0  0  0  0  0  0  0  0  0  0  # atno 10765 bound_to 10752
  140.4290  134.6536  157.4702 H   0  0  0  0  0  0  0  0  0  0  0  0  # atno 11005 bound_to 11000
  144.6730  140.0901  143.7465 LP  0  0  0  0  0  0  0  0  0  0  0  0  # atno 17320 bound_to 7965
  145.9397  139.2661  143.1276 LP  0  0  0  0  0  0  0  0  0  0  0  0  # atno 17321 bound_to 7965
  140.5617  143.2191  151.7754 LP  0  0  0  0  0  0  0  0  0  0  0  0  # atno 17342 bound_to 10162
  139.4906  144.4340  151.9840 LP  0  0  0  0  0  0  0  0  0  0  0  0  # atno 17343 bound_to 10162
  156.4206  130.3952  149.6828 LP  0  0  0  0  0  0  0  0  0  0  0  0  # atno 17370 bound_to 10713
  156.4080  130.7708  151.2719 LP  0  0  0  0  0  0  0  0  0  0  0  0  # atno 17371 bound_to 10713
  140.0147  134.6637  155.9327 LP  0  0  0  0  0  0  0  0  0  0  0  0  # atno 17394 bound_to 11000
  141.1753  133.6540  156.4806 LP  0  0  0  0  0  0  0  0  0  0  0  0  # atno 17395 bound_to 11000

$$$$
