AV-unprocessed.smi:160|AV-procd|sdf|1365|dock7
  -GOLD-   2262019 83D 1   1.00000     0.00000
 Structure written by MMmdl.
 28 29  0  0  0  0  0  0  0  0  2 V2000
  152.1843  137.0057  154.0704 N   0  5  0  0  0  0  0  0  0  0  0  0
  152.3814  138.2147  154.6400 C   0  0  0  0  0  0  0  0  0  0  0  0
  153.4487  138.6517  155.0688 O   0  0  0  0  0  0  0  0  0  0  0  0
  151.1424  139.0732  154.7320 C   0  0  0  0  0  0  0  0  0  0  0  0
  151.2428  140.4271  154.8949 N   0  0  0  0  0  0  0  0  0  0  0  0
  149.9528  140.7336  154.9197 C   0  0  0  0  0  0  0  0  0  0  0  0
  149.1344  139.6879  154.7695 N   0  0  0  0  0  0  0  0  0  0  0  0
  147.6329  139.6501  154.7903 C   0  0  2  0  0  0  0  0  0  0  0  0
  147.2347  138.3230  154.9173 O   0  0  0  0  0  0  0  0  0  0  0  0
  147.1280  137.7373  153.6265 C   0  0  1  0  0  0  0  0  0  0  0  0
  146.2043  136.5112  153.6864 C   0  0  0  0  0  0  0  0  0  0  0  0
  146.1782  135.8580  152.4351 O   0  0  0  0  0  0  0  0  0  0  0  0
  146.5637  138.8840  152.7701 C   0  0  2  0  0  0  0  0  0  0  0  0
  147.1074  138.8228  151.4669 O   0  0  0  0  0  0  0  0  0  0  0  0
  147.0120  140.1666  153.4798 C   0  0  1  0  0  0  0  0  0  0  0  0
  145.9042  141.0060  153.7385 O   0  0  0  0  0  0  0  0  0  0  0  0
  149.9041  138.5750  154.6635 N   0  0  0  0  0  0  0  0  0  0  0  0
  147.3666  140.2350  155.6718 H   0  0  0  0  0  0  0  0  0  0  0  0
  148.1211  137.4524  153.2742 H   0  0  0  0  0  0  0  0  0  0  0  0
  145.4748  138.8270  152.7192 H   0  0  0  0  0  0  0  0  0  0  0  0
  147.7385  140.7447  152.9068 H   0  0  0  0  0  0  0  0  0  0  0  0
  151.7219  136.9666  153.1542 H   0  0  0  0  0  0  0  0  0  0  0  0
  149.5956  141.7440  155.0532 H   0  0  0  0  0  0  0  0  0  0  0  0
  146.5126  135.8198  154.4713 H   0  0  0  0  0  0  0  0  0  0  0  0
  145.1843  136.8240  153.9115 H   0  0  0  0  0  0  0  0  0  0  0  0
  147.0566  135.8368  152.0880 H   0  0  0  0  0  0  0  0  0  0  0  0
  147.7703  139.4913  151.3863 H   0  0  0  0  0  0  0  0  0  0  0  0
  145.1353  140.6112  153.3564 H   0  0  0  0  0  0  0  0  0  0  0  0
  1  2  1  0  0  0  0
  1 22  1  0  0  0  0
  2  3  2  0  0  0  0
  2  4  1  0  0  0  0
  4 17  2  0  0  0  0
  4  5  1  0  0  0  0
  5  6  2  0  0  0  0
  6  7  1  0  0  0  0
  6 23  1  0  0  0  0
  7  8  1  0  0  0  0
  7 17  1  0  0  0  0
  8 18  1  0  0  0  0
  8 15  1  0  0  0  0
  8  9  1  0  0  0  0
  9 10  1  0  0  0  0
 10 19  1  0  0  0  0
 10 11  1  0  0  0  0
 10 13  1  0  0  0  0
 11 12  1  0  0  0  0
 11 24  1  0  0  0  0
 11 25  1  0  0  0  0
 12 26  1  0  0  0  0
 13 20  1  0  0  0  0
 13 14  1  0  0  0  0
 13 15  1  0  0  0  0
 14 27  1  0  0  0  0
 15 21  1  0  0  0  0
 15 16  1  0  0  0  0
 16 28  1  0  0  0  0
M  CHG  1   1  -1
M  END
> <s_m_source_file>
AV-unprocessed.smi

> <i_m_source_file_index>
160

> <i_lp_mmshare_version>
43012

> <i_f3d_flags>
0

> <s_epik_input>
W05IMl1DKD1PKWMxbltjSF1uKG4xKVtDQEBIXTJPW0NASF0oW0NIMl1bT0hdKVtDQEBIXShbT0hdKVtDQEhdMltPSF0=

> <s_epik_cmdline>
J2VwaWtfcHl0aG9uJywgJy1waCcsICc3LjAnLCAnLXRuJywgJzgnLCAnLW1hJywgJzIwMCcsICctbWV0YWxfYmluZGluZycsICctaW1hZScsICc8aW5maWxlLm1hZT4nLCAnLW9tYWUnLCAnPG91dGZpbGUubWFlPic=

> <r_lp_tautomer_probability>
1

> <r_epik_Ionization_Penalty>
6.6993

> <r_epik_Ionization_Penalty_Charging>
6.6993

> <r_epik_Ionization_Penalty_Neutral>
6.01698e-06

> <r_epik_State_Penalty>
6.69929

> <r_epik_Charging_Adjusted_Penalty>
13.3986

> <i_epik_Tot_Q>
-1

> <i_epik_Tot_abs_Q>
1

> <r_epik_Metal_State_Penalty>
2.62798

> <b_epik_Metal_Only>
1

> <s_epik_Chemistry_Notes>
This compound contains an acetal/aminal-like group ( X-CH(R)-Y where X, Y are N, S, or O) that may be acid/base labile, releasing an aldehyde.

> <s_lp_Force_Field>
OPLS_2005

> <r_lp_Energy>
36.7288

> <b_lp_Chiralities_Consistent>
1

> <s_lp_Variant>
AV-unprocessed.smi:160-23

> <Gold.Version>
5.8.1

> <Gold.Id.Protein>
6NUR|6NUR_protein|mol2

> <Gold.PLP.Fitness>
48.8657

> <Gold.PLP.PLP>
-25.0649

> <Gold.PLP.part.hbond>
-8.2257

> <Gold.PLP.part.metal>
0.0000

> <Gold.PLP.part.buried>
-1.1778

> <Gold.PLP.part.nonpolar>
-16.9587

> <Gold.PLP.part.repulsive>
0.2926

> <Gold.PLP.ligand.clash>
0.0000

> <Gold.PLP.ligand.torsion>
0.5269

> <Gold.PLP.Chemscore.Hbond>
8.2738

> <Gold.PLP.Chemscore.CHOScore>
0.0000

> <Gold.PLP.Chemscore.Metal>
0.0000

> <Gold.Chemscore.Hbonds>
donor molecule, donor type, donor heavy atom, donor atom, acceptor molecule, acceptor atom, score
      L1  H     1    22       P1  7949  1.00
      L1  H    12    26       P1  7948  1.00
      L1  H    14    27       P1  7957  1.00
      L1  H    16    28       P1 10175  1.00
      P1  H  7954  7966       L1    14  0.16
      P1  H  7989  7998       L1     5  0.96
      P1  H  7997  8009       L1     3  0.94
      P1  H 10752 10763       L1     1  1.95

> <Gold.PLP.Chemscore.Internal.Correction>
0.0333

> <Gold.Rescore>
     Score         DG    S(hbond)    S(metal)    S(lipo)     H(rot)  DE(clash)    DE(int)     intcor
     14.91     -15.89       5.54        0.00      19.38       4.04       0.44       0.55       ----

> <Gold.Chemscore.Fitness>
14.9089

> <Gold.Chemscore.DG>
-15.8944

> <Gold.Chemscore.ZeroCoef>
-5.4800

> <Gold.Chemscore.Hbond>
5.5361

> <Gold.Chemscore.Metal>
0.0000

> <Gold.Chemscore.Lipo>
19.3760

> <Gold.Chemscore.Internal_Hbond>
0.0000

> <Gold.Chemscore.DEClash>
0.4404

> <Gold.Chemscore.DEInternal>
0.5450

> <Gold.Chemscore.Rot>
4.0403

> <Gold.Chemscore.Internal.Correction>
   9.000000E+99

> <Gold.Chemscore.Hbonds>
donor molecule, donor type, donor heavy atom, donor atom, acceptor molecule, acceptor atom, score
      L1  H     1    22       P1  7949  0.91
      L1  H    12    26       P1  7948  0.99
      L1  H    14    27       P1  7957  0.92
      L1  H    16    28       P1 10175  0.94
      P1  H  7989  7998       L1     5  0.10
      P1  H  7997  8009       L1     3  0.88
      P1  H 10752 10763       L1     1  0.35

> <Gold.Chemscore.Hbond.Weighted>
-18.4905

> <Gold.Chemscore.Metal.Weighted>
-0.0000

> <Gold.Chemscore.Lipo.Weighted>
-2.2670

> <Gold.Chemscore.Internal_Hbond.Weighted>
0.0000

> <Gold.Chemscore.DEClash.Weighted>
0.4404

> <Gold.Chemscore.DEInternal.Weighted>
0.5450

> <Gold.Chemscore.Rot.Weighted>
10.3431

> <Gold.Chemscore.Internal.Correction.Weighted>
   9.000000E+99

> <Gold.Protein.RotatedTorsions>
[ 6907 6896 6895 6894 ] final   24.28 input  -60.11 | X-H torsion
[ 7974 7965 7964 7962 ] final -115.95 input  175.53 | X-H torsion
[ 8008 7997 7996 7995 ] final -140.61 input   59.86 | X-H torsion
[ 10167 10162 10161 10158 ] final   41.75 input  -65.29 | X-H torsion
[ 10718 10713 10712 10709 ] final  123.11 input   66.30 | X-H torsion
[ 10763 10752 10751 10750 ] final   30.43 input  -60.55 | X-H torsion
[ 11005 11000 10999 10996 ] final   65.26 input  -57.11 | X-H torsion

> <Gold.Protein.ActiveResidues>
 VAL166  LYS551  ARG553  GLY616  TRP617  ASP618  TYR619  PRO620  LYS621  CYS622 
 ASP623  PHE694  ASN695  SER759  ASP760  ASP761  ALA762  ILE779  LEU786  VAL792 
 PHE793  MET794  SER795  GLU796  ALA797  LYS798  CYS799  TRP800  GLU811  SER814 

> <Gold.Protein.RotatedAtoms>
  151.9552  135.0150  160.0544 H   0  0  0  0  0  0  0  0  0  0  0  0  # atno 6907 bound_to 6896
  152.1918  133.4774  159.5020 H   0  0  0  0  0  0  0  0  0  0  0  0  # atno 6908 bound_to 6896
  150.6936  134.1620  159.4222 H   0  0  0  0  0  0  0  0  0  0  0  0  # atno 6909 bound_to 6896
  145.1024  140.8560  143.3918 H   0  0  0  0  0  0  0  0  0  0  0  0  # atno 7974 bound_to 7965
  155.4642  140.0548  157.2987 H   0  0  0  0  0  0  0  0  0  0  0  0  # atno 8008 bound_to 7997
  154.4725  140.2046  155.9915 H   0  0  0  0  0  0  0  0  0  0  0  0  # atno 8009 bound_to 7997
  156.1078  140.3209  155.8035 H   0  0  0  0  0  0  0  0  0  0  0  0  # atno 8010 bound_to 7997
  140.3612  144.2225  150.6138 H   0  0  0  0  0  0  0  0  0  0  0  0  # atno 10167 bound_to 10162
  157.5690  131.1084  150.8402 H   0  0  0  0  0  0  0  0  0  0  0  0  # atno 10718 bound_to 10713
  153.0372  135.6464  154.1044 H   0  0  0  0  0  0  0  0  0  0  0  0  # atno 10763 bound_to 10752
  154.0756  135.2877  155.3301 H   0  0  0  0  0  0  0  0  0  0  0  0  # atno 10764 bound_to 10752
  154.6564  135.5407  153.8029 H   0  0  0  0  0  0  0  0  0  0  0  0  # atno 10765 bound_to 10752
  139.9906  134.6597  156.0098 H   0  0  0  0  0  0  0  0  0  0  0  0  # atno 11005 bound_to 11000
  145.0940  139.2870  143.5720 LP  0  0  0  0  0  0  0  0  0  0  0  0  # atno 17320 bound_to 7965
  146.3529  140.0486  142.8637 LP  0  0  0  0  0  0  0  0  0  0  0  0  # atno 17321 bound_to 7965
  140.5125  143.2287  151.8514 LP  0  0  0  0  0  0  0  0  0  0  0  0  # atno 17342 bound_to 10162
  139.4814  144.4933  151.9156 LP  0  0  0  0  0  0  0  0  0  0  0  0  # atno 17343 bound_to 10162
  156.8878  130.5202  149.5287 LP  0  0  0  0  0  0  0  0  0  0  0  0  # atno 17370 bound_to 10713
  156.0736  130.5764  150.9432 LP  0  0  0  0  0  0  0  0  0  0  0  0  # atno 17371 bound_to 10713
  141.1562  133.6542  156.4170 LP  0  0  0  0  0  0  0  0  0  0  0  0  # atno 17394 bound_to 11000
  140.4916  134.6570  157.5213 LP  0  0  0  0  0  0  0  0  0  0  0  0  # atno 17395 bound_to 11000

$$$$
