AV-unprocessed.smi:573|AV-procd|sdf|2969|dock8
  -GOLD-   2262023473D 1   1.00000     0.00000
 Structure written by MMmdl.
 45 47  0  0  0  0  0  0  0  0  2 V2000
  147.2858  139.9573  153.5227 C   0  0  0  0  0  0  0  0  0  0  0  0
  146.7802  140.8551  154.6617 C   0  0  2  0  0  0  0  0  0  0  0  0
  145.8153  141.7410  154.1365 O   0  0  0  0  0  0  0  0  0  0  0  0
  147.8946  141.6975  155.3104 C   0  0  0  0  0  0  0  0  0  0  0  0
  148.9422  140.8819  155.9080 N   0  0  0  0  0  0  0  0  0  0  0  0
  149.9283  141.4926  156.6913 C   0  0  0  0  0  0  0  0  0  0  0  0
  150.2091  142.8224  156.7353 N   0  3  0  0  0  0  0  0  0  0  0  0
  151.2461  143.0227  157.6506 C   0  0  0  0  0  0  0  0  0  0  0  0
  151.8861  144.1907  158.0535 C   0  0  0  0  0  0  0  0  0  0  0  0
  152.9053  144.0540  159.0184 C   0  0  0  0  0  0  0  0  0  0  0  0
  153.2534  142.7940  159.5468 C   0  0  0  0  0  0  0  0  0  0  0  0
  152.6012  141.6148  159.1307 C   0  0  0  0  0  0  0  0  0  0  0  0
  151.5970  141.7541  158.1728 C   0  0  0  0  0  0  0  0  0  0  0  0
  150.7564  140.8295  157.5382 N   0  0  0  0  0  0  0  0  0  0  0  0
  150.8545  139.3974  157.8546 C   0  0  0  0  0  0  0  0  0  0  0  0
  151.6275  138.6201  156.7769 C   0  0  1  0  0  0  0  0  0  0  0  0
  150.9340  138.6942  155.4038 C   0  0  0  0  0  0  0  0  0  0  0  0
  151.7615  137.9584  154.3436 C   0  0  0  0  0  0  0  0  0  0  0  0
  153.2009  138.4842  154.3541 C   0  0  0  0  0  0  0  0  0  0  0  0
  153.7812  138.4291  155.7764 C   0  0  0  0  0  0  0  0  0  0  0  0
  152.9452  139.1566  156.6709 O   0  0  0  0  0  0  0  0  0  0  0  0
  148.0084  139.2265  153.8868 H   0  0  0  0  0  0  0  0  0  0  0  0
  147.7702  140.5418  152.7398 H   0  0  0  0  0  0  0  0  0  0  0  0
  146.4654  139.4031  153.0652 H   0  0  0  0  0  0  0  0  0  0  0  0
  146.2849  140.2409  155.4144 H   0  0  0  0  0  0  0  0  0  0  0  0
  145.0644  141.2395  153.8569 H   0  0  0  0  0  0  0  0  0  0  0  0
  148.3515  142.3479  154.5638 H   0  0  0  0  0  0  0  0  0  0  0  0
  147.4764  142.3565  156.0726 H   0  0  0  0  0  0  0  0  0  0  0  0
  148.7859  139.8882  155.9993 H   0  0  0  0  0  0  0  0  0  0  0  0
  151.6198  145.1579  157.6531 H   0  0  0  0  0  0  0  0  0  0  0  0
  153.4293  144.9343  159.3621 H   0  0  0  0  0  0  0  0  0  0  0  0
  154.0372  142.7300  160.2879 H   0  0  0  0  0  0  0  0  0  0  0  0
  152.8737  140.6568  159.5479 H   0  0  0  0  0  0  0  0  0  0  0  0
  151.3596  139.3082  158.8171 H   0  0  0  0  0  0  0  0  0  0  0  0
  149.8537  138.9896  157.9959 H   0  0  0  0  0  0  0  0  0  0  0  0
  151.6983  137.5762  157.0887 H   0  0  0  0  0  0  0  0  0  0  0  0
  149.9337  138.2641  155.4599 H   0  0  0  0  0  0  0  0  0  0  0  0
  150.8101  139.7374  155.1097 H   0  0  0  0  0  0  0  0  0  0  0  0
  151.7593  136.8879  154.5535 H   0  0  0  0  0  0  0  0  0  0  0  0
  151.3167  138.0859  153.3563 H   0  0  0  0  0  0  0  0  0  0  0  0
  153.8200  137.9029  153.6704 H   0  0  0  0  0  0  0  0  0  0  0  0
  153.2176  139.5135  153.9938 H   0  0  0  0  0  0  0  0  0  0  0  0
  153.8832  137.3972  156.1161 H   0  0  0  0  0  0  0  0  0  0  0  0
  154.7785  138.8687  155.7913 H   0  0  0  0  0  0  0  0  0  0  0  0
  149.7319  143.5286  156.1901 H   0  0  0  0  0  0  0  0  0  0  0  0
  1  2  1  0  0  0  0
  1 22  1  0  0  0  0
  1 23  1  0  0  0  0
  1 24  1  0  0  0  0
  2  3  1  0  0  0  0
  2  4  1  0  0  0  0
  2 25  1  0  0  0  0
  3 26  1  0  0  0  0
  4  5  1  0  0  0  0
  4 27  1  0  0  0  0
  4 28  1  0  0  0  0
  5  6  1  0  0  0  0
  5 29  1  0  0  0  0
  6 14  1  0  0  0  0
  6  7  2  0  0  0  0
  7  8  1  0  0  0  0
  7 45  1  0  0  0  0
  8 13  2  0  0  0  0
  8  9  1  0  0  0  0
  9 10  2  0  0  0  0
  9 30  1  0  0  0  0
 10 11  1  0  0  0  0
 10 31  1  0  0  0  0
 11 12  2  0  0  0  0
 11 32  1  0  0  0  0
 12 13  1  0  0  0  0
 12 33  1  0  0  0  0
 13 14  1  0  0  0  0
 14 15  1  0  0  0  0
 15 16  1  0  0  0  0
 15 34  1  0  0  0  0
 15 35  1  0  0  0  0
 16 21  1  0  0  0  0
 16 17  1  0  0  0  0
 16 36  1  0  0  0  0
 17 18  1  0  0  0  0
 17 37  1  0  0  0  0
 17 38  1  0  0  0  0
 18 19  1  0  0  0  0
 18 39  1  0  0  0  0
 18 40  1  0  0  0  0
 19 20  1  0  0  0  0
 19 41  1  0  0  0  0
 19 42  1  0  0  0  0
 20 21  1  0  0  0  0
 20 43  1  0  0  0  0
 20 44  1  0  0  0  0
M  CHG  1   7   1
M  END
> <s_m_source_file>
AV-unprocessed.smi

> <i_m_source_file_index>
573

> <i_lp_mmshare_version>
43012

> <i_f3d_flags>
0

> <s_epik_input>
W0NIM11bQ0BIXShbT0hdKVtDSDJdW05IXWMobjEpbihjKGMxMilbY0hdW2NIXVtjSF1bY0hdMilbQ0gyXVtDQEBIXTNbQ0gyXVtDSDJdW0NIMl1bQ0gyXU8z

> <s_epik_cmdline>
J2VwaWtfcHl0aG9uJywgJy1waCcsICc3LjAnLCAnLXRuJywgJzgnLCAnLW1hJywgJzIwMCcsICctbWV0YWxfYmluZGluZycsICctaW1hZScsICc8aW5maWxlLm1hZT4nLCAnLW9tYWUnLCAnPG91dGZpbGUubWFlPic=

> <r_epik_Ionization_Penalty>
0.0692245

> <r_epik_Ionization_Penalty_Charging>
0.0692223

> <r_epik_Ionization_Penalty_Neutral>
2.1869e-06

> <r_epik_State_Penalty>
0.0606215

> <r_epik_Charging_Adjusted_Penalty>
0.129844

> <i_epik_Tot_Q>
1

> <i_epik_Tot_abs_Q>
1

> <r_epik_Metal_State_Penalty>
2.77811

> <b_epik_Metal_Only>
0

> <s_lp_Force_Field>
OPLS_2005

> <r_lp_Energy>
19.2261

> <b_lp_Chiralities_Consistent>
1

> <s_lp_Variant>
AV-unprocessed.smi:573-3

> <Gold.Version>
5.8.1

> <Gold.Id.Protein>
6NUR|6NUR_protein|mol2

> <Gold.PLP.Fitness>
48.2698

> <Gold.PLP.PLP>
-39.8488

> <Gold.PLP.part.hbond>
-2.9751

> <Gold.PLP.part.metal>
0.0000

> <Gold.PLP.part.buried>
-1.9816

> <Gold.PLP.part.nonpolar>
-36.4374

> <Gold.PLP.part.repulsive>
0.0932

> <Gold.PLP.ligand.clash>
0.0000

> <Gold.PLP.ligand.torsion>
0.2996

> <Gold.PLP.Chemscore.Hbond>
3.0000

> <Gold.PLP.Chemscore.CHOScore>
0.0000

> <Gold.PLP.Chemscore.Metal>
0.0000

> <Gold.Chemscore.Hbonds>
donor molecule, donor type, donor heavy atom, donor atom, acceptor molecule, acceptor atom, score
      L1  H     3    26       P1 10175  0.88
      L1  H     7    45       P1  8028  2.00

> <Gold.PLP.Chemscore.Internal.Correction>
0.0203

> <Gold.Rescore>
     Score         DG    S(hbond)    S(metal)    S(lipo)     H(rot)  DE(clash)    DE(int)     intcor
     18.68     -20.60       1.89        0.00     120.63       2.07       1.58       0.33       ----

> <Gold.Chemscore.Fitness>
18.6823

> <Gold.Chemscore.DG>
-20.5962

> <Gold.Chemscore.ZeroCoef>
-5.4800

> <Gold.Chemscore.Hbond>
1.8866

> <Gold.Chemscore.Metal>
0.0000

> <Gold.Chemscore.Lipo>
120.6316

> <Gold.Chemscore.Internal_Hbond>
0.0000

> <Gold.Chemscore.DEClash>
1.5796

> <Gold.Chemscore.DEInternal>
0.3343

> <Gold.Chemscore.Rot>
2.0699

> <Gold.Chemscore.Internal.Correction>
   9.000000E+99

> <Gold.Chemscore.Hbonds>
donor molecule, donor type, donor heavy atom, donor atom, acceptor molecule, acceptor atom, score
      L1  H     3    26       P1 10175  0.46
      L1  H     7    45       P1  8028  0.95

> <Gold.Chemscore.Hbond.Weighted>
-6.3014

> <Gold.Chemscore.Metal.Weighted>
-0.0000

> <Gold.Chemscore.Lipo.Weighted>
-14.1139

> <Gold.Chemscore.Internal_Hbond.Weighted>
0.0000

> <Gold.Chemscore.DEClash.Weighted>
1.5796

> <Gold.Chemscore.DEInternal.Weighted>
0.3343

> <Gold.Chemscore.Rot.Weighted>
5.2991

> <Gold.Chemscore.Internal.Correction.Weighted>
   9.000000E+99

> <Gold.Protein.RotatedTorsions>
[ 6907 6896 6895 6894 ] final   55.26 input  -60.11 | X-H torsion
[ 7974 7965 7964 7962 ] final   92.80 input  175.53 | X-H torsion
[ 8008 7997 7996 7995 ] final  168.10 input   59.86 | X-H torsion
[ 10167 10162 10161 10158 ] final   15.31 input  -65.29 | X-H torsion
[ 10718 10713 10712 10709 ] final  -24.14 input   66.30 | X-H torsion
[ 10763 10752 10751 10750 ] final  -57.35 input  -60.55 | X-H torsion
[ 11005 11000 10999 10996 ] final -124.25 input  -57.11 | X-H torsion

> <Gold.Protein.ActiveResidues>
 VAL166  LYS551  ARG553  GLY616  TRP617  ASP618  TYR619  PRO620  LYS621  CYS622 
 ASP623  PHE694  ASN695  SER759  ASP760  ASP761  ALA762  ILE779  LEU786  VAL792 
 PHE793  MET794  SER795  GLU796  ALA797  LYS798  CYS799  TRP800  GLU811  SER814 

> <Gold.Protein.RotatedAtoms>
  152.3521  134.6991  160.0232 H   0  0  0  0  0  0  0  0  0  0  0  0  # atno 6907 bound_to 6896
  151.7341  133.3313  159.3356 H   0  0  0  0  0  0  0  0  0  0  0  0  # atno 6908 bound_to 6896
  150.7547  134.6270  159.6211 H   0  0  0  0  0  0  0  0  0  0  0  0  # atno 6909 bound_to 6896
  145.4874  139.2277  143.2848 H   0  0  0  0  0  0  0  0  0  0  0  0  # atno 7974 bound_to 7965
  156.1576  140.1599  156.8666 H   0  0  0  0  0  0  0  0  0  0  0  0  # atno 8008 bound_to 7997
  154.5130  140.0796  156.8062 H   0  0  0  0  0  0  0  0  0  0  0  0  # atno 8009 bound_to 7997
  155.3771  140.3403  155.4247 H   0  0  0  0  0  0  0  0  0  0  0  0  # atno 8010 bound_to 7997
  140.5876  143.8860  150.6844 H   0  0  0  0  0  0  0  0  0  0  0  0  # atno 10167 bound_to 10162
  156.4816  130.4546  149.6808 H   0  0  0  0  0  0  0  0  0  0  0  0  # atno 10718 bound_to 10713
  154.2210  135.6377  153.5145 H   0  0  0  0  0  0  0  0  0  0  0  0  # atno 10763 bound_to 10752
  152.9969  135.5497  154.6114 H   0  0  0  0  0  0  0  0  0  0  0  0  # atno 10764 bound_to 10752
  154.5574  135.2906  155.0926 H   0  0  0  0  0  0  0  0  0  0  0  0  # atno 10765 bound_to 10752
  140.9855  134.0612  157.3715 H   0  0  0  0  0  0  0  0  0  0  0  0  # atno 11005 bound_to 11000
  146.2304  140.5666  142.8978 LP  0  0  0  0  0  0  0  0  0  0  0  0  # atno 17320 bound_to 7965
  144.7853  140.5924  143.6578 LP  0  0  0  0  0  0  0  0  0  0  0  0  # atno 17321 bound_to 7965
  140.2374  143.3689  152.1515 LP  0  0  0  0  0  0  0  0  0  0  0  0  # atno 17342 bound_to 10162
  139.5207  144.7036  151.5420 LP  0  0  0  0  0  0  0  0  0  0  0  0  # atno 17343 bound_to 10162
  156.3516  130.7435  151.2395 LP  0  0  0  0  0  0  0  0  0  0  0  0  # atno 17370 bound_to 10713
  157.7482  131.0375  150.4461 LP  0  0  0  0  0  0  0  0  0  0  0  0  # atno 17371 bound_to 10713
  139.8969  135.0148  156.7073 LP  0  0  0  0  0  0  0  0  0  0  0  0  # atno 17394 bound_to 11000
  140.7120  133.9214  155.8091 LP  0  0  0  0  0  0  0  0  0  0  0  0  # atno 17395 bound_to 11000

$$$$
