AV-unprocessed.smi:2027|AV-procd|sdf|8211|dock6
  -GOLD-   2272010473D 1   1.00000     0.00000
 Structure written by MMmdl.
 50 52  0  0  0  0  0  0  0  0  2 V2000
  152.1956  142.0015  158.8213 C   0  0  0  0  0  0  0  0  0  0  0  0
  151.2153  141.4981  157.7764 C   0  0  0  0  0  0  0  0  0  0  0  0
  151.6937  140.6965  156.7154 C   0  0  0  0  0  0  0  0  0  0  0  0
  150.8154  140.2084  155.7234 C   0  0  0  0  0  0  0  0  0  0  0  0
  151.0627  139.4232  154.6105 N   0  0  0  0  0  0  0  0  0  0  0  0
  149.8466  139.3116  154.0845 C   0  0  0  0  0  0  0  0  0  0  0  0
  148.8385  139.9351  154.7244 N   0  0  0  0  0  0  0  0  0  0  0  0
  147.4391  139.9576  154.3380 C   0  0  0  0  0  0  0  0  0  0  0  0
  147.2225  139.5107  152.8793 C   0  0  2  0  0  0  0  0  0  0  0  0
  146.4010  140.4518  152.2140 O   0  0  0  0  0  0  0  0  0  0  0  0
  146.5409  138.1319  152.8015 C   0  0  0  0  0  0  0  0  0  0  0  0
  145.4800  138.0951  151.7597 N   0  3  1  0  0  0  0  0  0  0  0  0
  146.0300  138.1037  150.3843 C   0  0  0  0  0  0  0  0  0  0  0  0
  144.4913  137.0056  151.9563 C   0  0  0  0  0  0  0  0  0  0  0  0
  144.9209  135.7432  151.2565 C   0  0  0  0  0  0  0  0  0  0  0  0
  146.1275  135.0098  151.4447 C   0  0  0  0  0  0  0  0  0  0  0  0
  146.2100  133.9456  150.6640 N   0  0  0  0  0  0  0  0  0  0  0  0
  145.0605  133.9552  149.9590 N   0  0  0  0  0  0  0  0  0  0  0  0
  144.8086  132.9089  148.9911 C   0  0  0  0  0  0  0  0  0  0  0  0
  144.2624  135.0270  150.2960 C   0  0  0  0  0  0  0  0  0  0  0  0
  149.4339  140.5456  155.8234 C   0  0  0  0  0  0  0  0  0  0  0  0
  148.9459  141.3428  156.8739 C   0  0  0  0  0  0  0  0  0  0  0  0
  149.8376  141.8251  157.8546 C   0  0  0  0  0  0  0  0  0  0  0  0
  149.3009  142.6898  158.9816 C   0  0  0  0  0  0  0  0  0  0  0  0
  153.1931  141.5906  158.6623 H   0  0  0  0  0  0  0  0  0  0  0  0
  151.8727  141.7129  159.8218 H   0  0  0  0  0  0  0  0  0  0  0  0
  152.2696  143.0885  158.7808 H   0  0  0  0  0  0  0  0  0  0  0  0
  152.7435  140.4495  156.6541 H   0  0  0  0  0  0  0  0  0  0  0  0
  149.6784  138.7455  153.1799 H   0  0  0  0  0  0  0  0  0  0  0  0
  146.8870  139.3058  155.0168 H   0  0  0  0  0  0  0  0  0  0  0  0
  147.0520  140.9657  154.4931 H   0  0  0  0  0  0  0  0  0  0  0  0
  148.1883  139.4839  152.3742 H   0  0  0  0  0  0  0  0  0  0  0  0
  145.5305  140.4049  152.5813 H   0  0  0  0  0  0  0  0  0  0  0  0
  147.2749  137.3504  152.5992 H   0  0  0  0  0  0  0  0  0  0  0  0
  146.1286  137.9004  153.7840 H   0  0  0  0  0  0  0  0  0  0  0  0
  146.5837  137.1864  150.1796 H   0  0  0  0  0  0  0  0  0  0  0  0
  146.7013  138.9481  150.2305 H   0  0  0  0  0  0  0  0  0  0  0  0
  145.2286  138.1882  149.6494 H   0  0  0  0  0  0  0  0  0  0  0  0
  144.3835  136.8088  153.0238 H   0  0  0  0  0  0  0  0  0  0  0  0
  143.5117  137.3427  151.6136 H   0  0  0  0  0  0  0  0  0  0  0  0
  146.9450  135.2233  152.1175 H   0  0  0  0  0  0  0  0  0  0  0  0
  143.8294  133.0508  148.5325 H   0  0  0  0  0  0  0  0  0  0  0  0
  144.8312  131.9361  149.4840 H   0  0  0  0  0  0  0  0  0  0  0  0
  145.5721  132.9344  148.2130 H   0  0  0  0  0  0  0  0  0  0  0  0
  143.3031  135.1917  149.8274 H   0  0  0  0  0  0  0  0  0  0  0  0
  147.8943  141.5838  156.9225 H   0  0  0  0  0  0  0  0  0  0  0  0
  148.2427  142.9131  158.8422 H   0  0  0  0  0  0  0  0  0  0  0  0
  149.8372  143.6378  159.0285 H   0  0  0  0  0  0  0  0  0  0  0  0
  149.4133  142.1799  159.9387 H   0  0  0  0  0  0  0  0  0  0  0  0
  144.9585  138.9542  151.8646 H   0  0  0  0  0  0  0  0  0  0  0  0
  1  2  1  0  0  0  0
  1 25  1  0  0  0  0
  1 26  1  0  0  0  0
  1 27  1  0  0  0  0
  2 23  1  0  0  0  0
  2  3  2  0  0  0  0
  3  4  1  0  0  0  0
  3 28  1  0  0  0  0
  4 21  2  0  0  0  0
  4  5  1  0  0  0  0
  5  6  2  0  0  0  0
  6  7  1  0  0  0  0
  6 29  1  0  0  0  0
  7  8  1  0  0  0  0
  7 21  1  0  0  0  0
  8  9  1  0  0  0  0
  8 30  1  0  0  0  0
  8 31  1  0  0  0  0
  9 10  1  0  0  0  0
  9 11  1  0  0  0  0
  9 32  1  0  0  0  0
 10 33  1  0  0  0  0
 11 12  1  0  0  0  0
 11 34  1  0  0  0  0
 11 35  1  0  0  0  0
 12 13  1  0  0  0  0
 12 14  1  0  0  0  0
 12 50  1  0  0  0  0
 13 36  1  0  0  0  0
 13 37  1  0  0  0  0
 13 38  1  0  0  0  0
 14 15  1  0  0  0  0
 14 39  1  0  0  0  0
 14 40  1  0  0  0  0
 15 20  2  0  0  0  0
 15 16  1  0  0  0  0
 16 17  2  0  0  0  0
 16 41  1  0  0  0  0
 17 18  1  0  0  0  0
 18 19  1  0  0  0  0
 18 20  1  0  0  0  0
 19 42  1  0  0  0  0
 19 43  1  0  0  0  0
 19 44  1  0  0  0  0
 20 45  1  0  0  0  0
 21 22  1  0  0  0  0
 22 23  2  0  0  0  0
 22 46  1  0  0  0  0
 23 24  1  0  0  0  0
 24 47  1  0  0  0  0
 24 48  1  0  0  0  0
 24 49  1  0  0  0  0
M  CHG  1  12   1
M  END
> <s_m_source_file>
AV-unprocessed.smi

> <i_m_source_file_index>
2027

> <i_lp_mmshare_version>
43012

> <i_f3d_flags>
0

> <s_epik_input>
W0NIM11jKFtjSF0xKWMoW0NIM10pW2NIXWMoYzEyKW4oW2NIXW4yKVtDSDJdW0NASF0oW09IXSlbQ0gyXU4oW0NIM10pW0NIMl1jM1tjSF1ubihbQ0gzXSlbY0hdMw==

> <s_epik_cmdline>
J2VwaWtfcHl0aG9uJywgJy1waCcsICc3LjAnLCAnLXRuJywgJzgnLCAnLW1hJywgJzIwMCcsICctbWV0YWxfYmluZGluZycsICctaW1hZScsICc8aW5maWxlLm1hZT4nLCAnLW9tYWUnLCAnPG91dGZpbGUubWFlPic=

> <r_lp_tautomer_probability>
1

> <r_epik_Ionization_Penalty>
0.646578

> <r_epik_Ionization_Penalty_Charging>
0.559419

> <r_epik_Ionization_Penalty_Neutral>
0.087159

> <r_epik_State_Penalty>
0.661677

> <r_epik_Charging_Adjusted_Penalty>
1.2211

> <i_epik_Tot_Q>
1

> <i_epik_Tot_abs_Q>
1

> <r_epik_Metal_State_Penalty>
0.649174

> <b_epik_Metal_Only>
0

> <s_lp_Force_Field>
OPLS_2005

> <r_lp_Energy>
8.87495

> <b_lp_Chiralities_Consistent>
1

> <s_lp_Variant>
AV-unprocessed.smi:2027-3

> <Gold.Version>
5.8.1

> <Gold.Id.Protein>
6NUR|6NUR_protein|mol2

> <Gold.PLP.Fitness>
52.4923

> <Gold.PLP.PLP>
-37.5759

> <Gold.PLP.part.hbond>
-3.9923

> <Gold.PLP.part.metal>
0.0000

> <Gold.PLP.part.buried>
3.7138

> <Gold.PLP.part.nonpolar>
-37.8344

> <Gold.PLP.part.repulsive>
0.2923

> <Gold.PLP.ligand.clash>
0.0030

> <Gold.PLP.ligand.torsion>
1.9370

> <Gold.PLP.Chemscore.Hbond>
3.5525

> <Gold.PLP.Chemscore.CHOScore>
2.6543

> <Gold.PLP.Chemscore.Metal>
0.0000

> <Gold.Chemscore.Hbonds>
donor molecule, donor type, donor heavy atom, donor atom, acceptor molecule, acceptor atom, score
      L1  H    10    33       P1 10175  1.00
      L1  H    12    50       P1 10175  1.89
      P1  H  7989  7998       L1     5  0.64
      L1  C     6    29       P1  7948  0.11
      L1  C     6    29       P1  7957  0.72
      L1  C    16    41       P1  7948  1.00
      L1  C    20    45       P1 10186  1.00

> <Gold.PLP.Chemscore.Internal.Correction>
0.1730

> <Gold.Rescore>
     Score         DG    S(hbond)    S(metal)    S(lipo)     H(rot)  DE(clash)    DE(int)     intcor
     13.13     -16.70       1.64        0.00     103.92       2.50       1.58       1.98       ----

> <Gold.Chemscore.Fitness>
13.1340

> <Gold.Chemscore.DG>
-16.6970

> <Gold.Chemscore.ZeroCoef>
-5.4800

> <Gold.Chemscore.Hbond>
1.6379

> <Gold.Chemscore.Metal>
0.0000

> <Gold.Chemscore.Lipo>
103.9179

> <Gold.Chemscore.Internal_Hbond>
0.0000

> <Gold.Chemscore.DEClash>
1.5827

> <Gold.Chemscore.DEInternal>
1.9802

> <Gold.Chemscore.Rot>
2.5047

> <Gold.Chemscore.Internal.Correction>
   9.000000E+99

> <Gold.Chemscore.Hbonds>
donor molecule, donor type, donor heavy atom, donor atom, acceptor molecule, acceptor atom, score
      L1  H    10    33       P1 10175  0.67
      L1  H    12    50       P1 10175  0.90
      P1  H  7989  7998       L1     5  0.01

> <Gold.Chemscore.Hbond.Weighted>
-5.4706

> <Gold.Chemscore.Metal.Weighted>
-0.0000

> <Gold.Chemscore.Lipo.Weighted>
-12.1584

> <Gold.Chemscore.Internal_Hbond.Weighted>
0.0000

> <Gold.Chemscore.DEClash.Weighted>
1.5827

> <Gold.Chemscore.DEInternal.Weighted>
1.9802

> <Gold.Chemscore.Rot.Weighted>
6.4120

> <Gold.Chemscore.Internal.Correction.Weighted>
   9.000000E+99

> <Gold.Protein.RotatedTorsions>
[ 6907 6896 6895 6894 ] final   33.24 input  -60.11 | X-H torsion
[ 7974 7965 7964 7962 ] final   80.30 input  175.53 | X-H torsion
[ 8008 7997 7996 7995 ] final  135.85 input   59.86 | X-H torsion
[ 10167 10162 10161 10158 ] final -122.71 input  -65.29 | X-H torsion
[ 10718 10713 10712 10709 ] final  114.45 input   66.30 | X-H torsion
[ 10763 10752 10751 10750 ] final  115.89 input  -60.55 | X-H torsion
[ 11005 11000 10999 10996 ] final -130.68 input  -57.11 | X-H torsion

> <Gold.Protein.ActiveResidues>
 VAL166  LYS551  ARG553  GLY616  TRP617  ASP618  TYR619  PRO620  LYS621  CYS622 
 ASP623  PHE694  ASN695  SER759  ASP760  ASP761  ALA762  ILE779  LEU786  VAL792 
 PHE793  MET794  SER795  GLU796  ALA797  LYS798  CYS799  TRP800  GLU811  SER814 

> <Gold.Protein.RotatedAtoms>
  152.0858  134.9441  160.0572 H   0  0  0  0  0  0  0  0  0  0  0  0  # atno 6907 bound_to 6896
  152.0711  133.4102  159.4468 H   0  0  0  0  0  0  0  0  0  0  0  0  # atno 6908 bound_to 6896
  150.6836  134.3010  159.4750 H   0  0  0  0  0  0  0  0  0  0  0  0  # atno 6909 bound_to 6896
  145.6529  139.2452  143.1966 H   0  0  0  0  0  0  0  0  0  0  0  0  # atno 7974 bound_to 7965
  156.3003  140.2460  156.3649 H   0  0  0  0  0  0  0  0  0  0  0  0  # atno 8008 bound_to 7997
  154.8843  140.0411  157.1820 H   0  0  0  0  0  0  0  0  0  0  0  0  # atno 8009 bound_to 7997
  154.8664  140.2928  155.5512 H   0  0  0  0  0  0  0  0  0  0  0  0  # atno 8010 bound_to 7997
  140.0113  143.5438  152.2261 H   0  0  0  0  0  0  0  0  0  0  0  0  # atno 10167 bound_to 10162
  157.6280  131.0999  150.7187 H   0  0  0  0  0  0  0  0  0  0  0  0  # atno 10718 bound_to 10713
  153.5290  135.3582  155.2667 H   0  0  0  0  0  0  0  0  0  0  0  0  # atno 10763 bound_to 10752
  154.8728  135.4064  154.3173 H   0  0  0  0  0  0  0  0  0  0  0  0  # atno 10764 bound_to 10752
  153.3858  135.7070  153.6599 H   0  0  0  0  0  0  0  0  0  0  0  0  # atno 10765 bound_to 10752
  140.9325  134.1301  157.4222 H   0  0  0  0  0  0  0  0  0  0  0  0  # atno 11005 bound_to 11000
  146.1188  140.7335  142.9467 LP  0  0  0  0  0  0  0  0  0  0  0  0  # atno 17320 bound_to 7965
  144.7116  140.4059  143.7076 LP  0  0  0  0  0  0  0  0  0  0  0  0  # atno 17321 bound_to 7965
  139.6203  144.7627  151.2755 LP  0  0  0  0  0  0  0  0  0  0  0  0  # atno 17342 bound_to 10162
  140.7380  143.6661  150.8122 LP  0  0  0  0  0  0  0  0  0  0  0  0  # atno 17343 bound_to 10162
  156.7532  130.4775  149.5452 LP  0  0  0  0  0  0  0  0  0  0  0  0  # atno 17370 bound_to 10713
  156.1465  130.6280  151.0538 LP  0  0  0  0  0  0  0  0  0  0  0  0  # atno 17371 bound_to 10713
  139.8800  135.0010  156.6041 LP  0  0  0  0  0  0  0  0  0  0  0  0  # atno 17394 bound_to 11000
  140.7844  133.8634  155.8594 LP  0  0  0  0  0  0  0  0  0  0  0  0  # atno 17395 bound_to 11000

$$$$
