AV-unprocessed.smi:693|AV-procd|sdf|3375|dock6
  -GOLD-   22720 0353D 1   1.00000     0.00000
 Structure written by MMmdl.
 47 48  0  0  0  0  0  0  0  0  2 V2000
  153.8654  133.4679  163.6776 C   0  0  0  0  0  0  0  0  0  0  0  0
  153.6684  134.7522  162.9001 C   0  0  0  0  0  0  0  0  0  0  0  0
  152.9489  135.8431  163.4324 C   0  0  0  0  0  0  0  0  0  0  0  0
  152.8010  137.0141  162.6599 C   0  0  0  0  0  0  0  0  0  0  0  0
  153.3755  137.0700  161.3711 C   0  0  0  0  0  0  0  0  0  0  0  0
  153.2459  138.3160  160.5173 C   0  0  0  0  0  0  0  0  0  0  0  0
  153.8005  139.5612  161.2279 C   0  0  0  0  0  0  0  0  0  0  0  0
  153.4641  140.7849  160.5097 N   0  0  0  0  0  0  0  0  0  0  0  0
  152.7640  141.8122  161.0211 C   0  0  0  0  0  0  0  0  0  0  0  0
  152.3594  141.8091  162.1849 O   0  0  0  0  0  0  0  0  0  0  0  0
  152.5684  142.8501  160.1685 N   0  0  0  0  0  0  0  0  0  0  0  0
  152.8362  142.8508  158.7213 C   0  0  0  0  0  0  0  0  0  0  0  0
  151.4938  142.7464  157.9788 C   0  0  0  0  0  0  0  0  0  0  0  0
  150.5410  143.8839  158.3938 C   0  0  0  0  0  0  0  0  0  0  0  0
  150.4154  144.0166  159.9331 C   0  0  2  0  0  0  0  0  0  0  0  0
  149.5874  145.2426  160.3812 C   0  0  0  0  0  0  0  0  0  0  0  0
  148.0722  145.0176  160.3390 C   0  0  0  0  0  0  0  0  0  0  0  0
  147.3989  145.6004  159.3439 N   0  0  0  0  0  0  0  0  0  0  0  0
  147.5182  144.3097  161.1773 O   0  0  0  0  0  0  0  0  0  0  0  0
  151.8241  144.0513  160.5679 C   0  0  0  0  0  0  0  0  0  0  0  0
  154.0832  135.9478  160.8901 C   0  0  0  0  0  0  0  0  0  0  0  0
  154.2017  134.8446  161.6608 N   0  3  0  0  0  0  0  0  0  0  0  0
  154.2471  133.6841  164.6758 H   0  0  0  0  0  0  0  0  0  0  0  0
  154.5742  132.8055  163.1792 H   0  0  0  0  0  0  0  0  0  0  0  0
  152.9169  132.9402  163.7800 H   0  0  0  0  0  0  0  0  0  0  0  0
  152.5164  135.7848  164.4209 H   0  0  0  0  0  0  0  0  0  0  0  0
  152.2554  137.8586  163.0551 H   0  0  0  0  0  0  0  0  0  0  0  0
  153.7716  138.1500  159.5758 H   0  0  0  0  0  0  0  0  0  0  0  0
  152.1965  138.4672  160.2600 H   0  0  0  0  0  0  0  0  0  0  0  0
  153.3879  139.6313  162.2350 H   0  0  0  0  0  0  0  0  0  0  0  0
  154.8834  139.4861  161.3417 H   0  0  0  0  0  0  0  0  0  0  0  0
  153.7743  140.8551  159.5513 H   0  0  0  0  0  0  0  0  0  0  0  0
  153.3396  143.7798  158.4496 H   0  0  0  0  0  0  0  0  0  0  0  0
  153.5048  142.0554  158.3930 H   0  0  0  0  0  0  0  0  0  0  0  0
  151.6575  142.7730  156.9011 H   0  0  0  0  0  0  0  0  0  0  0  0
  151.0305  141.7833  158.1976 H   0  0  0  0  0  0  0  0  0  0  0  0
  150.9118  144.8235  157.9819 H   0  0  0  0  0  0  0  0  0  0  0  0
  149.5664  143.7117  157.9374 H   0  0  0  0  0  0  0  0  0  0  0  0
  149.9129  143.1217  160.3052 H   0  0  0  0  0  0  0  0  0  0  0  0
  149.8689  145.5227  161.3976 H   0  0  0  0  0  0  0  0  0  0  0  0
  149.8291  146.1034  159.7564 H   0  0  0  0  0  0  0  0  0  0  0  0
  146.3990  145.4800  159.2725 H   0  0  0  0  0  0  0  0  0  0  0  0
  147.8941  146.1591  158.6641 H   0  0  0  0  0  0  0  0  0  0  0  0
  151.7486  144.1468  161.6523 H   0  0  0  0  0  0  0  0  0  0  0  0
  152.3651  144.9389  160.2359 H   0  0  0  0  0  0  0  0  0  0  0  0
  154.5580  135.9004  159.9207 H   0  0  0  0  0  0  0  0  0  0  0  0
  154.7182  134.0461  161.2912 H   0  0  0  0  0  0  0  0  0  0  0  0
  1  2  1  0  0  0  0
  1 23  1  0  0  0  0
  1 24  1  0  0  0  0
  1 25  1  0  0  0  0
  2 22  1  0  0  0  0
  2  3  2  0  0  0  0
  3  4  1  0  0  0  0
  3 26  1  0  0  0  0
  4  5  2  0  0  0  0
  4 27  1  0  0  0  0
  5  6  1  0  0  0  0
  5 21  1  0  0  0  0
  6  7  1  0  0  0  0
  6 28  1  0  0  0  0
  6 29  1  0  0  0  0
  7  8  1  0  0  0  0
  7 30  1  0  0  0  0
  7 31  1  0  0  0  0
  8  9  1  0  0  0  0
  8 32  1  0  0  0  0
  9 10  2  0  0  0  0
  9 11  1  0  0  0  0
 11 20  1  0  0  0  0
 11 12  1  0  0  0  0
 12 13  1  0  0  0  0
 12 33  1  0  0  0  0
 12 34  1  0  0  0  0
 13 14  1  0  0  0  0
 13 35  1  0  0  0  0
 13 36  1  0  0  0  0
 14 15  1  0  0  0  0
 14 37  1  0  0  0  0
 14 38  1  0  0  0  0
 15 16  1  0  0  0  0
 15 20  1  0  0  0  0
 15 39  1  0  0  0  0
 16 17  1  0  0  0  0
 16 40  1  0  0  0  0
 16 41  1  0  0  0  0
 17 18  1  0  0  0  0
 17 19  2  0  0  0  0
 18 42  1  0  0  0  0
 18 43  1  0  0  0  0
 20 44  1  0  0  0  0
 20 45  1  0  0  0  0
 21 22  2  0  0  0  0
 21 46  1  0  0  0  0
 22 47  1  0  0  0  0
M  CHG  1  22   1
M  END
> <s_m_source_file>
AV-unprocessed.smi

> <i_m_source_file_index>
693

> <i_lp_mmshare_version>
43012

> <i_f3d_flags>
0

> <s_epik_input>
W0NIM11jMVtjSF1bY0hdYyhbY0hdbjEpW0NIMl1bQ0gyXVtOSF1DKD1PKU4yW0NIMl1bQ0gyXVtDSDJdW0NASF0oW0NIMl0yKVtDSDJdQyg9TylbTkgyXQ==

> <s_epik_cmdline>
J2VwaWtfcHl0aG9uJywgJy1waCcsICc3LjAnLCAnLXRuJywgJzgnLCAnLW1hJywgJzIwMCcsICctbWV0YWxfYmluZGluZycsICctaW1hZScsICc8aW5maWxlLm1hZT4nLCAnLW9tYWUnLCAnPG91dGZpbGUubWFlPic=

> <r_epik_Ionization_Penalty>
1.41666

> <r_epik_Ionization_Penalty_Charging>
1.4166

> <r_epik_Ionization_Penalty_Neutral>
5.77403e-05

> <r_epik_State_Penalty>
1.50002

> <r_epik_Charging_Adjusted_Penalty>
2.91662

> <i_epik_Tot_Q>
1

> <i_epik_Tot_abs_Q>
1

> <r_epik_Metal_State_Penalty>
1.55252

> <b_epik_Metal_Only>
0

> <s_lp_Force_Field>
OPLS_2005

> <r_lp_Energy>
32.8

> <b_lp_Chiralities_Consistent>
1

> <s_lp_Variant>
AV-unprocessed.smi:693-4

> <Gold.Version>
5.8.1

> <Gold.Id.Protein>
6NUR|6NUR_protein|mol2

> <Gold.PLP.Fitness>
48.0812

> <Gold.PLP.PLP>
-42.9156

> <Gold.PLP.part.hbond>
-2.0000

> <Gold.PLP.part.metal>
0.0000

> <Gold.PLP.part.buried>
-7.4206

> <Gold.PLP.part.nonpolar>
-34.7999

> <Gold.PLP.part.repulsive>
0.4226

> <Gold.PLP.ligand.clash>
0.0000

> <Gold.PLP.ligand.torsion>
0.4763

> <Gold.PLP.Chemscore.Hbond>
2.0000

> <Gold.PLP.Chemscore.CHOScore>
0.0000

> <Gold.PLP.Chemscore.Metal>
0.0000

> <Gold.Chemscore.Hbonds>
donor molecule, donor type, donor heavy atom, donor atom, acceptor molecule, acceptor atom, score
      L1  H    18    43       P1  8029  0.33
      P1  H  6933  6944       L1    19  0.60
      P1  H  6933  6945       L1    10  0.31

> <Gold.PLP.Chemscore.Internal.Correction>
0.1183

> <Gold.Rescore>
     Score         DG    S(hbond)    S(metal)    S(lipo)     H(rot)  DE(clash)    DE(int)     intcor
     15.11     -15.74       1.12        0.00     106.82       2.34       0.16       0.47       ----

> <Gold.Chemscore.Fitness>
15.1121

> <Gold.Chemscore.DG>
-15.7382

> <Gold.Chemscore.ZeroCoef>
-5.4800

> <Gold.Chemscore.Hbond>
1.1195

> <Gold.Chemscore.Metal>
0.0000

> <Gold.Chemscore.Lipo>
106.8180

> <Gold.Chemscore.Internal_Hbond>
0.0000

> <Gold.Chemscore.DEClash>
0.1580

> <Gold.Chemscore.DEInternal>
0.4681

> <Gold.Chemscore.Rot>
2.3354

> <Gold.Chemscore.Internal.Correction>
   9.000000E+99

> <Gold.Chemscore.Hbonds>
donor molecule, donor type, donor heavy atom, donor atom, acceptor molecule, acceptor atom, score
      L1  H    18    43       P1  8029  0.34
      P1  H  6933  6944       L1    19  0.52
      P1  H  6933  6945       L1    10  0.23

> <Gold.Chemscore.Hbond.Weighted>
-3.7390

> <Gold.Chemscore.Metal.Weighted>
-0.0000

> <Gold.Chemscore.Lipo.Weighted>
-12.4977

> <Gold.Chemscore.Internal_Hbond.Weighted>
0.0000

> <Gold.Chemscore.DEClash.Weighted>
0.1580

> <Gold.Chemscore.DEInternal.Weighted>
0.4681

> <Gold.Chemscore.Rot.Weighted>
5.9785

> <Gold.Chemscore.Internal.Correction.Weighted>
   9.000000E+99

> <Gold.Protein.RotatedTorsions>
[ 6907 6896 6895 6894 ] final   52.03 input  -60.11 | X-H torsion
[ 7974 7965 7964 7962 ] final  132.65 input  175.53 | X-H torsion
[ 8008 7997 7996 7995 ] final  160.87 input   59.86 | X-H torsion
[ 10167 10162 10161 10158 ] final -143.20 input  -65.29 | X-H torsion
[ 10718 10713 10712 10709 ] final   93.10 input   66.30 | X-H torsion
[ 10763 10752 10751 10750 ] final -159.69 input  -60.55 | X-H torsion
[ 11005 11000 10999 10996 ] final  175.88 input  -57.11 | X-H torsion

> <Gold.Protein.ActiveResidues>
 VAL166  LYS551  ARG553  GLY616  TRP617  ASP618  TYR619  PRO620  LYS621  CYS622 
 ASP623  PHE694  ASN695  SER759  ASP760  ASP761  ALA762  ILE779  LEU786  VAL792 
 PHE793  MET794  SER795  GLU796  ALA797  LYS798  CYS799  TRP800  GLU811  SER814 

> <Gold.Protein.RotatedAtoms>
  152.3190  134.7404  160.0318 H   0  0  0  0  0  0  0  0  0  0  0  0  # atno 6907 bound_to 6896
  151.7859  133.3349  159.3493 H   0  0  0  0  0  0  0  0  0  0  0  0  # atno 6908 bound_to 6896
  150.7359  134.5818  159.5987 H   0  0  0  0  0  0  0  0  0  0  0  0  # atno 6909 bound_to 6896
  144.9946  139.4372  143.5322 H   0  0  0  0  0  0  0  0  0  0  0  0  # atno 7974 bound_to 7965
  156.2143  140.1792  156.7625 H   0  0  0  0  0  0  0  0  0  0  0  0  # atno 8008 bound_to 7997
  154.5768  140.0673  156.9075 H   0  0  0  0  0  0  0  0  0  0  0  0  # atno 8009 bound_to 7997
  155.2574  140.3333  155.4279 H   0  0  0  0  0  0  0  0  0  0  0  0  # atno 8010 bound_to 7997
  139.8016  143.7826  152.2658 H   0  0  0  0  0  0  0  0  0  0  0  0  # atno 10167 bound_to 10162
  157.6956  131.0466  150.3983 H   0  0  0  0  0  0  0  0  0  0  0  0  # atno 10718 bound_to 10713
  154.7454  135.3079  154.8654 H   0  0  0  0  0  0  0  0  0  0  0  0  # atno 10763 bound_to 10752
  153.9457  135.6769  153.4748 H   0  0  0  0  0  0  0  0  0  0  0  0  # atno 10764 bound_to 10752
  153.1050  135.4893  154.8862 H   0  0  0  0  0  0  0  0  0  0  0  0  # atno 10765 bound_to 10752
  140.3670  134.7063  157.4368 H   0  0  0  0  0  0  0  0  0  0  0  0  # atno 11005 bound_to 11000
  146.3439  139.9298  142.8755 LP  0  0  0  0  0  0  0  0  0  0  0  0  # atno 17320 bound_to 7965
  145.2237  140.9945  143.4030 LP  0  0  0  0  0  0  0  0  0  0  0  0  # atno 17321 bound_to 7965
  139.7948  144.7397  150.9906 LP  0  0  0  0  0  0  0  0  0  0  0  0  # atno 17342 bound_to 10162
  140.7820  143.4405  151.0558 LP  0  0  0  0  0  0  0  0  0  0  0  0  # atno 17343 bound_to 10162
  156.4379  130.3985  149.6717 LP  0  0  0  0  0  0  0  0  0  0  0  0  # atno 17370 bound_to 10713
  156.3911  130.7627  151.2628 LP  0  0  0  0  0  0  0  0  0  0  0  0  # atno 17371 bound_to 10713
  140.0582  134.6034  155.8780 LP  0  0  0  0  0  0  0  0  0  0  0  0  # atno 17394 bound_to 11000
  141.1966  133.6592  156.5702 LP  0  0  0  0  0  0  0  0  0  0  0  0  # atno 17395 bound_to 11000

$$$$
