AV-unprocessed.smi:505|AV-procd|sdf|2748|dock6
  -GOLD-   2262023213D 1   1.00000     0.00000
 Structure written by MMmdl.
 37 38  0  0  0  0  0  0  0  0  1 V2000
  150.4432  135.4097  155.3759 C   0  0  0  0  0  0  0  0  0  0  0  0
  151.3090  136.5184  155.2127 O   0  0  0  0  0  0  0  0  0  0  0  0
  150.6615  137.7566  155.4564 C   0  0  0  0  0  0  0  0  0  0  0  0
  151.6879  138.8963  155.3958 C   0  0  0  0  0  0  0  0  0  0  0  0
  151.2044  140.1074  156.0516 N   0  0  0  0  0  0  0  0  0  0  0  0
  150.1994  140.9270  155.6549 C   0  0  0  0  0  0  0  0  0  0  0  0
  149.5019  140.6679  154.4829 N   0  0  0  0  0  0  0  0  0  0  0  0
  148.4062  141.3618  153.8343 C   0  0  0  0  0  0  0  0  0  0  0  0
  147.1883  141.4886  154.7581 C   0  0  0  0  0  0  0  0  0  0  0  0
  147.5180  142.2676  155.8884 O   0  0  0  0  0  0  0  0  0  0  0  0
  149.9674  141.9670  156.4598 N   0  0  0  0  0  0  0  0  0  0  0  0
  150.9214  141.8014  157.4548 C   0  0  0  0  0  0  0  0  0  0  0  0
  151.6771  140.6972  157.2226 C   0  0  0  0  0  0  0  0  0  0  0  0
  152.7767  140.2911  158.1056 C   0  0  0  0  0  0  0  0  0  0  0  0
  153.4755  139.2999  157.9046 O   0  0  0  0  0  0  0  0  0  0  0  0
  152.9449  141.1250  159.1606 N   0  0  0  0  0  0  0  0  0  0  0  0
  152.2212  142.2482  159.4561 C   0  0  0  0  0  0  0  0  0  0  0  0
  152.4968  142.9117  160.4556 O   0  0  0  0  0  0  0  0  0  0  0  0
  151.2001  142.5916  158.6066 N   0  0  0  0  0  0  0  0  0  0  0  0
  150.3911  143.7816  158.8772 C   0  0  0  0  0  0  0  0  0  0  0  0
  153.6910  140.8930  159.7999 H   0  0  0  0  0  0  0  0  0  0  0  0
  150.9898  134.4871  155.1806 H   0  0  0  0  0  0  0  0  0  0  0  0
  149.6050  135.4587  154.6797 H   0  0  0  0  0  0  0  0  0  0  0  0
  150.0523  135.3609  156.3930 H   0  0  0  0  0  0  0  0  0  0  0  0
  149.8827  137.9229  154.7107 H   0  0  0  0  0  0  0  0  0  0  0  0
  150.1781  137.7396  156.4344 H   0  0  0  0  0  0  0  0  0  0  0  0
  152.6228  138.5821  155.8605 H   0  0  0  0  0  0  0  0  0  0  0  0
  151.9389  139.1283  154.3613 H   0  0  0  0  0  0  0  0  0  0  0  0
  149.8531  139.8848  153.9508 H   0  0  0  0  0  0  0  0  0  0  0  0
  148.7639  142.3571  153.5694 H   0  0  0  0  0  0  0  0  0  0  0  0
  148.1432  140.8621  152.9012 H   0  0  0  0  0  0  0  0  0  0  0  0
  146.3283  141.9125  154.2382 H   0  0  0  0  0  0  0  0  0  0  0  0
  146.8943  140.5006  155.1133 H   0  0  0  0  0  0  0  0  0  0  0  0
  147.8915  143.0839  155.5930 H   0  0  0  0  0  0  0  0  0  0  0  0
  149.9572  143.7332  159.8772 H   0  0  0  0  0  0  0  0  0  0  0  0
  149.5665  143.8961  158.1737 H   0  0  0  0  0  0  0  0  0  0  0  0
  151.0044  144.6815  158.8138 H   0  0  0  0  0  0  0  0  0  0  0  0
  1  2  1  0  0  0  0
  1 22  1  0  0  0  0
  1 23  1  0  0  0  0
  1 24  1  0  0  0  0
  2  3  1  0  0  0  0
  3  4  1  0  0  0  0
  3 25  1  0  0  0  0
  3 26  1  0  0  0  0
  4  5  1  0  0  0  0
  4 27  1  0  0  0  0
  4 28  1  0  0  0  0
  5 13  1  0  0  0  0
  5  6  1  0  0  0  0
  6  7  1  0  0  0  0
  6 11  2  0  0  0  0
  7  8  1  0  0  0  0
  7 29  1  0  0  0  0
  8  9  1  0  0  0  0
  8 30  1  0  0  0  0
  8 31  1  0  0  0  0
  9 10  1  0  0  0  0
  9 32  1  0  0  0  0
  9 33  1  0  0  0  0
 10 34  1  0  0  0  0
 11 12  1  0  0  0  0
 12 19  1  0  0  0  0
 12 13  2  0  0  0  0
 13 14  1  0  0  0  0
 14 15  2  0  0  0  0
 14 16  1  0  0  0  0
 16 21  1  0  0  0  0
 16 17  1  0  0  0  0
 17 18  2  0  0  0  0
 17 19  1  0  0  0  0
 19 20  1  0  0  0  0
 20 35  1  0  0  0  0
 20 36  1  0  0  0  0
 20 37  1  0  0  0  0
M  END
> <s_m_source_file>
AV-unprocessed.smi

> <i_m_source_file_index>
505

> <i_lp_mmshare_version>
43012

> <i_f3d_flags>
0

> <s_epik_input>
W09IXVtDSDJdW0NIMl1bTkhdYyhuMSluKFtDSDJdW0NIMl1PW0NIM10pYyhjMTIpYyg9TylbbkhdYyg9TyluMltDSDNd

> <s_epik_cmdline>
J2VwaWtfcHl0aG9uJywgJy1waCcsICc3LjAnLCAnLXRuJywgJzgnLCAnLW1hJywgJzIwMCcsICctbWV0YWxfYmluZGluZycsICctaW1hZScsICc8aW5maWxlLm1hZT4nLCAnLW9tYWUnLCAnPG91dGZpbGUubWFlPic=

> <r_lp_tautomer_probability>
1

> <r_epik_Ionization_Penalty>
7.89905e-05

> <r_epik_Ionization_Penalty_Charging>
2.6983e-05

> <r_epik_Ionization_Penalty_Neutral>
5.20075e-05

> <r_epik_State_Penalty>
-0

> <r_epik_Charging_Adjusted_Penalty>
2.6983e-05

> <i_epik_Tot_Q>
0

> <i_epik_Tot_abs_Q>
0

> <r_epik_Metal_State_Penalty>
0.02526

> <b_epik_Metal_Only>
0

> <s_lp_Force_Field>
OPLS_2005

> <r_lp_Energy>
22.7063

> <b_lp_Chiralities_Consistent>
1

> <s_lp_Variant>
AV-unprocessed.smi:505-1

> <Gold.Version>
5.8.1

> <Gold.Id.Protein>
6NUR|6NUR_protein|mol2

> <Gold.PLP.Fitness>
40.1373

> <Gold.PLP.PLP>
-31.7440

> <Gold.PLP.part.hbond>
-3.0000

> <Gold.PLP.part.metal>
0.0000

> <Gold.PLP.part.buried>
-3.8791

> <Gold.PLP.part.nonpolar>
-25.4080

> <Gold.PLP.part.repulsive>
1.2149

> <Gold.PLP.ligand.clash>
0.0000

> <Gold.PLP.ligand.torsion>
0.1604

> <Gold.PLP.Chemscore.Hbond>
2.9000

> <Gold.PLP.Chemscore.CHOScore>
0.0000

> <Gold.PLP.Chemscore.Metal>
0.0000

> <Gold.Chemscore.Hbonds>
donor molecule, donor type, donor heavy atom, donor atom, acceptor molecule, acceptor atom, score
      L1  H    10    34       P1  8028  1.00
      P1  H  7997  8010       L1    15  1.00
      P1  H 10752 10764       L1     2  0.95

> <Gold.PLP.Chemscore.Internal.Correction>
0.0140

> <Gold.Rescore>
     Score         DG    S(hbond)    S(metal)    S(lipo)     H(rot)  DE(clash)    DE(int)     intcor
      6.62      -8.69       1.84        0.00      41.81       3.06       0.07       1.99       ----

> <Gold.Chemscore.Fitness>
6.6226

> <Gold.Chemscore.DG>
-8.6854

> <Gold.Chemscore.ZeroCoef>
-5.4800

> <Gold.Chemscore.Hbond>
1.8420

> <Gold.Chemscore.Metal>
0.0000

> <Gold.Chemscore.Lipo>
41.8142

> <Gold.Chemscore.Internal_Hbond>
0.0000

> <Gold.Chemscore.DEClash>
0.0727

> <Gold.Chemscore.DEInternal>
1.9901

> <Gold.Chemscore.Rot>
3.0621

> <Gold.Chemscore.Internal.Correction>
   9.000000E+99

> <Gold.Chemscore.Hbonds>
donor molecule, donor type, donor heavy atom, donor atom, acceptor molecule, acceptor atom, score
      L1  H    10    34       P1  8028  0.60
      P1  H  7997  8010       L1    15  0.25
      P1  H 10752 10764       L1     2  0.21

> <Gold.Chemscore.Hbond.Weighted>
-6.1522

> <Gold.Chemscore.Metal.Weighted>
-0.0000

> <Gold.Chemscore.Lipo.Weighted>
-4.8923

> <Gold.Chemscore.Internal_Hbond.Weighted>
0.0000

> <Gold.Chemscore.DEClash.Weighted>
0.0727

> <Gold.Chemscore.DEInternal.Weighted>
1.9901

> <Gold.Chemscore.Rot.Weighted>
7.8390

> <Gold.Chemscore.Internal.Correction.Weighted>
   9.000000E+99

> <Gold.Protein.RotatedTorsions>
[ 6907 6896 6895 6894 ] final   41.43 input  -60.11 | X-H torsion
[ 7974 7965 7964 7962 ] final  177.48 input  175.53 | X-H torsion
[ 8008 7997 7996 7995 ] final   17.39 input   59.86 | X-H torsion
[ 10167 10162 10161 10158 ] final -133.54 input  -65.29 | X-H torsion
[ 10718 10713 10712 10709 ] final  -51.68 input   66.30 | X-H torsion
[ 10763 10752 10751 10750 ] final  -46.52 input  -60.55 | X-H torsion
[ 11005 11000 10999 10996 ] final  -45.31 input  -57.11 | X-H torsion

> <Gold.Protein.ActiveResidues>
 VAL166  LYS551  ARG553  GLY616  TRP617  ASP618  TYR619  PRO620  LYS621  CYS622 
 ASP623  PHE694  ASN695  SER759  ASP760  ASP761  ALA762  ILE779  LEU786  VAL792 
 PHE793  MET794  SER795  GLU796  ALA797  LYS798  CYS799  TRP800  GLU811  SER814 

> <Gold.Protein.RotatedAtoms>
  152.1951  134.8637  160.0513 H   0  0  0  0  0  0  0  0  0  0  0  0  # atno 6907 bound_to 6896
  151.9512  133.3661  159.4009 H   0  0  0  0  0  0  0  0  0  0  0  0  # atno 6908 bound_to 6896
  150.6943  134.4262  159.5271 H   0  0  0  0  0  0  0  0  0  0  0  0  # atno 6909 bound_to 6896
  144.7168  140.0253  143.6439 H   0  0  0  0  0  0  0  0  0  0  0  0  # atno 7974 bound_to 7965
  154.8907  140.2986  155.5372 H   0  0  0  0  0  0  0  0  0  0  0  0  # atno 8008 bound_to 7997
  156.3021  140.2425  156.3857 H   0  0  0  0  0  0  0  0  0  0  0  0  # atno 8009 bound_to 7997
  154.8621  140.0405  157.1661 H   0  0  0  0  0  0  0  0  0  0  0  0  # atno 8010 bound_to 7997
  139.8972  143.6651  152.2601 H   0  0  0  0  0  0  0  0  0  0  0  0  # atno 10167 bound_to 10162
  156.1689  130.4149  149.9678 H   0  0  0  0  0  0  0  0  0  0  0  0  # atno 10718 bound_to 10713
  154.0463  135.6637  153.4795 H   0  0  0  0  0  0  0  0  0  0  0  0  # atno 10763 bound_to 10752
  153.0481  135.5101  154.7794 H   0  0  0  0  0  0  0  0  0  0  0  0  # atno 10764 bound_to 10752
  154.6786  135.3041  154.9610 H   0  0  0  0  0  0  0  0  0  0  0  0  # atno 10765 bound_to 10752
  141.0507  133.6744  156.2995 H   0  0  0  0  0  0  0  0  0  0  0  0  # atno 11005 bound_to 11000
  146.0147  139.3200  143.0849 LP  0  0  0  0  0  0  0  0  0  0  0  0  # atno 17320 bound_to 7965
  145.8640  140.9459  143.0685 LP  0  0  0  0  0  0  0  0  0  0  0  0  # atno 17321 bound_to 7965
  139.7057  144.7628  151.1197 LP  0  0  0  0  0  0  0  0  0  0  0  0  # atno 17342 bound_to 10162
  140.7714  143.5398  150.9326 LP  0  0  0  0  0  0  0  0  0  0  0  0  # atno 17343 bound_to 10162
  156.7485  130.9106  151.3636 LP  0  0  0  0  0  0  0  0  0  0  0  0  # atno 17370 bound_to 10713
  157.6788  130.9120  150.0215 LP  0  0  0  0  0  0  0  0  0  0  0  0  # atno 17371 bound_to 10713
  140.6060  134.5506  157.5526 LP  0  0  0  0  0  0  0  0  0  0  0  0  # atno 17394 bound_to 11000
  139.9348  134.7895  156.0832 LP  0  0  0  0  0  0  0  0  0  0  0  0  # atno 17395 bound_to 11000

$$$$
