AV-unprocessed.smi:2119|AV-procd|sdf|8632|dock6
  -GOLD-   2272011373D 1   1.00000     0.00000
 Structure written by MMmdl.
 47 49  0  0  0  0  0  0  0  0  1 V2000
  145.1661  135.3957  154.0596 O   0  0  0  0  0  0  0  0  0  0  0  0
  146.2021  135.2899  153.4038 C   0  0  0  0  0  0  0  0  0  0  0  0
  147.3121  135.9962  153.6595 N   0  0  0  0  0  0  0  0  0  0  0  0
  147.4404  137.0084  154.7049 C   0  0  0  0  0  0  0  0  0  0  0  0
  148.8007  137.7743  154.6671 C   0  0  2  0  0  0  0  0  0  0  0  0
  149.8349  137.0229  155.5745 C   0  0  1  0  0  0  0  0  0  0  0  0
  149.8420  135.5047  155.6251 C   0  0  0  0  0  0  0  0  0  0  0  0
  151.1531  135.2354  156.3533 C   0  0  0  0  0  0  0  0  0  0  0  0
  152.0468  136.2378  155.8809 O   0  0  0  0  0  0  0  0  0  0  0  0
  151.3122  137.2918  155.2618 C   0  0  0  0  0  0  0  0  0  0  0  0
  148.7116  139.2312  154.9428 N   0  0  0  0  0  0  0  0  0  0  0  0
  149.9818  139.9151  154.6663 C   0  0  0  0  0  0  0  0  0  0  0  0
  149.9368  141.4044  155.0452 C   0  0  0  0  0  0  0  0  0  0  0  0
  148.8949  142.0421  154.3165 O   0  0  0  0  0  0  0  0  0  0  0  0
  147.6251  141.4447  154.5482 C   0  0  0  0  0  0  0  0  0  0  0  0
  147.6760  139.9478  154.1904 C   0  0  0  0  0  0  0  0  0  0  0  0
  146.3844  134.4639  152.3596 N   0  0  0  0  0  0  0  0  0  0  0  0
  145.4491  133.5915  151.7395 C   0  0  0  0  0  0  0  0  0  0  0  0
  144.0428  133.7487  151.8004 C   0  0  0  0  0  0  0  0  0  0  0  0
  143.2256  132.8218  151.1249 C   0  0  0  0  0  0  0  0  0  0  0  0
  143.8417  131.7781  150.4076 C   0  0  0  0  0  0  0  0  0  0  0  0
  145.1802  131.6239  150.3303 N   0  0  0  0  0  0  0  0  0  0  0  0
  145.9573  132.5158  150.9807 C   0  0  0  0  0  0  0  0  0  0  0  0
  148.1216  135.8397  153.0767 H   0  0  0  0  0  0  0  0  0  0  0  0
  146.5992  137.6932  154.5902 H   0  0  0  0  0  0  0  0  0  0  0  0
  147.3046  136.5149  155.6675 H   0  0  0  0  0  0  0  0  0  0  0  0
  149.1576  137.6679  153.6415 H   0  0  0  0  0  0  0  0  0  0  0  0
  149.6608  137.3445  156.6025 H   0  0  0  0  0  0  0  0  0  0  0  0
  148.9766  135.0808  156.1351 H   0  0  0  0  0  0  0  0  0  0  0  0
  149.9197  135.0725  154.6275 H   0  0  0  0  0  0  0  0  0  0  0  0
  151.0251  135.3567  157.4297 H   0  0  0  0  0  0  0  0  0  0  0  0
  151.5399  134.2333  156.1672 H   0  0  0  0  0  0  0  0  0  0  0  0
  151.4935  137.2553  154.1867 H   0  0  0  0  0  0  0  0  0  0  0  0
  151.6486  138.2617  155.6284 H   0  0  0  0  0  0  0  0  0  0  0  0
  150.8188  139.4508  155.1769 H   0  0  0  0  0  0  0  0  0  0  0  0
  150.2132  139.8331  153.6030 H   0  0  0  0  0  0  0  0  0  0  0  0
  149.7760  141.5278  156.1171 H   0  0  0  0  0  0  0  0  0  0  0  0
  150.8844  141.8861  154.8038 H   0  0  0  0  0  0  0  0  0  0  0  0
  147.3385  141.5814  155.5919 H   0  0  0  0  0  0  0  0  0  0  0  0
  146.8765  141.9540  153.9417 H   0  0  0  0  0  0  0  0  0  0  0  0
  147.8469  139.8361  153.1184 H   0  0  0  0  0  0  0  0  0  0  0  0
  146.6927  139.5300  154.4046 H   0  0  0  0  0  0  0  0  0  0  0  0
  147.3186  134.4339  151.9776 H   0  0  0  0  0  0  0  0  0  0  0  0
  143.5748  134.5611  152.3340 H   0  0  0  0  0  0  0  0  0  0  0  0
  142.1498  132.9119  151.1522 H   0  0  0  0  0  0  0  0  0  0  0  0
  143.2436  131.0520  149.8774 H   0  0  0  0  0  0  0  0  0  0  0  0
  147.0231  132.3629  150.8940 H   0  0  0  0  0  0  0  0  0  0  0  0
  1  2  2  0  0  0  0
  2  3  1  0  0  0  0
  2 17  1  0  0  0  0
  3  4  1  0  0  0  0
  3 24  1  0  0  0  0
  4  5  1  0  0  0  0
  4 25  1  0  0  0  0
  4 26  1  0  0  0  0
  5  6  1  0  0  0  0
  5 11  1  0  0  0  0
  5 27  1  0  0  0  0
  6 10  1  0  0  0  0
  6  7  1  0  0  0  0
  6 28  1  0  0  0  0
  7  8  1  0  0  0  0
  7 29  1  0  0  0  0
  7 30  1  0  0  0  0
  8  9  1  0  0  0  0
  8 31  1  0  0  0  0
  8 32  1  0  0  0  0
  9 10  1  0  0  0  0
 10 33  1  0  0  0  0
 10 34  1  0  0  0  0
 11 16  1  0  0  0  0
 11 12  1  0  0  0  0
 12 13  1  0  0  0  0
 12 35  1  0  0  0  0
 12 36  1  0  0  0  0
 13 14  1  0  0  0  0
 13 37  1  0  0  0  0
 13 38  1  0  0  0  0
 14 15  1  0  0  0  0
 15 16  1  0  0  0  0
 15 39  1  0  0  0  0
 15 40  1  0  0  0  0
 16 41  1  0  0  0  0
 16 42  1  0  0  0  0
 17 18  1  0  0  0  0
 17 43  1  0  0  0  0
 18 23  1  0  0  0  0
 18 19  2  0  0  0  0
 19 20  1  0  0  0  0
 19 44  1  0  0  0  0
 20 21  2  0  0  0  0
 20 45  1  0  0  0  0
 21 22  1  0  0  0  0
 21 46  1  0  0  0  0
 22 23  2  0  0  0  0
 23 47  1  0  0  0  0
M  END
> <s_m_source_file>
AV-unprocessed.smi

> <i_m_source_file_index>
2119

> <i_lp_mmshare_version>
43012

> <i_f3d_flags>
0

> <s_epik_input>
W2NIXTFuW2NIXVtjSF1bY0hdYzFbTkhdQyg9TylbTkhdW0NIMl1bQ0BIXShbQ0BASF0yW0NIMl1bQ0gyXU9bQ0gyXTIpTjNbQ0gyXVtDSDJdT1tDSDJdW0NIMl0z

> <s_epik_cmdline>
J2VwaWtfcHl0aG9uJywgJy1waCcsICc3LjAnLCAnLXRuJywgJzgnLCAnLW1hJywgJzIwMCcsICctbWV0YWxfYmluZGluZycsICctaW1hZScsICc8aW5maWxlLm1hZT4nLCAnLW9tYWUnLCAnPG91dGZpbGUubWFlPic=

> <r_epik_Ionization_Penalty>
0.129787

> <r_epik_Ionization_Penalty_Charging>
0

> <r_epik_Ionization_Penalty_Neutral>
0.129787

> <r_epik_State_Penalty>
0.121311

> <r_epik_Charging_Adjusted_Penalty>
0.121311

> <i_epik_Tot_Q>
0

> <i_epik_Tot_abs_Q>
0

> <r_epik_Metal_State_Penalty>
0.117931

> <b_epik_Metal_Only>
0

> <s_lp_Force_Field>
OPLS_2005

> <r_lp_Energy>
58.2648

> <b_lp_Chiralities_Consistent>
1

> <s_lp_Variant>
AV-unprocessed.smi:2119-3

> <Gold.Version>
5.8.1

> <Gold.Id.Protein>
6NUR|6NUR_protein|mol2

> <Gold.PLP.Fitness>
41.5737

> <Gold.PLP.PLP>
-30.7302

> <Gold.PLP.part.hbond>
-3.4176

> <Gold.PLP.part.metal>
0.0000

> <Gold.PLP.part.buried>
-2.8291

> <Gold.PLP.part.nonpolar>
-25.7461

> <Gold.PLP.part.repulsive>
1.3914

> <Gold.PLP.ligand.clash>
0.0000

> <Gold.PLP.ligand.torsion>
0.9696

> <Gold.PLP.Chemscore.Hbond>
2.2779

> <Gold.PLP.Chemscore.CHOScore>
1.9305

> <Gold.PLP.Chemscore.Metal>
0.0000

> <Gold.Chemscore.Hbonds>
donor molecule, donor type, donor heavy atom, donor atom, acceptor molecule, acceptor atom, score
      L1  H     3    24       P1  7948  0.96
      L1  H    17    43       P1  7948  0.07
      P1  H  8011  8017       L1    14  0.20
      P1  H 10752 10764       L1     9  1.00
      L1  C    21    46       P1 10952  0.97
      L1  C    23    47       P1 10747  0.98

> <Gold.PLP.Chemscore.Internal.Correction>
0.1576

> <Gold.Rescore>
     Score         DG    S(hbond)    S(metal)    S(lipo)     H(rot)  DE(clash)    DE(int)     intcor
     13.17     -16.74       1.59        0.00      86.85       1.65       0.57       3.00       ----

> <Gold.Chemscore.Fitness>
13.1748

> <Gold.Chemscore.DG>
-16.7395

> <Gold.Chemscore.ZeroCoef>
-5.4800

> <Gold.Chemscore.Hbond>
1.5939

> <Gold.Chemscore.Metal>
0.0000

> <Gold.Chemscore.Lipo>
86.8548

> <Gold.Chemscore.Internal_Hbond>
0.0000

> <Gold.Chemscore.DEClash>
0.5654

> <Gold.Chemscore.DEInternal>
2.9993

> <Gold.Chemscore.Rot>
1.6508

> <Gold.Chemscore.Internal.Correction>
   9.000000E+99

> <Gold.Chemscore.Hbonds>
donor molecule, donor type, donor heavy atom, donor atom, acceptor molecule, acceptor atom, score
      L1  H     3    24       P1  7948  0.86
      L1  H    17    43       P1  7948  0.05
      P1  H  8011  8017       L1    14  0.09
      P1  H 10752 10764       L1     9  0.47

> <Gold.Chemscore.Hbond.Weighted>
-5.3237

> <Gold.Chemscore.Metal.Weighted>
-0.0000

> <Gold.Chemscore.Lipo.Weighted>
-10.1620

> <Gold.Chemscore.Internal_Hbond.Weighted>
0.0000

> <Gold.Chemscore.DEClash.Weighted>
0.5654

> <Gold.Chemscore.DEInternal.Weighted>
2.9993

> <Gold.Chemscore.Rot.Weighted>
4.2262

> <Gold.Chemscore.Internal.Correction.Weighted>
   9.000000E+99

> <Gold.Protein.RotatedTorsions>
[ 6907 6896 6895 6894 ] final  172.35 input  -60.11 | X-H torsion
[ 7974 7965 7964 7962 ] final -171.31 input  175.53 | X-H torsion
[ 8008 7997 7996 7995 ] final -159.97 input   59.86 | X-H torsion
[ 10167 10162 10161 10158 ] final   82.56 input  -65.29 | X-H torsion
[ 10718 10713 10712 10709 ] final   80.88 input   66.30 | X-H torsion
[ 10763 10752 10751 10750 ] final  -40.23 input  -60.55 | X-H torsion
[ 11005 11000 10999 10996 ] final   96.21 input  -57.11 | X-H torsion

> <Gold.Protein.ActiveResidues>
 VAL166  LYS551  ARG553  GLY616  TRP617  ASP618  TYR619  PRO620  LYS621  CYS622 
 ASP623  PHE694  ASN695  SER759  ASP760  ASP761  ALA762  ILE779  LEU786  VAL792 
 PHE793  MET794  SER795  GLU796  ALA797  LYS798  CYS799  TRP800  GLU811  SER814 

> <Gold.Protein.RotatedAtoms>
  151.7856  133.3354  159.3483 H   0  0  0  0  0  0  0  0  0  0  0  0  # atno 6907 bound_to 6896
  150.7410  134.5890  159.5987 H   0  0  0  0  0  0  0  0  0  0  0  0  # atno 6908 bound_to 6896
  152.3245  134.7339  160.0356 H   0  0  0  0  0  0  0  0  0  0  0  0  # atno 6909 bound_to 6896
  144.7158  140.1941  143.6345 H   0  0  0  0  0  0  0  0  0  0  0  0  # atno 7974 bound_to 7965
  155.7705  140.0851  157.2110 H   0  0  0  0  0  0  0  0  0  0  0  0  # atno 8008 bound_to 7997
  154.3996  140.1526  156.2994 H   0  0  0  0  0  0  0  0  0  0  0  0  # atno 8009 bound_to 7997
  155.8751  140.3423  155.5851 H   0  0  0  0  0  0  0  0  0  0  0  0  # atno 8010 bound_to 7997
  139.9276  144.6173  150.8377 H   0  0  0  0  0  0  0  0  0  0  0  0  # atno 10167 bound_to 10162
  157.6818  130.9979  150.2144 H   0  0  0  0  0  0  0  0  0  0  0  0  # atno 10718 bound_to 10713
  153.9425  135.6760  153.4744 H   0  0  0  0  0  0  0  0  0  0  0  0  # atno 10763 bound_to 10752
  153.0924  135.4868  154.8712 H   0  0  0  0  0  0  0  0  0  0  0  0  # atno 10764 bound_to 10752
  154.7369  135.3151  154.8754 H   0  0  0  0  0  0  0  0  0  0  0  0  # atno 10765 bound_to 10752
  139.8783  134.8939  156.4126 H   0  0  0  0  0  0  0  0  0  0  0  0  # atno 11005 bound_to 11000
  145.8741  139.2288  143.1643 LP  0  0  0  0  0  0  0  0  0  0  0  0  # atno 17320 bound_to 7965
  146.0057  140.8481  142.9996 LP  0  0  0  0  0  0  0  0  0  0  0  0  # atno 17321 bound_to 7965
  140.7646  143.3253  151.2530 LP  0  0  0  0  0  0  0  0  0  0  0  0  # atno 17342 bound_to 10162
  139.6809  143.9856  152.2808 LP  0  0  0  0  0  0  0  0  0  0  0  0  # atno 17343 bound_to 10162
  156.2809  130.3733  149.7937 LP  0  0  0  0  0  0  0  0  0  0  0  0  # atno 17370 bound_to 10713
  156.5625  130.8390  151.3333 LP  0  0  0  0  0  0  0  0  0  0  0  0  # atno 17371 bound_to 10713
  140.9190  133.7658  155.9883 LP  0  0  0  0  0  0  0  0  0  0  0  0  # atno 17394 bound_to 11000
  140.8461  134.3009  157.5294 LP  0  0  0  0  0  0  0  0  0  0  0  0  # atno 17395 bound_to 11000

$$$$
