AV-unprocessed.smi:1239|AV-procd|sdf|5191|dock6
  -GOLD-   22720 4273D 1   1.00000     0.00000
 Structure written by MMmdl.
 48 49  0  0  0  0  0  0  0  0  2 V2000
  149.1450  131.8718  153.6780 C   0  0  0  0  0  0  0  0  0  0  0  0
  149.2520  133.4040  153.4854 C   0  0  2  0  0  0  0  0  0  0  0  0
  149.8082  134.0824  154.7695 C   0  0  0  0  0  0  0  0  0  0  0  0
  149.9678  135.5297  154.6414 N   0  0  0  0  0  0  0  0  0  0  0  0
  150.3949  136.3536  155.6099 C   0  0  0  0  0  0  0  0  0  0  0  0
  150.7439  135.9645  156.7239 O   0  0  0  0  0  0  0  0  0  0  0  0
  150.4058  137.6296  155.1881 N   0  0  0  0  0  0  0  0  0  0  0  0
  150.7681  138.8063  155.8996 C   0  0  0  0  0  0  0  0  0  0  0  0
  150.4813  140.0477  155.3006 C   0  0  0  0  0  0  0  0  0  0  0  0
  150.8085  141.2365  155.9791 C   0  0  0  0  0  0  0  0  0  0  0  0
  151.4156  141.1587  157.2567 C   0  0  0  0  0  0  0  0  0  0  0  0
  151.7634  142.3222  157.9807 N   0  0  0  0  0  0  0  0  0  0  0  0
  151.4918  143.6390  157.4129 C   0  0  0  0  0  0  0  0  0  0  0  0
  152.3485  142.2114  159.3112 C   0  0  0  0  0  0  0  0  0  0  0  0
  151.6820  139.9622  157.8353 N   0  0  0  0  0  0  0  0  0  0  0  0
  151.3672  138.8242  157.1814 C   0  0  0  0  0  0  0  0  0  0  0  0
  147.9371  133.9852  153.0488 N   0  3  0  0  0  0  0  0  0  0  0  0
  147.3156  133.3051  151.8769 C   0  0  0  0  0  0  0  0  0  0  0  0
  145.9778  133.9569  151.4869 C   0  0  0  0  0  0  0  0  0  0  0  0
  145.0962  133.9542  152.5984 O   0  0  0  0  0  0  0  0  0  0  0  0
  145.6250  134.7139  153.6729 C   0  0  0  0  0  0  0  0  0  0  0  0
  146.9406  134.0799  154.1532 C   0  0  0  0  0  0  0  0  0  0  0  0
  150.0909  131.4341  153.9945 H   0  0  0  0  0  0  0  0  0  0  0  0
  148.8888  131.3464  152.7603 H   0  0  0  0  0  0  0  0  0  0  0  0
  148.3981  131.6192  154.4313 H   0  0  0  0  0  0  0  0  0  0  0  0
  149.9720  133.5905  152.6867 H   0  0  0  0  0  0  0  0  0  0  0  0
  149.1148  133.9573  155.6002 H   0  0  0  0  0  0  0  0  0  0  0  0
  150.7439  133.6091  155.0726 H   0  0  0  0  0  0  0  0  0  0  0  0
  149.7116  135.9369  153.7537 H   0  0  0  0  0  0  0  0  0  0  0  0
  150.1489  137.7765  154.2230 H   0  0  0  0  0  0  0  0  0  0  0  0
  150.0152  140.0935  154.3272 H   0  0  0  0  0  0  0  0  0  0  0  0
  150.5856  142.1811  155.5068 H   0  0  0  0  0  0  0  0  0  0  0  0
  150.4226  143.7687  157.2424 H   0  0  0  0  0  0  0  0  0  0  0  0
  152.0124  143.7610  156.4626 H   0  0  0  0  0  0  0  0  0  0  0  0
  151.8230  144.4359  158.0788 H   0  0  0  0  0  0  0  0  0  0  0  0
  153.2902  141.6630  159.2721 H   0  0  0  0  0  0  0  0  0  0  0  0
  151.6680  141.6921  159.9866 H   0  0  0  0  0  0  0  0  0  0  0  0
  152.5543  143.1932  159.7375 H   0  0  0  0  0  0  0  0  0  0  0  0
  151.5950  137.9220  157.7255 H   0  0  0  0  0  0  0  0  0  0  0  0
  147.9614  133.3641  151.0021 H   0  0  0  0  0  0  0  0  0  0  0  0
  147.1656  132.2487  152.1050 H   0  0  0  0  0  0  0  0  0  0  0  0
  146.1306  134.9765  151.1286 H   0  0  0  0  0  0  0  0  0  0  0  0
  145.5156  133.4011  150.6709 H   0  0  0  0  0  0  0  0  0  0  0  0
  145.7782  135.7501  153.3669 H   0  0  0  0  0  0  0  0  0  0  0  0
  144.8981  134.7278  154.4852 H   0  0  0  0  0  0  0  0  0  0  0  0
  146.7462  133.0851  154.5567 H   0  0  0  0  0  0  0  0  0  0  0  0
  147.3132  134.6905  154.9724 H   0  0  0  0  0  0  0  0  0  0  0  0
  148.1302  134.9312  152.7510 H   0  0  0  0  0  0  0  0  0  0  0  0
  1  2  1  0  0  0  0
  1 23  1  0  0  0  0
  1 24  1  0  0  0  0
  1 25  1  0  0  0  0
  2  3  1  0  0  0  0
  2 17  1  0  0  0  0
  2 26  1  0  0  0  0
  3  4  1  0  0  0  0
  3 27  1  0  0  0  0
  3 28  1  0  0  0  0
  4  5  1  0  0  0  0
  4 29  1  0  0  0  0
  5  6  2  0  0  0  0
  5  7  1  0  0  0  0
  7  8  1  0  0  0  0
  7 30  1  0  0  0  0
  8 16  1  0  0  0  0
  8  9  2  0  0  0  0
  9 10  1  0  0  0  0
  9 31  1  0  0  0  0
 10 11  2  0  0  0  0
 10 32  1  0  0  0  0
 11 12  1  0  0  0  0
 11 15  1  0  0  0  0
 12 13  1  0  0  0  0
 12 14  1  0  0  0  0
 13 33  1  0  0  0  0
 13 34  1  0  0  0  0
 13 35  1  0  0  0  0
 14 36  1  0  0  0  0
 14 37  1  0  0  0  0
 14 38  1  0  0  0  0
 15 16  2  0  0  0  0
 16 39  1  0  0  0  0
 17 22  1  0  0  0  0
 17 18  1  0  0  0  0
 17 48  1  0  0  0  0
 18 19  1  0  0  0  0
 18 40  1  0  0  0  0
 18 41  1  0  0  0  0
 19 20  1  0  0  0  0
 19 42  1  0  0  0  0
 19 43  1  0  0  0  0
 20 21  1  0  0  0  0
 21 22  1  0  0  0  0
 21 44  1  0  0  0  0
 21 45  1  0  0  0  0
 22 46  1  0  0  0  0
 22 47  1  0  0  0  0
M  CHG  1  17   1
M  END
> <s_m_source_file>
AV-unprocessed.smi

> <i_m_source_file_index>
1239

> <i_lp_mmshare_version>
43012

> <i_f3d_flags>
0

> <s_epik_input>
W0NIMl0xW0NIMl1PW0NIMl1bQ0gyXU4xW0NASF0oW0NIM10pW0NIMl1bTkhdQyg9TylbTkhdYzJbY0hdW2NIXWMoTihbQ0gzXSlbQ0gzXSluW2NIXTI=

> <s_epik_cmdline>
J2VwaWtfcHl0aG9uJywgJy1waCcsICc3LjAnLCAnLXRuJywgJzgnLCAnLW1hJywgJzIwMCcsICctbWV0YWxfYmluZGluZycsICctaW1hZScsICc8aW5maWxlLm1hZT4nLCAnLW9tYWUnLCAnPG91dGZpbGUubWFlPic=

> <r_epik_Ionization_Penalty>
1.1428

> <r_epik_Ionization_Penalty_Charging>
0.602531

> <r_epik_Ionization_Penalty_Neutral>
0.540271

> <r_epik_State_Penalty>
1.1888

> <r_epik_Charging_Adjusted_Penalty>
1.79133

> <i_epik_Tot_Q>
1

> <i_epik_Tot_abs_Q>
1

> <r_epik_Metal_State_Penalty>
0.936295

> <b_epik_Metal_Only>
0

> <s_lp_Force_Field>
OPLS_2005

> <r_lp_Energy>
25.054

> <b_lp_Chiralities_Consistent>
1

> <s_lp_Variant>
AV-unprocessed.smi:1239-7

> <Gold.Version>
5.8.1

> <Gold.Id.Protein>
6NUR|6NUR_protein|mol2

> <Gold.PLP.Fitness>
43.0791

> <Gold.PLP.PLP>
-34.3223

> <Gold.PLP.part.hbond>
-2.0000

> <Gold.PLP.part.metal>
0.0000

> <Gold.PLP.part.buried>
-4.7717

> <Gold.PLP.part.nonpolar>
-27.8677

> <Gold.PLP.part.repulsive>
0.1767

> <Gold.PLP.ligand.clash>
0.0000

> <Gold.PLP.ligand.torsion>
0.1352

> <Gold.PLP.Chemscore.Hbond>
2.9913

> <Gold.PLP.Chemscore.CHOScore>
0.0000

> <Gold.PLP.Chemscore.Metal>
0.0000

> <Gold.Chemscore.Hbonds>
donor molecule, donor type, donor heavy atom, donor atom, acceptor molecule, acceptor atom, score
      L1  H     4    29       P1  7948  1.00
      L1  H    17    48       P1  7948  2.00

> <Gold.PLP.Chemscore.Internal.Correction>
0.0536

> <Gold.Rescore>
     Score         DG    S(hbond)    S(metal)    S(lipo)     H(rot)  DE(clash)    DE(int)     intcor
     15.00     -16.38       1.80        0.00      74.37       1.48       0.11       1.28       ----

> <Gold.Chemscore.Fitness>
14.9965

> <Gold.Chemscore.DG>
-16.3847

> <Gold.Chemscore.ZeroCoef>
-5.4800

> <Gold.Chemscore.Hbond>
1.7965

> <Gold.Chemscore.Metal>
0.0000

> <Gold.Chemscore.Lipo>
74.3651

> <Gold.Chemscore.Internal_Hbond>
0.0000

> <Gold.Chemscore.DEClash>
0.1054

> <Gold.Chemscore.DEInternal>
1.2828

> <Gold.Chemscore.Rot>
1.4830

> <Gold.Chemscore.Internal.Correction>
   9.000000E+99

> <Gold.Chemscore.Hbonds>
donor molecule, donor type, donor heavy atom, donor atom, acceptor molecule, acceptor atom, score
      L1  H     4    29       P1  7948  0.24
      L1  H    17    48       P1  7948  0.81

> <Gold.Chemscore.Hbond.Weighted>
-6.0004

> <Gold.Chemscore.Metal.Weighted>
-0.0000

> <Gold.Chemscore.Lipo.Weighted>
-8.7007

> <Gold.Chemscore.Internal_Hbond.Weighted>
0.0000

> <Gold.Chemscore.DEClash.Weighted>
0.1054

> <Gold.Chemscore.DEInternal.Weighted>
1.2828

> <Gold.Chemscore.Rot.Weighted>
3.7964

> <Gold.Chemscore.Internal.Correction.Weighted>
   9.000000E+99

> <Gold.Protein.RotatedTorsions>
[ 6907 6896 6895 6894 ] final  -22.98 input  -60.11 | X-H torsion
[ 7974 7965 7964 7962 ] final -112.65 input  175.53 | X-H torsion
[ 8008 7997 7996 7995 ] final -124.59 input   59.86 | X-H torsion
[ 10167 10162 10161 10158 ] final   91.15 input  -65.29 | X-H torsion
[ 10718 10713 10712 10709 ] final -129.99 input   66.30 | X-H torsion
[ 10763 10752 10751 10750 ] final   25.51 input  -60.55 | X-H torsion
[ 11005 11000 10999 10996 ] final   94.54 input  -57.11 | X-H torsion

> <Gold.Protein.ActiveResidues>
 VAL166  LYS551  ARG553  GLY616  TRP617  ASP618  TYR619  PRO620  LYS621  CYS622 
 ASP623  PHE694  ASN695  SER759  ASP760  ASP761  ALA762  ILE779  LEU786  VAL792 
 PHE793  MET794  SER795  GLU796  ALA797  LYS798  CYS799  TRP800  GLU811  SER814 

> <Gold.Protein.RotatedAtoms>
  151.2107  135.0480  159.8909 H   0  0  0  0  0  0  0  0  0  0  0  0  # atno 6907 bound_to 6896
  152.5425  134.0748  159.8220 H   0  0  0  0  0  0  0  0  0  0  0  0  # atno 6908 bound_to 6896
  151.0901  133.5275  159.2647 H   0  0  0  0  0  0  0  0  0  0  0  0  # atno 6909 bound_to 6896
  145.1415  140.8780  143.3699 H   0  0  0  0  0  0  0  0  0  0  0  0  # atno 7974 bound_to 7965
  155.1994  140.0415  157.2914 H   0  0  0  0  0  0  0  0  0  0  0  0  # atno 8008 bound_to 7997
  154.6085  140.2470  155.7671 H   0  0  0  0  0  0  0  0  0  0  0  0  # atno 8009 bound_to 7997
  156.2365  140.2919  156.0335 H   0  0  0  0  0  0  0  0  0  0  0  0  # atno 8010 bound_to 7997
  139.8403  144.6644  150.9292 H   0  0  0  0  0  0  0  0  0  0  0  0  # atno 10167 bound_to 10162
  156.2100  130.6912  151.0639 H   0  0  0  0  0  0  0  0  0  0  0  0  # atno 10718 bound_to 10713
  153.0687  135.6581  154.0296 H   0  0  0  0  0  0  0  0  0  0  0  0  # atno 10763 bound_to 10752
  153.9946  135.2943  155.3410 H   0  0  0  0  0  0  0  0  0  0  0  0  # atno 10764 bound_to 10752
  154.7054  135.5227  153.8657 H   0  0  0  0  0  0  0  0  0  0  0  0  # atno 10765 bound_to 10752
  139.8797  134.8851  156.3879 H   0  0  0  0  0  0  0  0  0  0  0  0  # atno 11005 bound_to 11000
  145.0527  139.3168  143.5920 LP  0  0  0  0  0  0  0  0  0  0  0  0  # atno 17320 bound_to 7965
  146.3504  139.9941  142.8682 LP  0  0  0  0  0  0  0  0  0  0  0  0  # atno 17321 bound_to 7965
  140.7799  143.3919  151.1295 LP  0  0  0  0  0  0  0  0  0  0  0  0  # atno 17342 bound_to 10162
  139.7566  143.8698  152.3090 LP  0  0  0  0  0  0  0  0  0  0  0  0  # atno 17343 bound_to 10162
  157.7033  131.0767  150.6748 LP  0  0  0  0  0  0  0  0  0  0  0  0  # atno 17370 bound_to 10713
  156.6808  130.4566  149.5628 LP  0  0  0  0  0  0  0  0  0  0  0  0  # atno 17371 bound_to 10713
  140.9353  133.7551  156.0077 LP  0  0  0  0  0  0  0  0  0  0  0  0  # atno 17394 bound_to 11000
  140.8283  134.3209  157.5358 LP  0  0  0  0  0  0  0  0  0  0  0  0  # atno 17395 bound_to 11000

$$$$
