AV-unprocessed.smi:2119|AV-procd|sdf|8634|dock5
  -GOLD-   2272011383D 1   1.00000     0.00000
 Structure written by MMmdl.
 48 50  0  0  0  0  0  0  0  0  2 V2000
  149.8974  134.7397  156.1089 O   0  0  0  0  0  0  0  0  0  0  0  0
  149.6691  135.1125  154.9582 C   0  0  0  0  0  0  0  0  0  0  0  0
  149.0741  134.3402  154.0388 N   0  0  0  0  0  0  0  0  0  0  0  0
  148.6373  132.9672  154.2632 C   0  0  0  0  0  0  0  0  0  0  0  0
  147.9364  132.3226  153.0328 C   0  0  2  0  0  0  0  0  0  0  0  0
  146.9533  133.2763  152.2959 C   0  0  2  0  0  0  0  0  0  0  0  0
  145.5786  133.3703  152.9399 C   0  0  0  0  0  0  0  0  0  0  0  0
  144.7359  133.9698  151.8215 C   0  0  0  0  0  0  0  0  0  0  0  0
  145.2793  133.4417  150.6189 O   0  0  0  0  0  0  0  0  0  0  0  0
  146.5523  132.8570  150.8748 C   0  0  0  0  0  0  0  0  0  0  0  0
  147.2384  131.0535  153.3970 N   0  3  0  0  0  0  0  0  0  0  0  0
  146.9074  130.1889  152.2380 C   0  0  0  0  0  0  0  0  0  0  0  0
  146.0201  129.0180  152.6924 C   0  0  0  0  0  0  0  0  0  0  0  0
  146.6781  128.2882  153.7217 O   0  0  0  0  0  0  0  0  0  0  0  0
  146.9316  129.0895  154.8699 C   0  0  0  0  0  0  0  0  0  0  0  0
  147.8558  130.2574  154.4879 C   0  0  0  0  0  0  0  0  0  0  0  0
  149.9641  136.3242  154.4583 N   0  0  0  0  0  0  0  0  0  0  0  0
  150.6419  137.3985  155.0945 C   0  0  0  0  0  0  0  0  0  0  0  0
  151.2197  137.3209  156.3849 C   0  0  0  0  0  0  0  0  0  0  0  0
  151.8863  138.4492  156.8997 C   0  0  0  0  0  0  0  0  0  0  0  0
  151.9576  139.6094  156.1047 C   0  0  0  0  0  0  0  0  0  0  0  0
  151.4239  139.6928  154.8679 N   0  0  0  0  0  0  0  0  0  0  0  0
  150.7870  138.6068  154.3803 C   0  0  0  0  0  0  0  0  0  0  0  0
  148.9155  134.7270  153.1196 H   0  0  0  0  0  0  0  0  0  0  0  0
  149.5026  132.3800  154.5725 H   0  0  0  0  0  0  0  0  0  0  0  0
  147.9602  132.9854  155.1172 H   0  0  0  0  0  0  0  0  0  0  0  0
  148.7038  132.0487  152.3075 H   0  0  0  0  0  0  0  0  0  0  0  0
  147.3782  134.2796  152.2465 H   0  0  0  0  0  0  0  0  0  0  0  0
  145.2071  132.3765  153.1948 H   0  0  0  0  0  0  0  0  0  0  0  0
  145.5649  133.9823  153.8423 H   0  0  0  0  0  0  0  0  0  0  0  0
  143.6765  133.7325  151.9217 H   0  0  0  0  0  0  0  0  0  0  0  0
  144.8417  135.0553  151.8051 H   0  0  0  0  0  0  0  0  0  0  0  0
  147.2752  133.1760  150.1240 H   0  0  0  0  0  0  0  0  0  0  0  0
  146.4455  131.7738  150.8032 H   0  0  0  0  0  0  0  0  0  0  0  0
  146.3840  130.7669  151.4756 H   0  0  0  0  0  0  0  0  0  0  0  0
  147.8190  129.8044  151.7797 H   0  0  0  0  0  0  0  0  0  0  0  0
  145.0533  129.3783  153.0476 H   0  0  0  0  0  0  0  0  0  0  0  0
  145.8218  128.3490  151.8548 H   0  0  0  0  0  0  0  0  0  0  0  0
  145.9929  129.4559  155.2889 H   0  0  0  0  0  0  0  0  0  0  0  0
  147.4026  128.4721  155.6349 H   0  0  0  0  0  0  0  0  0  0  0  0
  148.8206  129.8609  154.1699 H   0  0  0  0  0  0  0  0  0  0  0  0
  148.0338  130.8813  155.3634 H   0  0  0  0  0  0  0  0  0  0  0  0
  149.6295  136.5164  153.5254 H   0  0  0  0  0  0  0  0  0  0  0  0
  151.1788  136.4213  156.9794 H   0  0  0  0  0  0  0  0  0  0  0  0
  152.3374  138.4237  157.8808 H   0  0  0  0  0  0  0  0  0  0  0  0
  152.4626  140.4916  156.4696 H   0  0  0  0  0  0  0  0  0  0  0  0
  150.3756  138.7086  153.3865 H   0  0  0  0  0  0  0  0  0  0  0  0
  146.3426  131.3525  153.7557 H   0  0  0  0  0  0  0  0  0  0  0  0
  1  2  2  0  0  0  0
  2  3  1  0  0  0  0
  2 17  1  0  0  0  0
  3  4  1  0  0  0  0
  3 24  1  0  0  0  0
  4  5  1  0  0  0  0
  4 25  1  0  0  0  0
  4 26  1  0  0  0  0
  5  6  1  0  0  0  0
  5 11  1  0  0  0  0
  5 27  1  0  0  0  0
  6 10  1  0  0  0  0
  6  7  1  0  0  0  0
  6 28  1  0  0  0  0
  7  8  1  0  0  0  0
  7 29  1  0  0  0  0
  7 30  1  0  0  0  0
  8  9  1  0  0  0  0
  8 31  1  0  0  0  0
  8 32  1  0  0  0  0
  9 10  1  0  0  0  0
 10 33  1  0  0  0  0
 10 34  1  0  0  0  0
 11 16  1  0  0  0  0
 11 12  1  0  0  0  0
 11 48  1  0  0  0  0
 12 13  1  0  0  0  0
 12 35  1  0  0  0  0
 12 36  1  0  0  0  0
 13 14  1  0  0  0  0
 13 37  1  0  0  0  0
 13 38  1  0  0  0  0
 14 15  1  0  0  0  0
 15 16  1  0  0  0  0
 15 39  1  0  0  0  0
 15 40  1  0  0  0  0
 16 41  1  0  0  0  0
 16 42  1  0  0  0  0
 17 18  1  0  0  0  0
 17 43  1  0  0  0  0
 18 23  1  0  0  0  0
 18 19  2  0  0  0  0
 19 20  1  0  0  0  0
 19 44  1  0  0  0  0
 20 21  2  0  0  0  0
 20 45  1  0  0  0  0
 21 22  1  0  0  0  0
 21 46  1  0  0  0  0
 22 23  2  0  0  0  0
 23 47  1  0  0  0  0
M  CHG  1  11   1
M  END
> <s_m_source_file>
AV-unprocessed.smi

> <i_m_source_file_index>
2119

> <i_lp_mmshare_version>
43012

> <i_f3d_flags>
0

> <s_epik_input>
W2NIXTFuW2NIXVtjSF1bY0hdYzFbTkhdQyg9TylbTkhdW0NIMl1bQ0BIXShbQ0BASF0yW0NIMl1bQ0gyXU9bQ0gyXTIpTjNbQ0gyXVtDSDJdT1tDSDJdW0NIMl0z

> <s_epik_cmdline>
J2VwaWtfcHl0aG9uJywgJy1waCcsICc3LjAnLCAnLXRuJywgJzgnLCAnLW1hJywgJzIwMCcsICctbWV0YWxfYmluZGluZycsICctaW1hZScsICc8aW5maWxlLm1hZT4nLCAnLW9tYWUnLCAnPG91dGZpbGUubWFlPic=

> <r_epik_Ionization_Penalty>
0.987463

> <r_epik_Ionization_Penalty_Charging>
0.98326

> <r_epik_Ionization_Penalty_Neutral>
0.00420251

> <r_epik_State_Penalty>
1.01721

> <r_epik_Charging_Adjusted_Penalty>
2.00047

> <i_epik_Tot_Q>
1

> <i_epik_Tot_abs_Q>
1

> <r_epik_Metal_State_Penalty>
1.01439

> <b_epik_Metal_Only>
0

> <s_lp_Force_Field>
OPLS_2005

> <r_lp_Energy>
39.8774

> <b_lp_Chiralities_Consistent>
1

> <s_lp_Variant>
AV-unprocessed.smi:2119-5

> <Gold.Version>
5.8.1

> <Gold.Id.Protein>
6NUR|6NUR_protein|mol2

> <Gold.PLP.Fitness>
43.1131

> <Gold.PLP.PLP>
-32.8701

> <Gold.PLP.part.hbond>
-3.9786

> <Gold.PLP.part.metal>
0.0000

> <Gold.PLP.part.buried>
-1.3951

> <Gold.PLP.part.nonpolar>
-27.4256

> <Gold.PLP.part.repulsive>
0.3798

> <Gold.PLP.ligand.clash>
0.0000

> <Gold.PLP.ligand.torsion>
0.7618

> <Gold.PLP.Chemscore.Hbond>
2.9120

> <Gold.PLP.Chemscore.CHOScore>
0.9263

> <Gold.PLP.Chemscore.Metal>
0.0000

> <Gold.Chemscore.Hbonds>
donor molecule, donor type, donor heavy atom, donor atom, acceptor molecule, acceptor atom, score
      L1  H     3    24       P1  7948  0.80
      L1  H    17    43       P1  7948  1.00
      P1  H  7989  7998       L1    22  1.00
      L1  C    23    47       P1  7957  0.61

> <Gold.PLP.Chemscore.Internal.Correction>
0.2518

> <Gold.Rescore>
     Score         DG    S(hbond)    S(metal)    S(lipo)     H(rot)  DE(clash)    DE(int)     intcor
     15.08     -18.07       2.20        0.00      82.07       1.70       0.05       2.95       ----

> <Gold.Chemscore.Fitness>
15.0800

> <Gold.Chemscore.DG>
-18.0725

> <Gold.Chemscore.ZeroCoef>
-5.4800

> <Gold.Chemscore.Hbond>
2.2001

> <Gold.Chemscore.Metal>
0.0000

> <Gold.Chemscore.Lipo>
82.0655

> <Gold.Chemscore.Internal_Hbond>
0.0000

> <Gold.Chemscore.DEClash>
0.0456

> <Gold.Chemscore.DEInternal>
2.9469

> <Gold.Chemscore.Rot>
1.7021

> <Gold.Chemscore.Internal.Correction>
   9.000000E+99

> <Gold.Chemscore.Hbonds>
donor molecule, donor type, donor heavy atom, donor atom, acceptor molecule, acceptor atom, score
      L1  H     3    24       P1  7948  0.11
      L1  H    17    43       P1  7948  0.55
      P1  H  7989  7998       L1    22  0.65

> <Gold.Chemscore.Hbond.Weighted>
-7.3483

> <Gold.Chemscore.Metal.Weighted>
-0.0000

> <Gold.Chemscore.Lipo.Weighted>
-9.6017

> <Gold.Chemscore.Internal_Hbond.Weighted>
0.0000

> <Gold.Chemscore.DEClash.Weighted>
0.0456

> <Gold.Chemscore.DEInternal.Weighted>
2.9469

> <Gold.Chemscore.Rot.Weighted>
4.3575

> <Gold.Chemscore.Internal.Correction.Weighted>
   9.000000E+99

> <Gold.Protein.RotatedTorsions>
[ 6907 6896 6895 6894 ] final  -96.26 input  -60.11 | X-H torsion
[ 7974 7965 7964 7962 ] final  -91.87 input  175.53 | X-H torsion
[ 8008 7997 7996 7995 ] final  -51.92 input   59.86 | X-H torsion
[ 10167 10162 10161 10158 ] final  -69.80 input  -65.29 | X-H torsion
[ 10718 10713 10712 10709 ] final  100.25 input   66.30 | X-H torsion
[ 10763 10752 10751 10750 ] final -167.63 input  -60.55 | X-H torsion
[ 11005 11000 10999 10996 ] final  -62.88 input  -57.11 | X-H torsion

> <Gold.Protein.ActiveResidues>
 VAL166  LYS551  ARG553  GLY616  TRP617  ASP618  TYR619  PRO620  LYS621  CYS622 
 ASP623  PHE694  ASN695  SER759  ASP760  ASP761  ALA762  ILE779  LEU786  VAL792 
 PHE793  MET794  SER795  GLU796  ALA797  LYS798  CYS799  TRP800  GLU811  SER814 

> <Gold.Protein.RotatedAtoms>
  150.6984  134.1531  159.4147 H   0  0  0  0  0  0  0  0  0  0  0  0  # atno 6907 bound_to 6896
  151.9513  135.0165  160.0551 H   0  0  0  0  0  0  0  0  0  0  0  0  # atno 6908 bound_to 6896
  152.2008  133.4804  159.5094 H   0  0  0  0  0  0  0  0  0  0  0  0  # atno 6909 bound_to 6896
  145.4074  140.9542  143.2253 H   0  0  0  0  0  0  0  0  0  0  0  0  # atno 7974 bound_to 7965
  154.4094  140.1236  156.4907 H   0  0  0  0  0  0  0  0  0  0  0  0  # atno 8008 bound_to 7997
  155.6993  140.3495  155.4906 H   0  0  0  0  0  0  0  0  0  0  0  0  # atno 8009 bound_to 7997
  155.9400  140.1085  157.1053 H   0  0  0  0  0  0  0  0  0  0  0  0  # atno 8010 bound_to 7997
  140.5402  143.2315  151.7102 H   0  0  0  0  0  0  0  0  0  0  0  0  # atno 10167 bound_to 10162
  157.6858  131.0693  150.5072 H   0  0  0  0  0  0  0  0  0  0  0  0  # atno 10718 bound_to 10713
  154.6712  135.2939  154.9739 H   0  0  0  0  0  0  0  0  0  0  0  0  # atno 10763 bound_to 10752
  154.0766  135.6610  153.4836 H   0  0  0  0  0  0  0  0  0  0  0  0  # atno 10764 bound_to 10752
  153.0488  135.5187  154.7709 H   0  0  0  0  0  0  0  0  0  0  0  0  # atno 10765 bound_to 10752
  141.1374  133.6645  156.5595 H   0  0  0  0  0  0  0  0  0  0  0  0  # atno 11005 bound_to 11000
  144.8332  139.5593  143.6934 LP  0  0  0  0  0  0  0  0  0  0  0  0  # atno 17320 bound_to 7965
  146.2722  139.6663  142.9288 LP  0  0  0  0  0  0  0  0  0  0  0  0  # atno 17321 bound_to 7965
  139.4986  144.3980  152.0211 LP  0  0  0  0  0  0  0  0  0  0  0  0  # atno 17342 bound_to 10162
  140.3088  144.3562  150.6039 LP  0  0  0  0  0  0  0  0  0  0  0  0  # atno 17343 bound_to 10162
  156.5391  130.4203  149.6163 LP  0  0  0  0  0  0  0  0  0  0  0  0  # atno 17370 bound_to 10713
  156.3001  130.7172  151.2041 LP  0  0  0  0  0  0  0  0  0  0  0  0  # atno 17371 bound_to 10713
  140.3999  134.7365  157.4773 LP  0  0  0  0  0  0  0  0  0  0  0  0  # atno 17394 bound_to 11000
  140.0503  134.6140  155.8869 LP  0  0  0  0  0  0  0  0  0  0  0  0  # atno 17395 bound_to 11000

$$$$
