AV-unprocessed.smi:1694|AV-procd|sdf|6788|dock4
  -GOLD-   22720 7553D 1   1.00000     0.00000
 Structure written by MMmdl.
 34 35  0  0  0  0  0  0  0  0  1 V2000
  150.7674  145.0582  158.4577 C   0  0  0  0  0  0  0  0  0  0  0  0
  151.5778  143.8310  158.8442 C   0  0  0  0  0  0  0  0  0  0  0  0
  152.5331  143.9362  159.8775 C   0  0  0  0  0  0  0  0  0  0  0  0
  153.2835  142.8043  160.2367 C   0  0  0  0  0  0  0  0  0  0  0  0
  153.0449  141.6069  159.5423 C   0  0  0  0  0  0  0  0  0  0  0  0
  152.1337  141.4980  158.5540 N   0  0  0  0  0  0  0  0  0  0  0  0
  151.3982  142.5807  158.1921 C   0  0  0  0  0  0  0  0  0  0  0  0
  150.4103  142.5564  157.1584 N   0  0  0  0  0  0  0  0  0  0  0  0
  150.1190  141.6415  156.2084 C   0  0  0  0  0  0  0  0  0  0  0  0
  150.7586  140.5946  156.1211 O   0  0  0  0  0  0  0  0  0  0  0  0
  149.1060  141.9425  155.3801 N   0  0  0  0  0  0  0  0  0  0  0  0
  148.6235  141.1067  154.2864 C   0  0  1  0  0  0  0  0  0  0  0  0
  148.5816  139.6417  154.7378 C   0  0  0  0  0  0  0  0  0  0  0  0
  148.0950  138.7276  153.6025 C   0  0  0  0  0  0  0  0  0  0  0  0
  146.8504  139.2634  152.8795 C   0  0  0  0  0  0  0  0  0  0  0  0
  146.1728  138.4990  152.1967 O   0  0  0  0  0  0  0  0  0  0  0  0
  146.5479  140.5697  152.9811 N   0  0  0  0  0  0  0  0  0  0  0  0
  147.2202  141.5535  153.8292 C   0  0  0  0  0  0  0  0  0  0  0  0
  151.0546  145.9269  159.0507 H   0  0  0  0  0  0  0  0  0  0  0  0
  149.7039  144.8795  158.6187 H   0  0  0  0  0  0  0  0  0  0  0  0
  150.9227  145.3046  157.4068 H   0  0  0  0  0  0  0  0  0  0  0  0
  152.6918  144.8731  160.3912 H   0  0  0  0  0  0  0  0  0  0  0  0
  154.0216  142.8531  161.0235 H   0  0  0  0  0  0  0  0  0  0  0  0
  153.5990  140.7123  159.7852 H   0  0  0  0  0  0  0  0  0  0  0  0
  149.8154  143.3718  157.1398 H   0  0  0  0  0  0  0  0  0  0  0  0
  148.6336  142.8246  155.5218 H   0  0  0  0  0  0  0  0  0  0  0  0
  149.3166  141.1849  153.4463 H   0  0  0  0  0  0  0  0  0  0  0  0
  149.5714  139.3204  155.0650 H   0  0  0  0  0  0  0  0  0  0  0  0
  147.9222  139.5360  155.6008 H   0  0  0  0  0  0  0  0  0  0  0  0
  148.8858  138.6177  152.8596 H   0  0  0  0  0  0  0  0  0  0  0  0
  147.8900  137.7288  153.9893 H   0  0  0  0  0  0  0  0  0  0  0  0
  145.7438  140.8988  152.4662 H   0  0  0  0  0  0  0  0  0  0  0  0
  146.5814  141.7241  154.6967 H   0  0  0  0  0  0  0  0  0  0  0  0
  147.2786  142.5012  153.2929 H   0  0  0  0  0  0  0  0  0  0  0  0
  1  2  1  0  0  0  0
  1 19  1  0  0  0  0
  1 20  1  0  0  0  0
  1 21  1  0  0  0  0
  2  7  1  0  0  0  0
  2  3  2  0  0  0  0
  3  4  1  0  0  0  0
  3 22  1  0  0  0  0
  4  5  2  0  0  0  0
  4 23  1  0  0  0  0
  5  6  1  0  0  0  0
  5 24  1  0  0  0  0
  6  7  2  0  0  0  0
  7  8  1  0  0  0  0
  8  9  1  0  0  0  0
  8 25  1  0  0  0  0
  9 10  2  0  0  0  0
  9 11  1  0  0  0  0
 11 12  1  0  0  0  0
 11 26  1  0  0  0  0
 12 18  1  0  0  0  0
 12 13  1  0  0  0  0
 12 27  1  0  0  0  0
 13 14  1  0  0  0  0
 13 28  1  0  0  0  0
 13 29  1  0  0  0  0
 14 15  1  0  0  0  0
 14 30  1  0  0  0  0
 14 31  1  0  0  0  0
 15 16  2  0  0  0  0
 15 17  1  0  0  0  0
 17 18  1  0  0  0  0
 17 32  1  0  0  0  0
 18 33  1  0  0  0  0
 18 34  1  0  0  0  0
M  END
> <s_m_source_file>
AV-unprocessed.smi

> <i_m_source_file_index>
1694

> <i_lp_mmshare_version>
43012

> <i_f3d_flags>
0

> <s_epik_input>
W0NIM11jMVtjSF1bY0hdW2NIXW5jMVtOSF1DKD1PKVtOSF1bQ0BASF0yW0NIMl1bQ0gyXUMoPU8pW05IXVtDSDJdMg==

> <s_epik_cmdline>
J2VwaWtfcHl0aG9uJywgJy1waCcsICc3LjAnLCAnLXRuJywgJzgnLCAnLW1hJywgJzIwMCcsICctbWV0YWxfYmluZGluZycsICctaW1hZScsICc8aW5maWxlLm1hZT4nLCAnLW9tYWUnLCAnPG91dGZpbGUubWFlPic=

> <r_lp_tautomer_probability>
1

> <r_epik_Ionization_Penalty>
5.3746e-05

> <r_epik_Ionization_Penalty_Charging>
0

> <r_epik_Ionization_Penalty_Neutral>
5.3746e-05

> <r_epik_State_Penalty>
-0

> <r_epik_Charging_Adjusted_Penalty>
0

> <i_epik_Tot_Q>
0

> <i_epik_Tot_abs_Q>
0

> <r_epik_Metal_State_Penalty>
-0

> <b_epik_Metal_Only>
0

> <s_lp_Force_Field>
OPLS_2005

> <r_lp_Energy>
12.9855

> <b_lp_Chiralities_Consistent>
1

> <s_lp_Variant>
AV-unprocessed.smi:1694-2

> <Gold.Version>
5.8.1

> <Gold.Id.Protein>
6NUR|6NUR_protein|mol2

> <Gold.PLP.Fitness>
41.1179

> <Gold.PLP.PLP>
-35.5017

> <Gold.PLP.part.hbond>
-3.0000

> <Gold.PLP.part.metal>
0.0000

> <Gold.PLP.part.buried>
-5.0546

> <Gold.PLP.part.nonpolar>
-29.6465

> <Gold.PLP.part.repulsive>
0.5498

> <Gold.PLP.ligand.clash>
0.0088

> <Gold.PLP.ligand.torsion>
0.2699

> <Gold.PLP.Chemscore.Hbond>
2.0545

> <Gold.PLP.Chemscore.CHOScore>
0.0000

> <Gold.PLP.Chemscore.Metal>
0.0000

> <Gold.Chemscore.Hbonds>
donor molecule, donor type, donor heavy atom, donor atom, acceptor molecule, acceptor atom, score
      L1  H     8    25       P1  8028  0.47
      L1  H    11    26       P1  8028  0.90
      L1  H    17    32       P1 10175  0.51

> <Gold.PLP.Chemscore.Internal.Correction>
0.0013

> <Gold.Rescore>
     Score         DG    S(hbond)    S(metal)    S(lipo)     H(rot)  DE(clash)    DE(int)     intcor
     17.20     -21.11       2.65        0.00      79.80       1.00       0.77       3.14       ----

> <Gold.Chemscore.Fitness>
17.2002

> <Gold.Chemscore.DG>
-21.1063

> <Gold.Chemscore.ZeroCoef>
-5.4800

> <Gold.Chemscore.Hbond>
2.6496

> <Gold.Chemscore.Metal>
0.0000

> <Gold.Chemscore.Lipo>
79.8004

> <Gold.Chemscore.Internal_Hbond>
0.0000

> <Gold.Chemscore.DEClash>
0.7666

> <Gold.Chemscore.DEInternal>
3.1395

> <Gold.Chemscore.Rot>
1.0000

> <Gold.Chemscore.Internal.Correction>
   9.000000E+99

> <Gold.Chemscore.Hbonds>
donor molecule, donor type, donor heavy atom, donor atom, acceptor molecule, acceptor atom, score
      L1  H     8    25       P1  8028  0.45
      L1  H    11    26       P1  8028  0.88
      L1  H    17    32       P1 10175  0.07

> <Gold.Chemscore.Hbond.Weighted>
-8.8496

> <Gold.Chemscore.Metal.Weighted>
-0.0000

> <Gold.Chemscore.Lipo.Weighted>
-9.3366

> <Gold.Chemscore.Internal_Hbond.Weighted>
0.0000

> <Gold.Chemscore.DEClash.Weighted>
0.7666

> <Gold.Chemscore.DEInternal.Weighted>
3.1395

> <Gold.Chemscore.Rot.Weighted>
2.5600

> <Gold.Chemscore.Internal.Correction.Weighted>
   9.000000E+99

> <Gold.Protein.RotatedTorsions>
[ 6907 6896 6895 6894 ] final  104.30 input  -60.11 | X-H torsion
[ 7974 7965 7964 7962 ] final  -17.40 input  175.53 | X-H torsion
[ 8008 7997 7996 7995 ] final   55.36 input   59.86 | X-H torsion
[ 10167 10162 10161 10158 ] final  148.92 input  -65.29 | X-H torsion
[ 10718 10713 10712 10709 ] final   50.77 input   66.30 | X-H torsion
[ 10763 10752 10751 10750 ] final -137.00 input  -60.55 | X-H torsion
[ 11005 11000 10999 10996 ] final  149.93 input  -57.11 | X-H torsion

> <Gold.Protein.ActiveResidues>
 VAL166  LYS551  ARG553  GLY616  TRP617  ASP618  TYR619  PRO620  LYS621  CYS622 
 ASP623  PHE694  ASN695  SER759  ASP760  ASP761  ALA762  ILE779  LEU786  VAL792 
 PHE793  MET794  SER795  GLU796  ALA797  LYS798  CYS799  TRP800  GLU811  SER814 

> <Gold.Protein.RotatedAtoms>
  152.5268  133.9697  159.7755 H   0  0  0  0  0  0  0  0  0  0  0  0  # atno 6907 bound_to 6896
  150.9971  133.6084  159.2707 H   0  0  0  0  0  0  0  0  0  0  0  0  # atno 6908 bound_to 6896
  151.3206  135.0824  159.9357 H   0  0  0  0  0  0  0  0  0  0  0  0  # atno 6909 bound_to 6896
  146.1942  140.3774  142.8446 H   0  0  0  0  0  0  0  0  0  0  0  0  # atno 7974 bound_to 7965
  155.4998  140.3474  155.4369 H   0  0  0  0  0  0  0  0  0  0  0  0  # atno 8008 bound_to 7997
  156.0921  140.1413  156.9606 H   0  0  0  0  0  0  0  0  0  0  0  0  # atno 8009 bound_to 7997
  154.4641  140.0924  156.6950 H   0  0  0  0  0  0  0  0  0  0  0  0  # atno 8010 bound_to 7997
  139.4868  144.5642  151.7175 H   0  0  0  0  0  0  0  0  0  0  0  0  # atno 10167 bound_to 10162
  157.4916  130.8380  149.8210 H   0  0  0  0  0  0  0  0  0  0  0  0  # atno 10718 bound_to 10713
  154.8671  135.3655  154.5152 H   0  0  0  0  0  0  0  0  0  0  0  0  # atno 10763 bound_to 10752
  153.5785  135.7019  153.5478 H   0  0  0  0  0  0  0  0  0  0  0  0  # atno 10764 bound_to 10752
  153.3478  135.4080  155.1585 H   0  0  0  0  0  0  0  0  0  0  0  0  # atno 10765 bound_to 10752
  140.1087  134.8938  157.1904 H   0  0  0  0  0  0  0  0  0  0  0  0  # atno 11005 bound_to 11000
  144.8547  140.7053  143.6145 LP  0  0  0  0  0  0  0  0  0  0  0  0  # atno 17320 bound_to 7965
  145.3695  139.1662  143.4339 LP  0  0  0  0  0  0  0  0  0  0  0  0  # atno 17321 bound_to 7965
  140.5218  144.0868  150.6025 LP  0  0  0  0  0  0  0  0  0  0  0  0  # atno 17342 bound_to 10162
  140.3828  143.2793  152.0150 LP  0  0  0  0  0  0  0  0  0  0  0  0  # atno 17343 bound_to 10162
  156.0177  130.3807  150.2059 LP  0  0  0  0  0  0  0  0  0  0  0  0  # atno 17370 bound_to 10713
  157.0248  130.9990  151.3329 LP  0  0  0  0  0  0  0  0  0  0  0  0  # atno 17371 bound_to 10713
  140.3120  134.3013  155.7264 LP  0  0  0  0  0  0  0  0  0  0  0  0  # atno 17394 bound_to 11000
  141.2125  133.7656  156.9790 LP  0  0  0  0  0  0  0  0  0  0  0  0  # atno 17395 bound_to 11000

$$$$
