AV-unprocessed.smi:1870|AV-procd|sdf|7596|dock3
  -GOLD-   22720 9313D 1   1.00000     0.00000
 Structure written by MMmdl.
 48 50  0  0  0  0  0  0  0  0  2 V2000
  149.1926  130.1607  153.9359 C   0  0  0  0  0  0  0  0  0  0  0  0
  150.1173  130.8692  154.8887 C   0  0  0  0  0  0  0  0  0  0  0  0
  149.8355  132.1003  155.1643 N   0  0  0  0  0  0  0  0  0  0  0  0
  150.6086  132.8372  156.0410 N   0  0  0  0  0  0  0  0  0  0  0  0
  150.0941  134.1888  156.3046 C   0  0  0  0  0  0  0  0  0  0  0  0
  150.1318  135.0899  155.0489 C   0  0  1  0  0  0  0  0  0  0  0  0
  149.1315  134.6470  154.1547 O   0  0  0  0  0  0  0  0  0  0  0  0
  149.8869  136.5826  155.3662 C   0  0  0  0  0  0  0  0  0  0  0  0
  150.2561  137.5064  154.2574 N   0  3  2  0  0  0  0  0  0  0  0  0
  151.7134  137.7454  154.0803 C   0  0  0  0  0  0  0  0  0  0  0  0
  152.3306  138.4281  155.3139 C   0  0  0  0  0  0  0  0  0  0  0  0
  151.4833  139.5829  155.8259 C   0  0  0  0  0  0  0  0  0  0  0  0
  152.0209  140.4699  156.7807 C   0  0  0  0  0  0  0  0  0  0  0  0
  151.2323  141.5140  157.3002 C   0  0  0  0  0  0  0  0  0  0  0  0
  149.9015  141.6727  156.8694 C   0  0  0  0  0  0  0  0  0  0  0  0
  149.3588  140.7889  155.9171 C   0  0  0  0  0  0  0  0  0  0  0  0
  150.1430  139.7414  155.3910 C   0  0  0  0  0  0  0  0  0  0  0  0
  149.5413  138.8051  154.3466 C   0  0  0  0  0  0  0  0  0  0  0  0
  151.7360  132.3770  156.6552 C   0  0  0  0  0  0  0  0  0  0  0  0
  152.4084  133.0760  157.4141 O   0  0  0  0  0  0  0  0  0  0  0  0
  152.0481  130.9813  156.3406 C   0  0  0  0  0  0  0  0  0  0  0  0
  153.2037  130.4496  156.9884 C   0  0  0  0  0  0  0  0  0  0  0  0
  154.1535  130.0283  157.4983 N   0  0  0  0  0  0  0  0  0  0  0  0
  151.2837  130.2409  155.4997 C   0  0  0  0  0  0  0  0  0  0  0  0
  151.5619  128.7865  155.1464 C   0  0  0  0  0  0  0  0  0  0  0  0
  149.7148  129.8952  153.0166 H   0  0  0  0  0  0  0  0  0  0  0  0
  148.3371  130.7801  153.6624 H   0  0  0  0  0  0  0  0  0  0  0  0
  148.8036  129.2452  154.3818 H   0  0  0  0  0  0  0  0  0  0  0  0
  149.0729  134.1187  156.6837 H   0  0  0  0  0  0  0  0  0  0  0  0
  150.6684  134.6567  157.1070 H   0  0  0  0  0  0  0  0  0  0  0  0
  151.0932  134.9483  154.5600 H   0  0  0  0  0  0  0  0  0  0  0  0
  148.8828  135.3675  153.5956 H   0  0  0  0  0  0  0  0  0  0  0  0
  148.8324  136.7164  155.6124 H   0  0  0  0  0  0  0  0  0  0  0  0
  150.4308  136.8819  156.2604 H   0  0  0  0  0  0  0  0  0  0  0  0
  152.2497  136.8299  153.8361 H   0  0  0  0  0  0  0  0  0  0  0  0
  151.8421  138.3934  153.2118 H   0  0  0  0  0  0  0  0  0  0  0  0
  152.4550  137.7070  156.1230 H   0  0  0  0  0  0  0  0  0  0  0  0
  153.3298  138.7916  155.0720 H   0  0  0  0  0  0  0  0  0  0  0  0
  153.0381  140.3468  157.1235 H   0  0  0  0  0  0  0  0  0  0  0  0
  151.6471  142.1908  158.0328 H   0  0  0  0  0  0  0  0  0  0  0  0
  149.2968  142.4736  157.2693 H   0  0  0  0  0  0  0  0  0  0  0  0
  148.3383  140.9209  155.5880 H   0  0  0  0  0  0  0  0  0  0  0  0
  149.5935  139.3025  153.3772 H   0  0  0  0  0  0  0  0  0  0  0  0
  148.4819  138.6429  154.5506 H   0  0  0  0  0  0  0  0  0  0  0  0
  152.5061  128.4347  155.5611 H   0  0  0  0  0  0  0  0  0  0  0  0
  151.6143  128.6538  154.0654 H   0  0  0  0  0  0  0  0  0  0  0  0
  150.7707  128.1440  155.5345 H   0  0  0  0  0  0  0  0  0  0  0  0
  149.9297  137.0614  153.4112 H   0  0  0  0  0  0  0  0  0  0  0  0
  1  2  1  0  0  0  0
  1 26  1  0  0  0  0
  1 27  1  0  0  0  0
  1 28  1  0  0  0  0
  2 24  1  0  0  0  0
  2  3  2  0  0  0  0
  3  4  1  0  0  0  0
  4  5  1  0  0  0  0
  4 19  1  0  0  0  0
  5  6  1  0  0  0  0
  5 29  1  0  0  0  0
  5 30  1  0  0  0  0
  6  7  1  0  0  0  0
  6  8  1  0  0  0  0
  6 31  1  0  0  0  0
  7 32  1  0  0  0  0
  8  9  1  0  0  0  0
  8 33  1  0  0  0  0
  8 34  1  0  0  0  0
  9 18  1  0  0  0  0
  9 10  1  0  0  0  0
  9 48  1  0  0  0  0
 10 11  1  0  0  0  0
 10 35  1  0  0  0  0
 10 36  1  0  0  0  0
 11 12  1  0  0  0  0
 11 37  1  0  0  0  0
 11 38  1  0  0  0  0
 12 17  2  0  0  0  0
 12 13  1  0  0  0  0
 13 14  2  0  0  0  0
 13 39  1  0  0  0  0
 14 15  1  0  0  0  0
 14 40  1  0  0  0  0
 15 16  2  0  0  0  0
 15 41  1  0  0  0  0
 16 17  1  0  0  0  0
 16 42  1  0  0  0  0
 17 18  1  0  0  0  0
 18 43  1  0  0  0  0
 18 44  1  0  0  0  0
 19 20  2  0  0  0  0
 19 21  1  0  0  0  0
 21 22  1  0  0  0  0
 21 24  2  0  0  0  0
 22 23  3  0  0  0  0
 24 25  1  0  0  0  0
 25 45  1  0  0  0  0
 25 46  1  0  0  0  0
 25 47  1  0  0  0  0
M  CHG  1   9   1
M  END
> <s_m_source_file>
AV-unprocessed.smi

> <i_m_source_file_index>
1870

> <i_lp_mmshare_version>
43012

> <i_f3d_flags>
0

> <s_epik_input>
TiNDYyhjMVtDSDNdKWMoPU8pbihuYzFbQ0gzXSlbQ0gyXVtDQEhdKFtPSF0pW0NIMl1OKFtDSDJdW0NIMl0yKVtDSDJdYyhjMjMpW2NIXVtjSF1bY0hdW2NIXTM=

> <s_epik_cmdline>
J2VwaWtfcHl0aG9uJywgJy1waCcsICc3LjAnLCAnLXRuJywgJzgnLCAnLW1hJywgJzIwMCcsICctbWV0YWxfYmluZGluZycsICctaW1hZScsICc8aW5maWxlLm1hZT4nLCAnLW9tYWUnLCAnPG91dGZpbGUubWFlPic=

> <r_epik_Ionization_Penalty>
0.0122865

> <r_epik_Ionization_Penalty_Charging>
0.0122864

> <r_epik_Ionization_Penalty_Neutral>
1.48087e-07

> <r_epik_State_Penalty>
0.00950248

> <r_epik_Charging_Adjusted_Penalty>
0.0217889

> <i_epik_Tot_Q>
1

> <i_epik_Tot_abs_Q>
1

> <r_epik_Metal_State_Penalty>
0.00950248

> <b_epik_Metal_Only>
0

> <s_lp_Force_Field>
OPLS_2005

> <r_lp_Energy>
37.2352

> <b_lp_Chiralities_Consistent>
1

> <s_lp_Variant>
AV-unprocessed.smi:1870-4

> <Gold.Version>
5.8.1

> <Gold.Id.Protein>
6NUR|6NUR_protein|mol2

> <Gold.PLP.Fitness>
51.9025

> <Gold.PLP.PLP>
-41.5206

> <Gold.PLP.part.hbond>
-3.4315

> <Gold.PLP.part.metal>
0.0000

> <Gold.PLP.part.buried>
-4.8497

> <Gold.PLP.part.nonpolar>
-33.6200

> <Gold.PLP.part.repulsive>
0.0577

> <Gold.PLP.ligand.clash>
0.0000

> <Gold.PLP.ligand.torsion>
0.3837

> <Gold.PLP.Chemscore.Hbond>
3.7040

> <Gold.PLP.Chemscore.CHOScore>
0.0000

> <Gold.PLP.Chemscore.Metal>
0.0000

> <Gold.Chemscore.Hbonds>
donor molecule, donor type, donor heavy atom, donor atom, acceptor molecule, acceptor atom, score
      L1  H     7    32       P1  7948  0.96
      L1  H     9    48       P1  7948  2.00
      P1  H  6896  6907       L1    20  0.77

> <Gold.PLP.Chemscore.Internal.Correction>
0.0373

> <Gold.Rescore>
     Score         DG    S(hbond)    S(metal)    S(lipo)     H(rot)  DE(clash)    DE(int)     intcor
     18.84     -19.20       2.46        0.00      94.29       2.16       0.15       0.21       ----

> <Gold.Chemscore.Fitness>
18.8400

> <Gold.Chemscore.DG>
-19.1990

> <Gold.Chemscore.ZeroCoef>
-5.4800

> <Gold.Chemscore.Hbond>
2.4623

> <Gold.Chemscore.Metal>
0.0000

> <Gold.Chemscore.Lipo>
94.2858

> <Gold.Chemscore.Internal_Hbond>
0.0000

> <Gold.Chemscore.DEClash>
0.1490

> <Gold.Chemscore.DEInternal>
0.2099

> <Gold.Chemscore.Rot>
2.1628

> <Gold.Chemscore.Internal.Correction>
   9.000000E+99

> <Gold.Chemscore.Hbonds>
donor molecule, donor type, donor heavy atom, donor atom, acceptor molecule, acceptor atom, score
      L1  H     7    32       P1  7948  0.72
      L1  H     9    48       P1  7948  0.34
      P1  H  6896  6907       L1    20  0.72

> <Gold.Chemscore.Hbond.Weighted>
-8.2242

> <Gold.Chemscore.Metal.Weighted>
-0.0000

> <Gold.Chemscore.Lipo.Weighted>
-11.0314

> <Gold.Chemscore.Internal_Hbond.Weighted>
0.0000

> <Gold.Chemscore.DEClash.Weighted>
0.1490

> <Gold.Chemscore.DEInternal.Weighted>
0.2099

> <Gold.Chemscore.Rot.Weighted>
5.5367

> <Gold.Chemscore.Internal.Correction.Weighted>
   9.000000E+99

> <Gold.Protein.RotatedTorsions>
[ 6907 6896 6895 6894 ] final  169.53 input  -60.11 | X-H torsion
[ 7974 7965 7964 7962 ] final   11.65 input  175.53 | X-H torsion
[ 8008 7997 7996 7995 ] final   35.31 input   59.86 | X-H torsion
[ 10167 10162 10161 10158 ] final  -47.95 input  -65.29 | X-H torsion
[ 10718 10713 10712 10709 ] final  -61.29 input   66.30 | X-H torsion
[ 10763 10752 10751 10750 ] final   27.12 input  -60.55 | X-H torsion
[ 11005 11000 10999 10996 ] final -142.14 input  -57.11 | X-H torsion

> <Gold.Protein.ActiveResidues>
 VAL166  LYS551  ARG553  GLY616  TRP617  ASP618  TYR619  PRO620  LYS621  CYS622 
 ASP623  PHE694  ASN695  SER759  ASP760  ASP761  ALA762  ILE779  LEU786  VAL792 
 PHE793  MET794  SER795  GLU796  ALA797  LYS798  CYS799  TRP800  GLU811  SER814 

> <Gold.Protein.RotatedAtoms>
  151.8304  133.3408  159.3611 H   0  0  0  0  0  0  0  0  0  0  0  0  # atno 6907 bound_to 6896
  150.7266  134.5488  159.5793 H   0  0  0  0  0  0  0  0  0  0  0  0  # atno 6908 bound_to 6896
  152.2940  134.7689  160.0423 H   0  0  0  0  0  0  0  0  0  0  0  0  # atno 6909 bound_to 6896
  146.2367  139.9453  142.8477 H   0  0  0  0  0  0  0  0  0  0  0  0  # atno 7974 bound_to 7965
  155.1690  140.3290  155.4396 H   0  0  0  0  0  0  0  0  0  0  0  0  # atno 8008 bound_to 7997
  156.2517  140.1947  156.6744 H   0  0  0  0  0  0  0  0  0  0  0  0  # atno 8009 bound_to 7997
  154.6351  140.0577  156.9765 H   0  0  0  0  0  0  0  0  0  0  0  0  # atno 8010 bound_to 7997
  140.6752  143.2761  151.4001 H   0  0  0  0  0  0  0  0  0  0  0  0  # atno 10167 bound_to 10162
  156.0932  130.4197  150.0973 H   0  0  0  0  0  0  0  0  0  0  0  0  # atno 10718 bound_to 10713
  153.0576  135.6544  154.0539 H   0  0  0  0  0  0  0  0  0  0  0  0  # atno 10763 bound_to 10752
  154.0214  135.2919  155.3382 H   0  0  0  0  0  0  0  0  0  0  0  0  # atno 10764 bound_to 10752
  154.6899  135.5287  153.8446 H   0  0  0  0  0  0  0  0  0  0  0  0  # atno 10765 bound_to 10752
  140.8255  134.2580  157.4881 H   0  0  0  0  0  0  0  0  0  0  0  0  # atno 11005 bound_to 11000
  145.1913  140.9813  143.4209 LP  0  0  0  0  0  0  0  0  0  0  0  0  # atno 17320 bound_to 7965
  144.9854  139.3741  143.6241 LP  0  0  0  0  0  0  0  0  0  0  0  0  # atno 17321 bound_to 7965
  139.6041  144.1233  152.2230 LP  0  0  0  0  0  0  0  0  0  0  0  0  # atno 17342 bound_to 10162
  140.0627  144.5844  150.7251 LP  0  0  0  0  0  0  0  0  0  0  0  0  # atno 17343 bound_to 10162
  156.8978  130.9610  151.3580 LP  0  0  0  0  0  0  0  0  0  0  0  0  # atno 17370 bound_to 10713
  157.6086  130.8566  149.8915 LP  0  0  0  0  0  0  0  0  0  0  0  0  # atno 17371 bound_to 10713
  139.8706  134.9558  156.4217 LP  0  0  0  0  0  0  0  0  0  0  0  0  # atno 17394 bound_to 11000
  140.9054  133.7749  155.9729 LP  0  0  0  0  0  0  0  0  0  0  0  0  # atno 17395 bound_to 11000

$$$$
