AV-unprocessed.smi:1824|AV-procd|sdf|7401|dock3
  -GOLD-   22720 9 73D 1   1.00000     0.00000
 Structure written by MMmdl.
 45 47  0  0  0  0  0  0  0  0  2 V2000
  143.8205  144.0874  154.6319 C   0  0  0  0  0  0  0  0  0  0  0  0
  145.0422  143.4429  155.2957 C   0  0  2  0  0  0  0  0  0  0  0  0
  145.9792  142.7855  154.2664 C   0  0  0  0  0  0  0  0  0  0  0  0
  147.1026  142.1055  154.9545 N   0  3  2  0  0  0  0  0  0  0  0  0
  148.1126  141.5307  154.0294 C   0  0  0  0  0  0  0  0  0  0  0  0
  149.3008  140.8861  154.7715 C   0  0  1  0  0  0  0  0  0  0  0  0
  150.0556  140.1236  153.8483 O   0  0  0  0  0  0  0  0  0  0  0  0
  150.2091  141.9481  155.4212 C   0  0  0  0  0  0  0  0  0  0  0  0
  151.0109  141.4108  156.5064 N   0  0  0  0  0  0  0  0  0  0  0  0
  151.7281  140.2702  156.5015 C   0  0  0  0  0  0  0  0  0  0  0  0
  152.3971  139.9660  157.6097 N   0  0  0  0  0  0  0  0  0  0  0  0
  152.0812  141.0355  158.4296 C   0  0  0  0  0  0  0  0  0  0  0  0
  152.4787  141.3240  159.7545 C   0  0  0  0  0  0  0  0  0  0  0  0
  152.0242  142.4934  160.3988 C   0  0  0  0  0  0  0  0  0  0  0  0
  152.4167  142.7557  161.6680 F   0  0  0  0  0  0  0  0  0  0  0  0
  151.1647  143.3898  159.7290 C   0  0  0  0  0  0  0  0  0  0  0  0
  150.7321  144.5102  160.3545 F   0  0  0  0  0  0  0  0  0  0  0  0
  150.7551  143.1236  158.4083 C   0  0  0  0  0  0  0  0  0  0  0  0
  151.2132  141.9567  157.7693 C   0  0  0  0  0  0  0  0  0  0  0  0
  146.5841  141.1080  155.9204 C   0  0  0  0  0  0  0  0  0  0  0  0
  145.6000  141.7551  156.9150 C   0  0  1  0  0  0  0  0  0  0  0  0
  146.2860  142.6385  157.9724 C   0  0  0  0  0  0  0  0  0  0  0  0
  144.5744  142.4541  156.2094 O   0  0  0  0  0  0  0  0  0  0  0  0
  144.1202  144.8613  153.9246 H   0  0  0  0  0  0  0  0  0  0  0  0
  143.1725  144.5516  155.3759 H   0  0  0  0  0  0  0  0  0  0  0  0
  143.2291  143.3489  154.0900 H   0  0  0  0  0  0  0  0  0  0  0  0
  145.5805  144.2210  155.8374 H   0  0  0  0  0  0  0  0  0  0  0  0
  145.4290  142.0620  153.6627 H   0  0  0  0  0  0  0  0  0  0  0  0
  146.3546  143.5479  153.5849 H   0  0  0  0  0  0  0  0  0  0  0  0
  147.6437  140.7695  153.4036 H   0  0  0  0  0  0  0  0  0  0  0  0
  148.4620  142.3091  153.3495 H   0  0  0  0  0  0  0  0  0  0  0  0
  148.9418  140.2155  155.5516 H   0  0  0  0  0  0  0  0  0  0  0  0
  149.7907  140.3585  152.9718 H   0  0  0  0  0  0  0  0  0  0  0  0
  150.8775  142.3876  154.6792 H   0  0  0  0  0  0  0  0  0  0  0  0
  149.6060  142.7659  155.8175 H   0  0  0  0  0  0  0  0  0  0  0  0
  151.7597  139.6251  155.6355 H   0  0  0  0  0  0  0  0  0  0  0  0
  153.1360  140.6447  160.2766 H   0  0  0  0  0  0  0  0  0  0  0  0
  150.0992  143.8093  157.8932 H   0  0  0  0  0  0  0  0  0  0  0  0
  146.0802  140.3110  155.3711 H   0  0  0  0  0  0  0  0  0  0  0  0
  147.4084  140.6443  156.4641 H   0  0  0  0  0  0  0  0  0  0  0  0
  145.0990  140.9514  157.4556 H   0  0  0  0  0  0  0  0  0  0  0  0
  146.9636  142.0475  158.5891 H   0  0  0  0  0  0  0  0  0  0  0  0
  145.5494  143.0918  158.6360 H   0  0  0  0  0  0  0  0  0  0  0  0
  146.8727  143.4409  157.5262 H   0  0  0  0  0  0  0  0  0  0  0  0
  147.5845  142.8053  155.5014 H   0  0  0  0  0  0  0  0  0  0  0  0
  1  2  1  0  0  0  0
  1 24  1  0  0  0  0
  1 25  1  0  0  0  0
  1 26  1  0  0  0  0
  2 23  1  0  0  0  0
  2  3  1  0  0  0  0
  2 27  1  0  0  0  0
  3  4  1  0  0  0  0
  3 28  1  0  0  0  0
  3 29  1  0  0  0  0
  4  5  1  0  0  0  0
  4 20  1  0  0  0  0
  4 45  1  0  0  0  0
  5  6  1  0  0  0  0
  5 30  1  0  0  0  0
  5 31  1  0  0  0  0
  6  7  1  0  0  0  0
  6  8  1  0  0  0  0
  6 32  1  0  0  0  0
  7 33  1  0  0  0  0
  8  9  1  0  0  0  0
  8 34  1  0  0  0  0
  8 35  1  0  0  0  0
  9 19  1  0  0  0  0
  9 10  1  0  0  0  0
 10 11  2  0  0  0  0
 10 36  1  0  0  0  0
 11 12  1  0  0  0  0
 12 19  2  0  0  0  0
 12 13  1  0  0  0  0
 13 14  2  0  0  0  0
 13 37  1  0  0  0  0
 14 15  1  0  0  0  0
 14 16  1  0  0  0  0
 16 17  1  0  0  0  0
 16 18  2  0  0  0  0
 18 19  1  0  0  0  0
 18 38  1  0  0  0  0
 20 21  1  0  0  0  0
 20 39  1  0  0  0  0
 20 40  1  0  0  0  0
 21 22  1  0  0  0  0
 21 23  1  0  0  0  0
 21 41  1  0  0  0  0
 22 42  1  0  0  0  0
 22 43  1  0  0  0  0
 22 44  1  0  0  0  0
M  CHG  1   4   1
M  END
> <s_m_source_file>
AV-unprocessed.smi

> <i_m_source_file_index>
1824

> <i_lp_mmshare_version>
43012

> <i_f3d_flags>
0

> <s_epik_input>
W0NIM11bQ0BASF0xW0NIMl1OKFtDSDJdW0NASF0oTzEpW0NIM10pW0NIMl1bQ0BIXShbT0hdKVtDSDJdbihbY0hdbjIpYyhjMjMpW2NIXWMoRiljKEYpW2NIXTM=

> <s_epik_cmdline>
J2VwaWtfcHl0aG9uJywgJy1waCcsICc3LjAnLCAnLXRuJywgJzgnLCAnLW1hJywgJzIwMCcsICctbWV0YWxfYmluZGluZycsICctaW1hZScsICc8aW5maWxlLm1hZT4nLCAnLW9tYWUnLCAnPG91dGZpbGUubWFlPic=

> <r_epik_Ionization_Penalty>
0.61967

> <r_epik_Ionization_Penalty_Charging>
0.608065

> <r_epik_Ionization_Penalty_Neutral>
0.0116057

> <r_epik_State_Penalty>
0.664205

> <r_epik_Charging_Adjusted_Penalty>
1.27227

> <i_epik_Tot_Q>
1

> <i_epik_Tot_abs_Q>
1

> <r_epik_Metal_State_Penalty>
0.654947

> <b_epik_Metal_Only>
0

> <s_lp_Force_Field>
OPLS_2005

> <r_lp_Energy>
23.0579

> <b_lp_Chiralities_Consistent>
1

> <s_lp_Variant>
AV-unprocessed.smi:1824-9

> <Gold.Version>
5.8.1

> <Gold.Id.Protein>
6NUR|6NUR_protein|mol2

> <Gold.PLP.Fitness>
60.0419

> <Gold.PLP.PLP>
-47.4572

> <Gold.PLP.part.hbond>
-4.0000

> <Gold.PLP.part.metal>
0.0000

> <Gold.PLP.part.buried>
-5.1196

> <Gold.PLP.part.nonpolar>
-36.3787

> <Gold.PLP.part.repulsive>
0.1616

> <Gold.PLP.ligand.clash>
0.0000

> <Gold.PLP.ligand.torsion>
0.4470

> <Gold.PLP.Chemscore.Hbond>
4.4737

> <Gold.PLP.Chemscore.CHOScore>
0.0000

> <Gold.PLP.Chemscore.Metal>
0.0000

> <Gold.Chemscore.Hbonds>
donor molecule, donor type, donor heavy atom, donor atom, acceptor molecule, acceptor atom, score
      L1  H     4    45       P1  8028  0.71
      L1  H     7    33       P1  7957  1.00
      P1  H  7989  7998       L1     7  0.24
      P1  H  7997  8008       L1    11  0.53

> <Gold.PLP.Chemscore.Internal.Correction>
0.0575

> <Gold.Rescore>
     Score         DG    S(hbond)    S(metal)    S(lipo)     H(rot)  DE(clash)    DE(int)     intcor
     16.79     -17.61       2.14        0.00      93.49       2.33       0.54       0.27       ----

> <Gold.Chemscore.Fitness>
16.7889

> <Gold.Chemscore.DG>
-17.6071

> <Gold.Chemscore.ZeroCoef>
-5.4800

> <Gold.Chemscore.Hbond>
2.1381

> <Gold.Chemscore.Metal>
0.0000

> <Gold.Chemscore.Lipo>
93.4886

> <Gold.Chemscore.Internal_Hbond>
0.0000

> <Gold.Chemscore.DEClash>
0.5443

> <Gold.Chemscore.DEInternal>
0.2739

> <Gold.Chemscore.Rot>
2.3251

> <Gold.Chemscore.Internal.Correction>
   9.000000E+99

> <Gold.Chemscore.Hbonds>
donor molecule, donor type, donor heavy atom, donor atom, acceptor molecule, acceptor atom, score
      L1  H     4    45       P1  8028  0.17
      L1  H     7    33       P1  7957  0.97
      P1  H  7997  8008       L1    11  0.09

> <Gold.Chemscore.Hbond.Weighted>
-7.1413

> <Gold.Chemscore.Metal.Weighted>
-0.0000

> <Gold.Chemscore.Lipo.Weighted>
-10.9382

> <Gold.Chemscore.Internal_Hbond.Weighted>
0.0000

> <Gold.Chemscore.DEClash.Weighted>
0.5443

> <Gold.Chemscore.DEInternal.Weighted>
0.2739

> <Gold.Chemscore.Rot.Weighted>
5.9523

> <Gold.Chemscore.Internal.Correction.Weighted>
   9.000000E+99

> <Gold.Protein.RotatedTorsions>
[ 6907 6896 6895 6894 ] final  -93.45 input  -60.11 | X-H torsion
[ 7974 7965 7964 7962 ] final  -13.04 input  175.53 | X-H torsion
[ 8008 7997 7996 7995 ] final  -68.54 input   59.86 | X-H torsion
[ 10167 10162 10161 10158 ] final  -76.32 input  -65.29 | X-H torsion
[ 10718 10713 10712 10709 ] final   72.14 input   66.30 | X-H torsion
[ 10763 10752 10751 10750 ] final -136.68 input  -60.55 | X-H torsion
[ 11005 11000 10999 10996 ] final  -43.17 input  -57.11 | X-H torsion

> <Gold.Protein.ActiveResidues>
 VAL166  LYS551  ARG553  GLY616  TRP617  ASP618  TYR619  PRO620  LYS621  CYS622 
 ASP623  PHE694  ASN695  SER759  ASP760  ASP761  ALA762  ILE779  LEU786  VAL792 
 PHE793  MET794  SER795  GLU796  ALA797  LYS798  CYS799  TRP800  GLU811  SER814 

> <Gold.Protein.RotatedAtoms>
  150.6923  134.1966  159.4305 H   0  0  0  0  0  0  0  0  0  0  0  0  # atno 6907 bound_to 6896
  151.9934  134.9964  160.0571 H   0  0  0  0  0  0  0  0  0  0  0  0  # atno 6908 bound_to 6896
  152.1646  133.4569  159.4915 H   0  0  0  0  0  0  0  0  0  0  0  0  # atno 6909 bound_to 6896
  146.2129  140.3145  142.8385 H   0  0  0  0  0  0  0  0  0  0  0  0  # atno 7974 bound_to 7965
  154.4875  140.0871  156.7519 H   0  0  0  0  0  0  0  0  0  0  0  0  # atno 8008 bound_to 7997
  155.4314  140.3450  155.4262 H   0  0  0  0  0  0  0  0  0  0  0  0  # atno 8009 bound_to 7997
  156.1282  140.1493  156.9093 H   0  0  0  0  0  0  0  0  0  0  0  0  # atno 8010 bound_to 7997
  140.4867  143.2389  151.7972 H   0  0  0  0  0  0  0  0  0  0  0  0  # atno 10167 bound_to 10162
  157.6486  130.9564  150.0887 H   0  0  0  0  0  0  0  0  0  0  0  0  # atno 10718 bound_to 10713
  154.8678  135.3665  154.5100 H   0  0  0  0  0  0  0  0  0  0  0  0  # atno 10763 bound_to 10752
  153.5736  135.7020  153.5499 H   0  0  0  0  0  0  0  0  0  0  0  0  # atno 10764 bound_to 10752
  153.3520  135.4069  155.1616 H   0  0  0  0  0  0  0  0  0  0  0  0  # atno 10765 bound_to 10752
  141.0366  133.6797  156.2696 H   0  0  0  0  0  0  0  0  0  0  0  0  # atno 11005 bound_to 11000
  144.8964  140.7589  143.5894 LP  0  0  0  0  0  0  0  0  0  0  0  0  # atno 17320 bound_to 7965
  145.3069  139.1831  143.4659 LP  0  0  0  0  0  0  0  0  0  0  0  0  # atno 17321 bound_to 7965
  139.4843  144.4702  151.9434 LP  0  0  0  0  0  0  0  0  0  0  0  0  # atno 17342 bound_to 10162
  140.3788  144.2762  150.5911 LP  0  0  0  0  0  0  0  0  0  0  0  0  # atno 17343 bound_to 10162
  156.1843  130.3651  149.8994 LP  0  0  0  0  0  0  0  0  0  0  0  0  # atno 17370 bound_to 10713
  156.6939  130.8906  151.3591 LP  0  0  0  0  0  0  0  0  0  0  0  0  # atno 17371 bound_to 10713
  140.6311  134.5262  157.5559 LP  0  0  0  0  0  0  0  0  0  0  0  0  # atno 17394 bound_to 11000
  139.9245  134.8083  156.1111 LP  0  0  0  0  0  0  0  0  0  0  0  0  # atno 17395 bound_to 11000

$$$$
