AV-unprocessed.smi:2163|AV-procd|sdf|8806|dock10
  -GOLD-   2272011593D 1   1.00000     0.00000
 Structure written by MMmdl.
 44 46  0  0  0  0  0  0  0  0  2 V2000
  149.4053  140.6391  155.5717 C   0  0  0  0  0  0  0  0  0  0  0  0
  150.2398  141.1295  156.7067 C   0  0  0  0  0  0  0  0  0  0  0  0
  150.4075  142.4308  157.0745 N   0  3  0  0  0  0  0  0  0  0  0  0
  151.2546  142.5033  158.1810 C   0  0  0  0  0  0  0  0  0  0  0  0
  151.7134  143.5990  158.9054 C   0  0  0  0  0  0  0  0  0  0  0  0
  152.5707  143.3256  159.9911 C   0  0  0  0  0  0  0  0  0  0  0  0
  152.9408  142.0054  160.3199 C   0  0  0  0  0  0  0  0  0  0  0  0
  152.4707  140.9025  159.5767 C   0  0  0  0  0  0  0  0  0  0  0  0
  151.6229  141.1808  158.5044 C   0  0  0  0  0  0  0  0  0  0  0  0
  150.9732  140.3677  157.5675 N   0  0  0  0  0  0  0  0  0  0  0  0
  151.1422  138.9073  157.6238 C   0  0  0  0  0  0  0  0  0  0  0  0
  150.4691  138.2796  158.8614 C   0  0  2  0  0  0  0  0  0  0  0  0
  151.1816  137.1538  159.3335 O   0  0  0  0  0  0  0  0  0  0  0  0
  148.9996  137.8904  158.6341 C   0  0  0  0  0  0  0  0  0  0  0  0
  148.3714  137.6178  159.8810 O   0  0  0  0  0  0  0  0  0  0  0  0
  148.0466  136.3112  160.1772 C   0  0  0  0  0  0  0  0  0  0  0  0
  148.1596  135.2339  159.2622 C   0  0  0  0  0  0  0  0  0  0  0  0
  147.8047  133.9274  159.6508 C   0  0  0  0  0  0  0  0  0  0  0  0
  147.3333  133.6773  160.9544 C   0  0  0  0  0  0  0  0  0  0  0  0
  146.9538  132.2712  161.3711 C   0  0  0  0  0  0  0  0  0  0  0  0
  148.1174  131.3723  161.4062 C   0  0  0  0  0  0  0  0  0  0  0  0
  149.0326  130.6650  161.4342 N   0  0  0  0  0  0  0  0  0  0  0  0
  147.2190  134.7425  161.8689 C   0  0  0  0  0  0  0  0  0  0  0  0
  147.5736  136.0485  161.4794 C   0  0  0  0  0  0  0  0  0  0  0  0
  148.9240  141.4735  155.0610 H   0  0  0  0  0  0  0  0  0  0  0  0
  148.6314  139.9640  155.9371 H   0  0  0  0  0  0  0  0  0  0  0  0
  150.0252  140.1034  154.8526 H   0  0  0  0  0  0  0  0  0  0  0  0
  151.4301  144.6111  158.6561 H   0  0  0  0  0  0  0  0  0  0  0  0
  152.9508  144.1447  160.5845 H   0  0  0  0  0  0  0  0  0  0  0  0
  153.5982  141.8346  161.1601 H   0  0  0  0  0  0  0  0  0  0  0  0
  152.7589  139.8960  159.8409 H   0  0  0  0  0  0  0  0  0  0  0  0
  150.7004  138.4962  156.7156 H   0  0  0  0  0  0  0  0  0  0  0  0
  152.2044  138.6672  157.5769 H   0  0  0  0  0  0  0  0  0  0  0  0
  150.4937  139.0083  159.6725 H   0  0  0  0  0  0  0  0  0  0  0  0
  152.0820  137.4058  159.4711 H   0  0  0  0  0  0  0  0  0  0  0  0
  148.4765  138.6817  158.0941 H   0  0  0  0  0  0  0  0  0  0  0  0
  148.9686  136.9909  158.0168 H   0  0  0  0  0  0  0  0  0  0  0  0
  148.5162  135.3825  158.2543 H   0  0  0  0  0  0  0  0  0  0  0  0
  147.8968  133.1162  158.9435 H   0  0  0  0  0  0  0  0  0  0  0  0
  146.4977  132.2847  162.3612 H   0  0  0  0  0  0  0  0  0  0  0  0
  146.2203  131.8584  160.6781 H   0  0  0  0  0  0  0  0  0  0  0  0
  146.8605  134.5605  162.8713 H   0  0  0  0  0  0  0  0  0  0  0  0
  147.4827  136.8580  162.1888 H   0  0  0  0  0  0  0  0  0  0  0  0
  149.9706  143.2115  156.6017 H   0  0  0  0  0  0  0  0  0  0  0  0
  1  2  1  0  0  0  0
  1 25  1  0  0  0  0
  1 26  1  0  0  0  0
  1 27  1  0  0  0  0
  2 10  1  0  0  0  0
  2  3  2  0  0  0  0
  3  4  1  0  0  0  0
  3 44  1  0  0  0  0
  4  9  2  0  0  0  0
  4  5  1  0  0  0  0
  5  6  2  0  0  0  0
  5 28  1  0  0  0  0
  6  7  1  0  0  0  0
  6 29  1  0  0  0  0
  7  8  2  0  0  0  0
  7 30  1  0  0  0  0
  8  9  1  0  0  0  0
  8 31  1  0  0  0  0
  9 10  1  0  0  0  0
 10 11  1  0  0  0  0
 11 12  1  0  0  0  0
 11 32  1  0  0  0  0
 11 33  1  0  0  0  0
 12 13  1  0  0  0  0
 12 14  1  0  0  0  0
 12 34  1  0  0  0  0
 13 35  1  0  0  0  0
 14 15  1  0  0  0  0
 14 36  1  0  0  0  0
 14 37  1  0  0  0  0
 15 16  1  0  0  0  0
 16 24  1  0  0  0  0
 16 17  2  0  0  0  0
 17 18  1  0  0  0  0
 17 38  1  0  0  0  0
 18 19  2  0  0  0  0
 18 39  1  0  0  0  0
 19 20  1  0  0  0  0
 19 23  1  0  0  0  0
 20 21  1  0  0  0  0
 20 40  1  0  0  0  0
 20 41  1  0  0  0  0
 21 22  3  0  0  0  0
 23 24  2  0  0  0  0
 23 42  1  0  0  0  0
 24 43  1  0  0  0  0
M  CHG  1   3   1
M  END
> <s_m_source_file>
AV-unprocessed.smi

> <i_m_source_file_index>
2163

> <i_lp_mmshare_version>
43012

> <i_f3d_flags>
0

> <s_epik_input>
W2NIXTFbY0hdW2NIXVtjSF1jKGMxMiluKGMobjIpW0NIM10pW0NIMl1bQ0BIXShbT0hdKVtDSDJdT2MzW2NIXVtjSF1jKFtDSDJdQyNOKVtjSF1bY0hdMw==

> <s_epik_cmdline>
J2VwaWtfcHl0aG9uJywgJy1waCcsICc3LjAnLCAnLXRuJywgJzgnLCAnLW1hJywgJzIwMCcsICctbWV0YWxfYmluZGluZycsICctaW1hZScsICc8aW5maWxlLm1hZT4nLCAnLW9tYWUnLCAnPG91dGZpbGUubWFlPic=

> <r_lp_tautomer_probability>
1

> <r_epik_Ionization_Penalty>
1.03158

> <r_epik_Ionization_Penalty_Charging>
1.03158

> <r_epik_Ionization_Penalty_Neutral>
2.3994e-06

> <r_epik_State_Penalty>
1.08278

> <r_epik_Charging_Adjusted_Penalty>
2.11436

> <i_epik_Tot_Q>
1

> <i_epik_Tot_abs_Q>
1

> <r_epik_Metal_State_Penalty>
5.07177

> <b_epik_Metal_Only>
0

> <s_lp_Force_Field>
OPLS_2005

> <r_lp_Energy>
21.0912

> <b_lp_Chiralities_Consistent>
1

> <s_lp_Variant>
AV-unprocessed.smi:2163-3

> <Gold.Version>
5.8.1

> <Gold.Id.Protein>
6NUR|6NUR_protein|mol2

> <Gold.PLP.Fitness>
55.2989

> <Gold.PLP.PLP>
-46.7740

> <Gold.PLP.part.hbond>
-3.7607

> <Gold.PLP.part.metal>
0.0000

> <Gold.PLP.part.buried>
-5.9662

> <Gold.PLP.part.nonpolar>
-38.7033

> <Gold.PLP.part.repulsive>
0.0201

> <Gold.PLP.ligand.clash>
0.0000

> <Gold.PLP.ligand.torsion>
0.9684

> <Gold.PLP.Chemscore.Hbond>
3.4451

> <Gold.PLP.Chemscore.CHOScore>
0.0000

> <Gold.PLP.Chemscore.Metal>
0.0000

> <Gold.Chemscore.Hbonds>
donor molecule, donor type, donor heavy atom, donor atom, acceptor molecule, acceptor atom, score
      L1  H     3    44       P1  8028  1.76
      P1  H  6896  6907       L1    13  0.68
      P1  H  6931  6943       L1    15  0.20
      P1  H  6934  6947       L1    15  0.36

> <Gold.PLP.Chemscore.Internal.Correction>
0.1264

> <Gold.Rescore>
     Score         DG    S(hbond)    S(metal)    S(lipo)     H(rot)  DE(clash)    DE(int)     intcor
     17.62     -18.94       1.76        0.00     121.81       2.60       0.29       1.03       ----

> <Gold.Chemscore.Fitness>
17.6249

> <Gold.Chemscore.DG>
-18.9428

> <Gold.Chemscore.ZeroCoef>
-5.4800

> <Gold.Chemscore.Hbond>
1.7598

> <Gold.Chemscore.Metal>
0.0000

> <Gold.Chemscore.Lipo>
121.8099

> <Gold.Chemscore.Internal_Hbond>
0.0000

> <Gold.Chemscore.DEClash>
0.2889

> <Gold.Chemscore.DEInternal>
1.0290

> <Gold.Chemscore.Rot>
2.6041

> <Gold.Chemscore.Internal.Correction>
   9.000000E+99

> <Gold.Chemscore.Hbonds>
donor molecule, donor type, donor heavy atom, donor atom, acceptor molecule, acceptor atom, score
      L1  H     3    44       P1  8028  0.86
      P1  H  6896  6907       L1    13  0.10
      P1  H  6931  6943       L1    15  0.05
      P1  H  6934  6947       L1    15  0.32

> <Gold.Chemscore.Hbond.Weighted>
-5.8776

> <Gold.Chemscore.Metal.Weighted>
-0.0000

> <Gold.Chemscore.Lipo.Weighted>
-14.2518

> <Gold.Chemscore.Internal_Hbond.Weighted>
0.0000

> <Gold.Chemscore.DEClash.Weighted>
0.2889

> <Gold.Chemscore.DEInternal.Weighted>
1.0290

> <Gold.Chemscore.Rot.Weighted>
6.6665

> <Gold.Chemscore.Internal.Correction.Weighted>
   9.000000E+99

> <Gold.Protein.RotatedTorsions>
[ 6907 6896 6895 6894 ] final   -8.98 input  -60.11 | X-H torsion
[ 7974 7965 7964 7962 ] final  -57.87 input  175.53 | X-H torsion
[ 8008 7997 7996 7995 ] final   34.05 input   59.86 | X-H torsion
[ 10167 10162 10161 10158 ] final   84.00 input  -65.29 | X-H torsion
[ 10718 10713 10712 10709 ] final -141.96 input   66.30 | X-H torsion
[ 10763 10752 10751 10750 ] final  115.00 input  -60.55 | X-H torsion
[ 11005 11000 10999 10996 ] final   -6.55 input  -57.11 | X-H torsion

> <Gold.Protein.ActiveResidues>
 VAL166  LYS551  ARG553  GLY616  TRP617  ASP618  TYR619  PRO620  LYS621  CYS622 
 ASP623  PHE694  ASN695  SER759  ASP760  ASP761  ALA762  ILE779  LEU786  VAL792 
 PHE793  MET794  SER795  GLU796  ALA797  LYS798  CYS799  TRP800  GLU811  SER814 

> <Gold.Protein.RotatedAtoms>
  151.4251  135.1002  159.9625 H   0  0  0  0  0  0  0  0  0  0  0  0  # atno 6907 bound_to 6896
  152.4975  133.8671  159.7290 H   0  0  0  0  0  0  0  0  0  0  0  0  # atno 6908 bound_to 6896
  150.9195  133.6839  159.2863 H   0  0  0  0  0  0  0  0  0  0  0  0  # atno 6909 bound_to 6896
  145.8460  140.8385  143.0010 H   0  0  0  0  0  0  0  0  0  0  0  0  # atno 7974 bound_to 7965
  155.1486  140.3273  155.4436 H   0  0  0  0  0  0  0  0  0  0  0  0  # atno 8008 bound_to 7997
  156.2582  140.1981  156.6548 H   0  0  0  0  0  0  0  0  0  0  0  0  # atno 8009 bound_to 7997
  154.6490  140.0561  156.9920 H   0  0  0  0  0  0  0  0  0  0  0  0  # atno 8010 bound_to 7997
  139.9126  144.6263  150.8522 H   0  0  0  0  0  0  0  0  0  0  0  0  # atno 10167 bound_to 10162
  156.3402  130.7633  151.1768 H   0  0  0  0  0  0  0  0  0  0  0  0  # atno 10718 bound_to 10713
  153.5156  135.3608  155.2607 H   0  0  0  0  0  0  0  0  0  0  0  0  # atno 10763 bound_to 10752
  154.8739  135.4033  154.3319 H   0  0  0  0  0  0  0  0  0  0  0  0  # atno 10764 bound_to 10752
  153.3980  135.7074  153.6514 H   0  0  0  0  0  0  0  0  0  0  0  0  # atno 10765 bound_to 10752
  140.7032  133.8972  155.8697 H   0  0  0  0  0  0  0  0  0  0  0  0  # atno 11005 bound_to 11000
  144.6731  140.0883  143.7466 LP  0  0  0  0  0  0  0  0  0  0  0  0  # atno 17320 bound_to 7965
  145.9411  139.2670  143.1268 LP  0  0  0  0  0  0  0  0  0  0  0  0  # atno 17321 bound_to 7965
  140.7682  143.3355  151.2318 LP  0  0  0  0  0  0  0  0  0  0  0  0  # atno 17342 bound_to 10162
  139.6930  143.9660  152.2868 LP  0  0  0  0  0  0  0  0  0  0  0  0  # atno 17343 bound_to 10162
  157.7445  131.0456  150.4854 LP  0  0  0  0  0  0  0  0  0  0  0  0  # atno 17370 bound_to 10713
  156.5033  130.4122  149.6341 LP  0  0  0  0  0  0  0  0  0  0  0  0  # atno 17371 bound_to 10713
  141.0147  134.0972  157.4185 LP  0  0  0  0  0  0  0  0  0  0  0  0  # atno 17394 bound_to 11000
  139.8891  135.0103  156.6660 LP  0  0  0  0  0  0  0  0  0  0  0  0  # atno 17395 bound_to 11000

$$$$
