AV-unprocessed.smi:3299|AV-procd|sdf|12648|dock7
  -GOLD-   2272018583D 1   1.00000     0.00000
 Structure written by MMmdl.
 34 35  0  0  0  0  0  0  0  0  1 V2000
  152.8352  142.6047  161.9848 C   0  0  0  0  0  0  0  0  0  0  0  0
  152.2290  143.4089  160.8782 C   0  0  0  0  0  0  0  0  0  0  0  0
  152.2222  144.7772  160.7578 C   0  0  0  0  0  0  0  0  0  0  0  0
  151.4003  145.3017  159.3123 S   0  0  0  0  0  0  0  0  0  0  0  0
  151.0950  143.6165  158.9211 C   0  0  0  0  0  0  0  0  0  0  0  0
  150.3844  143.2328  157.7536 N   0  0  0  0  0  0  0  0  0  0  0  0
  150.2245  141.9976  157.2470 C   0  0  0  0  0  0  0  0  0  0  0  0
  150.7223  140.9700  157.7076 O   0  0  0  0  0  0  0  0  0  0  0  0
  149.4450  142.0192  156.1561 N   0  0  0  0  0  0  0  0  0  0  0  0
  149.0545  140.8515  155.3692 C   0  0  2  0  0  0  0  0  0  0  0  0
  150.2733  139.9265  155.1820 C   0  0  0  0  0  0  0  0  0  0  0  0
  149.9204  138.5443  154.6076 C   0  0  0  0  0  0  0  0  0  0  0  0
  149.7462  138.6382  153.2105 O   0  0  0  0  0  0  0  0  0  0  0  0
  148.4479  141.2194  154.0249 C   0  0  0  0  0  0  0  0  0  0  0  0
  147.1442  141.9766  153.9294 C   0  0  0  0  0  0  0  0  0  0  0  0
  147.2072  140.5245  153.5156 C   0  0  0  0  0  0  0  0  0  0  0  0
  151.5837  142.7576  159.8231 N   0  0  0  0  0  0  0  0  0  0  0  0
  153.3066  143.2447  162.7309 H   0  0  0  0  0  0  0  0  0  0  0  0
  153.5976  141.9243  161.6047 H   0  0  0  0  0  0  0  0  0  0  0  0
  152.0804  142.0051  162.4943 H   0  0  0  0  0  0  0  0  0  0  0  0
  152.6484  145.5065  161.4310 H   0  0  0  0  0  0  0  0  0  0  0  0
  149.9322  143.9850  157.2550 H   0  0  0  0  0  0  0  0  0  0  0  0
  149.0815  142.9102  155.8512 H   0  0  0  0  0  0  0  0  0  0  0  0
  148.3036  140.2903  155.9291 H   0  0  0  0  0  0  0  0  0  0  0  0
  150.9870  140.4096  154.5129 H   0  0  0  0  0  0  0  0  0  0  0  0
  150.7897  139.8053  156.1355 H   0  0  0  0  0  0  0  0  0  0  0  0
  150.7073  137.8184  154.8127 H   0  0  0  0  0  0  0  0  0  0  0  0
  149.0008  138.1659  155.0551 H   0  0  0  0  0  0  0  0  0  0  0  0
  149.2472  137.8904  152.9187 H   0  0  0  0  0  0  0  0  0  0  0  0
  149.1908  141.4582  153.2660 H   0  0  0  0  0  0  0  0  0  0  0  0
  146.6208  142.2105  154.8542 H   0  0  0  0  0  0  0  0  0  0  0  0
  147.0557  142.7229  153.1425 H   0  0  0  0  0  0  0  0  0  0  0  0
  147.1584  140.3014  152.4518 H   0  0  0  0  0  0  0  0  0  0  0  0
  146.7282  139.7967  154.1680 H   0  0  0  0  0  0  0  0  0  0  0  0
  1  2  1  0  0  0  0
  1 18  1  0  0  0  0
  1 19  1  0  0  0  0
  1 20  1  0  0  0  0
  2 17  1  0  0  0  0
  2  3  2  0  0  0  0
  3  4  1  0  0  0  0
  3 21  1  0  0  0  0
  4  5  1  0  0  0  0
  5  6  1  0  0  0  0
  5 17  2  0  0  0  0
  6  7  1  0  0  0  0
  6 22  1  0  0  0  0
  7  8  2  0  0  0  0
  7  9  1  0  0  0  0
  9 10  1  0  0  0  0
  9 23  1  0  0  0  0
 10 11  1  0  0  0  0
 10 14  1  0  0  0  0
 10 24  1  0  0  0  0
 11 12  1  0  0  0  0
 11 25  1  0  0  0  0
 11 26  1  0  0  0  0
 12 13  1  0  0  0  0
 12 27  1  0  0  0  0
 12 28  1  0  0  0  0
 13 29  1  0  0  0  0
 14 16  1  0  0  0  0
 14 15  1  0  0  0  0
 14 30  1  0  0  0  0
 15 16  1  0  0  0  0
 15 31  1  0  0  0  0
 15 32  1  0  0  0  0
 16 33  1  0  0  0  0
 16 34  1  0  0  0  0
M  END
> <s_m_source_file>
AV-unprocessed.smi

> <i_m_source_file_index>
3299

> <i_lp_mmshare_version>
43012

> <i_f3d_flags>
0

> <s_epik_input>
W0NIM11jMVtjSF1zYyhuMSlbTkhdQyg9TylbTkhdW0NASF0oW0NIMl1bQ0gyXVtPSF0pW0NIXTJbQ0gyXVtDSDJdMg==

> <s_epik_cmdline>
J2VwaWtfcHl0aG9uJywgJy1waCcsICc3LjAnLCAnLXRuJywgJzgnLCAnLW1hJywgJzIwMCcsICctbWV0YWxfYmluZGluZycsICctaW1hZScsICc8aW5maWxlLm1hZT4nLCAnLW9tYWUnLCAnPG91dGZpbGUubWFlPic=

> <r_lp_tautomer_probability>
0.999

> <r_epik_Ionization_Penalty>
0.000568872

> <r_epik_Ionization_Penalty_Charging>
0

> <r_epik_Ionization_Penalty_Neutral>
0.000568872

> <r_epik_State_Penalty>
0.000177984

> <r_epik_Charging_Adjusted_Penalty>
0.000177984

> <i_epik_Tot_Q>
0

> <i_epik_Tot_abs_Q>
0

> <r_epik_Metal_State_Penalty>
-0

> <b_epik_Metal_Only>
0

> <s_lp_Force_Field>
OPLS_2005

> <r_lp_Energy>
12.8181

> <b_lp_Chiralities_Consistent>
1

> <s_lp_Variant>
AV-unprocessed.smi:3299-1

> <Gold.Version>
5.8.1

> <Gold.Id.Protein>
6NUR|6NUR_protein|mol2

> <Gold.PLP.Fitness>
49.5448

> <Gold.PLP.PLP>
-41.3796

> <Gold.PLP.part.hbond>
-3.9503

> <Gold.PLP.part.metal>
0.0000

> <Gold.PLP.part.buried>
-6.1217

> <Gold.PLP.part.nonpolar>
-30.7717

> <Gold.PLP.part.repulsive>
0.1274

> <Gold.PLP.ligand.clash>
0.0000

> <Gold.PLP.ligand.torsion>
0.9675

> <Gold.PLP.Chemscore.Hbond>
3.0000

> <Gold.PLP.Chemscore.CHOScore>
0.0000

> <Gold.PLP.Chemscore.Metal>
0.0000

> <Gold.Chemscore.Hbonds>
donor molecule, donor type, donor heavy atom, donor atom, acceptor molecule, acceptor atom, score
      L1  H     6    22       P1  8028  1.00
      L1  H     9    23       P1  8028  1.00
      L1  H    13    29       P1  7948  1.00

> <Gold.PLP.Chemscore.Internal.Correction>
1.1002

> <Gold.Rescore>
     Score         DG    S(hbond)    S(metal)    S(lipo)     H(rot)  DE(clash)    DE(int)     intcor
     15.70     -19.18       2.81        0.00      89.27       2.39       0.00       3.47       ----

> <Gold.Chemscore.Fitness>
15.7026

> <Gold.Chemscore.DG>
-19.1756

> <Gold.Chemscore.ZeroCoef>
-5.4800

> <Gold.Chemscore.Hbond>
2.8067

> <Gold.Chemscore.Metal>
0.0000

> <Gold.Chemscore.Lipo>
89.2664

> <Gold.Chemscore.Internal_Hbond>
0.0000

> <Gold.Chemscore.DEClash>
0.0004

> <Gold.Chemscore.DEInternal>
3.4726

> <Gold.Chemscore.Rot>
2.3917

> <Gold.Chemscore.Internal.Correction>
   9.000000E+99

> <Gold.Chemscore.Hbonds>
donor molecule, donor type, donor heavy atom, donor atom, acceptor molecule, acceptor atom, score
      L1  H     6    22       P1  8028  0.71
      L1  H     9    23       P1  8028  1.00
      L1  H    13    29       P1  7948  0.93

> <Gold.Chemscore.Hbond.Weighted>
-9.3743

> <Gold.Chemscore.Metal.Weighted>
-0.0000

> <Gold.Chemscore.Lipo.Weighted>
-10.4442

> <Gold.Chemscore.Internal_Hbond.Weighted>
0.0000

> <Gold.Chemscore.DEClash.Weighted>
0.0004

> <Gold.Chemscore.DEInternal.Weighted>
3.4726

> <Gold.Chemscore.Rot.Weighted>
6.1228

> <Gold.Chemscore.Internal.Correction.Weighted>
   9.000000E+99

> <Gold.Protein.RotatedTorsions>
[ 6907 6896 6895 6894 ] final  -59.71 input  -60.11 | X-H torsion
[ 7974 7965 7964 7962 ] final   42.10 input  175.53 | X-H torsion
[ 8008 7997 7996 7995 ] final  -67.09 input   59.86 | X-H torsion
[ 10167 10162 10161 10158 ] final  151.47 input  -65.29 | X-H torsion
[ 10718 10713 10712 10709 ] final  145.54 input   66.30 | X-H torsion
[ 10763 10752 10751 10750 ] final -117.26 input  -60.55 | X-H torsion
[ 11005 11000 10999 10996 ] final  112.10 input  -57.11 | X-H torsion

> <Gold.Protein.ActiveResidues>
 VAL166  LYS551  ARG553  GLY616  TRP617  ASP618  TYR619  PRO620  LYS621  CYS622 
 ASP623  PHE694  ASN695  SER759  ASP760  ASP761  ALA762  ILE779  LEU786  VAL792 
 PHE793  MET794  SER795  GLU796  ALA797  LYS798  CYS799  TRP800  GLU811  SER814 

> <Gold.Protein.RotatedAtoms>
  150.7910  134.6933  159.6508 H   0  0  0  0  0  0  0  0  0  0  0  0  # atno 6907 bound_to 6896
  152.4015  134.6275  160.0076 H   0  0  0  0  0  0  0  0  0  0  0  0  # atno 6908 bound_to 6896
  151.6545  133.3282  159.3195 H   0  0  0  0  0  0  0  0  0  0  0  0  # atno 6909 bound_to 6896
  146.0769  139.5339  142.9562 H   0  0  0  0  0  0  0  0  0  0  0  0  # atno 7974 bound_to 7965
  154.4777  140.0899  156.7302 H   0  0  0  0  0  0  0  0  0  0  0  0  # atno 8008 bound_to 7997
  155.4552  140.3459  155.4287 H   0  0  0  0  0  0  0  0  0  0  0  0  # atno 8009 bound_to 7997
  156.1143  140.1456  156.9283 H   0  0  0  0  0  0  0  0  0  0  0  0  # atno 8010 bound_to 7997
  139.4840  144.5438  151.7519 H   0  0  0  0  0  0  0  0  0  0  0  0  # atno 10167 bound_to 10162
  157.3441  131.0940  151.1057 H   0  0  0  0  0  0  0  0  0  0  0  0  # atno 10718 bound_to 10713
  154.8549  135.4316  154.1952 H   0  0  0  0  0  0  0  0  0  0  0  0  # atno 10763 bound_to 10752
  153.3011  135.6969  153.7208 H   0  0  0  0  0  0  0  0  0  0  0  0  # atno 10764 bound_to 10752
  153.6338  135.3480  155.3024 H   0  0  0  0  0  0  0  0  0  0  0  0  # atno 10765 bound_to 10752
  139.8919  134.9522  156.6533 H   0  0  0  0  0  0  0  0  0  0  0  0  # atno 11005 bound_to 11000
  145.6290  141.0308  143.1873 LP  0  0  0  0  0  0  0  0  0  0  0  0  # atno 17320 bound_to 7965
  144.7267  139.7853  143.7362 LP  0  0  0  0  0  0  0  0  0  0  0  0  # atno 17321 bound_to 7965
  140.4982  144.1209  150.5965 LP  0  0  0  0  0  0  0  0  0  0  0  0  # atno 17342 bound_to 10162
  140.4093  143.2665  151.9852 LP  0  0  0  0  0  0  0  0  0  0  0  0  # atno 17343 bound_to 10162
  157.2258  130.6502  149.5829 LP  0  0  0  0  0  0  0  0  0  0  0  0  # atno 17370 bound_to 10713
  155.9712  130.4614  150.6110 LP  0  0  0  0  0  0  0  0  0  0  0  0  # atno 17371 bound_to 10713
  140.7503  133.8902  155.8342 LP  0  0  0  0  0  0  0  0  0  0  0  0  # atno 17394 bound_to 11000
  141.0006  134.1156  157.4321 LP  0  0  0  0  0  0  0  0  0  0  0  0  # atno 17395 bound_to 11000

$$$$
