AV-unprocessed.smi:933|AV-procd|sdf|4202|dock4
  -GOLD-   22720 2103D 1   1.00000     0.00000
 Structure written by MMmdl.
 42 43  0  0  0  0  0  0  0  0  1 V2000
  144.2627  132.7677  147.5957 C   0  0  0  0  0  0  0  0  0  0  0  0
  143.9284  132.4726  149.0617 C   0  0  0  0  0  0  0  0  0  0  0  0
  144.7328  133.2985  150.0086 C   0  0  0  0  0  0  0  0  0  0  0  0
  144.4573  134.5749  150.2898 N   0  0  0  0  0  0  0  0  0  0  0  0
  145.3820  135.1440  151.1709 C   0  0  0  0  0  0  0  0  0  0  0  0
  145.2297  136.5769  151.5917 C   0  0  0  0  0  0  0  0  0  0  0  0
  145.7942  136.8612  152.9938 C   0  0  0  0  0  0  0  0  0  0  0  0
  146.8149  137.9081  152.9609 N   0  0  0  0  0  0  0  0  0  0  0  0
  146.7140  139.1578  153.4439 C   0  0  0  0  0  0  0  0  0  0  0  0
  145.6863  139.5645  153.9822 O   0  0  0  0  0  0  0  0  0  0  0  0
  147.8154  139.9096  153.2745 N   0  0  0  0  0  0  0  0  0  0  0  0
  147.9808  141.2986  153.7039 C   0  0  1  0  0  0  0  0  0  0  0  0
  146.6714  142.0812  153.4715 C   0  0  0  0  0  0  0  0  0  0  0  0
  146.2252  142.6117  154.8384 C   0  0  0  0  0  0  0  0  0  0  0  0
  146.9278  141.7209  155.8589 C   0  0  0  0  0  0  0  0  0  0  0  0
  148.2838  141.4270  155.2158 C   0  0  1  0  0  0  0  0  0  0  0  0
  149.0433  140.2640  155.8778 C   0  0  0  0  0  0  0  0  0  0  0  0
  146.3710  134.2726  151.5549 C   0  0  0  0  0  0  0  0  0  0  0  0
  146.1835  132.7087  150.8114 S   0  0  0  0  0  0  0  0  0  0  0  0
  143.6616  132.1501  146.9285 H   0  0  0  0  0  0  0  0  0  0  0  0
  145.3128  132.5642  147.3834 H   0  0  0  0  0  0  0  0  0  0  0  0
  144.0675  133.8121  147.3506 H   0  0  0  0  0  0  0  0  0  0  0  0
  142.8692  132.6547  149.2460 H   0  0  0  0  0  0  0  0  0  0  0  0
  144.1071  131.4192  149.2791 H   0  0  0  0  0  0  0  0  0  0  0  0
  145.7215  137.2299  150.8699 H   0  0  0  0  0  0  0  0  0  0  0  0
  144.1759  136.8572  151.5699 H   0  0  0  0  0  0  0  0  0  0  0  0
  144.9820  137.1719  153.6534 H   0  0  0  0  0  0  0  0  0  0  0  0
  146.2180  135.9480  153.4138 H   0  0  0  0  0  0  0  0  0  0  0  0
  147.6807  137.6679  152.4997 H   0  0  0  0  0  0  0  0  0  0  0  0
  148.6062  139.4841  152.8134 H   0  0  0  0  0  0  0  0  0  0  0  0
  148.7855  141.7676  153.1346 H   0  0  0  0  0  0  0  0  0  0  0  0
  146.8135  142.8983  152.7632 H   0  0  0  0  0  0  0  0  0  0  0  0
  145.8946  141.4363  153.0568 H   0  0  0  0  0  0  0  0  0  0  0  0
  146.5661  143.6408  154.9597 H   0  0  0  0  0  0  0  0  0  0  0  0
  145.1413  142.6073  154.9557 H   0  0  0  0  0  0  0  0  0  0  0  0
  147.0210  142.1989  156.8346 H   0  0  0  0  0  0  0  0  0  0  0  0
  146.3652  140.7956  155.9912 H   0  0  0  0  0  0  0  0  0  0  0  0
  148.8935  142.3235  155.3403 H   0  0  0  0  0  0  0  0  0  0  0  0
  148.4684  139.3377  155.8536 H   0  0  0  0  0  0  0  0  0  0  0  0
  149.2576  140.4880  156.9229 H   0  0  0  0  0  0  0  0  0  0  0  0
  149.9952  140.0838  155.3780 H   0  0  0  0  0  0  0  0  0  0  0  0
  147.2010  134.4581  152.2205 H   0  0  0  0  0  0  0  0  0  0  0  0
  1  2  1  0  0  0  0
  1 20  1  0  0  0  0
  1 21  1  0  0  0  0
  1 22  1  0  0  0  0
  2  3  1  0  0  0  0
  2 23  1  0  0  0  0
  2 24  1  0  0  0  0
  3 19  1  0  0  0  0
  3  4  2  0  0  0  0
  4  5  1  0  0  0  0
  5  6  1  0  0  0  0
  5 18  2  0  0  0  0
  6  7  1  0  0  0  0
  6 25  1  0  0  0  0
  6 26  1  0  0  0  0
  7  8  1  0  0  0  0
  7 27  1  0  0  0  0
  7 28  1  0  0  0  0
  8  9  1  0  0  0  0
  8 29  1  0  0  0  0
  9 10  2  0  0  0  0
  9 11  1  0  0  0  0
 11 12  1  0  0  0  0
 11 30  1  0  0  0  0
 12 16  1  0  0  0  0
 12 13  1  0  0  0  0
 12 31  1  0  0  0  0
 13 14  1  0  0  0  0
 13 32  1  0  0  0  0
 13 33  1  0  0  0  0
 14 15  1  0  0  0  0
 14 34  1  0  0  0  0
 14 35  1  0  0  0  0
 15 16  1  0  0  0  0
 15 36  1  0  0  0  0
 15 37  1  0  0  0  0
 16 17  1  0  0  0  0
 16 38  1  0  0  0  0
 17 39  1  0  0  0  0
 17 40  1  0  0  0  0
 17 41  1  0  0  0  0
 18 19  1  0  0  0  0
 18 42  1  0  0  0  0
M  END
> <s_m_source_file>
AV-unprocessed.smi

> <i_m_source_file_index>
933

> <i_lp_mmshare_version>
43012

> <i_f3d_flags>
0

> <s_epik_input>
W0NIM11bQ0gyXWMxbmMoW2NIXXMxKVtDSDJdW0NIMl1bTkhdQyg9TylbTkhdW0NAQEhdMltDSDJdW0NIMl1bQ0gyXVtDQEhdMltDSDNd

> <s_epik_cmdline>
J2VwaWtfcHl0aG9uJywgJy1waCcsICc3LjAnLCAnLXRuJywgJzgnLCAnLW1hJywgJzIwMCcsICctbWV0YWxfYmluZGluZycsICctaW1hZScsICc8aW5maWxlLm1hZT4nLCAnLW9tYWUnLCAnPG91dGZpbGUubWFlPic=

> <r_epik_Ionization_Penalty>
0.00203408

> <r_epik_Ionization_Penalty_Charging>
0

> <r_epik_Ionization_Penalty_Neutral>
0.00203408

> <r_epik_State_Penalty>
0.0013452

> <r_epik_Charging_Adjusted_Penalty>
0.0013452

> <i_epik_Tot_Q>
0

> <i_epik_Tot_abs_Q>
0

> <r_epik_Metal_State_Penalty>
-0

> <b_epik_Metal_Only>
0

> <s_lp_Force_Field>
OPLS_2005

> <r_lp_Energy>
20.9711

> <b_lp_Chiralities_Consistent>
1

> <s_lp_Variant>
AV-unprocessed.smi:933-2

> <Gold.Version>
5.8.1

> <Gold.Id.Protein>
6NUR|6NUR_protein|mol2

> <Gold.PLP.Fitness>
41.5310

> <Gold.PLP.PLP>
-36.1162

> <Gold.PLP.part.hbond>
-2.0000

> <Gold.PLP.part.metal>
0.0000

> <Gold.PLP.part.buried>
-3.6267

> <Gold.PLP.part.nonpolar>
-31.3294

> <Gold.PLP.part.repulsive>
0.3953

> <Gold.PLP.ligand.clash>
0.0000

> <Gold.PLP.ligand.torsion>
1.3625

> <Gold.PLP.Chemscore.Hbond>
1.6960

> <Gold.PLP.Chemscore.CHOScore>
1.0000

> <Gold.PLP.Chemscore.Metal>
0.0000

> <Gold.Chemscore.Hbonds>
donor molecule, donor type, donor heavy atom, donor atom, acceptor molecule, acceptor atom, score
      L1  H     8    29       P1  7948  0.99
      L1  H    11    30       P1  7957  0.61
      L1  C    18    42       P1  7948  0.88

> <Gold.PLP.Chemscore.Internal.Correction>
0.0519

> <Gold.Rescore>
     Score         DG    S(hbond)    S(metal)    S(lipo)     H(rot)  DE(clash)    DE(int)     intcor
     13.90     -17.61       1.62        0.00      91.33       1.55       0.02       3.69       ----

> <Gold.Chemscore.Fitness>
13.8964

> <Gold.Chemscore.DG>
-17.6065

> <Gold.Chemscore.ZeroCoef>
-5.4800

> <Gold.Chemscore.Hbond>
1.6180

> <Gold.Chemscore.Metal>
0.0000

> <Gold.Chemscore.Lipo>
91.3319

> <Gold.Chemscore.Internal_Hbond>
0.0000

> <Gold.Chemscore.DEClash>
0.0220

> <Gold.Chemscore.DEInternal>
3.6881

> <Gold.Chemscore.Rot>
1.5482

> <Gold.Chemscore.Internal.Correction>
   9.000000E+99

> <Gold.Chemscore.Hbonds>
donor molecule, donor type, donor heavy atom, donor atom, acceptor molecule, acceptor atom, score
      L1  H     8    29       P1  7948  0.89
      L1  H    11    30       P1  7957  0.59

> <Gold.Chemscore.Hbond.Weighted>
-5.4042

> <Gold.Chemscore.Metal.Weighted>
-0.0000

> <Gold.Chemscore.Lipo.Weighted>
-10.6858

> <Gold.Chemscore.Internal_Hbond.Weighted>
0.0000

> <Gold.Chemscore.DEClash.Weighted>
0.0220

> <Gold.Chemscore.DEInternal.Weighted>
3.6881

> <Gold.Chemscore.Rot.Weighted>
3.9635

> <Gold.Chemscore.Internal.Correction.Weighted>
   9.000000E+99

> <Gold.Protein.RotatedTorsions>
[ 6907 6896 6895 6894 ] final  115.04 input  -60.11 | X-H torsion
[ 7974 7965 7964 7962 ] final  -18.04 input  175.53 | X-H torsion
[ 8008 7997 7996 7995 ] final  -46.03 input   59.86 | X-H torsion
[ 10167 10162 10161 10158 ] final  -58.36 input  -65.29 | X-H torsion
[ 10718 10713 10712 10709 ] final  -99.66 input   66.30 | X-H torsion
[ 10763 10752 10751 10750 ] final  110.95 input  -60.55 | X-H torsion
[ 11005 11000 10999 10996 ] final -100.67 input  -57.11 | X-H torsion

> <Gold.Protein.ActiveResidues>
 VAL166  LYS551  ARG553  GLY616  TRP617  ASP618  TYR619  PRO620  LYS621  CYS622 
 ASP623  PHE694  ASN695  SER759  ASP760  ASP761  ALA762  ILE779  LEU786  VAL792 
 PHE793  MET794  SER795  GLU796  ALA797  LYS798  CYS799  TRP800  GLU811  SER814 

> <Gold.Protein.RotatedAtoms>
  152.4766  133.8153  159.7024 H   0  0  0  0  0  0  0  0  0  0  0  0  # atno 6907 bound_to 6896
  150.8787  133.7393  159.2945 H   0  0  0  0  0  0  0  0  0  0  0  0  # atno 6908 bound_to 6896
  151.4904  135.1060  159.9854 H   0  0  0  0  0  0  0  0  0  0  0  0  # atno 6909 bound_to 6896
  146.1912  140.3865  142.8457 H   0  0  0  0  0  0  0  0  0  0  0  0  # atno 7974 bound_to 7965
  154.4004  140.1382  156.3944 H   0  0  0  0  0  0  0  0  0  0  0  0  # atno 8008 bound_to 7997
  155.7884  140.3479  155.5315 H   0  0  0  0  0  0  0  0  0  0  0  0  # atno 8009 bound_to 7997
  155.8604  140.0955  157.1607 H   0  0  0  0  0  0  0  0  0  0  0  0  # atno 8010 bound_to 7997
  140.6202  143.2417  151.5500 H   0  0  0  0  0  0  0  0  0  0  0  0  # atno 10167 bound_to 10162
  156.0140  130.5293  150.6703 H   0  0  0  0  0  0  0  0  0  0  0  0  # atno 10718 bound_to 10713
  153.4563  135.3732  155.2313 H   0  0  0  0  0  0  0  0  0  0  0  0  # atno 10763 bound_to 10752
  154.8757  135.3898  154.3978 H   0  0  0  0  0  0  0  0  0  0  0  0  # atno 10764 bound_to 10752
  153.4545  135.7086  153.6152 H   0  0  0  0  0  0  0  0  0  0  0  0  # atno 10765 bound_to 10752
  141.1262  133.8417  157.1132 H   0  0  0  0  0  0  0  0  0  0  0  0  # atno 11005 bound_to 11000
  144.8490  140.6972  143.6181 LP  0  0  0  0  0  0  0  0  0  0  0  0  # atno 17320 bound_to 7965
  145.3788  139.1641  143.4292 LP  0  0  0  0  0  0  0  0  0  0  0  0  # atno 17321 bound_to 7965
  139.5432  144.2591  152.1391 LP  0  0  0  0  0  0  0  0  0  0  0  0  # atno 17342 bound_to 10162
  140.1810  144.4845  150.6528 LP  0  0  0  0  0  0  0  0  0  0  0  0  # atno 17343 bound_to 10162
  157.4427  131.0863  151.0927 LP  0  0  0  0  0  0  0  0  0  0  0  0  # atno 17370 bound_to 10713
  157.1466  130.6166  149.5570 LP  0  0  0  0  0  0  0  0  0  0  0  0  # atno 17371 bound_to 10713
  140.0262  134.9923  157.0691 LP  0  0  0  0  0  0  0  0  0  0  0  0  # atno 17394 bound_to 11000
  140.4358  134.1732  155.7170 LP  0  0  0  0  0  0  0  0  0  0  0  0  # atno 17395 bound_to 11000

$$$$
