AV-unprocessed.smi:2124|AV-procd|sdf|8668|dock7
  -GOLD-   2272011423D 1   1.00000     0.00000
 Structure written by MMmdl.
 46 48  0  0  0  0  0  0  0  0  2 V2000
  143.5885  138.8323  156.3229 C   0  0  0  0  0  0  0  0  0  0  0  0
  144.7957  139.5470  155.7540 C   0  0  0  0  0  0  0  0  0  0  0  0
  145.3570  139.0843  154.7026 N   0  0  0  0  0  0  0  0  0  0  0  0
  146.4774  139.7438  154.1696 C   0  0  0  0  0  0  0  0  0  0  0  0
  147.0798  139.1246  152.9206 C   0  0  0  0  0  0  0  0  0  0  0  0
  146.9775  140.8701  154.7538 C   0  0  0  0  0  0  0  0  0  0  0  0
  148.1943  141.6231  154.2146 C   0  0  0  0  0  0  0  0  0  0  0  0
  149.5260  141.3585  154.9220 C   0  0  0  0  0  0  0  0  0  0  0  0
  150.1838  140.3480  154.6713 O   0  0  0  0  0  0  0  0  0  0  0  0
  149.9082  142.2829  155.8163 N   0  0  0  0  0  0  0  0  0  0  0  0
  151.1345  142.2384  156.6101 C   0  0  2  0  0  0  0  0  0  0  0  0
  151.3232  140.8149  157.1659 C   0  0  0  0  0  0  0  0  0  0  0  0
  151.0782  143.3029  157.7334 C   0  0  1  0  0  0  0  0  0  0  0  0
  150.6723  142.7248  159.1116 C   0  0  0  0  0  0  0  0  0  0  0  0
  151.8078  143.1887  160.0409 C   0  0  2  0  0  0  0  0  0  0  0  0
  151.7204  144.7123  160.2395 C   0  0  0  0  0  0  0  0  0  0  0  0
  152.1823  145.2566  158.8751 C   0  0  0  0  0  0  0  0  0  0  0  0
  152.4384  143.9713  158.0642 C   0  0  1  0  0  0  0  0  0  0  0  0
  153.0222  143.0531  159.1326 C   0  0  0  0  0  0  0  0  0  0  0  0
  146.2978  141.3747  155.9601 C   0  0  0  0  0  0  0  0  0  0  0  0
  146.6981  142.3967  156.5164 O   0  0  0  0  0  0  0  0  0  0  0  0
  145.2229  140.6733  156.4210 N   0  5  0  0  0  0  0  0  0  0  0  0
  143.2092  138.0858  155.6238 H   0  0  0  0  0  0  0  0  0  0  0  0
  142.7869  139.5424  156.5287 H   0  0  0  0  0  0  0  0  0  0  0  0
  143.8531  138.3287  157.2529 H   0  0  0  0  0  0  0  0  0  0  0  0
  148.0832  138.7512  153.1266 H   0  0  0  0  0  0  0  0  0  0  0  0
  147.1394  139.8586  152.1169 H   0  0  0  0  0  0  0  0  0  0  0  0
  146.4764  138.2887  152.5646 H   0  0  0  0  0  0  0  0  0  0  0  0
  148.3221  141.4287  153.1493 H   0  0  0  0  0  0  0  0  0  0  0  0
  147.9915  142.6925  154.2776 H   0  0  0  0  0  0  0  0  0  0  0  0
  149.3064  143.0819  155.9540 H   0  0  0  0  0  0  0  0  0  0  0  0
  151.9814  142.4688  155.9613 H   0  0  0  0  0  0  0  0  0  0  0  0
  152.2474  140.7240  157.7357 H   0  0  0  0  0  0  0  0  0  0  0  0
  151.3689  140.0803  156.3612 H   0  0  0  0  0  0  0  0  0  0  0  0
  150.4998  140.5344  157.8236 H   0  0  0  0  0  0  0  0  0  0  0  0
  150.3644  144.0714  157.4321 H   0  0  0  0  0  0  0  0  0  0  0  0
  149.6951  143.0817  159.4389 H   0  0  0  0  0  0  0  0  0  0  0  0
  150.6361  141.6348  159.0951 H   0  0  0  0  0  0  0  0  0  0  0  0
  151.8656  142.6276  160.9741 H   0  0  0  0  0  0  0  0  0  0  0  0
  150.7122  145.0372  160.4989 H   0  0  0  0  0  0  0  0  0  0  0  0
  152.3938  145.0418  161.0318 H   0  0  0  0  0  0  0  0  0  0  0  0
  151.4387  145.9047  158.4100 H   0  0  0  0  0  0  0  0  0  0  0  0
  153.1018  145.8326  158.9862 H   0  0  0  0  0  0  0  0  0  0  0  0
  153.0874  144.1384  157.2044 H   0  0  0  0  0  0  0  0  0  0  0  0
  153.9413  143.4375  159.5784 H   0  0  0  0  0  0  0  0  0  0  0  0
  153.1946  142.0331  158.7856 H   0  0  0  0  0  0  0  0  0  0  0  0
  1  2  1  0  0  0  0
  1 23  1  0  0  0  0
  1 24  1  0  0  0  0
  1 25  1  0  0  0  0
  2 22  1  0  0  0  0
  2  3  2  0  0  0  0
  3  4  1  0  0  0  0
  4  5  1  0  0  0  0
  4  6  2  0  0  0  0
  5 26  1  0  0  0  0
  5 27  1  0  0  0  0
  5 28  1  0  0  0  0
  6  7  1  0  0  0  0
  6 20  1  0  0  0  0
  7  8  1  0  0  0  0
  7 29  1  0  0  0  0
  7 30  1  0  0  0  0
  8  9  2  0  0  0  0
  8 10  1  0  0  0  0
 10 11  1  0  0  0  0
 10 31  1  0  0  0  0
 11 12  1  0  0  0  0
 11 13  1  0  0  0  0
 11 32  1  0  0  0  0
 12 33  1  0  0  0  0
 12 34  1  0  0  0  0
 12 35  1  0  0  0  0
 13 18  1  0  0  0  0
 13 14  1  0  0  0  0
 13 36  1  0  0  0  0
 14 15  1  0  0  0  0
 14 37  1  0  0  0  0
 14 38  1  0  0  0  0
 15 19  1  0  0  0  0
 15 16  1  0  0  0  0
 15 39  1  0  0  0  0
 16 17  1  0  0  0  0
 16 40  1  0  0  0  0
 16 41  1  0  0  0  0
 17 18  1  0  0  0  0
 17 42  1  0  0  0  0
 17 43  1  0  0  0  0
 18 19  1  0  0  0  0
 18 44  1  0  0  0  0
 19 45  1  0  0  0  0
 19 46  1  0  0  0  0
 20 21  2  0  0  0  0
 20 22  1  0  0  0  0
M  CHG  1  22  -1
M  END
> <s_m_source_file>
AV-unprocessed.smi

> <i_m_source_file_index>
2124

> <i_lp_mmshare_version>
43012

> <i_f3d_flags>
0

> <s_epik_input>
W0NIM11jMW5jKFtDSDNdKWMoYyg9TylbbkhdMSlbQ0gyXUMoPU8pW05IXVtDQEhdKFtDSDNdKVtDQEhdKFtDSDJdW0NASF0yMylbQ0BIXShbQ0gyXTMpW0NIMl1bQ0gyXTI=

> <s_epik_cmdline>
J2VwaWtfcHl0aG9uJywgJy1waCcsICc3LjAnLCAnLXRuJywgJzgnLCAnLW1hJywgJzIwMCcsICctbWV0YWxfYmluZGluZycsICctaW1hZScsICc8aW5maWxlLm1hZT4nLCAnLW9tYWUnLCAnPG91dGZpbGUubWFlPic=

> <r_lp_tautomer_probability>
0.839158

> <r_epik_Ionization_Penalty>
6.63797

> <r_epik_Ionization_Penalty_Charging>
7.48558e-08

> <r_epik_Ionization_Penalty_Neutral>
6.63797

> <r_epik_State_Penalty>
4.49496

> <r_epik_Charging_Adjusted_Penalty>
4.49496

> <i_epik_Tot_Q>
-1

> <i_epik_Tot_abs_Q>
1

> <r_epik_Metal_State_Penalty>
0.841241

> <b_epik_Metal_Only>
1

> <s_lp_Force_Field>
OPLS_2005

> <r_lp_Energy>
55.6811

> <b_lp_Chiralities_Consistent>
1

> <s_lp_Variant>
AV-unprocessed.smi:2124-19

> <Gold.Version>
5.8.1

> <Gold.Id.Protein>
6NUR|6NUR_protein|mol2

> <Gold.PLP.Fitness>
44.0627

> <Gold.PLP.PLP>
-41.5211

> <Gold.PLP.part.hbond>
-2.0000

> <Gold.PLP.part.metal>
0.0000

> <Gold.PLP.part.buried>
-5.0870

> <Gold.PLP.part.nonpolar>
-35.3147

> <Gold.PLP.part.repulsive>
0.5445

> <Gold.PLP.ligand.clash>
0.0000

> <Gold.PLP.ligand.torsion>
1.7289

> <Gold.PLP.Chemscore.Hbond>
1.9920

> <Gold.PLP.Chemscore.CHOScore>
0.0000

> <Gold.PLP.Chemscore.Metal>
0.0000

> <Gold.Chemscore.Hbonds>
donor molecule, donor type, donor heavy atom, donor atom, acceptor molecule, acceptor atom, score
      L1  H    10    31       P1  8028  1.00
      P1  H  7989  7998       L1     9  1.00

> <Gold.PLP.Chemscore.Internal.Correction>
0.0235

> <Gold.Rescore>
     Score         DG    S(hbond)    S(metal)    S(lipo)     H(rot)  DE(clash)    DE(int)     intcor
     18.13     -21.44       1.74        0.00     121.79       1.61       0.45       2.85       ----

> <Gold.Chemscore.Fitness>
18.1286

> <Gold.Chemscore.DG>
-21.4358

> <Gold.Chemscore.ZeroCoef>
-5.4800

> <Gold.Chemscore.Hbond>
1.7411

> <Gold.Chemscore.Metal>
0.0000

> <Gold.Chemscore.Lipo>
121.7908

> <Gold.Chemscore.Internal_Hbond>
0.0000

> <Gold.Chemscore.DEClash>
0.4548

> <Gold.Chemscore.DEInternal>
2.8525

> <Gold.Chemscore.Rot>
1.6051

> <Gold.Chemscore.Internal.Correction>
   9.000000E+99

> <Gold.Chemscore.Hbonds>
donor molecule, donor type, donor heavy atom, donor atom, acceptor molecule, acceptor atom, score
      L1  H    10    31       P1  8028  0.95
      P1  H  7989  7998       L1     9  0.57

> <Gold.Chemscore.Hbond.Weighted>
-5.8153

> <Gold.Chemscore.Metal.Weighted>
-0.0000

> <Gold.Chemscore.Lipo.Weighted>
-14.2495

> <Gold.Chemscore.Internal_Hbond.Weighted>
0.0000

> <Gold.Chemscore.DEClash.Weighted>
0.4548

> <Gold.Chemscore.DEInternal.Weighted>
2.8525

> <Gold.Chemscore.Rot.Weighted>
4.1090

> <Gold.Chemscore.Internal.Correction.Weighted>
   9.000000E+99

> <Gold.Protein.RotatedTorsions>
[ 6907 6896 6895 6894 ] final -154.10 input  -60.11 | X-H torsion
[ 7974 7965 7964 7962 ] final  140.45 input  175.53 | X-H torsion
[ 8008 7997 7996 7995 ] final  136.94 input   59.86 | X-H torsion
[ 10167 10162 10161 10158 ] final  -75.75 input  -65.29 | X-H torsion
[ 10718 10713 10712 10709 ] final   -7.94 input   66.30 | X-H torsion
[ 10763 10752 10751 10750 ] final  -17.52 input  -60.55 | X-H torsion
[ 11005 11000 10999 10996 ] final -101.36 input  -57.11 | X-H torsion

> <Gold.Protein.ActiveResidues>
 VAL166  LYS551  ARG553  GLY616  TRP617  ASP618  TYR619  PRO620  LYS621  CYS622 
 ASP623  PHE694  ASN695  SER759  ASP760  ASP761  ALA762  ILE779  LEU786  VAL792 
 PHE793  MET794  SER795  GLU796  ALA797  LYS798  CYS799  TRP800  GLU811  SER814 

> <Gold.Protein.RotatedAtoms>
  151.2524  133.4343  159.2611 H   0  0  0  0  0  0  0  0  0  0  0  0  # atno 6907 bound_to 6896
  151.0605  134.9733  159.8268 H   0  0  0  0  0  0  0  0  0  0  0  0  # atno 6908 bound_to 6896
  152.5397  134.2474  159.8938 H   0  0  0  0  0  0  0  0  0  0  0  0  # atno 6909 bound_to 6896
  144.9186  139.5198  143.5674 H   0  0  0  0  0  0  0  0  0  0  0  0  # atno 7974 bound_to 7965
  156.3003  140.2432  156.3827 H   0  0  0  0  0  0  0  0  0  0  0  0  # atno 8008 bound_to 7997
  154.8686  140.0417  157.1730 H   0  0  0  0  0  0  0  0  0  0  0  0  # atno 8009 bound_to 7997
  154.8820  140.2950  155.5424 H   0  0  0  0  0  0  0  0  0  0  0  0  # atno 8010 bound_to 7997
  140.4916  143.2379  151.7898 H   0  0  0  0  0  0  0  0  0  0  0  0  # atno 10167 bound_to 10162
  156.7099  130.5119  149.5895 H   0  0  0  0  0  0  0  0  0  0  0  0  # atno 10718 bound_to 10713
  153.5751  135.7006  153.5488 H   0  0  0  0  0  0  0  0  0  0  0  0  # atno 10763 bound_to 10752
  153.3310  135.4047  155.1495 H   0  0  0  0  0  0  0  0  0  0  0  0  # atno 10764 bound_to 10752
  154.8627  135.3719  154.5275 H   0  0  0  0  0  0  0  0  0  0  0  0  # atno 10765 bound_to 10752
  141.1234  133.8472  157.1222 H   0  0  0  0  0  0  0  0  0  0  0  0  # atno 11005 bound_to 11000
  146.3194  139.8047  142.8958 LP  0  0  0  0  0  0  0  0  0  0  0  0  # atno 17320 bound_to 7965
  145.3334  141.0272  143.3433 LP  0  0  0  0  0  0  0  0  0  0  0  0  # atno 17321 bound_to 7965
  139.4852  144.4642  151.9504 LP  0  0  0  0  0  0  0  0  0  0  0  0  # atno 17342 bound_to 10162
  140.3729  144.2833  150.5918 LP  0  0  0  0  0  0  0  0  0  0  0  0  # atno 17343 bound_to 10162
  156.1668  130.6411  151.0788 LP  0  0  0  0  0  0  0  0  0  0  0  0  # atno 17370 bound_to 10713
  157.6940  131.0800  150.7024 LP  0  0  0  0  0  0  0  0  0  0  0  0  # atno 17371 bound_to 10713
  140.0210  134.9945  157.0592 LP  0  0  0  0  0  0  0  0  0  0  0  0  # atno 17394 bound_to 11000
  140.4439  134.1652  155.7176 LP  0  0  0  0  0  0  0  0  0  0  0  0  # atno 17395 bound_to 11000

$$$$
