AV-unprocessed.smi:103|AV-procd|sdf|985|dock6
  -GOLD-   2262017553D 1   1.00000     0.00000
 Structure written by MMmdl.
 53 55  0  0  0  0  0  0  0  0  1 V2000
  150.8069  142.0633  156.4853 C   0  0  0  0  0  0  0  0  0  0  0  0
  150.6303  140.7468  155.7401 C   0  0  0  0  0  0  0  0  0  0  0  0
  151.5257  140.2840  155.0331 O   0  0  0  0  0  0  0  0  0  0  0  0
  149.4218  140.1955  155.9540 O   0  0  0  0  0  0  0  0  0  0  0  0
  149.0811  138.9503  155.3588 C   0  0  0  0  0  0  0  0  0  0  0  0
  148.3546  138.0396  156.3658 C   0  0  2  0  0  0  0  0  0  0  0  0
  147.3798  138.7735  157.0946 O   0  0  0  0  0  0  0  0  0  0  0  0
  147.1213  138.1316  158.2986 C   0  0  1  0  0  0  0  0  0  0  0  0
  145.9736  137.1620  158.0918 N   0  0  0  0  0  0  0  0  0  0  0  0
  144.7553  137.1593  158.7479 C   0  0  0  0  0  0  0  0  0  0  0  0
  144.2453  138.2626  160.0635 S   0  0  0  0  0  0  0  0  0  0  0  0
  142.5158  138.6584  159.5790 C   0  0  0  0  0  0  0  0  0  0  0  0
  144.2385  137.4834  161.3111 O   0  0  0  0  0  0  0  0  0  0  0  0
  145.0693  139.4763  159.9482 O   0  0  0  0  0  0  0  0  0  0  0  0
  143.9228  136.2005  158.4526 N   0  0  0  0  0  0  0  0  0  0  0  0
  144.5714  135.5259  157.4331 C   0  0  0  0  0  0  0  0  0  0  0  0
  144.2294  134.4078  156.6311 C   0  0  0  0  0  0  0  0  0  0  0  0
  143.0728  133.7426  156.7596 N   0  0  0  0  0  0  0  0  0  0  0  0
  145.1070  133.9928  155.6898 N   0  0  0  0  0  0  0  0  0  0  0  0
  146.2639  134.6426  155.5413 C   0  0  0  0  0  0  0  0  0  0  0  0
  146.7194  135.6977  156.2198 N   0  0  0  0  0  0  0  0  0  0  0  0
  145.8410  136.1231  157.1764 C   0  0  0  0  0  0  0  0  0  0  0  0
  148.4594  137.5215  158.7499 C   0  0  1  0  0  0  0  0  0  0  0  0
  148.3293  136.2790  159.4304 O   0  0  0  0  0  0  0  0  0  0  0  0
  147.7751  136.2304  160.6528 C   0  0  0  0  0  0  0  0  0  0  0  0
  147.6516  134.8065  161.1768 C   0  0  0  0  0  0  0  0  0  0  0  0
  147.3807  137.1949  161.3082 O   0  0  0  0  0  0  0  0  0  0  0  0
  149.2522  137.3955  157.4457 C   0  0  2  0  0  0  0  0  0  0  0  0
  150.5000  138.0702  157.5766 O   0  0  0  0  0  0  0  0  0  0  0  0
  151.3040  137.8134  158.6248 C   0  0  0  0  0  0  0  0  0  0  0  0
  152.4881  138.7681  158.6983 C   0  0  0  0  0  0  0  0  0  0  0  0
  151.1419  136.9257  159.4622 O   0  0  0  0  0  0  0  0  0  0  0  0
  150.0026  142.7541  156.2320 H   0  0  0  0  0  0  0  0  0  0  0  0
  151.7571  142.5283  156.2219 H   0  0  0  0  0  0  0  0  0  0  0  0
  150.7928  141.8928  157.5619 H   0  0  0  0  0  0  0  0  0  0  0  0
  148.4097  139.1721  154.5291 H   0  0  0  0  0  0  0  0  0  0  0  0
  149.9525  138.4533  154.9295 H   0  0  0  0  0  0  0  0  0  0  0  0
  147.8467  137.2511  155.8122 H   0  0  0  0  0  0  0  0  0  0  0  0
  146.7523  138.8339  159.0412 H   0  0  0  0  0  0  0  0  0  0  0  0
  142.0876  139.3538  160.3005 H   0  0  0  0  0  0  0  0  0  0  0  0
  141.9201  137.7470  159.5568 H   0  0  0  0  0  0  0  0  0  0  0  0
  142.5131  139.1155  158.5896 H   0  0  0  0  0  0  0  0  0  0  0  0
  142.3996  134.0345  157.4535 H   0  0  0  0  0  0  0  0  0  0  0  0
  142.8744  132.9548  156.1600 H   0  0  0  0  0  0  0  0  0  0  0  0
  146.9196  134.2624  154.7718 H   0  0  0  0  0  0  0  0  0  0  0  0
  148.9513  138.2553  159.3913 H   0  0  0  0  0  0  0  0  0  0  0  0
  148.5464  134.2318  160.9359 H   0  0  0  0  0  0  0  0  0  0  0  0
  146.7904  134.3131  160.7257 H   0  0  0  0  0  0  0  0  0  0  0  0
  147.5236  134.8074  162.2596 H   0  0  0  0  0  0  0  0  0  0  0  0
  149.4245  136.3513  157.1809 H   0  0  0  0  0  0  0  0  0  0  0  0
  152.8438  139.0164  157.6982 H   0  0  0  0  0  0  0  0  0  0  0  0
  153.3097  138.3141  159.2528 H   0  0  0  0  0  0  0  0  0  0  0  0
  152.1981  139.6897  159.2028 H   0  0  0  0  0  0  0  0  0  0  0  0
  1  2  1  0  0  0  0
  1 33  1  0  0  0  0
  1 34  1  0  0  0  0
  1 35  1  0  0  0  0
  2  3  2  0  0  0  0
  2  4  1  0  0  0  0
  4  5  1  0  0  0  0
  5  6  1  0  0  0  0
  5 36  1  0  0  0  0
  5 37  1  0  0  0  0
  6 28  1  0  0  0  0
  6  7  1  0  0  0  0
  6 38  1  0  0  0  0
  7  8  1  0  0  0  0
  8  9  1  0  0  0  0
  8 23  1  0  0  0  0
  8 39  1  0  0  0  0
  9 22  1  0  0  0  0
  9 10  1  0  0  0  0
 10 11  1  0  0  0  0
 10 15  2  0  0  0  0
 11 12  1  0  0  0  0
 11 13  2  0  0  0  0
 11 14  2  0  0  0  0
 12 40  1  0  0  0  0
 12 41  1  0  0  0  0
 12 42  1  0  0  0  0
 15 16  1  0  0  0  0
 16 22  2  0  0  0  0
 16 17  1  0  0  0  0
 17 18  1  0  0  0  0
 17 19  2  0  0  0  0
 18 43  1  0  0  0  0
 18 44  1  0  0  0  0
 19 20  1  0  0  0  0
 20 21  2  0  0  0  0
 20 45  1  0  0  0  0
 21 22  1  0  0  0  0
 23 24  1  0  0  0  0
 23 28  1  0  0  0  0
 23 46  1  0  0  0  0
 24 25  1  0  0  0  0
 25 26  1  0  0  0  0
 25 27  2  0  0  0  0
 26 47  1  0  0  0  0
 26 48  1  0  0  0  0
 26 49  1  0  0  0  0
 28 29  1  0  0  0  0
 28 50  1  0  0  0  0
 29 30  1  0  0  0  0
 30 31  1  0  0  0  0
 30 32  2  0  0  0  0
 31 51  1  0  0  0  0
 31 52  1  0  0  0  0
 31 53  1  0  0  0  0
M  END
> <s_m_source_file>
AV-unprocessed.smi

> <i_m_source_file_index>
103

> <i_lp_mmshare_version>
43012

> <i_f3d_flags>
0

> <s_epik_input>
W0NIM11DKD1PKU9bQ0gyXVtDQEBIXTFPW0NASF0oW0NAQEhdKE9DKD1PKVtDSDNdKVtDQEhdMU9DKD1PKVtDSDNdKW4oYyhuMilTKD1PKSg9TylbQ0gzXSljKGMyMyluW2NIXW5jM1tOSDJd

> <s_epik_cmdline>
J2VwaWtfcHl0aG9uJywgJy1waCcsICc3LjAnLCAnLXRuJywgJzgnLCAnLW1hJywgJzIwMCcsICctbWV0YWxfYmluZGluZycsICctaW1hZScsICc8aW5maWxlLm1hZT4nLCAnLW9tYWUnLCAnPG91dGZpbGUubWFlPic=

> <r_lp_tautomer_probability>
1

> <r_epik_Ionization_Penalty>
1.51338e-05

> <r_epik_Ionization_Penalty_Charging>
0

> <r_epik_Ionization_Penalty_Neutral>
1.51338e-05

> <r_epik_State_Penalty>
-0

> <r_epik_Charging_Adjusted_Penalty>
0

> <i_epik_Tot_Q>
0

> <i_epik_Tot_abs_Q>
0

> <r_epik_Metal_State_Penalty>
-0

> <b_epik_Metal_Only>
0

> <s_epik_Chemistry_Notes>
This compound has an ester and may undergo hydrolysis at high or low pH. This compound contains an acetal/aminal-like group ( X-CH(R)-Y where X, Y are N, S, or O) that may be acid/base labile, releasing an aldehyde.

> <s_lp_Force_Field>
OPLS_2005

> <r_lp_Energy>
17.8584

> <b_lp_Chiralities_Consistent>
1

> <s_lp_Variant>
AV-unprocessed.smi:103-9

> <Gold.Version>
5.8.1

> <Gold.Id.Protein>
6NUR|6NUR_protein|mol2

> <Gold.PLP.Fitness>
41.3910

> <Gold.PLP.PLP>
-27.5061

> <Gold.PLP.part.hbond>
-7.0000

> <Gold.PLP.part.metal>
0.0000

> <Gold.PLP.part.buried>
-5.9654

> <Gold.PLP.part.nonpolar>
-13.9072

> <Gold.PLP.part.repulsive>
0.1631

> <Gold.PLP.ligand.clash>
0.0000

> <Gold.PLP.ligand.torsion>
1.7261

> <Gold.PLP.Chemscore.Hbond>
5.0104

> <Gold.PLP.Chemscore.CHOScore>
0.0000

> <Gold.PLP.Chemscore.Metal>
0.0000

> <Gold.Chemscore.Hbonds>
donor molecule, donor type, donor heavy atom, donor atom, acceptor molecule, acceptor atom, score
      L1  H    18    43       P1 11000  0.19
      L1  H    18    44       P1 10957  1.00
      P1  H  6896  6907       L1    32  1.00
      P1  H  6931  6943       L1    27  0.84
      P1  H  6934  6947       L1    27  0.98
      P1  H  7989  7998       L1     3  0.99

> <Gold.PLP.Chemscore.Internal.Correction>
2.3058

> <Gold.Rescore>
     Score         DG    S(hbond)    S(metal)    S(lipo)     H(rot)  DE(clash)    DE(int)     intcor
      6.57     -14.62       5.04        0.00      27.19       4.25       0.01       8.03       ----

> <Gold.Chemscore.Fitness>
6.5706

> <Gold.Chemscore.DG>
-14.6165

> <Gold.Chemscore.ZeroCoef>
-5.4800

> <Gold.Chemscore.Hbond>
5.0370

> <Gold.Chemscore.Metal>
0.0000

> <Gold.Chemscore.Lipo>
27.1941

> <Gold.Chemscore.Internal_Hbond>
0.0000

> <Gold.Chemscore.DEClash>
0.0128

> <Gold.Chemscore.DEInternal>
8.0332

> <Gold.Chemscore.Rot>
4.2456

> <Gold.Chemscore.Internal.Correction>
   9.000000E+99

> <Gold.Chemscore.Hbonds>
donor molecule, donor type, donor heavy atom, donor atom, acceptor molecule, acceptor atom, score
      L1  H    18    43       P1 11000  0.20
      L1  H    18    44       P1 10957  1.00
      P1  H  6896  6907       L1    32  1.00
      P1  H  6931  6943       L1    27  0.52
      P1  H  6934  6946       L1    14  0.01
      P1  H  6934  6947       L1    27  0.93
      P1  H  7989  7998       L1     3  0.88

> <Gold.Chemscore.Hbond.Weighted>
-16.8234

> <Gold.Chemscore.Metal.Weighted>
-0.0000

> <Gold.Chemscore.Lipo.Weighted>
-3.1817

> <Gold.Chemscore.Internal_Hbond.Weighted>
0.0000

> <Gold.Chemscore.DEClash.Weighted>
0.0128

> <Gold.Chemscore.DEInternal.Weighted>
8.0332

> <Gold.Chemscore.Rot.Weighted>
10.8687

> <Gold.Chemscore.Internal.Correction.Weighted>
   9.000000E+99

> <Gold.Protein.RotatedTorsions>
[ 6907 6896 6895 6894 ] final  -21.78 input  -60.11 | X-H torsion
[ 7974 7965 7964 7962 ] final   61.48 input  175.53 | X-H torsion
[ 8008 7997 7996 7995 ] final    2.09 input   59.86 | X-H torsion
[ 10167 10162 10161 10158 ] final -115.28 input  -65.29 | X-H torsion
[ 10718 10713 10712 10709 ] final  105.35 input   66.30 | X-H torsion
[ 10763 10752 10751 10750 ] final -163.06 input  -60.55 | X-H torsion
[ 11005 11000 10999 10996 ] final   88.53 input  -57.11 | X-H torsion

> <Gold.Protein.ActiveResidues>
 VAL166  LYS551  ARG553  GLY616  TRP617  ASP618  TYR619  PRO620  LYS621  CYS622 
 ASP623  PHE694  ASN695  SER759  ASP760  ASP761  ALA762  ILE779  LEU786  VAL792 
 PHE793  MET794  SER795  GLU796  ALA797  LYS798  CYS799  TRP800  GLU811  SER814 

> <Gold.Protein.RotatedAtoms>
  151.2283  135.0545  159.8977 H   0  0  0  0  0  0  0  0  0  0  0  0  # atno 6907 bound_to 6896
  152.5408  134.0565  159.8143 H   0  0  0  0  0  0  0  0  0  0  0  0  # atno 6908 bound_to 6896
  151.0741  133.5394  159.2656 H   0  0  0  0  0  0  0  0  0  0  0  0  # atno 6909 bound_to 6896
  145.8843  139.3465  143.0687 H   0  0  0  0  0  0  0  0  0  0  0  0  # atno 7974 bound_to 7965
  154.6875  140.2646  155.6846 H   0  0  0  0  0  0  0  0  0  0  0  0  # atno 8008 bound_to 7997
  156.2720  140.2798  156.1364 H   0  0  0  0  0  0  0  0  0  0  0  0  # atno 8009 bound_to 7997
  155.0944  140.0374  157.2668 H   0  0  0  0  0  0  0  0  0  0  0  0  # atno 8010 bound_to 7997
  140.0918  143.4692  152.1865 H   0  0  0  0  0  0  0  0  0  0  0  0  # atno 10167 bound_to 10162
  157.6708  131.0825  150.5843 H   0  0  0  0  0  0  0  0  0  0  0  0  # atno 10718 bound_to 10713
  154.7158  135.3015  154.9126 H   0  0  0  0  0  0  0  0  0  0  0  0  # atno 10763 bound_to 10752
  154.0014  135.6706  153.4763 H   0  0  0  0  0  0  0  0  0  0  0  0  # atno 10764 bound_to 10752
  153.0792  135.5018  154.8383 H   0  0  0  0  0  0  0  0  0  0  0  0  # atno 10765 bound_to 10752
  139.8894  134.8494  156.3014 H   0  0  0  0  0  0  0  0  0  0  0  0  # atno 11005 bound_to 11000
  145.8986  140.9257  143.0515 LP  0  0  0  0  0  0  0  0  0  0  0  0  # atno 17320 bound_to 7965
  144.6728  140.1002  143.7461 LP  0  0  0  0  0  0  0  0  0  0  0  0  # atno 17321 bound_to 7965
  139.5720  144.7468  151.3865 LP  0  0  0  0  0  0  0  0  0  0  0  0  # atno 17342 bound_to 10162
  140.7024  143.7598  150.7425 LP  0  0  0  0  0  0  0  0  0  0  0  0  # atno 17343 bound_to 10162
  156.6144  130.4388  149.5846 LP  0  0  0  0  0  0  0  0  0  0  0  0  # atno 17370 bound_to 10713
  156.2405  130.6848  151.1551 LP  0  0  0  0  0  0  0  0  0  0  0  0  # atno 17371 bound_to 10713
  140.9911  133.7208  156.0815 LP  0  0  0  0  0  0  0  0  0  0  0  0  # atno 17394 bound_to 11000
  140.7624  134.3924  157.5523 LP  0  0  0  0  0  0  0  0  0  0  0  0  # atno 17395 bound_to 11000

$$$$
