AV-unprocessed.smi:2881|AV-procd|sdf|11055|dock5
  -GOLD-   2272015523D 1   1.00000     0.00000
 Structure written by MMmdl.
 40 42  0  0  0  0  0  0  0  0  1 V2000
  153.0430  142.9136  162.5671 C   0  0  0  0  0  0  0  0  0  0  0  0
  152.4734  143.3883  161.2737 C   0  0  0  0  0  0  0  0  0  0  0  0
  152.6036  142.9133  159.9992 C   0  0  0  0  0  0  0  0  0  0  0  0
  151.8157  143.8023  159.2079 C   0  0  0  0  0  0  0  0  0  0  0  0
  151.5931  143.7722  157.7193 C   0  0  0  0  0  0  0  0  0  0  0  0
  151.0472  142.4095  157.2918 C   0  0  0  0  0  0  0  0  0  0  0  0
  151.6265  141.3795  157.6357 O   0  0  0  0  0  0  0  0  0  0  0  0
  149.9324  142.4208  156.5444 N   0  0  0  0  0  0  0  0  0  0  0  0
  149.2280  141.2377  156.0562 C   0  0  2  0  0  0  0  0  0  0  0  0
  149.2200  141.2132  154.5116 C   0  0  1  0  0  0  0  0  0  0  0  0
  148.8298  139.8005  154.0409 C   0  0  0  0  0  0  0  0  0  0  0  0
  147.3285  139.7398  154.3799 C   0  0  0  0  0  0  0  0  0  0  0  0
  147.0588  141.1250  155.0069 C   0  0  2  0  0  0  0  0  0  0  0  0
  147.9663  142.0104  154.1625 C   0  0  0  0  0  0  0  0  0  0  0  0
  147.7157  141.2659  156.4011 C   0  0  1  0  0  0  0  0  0  0  0  0
  147.2658  140.2195  157.4392 C   0  0  0  0  0  0  0  0  0  0  0  0
  145.8806  140.3368  157.6815 O   0  0  0  0  0  0  0  0  0  0  0  0
  151.2494  144.7551  159.9354 N   0  0  0  0  0  0  0  0  0  0  0  0
  151.6550  144.4907  161.1909 N   0  0  0  0  0  0  0  0  0  0  0  0
  151.3703  145.0655  161.9712 H   0  0  0  0  0  0  0  0  0  0  0  0
  153.4958  141.9284  162.4546 H   0  0  0  0  0  0  0  0  0  0  0  0
  152.2681  142.8427  163.3309 H   0  0  0  0  0  0  0  0  0  0  0  0
  153.8113  143.5989  162.9260 H   0  0  0  0  0  0  0  0  0  0  0  0
  153.1753  142.0557  159.6765 H   0  0  0  0  0  0  0  0  0  0  0  0
  150.8885  144.5466  157.4123 H   0  0  0  0  0  0  0  0  0  0  0  0
  152.5262  143.9798  157.1937 H   0  0  0  0  0  0  0  0  0  0  0  0
  149.5312  143.3167  156.3083 H   0  0  0  0  0  0  0  0  0  0  0  0
  149.7137  140.3369  156.4368 H   0  0  0  0  0  0  0  0  0  0  0  0
  150.1420  141.5770  154.0559 H   0  0  0  0  0  0  0  0  0  0  0  0
  148.9839  139.6921  152.9666 H   0  0  0  0  0  0  0  0  0  0  0  0
  149.4033  139.0189  154.5405 H   0  0  0  0  0  0  0  0  0  0  0  0
  146.7425  139.6149  153.4683 H   0  0  0  0  0  0  0  0  0  0  0  0
  147.0782  138.9102  155.0399 H   0  0  0  0  0  0  0  0  0  0  0  0
  146.0067  141.4109  154.9930 H   0  0  0  0  0  0  0  0  0  0  0  0
  148.0013  143.0471  154.5017 H   0  0  0  0  0  0  0  0  0  0  0  0
  147.7236  141.9923  153.0984 H   0  0  0  0  0  0  0  0  0  0  0  0
  147.4421  142.2529  156.7804 H   0  0  0  0  0  0  0  0  0  0  0  0
  147.4645  139.2123  157.0725 H   0  0  0  0  0  0  0  0  0  0  0  0
  147.7985  140.3350  158.3830 H   0  0  0  0  0  0  0  0  0  0  0  0
  145.7524  140.6031  158.5791 H   0  0  0  0  0  0  0  0  0  0  0  0
  1  2  1  0  0  0  0
  1 21  1  0  0  0  0
  1 22  1  0  0  0  0
  1 23  1  0  0  0  0
  2 19  1  0  0  0  0
  2  3  2  0  0  0  0
  3  4  1  0  0  0  0
  3 24  1  0  0  0  0
  4  5  1  0  0  0  0
  4 18  2  0  0  0  0
  5  6  1  0  0  0  0
  5 25  1  0  0  0  0
  5 26  1  0  0  0  0
  6  7  2  0  0  0  0
  6  8  1  0  0  0  0
  8  9  1  0  0  0  0
  8 27  1  0  0  0  0
  9 15  1  0  0  0  0
  9 10  1  0  0  0  0
  9 28  1  0  0  0  0
 10 14  1  0  0  0  0
 10 11  1  0  0  0  0
 10 29  1  0  0  0  0
 11 12  1  0  0  0  0
 11 30  1  0  0  0  0
 11 31  1  0  0  0  0
 12 13  1  0  0  0  0
 12 32  1  0  0  0  0
 12 33  1  0  0  0  0
 13 14  1  0  0  0  0
 13 15  1  0  0  0  0
 13 34  1  0  0  0  0
 14 35  1  0  0  0  0
 14 36  1  0  0  0  0
 15 16  1  0  0  0  0
 15 37  1  0  0  0  0
 16 17  1  0  0  0  0
 16 38  1  0  0  0  0
 16 39  1  0  0  0  0
 17 40  1  0  0  0  0
 18 19  1  0  0  0  0
 19 20  1  0  0  0  0
M  END
> <s_m_source_file>
AV-unprocessed.smi

> <i_m_source_file_index>
2881

> <i_lp_mmshare_version>
43012

> <i_f3d_flags>
0

> <s_epik_input>
W0NIM11jMVtjSF1jKG5bbkhdMSlbQ0gyXUMoPU8pW05IXVtDQEhdKFtDQEBIXTIzKVtDQEhdKFtDSDJdW09IXSlbQ0BASF0oW0NIMl0zKVtDSDJdW0NIMl0y

> <s_epik_cmdline>
J2VwaWtfcHl0aG9uJywgJy1waCcsICc3LjAnLCAnLXRuJywgJzgnLCAnLW1hJywgJzIwMCcsICctbWV0YWxfYmluZGluZycsICctaW1hZScsICc8aW5maWxlLm1hZT4nLCAnLW9tYWUnLCAnPG91dGZpbGUubWFlPic=

> <r_lp_tautomer_probability>
0.5

> <r_epik_Ionization_Penalty>
9.4349e-05

> <r_epik_Ionization_Penalty_Charging>
0

> <r_epik_Ionization_Penalty_Neutral>
9.4349e-05

> <r_epik_State_Penalty>
0.41068

> <r_epik_Charging_Adjusted_Penalty>
0.41068

> <i_epik_Tot_Q>
0

> <i_epik_Tot_abs_Q>
0

> <r_epik_Metal_State_Penalty>
0.4107

> <b_epik_Metal_Only>
0

> <s_lp_Force_Field>
OPLS_2005

> <r_lp_Energy>
47.7549

> <b_lp_Chiralities_Consistent>
1

> <s_lp_Variant>
AV-unprocessed.smi:2881-1

> <Gold.Version>
5.8.1

> <Gold.Id.Protein>
6NUR|6NUR_protein|mol2

> <Gold.PLP.Fitness>
41.9639

> <Gold.PLP.PLP>
-39.1822

> <Gold.PLP.part.hbond>
-1.6848

> <Gold.PLP.part.metal>
0.0000

> <Gold.PLP.part.buried>
-3.7971

> <Gold.PLP.part.nonpolar>
-33.2792

> <Gold.PLP.part.repulsive>
0.2471

> <Gold.PLP.ligand.clash>
0.0000

> <Gold.PLP.ligand.torsion>
0.1236

> <Gold.PLP.Chemscore.Hbond>
1.0000

> <Gold.PLP.Chemscore.CHOScore>
0.0000

> <Gold.PLP.Chemscore.Metal>
0.0000

> <Gold.Chemscore.Hbonds>
donor molecule, donor type, donor heavy atom, donor atom, acceptor molecule, acceptor atom, score
      L1  H     8    27       P1  8028  1.00

> <Gold.PLP.Chemscore.Internal.Correction>
0.0289

> <Gold.Rescore>
     Score         DG    S(hbond)    S(metal)    S(lipo)     H(rot)  DE(clash)    DE(int)     intcor
     13.23     -14.67       1.00        0.00      99.81       2.28       0.08       1.37       ----

> <Gold.Chemscore.Fitness>
13.2315

> <Gold.Chemscore.DG>
-14.6728

> <Gold.Chemscore.ZeroCoef>
-5.4800

> <Gold.Chemscore.Hbond>
1.0000

> <Gold.Chemscore.Metal>
0.0000

> <Gold.Chemscore.Lipo>
99.8122

> <Gold.Chemscore.Internal_Hbond>
0.0000

> <Gold.Chemscore.DEClash>
0.0752

> <Gold.Chemscore.DEInternal>
1.3661

> <Gold.Chemscore.Rot>
2.2755

> <Gold.Chemscore.Internal.Correction>
   9.000000E+99

> <Gold.Chemscore.Hbonds>
donor molecule, donor type, donor heavy atom, donor atom, acceptor molecule, acceptor atom, score
      L1  H     8    27       P1  8028  1.00

> <Gold.Chemscore.Hbond.Weighted>
-3.3399

> <Gold.Chemscore.Metal.Weighted>
-0.0000

> <Gold.Chemscore.Lipo.Weighted>
-11.6780

> <Gold.Chemscore.Internal_Hbond.Weighted>
0.0000

> <Gold.Chemscore.DEClash.Weighted>
0.0752

> <Gold.Chemscore.DEInternal.Weighted>
1.3661

> <Gold.Chemscore.Rot.Weighted>
5.8252

> <Gold.Chemscore.Internal.Correction.Weighted>
   9.000000E+99

> <Gold.Protein.RotatedTorsions>
[ 6907 6896 6895 6894 ] final   91.57 input  -60.11 | X-H torsion
[ 7974 7965 7964 7962 ] final -143.11 input  175.53 | X-H torsion
[ 8008 7997 7996 7995 ] final  117.72 input   59.86 | X-H torsion
[ 10167 10162 10161 10158 ] final  -67.91 input  -65.29 | X-H torsion
[ 10718 10713 10712 10709 ] final  162.89 input   66.30 | X-H torsion
[ 10763 10752 10751 10750 ] final   77.69 input  -60.55 | X-H torsion
[ 11005 11000 10999 10996 ] final  -91.17 input  -57.11 | X-H torsion

> <Gold.Protein.ActiveResidues>
 VAL166  LYS551  ARG553  GLY616  TRP617  ASP618  TYR619  PRO620  LYS621  CYS622 
 ASP623  PHE694  ASN695  SER759  ASP760  ASP761  ALA762  ILE779  LEU786  VAL792 
 PHE793  MET794  SER795  GLU796  ALA797  LYS798  CYS799  TRP800  GLU811  SER814 

> <Gold.Protein.RotatedAtoms>
  152.5450  134.1636  159.8567 H   0  0  0  0  0  0  0  0  0  0  0  0  # atno 6907 bound_to 6896
  151.1652  133.4812  159.2601 H   0  0  0  0  0  0  0  0  0  0  0  0  # atno 6908 bound_to 6896
  151.1332  135.0152  159.8647 H   0  0  0  0  0  0  0  0  0  0  0  0  # atno 6909 bound_to 6896
  144.8394  140.5876  143.5462 H   0  0  0  0  0  0  0  0  0  0  0  0  # atno 7974 bound_to 7965
  156.2509  140.2890  156.0723 H   0  0  0  0  0  0  0  0  0  0  0  0  # atno 8008 bound_to 7997
  155.1657  140.0400  157.2869 H   0  0  0  0  0  0  0  0  0  0  0  0  # atno 8009 bound_to 7997
  154.6361  140.2511  155.7383 H   0  0  0  0  0  0  0  0  0  0  0  0  # atno 8010 bound_to 7997
  140.5547  143.2312  151.6843 H   0  0  0  0  0  0  0  0  0  0  0  0  # atno 10167 bound_to 10162
  157.1162  131.0480  151.2435 H   0  0  0  0  0  0  0  0  0  0  0  0  # atno 10718 bound_to 10713
  153.0818  135.4905  154.8517 H   0  0  0  0  0  0  0  0  0  0  0  0  # atno 10763 bound_to 10752
  154.7160  135.3029  154.9125 H   0  0  0  0  0  0  0  0  0  0  0  0  # atno 10764 bound_to 10752
  153.9804  135.6790  153.4803 H   0  0  0  0  0  0  0  0  0  0  0  0  # atno 10765 bound_to 10752
  141.1550  133.7738  156.9841 H   0  0  0  0  0  0  0  0  0  0  0  0  # atno 11005 bound_to 11000
  145.4726  139.1502  143.3805 LP  0  0  0  0  0  0  0  0  0  0  0  0  # atno 17320 bound_to 7965
  146.2688  140.4860  142.8823 LP  0  0  0  0  0  0  0  0  0  0  0  0  # atno 17321 bound_to 7965
  139.5043  144.3760  152.0423 LP  0  0  0  0  0  0  0  0  0  0  0  0  # atno 17342 bound_to 10162
  140.2880  144.3785  150.6097 LP  0  0  0  0  0  0  0  0  0  0  0  0  # atno 17343 bound_to 10162
  157.4516  130.7601  149.7156 LP  0  0  0  0  0  0  0  0  0  0  0  0  # atno 17370 bound_to 10713
  155.9839  130.3996  150.3340 LP  0  0  0  0  0  0  0  0  0  0  0  0  # atno 17371 bound_to 10713
  140.1046  134.9514  157.1975 LP  0  0  0  0  0  0  0  0  0  0  0  0  # atno 17394 bound_to 11000
  140.3273  134.2849  155.7234 LP  0  0  0  0  0  0  0  0  0  0  0  0  # atno 17395 bound_to 11000

$$$$
