AV-unprocessed.smi:1742|AV-procd|sdf|7021|dock8
  -GOLD-   22720 8243D 1   1.00000     0.00000
 Structure written by MMmdl.
 34 35  0  0  0  0  0  0  0  0  1 V2000
  153.3385  141.6423  160.9862 C   0  0  0  0  0  0  0  0  0  0  0  0
  153.7775  142.5405  159.8241 C   0  0  0  0  0  0  0  0  0  0  0  0
  152.6850  143.3611  159.3397 N   0  0  0  0  0  0  0  0  0  0  0  0
  151.3606  143.3316  159.7283 C   0  0  0  0  0  0  0  0  0  0  0  0
  150.7367  144.2965  158.9890 C   0  0  0  0  0  0  0  0  0  0  0  0
  149.3748  144.6898  158.9894 N   0  0  0  0  0  0  0  0  0  0  0  0
  148.4557  144.4588  159.9463 C   0  0  0  0  0  0  0  0  0  0  0  0
  148.6787  143.8556  160.9941 O   0  0  0  0  0  0  0  0  0  0  0  0
  147.2349  144.9543  159.6760 N   0  0  0  0  0  0  0  0  0  0  0  0
  146.0227  144.8814  160.4929 C   0  0  1  0  0  0  0  0  0  0  0  0
  144.7628  144.9540  159.6100 C   0  0  0  0  0  0  0  0  0  0  0  0
  143.5499  144.5107  160.4377 C   0  0  0  0  0  0  0  0  0  0  0  0
  144.1822  143.3035  161.6638 S   0  0  0  0  0  0  0  0  0  0  0  0
  143.8824  143.7986  163.0158 O   0  0  0  0  0  0  0  0  0  0  0  0
  143.8081  141.9411  161.2553 O   0  0  0  0  0  0  0  0  0  0  0  0
  145.9565  143.5731  161.2976 C   0  0  0  0  0  0  0  0  0  0  0  0
  151.7456  144.8715  158.1731 C   0  0  0  0  0  0  0  0  0  0  0  0
  152.9213  144.3022  158.3923 N   0  0  0  0  0  0  0  0  0  0  0  0
  154.1650  141.0191  161.3278 H   0  0  0  0  0  0  0  0  0  0  0  0
  152.5247  140.9812  160.6868 H   0  0  0  0  0  0  0  0  0  0  0  0
  152.9950  142.2346  161.8348 H   0  0  0  0  0  0  0  0  0  0  0  0
  154.5982  143.1890  160.1339 H   0  0  0  0  0  0  0  0  0  0  0  0
  154.1483  141.9328  158.9978 H   0  0  0  0  0  0  0  0  0  0  0  0
  150.9992  142.6429  160.4775 H   0  0  0  0  0  0  0  0  0  0  0  0
  149.0655  145.2030  158.1769 H   0  0  0  0  0  0  0  0  0  0  0  0
  147.1418  145.4532  158.8029 H   0  0  0  0  0  0  0  0  0  0  0  0
  145.9847  145.7249  161.1849 H   0  0  0  0  0  0  0  0  0  0  0  0
  144.6174  145.9503  159.1912 H   0  0  0  0  0  0  0  0  0  0  0  0
  144.8751  144.2697  158.7675 H   0  0  0  0  0  0  0  0  0  0  0  0
  143.1245  145.3528  160.9840 H   0  0  0  0  0  0  0  0  0  0  0  0
  142.7653  144.0575  159.8314 H   0  0  0  0  0  0  0  0  0  0  0  0
  146.3048  142.7273  160.7036 H   0  0  0  0  0  0  0  0  0  0  0  0
  146.5296  143.6059  162.2243 H   0  0  0  0  0  0  0  0  0  0  0  0
  151.6669  145.6657  157.4455 H   0  0  0  0  0  0  0  0  0  0  0  0
  1  2  1  0  0  0  0
  1 19  1  0  0  0  0
  1 20  1  0  0  0  0
  1 21  1  0  0  0  0
  2  3  1  0  0  0  0
  2 22  1  0  0  0  0
  2 23  1  0  0  0  0
  3 18  1  0  0  0  0
  3  4  1  0  0  0  0
  4  5  2  0  0  0  0
  4 24  1  0  0  0  0
  5  6  1  0  0  0  0
  5 17  1  0  0  0  0
  6  7  1  0  0  0  0
  6 25  1  0  0  0  0
  7  8  2  0  0  0  0
  7  9  1  0  0  0  0
  9 10  1  0  0  0  0
  9 26  1  0  0  0  0
 10 16  1  0  0  0  0
 10 11  1  0  0  0  0
 10 27  1  0  0  0  0
 11 12  1  0  0  0  0
 11 28  1  0  0  0  0
 11 29  1  0  0  0  0
 12 13  1  0  0  0  0
 12 30  1  0  0  0  0
 12 31  1  0  0  0  0
 13 14  2  0  0  0  0
 13 15  2  0  0  0  0
 13 16  1  0  0  0  0
 16 32  1  0  0  0  0
 16 33  1  0  0  0  0
 17 18  2  0  0  0  0
 17 34  1  0  0  0  0
M  END
> <s_m_source_file>
AV-unprocessed.smi

> <i_m_source_file_index>
1742

> <i_lp_mmshare_version>
43012

> <i_f3d_flags>
0

> <s_epik_input>
W0NIM11bQ0gyXW4xW2NIXWMoW2NIXW4xKVtOSF1DKD1PKVtOSF1bQ0BASF0oW0NIMl0yKVtDSDJdW0NIMl1TMig9Tyk9Tw==

> <s_epik_cmdline>
J2VwaWtfcHl0aG9uJywgJy1waCcsICc3LjAnLCAnLXRuJywgJzgnLCAnLW1hJywgJzIwMCcsICctbWV0YWxfYmluZGluZycsICctaW1hZScsICc8aW5maWxlLm1hZT4nLCAnLW9tYWUnLCAnPG91dGZpbGUubWFlPic=

> <r_lp_tautomer_probability>
1

> <r_epik_Ionization_Penalty>
0.000152028

> <r_epik_Ionization_Penalty_Charging>
0

> <r_epik_Ionization_Penalty_Neutral>
0.000152028

> <r_epik_State_Penalty>
-0

> <r_epik_Charging_Adjusted_Penalty>
0

> <i_epik_Tot_Q>
0

> <i_epik_Tot_abs_Q>
0

> <r_epik_Metal_State_Penalty>
-0

> <b_epik_Metal_Only>
0

> <s_lp_Force_Field>
OPLS_2005

> <r_lp_Energy>
18.8672

> <b_lp_Chiralities_Consistent>
1

> <s_lp_Variant>
AV-unprocessed.smi:1742-2

> <Gold.Version>
5.8.1

> <Gold.Id.Protein>
6NUR|6NUR_protein|mol2

> <Gold.PLP.Fitness>
43.0657

> <Gold.PLP.PLP>
-35.7806

> <Gold.PLP.part.hbond>
-4.4669

> <Gold.PLP.part.metal>
0.0000

> <Gold.PLP.part.buried>
-6.2793

> <Gold.PLP.part.nonpolar>
-26.6485

> <Gold.PLP.part.repulsive>
1.5292

> <Gold.PLP.ligand.clash>
0.0000

> <Gold.PLP.ligand.torsion>
0.4750

> <Gold.PLP.Chemscore.Hbond>
2.7440

> <Gold.PLP.Chemscore.CHOScore>
0.0000

> <Gold.PLP.Chemscore.Metal>
0.0000

> <Gold.Chemscore.Hbonds>
donor molecule, donor type, donor heavy atom, donor atom, acceptor molecule, acceptor atom, score
      L1  H     6    25       P1  8029  1.00
      L1  H     9    26       P1  8029  0.98
      P1  H  6933  6944       L1     8  0.82

> <Gold.PLP.Chemscore.Internal.Correction>
0.0031

> <Gold.Rescore>
     Score         DG    S(hbond)    S(metal)    S(lipo)     H(rot)  DE(clash)    DE(int)     intcor
     17.35     -19.94       2.68        0.00      74.45       1.26       0.09       2.50       ----

> <Gold.Chemscore.Fitness>
17.3494

> <Gold.Chemscore.DG>
-19.9394

> <Gold.Chemscore.ZeroCoef>
-5.4800

> <Gold.Chemscore.Hbond>
2.6833

> <Gold.Chemscore.Metal>
0.0000

> <Gold.Chemscore.Lipo>
74.4534

> <Gold.Chemscore.Internal_Hbond>
0.0000

> <Gold.Chemscore.DEClash>
0.0874

> <Gold.Chemscore.DEInternal>
2.5025

> <Gold.Chemscore.Rot>
1.2554

> <Gold.Chemscore.Internal.Correction>
   9.000000E+99

> <Gold.Chemscore.Hbonds>
donor molecule, donor type, donor heavy atom, donor atom, acceptor molecule, acceptor atom, score
      L1  H     6    25       P1  8029  0.63
      L1  H     9    26       P1  8029  0.93
      P1  H  6933  6944       L1     8  0.76

> <Gold.Chemscore.Hbond.Weighted>
-8.9622

> <Gold.Chemscore.Metal.Weighted>
-0.0000

> <Gold.Chemscore.Lipo.Weighted>
-8.7111

> <Gold.Chemscore.Internal_Hbond.Weighted>
0.0000

> <Gold.Chemscore.DEClash.Weighted>
0.0874

> <Gold.Chemscore.DEInternal.Weighted>
2.5025

> <Gold.Chemscore.Rot.Weighted>
3.2139

> <Gold.Chemscore.Internal.Correction.Weighted>
   9.000000E+99

> <Gold.Protein.RotatedTorsions>
[ 6907 6896 6895 6894 ] final  -29.25 input  -60.11 | X-H torsion
[ 7974 7965 7964 7962 ] final  133.10 input  175.53 | X-H torsion
[ 8008 7997 7996 7995 ] final   58.27 input   59.86 | X-H torsion
[ 10167 10162 10161 10158 ] final -172.64 input  -65.29 | X-H torsion
[ 10718 10713 10712 10709 ] final  -13.31 input   66.30 | X-H torsion
[ 10763 10752 10751 10750 ] final  162.36 input  -60.55 | X-H torsion
[ 11005 11000 10999 10996 ] final  -85.15 input  -57.11 | X-H torsion

> <Gold.Protein.ActiveResidues>
 VAL166  LYS551  ARG553  GLY616  TRP617  ASP618  TYR619  PRO620  LYS621  CYS622 
 ASP623  PHE694  ASN695  SER759  ASP760  ASP761  ALA762  ILE779  LEU786  VAL792 
 PHE793  MET794  SER795  GLU796  ALA797  LYS798  CYS799  TRP800  GLU811  SER814 

> <Gold.Protein.RotatedAtoms>
  151.1218  135.0083  159.8541 H   0  0  0  0  0  0  0  0  0  0  0  0  # atno 6907 bound_to 6896
  152.5448  134.1714  159.8608 H   0  0  0  0  0  0  0  0  0  0  0  0  # atno 6908 bound_to 6896
  151.1773  133.4702  159.2627 H   0  0  0  0  0  0  0  0  0  0  0  0  # atno 6909 bound_to 6896
  144.9900  139.4416  143.5344 H   0  0  0  0  0  0  0  0  0  0  0  0  # atno 7974 bound_to 7965
  155.5472  140.3485  155.4460 H   0  0  0  0  0  0  0  0  0  0  0  0  # atno 8008 bound_to 7997
  156.0609  140.1340  156.9968 H   0  0  0  0  0  0  0  0  0  0  0  0  # atno 8009 bound_to 7997
  154.4479  140.0985  156.6500 H   0  0  0  0  0  0  0  0  0  0  0  0  # atno 8010 bound_to 7997
  139.5733  144.1591  152.1415 H   0  0  0  0  0  0  0  0  0  0  0  0  # atno 10167 bound_to 10162
  156.6321  130.4904  149.6125 H   0  0  0  0  0  0  0  0  0  0  0  0  # atno 10718 bound_to 10713
  154.2772  135.2764  155.2713 H   0  0  0  0  0  0  0  0  0  0  0  0  # atno 10763 bound_to 10752
  154.5250  135.5746  153.6715 H   0  0  0  0  0  0  0  0  0  0  0  0  # atno 10764 bound_to 10752
  152.9935  135.6213  154.2930 H   0  0  0  0  0  0  0  0  0  0  0  0  # atno 10765 bound_to 10752
  141.1644  133.7384  156.8973 H   0  0  0  0  0  0  0  0  0  0  0  0  # atno 11005 bound_to 11000
  146.3429  139.9226  142.8764 LP  0  0  0  0  0  0  0  0  0  0  0  0  # atno 17320 bound_to 7965
  145.2299  140.9969  143.3997 LP  0  0  0  0  0  0  0  0  0  0  0  0  # atno 17321 bound_to 7965
  140.1128  144.5442  150.6913 LP  0  0  0  0  0  0  0  0  0  0  0  0  # atno 17342 bound_to 10162
  140.7017  143.2439  151.4846 LP  0  0  0  0  0  0  0  0  0  0  0  0  # atno 17343 bound_to 10162
  156.2226  130.6746  151.1384 LP  0  0  0  0  0  0  0  0  0  0  0  0  # atno 17370 bound_to 10713
  157.7197  131.0689  150.6187 LP  0  0  0  0  0  0  0  0  0  0  0  0  # atno 17371 bound_to 10713
  140.1607  134.9167  157.2711 LP  0  0  0  0  0  0  0  0  0  0  0  0  # atno 17394 bound_to 11000
  140.2614  134.3566  155.7405 LP  0  0  0  0  0  0  0  0  0  0  0  0  # atno 17395 bound_to 11000

$$$$
