AV-unprocessed.smi:999|AV-procd|sdf|4354|dock4
  -GOLD-   22720 2253D 1   1.00000     0.00000
 Structure written by MMmdl.
 37 38  0  0  0  0  0  0  0  0  2 V2000
  153.7518  140.9977  160.4329 C   0  0  0  0  0  0  0  0  0  0  0  0
  153.2486  141.9663  159.3427 C   0  0  1  0  0  0  0  0  0  0  0  0
  152.3183  141.2873  158.3248 C   0  0  0  0  0  0  0  0  0  0  0  0
  152.7241  140.3640  157.6177 O   0  0  0  0  0  0  0  0  0  0  0  0
  151.0655  141.7652  158.2609 N   0  0  0  0  0  0  0  0  0  0  0  0
  150.0149  141.2782  157.3733 C   0  0  2  0  0  0  0  0  0  0  0  0
  149.7933  139.7654  157.5796 C   0  0  0  0  0  0  0  0  0  0  0  0
  148.7655  139.2039  156.5791 C   0  0  0  0  0  0  0  0  0  0  0  0
  149.1530  139.4950  155.1084 C   0  0  2  0  0  0  0  0  0  0  0  0
  150.3669  138.6622  154.6326 C   0  0  0  0  0  0  0  0  0  0  0  0
  151.3839  139.2812  154.2481 O   0  0  0  0  0  0  0  0  0  0  0  0
  150.2565  137.4160  154.6279 O   0  5  0  0  0  0  0  0  0  0  0  0
  149.3656  141.0174  154.9229 C   0  0  0  0  0  0  0  0  0  0  0  0
  150.3959  141.5915  155.9136 C   0  0  0  0  0  0  0  0  0  0  0  0
  152.6066  143.1499  159.9039 N   0  0  0  0  0  0  0  0  0  0  0  0
  152.2935  144.3295  159.2588 C   0  0  0  0  0  0  0  0  0  0  0  0
  151.6650  145.1381  160.1618 C   0  0  0  0  0  0  0  0  0  0  0  0
  151.6230  144.3523  161.3466 C   0  0  0  0  0  0  0  0  0  0  0  0
  152.1774  143.1619  161.1877 N   0  0  0  0  0  0  0  0  0  0  0  0
  154.2889  140.1571  159.9920 H   0  0  0  0  0  0  0  0  0  0  0  0
  152.9353  140.5899  161.0303 H   0  0  0  0  0  0  0  0  0  0  0  0
  154.4384  141.5023  161.1135 H   0  0  0  0  0  0  0  0  0  0  0  0
  154.1272  142.3112  158.7948 H   0  0  0  0  0  0  0  0  0  0  0  0
  150.8190  142.5284  158.8742 H   0  0  0  0  0  0  0  0  0  0  0  0
  149.0843  141.8032  157.5977 H   0  0  0  0  0  0  0  0  0  0  0  0
  150.7401  139.2344  157.4732 H   0  0  0  0  0  0  0  0  0  0  0  0
  149.4501  139.5723  158.5964 H   0  0  0  0  0  0  0  0  0  0  0  0
  148.6277  138.1350  156.7457 H   0  0  0  0  0  0  0  0  0  0  0  0
  147.7936  139.6549  156.7825 H   0  0  0  0  0  0  0  0  0  0  0  0
  148.3207  139.1896  154.4733 H   0  0  0  0  0  0  0  0  0  0  0  0
  149.6620  141.2518  153.8998 H   0  0  0  0  0  0  0  0  0  0  0  0
  148.4125  141.5260  155.0703 H   0  0  0  0  0  0  0  0  0  0  0  0
  150.4716  142.6705  155.7741 H   0  0  0  0  0  0  0  0  0  0  0  0
  151.3843  141.1860  155.6922 H   0  0  0  0  0  0  0  0  0  0  0  0
  152.5417  144.4932  158.2203 H   0  0  0  0  0  0  0  0  0  0  0  0
  151.2870  146.1364  159.9994 H   0  0  0  0  0  0  0  0  0  0  0  0
  151.2048  144.6076  162.3090 H   0  0  0  0  0  0  0  0  0  0  0  0
  1  2  1  0  0  0  0
  1 20  1  0  0  0  0
  1 21  1  0  0  0  0
  1 22  1  0  0  0  0
  2  3  1  0  0  0  0
  2 15  1  0  0  0  0
  2 23  1  0  0  0  0
  3  4  2  0  0  0  0
  3  5  1  0  0  0  0
  5  6  1  0  0  0  0
  5 24  1  0  0  0  0
  6 14  1  0  0  0  0
  6  7  1  0  0  0  0
  6 25  1  0  0  0  0
  7  8  1  0  0  0  0
  7 26  1  0  0  0  0
  7 27  1  0  0  0  0
  8  9  1  0  0  0  0
  8 28  1  0  0  0  0
  8 29  1  0  0  0  0
  9 10  1  0  0  0  0
  9 13  1  0  0  0  0
  9 30  1  0  0  0  0
 10 11  2  0  0  0  0
 10 12  1  0  0  0  0
 13 14  1  0  0  0  0
 13 31  1  0  0  0  0
 13 32  1  0  0  0  0
 14 33  1  0  0  0  0
 14 34  1  0  0  0  0
 15 19  1  0  0  0  0
 15 16  1  0  0  0  0
 16 17  2  0  0  0  0
 16 35  1  0  0  0  0
 17 18  1  0  0  0  0
 17 36  1  0  0  0  0
 18 19  2  0  0  0  0
 18 37  1  0  0  0  0
M  CHG  1  12  -1
M  END
> <s_m_source_file>
AV-unprocessed.smi

> <i_m_source_file_index>
999

> <i_lp_mmshare_version>
43012

> <i_f3d_flags>
0

> <s_epik_input>
bjFbY0hdW2NIXVtjSF1uMVtDQEhdKFtDSDNdKUMoPU8pW05IXVtDQEBIXTJbQ0gyXVtDSDJdW0NAQEhdKEMoPU8pW09IXSlbQ0gyXVtDSDJdMg==

> <s_epik_cmdline>
J2VwaWtfcHl0aG9uJywgJy1waCcsICc3LjAnLCAnLXRuJywgJzgnLCAnLW1hJywgJzIwMCcsICctbWV0YWxfYmluZGluZycsICctaW1hZScsICc8aW5maWxlLm1hZT4nLCAnLW9tYWUnLCAnPG91dGZpbGUubWFlPic=

> <r_lp_tautomer_probability>
1

> <r_epik_Ionization_Penalty>
0.00221712

> <r_epik_Ionization_Penalty_Charging>
0.00217268

> <r_epik_Ionization_Penalty_Neutral>
4.44343e-05

> <r_epik_State_Penalty>
0.0014925

> <r_epik_Charging_Adjusted_Penalty>
0.00366518

> <i_epik_Tot_Q>
-1

> <i_epik_Tot_abs_Q>
1

> <r_epik_Metal_State_Penalty>
-0

> <b_epik_Metal_Only>
0

> <s_lp_Force_Field>
OPLS_2005

> <r_lp_Energy>
8.81329

> <b_lp_Chiralities_Consistent>
1

> <s_lp_Variant>
AV-unprocessed.smi:999-4

> <Gold.Version>
5.8.1

> <Gold.Id.Protein>
6NUR|6NUR_protein|mol2

> <Gold.PLP.Fitness>
43.6333

> <Gold.PLP.PLP>
-38.4645

> <Gold.PLP.part.hbond>
-2.0000

> <Gold.PLP.part.metal>
0.0000

> <Gold.PLP.part.buried>
-3.2141

> <Gold.PLP.part.nonpolar>
-33.2336

> <Gold.PLP.part.repulsive>
0.4864

> <Gold.PLP.ligand.clash>
0.0000

> <Gold.PLP.ligand.torsion>
0.4271

> <Gold.PLP.Chemscore.Hbond>
1.9600

> <Gold.PLP.Chemscore.CHOScore>
0.0000

> <Gold.PLP.Chemscore.Metal>
0.0000

> <Gold.Chemscore.Hbonds>
donor molecule, donor type, donor heavy atom, donor atom, acceptor molecule, acceptor atom, score
      P1  H  7989  7998       L1    11  1.00
      P1  H  7997  8010       L1     4  0.91

> <Gold.PLP.Chemscore.Internal.Correction>
0.1429

> <Gold.Rescore>
     Score         DG    S(hbond)    S(metal)    S(lipo)     H(rot)  DE(clash)    DE(int)     intcor
     13.95     -16.73       1.91        0.00      85.00       1.98       0.11       2.67       ----

> <Gold.Chemscore.Fitness>
13.9544

> <Gold.Chemscore.DG>
-16.7298

> <Gold.Chemscore.ZeroCoef>
-5.4800

> <Gold.Chemscore.Hbond>
1.9063

> <Gold.Chemscore.Metal>
0.0000

> <Gold.Chemscore.Lipo>
84.9986

> <Gold.Chemscore.Internal_Hbond>
0.0000

> <Gold.Chemscore.DEClash>
0.1053

> <Gold.Chemscore.DEInternal>
2.6701

> <Gold.Chemscore.Rot>
1.9774

> <Gold.Chemscore.Internal.Correction>
   9.000000E+99

> <Gold.Chemscore.Hbonds>
donor molecule, donor type, donor heavy atom, donor atom, acceptor molecule, acceptor atom, score
      P1  H  7989  7998       L1    11  0.99
      P1  H  7997  8010       L1     4  0.89

> <Gold.Chemscore.Hbond.Weighted>
-6.3670

> <Gold.Chemscore.Metal.Weighted>
-0.0000

> <Gold.Chemscore.Lipo.Weighted>
-9.9448

> <Gold.Chemscore.Internal_Hbond.Weighted>
0.0000

> <Gold.Chemscore.DEClash.Weighted>
0.1053

> <Gold.Chemscore.DEInternal.Weighted>
2.6701

> <Gold.Chemscore.Rot.Weighted>
5.0620

> <Gold.Chemscore.Internal.Correction.Weighted>
   9.000000E+99

> <Gold.Protein.RotatedTorsions>
[ 6907 6896 6895 6894 ] final   13.55 input  -60.11 | X-H torsion
[ 7974 7965 7964 7962 ] final  140.00 input  175.53 | X-H torsion
[ 8008 7997 7996 7995 ] final   53.67 input   59.86 | X-H torsion
[ 10167 10162 10161 10158 ] final   28.83 input  -65.29 | X-H torsion
[ 10718 10713 10712 10709 ] final  141.09 input   66.30 | X-H torsion
[ 10763 10752 10751 10750 ] final  -43.63 input  -60.55 | X-H torsion
[ 11005 11000 10999 10996 ] final   29.87 input  -57.11 | X-H torsion

> <Gold.Protein.ActiveResidues>
 VAL166  LYS551  ARG553  GLY616  TRP617  ASP618  TYR619  PRO620  LYS621  CYS622 
 ASP623  PHE694  ASN695  SER759  ASP760  ASP761  ALA762  ILE779  LEU786  VAL792 
 PHE793  MET794  SER795  GLU796  ALA797  LYS798  CYS799  TRP800  GLU811  SER814 

> <Gold.Protein.RotatedAtoms>
  151.7880  135.0743  160.0383 H   0  0  0  0  0  0  0  0  0  0  0  0  # atno 6907 bound_to 6896
  152.3176  133.5815  159.5731 H   0  0  0  0  0  0  0  0  0  0  0  0  # atno 6908 bound_to 6896
  150.7352  133.9975  159.3669 H   0  0  0  0  0  0  0  0  0  0  0  0  # atno 6909 bound_to 6896
  144.9226  139.5148  143.5656 H   0  0  0  0  0  0  0  0  0  0  0  0  # atno 7974 bound_to 7965
  155.4721  140.3465  155.4327 H   0  0  0  0  0  0  0  0  0  0  0  0  # atno 8008 bound_to 7997
  156.1094  140.1457  156.9388 H   0  0  0  0  0  0  0  0  0  0  0  0  # atno 8009 bound_to 7997
  154.4746  140.0889  156.7209 H   0  0  0  0  0  0  0  0  0  0  0  0  # atno 8010 bound_to 7997
  140.4819  144.0603  150.6268 H   0  0  0  0  0  0  0  0  0  0  0  0  # atno 10167 bound_to 10162
  157.3960  131.1011  151.0600 H   0  0  0  0  0  0  0  0  0  0  0  0  # atno 10718 bound_to 10713
  153.9988  135.6696  153.4758 H   0  0  0  0  0  0  0  0  0  0  0  0  # atno 10763 bound_to 10752
  153.0672  135.4994  154.8221 H   0  0  0  0  0  0  0  0  0  0  0  0  # atno 10764 bound_to 10752
  154.7065  135.3089  154.9225 H   0  0  0  0  0  0  0  0  0  0  0  0  # atno 10765 bound_to 10752
  140.3004  134.2763  155.7755 H   0  0  0  0  0  0  0  0  0  0  0  0  # atno 11005 bound_to 11000
  146.3212  139.8117  142.8944 LP  0  0  0  0  0  0  0  0  0  0  0  0  # atno 17320 bound_to 7965
  145.3271  141.0258  143.3467 LP  0  0  0  0  0  0  0  0  0  0  0  0  # atno 17321 bound_to 7965
  140.3847  143.2784  152.0130 LP  0  0  0  0  0  0  0  0  0  0  0  0  # atno 17342 bound_to 10162
  139.4835  144.6126  151.7405 LP  0  0  0  0  0  0  0  0  0  0  0  0  # atno 17343 bound_to 10162
  157.1616  130.6228  149.5612 LP  0  0  0  0  0  0  0  0  0  0  0  0  # atno 17370 bound_to 10713
  155.9810  130.4815  150.6806 LP  0  0  0  0  0  0  0  0  0  0  0  0  # atno 17371 bound_to 10713
  141.2129  133.7642  156.9759 LP  0  0  0  0  0  0  0  0  0  0  0  0  # atno 17394 bound_to 11000
  140.1114  134.9474  157.2071 LP  0  0  0  0  0  0  0  0  0  0  0  0  # atno 17395 bound_to 11000

$$$$
