AV-unprocessed.smi:2079|AV-procd|sdf|8482|dock9
  -GOLD-   2272011183D 1   1.00000     0.00000
 Structure written by MMmdl.
 41 42  0  0  0  0  0  0  0  0  3 V2000
  146.9545  136.3381  162.8709 C   0  0  0  0  0  0  0  0  0  0  0  0
  147.5274  136.1952  161.5021 C   0  0  0  0  0  0  0  0  0  0  0  0
  148.1039  135.1465  160.8433 C   0  0  0  0  0  0  0  0  0  0  0  0
  148.4305  135.6995  159.5750 C   0  0  0  0  0  0  0  0  0  0  0  0
  149.0116  135.0459  158.5571 N   0  5  0  0  0  0  0  0  0  0  0  0
  149.0244  135.5884  157.3181 C   0  0  0  0  0  0  0  0  0  0  0  0
  149.2228  136.7727  157.0373 O   0  0  0  0  0  0  0  0  0  0  0  0
  148.7937  134.7022  156.3407 N   0  0  0  0  0  0  0  0  0  0  0  0
  148.7462  135.0163  154.9196 C   0  0  0  0  0  0  0  0  0  0  0  0
  147.2997  135.3153  154.4875 C   0  0  0  0  0  0  0  0  0  0  0  0
  146.9976  134.8623  153.0985 N   0  3  1  0  0  0  0  0  0  0  0  0
  147.3562  133.4269  152.9016 C   0  0  0  0  0  0  0  0  0  0  0  0
  147.1736  132.9778  151.4454 C   0  0  0  0  0  0  0  0  0  0  0  0
  145.7345  133.2128  150.9891 C   0  0  0  0  0  0  0  0  0  0  0  0
  145.3770  134.6867  151.1912 C   0  0  0  0  0  0  0  0  0  0  0  0
  145.5923  135.1442  152.6519 C   0  0  2  0  0  0  0  0  0  0  0  0
  145.2021  136.6338  152.7570 C   0  0  0  0  0  0  0  0  0  0  0  0
  148.0697  136.9675  159.4679 N   0  0  0  0  0  0  0  0  0  0  0  0
  147.4958  137.2950  160.7022 O   0  0  0  0  0  0  0  0  0  0  0  0
  146.2166  135.5590  163.0632 H   0  0  0  0  0  0  0  0  0  0  0  0
  146.4646  137.3043  162.9938 H   0  0  0  0  0  0  0  0  0  0  0  0
  147.7370  136.2574  163.6252 H   0  0  0  0  0  0  0  0  0  0  0  0
  148.2683  134.1443  161.2097 H   0  0  0  0  0  0  0  0  0  0  0  0
  148.6360  133.7422  156.6105 H   0  0  0  0  0  0  0  0  0  0  0  0
  149.3845  135.8789  154.7212 H   0  0  0  0  0  0  0  0  0  0  0  0
  149.1620  134.1697  154.3743 H   0  0  0  0  0  0  0  0  0  0  0  0
  146.5891  134.8656  155.1827 H   0  0  0  0  0  0  0  0  0  0  0  0
  147.1766  136.3914  154.5796 H   0  0  0  0  0  0  0  0  0  0  0  0
  148.3933  133.2436  153.1748 H   0  0  0  0  0  0  0  0  0  0  0  0
  146.7454  132.8076  153.5606 H   0  0  0  0  0  0  0  0  0  0  0  0
  147.8628  133.5241  150.8001 H   0  0  0  0  0  0  0  0  0  0  0  0
  147.4266  131.9217  151.3467 H   0  0  0  0  0  0  0  0  0  0  0  0
  145.6191  132.9349  149.9410 H   0  0  0  0  0  0  0  0  0  0  0  0
  145.0525  132.5812  151.5599 H   0  0  0  0  0  0  0  0  0  0  0  0
  145.9808  135.3001  150.5202 H   0  0  0  0  0  0  0  0  0  0  0  0
  144.3385  134.8447  150.8976 H   0  0  0  0  0  0  0  0  0  0  0  0
  144.9172  134.5719  153.2907 H   0  0  0  0  0  0  0  0  0  0  0  0
  144.2485  136.8210  152.2625 H   0  0  0  0  0  0  0  0  0  0  0  0
  145.9462  137.2759  152.2848 H   0  0  0  0  0  0  0  0  0  0  0  0
  145.0694  136.9607  153.7875 H   0  0  0  0  0  0  0  0  0  0  0  0
  147.5981  135.3999  152.4897 H   0  0  0  0  0  0  0  0  0  0  0  0
  1  2  1  0  0  0  0
  1 20  1  0  0  0  0
  1 21  1  0  0  0  0
  1 22  1  0  0  0  0
  2 19  1  0  0  0  0
  2  3  2  0  0  0  0
  3  4  1  0  0  0  0
  3 23  1  0  0  0  0
  4  5  1  0  0  0  0
  4 18  2  0  0  0  0
  5  6  1  0  0  0  0
  6  7  2  0  0  0  0
  6  8  1  0  0  0  0
  8  9  1  0  0  0  0
  8 24  1  0  0  0  0
  9 10  1  0  0  0  0
  9 25  1  0  0  0  0
  9 26  1  0  0  0  0
 10 11  1  0  0  0  0
 10 27  1  0  0  0  0
 10 28  1  0  0  0  0
 11 16  1  0  0  0  0
 11 12  1  0  0  0  0
 11 41  1  0  0  0  0
 12 13  1  0  0  0  0
 12 29  1  0  0  0  0
 12 30  1  0  0  0  0
 13 14  1  0  0  0  0
 13 31  1  0  0  0  0
 13 32  1  0  0  0  0
 14 15  1  0  0  0  0
 14 33  1  0  0  0  0
 14 34  1  0  0  0  0
 15 16  1  0  0  0  0
 15 35  1  0  0  0  0
 15 36  1  0  0  0  0
 16 17  1  0  0  0  0
 16 37  1  0  0  0  0
 17 38  1  0  0  0  0
 17 39  1  0  0  0  0
 17 40  1  0  0  0  0
 18 19  1  0  0  0  0
M  CHG  1   5  -1
M  CHG  1  11   1
M  END
> <s_m_source_file>
AV-unprocessed.smi

> <i_m_source_file_index>
2079

> <i_lp_mmshare_version>
43012

> <i_f3d_flags>
0

> <s_epik_input>
W0NIM11jMVtjSF1jKG5vMSlbTkhdQyg9TylbTkhdW0NIMl1bQ0gyXU4yW0NIMl1bQ0gyXVtDSDJdW0NIMl1bQ0BIXTJbQ0gzXQ==

> <s_epik_cmdline>
J2VwaWtfcHl0aG9uJywgJy1waCcsICc3LjAnLCAnLXRuJywgJzgnLCAnLW1hJywgJzIwMCcsICctbWV0YWxfYmluZGluZycsICctaW1hZScsICc8aW5maWxlLm1hZT4nLCAnLW9tYWUnLCAnPG91dGZpbGUubWFlPic=

> <r_epik_Ionization_Penalty>
6.22371

> <r_epik_Ionization_Penalty_Charging>
6.22362

> <r_epik_Ionization_Penalty_Neutral>
9.40454e-05

> <r_epik_State_Penalty>
6.22363

> <r_epik_Charging_Adjusted_Penalty>
12.4472

> <i_epik_Tot_Q>
0

> <i_epik_Tot_abs_Q>
2

> <r_epik_Metal_State_Penalty>
2.16675

> <b_epik_Metal_Only>
1

> <s_lp_Force_Field>
OPLS_2005

> <r_lp_Energy>
8.88901

> <b_lp_Chiralities_Consistent>
1

> <s_lp_Variant>
AV-unprocessed.smi:2079-8

> <Gold.Version>
5.8.1

> <Gold.Id.Protein>
6NUR|6NUR_protein|mol2

> <Gold.PLP.Fitness>
42.4004

> <Gold.PLP.PLP>
-27.1647

> <Gold.PLP.part.hbond>
-4.0000

> <Gold.PLP.part.metal>
0.0000

> <Gold.PLP.part.buried>
-1.6985

> <Gold.PLP.part.nonpolar>
-20.9451

> <Gold.PLP.part.repulsive>
0.0225

> <Gold.PLP.ligand.clash>
0.0000

> <Gold.PLP.ligand.torsion>
0.7834

> <Gold.PLP.Chemscore.Hbond>
5.5840

> <Gold.PLP.Chemscore.CHOScore>
0.0000

> <Gold.PLP.Chemscore.Metal>
0.0000

> <Gold.Chemscore.Hbonds>
donor molecule, donor type, donor heavy atom, donor atom, acceptor molecule, acceptor atom, score
      L1  H    11    41       P1  7948  2.00
      P1  H  6896  6909       L1     5  1.49
      P1  H  6931  6943       L1    19  0.26
      P1  H  6934  6947       L1    19  1.00

> <Gold.PLP.Chemscore.Internal.Correction>
0.0505

> <Gold.Rescore>
     Score         DG    S(hbond)    S(metal)    S(lipo)     H(rot)  DE(clash)    DE(int)     intcor
     13.55     -17.69       2.64        0.00      62.75       1.54       1.52       2.61       ----

> <Gold.Chemscore.Fitness>
13.5530

> <Gold.Chemscore.DG>
-17.6860

> <Gold.Chemscore.ZeroCoef>
-5.4800

> <Gold.Chemscore.Hbond>
2.6374

> <Gold.Chemscore.Metal>
0.0000

> <Gold.Chemscore.Lipo>
62.7490

> <Gold.Chemscore.Internal_Hbond>
0.0000

> <Gold.Chemscore.DEClash>
1.5239

> <Gold.Chemscore.DEInternal>
2.6090

> <Gold.Chemscore.Rot>
1.5409

> <Gold.Chemscore.Internal.Correction>
   9.000000E+99

> <Gold.Chemscore.Hbonds>
donor molecule, donor type, donor heavy atom, donor atom, acceptor molecule, acceptor atom, score
      L1  H    11    41       P1  7948  1.00
      P1  H  6896  6909       L1     5  0.43
      P1  H  6931  6943       L1    19  0.01
      P1  H  6934  6947       L1    19  0.84

> <Gold.Chemscore.Hbond.Weighted>
-8.8090

> <Gold.Chemscore.Metal.Weighted>
-0.0000

> <Gold.Chemscore.Lipo.Weighted>
-7.3416

> <Gold.Chemscore.Internal_Hbond.Weighted>
0.0000

> <Gold.Chemscore.DEClash.Weighted>
1.5239

> <Gold.Chemscore.DEInternal.Weighted>
2.6090

> <Gold.Chemscore.Rot.Weighted>
3.9446

> <Gold.Chemscore.Internal.Correction.Weighted>
   9.000000E+99

> <Gold.Protein.RotatedTorsions>
[ 6907 6896 6895 6894 ] final   14.22 input  -60.11 | X-H torsion
[ 7974 7965 7964 7962 ] final -118.93 input  175.53 | X-H torsion
[ 8008 7997 7996 7995 ] final  -49.47 input   59.86 | X-H torsion
[ 10167 10162 10161 10158 ] final   57.40 input  -65.29 | X-H torsion
[ 10718 10713 10712 10709 ] final -153.48 input   66.30 | X-H torsion
[ 10763 10752 10751 10750 ] final -164.48 input  -60.55 | X-H torsion
[ 11005 11000 10999 10996 ] final -176.45 input  -57.11 | X-H torsion

> <Gold.Protein.ActiveResidues>
 VAL166  LYS551  ARG553  GLY616  TRP617  ASP618  TYR619  PRO620  LYS621  CYS622 
 ASP623  PHE694  ASN695  SER759  ASP760  ASP761  ALA762  ILE779  LEU786  VAL792 
 PHE793  MET794  SER795  GLU796  ALA797  LYS798  CYS799  TRP800  GLU811  SER814 

> <Gold.Protein.RotatedAtoms>
  151.7988  135.0715  160.0397 H   0  0  0  0  0  0  0  0  0  0  0  0  # atno 6907 bound_to 6896
  152.3104  133.5742  159.5685 H   0  0  0  0  0  0  0  0  0  0  0  0  # atno 6908 bound_to 6896
  150.7317  134.0077  159.3701 H   0  0  0  0  0  0  0  0  0  0  0  0  # atno 6909 bound_to 6896
  145.0682  140.8340  143.4111 H   0  0  0  0  0  0  0  0  0  0  0  0  # atno 7974 bound_to 7965
  154.4044  140.1296  156.4507 H   0  0  0  0  0  0  0  0  0  0  0  0  # atno 8008 bound_to 7997
  155.7369  140.3490  155.5065 H   0  0  0  0  0  0  0  0  0  0  0  0  # atno 8009 bound_to 7997
  155.9076  140.1030  157.1294 H   0  0  0  0  0  0  0  0  0  0  0  0  # atno 8010 bound_to 7997
  140.1984  144.4013  150.6540 H   0  0  0  0  0  0  0  0  0  0  0  0  # atno 10167 bound_to 10162
  156.4864  130.8327  151.2552 H   0  0  0  0  0  0  0  0  0  0  0  0  # atno 10718 bound_to 10713
  154.7024  135.2990  154.9320 H   0  0  0  0  0  0  0  0  0  0  0  0  # atno 10763 bound_to 10752
  154.0248  135.6678  153.4779 H   0  0  0  0  0  0  0  0  0  0  0  0  # atno 10764 bound_to 10752
  153.0691  135.5071  154.8176 H   0  0  0  0  0  0  0  0  0  0  0  0  # atno 10765 bound_to 10752
  140.4520  134.6335  157.4805 H   0  0  0  0  0  0  0  0  0  0  0  0  # atno 11005 bound_to 11000
  145.1325  139.2623  143.5532 LP  0  0  0  0  0  0  0  0  0  0  0  0  # atno 17320 bound_to 7965
  146.3527  140.0980  142.8609 LP  0  0  0  0  0  0  0  0  0  0  0  0  # atno 17321 bound_to 7965
  140.6407  143.2203  151.6296 LP  0  0  0  0  0  0  0  0  0  0  0  0  # atno 17342 bound_to 10162
  139.5227  144.3155  152.0956 LP  0  0  0  0  0  0  0  0  0  0  0  0  # atno 17343 bound_to 10162
  157.7478  131.0028  150.3013 LP  0  0  0  0  0  0  0  0  0  0  0  0  # atno 17370 bound_to 10713
  156.3470  130.3824  149.7361 LP  0  0  0  0  0  0  0  0  0  0  0  0  # atno 17371 bound_to 10713
  140.0001  134.6850  155.9545 LP  0  0  0  0  0  0  0  0  0  0  0  0  # atno 17394 bound_to 11000
  141.1660  133.6537  156.4481 LP  0  0  0  0  0  0  0  0  0  0  0  0  # atno 17395 bound_to 11000

$$$$
