AV-unprocessed.smi:938|AV-procd|sdf|4217|dock8
  -GOLD-   22720 2123D 1   1.00000     0.00000
 Structure written by MMmdl.
 42 43  0  0  0  0  0  0  0  0  1 V2000
  156.1169  138.0349  165.7858 C   0  0  0  0  0  0  0  0  0  0  0  0
  156.3821  139.5447  165.8475 C   0  0  0  0  0  0  0  0  0  0  0  0
  155.9569  140.1467  167.1938 C   0  0  0  0  0  0  0  0  0  0  0  0
  155.6646  140.2096  164.7634 N   0  0  0  0  0  0  0  0  0  0  0  0
  155.7710  139.9315  163.4520 C   0  0  0  0  0  0  0  0  0  0  0  0
  156.5186  139.0627  163.0009 O   0  0  0  0  0  0  0  0  0  0  0  0
  154.9344  140.7816  162.5325 C   0  0  0  0  0  0  0  0  0  0  0  0
  154.8933  140.5001  161.1491 C   0  0  0  0  0  0  0  0  0  0  0  0
  154.0911  141.3179  160.3356 C   0  0  0  0  0  0  0  0  0  0  0  0
  153.3817  142.3624  160.9576 C   0  0  0  0  0  0  0  0  0  0  0  0
  152.5745  143.2025  160.1785 N   0  0  0  0  0  0  0  0  0  0  0  0
  152.0473  144.3437  160.9125 C   0  0  0  0  0  0  0  0  0  0  0  0
  151.3205  145.2925  159.9482 C   0  0  0  0  0  0  0  0  0  0  0  0
  150.3143  144.5810  159.2278 O   0  0  0  0  0  0  0  0  0  0  0  0
  150.7769  143.4433  158.4896 C   0  0  0  0  0  0  0  0  0  0  0  0
  149.5102  142.7504  157.9639 C   0  0  0  0  0  0  0  0  0  0  0  0
  151.6504  143.8790  157.2935 C   0  0  0  0  0  0  0  0  0  0  0  0
  151.5347  142.4912  159.4451 C   0  0  0  0  0  0  0  0  0  0  0  0
  153.4554  142.5842  162.2932 N   0  0  0  0  0  0  0  0  0  0  0  0
  154.2177  141.8040  163.0665 N   0  0  0  0  0  0  0  0  0  0  0  0
  156.6595  137.5091  166.5720 H   0  0  0  0  0  0  0  0  0  0  0  0
  156.4387  137.6195  164.8302 H   0  0  0  0  0  0  0  0  0  0  0  0
  155.0562  137.8119  165.9064 H   0  0  0  0  0  0  0  0  0  0  0  0
  157.4572  139.6961  165.7379 H   0  0  0  0  0  0  0  0  0  0  0  0
  156.4938  139.6788  168.0195 H   0  0  0  0  0  0  0  0  0  0  0  0
  154.8894  140.0106  167.3712 H   0  0  0  0  0  0  0  0  0  0  0  0
  156.1669  141.2164  167.2295 H   0  0  0  0  0  0  0  0  0  0  0  0
  155.0283  140.9480  165.0284 H   0  0  0  0  0  0  0  0  0  0  0  0
  155.4571  139.6863  160.7170 H   0  0  0  0  0  0  0  0  0  0  0  0
  154.0244  141.1489  159.2707 H   0  0  0  0  0  0  0  0  0  0  0  0
  151.3563  143.9995  161.6835 H   0  0  0  0  0  0  0  0  0  0  0  0
  152.8589  144.8696  161.4167 H   0  0  0  0  0  0  0  0  0  0  0  0
  150.8451  146.0979  160.5078 H   0  0  0  0  0  0  0  0  0  0  0  0
  152.0233  145.7668  159.2630 H   0  0  0  0  0  0  0  0  0  0  0  0
  149.7560  141.8548  157.3924 H   0  0  0  0  0  0  0  0  0  0  0  0
  148.9388  143.4129  157.3128 H   0  0  0  0  0  0  0  0  0  0  0  0
  148.8543  142.4507  158.7820 H   0  0  0  0  0  0  0  0  0  0  0  0
  151.9064  143.0245  156.6664 H   0  0  0  0  0  0  0  0  0  0  0  0
  152.5897  144.3334  157.6070 H   0  0  0  0  0  0  0  0  0  0  0  0
  151.1272  144.6020  156.6671 H   0  0  0  0  0  0  0  0  0  0  0  0
  151.9733  141.6635  158.8856 H   0  0  0  0  0  0  0  0  0  0  0  0
  150.8359  142.0538  160.1604 H   0  0  0  0  0  0  0  0  0  0  0  0
  1  2  1  0  0  0  0
  1 21  1  0  0  0  0
  1 22  1  0  0  0  0
  1 23  1  0  0  0  0
  2  3  1  0  0  0  0
  2  4  1  0  0  0  0
  2 24  1  0  0  0  0
  3 25  1  0  0  0  0
  3 26  1  0  0  0  0
  3 27  1  0  0  0  0
  4  5  1  0  0  0  0
  4 28  1  0  0  0  0
  5  6  2  0  0  0  0
  5  7  1  0  0  0  0
  7 20  1  0  0  0  0
  7  8  2  0  0  0  0
  8  9  1  0  0  0  0
  8 29  1  0  0  0  0
  9 10  2  0  0  0  0
  9 30  1  0  0  0  0
 10 11  1  0  0  0  0
 10 19  1  0  0  0  0
 11 18  1  0  0  0  0
 11 12  1  0  0  0  0
 12 13  1  0  0  0  0
 12 31  1  0  0  0  0
 12 32  1  0  0  0  0
 13 14  1  0  0  0  0
 13 33  1  0  0  0  0
 13 34  1  0  0  0  0
 14 15  1  0  0  0  0
 15 16  1  0  0  0  0
 15 17  1  0  0  0  0
 15 18  1  0  0  0  0
 16 35  1  0  0  0  0
 16 36  1  0  0  0  0
 16 37  1  0  0  0  0
 17 38  1  0  0  0  0
 17 39  1  0  0  0  0
 17 40  1  0  0  0  0
 18 41  1  0  0  0  0
 18 42  1  0  0  0  0
 19 20  2  0  0  0  0
M  END
> <s_m_source_file>
AV-unprocessed.smi

> <i_m_source_file_index>
938

> <i_lp_mmshare_version>
43012

> <i_f3d_flags>
0

> <s_epik_input>
W0NIM11bQ0hdKFtDSDNdKVtOSF1DKD1PKWMxW2NIXVtjSF1jKG5uMSlOKFtDSDJdMilbQ0gyXVtDSDJdT0MyKFtDSDNdKVtDSDNd

> <s_epik_cmdline>
J2VwaWtfcHl0aG9uJywgJy1waCcsICc3LjAnLCAnLXRuJywgJzgnLCAnLW1hJywgJzIwMCcsICctbWV0YWxfYmluZGluZycsICctaW1hZScsICc8aW5maWxlLm1hZT4nLCAnLW9tYWUnLCAnPG91dGZpbGUubWFlPic=

> <r_lp_tautomer_probability>
1

> <r_epik_Ionization_Penalty>
1.44833e-06

> <r_epik_Ionization_Penalty_Charging>
0

> <r_epik_Ionization_Penalty_Neutral>
1.44833e-06

> <r_epik_State_Penalty>
-0

> <r_epik_Charging_Adjusted_Penalty>
0

> <i_epik_Tot_Q>
0

> <i_epik_Tot_abs_Q>
0

> <r_epik_Metal_State_Penalty>
-0

> <b_epik_Metal_Only>
0

> <s_lp_Force_Field>
OPLS_2005

> <r_lp_Energy>
32.4644

> <b_lp_Chiralities_Consistent>
1

> <s_lp_Variant>
AV-unprocessed.smi:938-1

> <Gold.Version>
5.8.1

> <Gold.Id.Protein>
6NUR|6NUR_protein|mol2

> <Gold.PLP.Fitness>
35.6561

> <Gold.PLP.PLP>
-35.7279

> <Gold.PLP.part.hbond>
-1.0000

> <Gold.PLP.part.metal>
0.0000

> <Gold.PLP.part.buried>
-2.3495

> <Gold.PLP.part.nonpolar>
-32.2205

> <Gold.PLP.part.repulsive>
0.2632

> <Gold.PLP.ligand.clash>
0.0000

> <Gold.PLP.ligand.torsion>
0.0857

> <Gold.PLP.Chemscore.Hbond>
0.0000

> <Gold.PLP.Chemscore.CHOScore>
0.0000

> <Gold.PLP.Chemscore.Metal>
0.0000

> <Gold.PLP.Chemscore.Internal.Correction>
0.0997

> <Gold.Rescore>
     Score         DG    S(hbond)    S(metal)    S(lipo)     H(rot)  DE(clash)    DE(int)     intcor
     13.51     -14.00       0.00        0.00      98.52       1.17       0.41       0.08       ----

> <Gold.Chemscore.Fitness>
13.5102

> <Gold.Chemscore.DG>
-13.9993

> <Gold.Chemscore.ZeroCoef>
-5.4800

> <Gold.Chemscore.Hbond>
0.0000

> <Gold.Chemscore.Metal>
0.0000

> <Gold.Chemscore.Lipo>
98.5208

> <Gold.Chemscore.Internal_Hbond>
0.0000

> <Gold.Chemscore.DEClash>
0.4102

> <Gold.Chemscore.DEInternal>
0.0789

> <Gold.Chemscore.Rot>
1.1749

> <Gold.Chemscore.Internal.Correction>
   9.000000E+99

> <Gold.Chemscore.Hbond.Weighted>
-0.0000

> <Gold.Chemscore.Metal.Weighted>
-0.0000

> <Gold.Chemscore.Lipo.Weighted>
-11.5269

> <Gold.Chemscore.Internal_Hbond.Weighted>
0.0000

> <Gold.Chemscore.DEClash.Weighted>
0.4102

> <Gold.Chemscore.DEInternal.Weighted>
0.0789

> <Gold.Chemscore.Rot.Weighted>
3.0076

> <Gold.Chemscore.Internal.Correction.Weighted>
   9.000000E+99

> <Gold.Protein.RotatedTorsions>
[ 6907 6896 6895 6894 ] final -125.96 input  -60.11 | X-H torsion
[ 7974 7965 7964 7962 ] final  -28.20 input  175.53 | X-H torsion
[ 8008 7997 7996 7995 ] final   -1.51 input   59.86 | X-H torsion
[ 10167 10162 10161 10158 ] final   79.99 input  -65.29 | X-H torsion
[ 10718 10713 10712 10709 ] final  -27.36 input   66.30 | X-H torsion
[ 10763 10752 10751 10750 ] final -171.05 input  -60.55 | X-H torsion
[ 11005 11000 10999 10996 ] final  117.50 input  -57.11 | X-H torsion

> <Gold.Protein.ActiveResidues>
 VAL166  LYS551  ARG553  GLY616  TRP617  ASP618  TYR619  PRO620  LYS621  CYS622 
 ASP623  PHE694  ASN695  SER759  ASP760  ASP761  ALA762  ILE779  LEU786  VAL792 
 PHE793  MET794  SER795  GLU796  ALA797  LYS798  CYS799  TRP800  GLU811  SER814 

> <Gold.Protein.RotatedAtoms>
  150.8920  133.7231  159.2901 H   0  0  0  0  0  0  0  0  0  0  0  0  # atno 6907 bound_to 6896
  151.4778  135.1049  159.9779 H   0  0  0  0  0  0  0  0  0  0  0  0  # atno 6908 bound_to 6896
  152.4826  133.8244  159.7126 H   0  0  0  0  0  0  0  0  0  0  0  0  # atno 6909 bound_to 6896
  146.1304  140.5252  142.8696 H   0  0  0  0  0  0  0  0  0  0  0  0  # atno 7974 bound_to 7965
  154.6460  140.2557  155.7268 H   0  0  0  0  0  0  0  0  0  0  0  0  # atno 8008 bound_to 7997
  156.2552  140.2878  156.0794 H   0  0  0  0  0  0  0  0  0  0  0  0  # atno 8009 bound_to 7997
  155.1524  140.0382  157.2814 H   0  0  0  0  0  0  0  0  0  0  0  0  # atno 8010 bound_to 7997
  139.9545  144.6004  150.8130 H   0  0  0  0  0  0  0  0  0  0  0  0  # atno 10167 bound_to 10162
  156.4392  130.4461  149.7064 H   0  0  0  0  0  0  0  0  0  0  0  0  # atno 10718 bound_to 10713
  154.6348  135.2891  155.0173 H   0  0  0  0  0  0  0  0  0  0  0  0  # atno 10763 bound_to 10752
  154.1321  135.6532  153.4928 H   0  0  0  0  0  0  0  0  0  0  0  0  # atno 10764 bound_to 10752
  153.0297  135.5313  154.7191 H   0  0  0  0  0  0  0  0  0  0  0  0  # atno 10765 bound_to 10752
  139.9076  134.9611  156.7360 H   0  0  0  0  0  0  0  0  0  0  0  0  # atno 11005 bound_to 11000
  144.7685  140.5584  143.6686 LP  0  0  0  0  0  0  0  0  0  0  0  0  # atno 17320 bound_to 7965
  145.5272  139.1475  143.3519 LP  0  0  0  0  0  0  0  0  0  0  0  0  # atno 17321 bound_to 7965
  140.7573  143.3083  151.2908 LP  0  0  0  0  0  0  0  0  0  0  0  0  # atno 17342 bound_to 10162
  139.6603  144.0202  152.2687 LP  0  0  0  0  0  0  0  0  0  0  0  0  # atno 17343 bound_to 10162
  156.3936  130.7639  151.2642 LP  0  0  0  0  0  0  0  0  0  0  0  0  # atno 17370 bound_to 10713
  157.7506  131.0260  150.3946 LP  0  0  0  0  0  0  0  0  0  0  0  0  # atno 17371 bound_to 10713
  140.6888  133.9409  155.7953 LP  0  0  0  0  0  0  0  0  0  0  0  0  # atno 17394 bound_to 11000
  141.0457  134.0557  157.3847 LP  0  0  0  0  0  0  0  0  0  0  0  0  # atno 17395 bound_to 11000

$$$$
