AV-unprocessed.smi:2999|AV-procd|sdf|11426|dock3
  -GOLD-   2272016353D 1   1.00000     0.00000
 Structure written by MMmdl.
 37 39  0  0  0  0  0  0  0  0  3 V2000
  149.0235  135.3280  159.0534 O   0  0  0  0  0  0  0  0  0  0  0  0
  148.8062  136.4785  159.4398 C   0  0  0  0  0  0  0  0  0  0  0  0
  149.1762  137.5212  158.6842 N   0  0  0  0  0  0  0  0  0  0  0  0
  149.8958  137.4537  157.4154 C   0  0  0  0  0  0  0  0  0  0  0  0
  149.3174  138.3995  156.3417 C   0  0  1  0  0  0  0  0  0  0  0  0
  149.1608  139.8638  156.8187 C   0  0  0  0  0  0  0  0  0  0  0  0
  148.6649  140.7403  155.7320 N   0  3  2  0  0  0  0  0  0  0  0  0
  147.2123  140.5998  155.4770 C   0  0  0  0  0  0  0  0  0  0  0  0
  146.7163  141.4426  154.3255 C   0  0  0  0  0  0  0  0  0  0  0  0
  146.4262  141.8607  155.7497 C   0  0  0  0  0  0  0  0  0  0  0  0
  149.4951  140.5941  154.5132 C   0  0  0  0  0  0  0  0  0  0  0  0
  149.6300  139.1170  154.1029 C   0  0  0  0  0  0  0  0  0  0  0  0
  150.1523  138.3632  155.1885 O   0  0  0  0  0  0  0  0  0  0  0  0
  148.2151  136.8371  160.6013 N   0  5  0  0  0  0  0  0  0  0  0  0
  147.7421  135.8944  161.4327 C   0  0  0  0  0  0  0  0  0  0  0  0
  147.3045  134.7032  161.0091 N   0  0  0  0  0  0  0  0  0  0  0  0
  146.8627  133.8748  162.0425 C   0  0  0  0  0  0  0  0  0  0  0  0
  146.9730  134.4462  163.2824 C   0  0  0  0  0  0  0  0  0  0  0  0
  147.6405  136.0510  163.1887 S   0  0  0  0  0  0  0  0  0  0  0  0
  148.9634  138.4421  159.0387 H   0  0  0  0  0  0  0  0  0  0  0  0
  150.9589  137.6477  157.5660 H   0  0  0  0  0  0  0  0  0  0  0  0
  149.8231  136.4250  157.0621 H   0  0  0  0  0  0  0  0  0  0  0  0
  148.3405  138.0036  156.0599 H   0  0  0  0  0  0  0  0  0  0  0  0
  148.4983  139.9216  157.6830 H   0  0  0  0  0  0  0  0  0  0  0  0
  150.1242  140.2614  157.1399 H   0  0  0  0  0  0  0  0  0  0  0  0
  146.7694  139.6254  155.6731 H   0  0  0  0  0  0  0  0  0  0  0  0
  147.4420  142.0313  153.7672 H   0  0  0  0  0  0  0  0  0  0  0  0
  145.8845  141.0546  153.7411 H   0  0  0  0  0  0  0  0  0  0  0  0
  145.4039  141.7475  156.1047 H   0  0  0  0  0  0  0  0  0  0  0  0
  146.9594  142.7275  156.1366 H   0  0  0  0  0  0  0  0  0  0  0  0
  149.0791  141.1863  153.6975 H   0  0  0  0  0  0  0  0  0  0  0  0
  150.4853  141.0022  154.7206 H   0  0  0  0  0  0  0  0  0  0  0  0
  148.6726  138.7037  153.7828 H   0  0  0  0  0  0  0  0  0  0  0  0
  150.3105  139.0262  153.2562 H   0  0  0  0  0  0  0  0  0  0  0  0
  146.4852  132.8917  161.8040 H   0  0  0  0  0  0  0  0  0  0  0  0
  146.7058  134.0244  164.2393 H   0  0  0  0  0  0  0  0  0  0  0  0
  148.7916  141.6899  156.0520 H   0  0  0  0  0  0  0  0  0  0  0  0
  1  2  2  0  0  0  0
  2  3  1  0  0  0  0
  2 14  1  0  0  0  0
  3  4  1  0  0  0  0
  3 20  1  0  0  0  0
  4  5  1  0  0  0  0
  4 21  1  0  0  0  0
  4 22  1  0  0  0  0
  5 13  1  0  0  0  0
  5  6  1  0  0  0  0
  5 23  1  0  0  0  0
  6  7  1  0  0  0  0
  6 24  1  0  0  0  0
  6 25  1  0  0  0  0
  7  8  1  0  0  0  0
  7 11  1  0  0  0  0
  7 37  1  0  0  0  0
  8 10  1  0  0  0  0
  8  9  1  0  0  0  0
  8 26  1  0  0  0  0
  9 10  1  0  0  0  0
  9 27  1  0  0  0  0
  9 28  1  0  0  0  0
 10 29  1  0  0  0  0
 10 30  1  0  0  0  0
 11 12  1  0  0  0  0
 11 31  1  0  0  0  0
 11 32  1  0  0  0  0
 12 13  1  0  0  0  0
 12 33  1  0  0  0  0
 12 34  1  0  0  0  0
 14 15  1  0  0  0  0
 15 19  1  0  0  0  0
 15 16  2  0  0  0  0
 16 17  1  0  0  0  0
 17 18  2  0  0  0  0
 17 35  1  0  0  0  0
 18 19  1  0  0  0  0
 18 36  1  0  0  0  0
M  CHG  1   7   1
M  CHG  1  14  -1
M  END
> <s_m_source_file>
AV-unprocessed.smi

> <i_m_source_file_index>
2999

> <i_lp_mmshare_version>
43012

> <i_f3d_flags>
0

> <s_epik_input>
czFbY0hdW2NIXW5jMVtOSF1DKD1PKVtOSF1bQ0gyXVtDQEBIXTJbQ0gyXU4oW0NIMl1bQ0gyXU8yKVtDSF0zW0NIMl1bQ0gyXTM=

> <s_epik_cmdline>
J2VwaWtfcHl0aG9uJywgJy1waCcsICc3LjAnLCAnLXRuJywgJzgnLCAnLW1hJywgJzIwMCcsICctbWV0YWxfYmluZGluZycsICctaW1hZScsICc8aW5maWxlLm1hZT4nLCAnLW9tYWUnLCAnPG91dGZpbGUubWFlPic=

> <r_lp_tautomer_probability>
0.999

> <r_epik_Ionization_Penalty>
7.79196

> <r_epik_Ionization_Penalty_Charging>
6.93299

> <r_epik_Ionization_Penalty_Neutral>
0.858963

> <r_epik_State_Penalty>
7.05108

> <r_epik_Charging_Adjusted_Penalty>
13.9841

> <i_epik_Tot_Q>
0

> <i_epik_Tot_abs_Q>
2

> <r_epik_Metal_State_Penalty>
3.05936

> <b_epik_Metal_Only>
1

> <s_lp_Force_Field>
OPLS_2005

> <r_lp_Energy>
16.0159

> <b_lp_Chiralities_Consistent>
1

> <s_lp_Variant>
AV-unprocessed.smi:2999-10

> <Gold.Version>
5.8.1

> <Gold.Id.Protein>
6NUR|6NUR_protein|mol2

> <Gold.PLP.Fitness>
41.8412

> <Gold.PLP.PLP>
-30.5599

> <Gold.PLP.part.hbond>
-3.0000

> <Gold.PLP.part.metal>
0.0000

> <Gold.PLP.part.buried>
-2.0130

> <Gold.PLP.part.nonpolar>
-26.6231

> <Gold.PLP.part.repulsive>
0.2734

> <Gold.PLP.ligand.clash>
0.0000

> <Gold.PLP.ligand.torsion>
1.0815

> <Gold.PLP.Chemscore.Hbond>
4.0591

> <Gold.PLP.Chemscore.CHOScore>
0.0000

> <Gold.PLP.Chemscore.Metal>
0.0000

> <Gold.Chemscore.Hbonds>
donor molecule, donor type, donor heavy atom, donor atom, acceptor molecule, acceptor atom, score
      P1  H  6896  6907       L1     1  1.00
      P1  H  6931  6943       L1    14  1.60

> <Gold.PLP.Chemscore.Internal.Correction>
1.2670

> <Gold.Rescore>
     Score         DG    S(hbond)    S(metal)    S(lipo)     H(rot)  DE(clash)    DE(int)     intcor
     12.67     -15.24       1.95        0.00      61.78       1.55       0.02       2.55       ----

> <Gold.Chemscore.Fitness>
12.6667

> <Gold.Chemscore.DG>
-15.2389

> <Gold.Chemscore.ZeroCoef>
-5.4800

> <Gold.Chemscore.Hbond>
1.9460

> <Gold.Chemscore.Metal>
0.0000

> <Gold.Chemscore.Lipo>
61.7800

> <Gold.Chemscore.Internal_Hbond>
0.0000

> <Gold.Chemscore.DEClash>
0.0211

> <Gold.Chemscore.DEInternal>
2.5510

> <Gold.Chemscore.Rot>
1.5504

> <Gold.Chemscore.Internal.Correction>
   9.000000E+99

> <Gold.Chemscore.Hbonds>
donor molecule, donor type, donor heavy atom, donor atom, acceptor molecule, acceptor atom, score
      P1  H  6896  6907       L1     1  0.96
      P1  H  6931  6943       L1    14  0.34
      P1  H  6934  6947       L1    14  0.04

> <Gold.Chemscore.Hbond.Weighted>
-6.4996

> <Gold.Chemscore.Metal.Weighted>
-0.0000

> <Gold.Chemscore.Lipo.Weighted>
-7.2283

> <Gold.Chemscore.Internal_Hbond.Weighted>
0.0000

> <Gold.Chemscore.DEClash.Weighted>
0.0211

> <Gold.Chemscore.DEInternal.Weighted>
2.5510

> <Gold.Chemscore.Rot.Weighted>
3.9690

> <Gold.Chemscore.Internal.Correction.Weighted>
   9.000000E+99

> <Gold.Protein.RotatedTorsions>
[ 6907 6896 6895 6894 ] final  -73.81 input  -60.11 | X-H torsion
[ 7974 7965 7964 7962 ] final  137.67 input  175.53 | X-H torsion
[ 8008 7997 7996 7995 ] final -159.53 input   59.86 | X-H torsion
[ 10167 10162 10161 10158 ] final   78.20 input  -65.29 | X-H torsion
[ 10718 10713 10712 10709 ] final   -7.47 input   66.30 | X-H torsion
[ 10763 10752 10751 10750 ] final -107.15 input  -60.55 | X-H torsion
[ 11005 11000 10999 10996 ] final   67.06 input  -57.11 | X-H torsion

> <Gold.Protein.ActiveResidues>
 VAL166  LYS551  ARG553  GLY616  TRP617  ASP618  TYR619  PRO620  LYS621  CYS622 
 ASP623  PHE694  ASN695  SER759  ASP760  ASP761  ALA762  ILE779  LEU786  VAL792 
 PHE793  MET794  SER795  GLU796  ALA797  LYS798  CYS799  TRP800  GLU811  SER814 

> <Gold.Protein.RotatedAtoms>
  150.7116  134.4961  159.5538 H   0  0  0  0  0  0  0  0  0  0  0  0  # atno 6907 bound_to 6896
  152.2568  134.8072  160.0446 H   0  0  0  0  0  0  0  0  0  0  0  0  # atno 6908 bound_to 6896
  151.8800  133.3458  159.3800 H   0  0  0  0  0  0  0  0  0  0  0  0  # atno 6909 bound_to 6896
  144.9446  139.4890  143.5555 H   0  0  0  0  0  0  0  0  0  0  0  0  # atno 7974 bound_to 7965
  155.7639  140.0843  157.2141 H   0  0  0  0  0  0  0  0  0  0  0  0  # atno 8008 bound_to 7997
  154.4001  140.1538  156.2921 H   0  0  0  0  0  0  0  0  0  0  0  0  # atno 8009 bound_to 7997
  155.8812  140.3420  155.5892 H   0  0  0  0  0  0  0  0  0  0  0  0  # atno 8010 bound_to 7997
  139.9735  144.5877  150.7964 H   0  0  0  0  0  0  0  0  0  0  0  0  # atno 10167 bound_to 10162
  156.7168  130.5138  149.5878 H   0  0  0  0  0  0  0  0  0  0  0  0  # atno 10718 bound_to 10713
  154.8057  135.4686  154.0386 H   0  0  0  0  0  0  0  0  0  0  0  0  # atno 10763 bound_to 10752
  153.1857  135.6847  153.8426 H   0  0  0  0  0  0  0  0  0  0  0  0  # atno 10764 bound_to 10752
  153.7961  135.3236  155.3362 H   0  0  0  0  0  0  0  0  0  0  0  0  # atno 10765 bound_to 10752
  139.9793  134.6770  156.0292 H   0  0  0  0  0  0  0  0  0  0  0  0  # atno 11005 bound_to 11000
  146.3298  139.8489  142.8877 LP  0  0  0  0  0  0  0  0  0  0  0  0  # atno 17320 bound_to 7965
  145.2938  141.0175  143.3648 LP  0  0  0  0  0  0  0  0  0  0  0  0  # atno 17321 bound_to 7965
  140.7514  143.2972  151.3175 LP  0  0  0  0  0  0  0  0  0  0  0  0  # atno 17342 bound_to 10162
  139.6463  144.0445  152.2593 LP  0  0  0  0  0  0  0  0  0  0  0  0  # atno 17343 bound_to 10162
  156.1622  130.6382  151.0734 LP  0  0  0  0  0  0  0  0  0  0  0  0  # atno 17370 bound_to 10713
  157.6914  131.0808  150.7096 LP  0  0  0  0  0  0  0  0  0  0  0  0  # atno 17371 bound_to 10713
  141.1467  133.6555  156.3889 LP  0  0  0  0  0  0  0  0  0  0  0  0  # atno 17394 bound_to 11000
  140.5129  134.6378  157.5291 LP  0  0  0  0  0  0  0  0  0  0  0  0  # atno 17395 bound_to 11000

$$$$
