AV-unprocessed.smi:2013|AV-procd|sdf|8160|dock1
  -GOLD-   2272010403D 1   1.00000     0.00000
 Structure written by MMmdl.
 50 51  0  0  0  0  0  0  0  0  1 V2000
  146.1576  137.6420  151.9476 C   0  0  0  0  0  0  0  0  0  0  0  0
  145.2990  136.4025  151.6244 C   0  0  0  0  0  0  0  0  0  0  0  0
  143.8786  136.5452  152.1976 C   0  0  0  0  0  0  0  0  0  0  0  0
  145.9313  135.0072  151.9342 C   0  0  1  0  0  0  0  0  0  0  0  0
  146.1207  134.7264  153.4531 C   0  0  0  0  0  0  0  0  0  0  0  0
  147.4622  135.0555  153.9229 N   0  0  0  0  0  0  0  0  0  0  0  0
  147.8773  134.9542  155.1942 C   0  0  0  0  0  0  0  0  0  0  0  0
  147.1378  134.6258  156.1229 O   0  0  0  0  0  0  0  0  0  0  0  0
  149.3527  135.2811  155.4544 C   0  0  0  0  0  0  0  0  0  0  0  0
  149.6736  136.6816  155.1532 N   0  0  0  0  0  0  0  0  0  0  0  0
  148.6534  137.5992  154.9804 C   0  0  0  0  0  0  0  0  0  0  0  0
  148.8653  138.9087  154.7248 C   0  0  0  0  0  0  0  0  0  0  0  0
  150.2180  139.4413  154.6125 C   0  0  0  0  0  0  0  0  0  0  0  0
  150.4532  140.6305  154.3961 O   0  0  0  0  0  0  0  0  0  0  0  0
  151.2424  138.4788  154.7818 N   0  0  0  0  0  0  0  0  0  0  0  0
  152.6249  138.9035  154.7060 C   0  0  0  0  0  0  0  0  0  0  0  0
  151.0144  137.1130  155.0585 C   0  0  0  0  0  0  0  0  0  0  0  0
  151.9445  136.3184  155.2197 O   0  0  0  0  0  0  0  0  0  0  0  0
  145.3697  133.8807  151.1628 N   0  0  0  0  0  0  0  0  0  0  0  0
  146.1634  132.6584  151.2758 C   0  0  0  0  0  0  0  0  0  0  0  0
  145.6325  131.5468  150.3555 C   0  0  0  0  0  0  0  0  0  0  0  0
  144.2652  131.2921  150.6592 O   0  0  0  0  0  0  0  0  0  0  0  0
  143.4473  132.4484  150.5141 C   0  0  0  0  0  0  0  0  0  0  0  0
  143.9655  133.5729  151.4278 C   0  0  0  0  0  0  0  0  0  0  0  0
  146.2325  137.8378  153.0145 H   0  0  0  0  0  0  0  0  0  0  0  0
  145.7112  138.5320  151.5033 H   0  0  0  0  0  0  0  0  0  0  0  0
  147.1661  137.5647  151.5438 H   0  0  0  0  0  0  0  0  0  0  0  0
  145.1688  136.4297  150.5419 H   0  0  0  0  0  0  0  0  0  0  0  0
  143.8888  136.5886  153.2871 H   0  0  0  0  0  0  0  0  0  0  0  0
  143.2492  135.7052  151.9020 H   0  0  0  0  0  0  0  0  0  0  0  0
  143.4000  137.4562  151.8370 H   0  0  0  0  0  0  0  0  0  0  0  0
  146.9455  135.1235  151.5489 H   0  0  0  0  0  0  0  0  0  0  0  0
  145.4129  135.3069  154.0440 H   0  0  0  0  0  0  0  0  0  0  0  0
  145.9203  133.6815  153.6900 H   0  0  0  0  0  0  0  0  0  0  0  0
  148.1335  135.3401  153.2243 H   0  0  0  0  0  0  0  0  0  0  0  0
  149.6142  135.0540  156.4897 H   0  0  0  0  0  0  0  0  0  0  0  0
  149.9616  134.6153  154.8418 H   0  0  0  0  0  0  0  0  0  0  0  0
  147.6321  137.2553  155.0599 H   0  0  0  0  0  0  0  0  0  0  0  0
  148.0219  139.5729  154.6058 H   0  0  0  0  0  0  0  0  0  0  0  0
  153.1530  138.2117  154.0471 H   0  0  0  0  0  0  0  0  0  0  0  0
  153.0233  138.8704  155.7214 H   0  0  0  0  0  0  0  0  0  0  0  0
  152.7046  139.9089  154.2933 H   0  0  0  0  0  0  0  0  0  0  0  0
  147.2040  132.8645  151.0239 H   0  0  0  0  0  0  0  0  0  0  0  0
  146.1550  132.2937  152.3028 H   0  0  0  0  0  0  0  0  0  0  0  0
  145.7338  131.8313  149.3071 H   0  0  0  0  0  0  0  0  0  0  0  0
  146.2065  130.6309  150.4963 H   0  0  0  0  0  0  0  0  0  0  0  0
  143.4442  132.7706  149.4717 H   0  0  0  0  0  0  0  0  0  0  0  0
  142.4198  132.1932  150.7730 H   0  0  0  0  0  0  0  0  0  0  0  0
  143.8361  133.2713  152.4676 H   0  0  0  0  0  0  0  0  0  0  0  0
  143.3429  134.4477  151.2718 H   0  0  0  0  0  0  0  0  0  0  0  0
  1  2  1  0  0  0  0
  1 25  1  0  0  0  0
  1 26  1  0  0  0  0
  1 27  1  0  0  0  0
  2  3  1  0  0  0  0
  2  4  1  0  0  0  0
  2 28  1  0  0  0  0
  3 29  1  0  0  0  0
  3 30  1  0  0  0  0
  3 31  1  0  0  0  0
  4  5  1  0  0  0  0
  4 19  1  0  0  0  0
  4 32  1  0  0  0  0
  5  6  1  0  0  0  0
  5 33  1  0  0  0  0
  5 34  1  0  0  0  0
  6  7  1  0  0  0  0
  6 35  1  0  0  0  0
  7  8  2  0  0  0  0
  7  9  1  0  0  0  0
  9 10  1  0  0  0  0
  9 36  1  0  0  0  0
  9 37  1  0  0  0  0
 10 17  1  0  0  0  0
 10 11  1  0  0  0  0
 11 12  2  0  0  0  0
 11 38  1  0  0  0  0
 12 13  1  0  0  0  0
 12 39  1  0  0  0  0
 13 14  2  0  0  0  0
 13 15  1  0  0  0  0
 15 16  1  0  0  0  0
 15 17  1  0  0  0  0
 16 40  1  0  0  0  0
 16 41  1  0  0  0  0
 16 42  1  0  0  0  0
 17 18  2  0  0  0  0
 19 24  1  0  0  0  0
 19 20  1  0  0  0  0
 20 21  1  0  0  0  0
 20 43  1  0  0  0  0
 20 44  1  0  0  0  0
 21 22  1  0  0  0  0
 21 45  1  0  0  0  0
 21 46  1  0  0  0  0
 22 23  1  0  0  0  0
 23 24  1  0  0  0  0
 23 47  1  0  0  0  0
 23 48  1  0  0  0  0
 24 49  1  0  0  0  0
 24 50  1  0  0  0  0
M  END
> <s_m_source_file>
AV-unprocessed.smi

> <i_m_source_file_index>
2013

> <i_lp_mmshare_version>
43012

> <i_f3d_flags>
0

> <s_epik_input>
W0NIMl0xW0NIMl1PW0NIMl1bQ0gyXU4xW0NASF0oW0NIXShbQ0gzXSlbQ0gzXSlbQ0gyXVtOSF1DKD1PKVtDSDJdbjJbY0hdW2NIXWMoPU8pbihbQ0gzXSljMj1P

> <s_epik_cmdline>
J2VwaWtfcHl0aG9uJywgJy1waCcsICc3LjAnLCAnLXRuJywgJzgnLCAnLW1hJywgJzIwMCcsICctbWV0YWxfYmluZGluZycsICctaW1hZScsICc8aW5maWxlLm1hZT4nLCAnLW9tYWUnLCAnPG91dGZpbGUubWFlPic=

> <r_lp_tautomer_probability>
1

> <r_epik_Ionization_Penalty>
0.45351

> <r_epik_Ionization_Penalty_Charging>
1.24653e-08

> <r_epik_Ionization_Penalty_Neutral>
0.45351

> <r_epik_State_Penalty>
0.456487

> <r_epik_Charging_Adjusted_Penalty>
0.456487

> <i_epik_Tot_Q>
0

> <i_epik_Tot_abs_Q>
0

> <r_epik_Metal_State_Penalty>
0.456449

> <b_epik_Metal_Only>
0

> <s_lp_Force_Field>
OPLS_2005

> <r_lp_Energy>
45.5307

> <b_lp_Chiralities_Consistent>
1

> <s_lp_Variant>
AV-unprocessed.smi:2013-4

> <Gold.Version>
5.8.1

> <Gold.Id.Protein>
6NUR|6NUR_protein|mol2

> <Gold.PLP.Fitness>
45.3132

> <Gold.PLP.PLP>
-38.2394

> <Gold.PLP.part.hbond>
-3.4605

> <Gold.PLP.part.metal>
0.0000

> <Gold.PLP.part.buried>
-3.5210

> <Gold.PLP.part.nonpolar>
-32.7474

> <Gold.PLP.part.repulsive>
0.4621

> <Gold.PLP.ligand.clash>
0.0000

> <Gold.PLP.ligand.torsion>
1.0229

> <Gold.PLP.Chemscore.Hbond>
2.8241

> <Gold.PLP.Chemscore.CHOScore>
0.0000

> <Gold.PLP.Chemscore.Metal>
0.0000

> <Gold.Chemscore.Hbonds>
donor molecule, donor type, donor heavy atom, donor atom, acceptor molecule, acceptor atom, score
      L1  H     6    35       P1  7948  1.00
      P1  H  7989  7998       L1    14  0.82
      P1  H 10752 10763       L1    18  0.74

> <Gold.PLP.Chemscore.Internal.Correction>
0.6475

> <Gold.Rescore>
     Score         DG    S(hbond)    S(metal)    S(lipo)     H(rot)  DE(clash)    DE(int)     intcor
     16.24     -18.94       2.94        0.00      79.43       2.20       0.42       2.28       ----

> <Gold.Chemscore.Fitness>
16.2420

> <Gold.Chemscore.DG>
-18.9410

> <Gold.Chemscore.ZeroCoef>
-5.4800

> <Gold.Chemscore.Hbond>
2.9372

> <Gold.Chemscore.Metal>
0.0000

> <Gold.Chemscore.Lipo>
79.4255

> <Gold.Chemscore.Internal_Hbond>
0.0000

> <Gold.Chemscore.DEClash>
0.4216

> <Gold.Chemscore.DEInternal>
2.2773

> <Gold.Chemscore.Rot>
2.2039

> <Gold.Chemscore.Internal.Correction>
   9.000000E+99

> <Gold.Chemscore.Hbonds>
donor molecule, donor type, donor heavy atom, donor atom, acceptor molecule, acceptor atom, score
      L1  H     6    35       P1  7948  1.00
      P1  H  7989  7998       L1    14  0.70
      P1  H 10752 10763       L1    18  0.71

> <Gold.Chemscore.Hbond.Weighted>
-9.8102

> <Gold.Chemscore.Metal.Weighted>
-0.0000

> <Gold.Chemscore.Lipo.Weighted>
-9.2928

> <Gold.Chemscore.Internal_Hbond.Weighted>
0.0000

> <Gold.Chemscore.DEClash.Weighted>
0.4216

> <Gold.Chemscore.DEInternal.Weighted>
2.2773

> <Gold.Chemscore.Rot.Weighted>
5.6420

> <Gold.Chemscore.Internal.Correction.Weighted>
   9.000000E+99

> <Gold.Protein.RotatedTorsions>
[ 6907 6896 6895 6894 ] final  -81.08 input  -60.11 | X-H torsion
[ 7974 7965 7964 7962 ] final  -36.62 input  175.53 | X-H torsion
[ 8008 7997 7996 7995 ] final   46.25 input   59.86 | X-H torsion
[ 10167 10162 10161 10158 ] final -144.14 input  -65.29 | X-H torsion
[ 10718 10713 10712 10709 ] final -163.96 input   66.30 | X-H torsion
[ 10763 10752 10751 10750 ] final   87.22 input  -60.55 | X-H torsion
[ 11005 11000 10999 10996 ] final   20.16 input  -57.11 | X-H torsion

> <Gold.Protein.ActiveResidues>
 VAL166  LYS551  ARG553  GLY616  TRP617  ASP618  TYR619  PRO620  LYS621  CYS622 
 ASP623  PHE694  ASN695  SER759  ASP760  ASP761  ALA762  ILE779  LEU786  VAL792 
 PHE793  MET794  SER795  GLU796  ALA797  LYS798  CYS799  TRP800  GLU811  SER814 

> <Gold.Protein.RotatedAtoms>
  150.6918  134.3872  159.5060 H   0  0  0  0  0  0  0  0  0  0  0  0  # atno 6907 bound_to 6896
  152.1666  134.8866  160.0547 H   0  0  0  0  0  0  0  0  0  0  0  0  # atno 6908 bound_to 6896
  151.9908  133.3755  159.4180 H   0  0  0  0  0  0  0  0  0  0  0  0  # atno 6909 bound_to 6896
  146.0646  140.6299  142.8981 H   0  0  0  0  0  0  0  0  0  0  0  0  # atno 7974 bound_to 7965
  155.3494  140.3412  155.4239 H   0  0  0  0  0  0  0  0  0  0  0  0  # atno 8008 bound_to 7997
  156.1772  140.1651  156.8377 H   0  0  0  0  0  0  0  0  0  0  0  0  # atno 8009 bound_to 7997
  154.5294  140.0748  156.8301 H   0  0  0  0  0  0  0  0  0  0  0  0  # atno 8010 bound_to 7997
  139.7927  143.7943  152.2651 H   0  0  0  0  0  0  0  0  0  0  0  0  # atno 10167 bound_to 10162
  156.6322  130.8934  151.2980 H   0  0  0  0  0  0  0  0  0  0  0  0  # atno 10718 bound_to 10713
  153.1647  135.4551  154.9821 H   0  0  0  0  0  0  0  0  0  0  0  0  # atno 10763 bound_to 10752
  154.7923  135.3225  154.7750 H   0  0  0  0  0  0  0  0  0  0  0  0  # atno 10764 bound_to 10752
  153.8235  135.6945  153.4878 H   0  0  0  0  0  0  0  0  0  0  0  0  # atno 10765 bound_to 10752
  140.4057  134.1672  155.7665 H   0  0  0  0  0  0  0  0  0  0  0  0  # atno 11005 bound_to 11000
  144.7195  140.4324  143.7019 LP  0  0  0  0  0  0  0  0  0  0  0  0  # atno 17320 bound_to 7965
  145.6500  139.1563  143.2867 LP  0  0  0  0  0  0  0  0  0  0  0  0  # atno 17321 bound_to 7965
  139.8039  144.7363  150.9787 LP  0  0  0  0  0  0  0  0  0  0  0  0  # atno 17342 bound_to 10162
  140.7820  143.4317  151.0684 LP  0  0  0  0  0  0  0  0  0  0  0  0  # atno 17343 bound_to 10162
  157.7196  130.9542  150.1388 LP  0  0  0  0  0  0  0  0  0  0  0  0  # atno 17370 bound_to 10713
  156.2225  130.3675  149.8539 LP  0  0  0  0  0  0  0  0  0  0  0  0  # atno 17371 bound_to 10713
  141.1840  133.8352  157.1154 LP  0  0  0  0  0  0  0  0  0  0  0  0  # atno 17394 bound_to 11000
  140.0304  134.9904  157.0769 LP  0  0  0  0  0  0  0  0  0  0  0  0  # atno 17395 bound_to 11000

$$$$
