AV-unprocessed.smi:2889|AV-procd|sdf|11115|dock9
  -GOLD-   2272015583D 1   1.00000     0.00000
 Structure written by MMmdl.
 35 36  0  0  0  0  0  0  0  0  2 V2000
  150.3371  141.3387  155.8532 C   0  0  0  0  0  0  0  0  0  0  0  0
  150.7845  140.2088  157.2005 S   0  0  0  0  0  0  0  0  0  0  0  0
  152.1190  141.1447  158.0189 C   0  0  1  0  0  0  0  0  0  0  0  0
  151.5422  142.4811  158.5607 C   0  0  0  0  0  0  0  0  0  0  0  0
  152.5883  143.3473  159.2908 C   0  0  0  0  0  0  0  0  0  0  0  0
  153.2512  142.5150  160.4051 C   0  0  0  0  0  0  0  0  0  0  0  0
  153.8499  141.1914  159.8721 C   0  0  0  0  0  0  0  0  0  0  0  0
  152.8244  140.3017  159.1228 C   0  0  2  0  0  0  0  0  0  0  0  0
  153.5128  139.1619  158.5330 N   0  5  0  0  0  0  0  0  0  0  0  0
  153.6567  137.7807  159.3706 S   0  0  0  0  0  0  0  0  0  0  0  0
  152.3776  137.0666  159.5183 O   0  0  0  0  0  0  0  0  0  0  0  0
  154.8211  136.9913  158.9376 O   0  0  0  0  0  0  0  0  0  0  0  0
  154.0896  138.4363  161.0422 C   0  0  0  0  0  0  0  0  0  0  0  0
  154.2912  137.3095  162.0193 C   0  0  0  0  0  0  0  0  0  0  0  0
  153.7249  137.1497  163.3151 C   0  0  0  0  0  0  0  0  0  0  0  0
  154.2459  135.9653  163.7483 C   0  0  0  0  0  0  0  0  0  0  0  0
  155.0725  135.4386  162.8102 O   0  0  0  0  0  0  0  0  0  0  0  0
  155.0982  136.3052  161.7116 N   0  0  0  0  0  0  0  0  0  0  0  0
  149.5145  140.9208  155.2735 H   0  0  0  0  0  0  0  0  0  0  0  0
  151.1816  141.4986  155.1832 H   0  0  0  0  0  0  0  0  0  0  0  0
  150.0220  142.3024  156.2531 H   0  0  0  0  0  0  0  0  0  0  0  0
  152.8546  141.4041  157.2558 H   0  0  0  0  0  0  0  0  0  0  0  0
  151.1231  143.0553  157.7338 H   0  0  0  0  0  0  0  0  0  0  0  0
  150.7068  142.2838  159.2360 H   0  0  0  0  0  0  0  0  0  0  0  0
  153.3454  143.6870  158.5829 H   0  0  0  0  0  0  0  0  0  0  0  0
  152.1211  144.2398  159.7075 H   0  0  0  0  0  0  0  0  0  0  0  0
  154.0376  143.1039  160.8777 H   0  0  0  0  0  0  0  0  0  0  0  0
  152.5212  142.3085  161.1904 H   0  0  0  0  0  0  0  0  0  0  0  0
  154.6794  141.4307  159.2045 H   0  0  0  0  0  0  0  0  0  0  0  0
  154.2842  140.6368  160.7044 H   0  0  0  0  0  0  0  0  0  0  0  0
  152.0630  139.9864  159.8377 H   0  0  0  0  0  0  0  0  0  0  0  0
  155.0018  139.0239  160.9370 H   0  0  0  0  0  0  0  0  0  0  0  0
  153.3010  139.1145  161.3668 H   0  0  0  0  0  0  0  0  0  0  0  0
  153.0377  137.7990  163.8372 H   0  0  0  0  0  0  0  0  0  0  0  0
  154.1318  135.3930  164.6567 H   0  0  0  0  0  0  0  0  0  0  0  0
  1  2  1  0  0  0  0
  1 19  1  0  0  0  0
  1 20  1  0  0  0  0
  1 21  1  0  0  0  0
  2  3  1  0  0  0  0
  3  8  1  0  0  0  0
  3  4  1  0  0  0  0
  3 22  1  0  0  0  0
  4  5  1  0  0  0  0
  4 23  1  0  0  0  0
  4 24  1  0  0  0  0
  5  6  1  0  0  0  0
  5 25  1  0  0  0  0
  5 26  1  0  0  0  0
  6  7  1  0  0  0  0
  6 27  1  0  0  0  0
  6 28  1  0  0  0  0
  7  8  1  0  0  0  0
  7 29  1  0  0  0  0
  7 30  1  0  0  0  0
  8  9  1  0  0  0  0
  8 31  1  0  0  0  0
  9 10  1  0  0  0  0
 10 11  2  0  0  0  0
 10 12  2  0  0  0  0
 10 13  1  0  0  0  0
 13 14  1  0  0  0  0
 13 32  1  0  0  0  0
 13 33  1  0  0  0  0
 14 18  2  0  0  0  0
 14 15  1  0  0  0  0
 15 16  2  0  0  0  0
 15 34  1  0  0  0  0
 16 17  1  0  0  0  0
 16 35  1  0  0  0  0
 17 18  1  0  0  0  0
M  CHG  1   9  -1
M  END
> <s_m_source_file>
AV-unprocessed.smi

> <i_m_source_file_index>
2889

> <i_lp_mmshare_version>
43012

> <i_f3d_flags>
0

> <s_epik_input>
W0NIM11TW0NAQEhdMVtDSDJdW0NIMl1bQ0gyXVtDSDJdW0NASF0xW05IXVMoPU8pKD1PKVtDSDJdYzJbY0hdW2NIXW9uMg==

> <s_epik_cmdline>
J2VwaWtfcHl0aG9uJywgJy1waCcsICc3LjAnLCAnLXRuJywgJzgnLCAnLW1hJywgJzIwMCcsICctbWV0YWxfYmluZGluZycsICctaW1hZScsICc8aW5maWxlLm1hZT4nLCAnLW9tYWUnLCAnPG91dGZpbGUubWFlPic=

> <r_lp_tautomer_probability>
1

> <r_epik_Ionization_Penalty>
4.65467

> <r_epik_Ionization_Penalty_Charging>
4.65467

> <r_epik_Ionization_Penalty_Neutral>
2.71476e-10

> <r_epik_State_Penalty>
4.65444

> <r_epik_Charging_Adjusted_Penalty>
9.30911

> <i_epik_Tot_Q>
-1

> <i_epik_Tot_abs_Q>
1

> <r_epik_Metal_State_Penalty>
0.901484

> <b_epik_Metal_Only>
1

> <s_lp_Force_Field>
OPLS_2005

> <r_lp_Energy>
9.1096

> <b_lp_Chiralities_Consistent>
1

> <s_lp_Variant>
AV-unprocessed.smi:2889-8

> <Gold.Version>
5.8.1

> <Gold.Id.Protein>
6NUR|6NUR_protein|mol2

> <Gold.PLP.Fitness>
42.8679

> <Gold.PLP.PLP>
-35.2492

> <Gold.PLP.part.hbond>
-1.9356

> <Gold.PLP.part.metal>
0.0000

> <Gold.PLP.part.buried>
-4.5455

> <Gold.PLP.part.nonpolar>
-28.4376

> <Gold.PLP.part.repulsive>
0.0000

> <Gold.PLP.ligand.clash>
0.0000

> <Gold.PLP.ligand.torsion>
1.0587

> <Gold.PLP.Chemscore.Hbond>
2.9100

> <Gold.PLP.Chemscore.CHOScore>
0.0000

> <Gold.PLP.Chemscore.Metal>
0.0000

> <Gold.Chemscore.Hbonds>
donor molecule, donor type, donor heavy atom, donor atom, acceptor molecule, acceptor atom, score
      P1  H  6896  6908       L1    11  0.89
      P1  H  7997  8009       L1     9  2.00

> <Gold.PLP.Chemscore.Internal.Correction>
1.0061

> <Gold.Rescore>
     Score         DG    S(hbond)    S(metal)    S(lipo)     H(rot)  DE(clash)    DE(int)     intcor
     15.72     -17.96       1.51        0.00      97.15       1.53       0.02       2.21       ----

> <Gold.Chemscore.Fitness>
15.7222

> <Gold.Chemscore.DG>
-17.9572

> <Gold.Chemscore.ZeroCoef>
-5.4800

> <Gold.Chemscore.Hbond>
1.5063

> <Gold.Chemscore.Metal>
0.0000

> <Gold.Chemscore.Lipo>
97.1495

> <Gold.Chemscore.Internal_Hbond>
0.0000

> <Gold.Chemscore.DEClash>
0.0231

> <Gold.Chemscore.DEInternal>
2.2119

> <Gold.Chemscore.Rot>
1.5314

> <Gold.Chemscore.Internal.Correction>
   9.000000E+99

> <Gold.Chemscore.Hbonds>
donor molecule, donor type, donor heavy atom, donor atom, acceptor molecule, acceptor atom, score
      P1  H  6896  6908       L1    11  0.87
      P1  H  7997  8009       L1     9  0.37

> <Gold.Chemscore.Hbond.Weighted>
-5.0312

> <Gold.Chemscore.Metal.Weighted>
-0.0000

> <Gold.Chemscore.Lipo.Weighted>
-11.3665

> <Gold.Chemscore.Internal_Hbond.Weighted>
0.0000

> <Gold.Chemscore.DEClash.Weighted>
0.0231

> <Gold.Chemscore.DEInternal.Weighted>
2.2119

> <Gold.Chemscore.Rot.Weighted>
3.9205

> <Gold.Chemscore.Internal.Correction.Weighted>
   9.000000E+99

> <Gold.Protein.RotatedTorsions>
[ 6907 6896 6895 6894 ] final -108.85 input  -60.11 | X-H torsion
[ 7974 7965 7964 7962 ] final  -30.80 input  175.53 | X-H torsion
[ 8008 7997 7996 7995 ] final  143.33 input   59.86 | X-H torsion
[ 10167 10162 10161 10158 ] final  125.19 input  -65.29 | X-H torsion
[ 10718 10713 10712 10709 ] final  -97.54 input   66.30 | X-H torsion
[ 10763 10752 10751 10750 ] final -100.67 input  -60.55 | X-H torsion
[ 11005 11000 10999 10996 ] final  -20.60 input  -57.11 | X-H torsion

> <Gold.Protein.ActiveResidues>
 VAL166  LYS551  ARG553  GLY616  TRP617  ASP618  TYR619  PRO620  LYS621  CYS622 
 ASP623  PHE694  ASN695  SER759  ASP760  ASP761  ALA762  ILE779  LEU786  VAL792 
 PHE793  MET794  SER795  GLU796  ALA797  LYS798  CYS799  TRP800  GLU811  SER814 

> <Gold.Protein.RotatedAtoms>
  150.7526  133.9616  159.3517 H   0  0  0  0  0  0  0  0  0  0  0  0  # atno 6907 bound_to 6896
  151.7542  135.0823  160.0345 H   0  0  0  0  0  0  0  0  0  0  0  0  # atno 6908 bound_to 6896
  152.3446  133.6070  159.5937 H   0  0  0  0  0  0  0  0  0  0  0  0  # atno 6909 bound_to 6896
  146.1116  140.5586  142.8775 H   0  0  0  0  0  0  0  0  0  0  0  0  # atno 7974 bound_to 7965
  156.2932  140.2265  156.4873 H   0  0  0  0  0  0  0  0  0  0  0  0  # atno 8008 bound_to 7997
  154.7801  140.0461  157.1141 H   0  0  0  0  0  0  0  0  0  0  0  0  # atno 8009 bound_to 7997
  154.9769  140.3073  155.4966 H   0  0  0  0  0  0  0  0  0  0  0  0  # atno 8010 bound_to 7997
  139.5699  144.6933  151.3807 H   0  0  0  0  0  0  0  0  0  0  0  0  # atno 10167 bound_to 10162
  156.0086  130.5199  150.6390 H   0  0  0  0  0  0  0  0  0  0  0  0  # atno 10718 bound_to 10713
  154.7597  135.4926  153.9441 H   0  0  0  0  0  0  0  0  0  0  0  0  # atno 10763 bound_to 10752
  153.1237  135.6737  153.9301 H   0  0  0  0  0  0  0  0  0  0  0  0  # atno 10764 bound_to 10752
  153.9025  135.3108  155.3427 H   0  0  0  0  0  0  0  0  0  0  0  0  # atno 10765 bound_to 10752
  140.8480  133.7877  155.9934 H   0  0  0  0  0  0  0  0  0  0  0  0  # atno 11005 bound_to 11000
  144.7516  140.5205  143.6798 LP  0  0  0  0  0  0  0  0  0  0  0  0  # atno 17320 bound_to 7965
  145.5652  139.1481  143.3319 LP  0  0  0  0  0  0  0  0  0  0  0  0  # atno 17321 bound_to 7965
  140.6983  143.7694  150.7362 LP  0  0  0  0  0  0  0  0  0  0  0  0  # atno 17342 bound_to 10162
  140.1197  143.4623  152.2321 LP  0  0  0  0  0  0  0  0  0  0  0  0  # atno 17343 bound_to 10162
  157.4173  131.0832  151.1164 LP  0  0  0  0  0  0  0  0  0  0  0  0  # atno 17370 bound_to 10713
  157.1777  130.6295  149.5661 LP  0  0  0  0  0  0  0  0  0  0  0  0  # atno 17371 bound_to 10713
  140.8821  134.2598  157.5138 LP  0  0  0  0  0  0  0  0  0  0  0  0  # atno 17394 bound_to 11000
  139.8704  134.9620  156.4415 LP  0  0  0  0  0  0  0  0  0  0  0  0  # atno 17395 bound_to 11000

$$$$
