AV-unprocessed.smi:1100|AV-procd|sdf|4762|dock6
  -GOLD-   22720 3303D 1   1.00000     0.00000
 Structure written by MMmdl.
 44 45  0  0  0  0  0  0  0  0  2 V2000
  147.3785  139.2133  153.5101 C   0  0  0  0  0  0  0  0  0  0  0  0
  147.8260  138.7468  154.9176 C   0  0  1  0  0  0  0  0  0  0  0  0
  147.3913  137.2731  155.1528 C   0  0  0  0  0  0  0  0  0  0  0  0
  147.4625  136.4502  153.9482 N   0  0  0  0  0  0  0  0  0  0  0  0
  146.4893  135.6358  153.5156 C   0  0  0  0  0  0  0  0  0  0  0  0
  145.4251  135.4868  154.1156 O   0  0  0  0  0  0  0  0  0  0  0  0
  146.8429  135.0318  152.3655 N   0  0  0  0  0  0  0  0  0  0  0  0
  146.0993  134.1640  151.5512 C   0  0  0  0  0  0  0  0  0  0  0  0
  144.6575  134.2907  151.5749 C   0  0  0  0  0  0  0  0  0  0  0  0
  143.8730  133.4865  150.8313 C   0  0  0  0  0  0  0  0  0  0  0  0
  144.4402  132.4488  149.9671 C   0  0  0  0  0  0  0  0  0  0  0  0
  143.7361  131.7106  149.2775 O   0  0  0  0  0  0  0  0  0  0  0  0
  145.8012  132.3534  149.9772 N   0  0  0  0  0  0  0  0  0  0  0  0
  146.4640  131.3399  149.1524 C   0  0  0  0  0  0  0  0  0  0  0  0
  146.6139  133.1986  150.7576 C   0  0  0  0  0  0  0  0  0  0  0  0
  149.2986  138.9142  155.1527 N   0  3  0  0  0  0  0  0  0  0  0  0
  150.1750  138.2556  154.1435 C   0  0  0  0  0  0  0  0  0  0  0  0
  151.6637  138.4657  154.4700 C   0  0  0  0  0  0  0  0  0  0  0  0
  151.9487  139.8532  154.5589 O   0  0  0  0  0  0  0  0  0  0  0  0
  151.2048  140.4684  155.5990 C   0  0  0  0  0  0  0  0  0  0  0  0
  149.7020  140.3405  155.3007 C   0  0  0  0  0  0  0  0  0  0  0  0
  146.3164  139.0388  153.3405 H   0  0  0  0  0  0  0  0  0  0  0  0
  147.9242  138.6888  152.7252 H   0  0  0  0  0  0  0  0  0  0  0  0
  147.5205  140.2847  153.3692 H   0  0  0  0  0  0  0  0  0  0  0  0
  147.3120  139.3846  155.6387 H   0  0  0  0  0  0  0  0  0  0  0  0
  148.0338  136.8167  155.9064 H   0  0  0  0  0  0  0  0  0  0  0  0
  146.3746  137.1989  155.5356 H   0  0  0  0  0  0  0  0  0  0  0  0
  148.3086  136.5135  153.4009 H   0  0  0  0  0  0  0  0  0  0  0  0
  147.7720  135.2323  152.0253 H   0  0  0  0  0  0  0  0  0  0  0  0
  144.1966  135.0427  152.1987 H   0  0  0  0  0  0  0  0  0  0  0  0
  142.8005  133.6079  150.8725 H   0  0  0  0  0  0  0  0  0  0  0  0
  147.5464  131.3277  149.2840 H   0  0  0  0  0  0  0  0  0  0  0  0
  146.2667  131.5204  148.0948 H   0  0  0  0  0  0  0  0  0  0  0  0
  146.0990  130.3423  149.4012 H   0  0  0  0  0  0  0  0  0  0  0  0
  147.6669  132.9890  150.6610 H   0  0  0  0  0  0  0  0  0  0  0  0
  150.0004  137.1808  154.1166 H   0  0  0  0  0  0  0  0  0  0  0  0
  149.9495  138.6502  153.1514 H   0  0  0  0  0  0  0  0  0  0  0  0
  151.9326  137.9653  155.4017 H   0  0  0  0  0  0  0  0  0  0  0  0
  152.2833  138.0296  153.6860 H   0  0  0  0  0  0  0  0  0  0  0  0
  151.4532  140.0180  156.5616 H   0  0  0  0  0  0  0  0  0  0  0  0
  151.4871  141.5198  155.6583 H   0  0  0  0  0  0  0  0  0  0  0  0
  149.4605  140.8844  154.3859 H   0  0  0  0  0  0  0  0  0  0  0  0
  149.1587  140.8266  156.1081 H   0  0  0  0  0  0  0  0  0  0  0  0
  149.4991  138.4595  156.0320 H   0  0  0  0  0  0  0  0  0  0  0  0
  1  2  1  0  0  0  0
  1 22  1  0  0  0  0
  1 23  1  0  0  0  0
  1 24  1  0  0  0  0
  2  3  1  0  0  0  0
  2 16  1  0  0  0  0
  2 25  1  0  0  0  0
  3  4  1  0  0  0  0
  3 26  1  0  0  0  0
  3 27  1  0  0  0  0
  4  5  1  0  0  0  0
  4 28  1  0  0  0  0
  5  6  2  0  0  0  0
  5  7  1  0  0  0  0
  7  8  1  0  0  0  0
  7 29  1  0  0  0  0
  8 15  2  0  0  0  0
  8  9  1  0  0  0  0
  9 10  2  0  0  0  0
  9 30  1  0  0  0  0
 10 11  1  0  0  0  0
 10 31  1  0  0  0  0
 11 12  2  0  0  0  0
 11 13  1  0  0  0  0
 13 14  1  0  0  0  0
 13 15  1  0  0  0  0
 14 32  1  0  0  0  0
 14 33  1  0  0  0  0
 14 34  1  0  0  0  0
 15 35  1  0  0  0  0
 16 21  1  0  0  0  0
 16 17  1  0  0  0  0
 16 44  1  0  0  0  0
 17 18  1  0  0  0  0
 17 36  1  0  0  0  0
 17 37  1  0  0  0  0
 18 19  1  0  0  0  0
 18 38  1  0  0  0  0
 18 39  1  0  0  0  0
 19 20  1  0  0  0  0
 20 21  1  0  0  0  0
 20 40  1  0  0  0  0
 20 41  1  0  0  0  0
 21 42  1  0  0  0  0
 21 43  1  0  0  0  0
M  CHG  1  16   1
M  END
> <s_m_source_file>
AV-unprocessed.smi

> <i_m_source_file_index>
1100

> <i_lp_mmshare_version>
43012

> <i_f3d_flags>
0

> <s_epik_input>
W0NIMl0xW0NIMl1PW0NIMl1bQ0gyXU4xW0NASF0oW0NIM10pW0NIMl1bTkhdQyg9TylbTkhdYzJbY0hdW2NIXWMoPU8pbihbQ0gzXSlbY0hdMg==

> <s_epik_cmdline>
J2VwaWtfcHl0aG9uJywgJy1waCcsICc3LjAnLCAnLXRuJywgJzgnLCAnLW1hJywgJzIwMCcsICctbWV0YWxfYmluZGluZycsICctaW1hZScsICc8aW5maWxlLm1hZT4nLCAnLW9tYWUnLCAnPG91dGZpbGUubWFlPic=

> <r_lp_tautomer_probability>
1

> <r_epik_Ionization_Penalty>
0.602556

> <r_epik_Ionization_Penalty_Charging>
0.602536

> <r_epik_Ionization_Penalty_Neutral>
1.99507e-05

> <r_epik_State_Penalty>
0.617039

> <r_epik_Charging_Adjusted_Penalty>
1.21958

> <i_epik_Tot_Q>
1

> <i_epik_Tot_abs_Q>
1

> <r_epik_Metal_State_Penalty>
0.619464

> <b_epik_Metal_Only>
0

> <s_lp_Force_Field>
OPLS_2005

> <r_lp_Energy>
33.6123

> <b_lp_Chiralities_Consistent>
1

> <s_lp_Variant>
AV-unprocessed.smi:1100-4

> <Gold.Version>
5.8.1

> <Gold.Id.Protein>
6NUR|6NUR_protein|mol2

> <Gold.PLP.Fitness>
46.3064

> <Gold.PLP.PLP>
-33.8363

> <Gold.PLP.part.hbond>
-3.7825

> <Gold.PLP.part.metal>
0.0000

> <Gold.PLP.part.buried>
-2.0941

> <Gold.PLP.part.nonpolar>
-29.5778

> <Gold.PLP.part.repulsive>
0.3844

> <Gold.PLP.ligand.clash>
0.0000

> <Gold.PLP.ligand.torsion>
0.6633

> <Gold.PLP.Chemscore.Hbond>
3.5920

> <Gold.PLP.Chemscore.CHOScore>
0.9933

> <Gold.PLP.Chemscore.Metal>
0.0000

> <Gold.Chemscore.Hbonds>
donor molecule, donor type, donor heavy atom, donor atom, acceptor molecule, acceptor atom, score
      L1  H     4    28       P1  7948  0.88
      L1  H     7    29       P1  7948  0.96
      P1  H  7989  7998       L1    19  0.73
      P1  H 10785 10796       L1    12  0.82
      L1  C    15    35       P1 10747  1.00

> <Gold.PLP.Chemscore.Internal.Correction>
0.0407

> <Gold.Rescore>
     Score         DG    S(hbond)    S(metal)    S(lipo)     H(rot)  DE(clash)    DE(int)     intcor
     19.30     -21.58       3.55        0.00      70.07       1.54       0.24       2.04       ----

> <Gold.Chemscore.Fitness>
19.2972

> <Gold.Chemscore.DG>
-21.5768

> <Gold.Chemscore.ZeroCoef>
-5.4800

> <Gold.Chemscore.Hbond>
3.5452

> <Gold.Chemscore.Metal>
0.0000

> <Gold.Chemscore.Lipo>
70.0677

> <Gold.Chemscore.Internal_Hbond>
0.0000

> <Gold.Chemscore.DEClash>
0.2355

> <Gold.Chemscore.DEInternal>
2.0442

> <Gold.Chemscore.Rot>
1.5398

> <Gold.Chemscore.Internal.Correction>
   9.000000E+99

> <Gold.Chemscore.Hbonds>
donor molecule, donor type, donor heavy atom, donor atom, acceptor molecule, acceptor atom, score
      L1  H     4    28       P1  7948  0.86
      L1  H     7    29       P1  7948  0.81
      P1  H  7989  7998       L1    19  0.13
      P1  H 10785 10796       L1    12  0.81

> <Gold.Chemscore.Hbond.Weighted>
-11.8409

> <Gold.Chemscore.Metal.Weighted>
-0.0000

> <Gold.Chemscore.Lipo.Weighted>
-8.1979

> <Gold.Chemscore.Internal_Hbond.Weighted>
0.0000

> <Gold.Chemscore.DEClash.Weighted>
0.2355

> <Gold.Chemscore.DEInternal.Weighted>
2.0442

> <Gold.Chemscore.Rot.Weighted>
3.9420

> <Gold.Chemscore.Internal.Correction.Weighted>
   9.000000E+99

> <Gold.Protein.RotatedTorsions>
[ 6907 6896 6895 6894 ] final   50.52 input  -60.11 | X-H torsion
[ 7974 7965 7964 7962 ] final  126.74 input  175.53 | X-H torsion
[ 8008 7997 7996 7995 ] final  124.89 input   59.86 | X-H torsion
[ 10167 10162 10161 10158 ] final -147.10 input  -65.29 | X-H torsion
[ 10718 10713 10712 10709 ] final   69.52 input   66.30 | X-H torsion
[ 10763 10752 10751 10750 ] final   55.60 input  -60.55 | X-H torsion
[ 11005 11000 10999 10996 ] final  -27.79 input  -57.11 | X-H torsion

> <Gold.Protein.ActiveResidues>
 VAL166  LYS551  ARG553  GLY616  TRP617  ASP618  TYR619  PRO620  LYS621  CYS622 
 ASP623  PHE694  ASN695  SER759  ASP760  ASP761  ALA762  ILE779  LEU786  VAL792 
 PHE793  MET794  SER795  GLU796  ALA797  LYS798  CYS799  TRP800  GLU811  SER814 

> <Gold.Protein.RotatedAtoms>
  152.3027  134.7591  160.0353 H   0  0  0  0  0  0  0  0  0  0  0  0  # atno 6907 bound_to 6896
  151.8099  133.3375  159.3560 H   0  0  0  0  0  0  0  0  0  0  0  0  # atno 6908 bound_to 6896
  150.7281  134.5603  159.5883 H   0  0  0  0  0  0  0  0  0  0  0  0  # atno 6909 bound_to 6896
  145.0583  139.3826  143.5019 H   0  0  0  0  0  0  0  0  0  0  0  0  # atno 7974 bound_to 7965
  156.2816  140.2729  156.1861 H   0  0  0  0  0  0  0  0  0  0  0  0  # atno 8008 bound_to 7997
  155.0506  140.0386  157.2560 H   0  0  0  0  0  0  0  0  0  0  0  0  # atno 8009 bound_to 7997
  154.7198  140.2685  155.6557 H   0  0  0  0  0  0  0  0  0  0  0  0  # atno 8010 bound_to 7997
  139.7653  143.8317  152.2615 H   0  0  0  0  0  0  0  0  0  0  0  0  # atno 10167 bound_to 10162
  157.6350  130.9430  150.0524 H   0  0  0  0  0  0  0  0  0  0  0  0  # atno 10718 bound_to 10713
  152.9819  135.5705  154.5093 H   0  0  0  0  0  0  0  0  0  0  0  0  # atno 10763 bound_to 10752
  154.4600  135.2781  155.1722 H   0  0  0  0  0  0  0  0  0  0  0  0  # atno 10764 bound_to 10752
  154.3314  135.6248  153.5606 H   0  0  0  0  0  0  0  0  0  0  0  0  # atno 10765 bound_to 10752
  140.9151  133.7435  156.0723 H   0  0  0  0  0  0  0  0  0  0  0  0  # atno 11005 bound_to 11000
  146.3523  140.0268  142.8654 LP  0  0  0  0  0  0  0  0  0  0  0  0  # atno 17320 bound_to 7965
  145.1440  140.9587  143.4471 LP  0  0  0  0  0  0  0  0  0  0  0  0  # atno 17321 bound_to 7965
  139.8335  144.7243  150.9420 LP  0  0  0  0  0  0  0  0  0  0  0  0  # atno 17342 bound_to 10162
  140.7810  143.4048  151.1089 LP  0  0  0  0  0  0  0  0  0  0  0  0  # atno 17343 bound_to 10162
  156.1582  130.3643  149.9338 LP  0  0  0  0  0  0  0  0  0  0  0  0  # atno 17370 bound_to 10713
  156.7342  130.9055  151.3628 LP  0  0  0  0  0  0  0  0  0  0  0  0  # atno 17371 bound_to 10713
  140.8061  134.3453  157.5425 LP  0  0  0  0  0  0  0  0  0  0  0  0  # atno 17394 bound_to 11000
  139.8764  134.9226  156.3305 LP  0  0  0  0  0  0  0  0  0  0  0  0  # atno 17395 bound_to 11000

$$$$
