AV-unprocessed.smi:2361|AV-procd|sdf|9412|dock3
  -GOLD-   2272013 53D 1   1.00000     0.00000
 Structure written by MMmdl.
 26 27  0  0  0  0  0  0  0  0  1 V2000
  153.1580  138.8963  156.5116 O   0  0  0  0  0  0  0  0  0  0  0  0
  152.0628  139.4571  156.4683 C   0  0  0  0  0  0  0  0  0  0  0  0
  151.5868  140.2770  157.4229 N   0  0  0  0  0  0  0  0  0  0  0  0
  152.1958  140.6619  158.6502 C   0  0  0  0  0  0  0  0  0  0  0  0
  153.3301  140.0120  159.1971 C   0  0  0  0  0  0  0  0  0  0  0  0
  153.8960  140.3613  160.3716 N   0  0  0  0  0  0  0  0  0  0  0  0
  153.3448  141.3804  161.0620 C   0  0  0  0  0  0  0  0  0  0  0  0
  152.2085  142.0870  160.6233 C   0  0  0  0  0  0  0  0  0  0  0  0
  151.5670  143.3720  161.5836 Cl  0  0  0  0  0  0  0  0  0  0  0  0
  151.6192  141.7174  159.3947 C   0  0  0  0  0  0  0  0  0  0  0  0
  150.2169  142.5491  158.8107 Cl  0  0  0  0  0  0  0  0  0  0  0  0
  151.1425  139.2464  155.2598 C   0  0  1  0  0  0  0  0  0  0  0  0
  150.8070  137.7714  154.9669 C   0  0  0  0  0  0  0  0  0  0  0  0
  149.3409  137.6569  155.3357 C   0  0  0  0  0  0  0  0  0  0  0  0
  148.8391  139.0663  155.0580 C   0  0  0  0  0  0  0  0  0  0  0  0
  149.8960  139.8820  155.5376 O   0  0  0  0  0  0  0  0  0  0  0  0
  150.7098  140.7321  157.2140 H   0  0  0  0  0  0  0  0  0  0  0  0
  153.7981  139.1726  158.7073 H   0  0  0  0  0  0  0  0  0  0  0  0
  153.8216  141.6357  161.9969 H   0  0  0  0  0  0  0  0  0  0  0  0
  151.5818  139.7020  154.3706 H   0  0  0  0  0  0  0  0  0  0  0  0
  150.9385  137.5707  153.9030 H   0  0  0  0  0  0  0  0  0  0  0  0
  151.4230  137.0533  155.5097 H   0  0  0  0  0  0  0  0  0  0  0  0
  148.8130  136.8937  154.7635 H   0  0  0  0  0  0  0  0  0  0  0  0
  149.2374  137.4257  156.3967 H   0  0  0  0  0  0  0  0  0  0  0  0
  148.7068  139.2304  153.9874 H   0  0  0  0  0  0  0  0  0  0  0  0
  147.8987  139.2887  155.5625 H   0  0  0  0  0  0  0  0  0  0  0  0
  1  2  2  0  0  0  0
  2  3  1  0  0  0  0
  2 12  1  0  0  0  0
  3  4  1  0  0  0  0
  3 17  1  0  0  0  0
  4 10  1  0  0  0  0
  4  5  2  0  0  0  0
  5  6  1  0  0  0  0
  5 18  1  0  0  0  0
  6  7  2  0  0  0  0
  7  8  1  0  0  0  0
  7 19  1  0  0  0  0
  8  9  1  0  0  0  0
  8 10  2  0  0  0  0
 10 11  1  0  0  0  0
 12 16  1  0  0  0  0
 12 13  1  0  0  0  0
 12 20  1  0  0  0  0
 13 14  1  0  0  0  0
 13 21  1  0  0  0  0
 13 22  1  0  0  0  0
 14 15  1  0  0  0  0
 14 23  1  0  0  0  0
 14 24  1  0  0  0  0
 15 16  1  0  0  0  0
 15 25  1  0  0  0  0
 15 26  1  0  0  0  0
M  END
> <s_m_source_file>
AV-unprocessed.smi

> <i_m_source_file_index>
2361

> <i_lp_mmshare_version>
43012

> <i_f3d_flags>
0

> <s_epik_input>
TzFbQ0gyXVtDSDJdW0NIMl1bQ0BIXTFDKD1PKVtOSF1jMltjSF1uW2NIXWMoQ2wpYzJDbA==

> <s_epik_cmdline>
J2VwaWtfcHl0aG9uJywgJy1waCcsICc3LjAnLCAnLXRuJywgJzgnLCAnLW1hJywgJzIwMCcsICctbWV0YWxfYmluZGluZycsICctaW1hZScsICc8aW5maWxlLm1hZT4nLCAnLW9tYWUnLCAnPG91dGZpbGUubWFlPic=

> <r_lp_tautomer_probability>
1

> <r_epik_Ionization_Penalty>
7.18707e-06

> <r_epik_Ionization_Penalty_Charging>
0

> <r_epik_Ionization_Penalty_Neutral>
7.18707e-06

> <r_epik_State_Penalty>
-0

> <r_epik_Charging_Adjusted_Penalty>
0

> <i_epik_Tot_Q>
0

> <i_epik_Tot_abs_Q>
0

> <r_epik_Metal_State_Penalty>
-0

> <b_epik_Metal_Only>
0

> <s_lp_Force_Field>
OPLS_2005

> <r_lp_Energy>
24.5043

> <b_lp_Chiralities_Consistent>
1

> <s_lp_Variant>
AV-unprocessed.smi:2361-2

> <Gold.Version>
5.8.1

> <Gold.Id.Protein>
6NUR|6NUR_protein|mol2

> <Gold.PLP.Fitness>
35.9119

> <Gold.PLP.PLP>
-33.0974

> <Gold.PLP.part.hbond>
-2.0000

> <Gold.PLP.part.metal>
0.0000

> <Gold.PLP.part.buried>
-1.1000

> <Gold.PLP.part.nonpolar>
-29.2866

> <Gold.PLP.part.repulsive>
0.2120

> <Gold.PLP.ligand.clash>
0.0000

> <Gold.PLP.ligand.torsion>
0.0962

> <Gold.PLP.Chemscore.Hbond>
1.0000

> <Gold.PLP.Chemscore.CHOScore>
0.0000

> <Gold.PLP.Chemscore.Metal>
0.0000

> <Gold.Chemscore.Hbonds>
donor molecule, donor type, donor heavy atom, donor atom, acceptor molecule, acceptor atom, score
      P1  H  7997  8010       L1     1  1.00

> <Gold.PLP.Chemscore.Internal.Correction>
0.0069

> <Gold.Rescore>
     Score         DG    S(hbond)    S(metal)    S(lipo)     H(rot)  DE(clash)    DE(int)     intcor
     14.79     -16.90       0.92        0.00      93.16       1.00       0.81       1.30       ----

> <Gold.Chemscore.Fitness>
14.7852

> <Gold.Chemscore.DG>
-16.8957

> <Gold.Chemscore.ZeroCoef>
-5.4800

> <Gold.Chemscore.Hbond>
0.9210

> <Gold.Chemscore.Metal>
0.0000

> <Gold.Chemscore.Lipo>
93.1592

> <Gold.Chemscore.Internal_Hbond>
0.0000

> <Gold.Chemscore.DEClash>
0.8081

> <Gold.Chemscore.DEInternal>
1.3024

> <Gold.Chemscore.Rot>
1.0000

> <Gold.Chemscore.Internal.Correction>
   9.000000E+99

> <Gold.Chemscore.Hbonds>
donor molecule, donor type, donor heavy atom, donor atom, acceptor molecule, acceptor atom, score
      P1  H  7997  8010       L1     1  0.75

> <Gold.Chemscore.Hbond.Weighted>
-3.0760

> <Gold.Chemscore.Metal.Weighted>
-0.0000

> <Gold.Chemscore.Lipo.Weighted>
-10.8996

> <Gold.Chemscore.Internal_Hbond.Weighted>
0.0000

> <Gold.Chemscore.DEClash.Weighted>
0.8081

> <Gold.Chemscore.DEInternal.Weighted>
1.3024

> <Gold.Chemscore.Rot.Weighted>
2.5600

> <Gold.Chemscore.Internal.Correction.Weighted>
   9.000000E+99

> <Gold.Protein.RotatedTorsions>
[ 6907 6896 6895 6894 ] final  -93.59 input  -60.11 | X-H torsion
[ 7974 7965 7964 7962 ] final  -38.45 input  175.53 | X-H torsion
[ 8008 7997 7996 7995 ] final   54.79 input   59.86 | X-H torsion
[ 10167 10162 10161 10158 ] final -178.88 input  -65.29 | X-H torsion
[ 10718 10713 10712 10709 ] final  -99.83 input   66.30 | X-H torsion
[ 10763 10752 10751 10750 ] final  -43.85 input  -60.55 | X-H torsion
[ 11005 11000 10999 10996 ] final  127.94 input  -57.11 | X-H torsion

> <Gold.Protein.ActiveResidues>
 VAL166  LYS551  ARG553  GLY616  TRP617  ASP618  TYR619  PRO620  LYS621  CYS622 
 ASP623  PHE694  ASN695  SER759  ASP760  ASP761  ALA762  ILE779  LEU786  VAL792 
 PHE793  MET794  SER795  GLU796  ALA797  LYS798  CYS799  TRP800  GLU811  SER814 

> <Gold.Protein.RotatedAtoms>
  150.6925  134.1943  159.4297 H   0  0  0  0  0  0  0  0  0  0  0  0  # atno 6907 bound_to 6896
  151.9912  134.9975  160.0571 H   0  0  0  0  0  0  0  0  0  0  0  0  # atno 6908 bound_to 6896
  152.1665  133.4581  159.4924 H   0  0  0  0  0  0  0  0  0  0  0  0  # atno 6909 bound_to 6896
  146.0485  140.6513  142.9053 H   0  0  0  0  0  0  0  0  0  0  0  0  # atno 7974 bound_to 7965
  155.4905  140.3471  155.4354 H   0  0  0  0  0  0  0  0  0  0  0  0  # atno 8008 bound_to 7997
  156.0980  140.1428  156.9534 H   0  0  0  0  0  0  0  0  0  0  0  0  # atno 8009 bound_to 7997
  154.4675  140.0912  156.7037 H   0  0  0  0  0  0  0  0  0  0  0  0  # atno 8010 bound_to 7997
  139.5412  144.2359  152.0898 H   0  0  0  0  0  0  0  0  0  0  0  0  # atno 10167 bound_to 10162
  156.0145  130.5300  150.6727 H   0  0  0  0  0  0  0  0  0  0  0  0  # atno 10718 bound_to 10713
  154.0024  135.6692  153.4760 H   0  0  0  0  0  0  0  0  0  0  0  0  # atno 10763 bound_to 10752
  153.0656  135.5002  154.8189 H   0  0  0  0  0  0  0  0  0  0  0  0  # atno 10764 bound_to 10752
  154.7045  135.3085  154.9255 H   0  0  0  0  0  0  0  0  0  0  0  0  # atno 10765 bound_to 10752
  139.9534  134.9618  156.8928 H   0  0  0  0  0  0  0  0  0  0  0  0  # atno 11005 bound_to 11000
  144.7110  140.4039  143.7080 LP  0  0  0  0  0  0  0  0  0  0  0  0  # atno 17320 bound_to 7965
  145.6764  139.1609  143.2725 LP  0  0  0  0  0  0  0  0  0  0  0  0  # atno 17321 bound_to 7965
  140.1838  144.4819  150.6514 LP  0  0  0  0  0  0  0  0  0  0  0  0  # atno 17342 bound_to 10162
  140.6642  143.2262  151.5783 LP  0  0  0  0  0  0  0  0  0  0  0  0  # atno 17343 bound_to 10162
  157.4446  131.0865  151.0908 LP  0  0  0  0  0  0  0  0  0  0  0  0  # atno 17370 bound_to 10713
  157.1442  130.6156  149.5564 LP  0  0  0  0  0  0  0  0  0  0  0  0  # atno 17371 bound_to 10713
  140.5666  134.0483  155.7416 LP  0  0  0  0  0  0  0  0  0  0  0  0  # atno 17394 bound_to 11000
  141.1201  133.9475  157.2746 LP  0  0  0  0  0  0  0  0  0  0  0  0  # atno 17395 bound_to 11000

$$$$
