AV-unprocessed.smi:591|AV-procd|sdf|3009|dock10
  -GOLD-   2262023513D 1   1.00000     0.00000
 Structure written by MMmdl.
 42 43  0  0  0  0  0  0  0  0  1 V2000
  143.9535  135.8116  151.8352 O   0  0  0  0  0  0  0  0  0  0  0  0
  145.1128  135.6843  151.4386 C   0  0  0  0  0  0  0  0  0  0  0  0
  145.5050  134.5309  150.5037 C   0  0  0  0  0  0  0  0  0  0  0  0
  145.7715  133.2689  151.2145 N   0  0  0  0  0  0  0  0  0  0  0  0
  146.8327  133.2664  152.1414 C   0  0  0  0  0  0  0  0  0  0  0  0
  147.1843  132.1765  152.8503 C   0  0  0  0  0  0  0  0  0  0  0  0
  148.2946  132.2213  153.8886 C   0  0  0  0  0  0  0  0  0  0  0  0
  149.1157  133.2487  153.6698 F   0  0  0  0  0  0  0  0  0  0  0  0
  147.7704  132.3609  155.1057 F   0  0  0  0  0  0  0  0  0  0  0  0
  149.0147  131.0987  153.8733 F   0  0  0  0  0  0  0  0  0  0  0  0
  146.3863  130.9847  152.6390 C   0  0  0  0  0  0  0  0  0  0  0  0
  145.3600  130.9737  151.7661 C   0  0  0  0  0  0  0  0  0  0  0  0
  145.0015  132.1622  150.9888 C   0  0  0  0  0  0  0  0  0  0  0  0
  144.0676  132.1636  150.1864 O   0  0  0  0  0  0  0  0  0  0  0  0
  146.1041  136.5117  151.7984 N   0  0  0  0  0  0  0  0  0  0  0  0
  145.9377  137.6596  152.6786 C   0  0  0  0  0  0  0  0  0  0  0  0
  146.5920  138.9075  152.0674 C   0  0  0  0  0  0  0  0  0  0  0  0
  147.3046  139.7651  153.1003 C   0  0  0  0  0  0  0  0  0  0  0  0
  147.0158  141.0711  153.2646 C   0  0  0  0  0  0  0  0  0  0  0  0
  147.6843  141.9710  154.2890 C   0  0  0  0  0  0  0  0  0  0  0  0
  148.4721  141.1754  155.3432 C   0  0  0  0  0  0  0  0  0  0  0  0
  149.2810  140.0457  154.6937 C   0  0  0  0  0  0  0  0  0  0  0  0
  148.3662  139.0634  153.9406 C   0  0  0  0  0  0  0  0  0  0  0  0
  144.7193  134.3843  149.7599 H   0  0  0  0  0  0  0  0  0  0  0  0
  146.3818  134.8399  149.9330 H   0  0  0  0  0  0  0  0  0  0  0  0
  147.3380  134.2153  152.2473 H   0  0  0  0  0  0  0  0  0  0  0  0
  146.6168  130.0837  153.1883 H   0  0  0  0  0  0  0  0  0  0  0  0
  144.7876  130.0670  151.6338 H   0  0  0  0  0  0  0  0  0  0  0  0
  147.0306  136.3384  151.4359 H   0  0  0  0  0  0  0  0  0  0  0  0
  144.8734  137.8374  152.8420 H   0  0  0  0  0  0  0  0  0  0  0  0
  146.3812  137.4315  153.6487 H   0  0  0  0  0  0  0  0  0  0  0  0
  147.3106  138.6180  151.2998 H   0  0  0  0  0  0  0  0  0  0  0  0
  145.8308  139.5068  151.5656 H   0  0  0  0  0  0  0  0  0  0  0  0
  146.2716  141.5403  152.6374 H   0  0  0  0  0  0  0  0  0  0  0  0
  148.3489  142.6516  153.7563 H   0  0  0  0  0  0  0  0  0  0  0  0
  146.9269  142.5843  154.7777 H   0  0  0  0  0  0  0  0  0  0  0  0
  149.1296  141.8434  155.9004 H   0  0  0  0  0  0  0  0  0  0  0  0
  147.7798  140.7469  156.0693 H   0  0  0  0  0  0  0  0  0  0  0  0
  150.0032  140.4767  153.9989 H   0  0  0  0  0  0  0  0  0  0  0  0
  149.8597  139.5113  155.4478 H   0  0  0  0  0  0  0  0  0  0  0  0
  147.8606  138.4130  154.6547 H   0  0  0  0  0  0  0  0  0  0  0  0
  148.9722  138.4202  153.3017 H   0  0  0  0  0  0  0  0  0  0  0  0
  1  2  2  0  0  0  0
  2  3  1  0  0  0  0
  2 15  1  0  0  0  0
  3  4  1  0  0  0  0
  3 24  1  0  0  0  0
  3 25  1  0  0  0  0
  4 13  1  0  0  0  0
  4  5  1  0  0  0  0
  5  6  2  0  0  0  0
  5 26  1  0  0  0  0
  6  7  1  0  0  0  0
  6 11  1  0  0  0  0
  7  8  1  0  0  0  0
  7  9  1  0  0  0  0
  7 10  1  0  0  0  0
 11 12  2  0  0  0  0
 11 27  1  0  0  0  0
 12 13  1  0  0  0  0
 12 28  1  0  0  0  0
 13 14  2  0  0  0  0
 15 16  1  0  0  0  0
 15 29  1  0  0  0  0
 16 17  1  0  0  0  0
 16 30  1  0  0  0  0
 16 31  1  0  0  0  0
 17 18  1  0  0  0  0
 17 32  1  0  0  0  0
 17 33  1  0  0  0  0
 18 23  1  0  0  0  0
 18 19  2  0  0  0  0
 19 20  1  0  0  0  0
 19 34  1  0  0  0  0
 20 21  1  0  0  0  0
 20 35  1  0  0  0  0
 20 36  1  0  0  0  0
 21 22  1  0  0  0  0
 21 37  1  0  0  0  0
 21 38  1  0  0  0  0
 22 23  1  0  0  0  0
 22 39  1  0  0  0  0
 22 40  1  0  0  0  0
 23 41  1  0  0  0  0
 23 42  1  0  0  0  0
M  END
> <s_m_source_file>
AV-unprocessed.smi

> <i_m_source_file_index>
591

> <i_lp_mmshare_version>
43012

> <i_f3d_flags>
0

> <s_epik_input>
Tz1jMVtjSF1bY0hdYyhDKEYpKEYpRilbY0hdbjFbQ0gyXUMoPU8pW05IXVtDSDJdW0NIMl1DMj1bQ0hdW0NIMl1bQ0gyXVtDSDJdW0NIMl0y

> <s_epik_cmdline>
J2VwaWtfcHl0aG9uJywgJy1waCcsICc3LjAnLCAnLXRuJywgJzgnLCAnLW1hJywgJzIwMCcsICctbWV0YWxfYmluZGluZycsICctaW1hZScsICc8aW5maWxlLm1hZT4nLCAnLW9tYWUnLCAnPG91dGZpbGUubWFlPic=

> <r_lp_tautomer_probability>
1

> <r_epik_Ionization_Penalty>
3.65086e-08

> <r_epik_Ionization_Penalty_Charging>
1.84051e-08

> <r_epik_Ionization_Penalty_Neutral>
1.81035e-08

> <r_epik_State_Penalty>
-0

> <r_epik_Charging_Adjusted_Penalty>
1.84051e-08

> <i_epik_Tot_Q>
0

> <i_epik_Tot_abs_Q>
0

> <r_epik_Metal_State_Penalty>
-0

> <b_epik_Metal_Only>
0

> <s_lp_Force_Field>
OPLS_2005

> <r_lp_Energy>
19.2896

> <b_lp_Chiralities_Consistent>
1

> <s_lp_Variant>
AV-unprocessed.smi:591-1

> <Gold.Version>
5.8.1

> <Gold.Id.Protein>
6NUR|6NUR_protein|mol2

> <Gold.PLP.Fitness>
48.2308

> <Gold.PLP.PLP>
-45.5993

> <Gold.PLP.part.hbond>
-1.0000

> <Gold.PLP.part.metal>
0.0000

> <Gold.PLP.part.buried>
-1.9464

> <Gold.PLP.part.nonpolar>
-43.2732

> <Gold.PLP.part.repulsive>
0.3767

> <Gold.PLP.ligand.clash>
0.0914

> <Gold.PLP.ligand.torsion>
1.5076

> <Gold.PLP.Chemscore.Hbond>
0.8800

> <Gold.PLP.Chemscore.CHOScore>
1.0000

> <Gold.PLP.Chemscore.Metal>
0.0000

> <Gold.Chemscore.Hbonds>
donor molecule, donor type, donor heavy atom, donor atom, acceptor molecule, acceptor atom, score
      L1  H    15    29       P1  7948  0.94
      L1  C     5    26       P1  7948  0.91

> <Gold.PLP.Chemscore.Internal.Correction>
0.0981

> <Gold.Rescore>
     Score         DG    S(hbond)    S(metal)    S(lipo)     H(rot)  DE(clash)    DE(int)     intcor
     12.99     -14.08       0.92        0.00      89.69       1.94       0.47       0.62       ----

> <Gold.Chemscore.Fitness>
12.9897

> <Gold.Chemscore.DG>
-14.0754

> <Gold.Chemscore.ZeroCoef>
-5.4800

> <Gold.Chemscore.Hbond>
0.9178

> <Gold.Chemscore.Metal>
0.0000

> <Gold.Chemscore.Lipo>
89.6929

> <Gold.Chemscore.Internal_Hbond>
0.0000

> <Gold.Chemscore.DEClash>
0.4691

> <Gold.Chemscore.DEInternal>
0.6167

> <Gold.Chemscore.Rot>
1.9390

> <Gold.Chemscore.Internal.Correction>
   9.000000E+99

> <Gold.Chemscore.Hbonds>
donor molecule, donor type, donor heavy atom, donor atom, acceptor molecule, acceptor atom, score
      L1  H    15    29       P1  7948  0.90

> <Gold.Chemscore.Hbond.Weighted>
-3.0653

> <Gold.Chemscore.Metal.Weighted>
-0.0000

> <Gold.Chemscore.Lipo.Weighted>
-10.4941

> <Gold.Chemscore.Internal_Hbond.Weighted>
0.0000

> <Gold.Chemscore.DEClash.Weighted>
0.4691

> <Gold.Chemscore.DEInternal.Weighted>
0.6167

> <Gold.Chemscore.Rot.Weighted>
4.9639

> <Gold.Chemscore.Internal.Correction.Weighted>
   9.000000E+99

> <Gold.Protein.RotatedTorsions>
[ 6907 6896 6895 6894 ] final  119.19 input  -60.11 | X-H torsion
[ 7974 7965 7964 7962 ] final   44.78 input  175.53 | X-H torsion
[ 8008 7997 7996 7995 ] final  -85.66 input   59.86 | X-H torsion
[ 10167 10162 10161 10158 ] final  -87.26 input  -65.29 | X-H torsion
[ 10718 10713 10712 10709 ] final  -68.61 input   66.30 | X-H torsion
[ 10763 10752 10751 10750 ] final  -55.95 input  -60.55 | X-H torsion
[ 11005 11000 10999 10996 ] final -168.50 input  -57.11 | X-H torsion

> <Gold.Protein.ActiveResidues>
 VAL166  LYS551  ARG553  GLY616  TRP617  ASP618  TYR619  PRO620  LYS621  CYS622 
 ASP623  PHE694  ASN695  SER759  ASP760  ASP761  ALA762  ILE779  LEU786  VAL792 
 PHE793  MET794  SER795  GLU796  ALA797  LYS798  CYS799  TRP800  GLU811  SER814 

> <Gold.Protein.RotatedAtoms>
  152.4489  133.7591  159.6736 H   0  0  0  0  0  0  0  0  0  0  0  0  # atno 6907 bound_to 6896
  150.8396  133.7947  159.3072 H   0  0  0  0  0  0  0  0  0  0  0  0  # atno 6908 bound_to 6896
  151.5576  135.1069  160.0016 H   0  0  0  0  0  0  0  0  0  0  0  0  # atno 6909 bound_to 6896
  146.0538  139.5037  142.9701 H   0  0  0  0  0  0  0  0  0  0  0  0  # atno 7974 bound_to 7965
  154.6432  140.0588  156.9869 H   0  0  0  0  0  0  0  0  0  0  0  0  # atno 8008 bound_to 7997
  155.1485  140.3272  155.4418 H   0  0  0  0  0  0  0  0  0  0  0  0  # atno 8009 bound_to 7997
  156.2541  140.1951  156.6598 H   0  0  0  0  0  0  0  0  0  0  0  0  # atno 8010 bound_to 7997
  140.3862  143.2725  151.9322 H   0  0  0  0  0  0  0  0  0  0  0  0  # atno 10167 bound_to 10162
  156.0496  130.4298  150.2026 H   0  0  0  0  0  0  0  0  0  0  0  0  # atno 10718 bound_to 10713
  154.1989  135.6414  153.5081 H   0  0  0  0  0  0  0  0  0  0  0  0  # atno 10763 bound_to 10752
  153.0016  135.5446  154.6336 H   0  0  0  0  0  0  0  0  0  0  0  0  # atno 10764 bound_to 10752
  154.5744  135.2919  155.0768 H   0  0  0  0  0  0  0  0  0  0  0  0  # atno 10765 bound_to 10752
  140.5413  134.5519  157.5100 H   0  0  0  0  0  0  0  0  0  0  0  0  # atno 11005 bound_to 11000
  145.6678  141.0224  143.1674 LP  0  0  0  0  0  0  0  0  0  0  0  0  # atno 17320 bound_to 7965
  144.7137  139.8276  143.7406 LP  0  0  0  0  0  0  0  0  0  0  0  0  # atno 17321 bound_to 7965
  139.4792  144.5771  151.7993 LP  0  0  0  0  0  0  0  0  0  0  0  0  # atno 17342 bound_to 10162
  140.4887  144.1343  150.5946 LP  0  0  0  0  0  0  0  0  0  0  0  0  # atno 17343 bound_to 10162
  157.0111  130.9951  151.3365 LP  0  0  0  0  0  0  0  0  0  0  0  0  # atno 17370 bound_to 10713
  157.5409  130.8119  149.8028 LP  0  0  0  0  0  0  0  0  0  0  0  0  # atno 17371 bound_to 10713
  139.9502  134.7630  156.0466 LP  0  0  0  0  0  0  0  0  0  0  0  0  # atno 17394 bound_to 11000
  141.1225  133.6608  156.3252 LP  0  0  0  0  0  0  0  0  0  0  0  0  # atno 17395 bound_to 11000

$$$$
