AV-unprocessed.smi:2856|AV-procd|sdf|10994|dock10
  -GOLD-   2272015453D 1   1.00000     0.00000
 Structure written by MMmdl.
 37 38  0  0  0  0  0  0  0  0  1 V2000
  151.6038  142.7534  157.6138 C   0  0  0  0  0  0  0  0  0  0  0  0
  150.5139  141.3289  157.8795 S   0  0  0  0  0  0  0  0  0  0  0  0
  150.6276  140.4986  156.2621 C   0  0  1  0  0  0  0  0  0  0  0  0
  152.0135  139.8489  156.0808 C   0  0  0  0  0  0  0  0  0  0  0  0
  152.1441  139.1765  154.7050 C   0  0  0  0  0  0  0  0  0  0  0  0
  151.0249  138.1492  154.4778 C   0  0  0  0  0  0  0  0  0  0  0  0
  149.6368  138.7873  154.6592 C   0  0  0  0  0  0  0  0  0  0  0  0
  149.4858  139.4774  156.0321 C   0  0  1  0  0  0  0  0  0  0  0  0
  149.4420  138.4852  157.1074 N   0  0  0  0  0  0  0  0  0  0  0  0
  148.5086  138.4202  158.0676 C   0  0  0  0  0  0  0  0  0  0  0  0
  147.5643  139.2057  158.1532 O   0  0  0  0  0  0  0  0  0  0  0  0
  148.7407  137.3939  158.9036 N   0  0  0  0  0  0  0  0  0  0  0  0
  147.9689  137.0038  160.0278 C   0  0  0  0  0  0  0  0  0  0  0  0
  148.3034  135.8430  160.7749 C   0  0  0  0  0  0  0  0  0  0  0  0
  147.3391  135.8119  161.7430 C   0  0  0  0  0  0  0  0  0  0  0  0
  147.0599  134.8750  162.8677 C   0  0  0  0  0  0  0  0  0  0  0  0
  146.4926  136.8678  161.6031 O   0  0  0  0  0  0  0  0  0  0  0  0
  146.9015  137.6284  160.5012 N   0  0  0  0  0  0  0  0  0  0  0  0
  151.7203  143.3120  158.5425 H   0  0  0  0  0  0  0  0  0  0  0  0
  151.1875  143.4250  156.8637 H   0  0  0  0  0  0  0  0  0  0  0  0
  152.5894  142.4257  157.2833 H   0  0  0  0  0  0  0  0  0  0  0  0
  150.5365  141.2826  155.5088 H   0  0  0  0  0  0  0  0  0  0  0  0
  152.7939  140.6022  156.1924 H   0  0  0  0  0  0  0  0  0  0  0  0
  152.1860  139.1114  156.8657 H   0  0  0  0  0  0  0  0  0  0  0  0
  152.1070  139.9356  153.9227 H   0  0  0  0  0  0  0  0  0  0  0  0
  153.1170  138.6918  154.6189 H   0  0  0  0  0  0  0  0  0  0  0  0
  151.1093  137.7254  153.4768 H   0  0  0  0  0  0  0  0  0  0  0  0
  151.1437  137.3182  155.1740 H   0  0  0  0  0  0  0  0  0  0  0  0
  149.4806  139.5250  153.8712 H   0  0  0  0  0  0  0  0  0  0  0  0
  148.8594  138.0345  154.5229 H   0  0  0  0  0  0  0  0  0  0  0  0
  148.5410  140.0222  156.0256 H   0  0  0  0  0  0  0  0  0  0  0  0
  150.1838  137.8006  157.1188 H   0  0  0  0  0  0  0  0  0  0  0  0
  149.5502  136.8238  158.7085 H   0  0  0  0  0  0  0  0  0  0  0  0
  149.1128  135.1440  160.6256 H   0  0  0  0  0  0  0  0  0  0  0  0
  147.7320  134.0171  162.8367 H   0  0  0  0  0  0  0  0  0  0  0  0
  146.0361  134.5039  162.8158 H   0  0  0  0  0  0  0  0  0  0  0  0
  147.1914  135.3734  163.8280 H   0  0  0  0  0  0  0  0  0  0  0  0
  1  2  1  0  0  0  0
  1 19  1  0  0  0  0
  1 20  1  0  0  0  0
  1 21  1  0  0  0  0
  2  3  1  0  0  0  0
  3  8  1  0  0  0  0
  3  4  1  0  0  0  0
  3 22  1  0  0  0  0
  4  5  1  0  0  0  0
  4 23  1  0  0  0  0
  4 24  1  0  0  0  0
  5  6  1  0  0  0  0
  5 25  1  0  0  0  0
  5 26  1  0  0  0  0
  6  7  1  0  0  0  0
  6 27  1  0  0  0  0
  6 28  1  0  0  0  0
  7  8  1  0  0  0  0
  7 29  1  0  0  0  0
  7 30  1  0  0  0  0
  8  9  1  0  0  0  0
  8 31  1  0  0  0  0
  9 10  1  0  0  0  0
  9 32  1  0  0  0  0
 10 11  2  0  0  0  0
 10 12  1  0  0  0  0
 12 13  1  0  0  0  0
 12 33  1  0  0  0  0
 13 18  2  0  0  0  0
 13 14  1  0  0  0  0
 14 15  2  0  0  0  0
 14 34  1  0  0  0  0
 15 16  1  0  0  0  0
 15 17  1  0  0  0  0
 16 35  1  0  0  0  0
 16 36  1  0  0  0  0
 16 37  1  0  0  0  0
 17 18  1  0  0  0  0
M  END
> <s_m_source_file>
AV-unprocessed.smi

> <i_m_source_file_index>
2856

> <i_lp_mmshare_version>
43012

> <i_f3d_flags>
0

> <s_epik_input>
W0NIM11TW0NAQEhdMVtDSDJdW0NIMl1bQ0gyXVtDSDJdW0NASF0xW05IXUMoPU8pW05IXWMyW2NIXWMoW0NIM10pb24y

> <s_epik_cmdline>
J2VwaWtfcHl0aG9uJywgJy1waCcsICc3LjAnLCAnLXRuJywgJzgnLCAnLW1hJywgJzIwMCcsICctbWV0YWxfYmluZGluZycsICctaW1hZScsICc8aW5maWxlLm1hZT4nLCAnLW9tYWUnLCAnPG91dGZpbGUubWFlPic=

> <r_lp_tautomer_probability>
1

> <r_epik_Ionization_Penalty>
2.20874e-05

> <r_epik_Ionization_Penalty_Charging>
0

> <r_epik_Ionization_Penalty_Neutral>
2.20874e-05

> <r_epik_State_Penalty>
-0

> <r_epik_Charging_Adjusted_Penalty>
0

> <i_epik_Tot_Q>
0

> <i_epik_Tot_abs_Q>
0

> <r_epik_Metal_State_Penalty>
-0

> <b_epik_Metal_Only>
0

> <s_lp_Force_Field>
OPLS_2005

> <r_lp_Energy>
4.92743

> <b_lp_Chiralities_Consistent>
1

> <s_lp_Variant>
AV-unprocessed.smi:2856-2

> <Gold.Version>
5.8.1

> <Gold.Id.Protein>
6NUR|6NUR_protein|mol2

> <Gold.PLP.Fitness>
32.7990

> <Gold.PLP.PLP>
-30.2079

> <Gold.PLP.part.hbond>
-1.5078

> <Gold.PLP.part.metal>
0.0000

> <Gold.PLP.part.buried>
-2.8361

> <Gold.PLP.part.nonpolar>
-26.0981

> <Gold.PLP.part.repulsive>
0.1815

> <Gold.PLP.ligand.clash>
0.0000

> <Gold.PLP.ligand.torsion>
0.2118

> <Gold.PLP.Chemscore.Hbond>
1.0000

> <Gold.PLP.Chemscore.CHOScore>
0.0000

> <Gold.PLP.Chemscore.Metal>
0.0000

> <Gold.Chemscore.Hbonds>
donor molecule, donor type, donor heavy atom, donor atom, acceptor molecule, acceptor atom, score
      P1  H  6934  6947       L1    18  0.88

> <Gold.PLP.Chemscore.Internal.Correction>
0.0147

> <Gold.Rescore>
     Score         DG    S(hbond)    S(metal)    S(lipo)     H(rot)  DE(clash)    DE(int)     intcor
     12.48     -14.04       0.79        0.00      76.95       1.21       0.02       1.54       ----

> <Gold.Chemscore.Fitness>
12.4771

> <Gold.Chemscore.DG>
-14.0379

> <Gold.Chemscore.ZeroCoef>
-5.4800

> <Gold.Chemscore.Hbond>
0.7950

> <Gold.Chemscore.Metal>
0.0000

> <Gold.Chemscore.Lipo>
76.9458

> <Gold.Chemscore.Internal_Hbond>
0.0000

> <Gold.Chemscore.DEClash>
0.0174

> <Gold.Chemscore.DEInternal>
1.5433

> <Gold.Chemscore.Rot>
1.2109

> <Gold.Chemscore.Internal.Correction>
   9.000000E+99

> <Gold.Chemscore.Hbonds>
donor molecule, donor type, donor heavy atom, donor atom, acceptor molecule, acceptor atom, score
      P1  H  6934  6947       L1    18  0.56

> <Gold.Chemscore.Hbond.Weighted>
-2.6552

> <Gold.Chemscore.Metal.Weighted>
-0.0000

> <Gold.Chemscore.Lipo.Weighted>
-9.0027

> <Gold.Chemscore.Internal_Hbond.Weighted>
0.0000

> <Gold.Chemscore.DEClash.Weighted>
0.0174

> <Gold.Chemscore.DEInternal.Weighted>
1.5433

> <Gold.Chemscore.Rot.Weighted>
3.1000

> <Gold.Chemscore.Internal.Correction.Weighted>
   9.000000E+99

> <Gold.Protein.RotatedTorsions>
[ 6907 6896 6895 6894 ] final -169.91 input  -60.11 | X-H torsion
[ 7974 7965 7964 7962 ] final   45.67 input  175.53 | X-H torsion
[ 8008 7997 7996 7995 ] final  176.98 input   59.86 | X-H torsion
[ 10167 10162 10161 10158 ] final  115.27 input  -65.29 | X-H torsion
[ 10718 10713 10712 10709 ] final  -72.95 input   66.30 | X-H torsion
[ 10763 10752 10751 10750 ] final   28.32 input  -60.55 | X-H torsion
[ 11005 11000 10999 10996 ] final  142.65 input  -57.11 | X-H torsion

> <Gold.Protein.ActiveResidues>
 VAL166  LYS551  ARG553  GLY616  TRP617  ASP618  TYR619  PRO620  LYS621  CYS622 
 ASP623  PHE694  ASN695  SER759  ASP760  ASP761  ALA762  ILE779  LEU786  VAL792 
 PHE793  MET794  SER795  GLU796  ALA797  LYS798  CYS799  TRP800  GLU811  SER814 

> <Gold.Protein.RotatedAtoms>
  151.4992  133.3508  159.2865 H   0  0  0  0  0  0  0  0  0  0  0  0  # atno 6907 bound_to 6896
  150.8784  134.8173  159.7218 H   0  0  0  0  0  0  0  0  0  0  0  0  # atno 6908 bound_to 6896
  152.4746  134.4886  159.9740 H   0  0  0  0  0  0  0  0  0  0  0  0  # atno 6909 bound_to 6896
  146.0459  139.4939  142.9749 H   0  0  0  0  0  0  0  0  0  0  0  0  # atno 7974 bound_to 7965
  156.0706  140.1370  156.9833 H   0  0  0  0  0  0  0  0  0  0  0  0  # atno 8008 bound_to 7997
  154.4529  140.0972  156.6724 H   0  0  0  0  0  0  0  0  0  0  0  0  # atno 8009 bound_to 7997
  155.5234  140.3457  155.4413 H   0  0  0  0  0  0  0  0  0  0  0  0  # atno 8010 bound_to 7997
  139.6329  144.7117  151.2394 H   0  0  0  0  0  0  0  0  0  0  0  0  # atno 10167 bound_to 10162
  156.0300  130.4383  150.2669 H   0  0  0  0  0  0  0  0  0  0  0  0  # atno 10718 bound_to 10713
  153.0499  135.6516  154.0721 H   0  0  0  0  0  0  0  0  0  0  0  0  # atno 10763 bound_to 10752
  154.0411  135.2903  155.3356 H   0  0  0  0  0  0  0  0  0  0  0  0  # atno 10764 bound_to 10752
  154.6781  135.5330  153.8292 H   0  0  0  0  0  0  0  0  0  0  0  0  # atno 10765 bound_to 10752
  140.0493  134.9264  157.0988 H   0  0  0  0  0  0  0  0  0  0  0  0  # atno 11005 bound_to 11000
  145.6807  141.0192  143.1608 LP  0  0  0  0  0  0  0  0  0  0  0  0  # atno 17320 bound_to 7965
  144.7097  139.8417  143.7418 LP  0  0  0  0  0  0  0  0  0  0  0  0  # atno 17321 bound_to 7965
  140.7449  143.6447  150.8302 LP  0  0  0  0  0  0  0  0  0  0  0  0  # atno 17342 bound_to 10162
  140.0075  143.5678  152.2852 LP  0  0  0  0  0  0  0  0  0  0  0  0  # atno 17343 bound_to 10162
  157.0771  131.0133  151.3169 LP  0  0  0  0  0  0  0  0  0  0  0  0  # atno 17370 bound_to 10713
  157.4955  130.7848  149.7551 LP  0  0  0  0  0  0  0  0  0  0  0  0  # atno 17371 bound_to 10713
  140.3943  134.2151  155.7165 LP  0  0  0  0  0  0  0  0  0  0  0  0  # atno 17394 bound_to 11000
  141.1922  133.8177  157.0847 LP  0  0  0  0  0  0  0  0  0  0  0  0  # atno 17395 bound_to 11000

$$$$
