AV-unprocessed.smi:2943|AV-procd|sdf|11269|dock8
  -GOLD-   2272016163D 1   1.00000     0.00000
 Structure written by MMmdl.
 36 38  0  0  0  0  0  0  0  0  1 V2000
  148.3628  140.1710  154.3357 C   0  0  0  0  0  0  0  0  0  0  0  0
  149.5362  140.2253  155.2690 C   0  0  0  0  0  0  0  0  0  0  0  0
  149.6673  141.0395  156.3708 C   0  0  0  0  0  0  0  0  0  0  0  0
  148.6932  142.0496  156.8965 C   0  0  0  0  0  0  0  0  0  0  0  0
  150.8927  140.7988  156.9958 N   0  0  0  0  0  0  0  0  0  0  0  0
  151.3867  141.4624  158.1947 C   0  0  0  0  0  0  0  0  0  0  0  0
  151.5512  142.9779  157.9909 C   0  0  1  0  0  0  0  0  0  0  0  0
  150.4257  143.8088  158.6056 C   0  0  0  0  0  0  0  0  0  0  0  0
  151.1175  145.1307  158.8470 C   0  0  0  0  0  0  0  0  0  0  0  0
  152.5015  144.6727  159.2950 C   0  0  0  0  0  0  0  0  0  0  0  0
  152.7511  143.4569  158.5960 O   0  0  0  0  0  0  0  0  0  0  0  0
  151.5737  139.8222  156.2837 C   0  0  0  0  0  0  0  0  0  0  0  0
  152.8081  139.3058  156.5639 N   0  0  0  0  0  0  0  0  0  0  0  0
  153.1775  138.3834  155.6719 C   0  0  0  0  0  0  0  0  0  0  0  0
  152.5081  137.9397  154.6043 N   0  0  0  0  0  0  0  0  0  0  0  0
  151.2867  138.4537  154.3356 C   0  0  0  0  0  0  0  0  0  0  0  0
  150.6242  137.9653  153.2116 N   0  0  0  0  0  0  0  0  0  0  0  0
  150.7438  139.4495  155.1901 C   0  0  0  0  0  0  0  0  0  0  0  0
  147.4313  140.4215  154.8431 H   0  0  0  0  0  0  0  0  0  0  0  0
  148.2330  139.1751  153.9136 H   0  0  0  0  0  0  0  0  0  0  0  0
  148.4885  140.8688  153.5079 H   0  0  0  0  0  0  0  0  0  0  0  0
  147.9392  142.3033  156.1523 H   0  0  0  0  0  0  0  0  0  0  0  0
  149.1927  142.9772  157.1737 H   0  0  0  0  0  0  0  0  0  0  0  0
  148.1785  141.6659  157.7774 H   0  0  0  0  0  0  0  0  0  0  0  0
  150.7077  141.2597  159.0230 H   0  0  0  0  0  0  0  0  0  0  0  0
  152.3420  141.0148  158.4713 H   0  0  0  0  0  0  0  0  0  0  0  0
  151.6166  143.2083  156.9269 H   0  0  0  0  0  0  0  0  0  0  0  0
  149.5548  143.8922  157.9549 H   0  0  0  0  0  0  0  0  0  0  0  0
  150.1040  143.3808  159.5562 H   0  0  0  0  0  0  0  0  0  0  0  0
  151.1885  145.6933  157.9151 H   0  0  0  0  0  0  0  0  0  0  0  0
  150.6129  145.7528  159.5868 H   0  0  0  0  0  0  0  0  0  0  0  0
  153.2736  145.4154  159.0932 H   0  0  0  0  0  0  0  0  0  0  0  0
  152.5047  144.4617  160.3652 H   0  0  0  0  0  0  0  0  0  0  0  0
  154.1467  137.9359  155.8355 H   0  0  0  0  0  0  0  0  0  0  0  0
  151.0377  137.2575  152.6220 H   0  0  0  0  0  0  0  0  0  0  0  0
  149.7082  138.3026  152.9532 H   0  0  0  0  0  0  0  0  0  0  0  0
  1  2  1  0  0  0  0
  1 19  1  0  0  0  0
  1 20  1  0  0  0  0
  1 21  1  0  0  0  0
  2 18  1  0  0  0  0
  2  3  2  0  0  0  0
  3  4  1  0  0  0  0
  3  5  1  0  0  0  0
  4 22  1  0  0  0  0
  4 23  1  0  0  0  0
  4 24  1  0  0  0  0
  5  6  1  0  0  0  0
  5 12  1  0  0  0  0
  6  7  1  0  0  0  0
  6 25  1  0  0  0  0
  6 26  1  0  0  0  0
  7 11  1  0  0  0  0
  7  8  1  0  0  0  0
  7 27  1  0  0  0  0
  8  9  1  0  0  0  0
  8 28  1  0  0  0  0
  8 29  1  0  0  0  0
  9 10  1  0  0  0  0
  9 30  1  0  0  0  0
  9 31  1  0  0  0  0
 10 11  1  0  0  0  0
 10 32  1  0  0  0  0
 10 33  1  0  0  0  0
 12 18  1  0  0  0  0
 12 13  2  0  0  0  0
 13 14  1  0  0  0  0
 14 15  2  0  0  0  0
 14 34  1  0  0  0  0
 15 16  1  0  0  0  0
 16 17  1  0  0  0  0
 16 18  2  0  0  0  0
 17 35  1  0  0  0  0
 17 36  1  0  0  0  0
M  END
> <s_m_source_file>
AV-unprocessed.smi

> <i_m_source_file_index>
2943

> <i_lp_mmshare_version>
43012

> <i_f3d_flags>
0

> <s_epik_input>
bjFbY0hdbmMoW05IMl0pYyhjMTIpYyhbQ0gzXSljKFtDSDNdKW4yW0NIMl1bQ0BASF0zW0NIMl1bQ0gyXVtDSDJdTzM=

> <s_epik_cmdline>
J2VwaWtfcHl0aG9uJywgJy1waCcsICc3LjAnLCAnLXRuJywgJzgnLCAnLW1hJywgJzIwMCcsICctbWV0YWxfYmluZGluZycsICctaW1hZScsICc8aW5maWxlLm1hZT4nLCAnLW9tYWUnLCAnPG91dGZpbGUubWFlPic=

> <r_epik_Ionization_Penalty>
0.0115167

> <r_epik_Ionization_Penalty_Charging>
0

> <r_epik_Ionization_Penalty_Neutral>
0.0115167

> <r_epik_State_Penalty>
0.00863248

> <r_epik_Charging_Adjusted_Penalty>
0.00863248

> <i_epik_Tot_Q>
0

> <i_epik_Tot_abs_Q>
0

> <r_epik_Metal_State_Penalty>
0.00847169

> <b_epik_Metal_Only>
0

> <s_lp_Force_Field>
OPLS_2005

> <r_lp_Energy>
17.4582

> <b_lp_Chiralities_Consistent>
1

> <s_lp_Variant>
AV-unprocessed.smi:2943-2

> <Gold.Version>
5.8.1

> <Gold.Id.Protein>
6NUR|6NUR_protein|mol2

> <Gold.PLP.Fitness>
37.6075

> <Gold.PLP.PLP>
-32.8151

> <Gold.PLP.part.hbond>
-4.8514

> <Gold.PLP.part.metal>
0.0000

> <Gold.PLP.part.buried>
0.7731

> <Gold.PLP.part.nonpolar>
-28.2882

> <Gold.PLP.part.repulsive>
0.1834

> <Gold.PLP.ligand.clash>
0.0000

> <Gold.PLP.ligand.torsion>
0.5911

> <Gold.PLP.Chemscore.Hbond>
1.9914

> <Gold.PLP.Chemscore.CHOScore>
0.0000

> <Gold.PLP.Chemscore.Metal>
0.0000

> <Gold.Chemscore.Hbonds>
donor molecule, donor type, donor heavy atom, donor atom, acceptor molecule, acceptor atom, score
      L1  H    17    35       P1  7949  1.00
      P1  H  7997  8008       L1    13  0.85
      P1  H 10752 10764       L1    15  0.14

> <Gold.PLP.Chemscore.Internal.Correction>
0.0004

> <Gold.Rescore>
     Score         DG    S(hbond)    S(metal)    S(lipo)     H(rot)  DE(clash)    DE(int)     intcor
     13.92     -14.81       1.18        0.00      73.53       1.26       0.23       0.66       ----

> <Gold.Chemscore.Fitness>
13.9181

> <Gold.Chemscore.DG>
-14.8106

> <Gold.Chemscore.ZeroCoef>
-5.4800

> <Gold.Chemscore.Hbond>
1.1841

> <Gold.Chemscore.Metal>
0.0000

> <Gold.Chemscore.Lipo>
73.5300

> <Gold.Chemscore.Internal_Hbond>
0.0000

> <Gold.Chemscore.DEClash>
0.2319

> <Gold.Chemscore.DEInternal>
0.6605

> <Gold.Chemscore.Rot>
1.2607

> <Gold.Chemscore.Internal.Correction>
   9.000000E+99

> <Gold.Chemscore.Hbonds>
donor molecule, donor type, donor heavy atom, donor atom, acceptor molecule, acceptor atom, score
      L1  H    17    35       P1  7949  0.30
      P1  H  7997  8008       L1    13  0.14
      P1  H 10752 10764       L1    15  0.11

> <Gold.Chemscore.Hbond.Weighted>
-3.9550

> <Gold.Chemscore.Metal.Weighted>
-0.0000

> <Gold.Chemscore.Lipo.Weighted>
-8.6030

> <Gold.Chemscore.Internal_Hbond.Weighted>
0.0000

> <Gold.Chemscore.DEClash.Weighted>
0.2319

> <Gold.Chemscore.DEInternal.Weighted>
0.6605

> <Gold.Chemscore.Rot.Weighted>
3.2274

> <Gold.Chemscore.Internal.Correction.Weighted>
   9.000000E+99

> <Gold.Protein.RotatedTorsions>
[ 6907 6896 6895 6894 ] final  -39.50 input  -60.11 | X-H torsion
[ 7974 7965 7964 7962 ] final  -43.28 input  175.53 | X-H torsion
[ 8008 7997 7996 7995 ] final  -70.95 input   59.86 | X-H torsion
[ 10167 10162 10161 10158 ] final -103.30 input  -65.29 | X-H torsion
[ 10718 10713 10712 10709 ] final -172.83 input   66.30 | X-H torsion
[ 10763 10752 10751 10750 ] final  -83.33 input  -60.55 | X-H torsion
[ 11005 11000 10999 10996 ] final  179.22 input  -57.11 | X-H torsion

> <Gold.Protein.ActiveResidues>
 VAL166  LYS551  ARG553  GLY616  TRP617  ASP618  TYR619  PRO620  LYS621  CYS622 
 ASP623  PHE694  ASN695  SER759  ASP760  ASP761  ALA762  ILE779  LEU786  VAL792 
 PHE793  MET794  SER795  GLU796  ALA797  LYS798  CYS799  TRP800  GLU811  SER814 

> <Gold.Protein.RotatedAtoms>
  150.9897  134.9234  159.7891 H   0  0  0  0  0  0  0  0  0  0  0  0  # atno 6907 bound_to 6896
  152.5247  134.3299  159.9189 H   0  0  0  0  0  0  0  0  0  0  0  0  # atno 6908 bound_to 6896
  151.3305  133.3961  159.2696 H   0  0  0  0  0  0  0  0  0  0  0  0  # atno 6909 bound_to 6896
  146.0034  140.7048  142.9259 H   0  0  0  0  0  0  0  0  0  0  0  0  # atno 7974 bound_to 7965
  154.5050  140.0825  156.7876 H   0  0  0  0  0  0  0  0  0  0  0  0  # atno 8008 bound_to 7997
  155.3914  140.3432  155.4233 H   0  0  0  0  0  0  0  0  0  0  0  0  # atno 8009 bound_to 7997
  156.1505  140.1557  156.8765 H   0  0  0  0  0  0  0  0  0  0  0  0  # atno 8010 bound_to 7997
  140.2215  143.3672  152.0965 H   0  0  0  0  0  0  0  0  0  0  0  0  # atno 10167 bound_to 10162
  156.7614  130.9415  151.3118 H   0  0  0  0  0  0  0  0  0  0  0  0  # atno 10718 bound_to 10713
  154.5864  135.5560  153.7236 H   0  0  0  0  0  0  0  0  0  0  0  0  # atno 10763 bound_to 10752
  153.0100  135.6332  154.1910 H   0  0  0  0  0  0  0  0  0  0  0  0  # atno 10764 bound_to 10752
  154.1851  135.2885  155.3020 H   0  0  0  0  0  0  0  0  0  0  0  0  # atno 10765 bound_to 10752
  140.4038  134.6754  157.4576 H   0  0  0  0  0  0  0  0  0  0  0  0  # atno 11005 bound_to 11000
  144.6927  140.3273  143.7222 LP  0  0  0  0  0  0  0  0  0  0  0  0  # atno 17320 bound_to 7965
  145.7452  139.1776  143.2353 LP  0  0  0  0  0  0  0  0  0  0  0  0  # atno 17321 bound_to 7965
  139.5142  144.6945  151.5669 LP  0  0  0  0  0  0  0  0  0  0  0  0  # atno 17342 bound_to 10162
  140.6251  143.9183  150.6558 LP  0  0  0  0  0  0  0  0  0  0  0  0  # atno 17343 bound_to 10162
  157.6733  130.9071  150.0090 LP  0  0  0  0  0  0  0  0  0  0  0  0  # atno 17370 bound_to 10713
  156.1337  130.3643  149.9691 LP  0  0  0  0  0  0  0  0  0  0  0  0  # atno 17371 bound_to 10713
  140.0317  134.6396  155.9098 LP  0  0  0  0  0  0  0  0  0  0  0  0  # atno 17394 bound_to 11000
  141.1847  133.6553  156.5167 LP  0  0  0  0  0  0  0  0  0  0  0  0  # atno 17395 bound_to 11000

$$$$
