AV-unprocessed.smi:243|AV-procd|sdf|1860|dock3
  -GOLD-   2262020493D 1   1.00000     0.00000
 Structure written by MMmdl.
 58 61  0  0  0  0  0  0  0  0  2 V2000
  144.3444  132.7725  149.4003 C   0  0  0  0  0  0  0  0  0  0  0  0
  145.8035  132.3073  149.2852 C   0  0  0  0  0  0  0  0  0  0  0  0
  146.3392  131.7875  150.5689 N   0  3  2  0  0  0  0  0  0  0  0  0
  145.5162  130.6780  151.1115 C   0  0  0  0  0  0  0  0  0  0  0  0
  146.1949  130.0414  152.3317 C   0  0  0  0  0  0  0  0  0  0  0  0
  146.4778  131.0929  153.4273 C   0  0  1  0  0  0  0  0  0  0  0  0
  147.0782  130.5104  154.6374 N   0  0  0  0  0  0  0  0  0  0  0  0
  146.2196  129.7515  155.5384 C   0  0  0  0  0  0  0  0  0  0  0  0
  148.3755  130.1127  154.6727 C   0  0  0  0  0  0  0  0  0  0  0  0
  148.7953  129.0659  153.9157 N   0  0  0  0  0  0  0  0  0  0  0  0
  150.0710  128.6705  153.9602 C   0  0  0  0  0  0  0  0  0  0  0  0
  151.0754  129.1731  154.6805 N   0  0  0  0  0  0  0  0  0  0  0  0
  150.6591  130.2221  155.4463 C   0  0  0  0  0  0  0  0  0  0  0  0
  149.3391  130.7515  155.5008 C   0  0  0  0  0  0  0  0  0  0  0  0
  149.2963  131.8305  156.3747 N   0  0  0  0  0  0  0  0  0  0  0  0
  150.5211  131.9324  156.8131 C   0  0  0  0  0  0  0  0  0  0  0  0
  151.4032  130.9973  156.3191 N   0  0  0  0  0  0  0  0  0  0  0  0
  152.8192  130.8793  156.6345 C   0  0  0  0  0  0  0  0  0  0  0  0
  153.1241  130.7261  158.1469 C   0  0  2  0  0  0  0  0  0  0  0  0
  152.7790  131.9240  158.8179 O   0  0  0  0  0  0  0  0  0  0  0  0
  154.5813  130.3792  158.4613 C   0  0  0  0  0  0  0  0  0  0  0  0
  154.5374  128.8725  158.6682 C   0  0  0  0  0  0  0  0  0  0  0  0
  153.3188  128.7009  159.3685 O   0  0  0  0  0  0  0  0  0  0  0  0
  152.3465  129.5448  158.7633 C   0  0  0  0  0  0  0  0  0  0  0  0
  147.2626  132.2995  152.8443 C   0  0  2  0  0  0  0  0  0  0  0  0
  147.4446  133.4286  153.8751 C   0  0  0  0  0  0  0  0  0  0  0  0
  146.5492  132.8466  151.5903 C   0  0  0  0  0  0  0  0  0  0  0  0
  144.0179  133.2418  148.4720 H   0  0  0  0  0  0  0  0  0  0  0  0
  144.2260  133.5060  150.1984 H   0  0  0  0  0  0  0  0  0  0  0  0
  143.6630  131.9455  149.5978 H   0  0  0  0  0  0  0  0  0  0  0  0
  145.9091  131.5554  148.5018 H   0  0  0  0  0  0  0  0  0  0  0  0
  146.3981  133.1660  148.9705 H   0  0  0  0  0  0  0  0  0  0  0  0
  144.5260  131.0505  151.3786 H   0  0  0  0  0  0  0  0  0  0  0  0
  145.3723  129.9128  150.3476 H   0  0  0  0  0  0  0  0  0  0  0  0
  145.5571  129.2492  152.7251 H   0  0  0  0  0  0  0  0  0  0  0  0
  147.1143  129.5586  152.0035 H   0  0  0  0  0  0  0  0  0  0  0  0
  145.5093  131.4820  153.7450 H   0  0  0  0  0  0  0  0  0  0  0  0
  146.3189  128.6810  155.3543 H   0  0  0  0  0  0  0  0  0  0  0  0
  145.1723  130.0210  155.4000 H   0  0  0  0  0  0  0  0  0  0  0  0
  146.4758  129.9456  156.5799 H   0  0  0  0  0  0  0  0  0  0  0  0
  150.3230  127.8299  153.3307 H   0  0  0  0  0  0  0  0  0  0  0  0
  150.8157  132.6973  157.5169 H   0  0  0  0  0  0  0  0  0  0  0  0
  153.2170  130.0244  156.0859 H   0  0  0  0  0  0  0  0  0  0  0  0
  153.3282  131.7580  156.2363 H   0  0  0  0  0  0  0  0  0  0  0  0
  153.5353  132.4904  158.8283 H   0  0  0  0  0  0  0  0  0  0  0  0
  155.2946  130.6750  157.6944 H   0  0  0  0  0  0  0  0  0  0  0  0
  154.8979  130.8484  159.3945 H   0  0  0  0  0  0  0  0  0  0  0  0
  154.4966  128.3448  157.7140 H   0  0  0  0  0  0  0  0  0  0  0  0
  155.3881  128.4981  159.2378 H   0  0  0  0  0  0  0  0  0  0  0  0
  151.6033  129.8539  159.4995 H   0  0  0  0  0  0  0  0  0  0  0  0
  151.8240  128.9714  157.9962 H   0  0  0  0  0  0  0  0  0  0  0  0
  148.2536  131.9726  152.5295 H   0  0  0  0  0  0  0  0  0  0  0  0
  146.4828  133.7900  154.2406 H   0  0  0  0  0  0  0  0  0  0  0  0
  147.9740  134.2763  153.4396 H   0  0  0  0  0  0  0  0  0  0  0  0
  148.0236  133.0998  154.7377 H   0  0  0  0  0  0  0  0  0  0  0  0
  147.1492  133.6537  151.1717 H   0  0  0  0  0  0  0  0  0  0  0  0
  145.5863  133.2824  151.8620 H   0  0  0  0  0  0  0  0  0  0  0  0
  147.2452  131.3921  150.3606 H   0  0  0  0  0  0  0  0  0  0  0  0
  1  2  1  0  0  0  0
  1 28  1  0  0  0  0
  1 29  1  0  0  0  0
  1 30  1  0  0  0  0
  2  3  1  0  0  0  0
  2 31  1  0  0  0  0
  2 32  1  0  0  0  0
  3 27  1  0  0  0  0
  3  4  1  0  0  0  0
  3 58  1  0  0  0  0
  4  5  1  0  0  0  0
  4 33  1  0  0  0  0
  4 34  1  0  0  0  0
  5  6  1  0  0  0  0
  5 35  1  0  0  0  0
  5 36  1  0  0  0  0
  6  7  1  0  0  0  0
  6 25  1  0  0  0  0
  6 37  1  0  0  0  0
  7  8  1  0  0  0  0
  7  9  1  0  0  0  0
  8 38  1  0  0  0  0
  8 39  1  0  0  0  0
  8 40  1  0  0  0  0
  9 14  1  0  0  0  0
  9 10  2  0  0  0  0
 10 11  1  0  0  0  0
 11 12  2  0  0  0  0
 11 41  1  0  0  0  0
 12 13  1  0  0  0  0
 13 17  1  0  0  0  0
 13 14  2  0  0  0  0
 14 15  1  0  0  0  0
 15 16  2  0  0  0  0
 16 17  1  0  0  0  0
 16 42  1  0  0  0  0
 17 18  1  0  0  0  0
 18 19  1  0  0  0  0
 18 43  1  0  0  0  0
 18 44  1  0  0  0  0
 19 24  1  0  0  0  0
 19 20  1  0  0  0  0
 19 21  1  0  0  0  0
 20 45  1  0  0  0  0
 21 22  1  0  0  0  0
 21 46  1  0  0  0  0
 21 47  1  0  0  0  0
 22 23  1  0  0  0  0
 22 48  1  0  0  0  0
 22 49  1  0  0  0  0
 23 24  1  0  0  0  0
 24 50  1  0  0  0  0
 24 51  1  0  0  0  0
 25 26  1  0  0  0  0
 25 27  1  0  0  0  0
 25 52  1  0  0  0  0
 26 53  1  0  0  0  0
 26 54  1  0  0  0  0
 26 55  1  0  0  0  0
 27 56  1  0  0  0  0
 27 57  1  0  0  0  0
M  CHG  1   3   1
M  END
> <s_m_source_file>
AV-unprocessed.smi

> <i_m_source_file_index>
243

> <i_lp_mmshare_version>
43012

> <i_f3d_flags>
0

> <s_epik_input>
W0NIM11bQ0gyXU4xW0NIMl1bQ0gyXVtDQEhdKFtDQEBIXShbQ0gzXSlbQ0gyXTEpTihbQ0gzXSljKG5bY0hdbjIpYyhjMjMpbltjSF1uM1tDSDJdW0NAQF00KFtPSF0pW0NIMl1bQ0gyXU9bQ0gyXTQ=

> <s_epik_cmdline>
J2VwaWtfcHl0aG9uJywgJy1waCcsICc3LjAnLCAnLXRuJywgJzgnLCAnLW1hJywgJzIwMCcsICctbWV0YWxfYmluZGluZycsICctaW1hZScsICc8aW5maWxlLm1hZT4nLCAnLW9tYWUnLCAnPG91dGZpbGUubWFlPic=

> <r_lp_tautomer_probability>
1

> <r_epik_Ionization_Penalty>
0.00253099

> <r_epik_Ionization_Penalty_Charging>
0.00137877

> <r_epik_Ionization_Penalty_Neutral>
0.00115221

> <r_epik_State_Penalty>
-0

> <r_epik_Charging_Adjusted_Penalty>
0.00137877

> <i_epik_Tot_Q>
1

> <i_epik_Tot_abs_Q>
1

> <r_epik_Metal_State_Penalty>
-0

> <b_epik_Metal_Only>
0

> <s_lp_Force_Field>
OPLS_2005

> <r_lp_Energy>
45.5006

> <b_lp_Chiralities_Consistent>
1

> <s_lp_Variant>
AV-unprocessed.smi:243-13

> <Gold.Version>
5.8.1

> <Gold.Id.Protein>
6NUR|6NUR_protein|mol2

> <Gold.PLP.Fitness>
43.3979

> <Gold.PLP.PLP>
-37.2022

> <Gold.PLP.part.hbond>
-2.0000

> <Gold.PLP.part.metal>
0.0000

> <Gold.PLP.part.buried>
-5.2885

> <Gold.PLP.part.nonpolar>
-29.2017

> <Gold.PLP.part.repulsive>
0.2363

> <Gold.PLP.ligand.clash>
0.0000

> <Gold.PLP.ligand.torsion>
1.8276

> <Gold.PLP.Chemscore.Hbond>
2.0000

> <Gold.PLP.Chemscore.CHOScore>
0.9303

> <Gold.PLP.Chemscore.Metal>
0.0000

> <Gold.Chemscore.Hbonds>
donor molecule, donor type, donor heavy atom, donor atom, acceptor molecule, acceptor atom, score
      L1  H     3    58       P1 10747  1.00
      L1  C    11    41       P1 10737  0.94

> <Gold.PLP.Chemscore.Internal.Correction>
1.0601

> <Gold.Rescore>
     Score         DG    S(hbond)    S(metal)    S(lipo)     H(rot)  DE(clash)    DE(int)     intcor
     13.97     -16.05       1.98        0.00      82.76       2.24       0.19       1.89       ----

> <Gold.Chemscore.Fitness>
13.9666

> <Gold.Chemscore.DG>
-16.0487

> <Gold.Chemscore.ZeroCoef>
-5.4800

> <Gold.Chemscore.Hbond>
1.9804

> <Gold.Chemscore.Metal>
0.0000

> <Gold.Chemscore.Lipo>
82.7620

> <Gold.Chemscore.Internal_Hbond>
0.0000

> <Gold.Chemscore.DEClash>
0.1899

> <Gold.Chemscore.DEInternal>
1.8922

> <Gold.Chemscore.Rot>
2.2379

> <Gold.Chemscore.Internal.Correction>
   9.000000E+99

> <Gold.Chemscore.Hbonds>
donor molecule, donor type, donor heavy atom, donor atom, acceptor molecule, acceptor atom, score
      L1  H     3    58       P1 10747  1.00

> <Gold.Chemscore.Hbond.Weighted>
-6.6147

> <Gold.Chemscore.Metal.Weighted>
-0.0000

> <Gold.Chemscore.Lipo.Weighted>
-9.6832

> <Gold.Chemscore.Internal_Hbond.Weighted>
0.0000

> <Gold.Chemscore.DEClash.Weighted>
0.1899

> <Gold.Chemscore.DEInternal.Weighted>
1.8922

> <Gold.Chemscore.Rot.Weighted>
5.7291

> <Gold.Chemscore.Internal.Correction.Weighted>
   9.000000E+99

> <Gold.Protein.RotatedTorsions>
[ 6907 6896 6895 6894 ] final -102.92 input  -60.11 | X-H torsion
[ 7974 7965 7964 7962 ] final -154.20 input  175.53 | X-H torsion
[ 8008 7997 7996 7995 ] final  -97.04 input   59.86 | X-H torsion
[ 10167 10162 10161 10158 ] final  -75.58 input  -65.29 | X-H torsion
[ 10718 10713 10712 10709 ] final  108.15 input   66.30 | X-H torsion
[ 10763 10752 10751 10750 ] final   11.10 input  -60.55 | X-H torsion
[ 11005 11000 10999 10996 ] final  106.29 input  -57.11 | X-H torsion

> <Gold.Protein.ActiveResidues>
 VAL166  LYS551  ARG553  GLY616  TRP617  ASP618  TYR619  PRO620  LYS621  CYS622 
 ASP623  PHE694  ASN695  SER759  ASP760  ASP761  ALA762  ILE779  LEU786  VAL792 
 PHE793  MET794  SER795  GLU796  ALA797  LYS798  CYS799  TRP800  GLU811  SER814 

> <Gold.Protein.RotatedAtoms>
  150.7217  134.0509  159.3797 H   0  0  0  0  0  0  0  0  0  0  0  0  # atno 6907 bound_to 6896
  151.8485  135.0563  160.0465 H   0  0  0  0  0  0  0  0  0  0  0  0  # atno 6908 bound_to 6896
  152.2808  133.5433  159.5533 H   0  0  0  0  0  0  0  0  0  0  0  0  # atno 6909 bound_to 6896
  144.7701  140.4420  143.5913 H   0  0  0  0  0  0  0  0  0  0  0  0  # atno 7974 bound_to 7965
  154.7825  140.0466  157.1138 H   0  0  0  0  0  0  0  0  0  0  0  0  # atno 8008 bound_to 7997
  154.9688  140.3087  155.4977 H   0  0  0  0  0  0  0  0  0  0  0  0  # atno 8009 bound_to 7997
  156.2938  140.2257  156.4779 H   0  0  0  0  0  0  0  0  0  0  0  0  # atno 8010 bound_to 7997
  140.4930  143.2376  151.7875 H   0  0  0  0  0  0  0  0  0  0  0  0  # atno 10167 bound_to 10162
  157.6598  131.0887  150.6262 H   0  0  0  0  0  0  0  0  0  0  0  0  # atno 10718 bound_to 10713
  153.1962  135.6849  153.8290 H   0  0  0  0  0  0  0  0  0  0  0  0  # atno 10763 bound_to 10752
  153.7572  135.3215  155.3332 H   0  0  0  0  0  0  0  0  0  0  0  0  # atno 10764 bound_to 10752
  154.8145  135.4695  154.0707 H   0  0  0  0  0  0  0  0  0  0  0  0  # atno 10765 bound_to 10752
  139.8812  134.9364  156.5643 H   0  0  0  0  0  0  0  0  0  0  0  0  # atno 11005 bound_to 11000
  145.6349  139.1541  143.2948 LP  0  0  0  0  0  0  0  0  0  0  0  0  # atno 17320 bound_to 7965
  146.1841  140.6450  142.9175 LP  0  0  0  0  0  0  0  0  0  0  0  0  # atno 17321 bound_to 7965
  139.4855  144.4623  151.9526 LP  0  0  0  0  0  0  0  0  0  0  0  0  # atno 17342 bound_to 10162
  140.3710  144.2855  150.5920 LP  0  0  0  0  0  0  0  0  0  0  0  0  # atno 17343 bound_to 10162
  156.6565  130.4500  149.5701 LP  0  0  0  0  0  0  0  0  0  0  0  0  # atno 17370 bound_to 10713
  156.2098  130.6672  151.1258 LP  0  0  0  0  0  0  0  0  0  0  0  0  # atno 17371 bound_to 10713
  140.8146  133.8402  155.8840 LP  0  0  0  0  0  0  0  0  0  0  0  0  # atno 17394 bound_to 11000
  140.9475  134.1821  157.4752 LP  0  0  0  0  0  0  0  0  0  0  0  0  # atno 17395 bound_to 11000

$$$$
