AV-unprocessed.smi:3042|AV-procd|sdf|11602|dock6
  -GOLD-   2272016583D 1   1.00000     0.00000
 Structure written by MMmdl.
 32 33  0  0  0  0  0  0  0  0  1 V2000
  148.9018  142.4665  154.4228 N   0  0  0  0  0  0  0  0  0  0  0  0
  149.0882  141.4900  155.5087 C   0  0  0  0  0  0  0  0  0  0  0  0
  150.5708  141.0944  155.7267 C   0  0  1  0  0  0  0  0  0  0  0  0
  151.0795  141.7649  157.0022 C   0  0  0  0  0  0  0  0  0  0  0  0
  151.4850  140.9911  158.1102 C   0  0  0  0  0  0  0  0  0  0  0  0
  151.9503  141.6473  159.2660 C   0  0  0  0  0  0  0  0  0  0  0  0
  151.9931  143.0557  159.2658 C   0  0  0  0  0  0  0  0  0  0  0  0
  151.6095  143.8089  158.2130 N   0  0  0  0  0  0  0  0  0  0  0  0
  151.1648  143.1714  157.1085 C   0  0  0  0  0  0  0  0  0  0  0  0
  150.8151  139.6370  155.7481 N   0  0  0  0  0  0  0  0  0  0  0  0
  152.2483  139.3218  155.7343 C   0  0  0  0  0  0  0  0  0  0  0  0
  152.5202  137.8080  155.7513 C   0  0  0  0  0  0  0  0  0  0  0  0
  151.8738  137.1964  154.6425 O   0  0  0  0  0  0  0  0  0  0  0  0
  150.4702  137.4222  154.6459 C   0  0  0  0  0  0  0  0  0  0  0  0
  150.1866  138.9344  154.6261 C   0  0  0  0  0  0  0  0  0  0  0  0
  148.9987  143.4167  154.7776 H   0  0  0  0  0  0  0  0  0  0  0  0
  149.6145  142.3413  153.7054 H   0  0  0  0  0  0  0  0  0  0  0  0
  148.6747  141.8911  156.4345 H   0  0  0  0  0  0  0  0  0  0  0  0
  148.4937  140.6106  155.2669 H   0  0  0  0  0  0  0  0  0  0  0  0
  151.1376  141.5152  154.8943 H   0  0  0  0  0  0  0  0  0  0  0  0
  151.4406  139.9123  158.0779 H   0  0  0  0  0  0  0  0  0  0  0  0
  152.2677  141.0848  160.1315 H   0  0  0  0  0  0  0  0  0  0  0  0
  152.3457  143.5912  160.1349 H   0  0  0  0  0  0  0  0  0  0  0  0
  150.8662  143.8035  156.2851 H   0  0  0  0  0  0  0  0  0  0  0  0
  152.7131  139.7597  154.8495 H   0  0  0  0  0  0  0  0  0  0  0  0
  152.7477  139.7627  156.5968 H   0  0  0  0  0  0  0  0  0  0  0  0
  153.5911  137.6150  155.6883 H   0  0  0  0  0  0  0  0  0  0  0  0
  152.1677  137.3611  156.6823 H   0  0  0  0  0  0  0  0  0  0  0  0
  150.0310  136.9432  153.7707 H   0  0  0  0  0  0  0  0  0  0  0  0
  150.0212  136.9568  155.5247 H   0  0  0  0  0  0  0  0  0  0  0  0
  149.1057  139.0605  154.6509 H   0  0  0  0  0  0  0  0  0  0  0  0
  150.5349  139.3566  153.6824 H   0  0  0  0  0  0  0  0  0  0  0  0
  1  2  1  0  0  0  0
  1 16  1  0  0  0  0
  1 17  1  0  0  0  0
  2  3  1  0  0  0  0
  2 18  1  0  0  0  0
  2 19  1  0  0  0  0
  3  4  1  0  0  0  0
  3 10  1  0  0  0  0
  3 20  1  0  0  0  0
  4  9  1  0  0  0  0
  4  5  2  0  0  0  0
  5  6  1  0  0  0  0
  5 21  1  0  0  0  0
  6  7  2  0  0  0  0
  6 22  1  0  0  0  0
  7  8  1  0  0  0  0
  7 23  1  0  0  0  0
  8  9  2  0  0  0  0
  9 24  1  0  0  0  0
 10 15  1  0  0  0  0
 10 11  1  0  0  0  0
 11 12  1  0  0  0  0
 11 25  1  0  0  0  0
 11 26  1  0  0  0  0
 12 13  1  0  0  0  0
 12 27  1  0  0  0  0
 12 28  1  0  0  0  0
 13 14  1  0  0  0  0
 14 15  1  0  0  0  0
 14 29  1  0  0  0  0
 14 30  1  0  0  0  0
 15 31  1  0  0  0  0
 15 32  1  0  0  0  0
M  END
> <s_m_source_file>
AV-unprocessed.smi

> <i_m_source_file_index>
3042

> <i_lp_mmshare_version>
43012

> <i_f3d_flags>
0

> <s_epik_input>
W0NIMl0xW0NIMl1PW0NIMl1bQ0gyXU4xW0NASF0oW0NIMl1bTkgyXSljMltjSF1bY0hdW2NIXW5bY0hdMg==

> <s_epik_cmdline>
J2VwaWtfcHl0aG9uJywgJy1waCcsICc3LjAnLCAnLXRuJywgJzgnLCAnLW1hJywgJzIwMCcsICctbWV0YWxfYmluZGluZycsICctaW1hZScsICc8aW5maWxlLm1hZT4nLCAnLW9tYWUnLCAnPG91dGZpbGUubWFlPic=

> <r_epik_Ionization_Penalty>
2.62143

> <r_epik_Ionization_Penalty_Charging>
0

> <r_epik_Ionization_Penalty_Neutral>
2.62143

> <r_epik_State_Penalty>
2.72742

> <r_epik_Charging_Adjusted_Penalty>
2.72742

> <i_epik_Tot_Q>
0

> <i_epik_Tot_abs_Q>
0

> <r_epik_Metal_State_Penalty>
2.72081

> <b_epik_Metal_Only>
0

> <s_lp_Force_Field>
OPLS_2005

> <r_lp_Energy>
27.4396

> <b_lp_Chiralities_Consistent>
1

> <s_lp_Variant>
AV-unprocessed.smi:3042-4

> <Gold.Version>
5.8.1

> <Gold.Id.Protein>
6NUR|6NUR_protein|mol2

> <Gold.PLP.Fitness>
36.4537

> <Gold.PLP.PLP>
-29.1708

> <Gold.PLP.part.hbond>
-3.0000

> <Gold.PLP.part.metal>
0.0000

> <Gold.PLP.part.buried>
-2.9232

> <Gold.PLP.part.nonpolar>
-24.5261

> <Gold.PLP.part.repulsive>
0.2306

> <Gold.PLP.ligand.clash>
0.0000

> <Gold.PLP.ligand.torsion>
0.8867

> <Gold.PLP.Chemscore.Hbond>
1.9920

> <Gold.PLP.Chemscore.CHOScore>
1.0000

> <Gold.PLP.Chemscore.Metal>
0.0000

> <Gold.Chemscore.Hbonds>
donor molecule, donor type, donor heavy atom, donor atom, acceptor molecule, acceptor atom, score
      L1  H     1    16       P1  8028  1.00
      P1  H 10752 10763       L1    13  0.99
      L1  C     9    24       P1  8028  1.00

> <Gold.PLP.Chemscore.Internal.Correction>
0.0803

> <Gold.Rescore>
     Score         DG    S(hbond)    S(metal)    S(lipo)     H(rot)  DE(clash)    DE(int)     intcor
     15.69     -17.39       1.80        0.00      81.94       1.44       0.03       1.67       ----

> <Gold.Chemscore.Fitness>
15.6894

> <Gold.Chemscore.DG>
-17.3949

> <Gold.Chemscore.ZeroCoef>
-5.4800

> <Gold.Chemscore.Hbond>
1.7976

> <Gold.Chemscore.Metal>
0.0000

> <Gold.Chemscore.Lipo>
81.9376

> <Gold.Chemscore.Internal_Hbond>
0.0000

> <Gold.Chemscore.DEClash>
0.0314

> <Gold.Chemscore.DEInternal>
1.6741

> <Gold.Chemscore.Rot>
1.4359

> <Gold.Chemscore.Internal.Correction>
   9.000000E+99

> <Gold.Chemscore.Hbonds>
donor molecule, donor type, donor heavy atom, donor atom, acceptor molecule, acceptor atom, score
      L1  H     1    16       P1  8028  0.95
      P1  H 10752 10763       L1    13  0.28

> <Gold.Chemscore.Hbond.Weighted>
-6.0041

> <Gold.Chemscore.Metal.Weighted>
-0.0000

> <Gold.Chemscore.Lipo.Weighted>
-9.5867

> <Gold.Chemscore.Internal_Hbond.Weighted>
0.0000

> <Gold.Chemscore.DEClash.Weighted>
0.0314

> <Gold.Chemscore.DEInternal.Weighted>
1.6741

> <Gold.Chemscore.Rot.Weighted>
3.6759

> <Gold.Chemscore.Internal.Correction.Weighted>
   9.000000E+99

> <Gold.Protein.RotatedTorsions>
[ 6907 6896 6895 6894 ] final    8.62 input  -60.11 | X-H torsion
[ 7974 7965 7964 7962 ] final   54.17 input  175.53 | X-H torsion
[ 8008 7997 7996 7995 ] final -133.61 input   59.86 | X-H torsion
[ 10167 10162 10161 10158 ] final  -72.83 input  -65.29 | X-H torsion
[ 10718 10713 10712 10709 ] final -124.45 input   66.30 | X-H torsion
[ 10763 10752 10751 10750 ] final   48.37 input  -60.55 | X-H torsion
[ 11005 11000 10999 10996 ] final   72.99 input  -57.11 | X-H torsion

> <Gold.Protein.ActiveResidues>
 VAL166  LYS551  ARG553  GLY616  TRP617  ASP618  TYR619  PRO620  LYS621  CYS622 
 ASP623  PHE694  ASN695  SER759  ASP760  ASP761  ALA762  ILE779  LEU786  VAL792 
 PHE793  MET794  SER795  GLU796  ALA797  LYS798  CYS799  TRP800  GLU811  SER814 

> <Gold.Protein.RotatedAtoms>
  151.7091  135.0916  160.0264 H   0  0  0  0  0  0  0  0  0  0  0  0  # atno 6907 bound_to 6896
  152.3673  133.6369  159.6069 H   0  0  0  0  0  0  0  0  0  0  0  0  # atno 6908 bound_to 6896
  150.7647  133.9243  159.3449 H   0  0  0  0  0  0  0  0  0  0  0  0  # atno 6909 bound_to 6896
  145.9636  139.4082  143.0233 H   0  0  0  0  0  0  0  0  0  0  0  0  # atno 7974 bound_to 7965
  155.3484  140.0476  157.3046 H   0  0  0  0  0  0  0  0  0  0  0  0  # atno 8008 bound_to 7997
  154.5240  140.2235  155.8888 H   0  0  0  0  0  0  0  0  0  0  0  0  # atno 8009 bound_to 7997
  156.1720  140.3093  155.8997 H   0  0  0  0  0  0  0  0  0  0  0  0  # atno 8010 bound_to 7997
  140.5160  143.2338  151.7512 H   0  0  0  0  0  0  0  0  0  0  0  0  # atno 10167 bound_to 10162
  156.1589  130.6587  151.0021 H   0  0  0  0  0  0  0  0  0  0  0  0  # atno 10718 bound_to 10713
  152.9792  135.5946  154.3915 H   0  0  0  0  0  0  0  0  0  0  0  0  # atno 10763 bound_to 10752
  154.3570  135.2767  155.2343 H   0  0  0  0  0  0  0  0  0  0  0  0  # atno 10764 bound_to 10752
  154.4357  135.6025  153.6152 H   0  0  0  0  0  0  0  0  0  0  0  0  # atno 10765 bound_to 10752
  139.9462  134.7308  156.0973 H   0  0  0  0  0  0  0  0  0  0  0  0  # atno 11005 bound_to 11000
  145.8006  140.9773  143.1001 LP  0  0  0  0  0  0  0  0  0  0  0  0  # atno 17320 bound_to 7965
  144.6820  139.9796  143.7483 LP  0  0  0  0  0  0  0  0  0  0  0  0  # atno 17321 bound_to 7965
  139.4909  144.4323  151.9858 LP  0  0  0  0  0  0  0  0  0  0  0  0  # atno 17342 bound_to 10162
  140.3417  144.3195  150.5966 LP  0  0  0  0  0  0  0  0  0  0  0  0  # atno 17343 bound_to 10162
  157.6717  131.0860  150.7597 LP  0  0  0  0  0  0  0  0  0  0  0  0  # atno 17370 bound_to 10713
  156.7660  130.4814  149.5427 LP  0  0  0  0  0  0  0  0  0  0  0  0  # atno 17371 bound_to 10713
  141.1113  133.6642  156.2986 LP  0  0  0  0  0  0  0  0  0  0  0  0  # atno 17394 bound_to 11000
  140.5828  134.5728  157.5483 LP  0  0  0  0  0  0  0  0  0  0  0  0  # atno 17395 bound_to 11000

$$$$
