AV-unprocessed.smi:2419|AV-procd|sdf|9553|dock7
  -GOLD-   2272013183D 1   1.00000     0.00000
 Structure written by MMmdl.
 27 28  0  0  0  0  0  0  0  0  2 V2000
  151.3133  139.4837  158.5329 O   0  0  0  0  0  0  0  0  0  0  0  0
  152.1867  140.0990  157.9172 C   0  0  0  0  0  0  0  0  0  0  0  0
  152.8057  141.1355  158.4972 N   0  0  0  0  0  0  0  0  0  0  0  0
  152.5459  141.6241  159.8467 C   0  0  0  0  0  0  0  0  0  0  0  0
  152.1917  143.1171  159.8394 C   0  0  0  0  0  0  0  0  0  0  0  0
  152.3588  143.5465  161.1769 O   0  0  0  0  0  0  0  0  0  0  0  0
  152.9217  144.0104  158.8194 C   0  0  0  0  0  0  0  0  0  0  0  0
  151.6098  144.7532  158.5601 C   0  0  0  0  0  0  0  0  0  0  0  0
  150.8738  143.5634  159.1781 C   0  0  0  0  0  0  0  0  0  0  0  0
  152.6178  139.8390  156.6617 N   0  5  0  0  0  0  0  0  0  0  0  0
  151.8482  139.1287  155.8207 C   0  0  0  0  0  0  0  0  0  0  0  0
  151.1187  139.6895  154.8493 N   0  0  0  0  0  0  0  0  0  0  0  0
  150.3902  138.7653  154.0982 C   0  0  0  0  0  0  0  0  0  0  0  0
  150.5606  137.4714  154.5139 C   0  0  0  0  0  0  0  0  0  0  0  0
  151.6495  137.3745  155.8684 S   0  0  0  0  0  0  0  0  0  0  0  0
  153.5103  141.6206  157.9614 H   0  0  0  0  0  0  0  0  0  0  0  0
  151.7617  141.0240  160.3122 H   0  0  0  0  0  0  0  0  0  0  0  0
  153.4460  141.4587  160.4404 H   0  0  0  0  0  0  0  0  0  0  0  0
  151.8658  144.3465  161.2733 H   0  0  0  0  0  0  0  0  0  0  0  0
  153.7133  144.6334  159.2372 H   0  0  0  0  0  0  0  0  0  0  0  0
  153.2710  143.4638  157.9420 H   0  0  0  0  0  0  0  0  0  0  0  0
  151.5150  145.6631  159.1546 H   0  0  0  0  0  0  0  0  0  0  0  0
  151.3866  144.9296  157.5076 H   0  0  0  0  0  0  0  0  0  0  0  0
  150.5148  142.8584  158.4263 H   0  0  0  0  0  0  0  0  0  0  0  0
  150.0813  143.8381  159.8753 H   0  0  0  0  0  0  0  0  0  0  0  0
  149.7729  139.1179  153.2854 H   0  0  0  0  0  0  0  0  0  0  0  0
  150.1150  136.5749  154.1102 H   0  0  0  0  0  0  0  0  0  0  0  0
  1  2  2  0  0  0  0
  2  3  1  0  0  0  0
  2 10  1  0  0  0  0
  3  4  1  0  0  0  0
  3 16  1  0  0  0  0
  4  5  1  0  0  0  0
  4 17  1  0  0  0  0
  4 18  1  0  0  0  0
  5  9  1  0  0  0  0
  5  6  1  0  0  0  0
  5  7  1  0  0  0  0
  6 19  1  0  0  0  0
  7  8  1  0  0  0  0
  7 20  1  0  0  0  0
  7 21  1  0  0  0  0
  8  9  1  0  0  0  0
  8 22  1  0  0  0  0
  8 23  1  0  0  0  0
  9 24  1  0  0  0  0
  9 25  1  0  0  0  0
 10 11  1  0  0  0  0
 11 15  1  0  0  0  0
 11 12  2  0  0  0  0
 12 13  1  0  0  0  0
 13 14  2  0  0  0  0
 13 26  1  0  0  0  0
 14 15  1  0  0  0  0
 14 27  1  0  0  0  0
M  CHG  1  10  -1
M  END
> <s_m_source_file>
AV-unprocessed.smi

> <i_m_source_file_index>
2419

> <i_lp_mmshare_version>
43012

> <i_f3d_flags>
0

> <s_epik_input>
czFbY0hdW2NIXW5jMVtOSF1DKD1PKVtOSF1bQ0gyXUMyKFtPSF0pW0NIMl1bQ0gyXVtDSDJdMg==

> <s_epik_cmdline>
J2VwaWtfcHl0aG9uJywgJy1waCcsICc3LjAnLCAnLXRuJywgJzgnLCAnLW1hJywgJzIwMCcsICctbWV0YWxfYmluZGluZycsICctaW1hZScsICc8aW5maWxlLm1hZT4nLCAnLW9tYWUnLCAnPG91dGZpbGUubWFlPic=

> <r_lp_tautomer_probability>
0.999

> <r_epik_Ionization_Penalty>
8.31551

> <r_epik_Ionization_Penalty_Charging>
6.6872

> <r_epik_Ionization_Penalty_Neutral>
1.62831

> <r_epik_State_Penalty>
6.68737

> <r_epik_Charging_Adjusted_Penalty>
13.3746

> <i_epik_Tot_Q>
-1

> <i_epik_Tot_abs_Q>
1

> <r_epik_Metal_State_Penalty>
2.60943

> <b_epik_Metal_Only>
1

> <s_lp_Force_Field>
OPLS_2005

> <r_lp_Energy>
8.45088

> <b_lp_Chiralities_Consistent>
1

> <s_lp_Variant>
AV-unprocessed.smi:2419-2

> <Gold.Version>
5.8.1

> <Gold.Id.Protein>
6NUR|6NUR_protein|mol2

> <Gold.PLP.Fitness>
43.9509

> <Gold.PLP.PLP>
-30.9041

> <Gold.PLP.part.hbond>
-2.0000

> <Gold.PLP.part.metal>
0.0000

> <Gold.PLP.part.buried>
-3.6701

> <Gold.PLP.part.nonpolar>
-25.8371

> <Gold.PLP.part.repulsive>
0.1484

> <Gold.PLP.ligand.clash>
0.0000

> <Gold.PLP.ligand.torsion>
1.0254

> <Gold.PLP.Chemscore.Hbond>
3.0000

> <Gold.PLP.Chemscore.CHOScore>
2.0031

> <Gold.PLP.Chemscore.Metal>
0.0000

> <Gold.Chemscore.Hbonds>
donor molecule, donor type, donor heavy atom, donor atom, acceptor molecule, acceptor atom, score
      P1  H  7989  7998       L1    12  1.00
      P1  H  7997  8009       L1    10  2.00
      L1  C    13    26       P1  7957  1.00
      L1  C    14    27       P1  7948  0.98
      L1  C    14    27       P1  7949  0.01

> <Gold.PLP.Chemscore.Internal.Correction>
0.0882

> <Gold.Rescore>
     Score         DG    S(hbond)    S(metal)    S(lipo)     H(rot)  DE(clash)    DE(int)     intcor
     14.69     -15.57       1.71        0.00      78.42       1.88       0.01       0.87       ----

> <Gold.Chemscore.Fitness>
14.6932

> <Gold.Chemscore.DG>
-15.5743

> <Gold.Chemscore.ZeroCoef>
-5.4800

> <Gold.Chemscore.Hbond>
1.7136

> <Gold.Chemscore.Metal>
0.0000

> <Gold.Chemscore.Lipo>
78.4197

> <Gold.Chemscore.Internal_Hbond>
0.0000

> <Gold.Chemscore.DEClash>
0.0067

> <Gold.Chemscore.DEInternal>
0.8744

> <Gold.Chemscore.Rot>
1.8767

> <Gold.Chemscore.Internal.Correction>
   9.000000E+99

> <Gold.Chemscore.Hbonds>
donor molecule, donor type, donor heavy atom, donor atom, acceptor molecule, acceptor atom, score
      P1  H  7989  7998       L1    12  0.26
      P1  H  7997  8009       L1    10  0.82

> <Gold.Chemscore.Hbond.Weighted>
-5.7235

> <Gold.Chemscore.Metal.Weighted>
-0.0000

> <Gold.Chemscore.Lipo.Weighted>
-9.1751

> <Gold.Chemscore.Internal_Hbond.Weighted>
0.0000

> <Gold.Chemscore.DEClash.Weighted>
0.0067

> <Gold.Chemscore.DEInternal.Weighted>
0.8744

> <Gold.Chemscore.Rot.Weighted>
4.8043

> <Gold.Chemscore.Internal.Correction.Weighted>
   9.000000E+99

> <Gold.Protein.RotatedTorsions>
[ 6907 6896 6895 6894 ] final  144.40 input  -60.11 | X-H torsion
[ 7974 7965 7964 7962 ] final  -78.11 input  175.53 | X-H torsion
[ 8008 7997 7996 7995 ] final -171.28 input   59.86 | X-H torsion
[ 10167 10162 10161 10158 ] final -178.79 input  -65.29 | X-H torsion
[ 10718 10713 10712 10709 ] final  -92.74 input   66.30 | X-H torsion
[ 10763 10752 10751 10750 ] final   81.07 input  -60.55 | X-H torsion
[ 11005 11000 10999 10996 ] final   34.92 input  -57.11 | X-H torsion

> <Gold.Protein.ActiveResidues>
 VAL166  LYS551  ARG553  GLY616  TRP617  ASP618  TYR619  PRO620  LYS621  CYS622 
 ASP623  PHE694  ASN695  SER759  ASP760  ASP761  ALA762  ILE779  LEU786  VAL792 
 PHE793  MET794  SER795  GLU796  ALA797  LYS798  CYS799  TRP800  GLU811  SER814 

> <Gold.Protein.RotatedAtoms>
  152.1942  133.4794  159.5023 H   0  0  0  0  0  0  0  0  0  0  0  0  # atno 6907 bound_to 6896
  150.6957  134.1674  159.4208 H   0  0  0  0  0  0  0  0  0  0  0  0  # atno 6908 bound_to 6896
  151.9589  135.0133  160.0597 H   0  0  0  0  0  0  0  0  0  0  0  0  # atno 6909 bound_to 6896
  145.5908  140.9429  143.1293 H   0  0  0  0  0  0  0  0  0  0  0  0  # atno 7974 bound_to 7965
  155.9295  140.1088  157.1144 H   0  0  0  0  0  0  0  0  0  0  0  0  # atno 8008 bound_to 7997
  154.4068  140.1240  156.4849 H   0  0  0  0  0  0  0  0  0  0  0  0  # atno 8009 bound_to 7997
  155.7098  140.3471  155.4971 H   0  0  0  0  0  0  0  0  0  0  0  0  # atno 8010 bound_to 7997
  139.5416  144.2348  152.0906 H   0  0  0  0  0  0  0  0  0  0  0  0  # atno 10167 bound_to 10162
  156.0005  130.4999  150.5671 H   0  0  0  0  0  0  0  0  0  0  0  0  # atno 10718 bound_to 10713
  153.1086  135.4779  154.8995 H   0  0  0  0  0  0  0  0  0  0  0  0  # atno 10763 bound_to 10752
  154.7456  135.3093  154.8653 H   0  0  0  0  0  0  0  0  0  0  0  0  # atno 10764 bound_to 10752
  153.9248  135.6851  153.4800 H   0  0  0  0  0  0  0  0  0  0  0  0  # atno 10765 bound_to 10752
  140.2479  134.3338  155.7901 H   0  0  0  0  0  0  0  0  0  0  0  0  # atno 11005 bound_to 11000
  144.7352  139.7607  143.7332 LP  0  0  0  0  0  0  0  0  0  0  0  0  # atno 17320 bound_to 7965
  146.1648  139.4775  142.9965 LP  0  0  0  0  0  0  0  0  0  0  0  0  # atno 17321 bound_to 7965
  140.1827  144.4828  150.6520 LP  0  0  0  0  0  0  0  0  0  0  0  0  # atno 17342 bound_to 10162
  140.6648  143.2264  151.5770 LP  0  0  0  0  0  0  0  0  0  0  0  0  # atno 17343 bound_to 10162
  157.3572  131.0743  151.1666 LP  0  0  0  0  0  0  0  0  0  0  0  0  # atno 17370 bound_to 10713
  157.2463  130.6593  149.5911 LP  0  0  0  0  0  0  0  0  0  0  0  0  # atno 17371 bound_to 10713
  141.2204  133.7336  156.8990 LP  0  0  0  0  0  0  0  0  0  0  0  0  # atno 17394 bound_to 11000
  140.1588  134.9180  157.2687 LP  0  0  0  0  0  0  0  0  0  0  0  0  # atno 17395 bound_to 11000

$$$$
