AV-unprocessed.smi:3057|AV-procd|sdf|11661|dock8
  -GOLD-   2272017 63D 1   1.00000     0.00000
 Structure written by MMmdl.
 40 42  0  0  0  0  0  0  0  0  1 V2000
  148.6176  138.4529  154.4466 C   0  0  0  0  0  0  0  0  0  0  0  0
  147.3775  139.3425  154.6579 C   0  0  1  0  0  0  0  0  0  0  0  0
  146.1125  138.4982  154.8972 C   0  0  0  0  0  0  0  0  0  0  0  0
  145.9812  138.4257  156.4256 C   0  0  0  0  0  0  0  0  0  0  0  0
  146.7537  139.6539  156.8784 C   0  0  0  0  0  0  0  0  0  0  0  0
  146.6403  140.1493  157.9984 O   0  0  0  0  0  0  0  0  0  0  0  0
  147.4948  140.1306  155.8700 N   0  0  0  0  0  0  0  0  0  0  0  0
  148.0857  141.4674  155.7706 C   0  0  1  0  0  0  0  0  0  0  0  0
  149.4354  141.5173  156.5065 C   0  0  0  0  0  0  0  0  0  0  0  0
  149.9003  140.5115  157.0446 O   0  0  0  0  0  0  0  0  0  0  0  0
  150.0587  142.7040  156.5100 N   0  0  0  0  0  0  0  0  0  0  0  0
  151.3390  142.9669  157.1535 C   0  0  0  0  0  0  0  0  0  0  0  0
  151.1793  144.0203  158.2586 C   0  0  0  0  0  0  0  0  0  0  0  0
  151.8881  143.6251  159.5404 C   0  0  0  0  0  0  0  0  0  0  0  0
  151.8362  144.4579  160.6787 C   0  0  0  0  0  0  0  0  0  0  0  0
  152.5125  144.0453  161.8431 C   0  0  0  0  0  0  0  0  0  0  0  0
  153.2120  142.8234  161.8245 C   0  0  0  0  0  0  0  0  0  0  0  0
  153.2047  142.0651  160.6367 C   0  0  0  0  0  0  0  0  0  0  0  0
  152.5584  142.4511  159.5152 N   0  0  0  0  0  0  0  0  0  0  0  0
  148.2929  141.7440  154.2603 C   0  0  0  0  0  0  0  0  0  0  0  0
  147.2291  140.5818  153.3600 S   0  0  0  0  0  0  0  0  0  0  0  0
  148.7774  137.7828  155.2920 H   0  0  0  0  0  0  0  0  0  0  0  0
  149.5241  139.0445  154.3200 H   0  0  0  0  0  0  0  0  0  0  0  0
  148.5068  137.8369  153.5538 H   0  0  0  0  0  0  0  0  0  0  0  0
  145.2344  138.9948  154.4814 H   0  0  0  0  0  0  0  0  0  0  0  0
  146.1726  137.5096  154.4403 H   0  0  0  0  0  0  0  0  0  0  0  0
  144.9422  138.4510  156.7554 H   0  0  0  0  0  0  0  0  0  0  0  0
  146.4594  137.5314  156.8265 H   0  0  0  0  0  0  0  0  0  0  0  0
  147.3882  142.1960  156.1886 H   0  0  0  0  0  0  0  0  0  0  0  0
  149.6099  143.4802  156.0456 H   0  0  0  0  0  0  0  0  0  0  0  0
  151.7407  142.0450  157.5778 H   0  0  0  0  0  0  0  0  0  0  0  0
  152.0489  143.3123  156.4009 H   0  0  0  0  0  0  0  0  0  0  0  0
  151.5670  144.9811  157.9170 H   0  0  0  0  0  0  0  0  0  0  0  0
  150.1213  144.1762  158.4752 H   0  0  0  0  0  0  0  0  0  0  0  0
  151.2915  145.3906  160.6622 H   0  0  0  0  0  0  0  0  0  0  0  0
  152.4948  144.6551  162.7344 H   0  0  0  0  0  0  0  0  0  0  0  0
  153.7415  142.4755  162.6990 H   0  0  0  0  0  0  0  0  0  0  0  0
  153.7312  141.1234  160.5865 H   0  0  0  0  0  0  0  0  0  0  0  0
  148.0501  142.7729  153.9951 H   0  0  0  0  0  0  0  0  0  0  0  0
  149.3208  141.5577  153.9445 H   0  0  0  0  0  0  0  0  0  0  0  0
  1  2  1  0  0  0  0
  1 22  1  0  0  0  0
  1 23  1  0  0  0  0
  1 24  1  0  0  0  0
  2  7  1  0  0  0  0
  2 21  1  0  0  0  0
  2  3  1  0  0  0  0
  3  4  1  0  0  0  0
  3 25  1  0  0  0  0
  3 26  1  0  0  0  0
  4  5  1  0  0  0  0
  4 27  1  0  0  0  0
  4 28  1  0  0  0  0
  5  6  2  0  0  0  0
  5  7  1  0  0  0  0
  7  8  1  0  0  0  0
  8  9  1  0  0  0  0
  8 20  1  0  0  0  0
  8 29  1  0  0  0  0
  9 10  2  0  0  0  0
  9 11  1  0  0  0  0
 11 12  1  0  0  0  0
 11 30  1  0  0  0  0
 12 13  1  0  0  0  0
 12 31  1  0  0  0  0
 12 32  1  0  0  0  0
 13 14  1  0  0  0  0
 13 33  1  0  0  0  0
 13 34  1  0  0  0  0
 14 19  1  0  0  0  0
 14 15  2  0  0  0  0
 15 16  1  0  0  0  0
 15 35  1  0  0  0  0
 16 17  2  0  0  0  0
 16 36  1  0  0  0  0
 17 18  1  0  0  0  0
 17 37  1  0  0  0  0
 18 19  2  0  0  0  0
 18 38  1  0  0  0  0
 20 21  1  0  0  0  0
 20 39  1  0  0  0  0
 20 40  1  0  0  0  0
M  END
> <s_m_source_file>
AV-unprocessed.smi

> <i_m_source_file_index>
3057

> <i_lp_mmshare_version>
43012

> <i_f3d_flags>
0

> <s_epik_input>
W0NIMl0xW0NIMl1DKD1PKU4oW0NAQF0xMltDSDNdKVtDQEhdKFtDSDJdUzIpQyg9TylbTkhdW0NIMl1bQ0gyXWMzW2NIXVtjSF1bY0hdW2NIXW4z

> <s_epik_cmdline>
J2VwaWtfcHl0aG9uJywgJy1waCcsICc3LjAnLCAnLXRuJywgJzgnLCAnLW1hJywgJzIwMCcsICctbWV0YWxfYmluZGluZycsICctaW1hZScsICc8aW5maWxlLm1hZT4nLCAnLW9tYWUnLCAnPG91dGZpbGUubWFlPic=

> <r_epik_Ionization_Penalty>
0.0249631

> <r_epik_Ionization_Penalty_Charging>
0

> <r_epik_Ionization_Penalty_Neutral>
0.0249631

> <r_epik_State_Penalty>
0.0202943

> <r_epik_Charging_Adjusted_Penalty>
0.0202943

> <i_epik_Tot_Q>
0

> <i_epik_Tot_abs_Q>
0

> <r_epik_Metal_State_Penalty>
0.0194661

> <b_epik_Metal_Only>
0

> <s_lp_Force_Field>
OPLS_2005

> <r_lp_Energy>
25.4312

> <b_lp_Chiralities_Consistent>
1

> <s_lp_Variant>
AV-unprocessed.smi:3057-1

> <Gold.Version>
5.8.1

> <Gold.Id.Protein>
6NUR|6NUR_protein|mol2

> <Gold.PLP.Fitness>
40.6567

> <Gold.PLP.PLP>
-38.3502

> <Gold.PLP.part.hbond>
-1.6001

> <Gold.PLP.part.metal>
0.0000

> <Gold.PLP.part.buried>
-6.6833

> <Gold.PLP.part.nonpolar>
-30.2586

> <Gold.PLP.part.repulsive>
0.0781

> <Gold.PLP.ligand.clash>
0.0000

> <Gold.PLP.ligand.torsion>
0.3527

> <Gold.PLP.Chemscore.Hbond>
1.0000

> <Gold.PLP.Chemscore.CHOScore>
0.0000

> <Gold.PLP.Chemscore.Metal>
0.0000

> <Gold.Chemscore.Hbonds>
donor molecule, donor type, donor heavy atom, donor atom, acceptor molecule, acceptor atom, score
      L1  H    11    30       P1  8028  0.89

> <Gold.PLP.Chemscore.Internal.Correction>
0.0118

> <Gold.Rescore>
     Score         DG    S(hbond)    S(metal)    S(lipo)     H(rot)  DE(clash)    DE(int)     intcor
     17.08     -17.56       1.00        0.00     108.38       1.53       0.01       0.46       ----

> <Gold.Chemscore.Fitness>
17.0829

> <Gold.Chemscore.DG>
-17.5576

> <Gold.Chemscore.ZeroCoef>
-5.4800

> <Gold.Chemscore.Hbond>
0.9952

> <Gold.Chemscore.Metal>
0.0000

> <Gold.Chemscore.Lipo>
108.3798

> <Gold.Chemscore.Internal_Hbond>
0.0000

> <Gold.Chemscore.DEClash>
0.0144

> <Gold.Chemscore.DEInternal>
0.4603

> <Gold.Chemscore.Rot>
1.5339

> <Gold.Chemscore.Internal.Correction>
   9.000000E+99

> <Gold.Chemscore.Hbonds>
donor molecule, donor type, donor heavy atom, donor atom, acceptor molecule, acceptor atom, score
      L1  H    11    30       P1  8028  0.86

> <Gold.Chemscore.Hbond.Weighted>
-3.3239

> <Gold.Chemscore.Metal.Weighted>
-0.0000

> <Gold.Chemscore.Lipo.Weighted>
-12.6804

> <Gold.Chemscore.Internal_Hbond.Weighted>
0.0000

> <Gold.Chemscore.DEClash.Weighted>
0.0144

> <Gold.Chemscore.DEInternal.Weighted>
0.4603

> <Gold.Chemscore.Rot.Weighted>
3.9267

> <Gold.Chemscore.Internal.Correction.Weighted>
   9.000000E+99

> <Gold.Protein.RotatedTorsions>
[ 6907 6896 6895 6894 ] final -154.83 input  -60.11 | X-H torsion
[ 7974 7965 7964 7962 ] final  -81.08 input  175.53 | X-H torsion
[ 8008 7997 7996 7995 ] final -175.27 input   59.86 | X-H torsion
[ 10167 10162 10161 10158 ] final -138.29 input  -65.29 | X-H torsion
[ 10718 10713 10712 10709 ] final -127.74 input   66.30 | X-H torsion
[ 10763 10752 10751 10750 ] final  -13.16 input  -60.55 | X-H torsion
[ 11005 11000 10999 10996 ] final   26.93 input  -57.11 | X-H torsion

> <Gold.Protein.ActiveResidues>
 VAL166  LYS551  ARG553  GLY616  TRP617  ASP618  TYR619  PRO620  LYS621  CYS622 
 ASP623  PHE694  ASN695  SER759  ASP760  ASP761  ALA762  ILE779  LEU786  VAL792 
 PHE793  MET794  SER795  GLU796  ALA797  LYS798  CYS799  TRP800  GLU811  SER814 

> <Gold.Protein.RotatedAtoms>
  151.2633  133.4291  159.2617 H   0  0  0  0  0  0  0  0  0  0  0  0  # atno 6907 bound_to 6896
  151.0511  134.9673  159.8222 H   0  0  0  0  0  0  0  0  0  0  0  0  # atno 6908 bound_to 6896
  152.5382  134.2587  159.8979 H   0  0  0  0  0  0  0  0  0  0  0  0  # atno 6909 bound_to 6896
  145.5514  140.9496  143.1497 H   0  0  0  0  0  0  0  0  0  0  0  0  # atno 7974 bound_to 7965
  155.9805  140.1181  157.0730 H   0  0  0  0  0  0  0  0  0  0  0  0  # atno 8008 bound_to 7997
  154.4181  140.1145  156.5497 H   0  0  0  0  0  0  0  0  0  0  0  0  # atno 8009 bound_to 7997
  155.6477  140.3473  155.4739 H   0  0  0  0  0  0  0  0  0  0  0  0  # atno 8010 bound_to 7997
  139.8493  143.7220  152.2659 H   0  0  0  0  0  0  0  0  0  0  0  0  # atno 10167 bound_to 10162
  156.1885  130.6779  151.0395 H   0  0  0  0  0  0  0  0  0  0  0  0  # atno 10718 bound_to 10713
  153.5092  135.7016  153.5790 H   0  0  0  0  0  0  0  0  0  0  0  0  # atno 10763 bound_to 10752
  153.3888  135.3901  155.1908 H   0  0  0  0  0  0  0  0  0  0  0  0  # atno 10764 bound_to 10752
  154.8704  135.3853  154.4570 H   0  0  0  0  0  0  0  0  0  0  0  0  # atno 10765 bound_to 10752
  140.3317  134.2430  155.7701 H   0  0  0  0  0  0  0  0  0  0  0  0  # atno 11005 bound_to 11000
  144.7527  139.7152  143.7266 LP  0  0  0  0  0  0  0  0  0  0  0  0  # atno 17320 bound_to 7965
  146.1914  139.5156  142.9803 LP  0  0  0  0  0  0  0  0  0  0  0  0  # atno 17321 bound_to 7965
  139.7481  144.7541  151.0548 LP  0  0  0  0  0  0  0  0  0  0  0  0  # atno 17342 bound_to 10162
  140.7789  143.4892  150.9915 LP  0  0  0  0  0  0  0  0  0  0  0  0  # atno 17343 bound_to 10162
  157.6914  131.0808  150.7096 LP  0  0  0  0  0  0  0  0  0  0  0  0  # atno 17370 bound_to 10713
  156.7152  130.4664  149.5537 LP  0  0  0  0  0  0  0  0  0  0  0  0  # atno 17371 bound_to 10713
  141.2061  133.7841  157.0193 LP  0  0  0  0  0  0  0  0  0  0  0  0  # atno 17394 bound_to 11000
  140.0855  134.9623  157.1693 LP  0  0  0  0  0  0  0  0  0  0  0  0  # atno 17395 bound_to 11000

$$$$
