AV-unprocessed.smi:2394|AV-procd|sdf|9490|dock8
  -GOLD-   2272013123D 1   1.00000     0.00000
 Structure written by MMmdl.
 43 44  0  0  0  0  0  0  0  0  1 V2000
  153.0022  142.1474  159.3261 C   0  0  0  0  0  0  0  0  0  0  0  0
  151.4951  142.2380  159.0315 C   0  0  0  0  0  0  0  0  0  0  0  0
  151.0967  143.1264  157.8231 C   0  0  0  0  0  0  0  0  0  0  0  0
  149.7465  143.5157  157.9951 O   0  0  0  0  0  0  0  0  0  0  0  0
  151.9416  144.4297  157.7743 C   0  0  0  0  0  0  0  0  0  0  0  0
  152.0426  145.2184  159.0914 C   0  0  0  0  0  0  0  0  0  0  0  0
  151.2048  142.3330  156.4894 C   0  0  0  0  0  0  0  0  0  0  0  0
  150.5752  141.0207  156.5094 N   0  0  0  0  0  0  0  0  0  0  0  0
  149.2811  140.7322  156.8833 C   0  0  0  0  0  0  0  0  0  0  0  0
  148.9473  139.4721  156.8132 N   0  0  0  0  0  0  0  0  0  0  0  0
  150.0951  138.8472  156.3426 C   0  0  0  0  0  0  0  0  0  0  0  0
  150.4263  137.5023  156.0337 C   0  0  0  0  0  0  0  0  0  0  0  0
  149.5225  136.5093  156.1906 N   0  0  0  0  0  0  0  0  0  0  0  0
  149.9049  135.1049  156.0715 C   0  0  0  0  0  0  0  0  0  0  0  0
  149.0538  134.3820  155.0138 C   0  0  0  0  0  0  0  0  0  0  0  0
  149.7856  134.4139  157.4360 C   0  0  0  0  0  0  0  0  0  0  0  0
  151.6818  137.2494  155.5787 N   0  0  0  0  0  0  0  0  0  0  0  0
  152.5551  138.2504  155.4299 C   0  0  0  0  0  0  0  0  0  0  0  0
  152.3838  139.5512  155.6756 N   0  0  0  0  0  0  0  0  0  0  0  0
  151.1267  139.8061  156.1398 C   0  0  0  0  0  0  0  0  0  0  0  0
  153.1922  141.4303  160.1246 H   0  0  0  0  0  0  0  0  0  0  0  0
  153.4107  143.1036  159.6521 H   0  0  0  0  0  0  0  0  0  0  0  0
  153.5634  141.8197  158.4508 H   0  0  0  0  0  0  0  0  0  0  0  0
  151.1353  141.2210  158.8752 H   0  0  0  0  0  0  0  0  0  0  0  0
  150.9887  142.6004  159.9267 H   0  0  0  0  0  0  0  0  0  0  0  0
  149.4149  143.8261  157.1666 H   0  0  0  0  0  0  0  0  0  0  0  0
  152.9514  144.1893  157.4396 H   0  0  0  0  0  0  0  0  0  0  0  0
  151.5328  145.1060  157.0233 H   0  0  0  0  0  0  0  0  0  0  0  0
  152.5726  146.1577  158.9322 H   0  0  0  0  0  0  0  0  0  0  0  0
  152.5928  144.6674  159.8536 H   0  0  0  0  0  0  0  0  0  0  0  0
  151.0583  145.4626  159.4912 H   0  0  0  0  0  0  0  0  0  0  0  0
  150.7494  142.9079  155.6818 H   0  0  0  0  0  0  0  0  0  0  0  0
  152.2476  142.1873  156.2066 H   0  0  0  0  0  0  0  0  0  0  0  0
  148.5905  141.4918  157.2201 H   0  0  0  0  0  0  0  0  0  0  0  0
  148.5371  136.6850  156.3243 H   0  0  0  0  0  0  0  0  0  0  0  0
  150.9529  135.0484  155.7743 H   0  0  0  0  0  0  0  0  0  0  0  0
  149.3450  133.3350  154.9273 H   0  0  0  0  0  0  0  0  0  0  0  0
  149.1687  134.8333  154.0283 H   0  0  0  0  0  0  0  0  0  0  0  0
  147.9944  134.4118  155.2705 H   0  0  0  0  0  0  0  0  0  0  0  0
  150.1010  133.3719  157.3767 H   0  0  0  0  0  0  0  0  0  0  0  0
  148.7583  134.4303  157.8021 H   0  0  0  0  0  0  0  0  0  0  0  0
  150.4134  134.9051  158.1801 H   0  0  0  0  0  0  0  0  0  0  0  0
  153.5300  137.9690  155.0601 H   0  0  0  0  0  0  0  0  0  0  0  0
  1  2  1  0  0  0  0
  1 21  1  0  0  0  0
  1 22  1  0  0  0  0
  1 23  1  0  0  0  0
  2  3  1  0  0  0  0
  2 24  1  0  0  0  0
  2 25  1  0  0  0  0
  3  4  1  0  0  0  0
  3  5  1  0  0  0  0
  3  7  1  0  0  0  0
  4 26  1  0  0  0  0
  5  6  1  0  0  0  0
  5 27  1  0  0  0  0
  5 28  1  0  0  0  0
  6 29  1  0  0  0  0
  6 30  1  0  0  0  0
  6 31  1  0  0  0  0
  7  8  1  0  0  0  0
  7 32  1  0  0  0  0
  7 33  1  0  0  0  0
  8 20  1  0  0  0  0
  8  9  1  0  0  0  0
  9 10  2  0  0  0  0
  9 34  1  0  0  0  0
 10 11  1  0  0  0  0
 11 20  2  0  0  0  0
 11 12  1  0  0  0  0
 12 13  1  0  0  0  0
 12 17  2  0  0  0  0
 13 14  1  0  0  0  0
 13 35  1  0  0  0  0
 14 15  1  0  0  0  0
 14 16  1  0  0  0  0
 14 36  1  0  0  0  0
 15 37  1  0  0  0  0
 15 38  1  0  0  0  0
 15 39  1  0  0  0  0
 16 40  1  0  0  0  0
 16 41  1  0  0  0  0
 16 42  1  0  0  0  0
 17 18  1  0  0  0  0
 18 19  2  0  0  0  0
 18 43  1  0  0  0  0
 19 20  1  0  0  0  0
M  END
> <s_m_source_file>
AV-unprocessed.smi

> <i_m_source_file_index>
2394

> <i_lp_mmshare_version>
43012

> <i_f3d_flags>
0

> <s_epik_input>
W0NIM11bQ0gyXUMoW09IXSkoW0NIMl1bQ0gzXSlbQ0gyXW4oW2NIXW4xKWMoYzEyKW5bY0hdbmMyW05IXVtDSF0oW0NIM10pW0NIM10=

> <s_epik_cmdline>
J2VwaWtfcHl0aG9uJywgJy1waCcsICc3LjAnLCAnLXRuJywgJzgnLCAnLW1hJywgJzIwMCcsICctbWV0YWxfYmluZGluZycsICctaW1hZScsICc8aW5maWxlLm1hZT4nLCAnLW9tYWUnLCAnPG91dGZpbGUubWFlPic=

> <r_lp_tautomer_probability>
1

> <r_epik_Ionization_Penalty>
0.0022327

> <r_epik_Ionization_Penalty_Charging>
0

> <r_epik_Ionization_Penalty_Neutral>
0.0022327

> <r_epik_State_Penalty>
-0

> <r_epik_Charging_Adjusted_Penalty>
0

> <i_epik_Tot_Q>
0

> <i_epik_Tot_abs_Q>
0

> <r_epik_Metal_State_Penalty>
-0

> <b_epik_Metal_Only>
0

> <s_lp_Force_Field>
OPLS_2005

> <r_lp_Energy>
13.0667

> <b_lp_Chiralities_Consistent>
1

> <s_lp_Variant>
AV-unprocessed.smi:2394-1

> <Gold.Version>
5.8.1

> <Gold.Id.Protein>
6NUR|6NUR_protein|mol2

> <Gold.PLP.Fitness>
45.0947

> <Gold.PLP.PLP>
-37.5578

> <Gold.PLP.part.hbond>
-3.7899

> <Gold.PLP.part.metal>
0.0000

> <Gold.PLP.part.buried>
-5.2129

> <Gold.PLP.part.nonpolar>
-29.6457

> <Gold.PLP.part.repulsive>
0.1054

> <Gold.PLP.ligand.clash>
0.0000

> <Gold.PLP.ligand.torsion>
0.5784

> <Gold.PLP.Chemscore.Hbond>
2.8650

> <Gold.PLP.Chemscore.CHOScore>
0.0000

> <Gold.PLP.Chemscore.Metal>
0.0000

> <Gold.Chemscore.Hbonds>
donor molecule, donor type, donor heavy atom, donor atom, acceptor molecule, acceptor atom, score
      L1  H     4    26       P1  8028  1.00
      P1  H  7997  8008       L1    19  0.68
      P1  H 10752 10765       L1    17  0.30

> <Gold.PLP.Chemscore.Internal.Correction>
0.0987

> <Gold.Rescore>
     Score         DG    S(hbond)    S(metal)    S(lipo)     H(rot)  DE(clash)    DE(int)     intcor
     14.72     -16.72       2.36        0.00      84.40       2.54       1.53       0.47       ----

> <Gold.Chemscore.Fitness>
14.7228

> <Gold.Chemscore.DG>
-16.7222

> <Gold.Chemscore.ZeroCoef>
-5.4800

> <Gold.Chemscore.Hbond>
2.3559

> <Gold.Chemscore.Metal>
0.0000

> <Gold.Chemscore.Lipo>
84.4048

> <Gold.Chemscore.Internal_Hbond>
0.0000

> <Gold.Chemscore.DEClash>
1.5263

> <Gold.Chemscore.DEInternal>
0.4732

> <Gold.Chemscore.Rot>
2.5398

> <Gold.Chemscore.Internal.Correction>
   9.000000E+99

> <Gold.Chemscore.Hbonds>
donor molecule, donor type, donor heavy atom, donor atom, acceptor molecule, acceptor atom, score
      L1  H     4    26       P1  8028  0.60
      P1  H  7997  8008       L1    19  0.24
      P1  H 10752 10765       L1    17  0.05

> <Gold.Chemscore.Hbond.Weighted>
-7.8688

> <Gold.Chemscore.Metal.Weighted>
-0.0000

> <Gold.Chemscore.Lipo.Weighted>
-9.8754

> <Gold.Chemscore.Internal_Hbond.Weighted>
0.0000

> <Gold.Chemscore.DEClash.Weighted>
1.5263

> <Gold.Chemscore.DEInternal.Weighted>
0.4732

> <Gold.Chemscore.Rot.Weighted>
6.5020

> <Gold.Chemscore.Internal.Correction.Weighted>
   9.000000E+99

> <Gold.Protein.RotatedTorsions>
[ 6907 6896 6895 6894 ] final  160.03 input  -60.11 | X-H torsion
[ 7974 7965 7964 7962 ] final   -0.85 input  175.53 | X-H torsion
[ 8008 7997 7996 7995 ] final  -46.92 input   59.86 | X-H torsion
[ 10167 10162 10161 10158 ] final  140.20 input  -65.29 | X-H torsion
[ 10718 10713 10712 10709 ] final  -33.13 input   66.30 | X-H torsion
[ 10763 10752 10751 10750 ] final -178.68 input  -60.55 | X-H torsion
[ 11005 11000 10999 10996 ] final -137.85 input  -57.11 | X-H torsion

> <Gold.Protein.ActiveResidues>
 VAL166  LYS551  ARG553  GLY616  TRP617  ASP618  TYR619  PRO620  LYS621  CYS622 
 ASP623  PHE694  ASN695  SER759  ASP760  ASP761  ALA762  ILE779  LEU786  VAL792 
 PHE793  MET794  SER795  GLU796  ALA797  LYS798  CYS799  TRP800  GLU811  SER814 

> <Gold.Protein.RotatedAtoms>
  151.9768  133.3744  159.4091 H   0  0  0  0  0  0  0  0  0  0  0  0  # atno 6907 bound_to 6896
  150.6940  134.4081  159.5159 H   0  0  0  0  0  0  0  0  0  0  0  0  # atno 6908 bound_to 6896
  152.1794  134.8767  160.0578 H   0  0  0  0  0  0  0  0  0  0  0  0  # atno 6909 bound_to 6896
  146.2423  140.1332  142.8337 H   0  0  0  0  0  0  0  0  0  0  0  0  # atno 7974 bound_to 7965
  154.4011  140.1359  156.4090 H   0  0  0  0  0  0  0  0  0  0  0  0  # atno 8008 bound_to 7997
  155.7752  140.3483  155.5247 H   0  0  0  0  0  0  0  0  0  0  0  0  # atno 8009 bound_to 7997
  155.8728  140.0974  157.1529 H   0  0  0  0  0  0  0  0  0  0  0  0  # atno 8010 bound_to 7997
  139.5056  144.6248  151.5963 H   0  0  0  0  0  0  0  0  0  0  0  0  # atno 10167 bound_to 10162
  156.3664  130.4332  149.7581 H   0  0  0  0  0  0  0  0  0  0  0  0  # atno 10718 bound_to 10713
  154.5446  135.2808  155.1064 H   0  0  0  0  0  0  0  0  0  0  0  0  # atno 10763 bound_to 10752
  154.2534  135.6335  153.5252 H   0  0  0  0  0  0  0  0  0  0  0  0  # atno 10764 bound_to 10752
  152.9987  135.5588  154.5995 H   0  0  0  0  0  0  0  0  0  0  0  0  # atno 10765 bound_to 10752
  140.8672  134.2096  157.4673 H   0  0  0  0  0  0  0  0  0  0  0  0  # atno 11005 bound_to 11000
  145.0308  140.8869  143.5110 LP  0  0  0  0  0  0  0  0  0  0  0  0  # atno 17320 bound_to 7965
  145.1396  139.2580  143.5497 LP  0  0  0  0  0  0  0  0  0  0  0  0  # atno 17321 bound_to 7965
  140.5962  143.9692  150.6356 LP  0  0  0  0  0  0  0  0  0  0  0  0  # atno 17342 bound_to 10162
  140.2889  143.3338  152.1081 LP  0  0  0  0  0  0  0  0  0  0  0  0  # atno 17343 bound_to 10162
  156.4725  130.8003  151.3021 LP  0  0  0  0  0  0  0  0  0  0  0  0  # atno 17370 bound_to 10713
  157.7479  131.0031  150.3026 LP  0  0  0  0  0  0  0  0  0  0  0  0  # atno 17371 bound_to 10713
  139.8710  134.9757  156.4894 LP  0  0  0  0  0  0  0  0  0  0  0  0  # atno 17394 bound_to 11000
  140.8615  133.8056  155.9270 LP  0  0  0  0  0  0  0  0  0  0  0  0  # atno 17395 bound_to 11000

$$$$
