AV-unprocessed.smi:2732|AV-procd|sdf|10532|dock4
  -GOLD-   2272014573D 1   1.00000     0.00000
 Structure written by MMmdl.
 34 35  0  0  0  0  0  0  0  0  1 V2000
  151.6392  144.1532  156.9256 C   0  0  0  0  0  0  0  0  0  0  0  0
  151.2287  142.8978  157.7095 C   0  0  2  0  0  0  0  0  0  0  0  0
  152.3980  142.3916  158.3477 O   0  0  0  0  0  0  0  0  0  0  0  0
  152.2074  141.8955  159.6671 C   0  0  0  0  0  0  0  0  0  0  0  0
  153.5539  141.8159  160.3532 C   0  0  0  0  0  0  0  0  0  0  0  0
  154.0610  140.4988  160.8950 C   0  0  0  0  0  0  0  0  0  0  0  0
  153.6422  141.5914  161.8458 C   0  0  0  0  0  0  0  0  0  0  0  0
  150.6250  141.8304  156.7822 C   0  0  0  0  0  0  0  0  0  0  0  0
  151.1087  140.6987  156.7601 O   0  0  0  0  0  0  0  0  0  0  0  0
  149.5784  142.2283  156.0355 N   0  0  0  0  0  0  0  0  0  0  0  0
  148.7925  141.4607  155.1342 C   0  0  0  0  0  0  0  0  0  0  0  0
  149.0741  140.1197  154.7791 C   0  0  0  0  0  0  0  0  0  0  0  0
  148.2036  139.4526  153.8956 C   0  0  0  0  0  0  0  0  0  0  0  0
  147.0787  140.1456  153.4061 C   0  0  0  0  0  0  0  0  0  0  0  0
  146.1955  139.5160  152.5328 N   0  0  0  0  0  0  0  0  0  0  0  0
  146.7923  141.4194  153.7471 N   0  0  0  0  0  0  0  0  0  0  0  0
  147.6310  142.0529  154.5950 C   0  0  0  0  0  0  0  0  0  0  0  0
  150.7905  144.5850  156.3940 H   0  0  0  0  0  0  0  0  0  0  0  0
  152.4179  143.9335  156.1938 H   0  0  0  0  0  0  0  0  0  0  0  0
  152.0281  144.9172  157.5992 H   0  0  0  0  0  0  0  0  0  0  0  0
  150.4998  143.1895  158.4685 H   0  0  0  0  0  0  0  0  0  0  0  0
  151.5604  142.5667  160.2332 H   0  0  0  0  0  0  0  0  0  0  0  0
  151.7449  140.9076  159.6645 H   0  0  0  0  0  0  0  0  0  0  0  0
  154.3047  142.4792  159.9276 H   0  0  0  0  0  0  0  0  0  0  0  0
  153.4103  139.6308  160.8078 H   0  0  0  0  0  0  0  0  0  0  0  0
  155.1253  140.2941  160.7987 H   0  0  0  0  0  0  0  0  0  0  0  0
  154.4278  142.1141  162.3876 H   0  0  0  0  0  0  0  0  0  0  0  0
  152.7126  141.4496  162.3937 H   0  0  0  0  0  0  0  0  0  0  0  0
  149.3495  143.2107  156.0834 H   0  0  0  0  0  0  0  0  0  0  0  0
  149.9244  139.5874  155.1765 H   0  0  0  0  0  0  0  0  0  0  0  0
  148.3965  138.4296  153.6077 H   0  0  0  0  0  0  0  0  0  0  0  0
  146.3371  138.5620  152.2332 H   0  0  0  0  0  0  0  0  0  0  0  0
  145.3795  139.9928  152.1769 H   0  0  0  0  0  0  0  0  0  0  0  0
  147.3658  143.0690  154.8484 H   0  0  0  0  0  0  0  0  0  0  0  0
  1  2  1  0  0  0  0
  1 18  1  0  0  0  0
  1 19  1  0  0  0  0
  1 20  1  0  0  0  0
  2  3  1  0  0  0  0
  2  8  1  0  0  0  0
  2 21  1  0  0  0  0
  3  4  1  0  0  0  0
  4  5  1  0  0  0  0
  4 22  1  0  0  0  0
  4 23  1  0  0  0  0
  5  7  1  0  0  0  0
  5  6  1  0  0  0  0
  5 24  1  0  0  0  0
  6  7  1  0  0  0  0
  6 25  1  0  0  0  0
  6 26  1  0  0  0  0
  7 27  1  0  0  0  0
  7 28  1  0  0  0  0
  8  9  2  0  0  0  0
  8 10  1  0  0  0  0
 10 11  1  0  0  0  0
 10 29  1  0  0  0  0
 11 17  1  0  0  0  0
 11 12  2  0  0  0  0
 12 13  1  0  0  0  0
 12 30  1  0  0  0  0
 13 14  2  0  0  0  0
 13 31  1  0  0  0  0
 14 15  1  0  0  0  0
 14 16  1  0  0  0  0
 15 32  1  0  0  0  0
 15 33  1  0  0  0  0
 16 17  2  0  0  0  0
 17 34  1  0  0  0  0
M  END
> <s_m_source_file>
AV-unprocessed.smi

> <i_m_source_file_index>
2732

> <i_lp_mmshare_version>
43012

> <i_f3d_flags>
0

> <s_epik_input>
W0NIMl0xW0NIMl1bQ0hdMVtDSDJdT1tDQEBIXShbQ0gzXSlDKD1PKVtOSF1jMltjSF1bY0hdYyhbTkgyXSluW2NIXTI=

> <s_epik_cmdline>
J2VwaWtfcHl0aG9uJywgJy1waCcsICc3LjAnLCAnLXRuJywgJzgnLCAnLW1hJywgJzIwMCcsICctbWV0YWxfYmluZGluZycsICctaW1hZScsICc8aW5maWxlLm1hZT4nLCAnLW9tYWUnLCAnPG91dGZpbGUubWFlPic=

> <r_lp_tautomer_probability>
1

> <r_epik_Ionization_Penalty>
0.0764773

> <r_epik_Ionization_Penalty_Charging>
0

> <r_epik_Ionization_Penalty_Neutral>
0.0764773

> <r_epik_State_Penalty>
0.0673619

> <r_epik_Charging_Adjusted_Penalty>
0.0673619

> <i_epik_Tot_Q>
0

> <i_epik_Tot_abs_Q>
0

> <r_epik_Metal_State_Penalty>
0.0594329

> <b_epik_Metal_Only>
0

> <s_lp_Force_Field>
OPLS_2005

> <r_lp_Energy>
19.1894

> <b_lp_Chiralities_Consistent>
1

> <s_lp_Variant>
AV-unprocessed.smi:2732-1

> <Gold.Version>
5.8.1

> <Gold.Id.Protein>
6NUR|6NUR_protein|mol2

> <Gold.PLP.Fitness>
41.4994

> <Gold.PLP.PLP>
-34.3963

> <Gold.PLP.part.hbond>
-2.0000

> <Gold.PLP.part.metal>
0.0000

> <Gold.PLP.part.buried>
-1.6384

> <Gold.PLP.part.nonpolar>
-30.7506

> <Gold.PLP.part.repulsive>
0.3235

> <Gold.PLP.ligand.clash>
0.0000

> <Gold.PLP.ligand.torsion>
1.0877

> <Gold.PLP.Chemscore.Hbond>
2.0000

> <Gold.PLP.Chemscore.CHOScore>
0.9069

> <Gold.PLP.Chemscore.Metal>
0.0000

> <Gold.Chemscore.Hbonds>
donor molecule, donor type, donor heavy atom, donor atom, acceptor molecule, acceptor atom, score
      L1  H    10    29       P1  8028  1.00
      L1  H    15    33       P1 10175  0.96
      L1  C    17    34       P1  8028  0.93

> <Gold.PLP.Chemscore.Internal.Correction>
0.5577

> <Gold.Rescore>
     Score         DG    S(hbond)    S(metal)    S(lipo)     H(rot)  DE(clash)    DE(int)     intcor
     14.71     -17.71       1.97        0.00      85.99       1.72       0.95       2.06       ----

> <Gold.Chemscore.Fitness>
14.7051

> <Gold.Chemscore.DG>
-17.7111

> <Gold.Chemscore.ZeroCoef>
-5.4800

> <Gold.Chemscore.Hbond>
1.9710

> <Gold.Chemscore.Metal>
0.0000

> <Gold.Chemscore.Lipo>
85.9889

> <Gold.Chemscore.Internal_Hbond>
0.0000

> <Gold.Chemscore.DEClash>
0.9497

> <Gold.Chemscore.DEInternal>
2.0563

> <Gold.Chemscore.Rot>
1.7237

> <Gold.Chemscore.Internal.Correction>
   9.000000E+99

> <Gold.Chemscore.Hbonds>
donor molecule, donor type, donor heavy atom, donor atom, acceptor molecule, acceptor atom, score
      L1  H    10    29       P1  8028  0.99
      L1  H    15    33       P1 10175  0.72

> <Gold.Chemscore.Hbond.Weighted>
-6.5831

> <Gold.Chemscore.Metal.Weighted>
-0.0000

> <Gold.Chemscore.Lipo.Weighted>
-10.0607

> <Gold.Chemscore.Internal_Hbond.Weighted>
0.0000

> <Gold.Chemscore.DEClash.Weighted>
0.9497

> <Gold.Chemscore.DEInternal.Weighted>
2.0563

> <Gold.Chemscore.Rot.Weighted>
4.4127

> <Gold.Chemscore.Internal.Correction.Weighted>
   9.000000E+99

> <Gold.Protein.RotatedTorsions>
[ 6907 6896 6895 6894 ] final  -41.98 input  -60.11 | X-H torsion
[ 7974 7965 7964 7962 ] final  -70.77 input  175.53 | X-H torsion
[ 8008 7997 7996 7995 ] final -164.07 input   59.86 | X-H torsion
[ 10167 10162 10161 10158 ] final  -23.64 input  -65.29 | X-H torsion
[ 10718 10713 10712 10709 ] final -103.90 input   66.30 | X-H torsion
[ 10763 10752 10751 10750 ] final  -13.97 input  -60.55 | X-H torsion
[ 11005 11000 10999 10996 ] final   28.25 input  -57.11 | X-H torsion

> <Gold.Protein.ActiveResidues>
 VAL166  LYS551  ARG553  GLY616  TRP617  ASP618  TYR619  PRO620  LYS621  CYS622 
 ASP623  PHE694  ASN695  SER759  ASP760  ASP761  ALA762  ILE779  LEU786  VAL792 
 PHE793  MET794  SER795  GLU796  ALA797  LYS798  CYS799  TRP800  GLU811  SER814 

> <Gold.Protein.RotatedAtoms>
  150.9605  134.8993  159.7727 H   0  0  0  0  0  0  0  0  0  0  0  0  # atno 6907 bound_to 6896
  152.5154  134.3680  159.9318 H   0  0  0  0  0  0  0  0  0  0  0  0  # atno 6908 bound_to 6896
  151.3692  133.3820  159.2732 H   0  0  0  0  0  0  0  0  0  0  0  0  # atno 6909 bound_to 6896
  145.6867  140.9168  143.0803 H   0  0  0  0  0  0  0  0  0  0  0  0  # atno 7974 bound_to 7965
  155.8304  140.0933  157.1796 H   0  0  0  0  0  0  0  0  0  0  0  0  # atno 8008 bound_to 7997
  154.3980  140.1420  156.3668 H   0  0  0  0  0  0  0  0  0  0  0  0  # atno 8009 bound_to 7997
  155.8172  140.3447  155.5495 H   0  0  0  0  0  0  0  0  0  0  0  0  # atno 8010 bound_to 7997
  140.7288  143.4425  151.0636 H   0  0  0  0  0  0  0  0  0  0  0  0  # atno 10167 bound_to 10162
  156.0283  130.5489  150.7319 H   0  0  0  0  0  0  0  0  0  0  0  0  # atno 10718 bound_to 10713
  153.5212  135.7015  153.5730 H   0  0  0  0  0  0  0  0  0  0  0  0  # atno 10763 bound_to 10752
  153.3778  135.3928  155.1835 H   0  0  0  0  0  0  0  0  0  0  0  0  # atno 10764 bound_to 10752
  154.8694  135.3827  154.4701 H   0  0  0  0  0  0  0  0  0  0  0  0  # atno 10765 bound_to 10752
  140.3175  134.2580  155.7723 H   0  0  0  0  0  0  0  0  0  0  0  0  # atno 11005 bound_to 11000
  144.7009  139.8767  143.7444 LP  0  0  0  0  0  0  0  0  0  0  0  0  # atno 17320 bound_to 7965
  146.0918  139.3908  143.0401 LP  0  0  0  0  0  0  0  0  0  0  0  0  # atno 17321 bound_to 7965
  139.8093  143.7973  152.3170 LP  0  0  0  0  0  0  0  0  0  0  0  0  # atno 17342 bound_to 10162
  139.8017  144.7371  150.9816 LP  0  0  0  0  0  0  0  0  0  0  0  0  # atno 17343 bound_to 10162
  157.4909  131.0911  151.0427 LP  0  0  0  0  0  0  0  0  0  0  0  0  # atno 17370 bound_to 10713
  157.0835  130.5912  149.5425 LP  0  0  0  0  0  0  0  0  0  0  0  0  # atno 17371 bound_to 10713
  141.2094  133.7749  156.9998 LP  0  0  0  0  0  0  0  0  0  0  0  0  # atno 17394 bound_to 11000
  140.0970  134.9558  157.1865 LP  0  0  0  0  0  0  0  0  0  0  0  0  # atno 17395 bound_to 11000

$$$$
