AV-unprocessed.smi:834|AV-procd|sdf|3884|dock1
  -GOLD-   22720 1343D 1   1.00000     0.00000
 Structure written by MMmdl.
 39 40  0  0  0  0  0  0  0  0  1 V2000
  153.5513  137.7705  157.7058 C   0  0  0  0  0  0  0  0  0  0  0  0
  152.6780  138.3698  156.6568 C   0  0  0  0  0  0  0  0  0  0  0  0
  152.7780  139.6480  156.2722 N   0  0  0  0  0  0  0  0  0  0  0  0
  151.8583  139.9743  155.2853 N   0  0  0  0  0  0  0  0  0  0  0  0
  151.0882  138.9285  154.9547 C   0  0  0  0  0  0  0  0  0  0  0  0
  150.0609  138.9826  153.9760 N   0  0  0  0  0  0  0  0  0  0  0  0
  148.7383  138.8084  154.1450 C   0  0  0  0  0  0  0  0  0  0  0  0
  148.1802  138.5861  155.2197 O   0  0  0  0  0  0  0  0  0  0  0  0
  148.0835  138.9098  152.9794 N   0  0  0  0  0  0  0  0  0  0  0  0
  146.6413  138.7668  152.8140 C   0  0  0  0  0  0  0  0  0  0  0  0
  146.2960  137.8392  151.6325 C   0  0  0  0  0  0  0  0  0  0  0  0
  145.6710  136.5129  152.0760 C   0  0  0  0  0  0  0  0  0  0  0  0
  144.5360  136.4817  152.5527 O   0  0  0  0  0  0  0  0  0  0  0  0
  146.4272  135.4170  151.9084 N   0  0  0  0  0  0  0  0  0  0  0  0
  146.0340  134.0588  152.2753 C   0  0  0  0  0  0  0  0  0  0  0  0
  147.0525  133.0316  151.7445 C   0  0  0  0  0  0  0  0  0  0  0  0
  146.2332  131.9316  151.0676 C   0  0  0  0  0  0  0  0  0  0  0  0
  144.9832  132.6469  150.5657 C   0  0  0  0  0  0  0  0  0  0  0  0
  144.6749  133.6727  151.6571 C   0  0  0  0  0  0  0  0  0  0  0  0
  151.4290  137.4461  155.8309 S   0  0  0  0  0  0  0  0  0  0  0  0
  154.3892  138.4305  157.9326 H   0  0  0  0  0  0  0  0  0  0  0  0
  153.9447  136.8136  157.3624 H   0  0  0  0  0  0  0  0  0  0  0  0
  152.9775  137.6071  158.6179 H   0  0  0  0  0  0  0  0  0  0  0  0
  150.3714  139.1672  153.0336 H   0  0  0  0  0  0  0  0  0  0  0  0
  148.6204  139.0944  152.1445 H   0  0  0  0  0  0  0  0  0  0  0  0
  146.2408  138.3576  153.7423 H   0  0  0  0  0  0  0  0  0  0  0  0
  146.1822  139.7489  152.6843 H   0  0  0  0  0  0  0  0  0  0  0  0
  145.6035  138.3365  150.9522 H   0  0  0  0  0  0  0  0  0  0  0  0
  147.2009  137.6284  151.0599 H   0  0  0  0  0  0  0  0  0  0  0  0
  147.3452  135.5316  151.5039 H   0  0  0  0  0  0  0  0  0  0  0  0
  145.9739  133.9784  153.3625 H   0  0  0  0  0  0  0  0  0  0  0  0
  147.7102  133.4887  151.0029 H   0  0  0  0  0  0  0  0  0  0  0  0
  147.6888  132.6354  152.5366 H   0  0  0  0  0  0  0  0  0  0  0  0
  146.7810  131.4315  150.2683 H   0  0  0  0  0  0  0  0  0  0  0  0
  145.9533  131.1762  151.8031 H   0  0  0  0  0  0  0  0  0  0  0  0
  145.2048  133.1608  149.6292 H   0  0  0  0  0  0  0  0  0  0  0  0
  144.1525  131.9644  150.3835 H   0  0  0  0  0  0  0  0  0  0  0  0
  144.0542  133.2067  152.4238 H   0  0  0  0  0  0  0  0  0  0  0  0
  144.1143  134.5244  151.2687 H   0  0  0  0  0  0  0  0  0  0  0  0
  1  2  1  0  0  0  0
  1 21  1  0  0  0  0
  1 22  1  0  0  0  0
  1 23  1  0  0  0  0
  2 20  1  0  0  0  0
  2  3  2  0  0  0  0
  3  4  1  0  0  0  0
  4  5  2  0  0  0  0
  5  6  1  0  0  0  0
  5 20  1  0  0  0  0
  6  7  1  0  0  0  0
  6 24  1  0  0  0  0
  7  8  2  0  0  0  0
  7  9  1  0  0  0  0
  9 10  1  0  0  0  0
  9 25  1  0  0  0  0
 10 11  1  0  0  0  0
 10 26  1  0  0  0  0
 10 27  1  0  0  0  0
 11 12  1  0  0  0  0
 11 28  1  0  0  0  0
 11 29  1  0  0  0  0
 12 13  2  0  0  0  0
 12 14  1  0  0  0  0
 14 15  1  0  0  0  0
 14 30  1  0  0  0  0
 15 19  1  0  0  0  0
 15 16  1  0  0  0  0
 15 31  1  0  0  0  0
 16 17  1  0  0  0  0
 16 32  1  0  0  0  0
 16 33  1  0  0  0  0
 17 18  1  0  0  0  0
 17 34  1  0  0  0  0
 17 35  1  0  0  0  0
 18 19  1  0  0  0  0
 18 36  1  0  0  0  0
 18 37  1  0  0  0  0
 19 38  1  0  0  0  0
 19 39  1  0  0  0  0
M  END
> <s_m_source_file>
AV-unprocessed.smi

> <i_m_source_file_index>
834

> <i_lp_mmshare_version>
43012

> <i_f3d_flags>
0

> <s_epik_input>
W0NIM11jMW5uYyhzMSlbTkhdQyg9TylbTkhdW0NIMl1bQ0gyXUMoPU8pW05IXVtDSF0yW0NIMl1bQ0gyXVtDSDJdW0NIMl0y

> <s_epik_cmdline>
J2VwaWtfcHl0aG9uJywgJy1waCcsICc3LjAnLCAnLXRuJywgJzgnLCAnLW1hJywgJzIwMCcsICctbWV0YWxfYmluZGluZycsICctaW1hZScsICc8aW5maWxlLm1hZT4nLCAnLW9tYWUnLCAnPG91dGZpbGUubWFlPic=

> <r_lp_tautomer_probability>
1

> <r_epik_Ionization_Penalty>
0.00240541

> <r_epik_Ionization_Penalty_Charging>
0

> <r_epik_Ionization_Penalty_Neutral>
0.00240541

> <r_epik_State_Penalty>
-0

> <r_epik_Charging_Adjusted_Penalty>
0

> <i_epik_Tot_Q>
0

> <i_epik_Tot_abs_Q>
0

> <r_epik_Metal_State_Penalty>
0.349697

> <b_epik_Metal_Only>
0

> <s_lp_Force_Field>
OPLS_2005

> <r_lp_Energy>
16.3225

> <b_lp_Chiralities_Consistent>
1

> <s_lp_Variant>
AV-unprocessed.smi:834-1

> <Gold.Version>
5.8.1

> <Gold.Id.Protein>
6NUR|6NUR_protein|mol2

> <Gold.PLP.Fitness>
45.7447

> <Gold.PLP.PLP>
-34.2175

> <Gold.PLP.part.hbond>
-6.0000

> <Gold.PLP.part.metal>
0.0000

> <Gold.PLP.part.buried>
-4.7626

> <Gold.PLP.part.nonpolar>
-26.5131

> <Gold.PLP.part.repulsive>
0.4853

> <Gold.PLP.ligand.clash>
0.0000

> <Gold.PLP.ligand.torsion>
1.1764

> <Gold.PLP.Chemscore.Hbond>
4.6080

> <Gold.PLP.Chemscore.CHOScore>
0.0000

> <Gold.PLP.Chemscore.Metal>
0.0000

> <Gold.Chemscore.Hbonds>
donor molecule, donor type, donor heavy atom, donor atom, acceptor molecule, acceptor atom, score
      L1  H     6    24       P1  7957  0.49
      L1  H     9    25       P1  7957  1.00
      L1  H    14    30       P1  7948  0.86
      P1  H  7989  7998       L1     4  0.63
      P1  H  7997  8010       L1     3  1.00

> <Gold.PLP.Chemscore.Internal.Correction>
0.0560

> <Gold.Rescore>
     Score         DG    S(hbond)    S(metal)    S(lipo)     H(rot)  DE(clash)    DE(int)     intcor
     18.21     -21.89       4.26        0.00      62.06       1.99       1.28       2.39       ----

> <Gold.Chemscore.Fitness>
18.2138

> <Gold.Chemscore.DG>
-21.8900

> <Gold.Chemscore.ZeroCoef>
-5.4800

> <Gold.Chemscore.Hbond>
4.2611

> <Gold.Chemscore.Metal>
0.0000

> <Gold.Chemscore.Lipo>
62.0583

> <Gold.Chemscore.Internal_Hbond>
0.0000

> <Gold.Chemscore.DEClash>
1.2848

> <Gold.Chemscore.DEInternal>
2.3913

> <Gold.Chemscore.Rot>
1.9855

> <Gold.Chemscore.Internal.Correction>
   9.000000E+99

> <Gold.Chemscore.Hbonds>
donor molecule, donor type, donor heavy atom, donor atom, acceptor molecule, acceptor atom, score
      L1  H     6    24       P1  7957  0.37
      L1  H     9    25       P1  7957  0.97
      L1  H    14    30       P1  7948  0.82
      P1  H  7989  7998       L1     4  0.06
      P1  H  7997  8010       L1     3  0.80

> <Gold.Chemscore.Hbond.Weighted>
-14.2320

> <Gold.Chemscore.Metal.Weighted>
-0.0000

> <Gold.Chemscore.Lipo.Weighted>
-7.2608

> <Gold.Chemscore.Internal_Hbond.Weighted>
0.0000

> <Gold.Chemscore.DEClash.Weighted>
1.2848

> <Gold.Chemscore.DEInternal.Weighted>
2.3913

> <Gold.Chemscore.Rot.Weighted>
5.0828

> <Gold.Chemscore.Internal.Correction.Weighted>
   9.000000E+99

> <Gold.Protein.RotatedTorsions>
[ 6907 6896 6895 6894 ] final -146.88 input  -60.11 | X-H torsion
[ 7974 7965 7964 7962 ] final  102.10 input  175.53 | X-H torsion
[ 8008 7997 7996 7995 ] final   89.20 input   59.86 | X-H torsion
[ 10167 10162 10161 10158 ] final  -80.65 input  -65.29 | X-H torsion
[ 10718 10713 10712 10709 ] final  -77.03 input   66.30 | X-H torsion
[ 10763 10752 10751 10750 ] final   17.55 input  -60.55 | X-H torsion
[ 11005 11000 10999 10996 ] final   36.09 input  -57.11 | X-H torsion

> <Gold.Protein.ActiveResidues>
 VAL166  LYS551  ARG553  GLY616  TRP617  ASP618  TYR619  PRO620  LYS621  CYS622 
 ASP623  PHE694  ASN695  SER759  ASP760  ASP761  ALA762  ILE779  LEU786  VAL792 
 PHE793  MET794  SER795  GLU796  ALA797  LYS798  CYS799  TRP800  GLU811  SER814 

> <Gold.Protein.RotatedAtoms>
  151.1478  133.4928  159.2595 H   0  0  0  0  0  0  0  0  0  0  0  0  # atno 6907 bound_to 6896
  151.1586  135.0262  159.8710 H   0  0  0  0  0  0  0  0  0  0  0  0  # atno 6908 bound_to 6896
  152.5463  134.1354  159.8510 H   0  0  0  0  0  0  0  0  0  0  0  0  # atno 6909 bound_to 6896
  145.3636  139.2413  143.3493 H   0  0  0  0  0  0  0  0  0  0  0  0  # atno 7974 bound_to 7965
  155.9970  140.3363  155.6808 H   0  0  0  0  0  0  0  0  0  0  0  0  # atno 8008 bound_to 7997
  155.6342  140.0688  157.2657 H   0  0  0  0  0  0  0  0  0  0  0  0  # atno 8009 bound_to 7997
  154.4237  140.1754  156.1492 H   0  0  0  0  0  0  0  0  0  0  0  0  # atno 8010 bound_to 7997
  140.4483  143.2491  151.8525 H   0  0  0  0  0  0  0  0  0  0  0  0  # atno 10167 bound_to 10162
  156.0157  130.4480  150.3283 H   0  0  0  0  0  0  0  0  0  0  0  0  # atno 10718 bound_to 10713
  153.1328  135.6744  153.9150 H   0  0  0  0  0  0  0  0  0  0  0  0  # atno 10763 bound_to 10752
  153.8631  135.3079  155.3440 H   0  0  0  0  0  0  0  0  0  0  0  0  # atno 10764 bound_to 10752
  154.7722  135.4933  153.9754 H   0  0  0  0  0  0  0  0  0  0  0  0  # atno 10765 bound_to 10752
  140.2361  134.3470  155.7944 H   0  0  0  0  0  0  0  0  0  0  0  0  # atno 11005 bound_to 11000
  146.2916  140.4274  142.8737 LP  0  0  0  0  0  0  0  0  0  0  0  0  # atno 17320 bound_to 7965
  144.8628  140.7164  143.6096 LP  0  0  0  0  0  0  0  0  0  0  0  0  # atno 17321 bound_to 7965
  139.4794  144.5149  151.8881 LP  0  0  0  0  0  0  0  0  0  0  0  0  # atno 17342 bound_to 10162
  140.4237  144.2209  150.5887 LP  0  0  0  0  0  0  0  0  0  0  0  0  # atno 17343 bound_to 10162
  157.1381  131.0289  151.2940 LP  0  0  0  0  0  0  0  0  0  0  0  0  # atno 17370 bound_to 10713
  157.4494  130.7590  149.7138 LP  0  0  0  0  0  0  0  0  0  0  0  0  # atno 17371 bound_to 10713
  141.2214  133.7272  156.8809 LP  0  0  0  0  0  0  0  0  0  0  0  0  # atno 17394 bound_to 11000
  140.1701  134.9106  157.2823 LP  0  0  0  0  0  0  0  0  0  0  0  0  # atno 17395 bound_to 11000

$$$$
