AV-unprocessed.smi:1120|AV-procd|sdf|4818|dock5
  -GOLD-   22720 3373D 1   1.00000     0.00000
 Structure written by MMmdl.
 48 49  0  0  0  0  0  0  0  0  1 V2000
  152.2485  145.0706  159.2079 C   0  0  0  0  0  0  0  0  0  0  0  0
  151.8927  143.5871  159.3810 C   0  0  2  0  0  0  0  0  0  0  0  0
  153.0958  142.7753  159.8981 C   0  0  0  0  0  0  0  0  0  0  0  0
  152.7414  141.2899  160.0721 C   0  0  0  0  0  0  0  0  0  0  0  0
  152.2035  140.6815  158.7648 C   0  0  1  0  0  0  0  0  0  0  0  0
  151.8171  139.2884  159.0034 N   0  0  0  0  0  0  0  0  0  0  0  0
  152.8934  138.0162  158.5475 S   0  0  0  0  0  0  0  0  0  0  0  0
  154.2430  138.5917  158.4355 O   0  0  0  0  0  0  0  0  0  0  0  0
  152.6457  136.8877  159.4580 O   0  0  0  0  0  0  0  0  0  0  0  0
  152.2696  137.5546  156.8712 C   0  0  0  0  0  0  0  0  0  0  0  0
  151.0823  136.6002  156.9932 C   0  0  0  0  0  0  0  0  0  0  0  0
  151.0715  135.5518  156.3490 O   0  0  0  0  0  0  0  0  0  0  0  0
  150.0936  136.9690  157.8225 N   0  0  0  0  0  0  0  0  0  0  0  0
  148.8925  136.1866  158.0917 C   0  0  0  0  0  0  0  0  0  0  0  0
  147.8728  136.9774  158.9285 C   0  0  0  0  0  0  0  0  0  0  0  0
  147.6110  136.3312  160.2761 C   0  0  0  0  0  0  0  0  0  0  0  0
  147.3884  134.9412  160.3782 C   0  0  0  0  0  0  0  0  0  0  0  0
  147.1437  134.3930  161.6523 C   0  0  0  0  0  0  0  0  0  0  0  0
  147.1299  135.2505  162.7690 C   0  0  0  0  0  0  0  0  0  0  0  0
  147.3619  136.6247  162.5612 C   0  0  0  0  0  0  0  0  0  0  0  0
  147.5970  137.1607  161.3439 N   0  0  0  0  0  0  0  0  0  0  0  0
  151.0039  141.4919  158.2369 C   0  0  0  0  0  0  0  0  0  0  0  0
  151.3603  142.9779  158.0699 C   0  0  0  0  0  0  0  0  0  0  0  0
  153.0456  145.2045  158.4759 H   0  0  0  0  0  0  0  0  0  0  0  0
  152.5841  145.5063  160.1493 H   0  0  0  0  0  0  0  0  0  0  0  0
  151.3856  145.6443  158.8691 H   0  0  0  0  0  0  0  0  0  0  0  0
  151.0990  143.5250  160.1270 H   0  0  0  0  0  0  0  0  0  0  0  0
  153.9316  142.8701  159.2036 H   0  0  0  0  0  0  0  0  0  0  0  0
  153.4386  143.1815  160.8504 H   0  0  0  0  0  0  0  0  0  0  0  0
  153.6223  140.7397  160.4054 H   0  0  0  0  0  0  0  0  0  0  0  0
  151.9963  141.1880  160.8627 H   0  0  0  0  0  0  0  0  0  0  0  0
  153.0022  140.6999  158.0222 H   0  0  0  0  0  0  0  0  0  0  0  0
  150.8700  139.1044  158.6724 H   0  0  0  0  0  0  0  0  0  0  0  0
  151.9715  138.4671  156.3543 H   0  0  0  0  0  0  0  0  0  0  0  0
  153.0814  137.0990  156.3041 H   0  0  0  0  0  0  0  0  0  0  0  0
  150.1865  137.8451  158.3155 H   0  0  0  0  0  0  0  0  0  0  0  0
  148.4455  135.8551  157.1529 H   0  0  0  0  0  0  0  0  0  0  0  0
  149.1911  135.2855  158.6279 H   0  0  0  0  0  0  0  0  0  0  0  0
  148.2280  137.9971  159.0829 H   0  0  0  0  0  0  0  0  0  0  0  0
  146.9266  137.0616  158.3917 H   0  0  0  0  0  0  0  0  0  0  0  0
  147.4028  134.3084  159.5029 H   0  0  0  0  0  0  0  0  0  0  0  0
  146.9693  133.3339  161.7706 H   0  0  0  0  0  0  0  0  0  0  0  0
  146.9454  134.8654  163.7608 H   0  0  0  0  0  0  0  0  0  0  0  0
  147.3582  137.3117  163.3943 H   0  0  0  0  0  0  0  0  0  0  0  0
  150.6691  141.0950  157.2785 H   0  0  0  0  0  0  0  0  0  0  0  0
  150.1611  141.3966  158.9231 H   0  0  0  0  0  0  0  0  0  0  0  0
  150.4805  143.5271  157.7332 H   0  0  0  0  0  0  0  0  0  0  0  0
  152.1089  143.0836  157.2836 H   0  0  0  0  0  0  0  0  0  0  0  0
  1  2  1  0  0  0  0
  1 24  1  0  0  0  0
  1 25  1  0  0  0  0
  1 26  1  0  0  0  0
  2 23  1  0  0  0  0
  2  3  1  0  0  0  0
  2 27  1  0  0  0  0
  3  4  1  0  0  0  0
  3 28  1  0  0  0  0
  3 29  1  0  0  0  0
  4  5  1  0  0  0  0
  4 30  1  0  0  0  0
  4 31  1  0  0  0  0
  5  6  1  0  0  0  0
  5 22  1  0  0  0  0
  5 32  1  0  0  0  0
  6  7  1  0  0  0  0
  6 33  1  0  0  0  0
  7  8  2  0  0  0  0
  7  9  2  0  0  0  0
  7 10  1  0  0  0  0
 10 11  1  0  0  0  0
 10 34  1  0  0  0  0
 10 35  1  0  0  0  0
 11 12  2  0  0  0  0
 11 13  1  0  0  0  0
 13 14  1  0  0  0  0
 13 36  1  0  0  0  0
 14 15  1  0  0  0  0
 14 37  1  0  0  0  0
 14 38  1  0  0  0  0
 15 16  1  0  0  0  0
 15 39  1  0  0  0  0
 15 40  1  0  0  0  0
 16 21  1  0  0  0  0
 16 17  2  0  0  0  0
 17 18  1  0  0  0  0
 17 41  1  0  0  0  0
 18 19  2  0  0  0  0
 18 42  1  0  0  0  0
 19 20  1  0  0  0  0
 19 43  1  0  0  0  0
 20 21  2  0  0  0  0
 20 44  1  0  0  0  0
 22 23  1  0  0  0  0
 22 45  1  0  0  0  0
 22 46  1  0  0  0  0
 23 47  1  0  0  0  0
 23 48  1  0  0  0  0
M  END
> <s_m_source_file>
AV-unprocessed.smi

> <i_m_source_file_index>
1120

> <i_lp_mmshare_version>
43012

> <i_f3d_flags>
0

> <s_epik_input>
W0NIM11bQ0BASF0xW0NIMl1bQ0gyXVtDQEhdKFtDSDJdW0NIMl0xKVtOSF1TKD1PKSg9TylbQ0gyXUMoPU8pW05IXVtDSDJdW0NIMl1jMltjSF1bY0hdW2NIXVtjSF1uMg==

> <s_epik_cmdline>
J2VwaWtfcHl0aG9uJywgJy1waCcsICc3LjAnLCAnLXRuJywgJzgnLCAnLW1hJywgJzIwMCcsICctbWV0YWxfYmluZGluZycsICctaW1hZScsICc8aW5maWxlLm1hZT4nLCAnLW9tYWUnLCAnPG91dGZpbGUubWFlPic=

> <r_epik_Ionization_Penalty>
0.0216068

> <r_epik_Ionization_Penalty_Charging>
0

> <r_epik_Ionization_Penalty_Neutral>
0.0216068

> <r_epik_State_Penalty>
0.01735

> <r_epik_Charging_Adjusted_Penalty>
0.01735

> <i_epik_Tot_Q>
0

> <i_epik_Tot_abs_Q>
0

> <r_epik_Metal_State_Penalty>
0.0535325

> <b_epik_Metal_Only>
0

> <s_lp_Force_Field>
OPLS_2005

> <r_lp_Energy>
6.02559

> <b_lp_Chiralities_Consistent>
1

> <s_lp_Variant>
AV-unprocessed.smi:1120-1

> <Gold.Version>
5.8.1

> <Gold.Id.Protein>
6NUR|6NUR_protein|mol2

> <Gold.PLP.Fitness>
54.3145

> <Gold.PLP.PLP>
-47.3665

> <Gold.PLP.part.hbond>
-4.0000

> <Gold.PLP.part.metal>
0.0000

> <Gold.PLP.part.buried>
-5.7037

> <Gold.PLP.part.nonpolar>
-37.4087

> <Gold.PLP.part.repulsive>
0.0851

> <Gold.PLP.ligand.clash>
0.0000

> <Gold.PLP.ligand.torsion>
2.2086

> <Gold.PLP.Chemscore.Hbond>
3.6887

> <Gold.PLP.Chemscore.CHOScore>
0.0000

> <Gold.PLP.Chemscore.Metal>
0.0000

> <Gold.Chemscore.Hbonds>
donor molecule, donor type, donor heavy atom, donor atom, acceptor molecule, acceptor atom, score
      P1  H  6896  6909       L1     9  1.00
      P1  H  6931  6943       L1    21  0.72
      P1  H  6934  6947       L1    21  0.86
      P1  H  7997  8009       L1     8  1.00

> <Gold.PLP.Chemscore.Internal.Correction>
0.2991

> <Gold.Rescore>
     Score         DG    S(hbond)    S(metal)    S(lipo)     H(rot)  DE(clash)    DE(int)     intcor
     22.25     -24.39       2.88        0.00     125.93       2.12       0.03       2.11       ----

> <Gold.Chemscore.Fitness>
22.2527

> <Gold.Chemscore.DG>
-24.3858

> <Gold.Chemscore.ZeroCoef>
-5.4800

> <Gold.Chemscore.Hbond>
2.8751

> <Gold.Chemscore.Metal>
0.0000

> <Gold.Chemscore.Lipo>
125.9268

> <Gold.Chemscore.Internal_Hbond>
0.0000

> <Gold.Chemscore.DEClash>
0.0272

> <Gold.Chemscore.DEInternal>
2.1058

> <Gold.Chemscore.Rot>
2.1213

> <Gold.Chemscore.Internal.Correction>
   9.000000E+99

> <Gold.Chemscore.Hbonds>
donor molecule, donor type, donor heavy atom, donor atom, acceptor molecule, acceptor atom, score
      P1  H  6896  6909       L1     9  0.94
      P1  H  6931  6943       L1    21  0.09
      P1  H  6934  6947       L1    21  0.75
      P1  H  7997  8009       L1     8  0.99

> <Gold.Chemscore.Hbond.Weighted>
-9.6029

> <Gold.Chemscore.Metal.Weighted>
-0.0000

> <Gold.Chemscore.Lipo.Weighted>
-14.7334

> <Gold.Chemscore.Internal_Hbond.Weighted>
0.0000

> <Gold.Chemscore.DEClash.Weighted>
0.0272

> <Gold.Chemscore.DEInternal.Weighted>
2.1058

> <Gold.Chemscore.Rot.Weighted>
5.4305

> <Gold.Chemscore.Internal.Correction.Weighted>
   9.000000E+99

> <Gold.Protein.RotatedTorsions>
[ 6907 6896 6895 6894 ] final  139.63 input  -60.11 | X-H torsion
[ 7974 7965 7964 7962 ] final  -11.34 input  175.53 | X-H torsion
[ 8008 7997 7996 7995 ] final  137.88 input   59.86 | X-H torsion
[ 10167 10162 10161 10158 ] final -105.01 input  -65.29 | X-H torsion
[ 10718 10713 10712 10709 ] final  -49.26 input   66.30 | X-H torsion
[ 10763 10752 10751 10750 ] final -178.92 input  -60.55 | X-H torsion
[ 11005 11000 10999 10996 ] final  -26.63 input  -57.11 | X-H torsion

> <Gold.Protein.ActiveResidues>
 VAL166  LYS551  ARG553  GLY616  TRP617  ASP618  TYR619  PRO620  LYS621  CYS622 
 ASP623  PHE694  ASN695  SER759  ASP760  ASP761  ALA762  ILE779  LEU786  VAL792 
 PHE793  MET794  SER795  GLU796  ALA797  LYS798  CYS799  TRP800  GLU811  SER814 

> <Gold.Protein.RotatedAtoms>
  152.2526  133.5228  159.5333 H   0  0  0  0  0  0  0  0  0  0  0  0  # atno 6907 bound_to 6896
  150.7098  134.0939  159.3950 H   0  0  0  0  0  0  0  0  0  0  0  0  # atno 6908 bound_to 6896
  151.8859  135.0435  160.0544 H   0  0  0  0  0  0  0  0  0  0  0  0  # atno 6909 bound_to 6896
  146.2190  140.2897  142.8367 H   0  0  0  0  0  0  0  0  0  0  0  0  # atno 7974 bound_to 7965
  156.3000  140.2408  156.3981 H   0  0  0  0  0  0  0  0  0  0  0  0  # atno 8008 bound_to 7997
  154.8552  140.0422  157.1649 H   0  0  0  0  0  0  0  0  0  0  0  0  # atno 8009 bound_to 7997
  154.8956  140.2969  155.5350 H   0  0  0  0  0  0  0  0  0  0  0  0  # atno 8010 bound_to 7997
  140.2031  143.3803  152.1113 H   0  0  0  0  0  0  0  0  0  0  0  0  # atno 10167 bound_to 10162
  156.1910  130.4153  149.9372 H   0  0  0  0  0  0  0  0  0  0  0  0  # atno 10718 bound_to 10713
  154.5416  135.2806  155.1090 H   0  0  0  0  0  0  0  0  0  0  0  0  # atno 10763 bound_to 10752
  154.2570  135.6329  153.5264 H   0  0  0  0  0  0  0  0  0  0  0  0  # atno 10764 bound_to 10752
  152.9980  135.5596  154.5958 H   0  0  0  0  0  0  0  0  0  0  0  0  # atno 10765 bound_to 10752
  140.9047  133.7501  156.0590 H   0  0  0  0  0  0  0  0  0  0  0  0  # atno 11005 bound_to 11000
  144.9136  140.7786  143.5792 LP  0  0  0  0  0  0  0  0  0  0  0  0  # atno 17320 bound_to 7965
  145.2829  139.1911  143.4781 LP  0  0  0  0  0  0  0  0  0  0  0  0  # atno 17321 bound_to 7965
  139.5209  144.7039  151.5412 LP  0  0  0  0  0  0  0  0  0  0  0  0  # atno 17342 bound_to 10162
  140.6376  143.8953  150.6662 LP  0  0  0  0  0  0  0  0  0  0  0  0  # atno 17343 bound_to 10162
  156.7112  130.8971  151.3609 LP  0  0  0  0  0  0  0  0  0  0  0  0  # atno 17370 bound_to 10713
  157.6929  130.9252  150.0563 LP  0  0  0  0  0  0  0  0  0  0  0  0  # atno 17371 bound_to 10713
  140.8186  134.3316  157.5389 LP  0  0  0  0  0  0  0  0  0  0  0  0  # atno 17394 bound_to 11000
  139.8747  134.9296  156.3480 LP  0  0  0  0  0  0  0  0  0  0  0  0  # atno 17395 bound_to 11000

$$$$
