AV-unprocessed.smi:1531|AV-procd|sdf|6156|dock5
  -GOLD-   22720 6303D 1   1.00000     0.00000
 Structure written by MMmdl.
 44 45  0  0  0  0  0  0  0  0  1 V2000
  150.7519  141.6423  156.1405 C   0  0  0  0  0  0  0  0  0  0  0  0
  149.9962  142.0235  157.4215 C   0  0  0  0  0  0  0  0  0  0  0  0
  150.6303  143.1957  158.2100 C   0  0  2  0  0  0  0  0  0  0  0  0
  152.0359  142.8272  158.7401 C   0  0  0  0  0  0  0  0  0  0  0  0
  152.6773  143.9716  159.5384 C   0  0  0  0  0  0  0  0  0  0  0  0
  151.7757  144.4071  160.6991 C   0  0  0  0  0  0  0  0  0  0  0  0
  150.3863  144.8060  160.1867 C   0  0  0  0  0  0  0  0  0  0  0  0
  149.7261  143.6677  159.3806 C   0  0  1  0  0  0  0  0  0  0  0  0
  148.4290  144.1230  158.8816 N   0  0  0  0  0  0  0  0  0  0  0  0
  147.2364  143.6624  159.2854 C   0  0  0  0  0  0  0  0  0  0  0  0
  147.0972  142.7891  160.1418 O   0  0  0  0  0  0  0  0  0  0  0  0
  146.2321  144.2774  158.6401 N   0  0  0  0  0  0  0  0  0  0  0  0
  144.8425  144.0597  158.8138 C   0  0  0  0  0  0  0  0  0  0  0  0
  144.1134  142.8371  158.8043 C   0  0  0  0  0  0  0  0  0  0  0  0
  142.8219  143.0523  159.0047 N   0  0  0  0  0  0  0  0  0  0  0  0
  142.7046  144.3969  159.1428 N   0  0  0  0  0  0  0  0  0  0  0  0
  141.3980  144.9840  159.3801 C   0  0  0  0  0  0  0  0  0  0  0  0
  141.3474  145.6985  160.7316 C   0  0  0  0  0  0  0  0  0  0  0  0
  142.2094  146.7005  160.9238 N   0  0  0  0  0  0  0  0  0  0  0  0
  140.5386  145.3519  161.5896 O   0  0  0  0  0  0  0  0  0  0  0  0
  143.9216  145.0404  159.0285 C   0  0  0  0  0  0  0  0  0  0  0  0
  150.2046  140.8806  155.5849 H   0  0  0  0  0  0  0  0  0  0  0  0
  151.7396  141.2363  156.3559 H   0  0  0  0  0  0  0  0  0  0  0  0
  150.8754  142.5043  155.4845 H   0  0  0  0  0  0  0  0  0  0  0  0
  148.9783  142.2797  157.1285 H   0  0  0  0  0  0  0  0  0  0  0  0
  149.9087  141.1488  158.0670 H   0  0  0  0  0  0  0  0  0  0  0  0
  150.7448  144.0354  157.5225 H   0  0  0  0  0  0  0  0  0  0  0  0
  151.9691  141.9400  159.3711 H   0  0  0  0  0  0  0  0  0  0  0  0
  152.6994  142.5682  157.9156 H   0  0  0  0  0  0  0  0  0  0  0  0
  153.6493  143.6584  159.9208 H   0  0  0  0  0  0  0  0  0  0  0  0
  152.8630  144.8202  158.8786 H   0  0  0  0  0  0  0  0  0  0  0  0
  151.6823  143.5935  161.4196 H   0  0  0  0  0  0  0  0  0  0  0  0
  152.2305  145.2428  161.2317 H   0  0  0  0  0  0  0  0  0  0  0  0
  149.7551  145.0831  161.0319 H   0  0  0  0  0  0  0  0  0  0  0  0
  150.4744  145.6970  159.5632 H   0  0  0  0  0  0  0  0  0  0  0  0
  149.5739  142.8167  160.0477 H   0  0  0  0  0  0  0  0  0  0  0  0
  148.4444  144.8419  158.1733 H   0  0  0  0  0  0  0  0  0  0  0  0
  146.4876  144.9815  157.9634 H   0  0  0  0  0  0  0  0  0  0  0  0
  144.4578  141.8236  158.6636 H   0  0  0  0  0  0  0  0  0  0  0  0
  141.1575  145.6824  158.5768 H   0  0  0  0  0  0  0  0  0  0  0  0
  140.6488  144.1917  159.3500 H   0  0  0  0  0  0  0  0  0  0  0  0
  142.2055  147.2065  161.7978 H   0  0  0  0  0  0  0  0  0  0  0  0
  142.8557  146.9543  160.1910 H   0  0  0  0  0  0  0  0  0  0  0  0
  144.0203  146.1131  159.1095 H   0  0  0  0  0  0  0  0  0  0  0  0
  1  2  1  0  0  0  0
  1 22  1  0  0  0  0
  1 23  1  0  0  0  0
  1 24  1  0  0  0  0
  2  3  1  0  0  0  0
  2 25  1  0  0  0  0
  2 26  1  0  0  0  0
  3  8  1  0  0  0  0
  3  4  1  0  0  0  0
  3 27  1  0  0  0  0
  4  5  1  0  0  0  0
  4 28  1  0  0  0  0
  4 29  1  0  0  0  0
  5  6  1  0  0  0  0
  5 30  1  0  0  0  0
  5 31  1  0  0  0  0
  6  7  1  0  0  0  0
  6 32  1  0  0  0  0
  6 33  1  0  0  0  0
  7  8  1  0  0  0  0
  7 34  1  0  0  0  0
  7 35  1  0  0  0  0
  8  9  1  0  0  0  0
  8 36  1  0  0  0  0
  9 10  1  0  0  0  0
  9 37  1  0  0  0  0
 10 11  2  0  0  0  0
 10 12  1  0  0  0  0
 12 13  1  0  0  0  0
 12 38  1  0  0  0  0
 13 21  2  0  0  0  0
 13 14  1  0  0  0  0
 14 15  2  0  0  0  0
 14 39  1  0  0  0  0
 15 16  1  0  0  0  0
 16 17  1  0  0  0  0
 16 21  1  0  0  0  0
 17 18  1  0  0  0  0
 17 40  1  0  0  0  0
 17 41  1  0  0  0  0
 18 19  1  0  0  0  0
 18 20  2  0  0  0  0
 19 42  1  0  0  0  0
 19 43  1  0  0  0  0
 21 44  1  0  0  0  0
M  END
> <s_m_source_file>
AV-unprocessed.smi

> <i_m_source_file_index>
1531

> <i_lp_mmshare_version>
43012

> <i_f3d_flags>
0

> <s_epik_input>
W0NIM11bQ0gyXVtDQEBIXTFbQ0gyXVtDSDJdW0NIMl1bQ0gyXVtDQEhdMVtOSF1DKD1PKVtOSF1jMltjSF1ubihbY0hdMilbQ0gyXUMoPU8pW05IMl0=

> <s_epik_cmdline>
J2VwaWtfcHl0aG9uJywgJy1waCcsICc3LjAnLCAnLXRuJywgJzgnLCAnLW1hJywgJzIwMCcsICctbWV0YWxfYmluZGluZycsICctaW1hZScsICc8aW5maWxlLm1hZT4nLCAnLW9tYWUnLCAnPG91dGZpbGUubWFlPic=

> <r_lp_tautomer_probability>
1

> <r_epik_Ionization_Penalty>
4.83437e-05

> <r_epik_Ionization_Penalty_Charging>
0

> <r_epik_Ionization_Penalty_Neutral>
4.83437e-05

> <r_epik_State_Penalty>
-0

> <r_epik_Charging_Adjusted_Penalty>
0

> <i_epik_Tot_Q>
0

> <i_epik_Tot_abs_Q>
0

> <r_epik_Metal_State_Penalty>
-0

> <b_epik_Metal_Only>
0

> <s_lp_Force_Field>
OPLS_2005

> <r_lp_Energy>
14.6895

> <b_lp_Chiralities_Consistent>
1

> <s_lp_Variant>
AV-unprocessed.smi:1531-1

> <Gold.Version>
5.8.1

> <Gold.Id.Protein>
6NUR|6NUR_protein|mol2

> <Gold.PLP.Fitness>
41.5328

> <Gold.PLP.PLP>
-31.6864

> <Gold.PLP.part.hbond>
-7.0460

> <Gold.PLP.part.metal>
0.0000

> <Gold.PLP.part.buried>
-3.3772

> <Gold.PLP.part.nonpolar>
-23.2752

> <Gold.PLP.part.repulsive>
0.2410

> <Gold.PLP.ligand.clash>
0.0000

> <Gold.PLP.ligand.torsion>
0.5208

> <Gold.PLP.Chemscore.Hbond>
3.6169

> <Gold.PLP.Chemscore.CHOScore>
0.0000

> <Gold.PLP.Chemscore.Metal>
0.0000

> <Gold.Chemscore.Hbonds>
donor molecule, donor type, donor heavy atom, donor atom, acceptor molecule, acceptor atom, score
      L1  H     9    37       P1  8029  0.99
      L1  H    12    38       P1  8029  0.93
      P1  H  6933  6944       L1    11  0.85
      P1  H  6934  6946       L1    11  0.82

> <Gold.PLP.Chemscore.Internal.Correction>
0.0375

> <Gold.Rescore>
     Score         DG    S(hbond)    S(metal)    S(lipo)     H(rot)  DE(clash)    DE(int)     intcor
     18.99     -20.43       3.37        0.00      78.25       2.13       0.92       0.53       ----

> <Gold.Chemscore.Fitness>
18.9854

> <Gold.Chemscore.DG>
-20.4330

> <Gold.Chemscore.ZeroCoef>
-5.4800

> <Gold.Chemscore.Hbond>
3.3711

> <Gold.Chemscore.Metal>
0.0000

> <Gold.Chemscore.Lipo>
78.2504

> <Gold.Chemscore.Internal_Hbond>
0.0000

> <Gold.Chemscore.DEClash>
0.9150

> <Gold.Chemscore.DEInternal>
0.5326

> <Gold.Chemscore.Rot>
2.1335

> <Gold.Chemscore.Internal.Correction>
   9.000000E+99

> <Gold.Chemscore.Hbonds>
donor molecule, donor type, donor heavy atom, donor atom, acceptor molecule, acceptor atom, score
      L1  H     9    37       P1  8029  0.64
      L1  H    12    38       P1  8029  0.67
      P1  H  6933  6944       L1    11  0.82
      P1  H  6934  6946       L1    11  0.78

> <Gold.Chemscore.Hbond.Weighted>
-11.2596

> <Gold.Chemscore.Metal.Weighted>
-0.0000

> <Gold.Chemscore.Lipo.Weighted>
-9.1553

> <Gold.Chemscore.Internal_Hbond.Weighted>
0.0000

> <Gold.Chemscore.DEClash.Weighted>
0.9150

> <Gold.Chemscore.DEInternal.Weighted>
0.5326

> <Gold.Chemscore.Rot.Weighted>
5.4618

> <Gold.Chemscore.Internal.Correction.Weighted>
   9.000000E+99

> <Gold.Protein.RotatedTorsions>
[ 6907 6896 6895 6894 ] final   55.14 input  -60.11 | X-H torsion
[ 7974 7965 7964 7962 ] final    2.31 input  175.53 | X-H torsion
[ 8008 7997 7996 7995 ] final -130.30 input   59.86 | X-H torsion
[ 10167 10162 10161 10158 ] final   48.49 input  -65.29 | X-H torsion
[ 10718 10713 10712 10709 ] final   51.58 input   66.30 | X-H torsion
[ 10763 10752 10751 10750 ] final -166.58 input  -60.55 | X-H torsion
[ 11005 11000 10999 10996 ] final -152.07 input  -57.11 | X-H torsion

> <Gold.Protein.ActiveResidues>
 VAL166  LYS551  ARG553  GLY616  TRP617  ASP618  TYR619  PRO620  LYS621  CYS622 
 ASP623  PHE694  ASN695  SER759  ASP760  ASP761  ALA762  ILE779  LEU786  VAL792 
 PHE793  MET794  SER795  GLU796  ALA797  LYS798  CYS799  TRP800  GLU811  SER814 

> <Gold.Protein.RotatedAtoms>
  152.3509  134.7007  160.0236 H   0  0  0  0  0  0  0  0  0  0  0  0  # atno 6907 bound_to 6896
  151.7362  133.3314  159.3361 H   0  0  0  0  0  0  0  0  0  0  0  0  # atno 6908 bound_to 6896
  150.7539  134.6253  159.6202 H   0  0  0  0  0  0  0  0  0  0  0  0  # atno 6909 bound_to 6896
  146.2443  140.0855  142.8355 H   0  0  0  0  0  0  0  0  0  0  0  0  # atno 7974 bound_to 7965
  155.2935  140.0449  157.3024 H   0  0  0  0  0  0  0  0  0  0  0  0  # atno 8008 bound_to 7997
  154.5527  140.2322  155.8426 H   0  0  0  0  0  0  0  0  0  0  0  0  # atno 8009 bound_to 7997
  156.1981  140.3033  155.9476 H   0  0  0  0  0  0  0  0  0  0  0  0  # atno 8010 bound_to 7997
  140.2928  144.3026  150.6236 H   0  0  0  0  0  0  0  0  0  0  0  0  # atno 10167 bound_to 10162
  157.4994  130.8428  149.8298 H   0  0  0  0  0  0  0  0  0  0  0  0  # atno 10718 bound_to 10713
  154.6818  135.2956  154.9602 H   0  0  0  0  0  0  0  0  0  0  0  0  # atno 10763 bound_to 10752
  154.0594  135.6633  153.4814 H   0  0  0  0  0  0  0  0  0  0  0  0  # atno 10764 bound_to 10752
  153.0553  135.5148  154.7866 H   0  0  0  0  0  0  0  0  0  0  0  0  # atno 10765 bound_to 10752
  140.7228  134.3708  157.5180 H   0  0  0  0  0  0  0  0  0  0  0  0  # atno 11005 bound_to 11000
  145.0696  140.9146  143.4890 LP  0  0  0  0  0  0  0  0  0  0  0  0  # atno 17320 bound_to 7965
  145.0986  139.2838  143.5698 LP  0  0  0  0  0  0  0  0  0  0  0  0  # atno 17321 bound_to 7965
  140.5718  143.2180  151.7586 LP  0  0  0  0  0  0  0  0  0  0  0  0  # atno 17342 bound_to 10162
  139.4934  144.4206  151.9982 LP  0  0  0  0  0  0  0  0  0  0  0  0  # atno 17343 bound_to 10162
  156.0220  130.3792  150.1934 LP  0  0  0  0  0  0  0  0  0  0  0  0  # atno 17370 bound_to 10713
  157.0124  130.9955  151.3362 LP  0  0  0  0  0  0  0  0  0  0  0  0  # atno 17371 bound_to 10713
  139.8844  134.8966  156.2706 LP  0  0  0  0  0  0  0  0  0  0  0  0  # atno 17394 bound_to 11000
  140.9988  133.7164  156.0928 LP  0  0  0  0  0  0  0  0  0  0  0  0  # atno 17395 bound_to 11000

$$$$
