AV-unprocessed.smi:3303|AV-procd|sdf|12667|dock1
  -GOLD-   2272019 03D 1   1.00000     0.00000
 Structure written by MMmdl.
 45 46  0  0  0  0  0  0  0  0  3 V2000
  148.2314  133.0391  153.1618 C   0  0  0  0  0  0  0  0  0  0  0  0
  146.6898  132.9694  153.1271 C   0  0  2  0  0  0  0  0  0  0  0  0
  146.2045  131.5162  152.9444 C   0  0  0  0  0  0  0  0  0  0  0  0
  146.4739  131.0207  151.5692 N   0  3  1  0  0  0  0  0  0  0  0  0
  146.2232  129.5687  151.4233 C   0  0  0  0  0  0  0  0  0  0  0  0
  145.8583  131.8600  150.4999 C   0  0  1  0  0  0  0  0  0  0  0  0
  144.3230  131.7193  150.4117 C   0  0  0  0  0  0  0  0  0  0  0  0
  146.3026  133.3323  150.6457 C   0  0  0  0  0  0  0  0  0  0  0  0
  146.0363  133.8832  152.0637 C   0  0  2  0  0  0  0  0  0  0  0  0
  146.4821  135.2880  152.2195 N   0  3  0  0  0  0  0  0  0  0  0  0
  145.6366  136.3007  151.5530 C   0  0  0  0  0  0  0  0  0  0  0  0
  144.8898  137.1555  152.5862 C   0  0  0  0  0  0  0  0  0  0  0  0
  143.5232  136.5887  152.9208 C   0  0  0  0  0  0  0  0  0  0  0  0
  142.4391  137.4430  153.2142 C   0  0  0  0  0  0  0  0  0  0  0  0
  141.1922  136.8629  153.5188 C   0  0  0  0  0  0  0  0  0  0  0  0
  141.0793  135.4594  153.5204 C   0  0  0  0  0  0  0  0  0  0  0  0
  142.2226  134.6944  153.2152 C   0  0  0  0  0  0  0  0  0  0  0  0
  143.4227  135.2404  152.9213 N   0  0  0  0  0  0  0  0  0  0  0  0
  148.6790  132.7092  152.2245 H   0  0  0  0  0  0  0  0  0  0  0  0
  148.6296  132.4024  153.9523 H   0  0  0  0  0  0  0  0  0  0  0  0
  148.5860  134.0501  153.3610 H   0  0  0  0  0  0  0  0  0  0  0  0
  146.3431  133.3042  154.1060 H   0  0  0  0  0  0  0  0  0  0  0  0
  146.7035  130.8701  153.6683 H   0  0  0  0  0  0  0  0  0  0  0  0
  145.1379  131.4438  153.1602 H   0  0  0  0  0  0  0  0  0  0  0  0
  145.1859  129.3159  151.6457 H   0  0  0  0  0  0  0  0  0  0  0  0
  146.8579  129.0049  152.1077 H   0  0  0  0  0  0  0  0  0  0  0  0
  146.4521  129.2348  150.4107 H   0  0  0  0  0  0  0  0  0  0  0  0
  146.2600  131.5028  149.5504 H   0  0  0  0  0  0  0  0  0  0  0  0
  143.9236  132.3571  149.6228 H   0  0  0  0  0  0  0  0  0  0  0  0
  143.8233  132.0002  151.3382 H   0  0  0  0  0  0  0  0  0  0  0  0
  144.0236  130.6999  150.1694 H   0  0  0  0  0  0  0  0  0  0  0  0
  147.3653  133.4126  150.4142 H   0  0  0  0  0  0  0  0  0  0  0  0
  145.7923  133.9350  149.8945 H   0  0  0  0  0  0  0  0  0  0  0  0
  144.9606  133.8715  152.2449 H   0  0  0  0  0  0  0  0  0  0  0  0
  146.4798  135.5026  153.2067 H   0  0  0  0  0  0  0  0  0  0  0  0
  146.2548  136.9417  150.9247 H   0  0  0  0  0  0  0  0  0  0  0  0
  144.9200  135.8010  150.8998 H   0  0  0  0  0  0  0  0  0  0  0  0
  145.4791  137.2344  153.5010 H   0  0  0  0  0  0  0  0  0  0  0  0
  144.7659  138.1732  152.2127 H   0  0  0  0  0  0  0  0  0  0  0  0
  142.5549  138.5168  153.2052 H   0  0  0  0  0  0  0  0  0  0  0  0
  140.3380  137.4835  153.7467 H   0  0  0  0  0  0  0  0  0  0  0  0
  140.1386  134.9803  153.7484 H   0  0  0  0  0  0  0  0  0  0  0  0
  142.1718  133.6157  153.2074 H   0  0  0  0  0  0  0  0  0  0  0  0
  147.4294  135.3719  151.8788 H   0  0  0  0  0  0  0  0  0  0  0  0
  147.4706  131.1252  151.4412 H   0  0  0  0  0  0  0  0  0  0  0  0
  1  2  1  0  0  0  0
  1 19  1  0  0  0  0
  1 20  1  0  0  0  0
  1 21  1  0  0  0  0
  2  9  1  0  0  0  0
  2  3  1  0  0  0  0
  2 22  1  0  0  0  0
  3  4  1  0  0  0  0
  3 23  1  0  0  0  0
  3 24  1  0  0  0  0
  4  5  1  0  0  0  0
  4  6  1  0  0  0  0
  4 45  1  0  0  0  0
  5 25  1  0  0  0  0
  5 26  1  0  0  0  0
  5 27  1  0  0  0  0
  6  7  1  0  0  0  0
  6  8  1  0  0  0  0
  6 28  1  0  0  0  0
  7 29  1  0  0  0  0
  7 30  1  0  0  0  0
  7 31  1  0  0  0  0
  8  9  1  0  0  0  0
  8 32  1  0  0  0  0
  8 33  1  0  0  0  0
  9 10  1  0  0  0  0
  9 34  1  0  0  0  0
 10 11  1  0  0  0  0
 10 35  1  0  0  0  0
 10 44  1  0  0  0  0
 11 12  1  0  0  0  0
 11 36  1  0  0  0  0
 11 37  1  0  0  0  0
 12 13  1  0  0  0  0
 12 38  1  0  0  0  0
 12 39  1  0  0  0  0
 13 18  1  0  0  0  0
 13 14  2  0  0  0  0
 14 15  1  0  0  0  0
 14 40  1  0  0  0  0
 15 16  2  0  0  0  0
 15 41  1  0  0  0  0
 16 17  1  0  0  0  0
 16 42  1  0  0  0  0
 17 18  2  0  0  0  0
 17 43  1  0  0  0  0
M  CHG  1   4   1
M  CHG  1  10   1
M  END
> <s_m_source_file>
AV-unprocessed.smi

> <i_m_source_file_index>
3303

> <i_lp_mmshare_version>
43012

> <i_f3d_flags>
0

> <s_epik_input>
W0NIM11bQ0BASF0xW0NIMl1OKFtDSDNdKVtDQEBIXShbQ0gzXSlbQ0gyXVtDQEhdMVtOSF1bQ0gyXVtDSDJdYzJbY0hdW2NIXVtjSF1bY0hdbjI=

> <s_epik_cmdline>
J2VwaWtfcHl0aG9uJywgJy1waCcsICc3LjAnLCAnLXRuJywgJzgnLCAnLW1hJywgJzIwMCcsICctbWV0YWxfYmluZGluZycsICctaW1hZScsICc8aW5maWxlLm1hZT4nLCAnLW9tYWUnLCAnPG91dGZpbGUubWFlPic=

> <r_epik_Ionization_Penalty>
0.0769462

> <r_epik_Ionization_Penalty_Charging>
0.0759813

> <r_epik_Ionization_Penalty_Neutral>
0.000964829

> <r_epik_State_Penalty>
0.0654373

> <r_epik_Charging_Adjusted_Penalty>
0.141419

> <i_epik_Tot_Q>
2

> <i_epik_Tot_abs_Q>
2

> <r_epik_Metal_State_Penalty>
0.0656439

> <b_epik_Metal_Only>
0

> <s_lp_Force_Field>
OPLS_2005

> <r_lp_Energy>
31.612

> <b_lp_Chiralities_Consistent>
1

> <s_lp_Variant>
AV-unprocessed.smi:3303-11

> <Gold.Version>
5.8.1

> <Gold.Id.Protein>
6NUR|6NUR_protein|mol2

> <Gold.PLP.Fitness>
48.0485

> <Gold.PLP.PLP>
-38.3194

> <Gold.PLP.part.hbond>
-2.0000

> <Gold.PLP.part.metal>
0.0000

> <Gold.PLP.part.buried>
-5.5006

> <Gold.PLP.part.nonpolar>
-30.9833

> <Gold.PLP.part.repulsive>
0.1611

> <Gold.PLP.ligand.clash>
0.0000

> <Gold.PLP.ligand.torsion>
1.0357

> <Gold.PLP.Chemscore.Hbond>
2.9280

> <Gold.PLP.Chemscore.CHOScore>
1.0000

> <Gold.PLP.Chemscore.Metal>
0.0000

> <Gold.Chemscore.Hbonds>
donor molecule, donor type, donor heavy atom, donor atom, acceptor molecule, acceptor atom, score
      L1  H     4    45       P1 10747  0.93
      L1  H    10    44       P1  7948  2.00
      L1  C    17    43       P1 10957  1.00

> <Gold.PLP.Chemscore.Internal.Correction>
0.0166

> <Gold.Rescore>
     Score         DG    S(hbond)    S(metal)    S(lipo)     H(rot)  DE(clash)    DE(int)     intcor
     18.28     -19.60       1.91        0.00      96.17       1.37       0.34       0.98       ----

> <Gold.Chemscore.Fitness>
18.2778

> <Gold.Chemscore.DG>
-19.5976

> <Gold.Chemscore.ZeroCoef>
-5.4800

> <Gold.Chemscore.Hbond>
1.9115

> <Gold.Chemscore.Metal>
0.0000

> <Gold.Chemscore.Lipo>
96.1669

> <Gold.Chemscore.Internal_Hbond>
0.0000

> <Gold.Chemscore.DEClash>
0.3386

> <Gold.Chemscore.DEInternal>
0.9812

> <Gold.Chemscore.Rot>
1.3744

> <Gold.Chemscore.Internal.Correction>
   9.000000E+99

> <Gold.Chemscore.Hbonds>
donor molecule, donor type, donor heavy atom, donor atom, acceptor molecule, acceptor atom, score
      L1  H     4    45       P1 10747  0.91
      L1  H    10    44       P1  7948  0.94

> <Gold.Chemscore.Hbond.Weighted>
-6.3845

> <Gold.Chemscore.Metal.Weighted>
-0.0000

> <Gold.Chemscore.Lipo.Weighted>
-11.2515

> <Gold.Chemscore.Internal_Hbond.Weighted>
0.0000

> <Gold.Chemscore.DEClash.Weighted>
0.3386

> <Gold.Chemscore.DEInternal.Weighted>
0.9812

> <Gold.Chemscore.Rot.Weighted>
3.5185

> <Gold.Chemscore.Internal.Correction.Weighted>
   9.000000E+99

> <Gold.Protein.RotatedTorsions>
[ 6907 6896 6895 6894 ] final   57.93 input  -60.11 | X-H torsion
[ 7974 7965 7964 7962 ] final  -84.55 input  175.53 | X-H torsion
[ 8008 7997 7996 7995 ] final   62.78 input   59.86 | X-H torsion
[ 10167 10162 10161 10158 ] final -129.46 input  -65.29 | X-H torsion
[ 10718 10713 10712 10709 ] final  -52.93 input   66.30 | X-H torsion
[ 10763 10752 10751 10750 ] final  -61.42 input  -60.55 | X-H torsion
[ 11005 11000 10999 10996 ] final   75.44 input  -57.11 | X-H torsion

> <Gold.Protein.ActiveResidues>
 VAL166  LYS551  ARG553  GLY616  TRP617  ASP618  TYR619  PRO620  LYS621  CYS622 
 ASP623  PHE694  ASN695  SER759  ASP760  ASP761  ALA762  ILE779  LEU786  VAL792 
 PHE793  MET794  SER795  GLU796  ALA797  LYS798  CYS799  TRP800  GLU811  SER814 

> <Gold.Protein.RotatedAtoms>
  152.3777  134.6638  160.0153 H   0  0  0  0  0  0  0  0  0  0  0  0  # atno 6907 bound_to 6896
  151.6911  133.3305  159.3251 H   0  0  0  0  0  0  0  0  0  0  0  0  # atno 6908 bound_to 6896
  150.7723  134.6634  159.6396 H   0  0  0  0  0  0  0  0  0  0  0  0  # atno 6909 bound_to 6896
  145.5052  140.9544  143.1738 H   0  0  0  0  0  0  0  0  0  0  0  0  # atno 7974 bound_to 7965
  155.6198  140.3495  155.4648 H   0  0  0  0  0  0  0  0  0  0  0  0  # atno 8008 bound_to 7997
  156.0088  140.1229  157.0498 H   0  0  0  0  0  0  0  0  0  0  0  0  # atno 8009 bound_to 7997
  154.4273  140.1085  156.5787 H   0  0  0  0  0  0  0  0  0  0  0  0  # atno 8010 bound_to 7997
  139.9395  143.6179  152.2507 H   0  0  0  0  0  0  0  0  0  0  0  0  # atno 10167 bound_to 10162
  156.1578  130.4150  149.9841 H   0  0  0  0  0  0  0  0  0  0  0  0  # atno 10718 bound_to 10713
  154.2842  135.6266  153.5359 H   0  0  0  0  0  0  0  0  0  0  0  0  # atno 10763 bound_to 10752
  152.9861  135.5640  154.5461 H   0  0  0  0  0  0  0  0  0  0  0  0  # atno 10764 bound_to 10752
  154.5058  135.2874  155.1359 H   0  0  0  0  0  0  0  0  0  0  0  0  # atno 10765 bound_to 10752
  139.9344  134.7517  156.1271 H   0  0  0  0  0  0  0  0  0  0  0  0  # atno 11005 bound_to 11000
  144.7758  139.6634  143.7175 LP  0  0  0  0  0  0  0  0  0  0  0  0  # atno 17320 bound_to 7965
  146.2201  139.5620  142.9624 LP  0  0  0  0  0  0  0  0  0  0  0  0  # atno 17321 bound_to 7965
  139.6716  144.7660  151.1773 LP  0  0  0  0  0  0  0  0  0  0  0  0  # atno 17342 bound_to 10162
  140.7615  143.5857  150.8848 LP  0  0  0  0  0  0  0  0  0  0  0  0  # atno 17343 bound_to 10162
  156.7679  130.9175  151.3643 LP  0  0  0  0  0  0  0  0  0  0  0  0  # atno 17370 bound_to 10713
  157.6709  130.9050  150.0038 LP  0  0  0  0  0  0  0  0  0  0  0  0  # atno 17371 bound_to 10713
  141.0950  133.6699  156.2624 LP  0  0  0  0  0  0  0  0  0  0  0  0  # atno 17394 bound_to 11000
  140.6116  134.5453  157.5534 LP  0  0  0  0  0  0  0  0  0  0  0  0  # atno 17395 bound_to 11000

$$$$
