AV-unprocessed.smi:1875|AV-procd|sdf|7618|dock4
  -GOLD-   22720 9343D 1   1.00000     0.00000
 Structure written by MMmdl.
 48 50  0  0  0  0  0  0  0  0  2 V2000
  148.2750  135.5811  163.4017 C   0  0  0  0  0  0  0  0  0  0  0  0
  148.5186  135.4498  161.9124 C   0  0  0  0  0  0  0  0  0  0  0  0
  148.0155  134.3689  161.3077 N   0  0  0  0  0  0  0  0  0  0  0  0
  148.2354  134.2545  159.9795 C   0  0  0  0  0  0  0  0  0  0  0  0
  148.9599  135.2267  159.2604 C   0  0  0  0  0  0  0  0  0  0  0  0
  149.4408  136.3233  160.0069 C   0  0  0  0  0  0  0  0  0  0  0  0
  150.2391  137.4325  159.3521 C   0  0  0  0  0  0  0  0  0  0  0  0
  151.6417  137.4115  159.7557 N   0  0  0  0  0  0  0  0  0  0  0  0
  152.4027  138.5509  159.2507 C   0  0  0  0  0  0  0  0  0  0  0  0
  153.8958  138.4247  159.5949 C   0  0  2  0  0  0  0  0  0  0  0  0
  154.0100  137.9411  160.9190 O   0  0  0  0  0  0  0  0  0  0  0  0
  154.6172  139.7837  159.4999 C   0  0  0  0  0  0  0  0  0  0  0  0
  154.1418  140.7559  160.4937 N   0  0  0  0  0  0  0  0  0  0  0  0
  154.3835  140.8281  161.8309 C   0  0  0  0  0  0  0  0  0  0  0  0
  153.7151  141.9133  162.3105 N   0  3  0  0  0  0  0  0  0  0  0  0
  153.0358  142.5417  161.2644 C   0  0  0  0  0  0  0  0  0  0  0  0
  152.2238  143.6695  161.2527 C   0  0  0  0  0  0  0  0  0  0  0  0
  151.6755  144.0566  160.0090 C   0  0  0  0  0  0  0  0  0  0  0  0
  150.7799  145.2831  159.9619 C   0  0  0  0  0  0  0  0  0  0  0  0
  151.9518  143.3197  158.8279 C   0  0  0  0  0  0  0  0  0  0  0  0
  151.3574  143.7461  157.4962 C   0  0  0  0  0  0  0  0  0  0  0  0
  152.7811  142.1756  158.8604 C   0  0  0  0  0  0  0  0  0  0  0  0
  153.3090  141.8060  160.0949 C   0  0  0  0  0  0  0  0  0  0  0  0
  149.2178  136.4318  161.3356 N   0  0  0  0  0  0  0  0  0  0  0  0
  147.6946  134.7424  163.7886 H   0  0  0  0  0  0  0  0  0  0  0  0
  147.7281  136.4998  163.6159 H   0  0  0  0  0  0  0  0  0  0  0  0
  149.2235  135.6138  163.9386 H   0  0  0  0  0  0  0  0  0  0  0  0
  147.8310  133.3824  159.4876 H   0  0  0  0  0  0  0  0  0  0  0  0
  149.1351  135.1342  158.1988 H   0  0  0  0  0  0  0  0  0  0  0  0
  150.1568  137.3244  158.2700 H   0  0  0  0  0  0  0  0  0  0  0  0
  149.7899  138.3942  159.6052 H   0  0  0  0  0  0  0  0  0  0  0  0
  152.0697  136.5507  159.4306 H   0  0  0  0  0  0  0  0  0  0  0  0
  152.2928  138.5935  158.1662 H   0  0  0  0  0  0  0  0  0  0  0  0
  152.0001  139.4883  159.6375 H   0  0  0  0  0  0  0  0  0  0  0  0
  154.3760  137.7158  158.9187 H   0  0  0  0  0  0  0  0  0  0  0  0
  154.4131  137.0863  160.8886 H   0  0  0  0  0  0  0  0  0  0  0  0
  155.6948  139.6656  159.6196 H   0  0  0  0  0  0  0  0  0  0  0  0
  154.4639  140.2250  158.5139 H   0  0  0  0  0  0  0  0  0  0  0  0
  154.9969  140.1494  162.4063 H   0  0  0  0  0  0  0  0  0  0  0  0
  152.0191  144.2262  162.1556 H   0  0  0  0  0  0  0  0  0  0  0  0
  149.7830  145.0159  159.6111 H   0  0  0  0  0  0  0  0  0  0  0  0
  151.1940  146.0346  159.2899 H   0  0  0  0  0  0  0  0  0  0  0  0
  150.6751  145.7390  160.9467 H   0  0  0  0  0  0  0  0  0  0  0  0
  151.6676  143.0817  156.6894 H   0  0  0  0  0  0  0  0  0  0  0  0
  151.6784  144.7555  157.2381 H   0  0  0  0  0  0  0  0  0  0  0  0
  150.2682  143.7292  157.5407 H   0  0  0  0  0  0  0  0  0  0  0  0
  152.9923  141.6139  157.9624 H   0  0  0  0  0  0  0  0  0  0  0  0
  153.7248  142.2015  163.2805 H   0  0  0  0  0  0  0  0  0  0  0  0
  1  2  1  0  0  0  0
  1 25  1  0  0  0  0
  1 26  1  0  0  0  0
  1 27  1  0  0  0  0
  2 24  1  0  0  0  0
  2  3  2  0  0  0  0
  3  4  1  0  0  0  0
  4  5  2  0  0  0  0
  4 28  1  0  0  0  0
  5  6  1  0  0  0  0
  5 29  1  0  0  0  0
  6  7  1  0  0  0  0
  6 24  2  0  0  0  0
  7  8  1  0  0  0  0
  7 30  1  0  0  0  0
  7 31  1  0  0  0  0
  8  9  1  0  0  0  0
  8 32  1  0  0  0  0
  9 10  1  0  0  0  0
  9 33  1  0  0  0  0
  9 34  1  0  0  0  0
 10 11  1  0  0  0  0
 10 12  1  0  0  0  0
 10 35  1  0  0  0  0
 11 36  1  0  0  0  0
 12 13  1  0  0  0  0
 12 37  1  0  0  0  0
 12 38  1  0  0  0  0
 13 23  1  0  0  0  0
 13 14  1  0  0  0  0
 14 15  2  0  0  0  0
 14 39  1  0  0  0  0
 15 16  1  0  0  0  0
 15 48  1  0  0  0  0
 16 23  2  0  0  0  0
 16 17  1  0  0  0  0
 17 18  2  0  0  0  0
 17 40  1  0  0  0  0
 18 19  1  0  0  0  0
 18 20  1  0  0  0  0
 19 41  1  0  0  0  0
 19 42  1  0  0  0  0
 19 43  1  0  0  0  0
 20 21  1  0  0  0  0
 20 22  2  0  0  0  0
 21 44  1  0  0  0  0
 21 45  1  0  0  0  0
 21 46  1  0  0  0  0
 22 23  1  0  0  0  0
 22 47  1  0  0  0  0
M  CHG  1  15   1
M  END
> <s_m_source_file>
AV-unprocessed.smi

> <i_m_source_file_index>
1875

> <i_lp_mmshare_version>
43012

> <i_f3d_flags>
0

> <s_epik_input>
W0NIM11jMW5bY0hdW2NIXWMobjEpW0NIMl1bTkhdW0NIMl1bQ0BIXShbT0hdKVtDSDJdbihbY0hdbjIpYyhjMjMpW2NIXWMoW0NIM10pYyhbY0hdMylbQ0gzXQ==

> <s_epik_cmdline>
J2VwaWtfcHl0aG9uJywgJy1waCcsICc3LjAnLCAnLXRuJywgJzgnLCAnLW1hJywgJzIwMCcsICctbWV0YWxfYmluZGluZycsICctaW1hZScsICc8aW5maWxlLm1hZT4nLCAnLW9tYWUnLCAnPG91dGZpbGUubWFlPic=

> <r_epik_Ionization_Penalty>
2.02862

> <r_epik_Ionization_Penalty_Charging>
1.0004

> <r_epik_Ionization_Penalty_Neutral>
1.02823

> <r_epik_State_Penalty>
2.23022

> <r_epik_Charging_Adjusted_Penalty>
3.23062

> <i_epik_Tot_Q>
1

> <i_epik_Tot_abs_Q>
1

> <r_epik_Metal_State_Penalty>
2.31249

> <b_epik_Metal_Only>
0

> <s_epik_Chemistry_Notes>
This compound contains an electron-poor aromatic ring that is susceptible to covalent hydrolysis at low pH, typically resulting in measured values for nitrogen ring protonation that are around two units higher than predicted values.

> <s_lp_Force_Field>
OPLS_2005

> <r_lp_Energy>
18.1078

> <b_lp_Chiralities_Consistent>
1

> <s_lp_Variant>
AV-unprocessed.smi:1875-7

> <Gold.Version>
5.8.1

> <Gold.Id.Protein>
6NUR|6NUR_protein|mol2

> <Gold.PLP.Fitness>
57.2151

> <Gold.PLP.PLP>
-55.3306

> <Gold.PLP.part.hbond>
-1.1079

> <Gold.PLP.part.metal>
0.0000

> <Gold.PLP.part.buried>
-7.2029

> <Gold.PLP.part.nonpolar>
-45.8430

> <Gold.PLP.part.repulsive>
0.0381

> <Gold.PLP.ligand.clash>
0.0000

> <Gold.PLP.ligand.torsion>
0.4810

> <Gold.PLP.Chemscore.Hbond>
0.9120

> <Gold.PLP.Chemscore.CHOScore>
0.0000

> <Gold.PLP.Chemscore.Metal>
0.0000

> <Gold.Chemscore.Hbonds>
donor molecule, donor type, donor heavy atom, donor atom, acceptor molecule, acceptor atom, score
      P1  H  6931  6943       L1    24  1.00

> <Gold.PLP.Chemscore.Internal.Correction>
0.1105

> <Gold.Rescore>
     Score         DG    S(hbond)    S(metal)    S(lipo)     H(rot)  DE(clash)    DE(int)     intcor
     16.32     -17.03       0.84        0.00     136.14       2.80       0.01       0.69       ----

> <Gold.Chemscore.Fitness>
16.3210

> <Gold.Chemscore.DG>
-17.0262

> <Gold.Chemscore.ZeroCoef>
-5.4800

> <Gold.Chemscore.Hbond>
0.8363

> <Gold.Chemscore.Metal>
0.0000

> <Gold.Chemscore.Lipo>
136.1442

> <Gold.Chemscore.Internal_Hbond>
0.0000

> <Gold.Chemscore.DEClash>
0.0132

> <Gold.Chemscore.DEInternal>
0.6919

> <Gold.Chemscore.Rot>
2.8032

> <Gold.Chemscore.Internal.Correction>
   9.000000E+99

> <Gold.Chemscore.Hbonds>
donor molecule, donor type, donor heavy atom, donor atom, acceptor molecule, acceptor atom, score
      P1  H  6931  6943       L1    24  0.80

> <Gold.Chemscore.Hbond.Weighted>
-2.7934

> <Gold.Chemscore.Metal.Weighted>
-0.0000

> <Gold.Chemscore.Lipo.Weighted>
-15.9289

> <Gold.Chemscore.Internal_Hbond.Weighted>
0.0000

> <Gold.Chemscore.DEClash.Weighted>
0.0132

> <Gold.Chemscore.DEInternal.Weighted>
0.6919

> <Gold.Chemscore.Rot.Weighted>
7.1761

> <Gold.Chemscore.Internal.Correction.Weighted>
   9.000000E+99

> <Gold.Protein.RotatedTorsions>
[ 6907 6896 6895 6894 ] final -128.90 input  -60.11 | X-H torsion
[ 7974 7965 7964 7962 ] final  -48.17 input  175.53 | X-H torsion
[ 8008 7997 7996 7995 ] final  179.34 input   59.86 | X-H torsion
[ 10167 10162 10161 10158 ] final    6.11 input  -65.29 | X-H torsion
[ 10718 10713 10712 10709 ] final   55.76 input   66.30 | X-H torsion
[ 10763 10752 10751 10750 ] final   62.94 input  -60.55 | X-H torsion
[ 11005 11000 10999 10996 ] final -137.71 input  -57.11 | X-H torsion

> <Gold.Protein.ActiveResidues>
 VAL166  LYS551  ARG553  GLY616  TRP617  ASP618  TYR619  PRO620  LYS621  CYS622 
 ASP623  PHE694  ASN695  SER759  ASP760  ASP761  ALA762  ILE779  LEU786  VAL792 
 PHE793  MET794  SER795  GLU796  ALA797  LYS798  CYS799  TRP800  GLU811  SER814 

> <Gold.Protein.RotatedAtoms>
  150.9228  133.6859  159.2827 H   0  0  0  0  0  0  0  0  0  0  0  0  # atno 6907 bound_to 6896
  151.4308  135.1008  159.9651 H   0  0  0  0  0  0  0  0  0  0  0  0  # atno 6908 bound_to 6896
  152.4988  133.8659  159.7329 H   0  0  0  0  0  0  0  0  0  0  0  0  # atno 6909 bound_to 6896
  145.9540  140.7545  142.9490 H   0  0  0  0  0  0  0  0  0  0  0  0  # atno 7974 bound_to 7965
  156.0445  140.1311  157.0119 H   0  0  0  0  0  0  0  0  0  0  0  0  # atno 8008 bound_to 7997
  154.4406  140.1023  156.6356 H   0  0  0  0  0  0  0  0  0  0  0  0  # atno 8009 bound_to 7997
  155.5616  140.3465  155.4495 H   0  0  0  0  0  0  0  0  0  0  0  0  # atno 8010 bound_to 7997
  140.6446  143.7693  150.7479 H   0  0  0  0  0  0  0  0  0  0  0  0  # atno 10167 bound_to 10162
  157.5373  130.8672  149.8771 H   0  0  0  0  0  0  0  0  0  0  0  0  # atno 10718 bound_to 10713
  153.0000  135.5447  154.6272 H   0  0  0  0  0  0  0  0  0  0  0  0  # atno 10763 bound_to 10752
  154.5558  135.2830  155.0968 H   0  0  0  0  0  0  0  0  0  0  0  0  # atno 10764 bound_to 10752
  154.2190  135.6454  153.5191 H   0  0  0  0  0  0  0  0  0  0  0  0  # atno 10765 bound_to 10752
  140.8686  134.2080  157.4665 H   0  0  0  0  0  0  0  0  0  0  0  0  # atno 11005 bound_to 11000
  144.6801  140.2481  143.7335 LP  0  0  0  0  0  0  0  0  0  0  0  0  # atno 17320 bound_to 7965
  145.8132  139.2012  143.1981 LP  0  0  0  0  0  0  0  0  0  0  0  0  # atno 17321 bound_to 7965
  140.1332  143.4507  152.2241 LP  0  0  0  0  0  0  0  0  0  0  0  0  # atno 17342 bound_to 10162
  139.5656  144.7433  151.4032 LP  0  0  0  0  0  0  0  0  0  0  0  0  # atno 17343 bound_to 10162
  156.0468  130.3726  150.1297 LP  0  0  0  0  0  0  0  0  0  0  0  0  # atno 17370 bound_to 10713
  156.9478  130.9765  151.3504 LP  0  0  0  0  0  0  0  0  0  0  0  0  # atno 17371 bound_to 10713
  139.8710  134.9763  156.4917 LP  0  0  0  0  0  0  0  0  0  0  0  0  # atno 17394 bound_to 11000
  140.8600  133.8067  155.9255 LP  0  0  0  0  0  0  0  0  0  0  0  0  # atno 17395 bound_to 11000

$$$$
