AV-unprocessed.smi:1782|AV-procd|sdf|7189|dock9
  -GOLD-   22720 8433D 1   1.00000     0.00000
 Structure written by MMmdl.
 42 44  0  0  0  0  0  0  0  0  2 V2000
  153.5037  139.6078  158.8645 O   0  0  0  0  0  0  0  0  0  0  0  0
  154.2052  139.8865  159.8377 C   0  0  0  0  0  0  0  0  0  0  0  0
  155.3085  138.9295  160.3107 C   0  0  0  0  0  0  0  0  0  0  0  0
  155.2326  138.6266  161.7503 N   0  0  0  0  0  0  0  0  0  0  0  0
  154.5555  137.4508  162.1202 C   0  0  0  0  0  0  0  0  0  0  0  0
  154.4273  137.0847  163.4026 C   0  0  0  0  0  0  0  0  0  0  0  0
  155.0067  137.9326  164.4157 C   0  0  0  0  0  0  0  0  0  0  0  0
  155.6608  139.0718  164.0910 C   0  0  0  0  0  0  0  0  0  0  0  0
  156.2783  139.9816  165.1506 C   0  0  0  0  0  0  0  0  0  0  0  0
  157.6036  140.0325  165.0096 F   0  0  0  0  0  0  0  0  0  0  0  0
  155.7997  141.2214  165.0402 F   0  0  0  0  0  0  0  0  0  0  0  0
  156.0161  139.5518  166.3859 F   0  0  0  0  0  0  0  0  0  0  0  0
  155.7943  139.4674  162.6738 C   0  0  0  0  0  0  0  0  0  0  0  0
  156.3768  140.4970  162.3278 O   0  0  0  0  0  0  0  0  0  0  0  0
  154.0741  141.0265  160.5318 N   0  0  0  0  0  0  0  0  0  0  0  0
  153.0822  142.0583  160.2521 C   0  0  1  0  0  0  0  0  0  0  0  0
  152.8389  143.0338  161.4002 C   0  0  0  0  0  0  0  0  0  0  0  0
  152.2162  144.2391  160.6870 C   0  0  0  0  0  0  0  0  0  0  0  0
  152.7370  144.2294  159.2969 N   0  3  2  0  0  0  0  0  0  0  0  0
  151.6859  144.4030  158.2706 C   0  0  0  0  0  0  0  0  0  0  0  0
  150.3343  143.8813  158.6965 C   0  0  0  0  0  0  0  0  0  0  0  0
  151.1714  143.1003  157.7066 C   0  0  0  0  0  0  0  0  0  0  0  0
  153.5300  142.9916  159.1279 C   0  0  0  0  0  0  0  0  0  0  0  0
  155.2383  138.0151  159.7197 H   0  0  0  0  0  0  0  0  0  0  0  0
  156.2874  139.3489  160.0702 H   0  0  0  0  0  0  0  0  0  0  0  0
  154.1453  136.8757  161.3029 H   0  0  0  0  0  0  0  0  0  0  0  0
  153.9005  136.1808  163.6713 H   0  0  0  0  0  0  0  0  0  0  0  0
  154.9058  137.6377  165.4495 H   0  0  0  0  0  0  0  0  0  0  0  0
  154.6949  141.1809  161.3136 H   0  0  0  0  0  0  0  0  0  0  0  0
  152.1376  141.5905  159.9669 H   0  0  0  0  0  0  0  0  0  0  0  0
  152.1942  142.6252  162.1791 H   0  0  0  0  0  0  0  0  0  0  0  0
  153.7854  143.3212  161.8611 H   0  0  0  0  0  0  0  0  0  0  0  0
  151.1296  144.1359  160.6831 H   0  0  0  0  0  0  0  0  0  0  0  0
  152.4542  145.1782  161.1870 H   0  0  0  0  0  0  0  0  0  0  0  0
  151.7635  145.2872  157.6398 H   0  0  0  0  0  0  0  0  0  0  0  0
  150.2324  143.4737  159.7007 H   0  0  0  0  0  0  0  0  0  0  0  0
  149.4541  144.3921  158.3108 H   0  0  0  0  0  0  0  0  0  0  0  0
  150.8421  143.0970  156.6695 H   0  0  0  0  0  0  0  0  0  0  0  0
  151.6240  142.1730  158.0535 H   0  0  0  0  0  0  0  0  0  0  0  0
  154.5830  143.2520  159.2456 H   0  0  0  0  0  0  0  0  0  0  0  0
  153.4115  142.5425  158.1405 H   0  0  0  0  0  0  0  0  0  0  0  0
  153.3767  145.0051  159.2008 H   0  0  0  0  0  0  0  0  0  0  0  0
  1  2  2  0  0  0  0
  2  3  1  0  0  0  0
  2 15  1  0  0  0  0
  3  4  1  0  0  0  0
  3 24  1  0  0  0  0
  3 25  1  0  0  0  0
  4 13  1  0  0  0  0
  4  5  1  0  0  0  0
  5  6  2  0  0  0  0
  5 26  1  0  0  0  0
  6  7  1  0  0  0  0
  6 27  1  0  0  0  0
  7  8  2  0  0  0  0
  7 28  1  0  0  0  0
  8  9  1  0  0  0  0
  8 13  1  0  0  0  0
  9 10  1  0  0  0  0
  9 11  1  0  0  0  0
  9 12  1  0  0  0  0
 13 14  2  0  0  0  0
 15 16  1  0  0  0  0
 15 29  1  0  0  0  0
 16 23  1  0  0  0  0
 16 17  1  0  0  0  0
 16 30  1  0  0  0  0
 17 18  1  0  0  0  0
 17 31  1  0  0  0  0
 17 32  1  0  0  0  0
 18 19  1  0  0  0  0
 18 33  1  0  0  0  0
 18 34  1  0  0  0  0
 19 20  1  0  0  0  0
 19 23  1  0  0  0  0
 19 42  1  0  0  0  0
 20 22  1  0  0  0  0
 20 21  1  0  0  0  0
 20 35  1  0  0  0  0
 21 22  1  0  0  0  0
 21 36  1  0  0  0  0
 21 37  1  0  0  0  0
 22 38  1  0  0  0  0
 22 39  1  0  0  0  0
 23 40  1  0  0  0  0
 23 41  1  0  0  0  0
M  CHG  1  19   1
M  END
> <s_m_source_file>
AV-unprocessed.smi

> <i_m_source_file_index>
1782

> <i_lp_mmshare_version>
43012

> <i_f3d_flags>
0

> <s_epik_input>
W0NIMl0xW0NIMl1bQ0hdMU4oW0NIMl0yKVtDSDJdW0NIMl1bQ0BIXTJbTkhdQyg9TylbQ0gyXW4zW2NIXVtjSF1bY0hdYyhDKEYpKEYpRiljMz1P

> <s_epik_cmdline>
J2VwaWtfcHl0aG9uJywgJy1waCcsICc3LjAnLCAnLXRuJywgJzgnLCAnLW1hJywgJzIwMCcsICctbWV0YWxfYmluZGluZycsICctaW1hZScsICc8aW5maWxlLm1hZT4nLCAnLW9tYWUnLCAnPG91dGZpbGUubWFlPic=

> <r_lp_tautomer_probability>
1

> <r_epik_Ionization_Penalty>
0.00106789

> <r_epik_Ionization_Penalty_Charging>
0.00106781

> <r_epik_Ionization_Penalty_Neutral>
8.2288e-08

> <r_epik_State_Penalty>
0.000699156

> <r_epik_Charging_Adjusted_Penalty>
0.00176697

> <i_epik_Tot_Q>
1

> <i_epik_Tot_abs_Q>
1

> <r_epik_Metal_State_Penalty>
-0

> <b_epik_Metal_Only>
0

> <s_lp_Force_Field>
OPLS_2005

> <r_lp_Energy>
46.9995

> <b_lp_Chiralities_Consistent>
1

> <s_lp_Variant>
AV-unprocessed.smi:1782-2

> <Gold.Version>
5.8.1

> <Gold.Id.Protein>
6NUR|6NUR_protein|mol2

> <Gold.PLP.Fitness>
48.5424

> <Gold.PLP.PLP>
-47.4280

> <Gold.PLP.part.hbond>
-2.0000

> <Gold.PLP.part.metal>
0.0000

> <Gold.PLP.part.buried>
-6.4855

> <Gold.PLP.part.nonpolar>
-38.3199

> <Gold.PLP.part.repulsive>
0.0537

> <Gold.PLP.ligand.clash>
0.2665

> <Gold.PLP.ligand.torsion>
1.6120

> <Gold.PLP.Chemscore.Hbond>
1.0000

> <Gold.PLP.Chemscore.CHOScore>
0.0000

> <Gold.PLP.Chemscore.Metal>
0.0000

> <Gold.Chemscore.Hbonds>
donor molecule, donor type, donor heavy atom, donor atom, acceptor molecule, acceptor atom, score
      P1  H  7997  8010       L1     1  0.71

> <Gold.PLP.Chemscore.Internal.Correction>
1.6049

> <Gold.Rescore>
     Score         DG    S(hbond)    S(metal)    S(lipo)     H(rot)  DE(clash)    DE(int)     intcor
     13.65     -17.87       0.93        0.00     118.88       1.81       0.99       3.23       ----

> <Gold.Chemscore.Fitness>
13.6455

> <Gold.Chemscore.DG>
-17.8722

> <Gold.Chemscore.ZeroCoef>
-5.4800

> <Gold.Chemscore.Hbond>
0.9331

> <Gold.Chemscore.Metal>
0.0000

> <Gold.Chemscore.Lipo>
118.8849

> <Gold.Chemscore.Internal_Hbond>
0.0000

> <Gold.Chemscore.DEClash>
0.9929

> <Gold.Chemscore.DEInternal>
3.2338

> <Gold.Chemscore.Rot>
1.8101

> <Gold.Chemscore.Internal.Correction>
   9.000000E+99

> <Gold.Chemscore.Hbonds>
donor molecule, donor type, donor heavy atom, donor atom, acceptor molecule, acceptor atom, score
      P1  H  7997  8010       L1     1  0.39

> <Gold.Chemscore.Hbond.Weighted>
-3.1164

> <Gold.Chemscore.Metal.Weighted>
-0.0000

> <Gold.Chemscore.Lipo.Weighted>
-13.9095

> <Gold.Chemscore.Internal_Hbond.Weighted>
0.0000

> <Gold.Chemscore.DEClash.Weighted>
0.9929

> <Gold.Chemscore.DEInternal.Weighted>
3.2338

> <Gold.Chemscore.Rot.Weighted>
4.6338

> <Gold.Chemscore.Internal.Correction.Weighted>
   9.000000E+99

> <Gold.Protein.RotatedTorsions>
[ 6907 6896 6895 6894 ] final   29.01 input  -60.11 | X-H torsion
[ 7974 7965 7964 7962 ] final  138.56 input  175.53 | X-H torsion
[ 8008 7997 7996 7995 ] final   26.39 input   59.86 | X-H torsion
[ 10167 10162 10161 10158 ] final   81.10 input  -65.29 | X-H torsion
[ 10718 10713 10712 10709 ] final  131.68 input   66.30 | X-H torsion
[ 10763 10752 10751 10750 ] final  110.66 input  -60.55 | X-H torsion
[ 11005 11000 10999 10996 ] final  -41.20 input  -57.11 | X-H torsion

> <Gold.Protein.ActiveResidues>
 VAL166  LYS551  ARG553  GLY616  TRP617  ASP618  TYR619  PRO620  LYS621  CYS622 
 ASP623  PHE694  ASN695  SER759  ASP760  ASP761  ALA762  ILE779  LEU786  VAL792 
 PHE793  MET794  SER795  GLU796  ALA797  LYS798  CYS799  TRP800  GLU811  SER814 

> <Gold.Protein.RotatedAtoms>
  152.0253  134.9799  160.0571 H   0  0  0  0  0  0  0  0  0  0  0  0  # atno 6907 bound_to 6896
  152.1297  133.4396  159.4723 H   0  0  0  0  0  0  0  0  0  0  0  0  # atno 6908 bound_to 6896
  150.6855  134.2353  159.4494 H   0  0  0  0  0  0  0  0  0  0  0  0  # atno 6909 bound_to 6896
  144.9361  139.4988  143.5594 H   0  0  0  0  0  0  0  0  0  0  0  0  # atno 7974 bound_to 7965
  155.0266  140.3154  155.4774 H   0  0  0  0  0  0  0  0  0  0  0  0  # atno 8008 bound_to 7997
  156.2882  140.2188  156.5328 H   0  0  0  0  0  0  0  0  0  0  0  0  # atno 8009 bound_to 7997
  154.7406  140.0474  157.0796 H   0  0  0  0  0  0  0  0  0  0  0  0  # atno 8010 bound_to 7997
  139.9428  144.6078  150.8235 H   0  0  0  0  0  0  0  0  0  0  0  0  # atno 10167 bound_to 10162
  157.4944  131.1092  150.9513 H   0  0  0  0  0  0  0  0  0  0  0  0  # atno 10718 bound_to 10713
  153.4521  135.3741  155.2290 H   0  0  0  0  0  0  0  0  0  0  0  0  # atno 10763 bound_to 10752
  154.8756  135.3888  154.4025 H   0  0  0  0  0  0  0  0  0  0  0  0  # atno 10764 bound_to 10752
  153.4586  135.7086  153.6128 H   0  0  0  0  0  0  0  0  0  0  0  0  # atno 10765 bound_to 10752
  141.0229  133.6854  156.2425 H   0  0  0  0  0  0  0  0  0  0  0  0  # atno 11005 bound_to 11000
  146.3267  139.8346  142.8902 LP  0  0  0  0  0  0  0  0  0  0  0  0  # atno 17320 bound_to 7965
  145.3065  141.0208  143.3579 LP  0  0  0  0  0  0  0  0  0  0  0  0  # atno 17321 bound_to 7965
  140.7606  143.3155  151.2744 LP  0  0  0  0  0  0  0  0  0  0  0  0  # atno 17342 bound_to 10162
  139.6691  144.0053  152.2741 LP  0  0  0  0  0  0  0  0  0  0  0  0  # atno 17343 bound_to 10162
  157.0204  130.5671  149.5331 LP  0  0  0  0  0  0  0  0  0  0  0  0  # atno 17370 bound_to 10713
  156.0192  130.5287  150.8225 LP  0  0  0  0  0  0  0  0  0  0  0  0  # atno 17371 bound_to 10713
  140.6541  134.5036  157.5579 LP  0  0  0  0  0  0  0  0  0  0  0  0  # atno 17394 bound_to 11000
  139.9157  134.8250  156.1373 LP  0  0  0  0  0  0  0  0  0  0  0  0  # atno 17395 bound_to 11000

$$$$
