AV-unprocessed.smi:926|AV-procd|sdf|4183|dock1
  -GOLD-   22720 2 83D 1   1.00000     0.00000
 Structure written by MMmdl.
 37 39  0  0  0  0  0  0  0  0  1 V2000
  152.6949  139.7996  154.9291 O   0  0  0  0  0  0  0  0  0  0  0  0
  151.7160  139.2689  155.4536 C   0  0  0  0  0  0  0  0  0  0  0  0
  150.8557  138.2937  154.6508 C   0  0  0  0  0  0  0  0  0  0  0  0
  151.0298  136.9367  155.1334 N   0  0  0  0  0  0  0  0  0  0  0  0
  150.3824  135.8086  154.8333 C   0  0  0  0  0  0  0  0  0  0  0  0
  150.8556  134.7773  155.5163 N   0  0  0  0  0  0  0  0  0  0  0  0
  151.8638  135.3415  156.2801 N   0  0  0  0  0  0  0  0  0  0  0  0
  151.9720  136.6226  156.0570 N   0  0  0  0  0  0  0  0  0  0  0  0
  151.3340  139.5045  156.7187 N   0  0  0  0  0  0  0  0  0  0  0  0
  151.9908  140.4362  157.6267 C   0  0  0  0  0  0  0  0  0  0  0  0
  151.2974  141.8097  157.6152 C   0  0  0  0  0  0  0  0  0  0  0  0
  151.2375  142.4760  159.0037 C   0  0  2  0  0  0  0  0  0  0  0  0
  150.2925  143.6950  159.0733 C   0  0  0  0  0  0  0  0  0  0  0  0
  151.1767  144.7820  159.7125 C   0  0  2  0  0  0  0  0  0  0  0  0
  152.2068  145.2700  158.6769 C   0  0  0  0  0  0  0  0  0  0  0  0
  153.1862  144.0853  158.5904 C   0  0  0  0  0  0  0  0  0  0  0  0
  152.5633  143.0562  159.5562 C   0  0  1  0  0  0  0  0  0  0  0  0
  152.0464  143.9686  160.6641 C   0  0  0  0  0  0  0  0  0  0  0  0
  149.8024  138.5633  154.7385 H   0  0  0  0  0  0  0  0  0  0  0  0
  151.1163  138.3435  153.5922 H   0  0  0  0  0  0  0  0  0  0  0  0
  149.5691  135.7447  154.1254 H   0  0  0  0  0  0  0  0  0  0  0  0
  150.5178  139.0230  157.0680 H   0  0  0  0  0  0  0  0  0  0  0  0
  151.9638  140.0132  158.6312 H   0  0  0  0  0  0  0  0  0  0  0  0
  153.0438  140.5295  157.3568 H   0  0  0  0  0  0  0  0  0  0  0  0
  151.7877  142.4716  156.9018 H   0  0  0  0  0  0  0  0  0  0  0  0
  150.2793  141.6876  157.2438 H   0  0  0  0  0  0  0  0  0  0  0  0
  150.8792  141.7286  159.7137 H   0  0  0  0  0  0  0  0  0  0  0  0
  149.9174  144.0007  158.0956 H   0  0  0  0  0  0  0  0  0  0  0  0
  149.4294  143.4736  159.7025 H   0  0  0  0  0  0  0  0  0  0  0  0
  150.6097  145.5886  160.1784 H   0  0  0  0  0  0  0  0  0  0  0  0
  151.7484  145.5016  157.7150 H   0  0  0  0  0  0  0  0  0  0  0  0
  152.7200  146.1661  159.0281 H   0  0  0  0  0  0  0  0  0  0  0  0
  153.3113  143.7101  157.5754 H   0  0  0  0  0  0  0  0  0  0  0  0
  154.1729  144.3871  158.9438 H   0  0  0  0  0  0  0  0  0  0  0  0
  153.2669  142.2946  159.8937 H   0  0  0  0  0  0  0  0  0  0  0  0
  152.8304  144.5569  161.1444 H   0  0  0  0  0  0  0  0  0  0  0  0
  151.4747  143.4422  161.4306 H   0  0  0  0  0  0  0  0  0  0  0  0
  1  2  2  0  0  0  0
  2  3  1  0  0  0  0
  2  9  1  0  0  0  0
  3  4  1  0  0  0  0
  3 19  1  0  0  0  0
  3 20  1  0  0  0  0
  4  8  1  0  0  0  0
  4  5  1  0  0  0  0
  5  6  2  0  0  0  0
  5 21  1  0  0  0  0
  6  7  1  0  0  0  0
  7  8  2  0  0  0  0
  9 10  1  0  0  0  0
  9 22  1  0  0  0  0
 10 11  1  0  0  0  0
 10 23  1  0  0  0  0
 10 24  1  0  0  0  0
 11 12  1  0  0  0  0
 11 25  1  0  0  0  0
 11 26  1  0  0  0  0
 12 17  1  0  0  0  0
 12 13  1  0  0  0  0
 12 27  1  0  0  0  0
 13 14  1  0  0  0  0
 13 28  1  0  0  0  0
 13 29  1  0  0  0  0
 14 18  1  0  0  0  0
 14 15  1  0  0  0  0
 14 30  1  0  0  0  0
 15 16  1  0  0  0  0
 15 31  1  0  0  0  0
 15 32  1  0  0  0  0
 16 17  1  0  0  0  0
 16 33  1  0  0  0  0
 16 34  1  0  0  0  0
 17 18  1  0  0  0  0
 17 35  1  0  0  0  0
 18 36  1  0  0  0  0
 18 37  1  0  0  0  0
M  END
> <s_m_source_file>
AV-unprocessed.smi

> <i_m_source_file_index>
926

> <i_lp_mmshare_version>
43012

> <i_f3d_flags>
0

> <s_epik_input>
bjFubltjSF1uMVtDSDJdQyg9TylbTkhdW0NIMl1bQ0gyXVtDQEhdKFtDSDJdW0NASF0yMylbQ0BIXShbQ0gyXTMpW0NIMl1bQ0gyXTI=

> <s_epik_cmdline>
J2VwaWtfcHl0aG9uJywgJy1waCcsICc3LjAnLCAnLXRuJywgJzgnLCAnLW1hJywgJzIwMCcsICctbWV0YWxfYmluZGluZycsICctaW1hZScsICc8aW5maWxlLm1hZT4nLCAnLW9tYWUnLCAnPG91dGZpbGUubWFlPic=

> <r_lp_tautomer_probability>
1

> <r_epik_Ionization_Penalty>
4.22645e-07

> <r_epik_Ionization_Penalty_Charging>
0

> <r_epik_Ionization_Penalty_Neutral>
4.22645e-07

> <r_epik_State_Penalty>
-0

> <r_epik_Charging_Adjusted_Penalty>
0

> <i_epik_Tot_Q>
0

> <i_epik_Tot_abs_Q>
0

> <r_epik_Metal_State_Penalty>
-0

> <b_epik_Metal_Only>
0

> <s_lp_Force_Field>
OPLS_2005

> <r_lp_Energy>
51.1932

> <b_lp_Chiralities_Consistent>
1

> <s_lp_Variant>
AV-unprocessed.smi:926-1

> <Gold.Version>
5.8.1

> <Gold.Id.Protein>
6NUR|6NUR_protein|mol2

> <Gold.PLP.Fitness>
45.8969

> <Gold.PLP.PLP>
-39.9181

> <Gold.PLP.part.hbond>
-4.3295

> <Gold.PLP.part.metal>
0.0000

> <Gold.PLP.part.buried>
-6.0107

> <Gold.PLP.part.nonpolar>
-30.7809

> <Gold.PLP.part.repulsive>
0.1682

> <Gold.PLP.ligand.clash>
0.0000

> <Gold.PLP.ligand.torsion>
0.6853

> <Gold.PLP.Chemscore.Hbond>
1.4447

> <Gold.PLP.Chemscore.CHOScore>
1.0000

> <Gold.PLP.Chemscore.Metal>
0.0000

> <Gold.Chemscore.Hbonds>
donor molecule, donor type, donor heavy atom, donor atom, acceptor molecule, acceptor atom, score
      P1  H  7989  7998       L1     1  0.46
      P1  H  7997  8009       L1     1  0.96
      L1  C     5    21       P1  7948  1.00

> <Gold.PLP.Chemscore.Internal.Correction>
0.0151

> <Gold.Rescore>
     Score         DG    S(hbond)    S(metal)    S(lipo)     H(rot)  DE(clash)    DE(int)     intcor
     13.70     -14.08       1.00        0.00     100.68       2.54       0.00       0.38       ----

> <Gold.Chemscore.Fitness>
13.6972

> <Gold.Chemscore.DG>
-14.0793

> <Gold.Chemscore.ZeroCoef>
-5.4800

> <Gold.Chemscore.Hbond>
0.9973

> <Gold.Chemscore.Metal>
0.0000

> <Gold.Chemscore.Lipo>
100.6849

> <Gold.Chemscore.Internal_Hbond>
0.0000

> <Gold.Chemscore.DEClash>
0.0038

> <Gold.Chemscore.DEInternal>
0.3783

> <Gold.Chemscore.Rot>
2.5436

> <Gold.Chemscore.Internal.Correction>
   9.000000E+99

> <Gold.Chemscore.Hbonds>
donor molecule, donor type, donor heavy atom, donor atom, acceptor molecule, acceptor atom, score
      P1  H  7989  7998       L1     1  0.08
      P1  H  7997  8009       L1     1  0.90

> <Gold.Chemscore.Hbond.Weighted>
-3.3309

> <Gold.Chemscore.Metal.Weighted>
-0.0000

> <Gold.Chemscore.Lipo.Weighted>
-11.7801

> <Gold.Chemscore.Internal_Hbond.Weighted>
0.0000

> <Gold.Chemscore.DEClash.Weighted>
0.0038

> <Gold.Chemscore.DEInternal.Weighted>
0.3783

> <Gold.Chemscore.Rot.Weighted>
6.5117

> <Gold.Chemscore.Internal.Correction.Weighted>
   9.000000E+99

> <Gold.Protein.RotatedTorsions>
[ 6907 6896 6895 6894 ] final -122.28 input  -60.11 | X-H torsion
[ 7974 7965 7964 7962 ] final  -96.46 input  175.53 | X-H torsion
[ 8008 7997 7996 7995 ] final -143.27 input   59.86 | X-H torsion
[ 10167 10162 10161 10158 ] final -104.44 input  -65.29 | X-H torsion
[ 10718 10713 10712 10709 ] final   27.12 input   66.30 | X-H torsion
[ 10763 10752 10751 10750 ] final -161.19 input  -60.55 | X-H torsion
[ 11005 11000 10999 10996 ] final  140.70 input  -57.11 | X-H torsion

> <Gold.Protein.ActiveResidues>
 VAL166  LYS551  ARG553  GLY616  TRP617  ASP618  TYR619  PRO620  LYS621  CYS622 
 ASP623  PHE694  ASN695  SER759  ASP760  ASP761  ALA762  ILE779  LEU786  VAL792 
 PHE793  MET794  SER795  GLU796  ALA797  LYS798  CYS799  TRP800  GLU811  SER814 

> <Gold.Protein.RotatedAtoms>
  150.8561  133.7713  159.3008 H   0  0  0  0  0  0  0  0  0  0  0  0  # atno 6907 bound_to 6896
  151.5370  135.1067  159.9926 H   0  0  0  0  0  0  0  0  0  0  0  0  # atno 6908 bound_to 6896
  152.4591  133.7740  159.6870 H   0  0  0  0  0  0  0  0  0  0  0  0  # atno 6909 bound_to 6896
  145.3466  140.9469  143.2578 H   0  0  0  0  0  0  0  0  0  0  0  0  # atno 7974 bound_to 7965
  155.5078  140.0581  157.2928 H   0  0  0  0  0  0  0  0  0  0  0  0  # atno 8008 bound_to 7997
  154.4563  140.1974  156.0320 H   0  0  0  0  0  0  0  0  0  0  0  0  # atno 8009 bound_to 7997
  156.0805  140.3247  155.7691 H   0  0  0  0  0  0  0  0  0  0  0  0  # atno 8010 bound_to 7997
  140.2092  143.3759  152.1065 H   0  0  0  0  0  0  0  0  0  0  0  0  # atno 10167 bound_to 10162
  157.2159  130.6956  149.6249 H   0  0  0  0  0  0  0  0  0  0  0  0  # atno 10718 bound_to 10713
  154.7325  135.3050  154.8867 H   0  0  0  0  0  0  0  0  0  0  0  0  # atno 10763 bound_to 10752
  153.9705  135.6742  153.4751 H   0  0  0  0  0  0  0  0  0  0  0  0  # atno 10764 bound_to 10752
  153.0932  135.4949  154.8650 H   0  0  0  0  0  0  0  0  0  0  0  0  # atno 10765 bound_to 10752
  140.0347  134.9335  157.0729 H   0  0  0  0  0  0  0  0  0  0  0  0  # atno 11005 bound_to 11000
  144.8750  139.4985  143.6750 LP  0  0  0  0  0  0  0  0  0  0  0  0  # atno 17320 bound_to 7965
  146.2985  139.7353  142.9108 LP  0  0  0  0  0  0  0  0  0  0  0  0  # atno 17321 bound_to 7965
  139.5186  144.7008  151.5497 LP  0  0  0  0  0  0  0  0  0  0  0  0  # atno 17342 bound_to 10162
  140.6335  143.9029  150.6627 LP  0  0  0  0  0  0  0  0  0  0  0  0  # atno 17343 bound_to 10162
  155.9686  130.4536  150.5817 LP  0  0  0  0  0  0  0  0  0  0  0  0  # atno 17370 bound_to 10713
  157.3625  131.0752  151.1625 LP  0  0  0  0  0  0  0  0  0  0  0  0  # atno 17371 bound_to 10713
  140.4168  134.1923  155.7163 LP  0  0  0  0  0  0  0  0  0  0  0  0  # atno 17394 bound_to 11000
  141.1850  133.8331  157.1118 LP  0  0  0  0  0  0  0  0  0  0  0  0  # atno 17395 bound_to 11000

$$$$
