AV-unprocessed.smi:648|AV-procd|sdf|3173|dock1
  -GOLD-   22720 0 93D 1   1.00000     0.00000
 Structure written by MMmdl.
 46 47  0  0  0  0  0  0  0  0  2 V2000
  142.1989  136.2522  153.8211 C   0  0  0  0  0  0  0  0  0  0  0  0
  143.5880  135.8756  153.2872 C   0  0  1  0  0  0  0  0  0  0  0  0
  143.4853  134.9169  152.0865 C   0  0  0  0  0  0  0  0  0  0  0  0
  144.8587  134.4922  151.5143 C   0  0  0  0  0  0  0  0  0  0  0  0
  145.5489  133.4721  152.4493 C   0  0  0  0  0  0  0  0  0  0  0  0
  144.6266  133.7758  150.1677 C   0  0  0  0  0  0  0  0  0  0  0  0
  145.7386  135.7505  151.2498 C   0  0  0  0  0  0  0  0  0  0  0  0
  145.8288  136.7960  152.4007 C   0  0  2  0  0  0  0  0  0  0  0  0
  146.5459  138.0784  151.8919 C   0  0  0  0  0  0  0  0  0  0  0  0
  146.2999  138.3446  150.5256 O   0  0  0  0  0  0  0  0  0  0  0  0
  146.6374  136.1985  153.4973 N   0  3  0  0  0  0  0  0  0  0  0  0
  146.8240  136.9729  154.7471 C   0  0  0  0  0  0  0  0  0  0  0  0
  148.1174  137.8015  154.6872 C   0  0  0  0  0  0  0  0  0  0  0  0
  149.2528  137.0818  155.2375 N   0  0  0  0  0  0  0  0  0  0  0  0
  150.4447  136.8017  154.7071 C   0  0  0  0  0  0  0  0  0  0  0  0
  151.2368  136.1053  155.5096 N   0  0  0  0  0  0  0  0  0  0  0  0
  150.4219  135.9989  156.6011 C   0  0  0  0  0  0  0  0  0  0  0  0
  149.2220  136.5690  156.4902 N   0  0  0  0  0  0  0  0  0  0  0  0
  144.3942  137.1274  152.8934 C   0  0  0  0  0  0  0  0  0  0  0  0
  141.6092  136.7732  153.0662 H   0  0  0  0  0  0  0  0  0  0  0  0
  142.2766  136.9040  154.6920 H   0  0  0  0  0  0  0  0  0  0  0  0
  141.6419  135.3653  154.1248 H   0  0  0  0  0  0  0  0  0  0  0  0
  144.1041  135.3663  154.0997 H   0  0  0  0  0  0  0  0  0  0  0  0
  142.9129  134.0316  152.3679 H   0  0  0  0  0  0  0  0  0  0  0  0
  142.9050  135.4079  151.3034 H   0  0  0  0  0  0  0  0  0  0  0  0
  146.5440  133.2134  152.0865 H   0  0  0  0  0  0  0  0  0  0  0  0
  144.9761  132.5457  152.5071 H   0  0  0  0  0  0  0  0  0  0  0  0
  145.6539  133.8271  153.4714 H   0  0  0  0  0  0  0  0  0  0  0  0
  145.5681  133.4547  149.7206 H   0  0  0  0  0  0  0  0  0  0  0  0
  144.1276  134.4239  149.4460 H   0  0  0  0  0  0  0  0  0  0  0  0
  144.0028  132.8894  150.2896 H   0  0  0  0  0  0  0  0  0  0  0  0
  146.7413  135.4437  150.9478 H   0  0  0  0  0  0  0  0  0  0  0  0
  145.3213  136.2475  150.3734 H   0  0  0  0  0  0  0  0  0  0  0  0
  146.2221  138.9575  152.4494 H   0  0  0  0  0  0  0  0  0  0  0  0
  147.6242  137.9935  152.0326 H   0  0  0  0  0  0  0  0  0  0  0  0
  145.4247  138.6907  150.4367 H   0  0  0  0  0  0  0  0  0  0  0  0
  146.1845  135.3304  153.7444 H   0  0  0  0  0  0  0  0  0  0  0  0
  145.9695  137.6357  154.8840 H   0  0  0  0  0  0  0  0  0  0  0  0
  146.8574  136.3246  155.6208 H   0  0  0  0  0  0  0  0  0  0  0  0
  148.3440  138.0847  153.6585 H   0  0  0  0  0  0  0  0  0  0  0  0
  147.9959  138.7278  155.2500 H   0  0  0  0  0  0  0  0  0  0  0  0
  150.7352  137.1015  153.7106 H   0  0  0  0  0  0  0  0  0  0  0  0
  150.7199  135.4830  157.5021 H   0  0  0  0  0  0  0  0  0  0  0  0
  143.8499  137.6417  152.1003 H   0  0  0  0  0  0  0  0  0  0  0  0
  144.4132  137.8332  153.7224 H   0  0  0  0  0  0  0  0  0  0  0  0
  147.5529  135.9790  153.1316 H   0  0  0  0  0  0  0  0  0  0  0  0
  1  2  1  0  0  0  0
  1 20  1  0  0  0  0
  1 21  1  0  0  0  0
  1 22  1  0  0  0  0
  2 19  1  0  0  0  0
  2  3  1  0  0  0  0
  2 23  1  0  0  0  0
  3  4  1  0  0  0  0
  3 24  1  0  0  0  0
  3 25  1  0  0  0  0
  4  5  1  0  0  0  0
  4  6  1  0  0  0  0
  4  7  1  0  0  0  0
  5 26  1  0  0  0  0
  5 27  1  0  0  0  0
  5 28  1  0  0  0  0
  6 29  1  0  0  0  0
  6 30  1  0  0  0  0
  6 31  1  0  0  0  0
  7  8  1  0  0  0  0
  7 32  1  0  0  0  0
  7 33  1  0  0  0  0
  8  9  1  0  0  0  0
  8 11  1  0  0  0  0
  8 19  1  0  0  0  0
  9 10  1  0  0  0  0
  9 34  1  0  0  0  0
  9 35  1  0  0  0  0
 10 36  1  0  0  0  0
 11 12  1  0  0  0  0
 11 37  1  0  0  0  0
 11 46  1  0  0  0  0
 12 13  1  0  0  0  0
 12 38  1  0  0  0  0
 12 39  1  0  0  0  0
 13 14  1  0  0  0  0
 13 40  1  0  0  0  0
 13 41  1  0  0  0  0
 14 18  1  0  0  0  0
 14 15  1  0  0  0  0
 15 16  2  0  0  0  0
 15 42  1  0  0  0  0
 16 17  1  0  0  0  0
 17 18  2  0  0  0  0
 17 43  1  0  0  0  0
 19 44  1  0  0  0  0
 19 45  1  0  0  0  0
M  CHG  1  11   1
M  END
> <s_m_source_file>
AV-unprocessed.smi

> <i_m_source_file_index>
648

> <i_lp_mmshare_version>
43012

> <i_f3d_flags>
0

> <s_epik_input>
W0NIM11DMShbQ0gzXSlbQ0gyXVtDQEBIXShbQ0gzXSlbQ0gyXVtDQF0oW0NIMl0xKShbQ0gyXVtPSF0pW05IXVtDSDJdW0NIMl1uMltjSF1uW2NIXW4y

> <s_epik_cmdline>
J2VwaWtfcHl0aG9uJywgJy1waCcsICc3LjAnLCAnLXRuJywgJzgnLCAnLW1hJywgJzIwMCcsICctbWV0YWxfYmluZGluZycsICctaW1hZScsICc8aW5maWxlLm1hZT4nLCAnLW9tYWUnLCAnPG91dGZpbGUubWFlPic=

> <r_lp_tautomer_probability>
1

> <r_epik_Ionization_Penalty>
0.00942316

> <r_epik_Ionization_Penalty_Charging>
0.00942185

> <r_epik_Ionization_Penalty_Neutral>
1.31257e-06

> <r_epik_State_Penalty>
0.00715409

> <r_epik_Charging_Adjusted_Penalty>
0.0165759

> <i_epik_Tot_Q>
1

> <i_epik_Tot_abs_Q>
1

> <r_epik_Metal_State_Penalty>
0.00715563

> <b_epik_Metal_Only>
0

> <s_lp_Force_Field>
OPLS_2005

> <r_lp_Energy>
29.0097

> <b_lp_Chiralities_Consistent>
1

> <s_lp_Variant>
AV-unprocessed.smi:648-4

> <Gold.Version>
5.8.1

> <Gold.Id.Protein>
6NUR|6NUR_protein|mol2

> <Gold.PLP.Fitness>
41.6919

> <Gold.PLP.PLP>
-26.4834

> <Gold.PLP.part.hbond>
-4.0000

> <Gold.PLP.part.metal>
0.0000

> <Gold.PLP.part.buried>
-2.0885

> <Gold.PLP.part.nonpolar>
-21.3853

> <Gold.PLP.part.repulsive>
0.1057

> <Gold.PLP.ligand.clash>
0.0000

> <Gold.PLP.ligand.torsion>
0.9696

> <Gold.PLP.Chemscore.Hbond>
4.7072

> <Gold.PLP.Chemscore.CHOScore>
0.9831

> <Gold.PLP.Chemscore.Metal>
0.0000

> <Gold.Chemscore.Hbonds>
donor molecule, donor type, donor heavy atom, donor atom, acceptor molecule, acceptor atom, score
      L1  H    10    36       P1 10171  1.00
      L1  H    11    46       P1  7948  2.00
      P1  H  7954  7966       L1    10  0.67
      P1  H 10752 10765       L1    16  1.00
      L1  C    15    42       P1  7948  0.21
      L1  C    15    42       P1  7949  0.78

> <Gold.PLP.Chemscore.Internal.Correction>
0.0766

> <Gold.Rescore>
     Score         DG    S(hbond)    S(metal)    S(lipo)     H(rot)  DE(clash)    DE(int)     intcor
     12.65     -13.91       3.04        0.00      54.67       3.17       0.28       0.98       ----

> <Gold.Chemscore.Fitness>
12.6451

> <Gold.Chemscore.DG>
-13.9069

> <Gold.Chemscore.ZeroCoef>
-5.4800

> <Gold.Chemscore.Hbond>
3.0416

> <Gold.Chemscore.Metal>
0.0000

> <Gold.Chemscore.Lipo>
54.6665

> <Gold.Chemscore.Internal_Hbond>
0.0000

> <Gold.Chemscore.DEClash>
0.2841

> <Gold.Chemscore.DEInternal>
0.9777

> <Gold.Chemscore.Rot>
3.1750

> <Gold.Chemscore.Internal.Correction>
   9.000000E+99

> <Gold.Chemscore.Hbonds>
donor molecule, donor type, donor heavy atom, donor atom, acceptor molecule, acceptor atom, score
      L1  H    10    36       P1 10171  0.95
      L1  H    11    46       P1  7948  0.96
      P1  H  7954  7966       L1    10  0.09
      P1  H 10752 10765       L1    16  0.70

> <Gold.Chemscore.Hbond.Weighted>
-10.1589

> <Gold.Chemscore.Metal.Weighted>
-0.0000

> <Gold.Chemscore.Lipo.Weighted>
-6.3960

> <Gold.Chemscore.Internal_Hbond.Weighted>
0.0000

> <Gold.Chemscore.DEClash.Weighted>
0.2841

> <Gold.Chemscore.DEInternal.Weighted>
0.9777

> <Gold.Chemscore.Rot.Weighted>
8.1279

> <Gold.Chemscore.Internal.Correction.Weighted>
   9.000000E+99

> <Gold.Protein.RotatedTorsions>
[ 6907 6896 6895 6894 ] final  -39.72 input  -60.11 | X-H torsion
[ 7974 7965 7964 7962 ] final  -13.20 input  175.53 | X-H torsion
[ 8008 7997 7996 7995 ] final  106.66 input   59.86 | X-H torsion
[ 10167 10162 10161 10158 ] final  168.74 input  -65.29 | X-H torsion
[ 10718 10713 10712 10709 ] final -100.32 input   66.30 | X-H torsion
[ 10763 10752 10751 10750 ] final  174.44 input  -60.55 | X-H torsion
[ 11005 11000 10999 10996 ] final -157.15 input  -57.11 | X-H torsion

> <Gold.Protein.ActiveResidues>
 VAL166  LYS551  ARG553  GLY616  TRP617  ASP618  TYR619  PRO620  LYS621  CYS622 
 ASP623  PHE694  ASN695  SER759  ASP760  ASP761  ALA762  ILE779  LEU786  VAL792 
 PHE793  MET794  SER795  GLU796  ALA797  LYS798  CYS799  TRP800  GLU811  SER814 

> <Gold.Protein.RotatedAtoms>
  150.9870  134.9213  159.7877 H   0  0  0  0  0  0  0  0  0  0  0  0  # atno 6907 bound_to 6896
  152.5239  134.3333  159.9200 H   0  0  0  0  0  0  0  0  0  0  0  0  # atno 6908 bound_to 6896
  151.3339  133.3948  159.2699 H   0  0  0  0  0  0  0  0  0  0  0  0  # atno 6909 bound_to 6896
  146.2123  140.3168  142.8387 H   0  0  0  0  0  0  0  0  0  0  0  0  # atno 7974 bound_to 7965
  156.1761  140.3109  155.9062 H   0  0  0  0  0  0  0  0  0  0  0  0  # atno 8008 bound_to 7997
  155.3484  140.0469  157.3063 H   0  0  0  0  0  0  0  0  0  0  0  0  # atno 8009 bound_to 7997
  154.5292  140.2225  155.8845 H   0  0  0  0  0  0  0  0  0  0  0  0  # atno 8010 bound_to 7997
  139.4975  144.3782  151.9651 H   0  0  0  0  0  0  0  0  0  0  0  0  # atno 10167 bound_to 10162
  156.0160  130.5322  150.6800 H   0  0  0  0  0  0  0  0  0  0  0  0  # atno 10718 bound_to 10713
  154.4539  135.2765  155.1761 H   0  0  0  0  0  0  0  0  0  0  0  0  # atno 10763 bound_to 10752
  154.3577  135.6136  153.5678 H   0  0  0  0  0  0  0  0  0  0  0  0  # atno 10764 bound_to 10752
  152.9849  135.5826  154.4889 H   0  0  0  0  0  0  0  0  0  0  0  0  # atno 10765 bound_to 10752
  140.6678  134.4280  157.5232 H   0  0  0  0  0  0  0  0  0  0  0  0  # atno 11005 bound_to 11000
  144.8948  140.7570  143.5903 LP  0  0  0  0  0  0  0  0  0  0  0  0  # atno 17320 bound_to 7965
  145.3092  139.1824  143.4648 LP  0  0  0  0  0  0  0  0  0  0  0  0  # atno 17321 bound_to 7965
  140.3218  144.3419  150.6008 LP  0  0  0  0  0  0  0  0  0  0  0  0  # atno 17342 bound_to 10162
  140.5716  143.2180  151.7588 LP  0  0  0  0  0  0  0  0  0  0  0  0  # atno 17343 bound_to 10162
  157.4505  131.0872  151.0851 LP  0  0  0  0  0  0  0  0  0  0  0  0  # atno 17370 bound_to 10713
  157.1368  130.6126  149.5544 LP  0  0  0  0  0  0  0  0  0  0  0  0  # atno 17371 bound_to 10713
  139.8991  134.8597  156.1972 LP  0  0  0  0  0  0  0  0  0  0  0  0  # atno 17394 bound_to 11000
  141.0416  133.6935  156.1608 LP  0  0  0  0  0  0  0  0  0  0  0  0  # atno 17395 bound_to 11000

$$$$
