AV-unprocessed.smi:2424|AV-procd|sdf|9562|dock1
  -GOLD-   2272013193D 1   1.00000     0.00000
 Structure written by MMmdl.
 50 51  0  0  0  0  0  0  0  0  1 V2000
  147.1203  140.7413  156.4618 C   0  0  0  0  0  0  0  0  0  0  0  0
  147.7694  139.3459  156.4808 C   0  0  0  0  0  0  0  0  0  0  0  0
  148.0257  138.6866  155.0935 C   0  0  0  0  0  0  0  0  0  0  0  0
  148.8063  137.3708  155.3242 C   0  0  0  0  0  0  0  0  0  0  0  0
  148.0652  136.2888  156.1236 C   0  0  0  0  0  0  0  0  0  0  0  0
  146.8150  138.6636  154.1091 C   0  0  2  0  0  0  0  0  0  0  0  0
  146.9052  137.5979  153.1060 N   0  0  0  0  0  0  0  0  0  0  0  0
  145.8720  136.8842  152.6399 C   0  0  0  0  0  0  0  0  0  0  0  0
  144.7111  137.0527  153.0112 O   0  0  0  0  0  0  0  0  0  0  0  0
  146.2882  135.9869  151.7272 N   0  0  0  0  0  0  0  0  0  0  0  0
  145.5450  135.0374  151.0109 C   0  0  0  0  0  0  0  0  0  0  0  0
  144.3164  135.2348  150.4867 C   0  0  0  0  0  0  0  0  0  0  0  0
  143.6539  134.2204  149.7903 N   0  0  0  0  0  0  0  0  0  0  0  0
  144.1575  132.9825  149.5820 C   0  0  0  0  0  0  0  0  0  0  0  0
  143.5108  132.1425  148.9591 O   0  0  0  0  0  0  0  0  0  0  0  0
  145.4954  132.7418  150.1457 C   0  0  0  0  0  0  0  0  0  0  0  0
  146.1233  131.3745  149.9438 C   0  0  0  0  0  0  0  0  0  0  0  0
  146.1342  133.7257  150.8187 C   0  0  0  0  0  0  0  0  0  0  0  0
  147.2832  140.0210  153.5504 C   0  0  2  0  0  0  0  0  0  0  0  0
  147.0525  140.3735  152.0828 C   0  0  0  0  0  0  0  0  0  0  0  0
  148.6836  139.6210  154.0413 C   0  0  1  0  0  0  0  0  0  0  0  0
  149.4630  140.6626  154.6114 O   0  0  0  0  0  0  0  0  0  0  0  0
  150.5895  140.1902  155.3283 C   0  0  0  0  0  0  0  0  0  0  0  0
  142.7393  134.4399  149.4233 H   0  0  0  0  0  0  0  0  0  0  0  0
  146.8125  141.0300  157.4669 H   0  0  0  0  0  0  0  0  0  0  0  0
  146.2402  140.7878  155.8233 H   0  0  0  0  0  0  0  0  0  0  0  0
  147.8216  141.5015  156.1183 H   0  0  0  0  0  0  0  0  0  0  0  0
  148.7000  139.4503  157.0380 H   0  0  0  0  0  0  0  0  0  0  0  0
  147.1557  138.6927  157.1019 H   0  0  0  0  0  0  0  0  0  0  0  0
  149.0866  136.9341  154.3652 H   0  0  0  0  0  0  0  0  0  0  0  0
  149.7593  137.5787  155.8119 H   0  0  0  0  0  0  0  0  0  0  0  0
  148.6155  135.3482  156.0924 H   0  0  0  0  0  0  0  0  0  0  0  0
  147.0691  136.1012  155.7227 H   0  0  0  0  0  0  0  0  0  0  0  0
  147.9674  136.5634  157.1731 H   0  0  0  0  0  0  0  0  0  0  0  0
  145.8381  138.7269  154.5862 H   0  0  0  0  0  0  0  0  0  0  0  0
  147.8251  137.3920  152.7460 H   0  0  0  0  0  0  0  0  0  0  0  0
  147.2757  135.9913  151.5187 H   0  0  0  0  0  0  0  0  0  0  0  0
  143.7372  136.1425  150.5456 H   0  0  0  0  0  0  0  0  0  0  0  0
  147.1048  131.3139  150.4149 H   0  0  0  0  0  0  0  0  0  0  0  0
  146.2463  131.1665  148.8805 H   0  0  0  0  0  0  0  0  0  0  0  0
  145.4928  130.5970  150.3764 H   0  0  0  0  0  0  0  0  0  0  0  0
  147.1166  133.5321  151.2247 H   0  0  0  0  0  0  0  0  0  0  0  0
  146.8852  140.8100  154.1915 H   0  0  0  0  0  0  0  0  0  0  0  0
  147.6110  139.7161  151.4164 H   0  0  0  0  0  0  0  0  0  0  0  0
  147.3608  141.3960  151.8670 H   0  0  0  0  0  0  0  0  0  0  0  0
  145.9975  140.2899  151.8212 H   0  0  0  0  0  0  0  0  0  0  0  0
  149.2417  139.0599  153.2878 H   0  0  0  0  0  0  0  0  0  0  0  0
  151.1150  141.0330  155.7771 H   0  0  0  0  0  0  0  0  0  0  0  0
  151.2894  139.6723  154.6732 H   0  0  0  0  0  0  0  0  0  0  0  0
  150.2925  139.5136  156.1308 H   0  0  0  0  0  0  0  0  0  0  0  0
  1  2  1  0  0  0  0
  1 25  1  0  0  0  0
  1 26  1  0  0  0  0
  1 27  1  0  0  0  0
  2  3  1  0  0  0  0
  2 28  1  0  0  0  0
  2 29  1  0  0  0  0
  3 21  1  0  0  0  0
  3  4  1  0  0  0  0
  3  6  1  0  0  0  0
  4  5  1  0  0  0  0
  4 30  1  0  0  0  0
  4 31  1  0  0  0  0
  5 32  1  0  0  0  0
  5 33  1  0  0  0  0
  5 34  1  0  0  0  0
  6  7  1  0  0  0  0
  6 19  1  0  0  0  0
  6 35  1  0  0  0  0
  7  8  1  0  0  0  0
  7 36  1  0  0  0  0
  8  9  2  0  0  0  0
  8 10  1  0  0  0  0
 10 11  1  0  0  0  0
 10 37  1  0  0  0  0
 11 18  1  0  0  0  0
 11 12  2  0  0  0  0
 12 13  1  0  0  0  0
 12 38  1  0  0  0  0
 13 24  1  0  0  0  0
 13 14  1  0  0  0  0
 14 15  2  0  0  0  0
 14 16  1  0  0  0  0
 16 17  1  0  0  0  0
 16 18  2  0  0  0  0
 17 39  1  0  0  0  0
 17 40  1  0  0  0  0
 17 41  1  0  0  0  0
 18 42  1  0  0  0  0
 19 20  1  0  0  0  0
 19 21  1  0  0  0  0
 19 43  1  0  0  0  0
 20 44  1  0  0  0  0
 20 45  1  0  0  0  0
 20 46  1  0  0  0  0
 21 22  1  0  0  0  0
 21 47  1  0  0  0  0
 22 23  1  0  0  0  0
 23 48  1  0  0  0  0
 23 49  1  0  0  0  0
 23 50  1  0  0  0  0
M  END
> <s_m_source_file>
AV-unprocessed.smi

> <i_m_source_file_index>
2424

> <i_lp_mmshare_version>
43012

> <i_f3d_flags>
0

> <s_epik_input>
W0NIM11PW0NAQEhdMVtDQEhdKFtDSDNdKVtDQEBIXShDMShbQ0gyXVtDSDNdKVtDSDJdW0NIM10pW05IXUMoPU8pW05IXWMyW2NIXVtuSF1jKD1PKWMoW0NIM10pW2NIXTI=

> <s_epik_cmdline>
J2VwaWtfcHl0aG9uJywgJy1waCcsICc3LjAnLCAnLXRuJywgJzgnLCAnLW1hJywgJzIwMCcsICctbWV0YWxfYmluZGluZycsICctaW1hZScsICc8aW5maWxlLm1hZT4nLCAnLW9tYWUnLCAnPG91dGZpbGUubWFlPic=

> <r_lp_tautomer_probability>
1

> <r_epik_Ionization_Penalty>
4.7326e-05

> <r_epik_Ionization_Penalty_Charging>
2.70169e-05

> <r_epik_Ionization_Penalty_Neutral>
2.0309e-05

> <r_epik_State_Penalty>
-0

> <r_epik_Charging_Adjusted_Penalty>
2.70169e-05

> <i_epik_Tot_Q>
0

> <i_epik_Tot_abs_Q>
0

> <r_epik_Metal_State_Penalty>
0.0198736

> <b_epik_Metal_Only>
0

> <s_lp_Force_Field>
OPLS_2005

> <r_lp_Energy>
37.9094

> <b_lp_Chiralities_Consistent>
1

> <s_lp_Variant>
AV-unprocessed.smi:2424-4

> <Gold.Version>
5.8.1

> <Gold.Id.Protein>
6NUR|6NUR_protein|mol2

> <Gold.PLP.Fitness>
44.7784

> <Gold.PLP.PLP>
-30.8652

> <Gold.PLP.part.hbond>
-4.4485

> <Gold.PLP.part.metal>
0.0000

> <Gold.PLP.part.buried>
0.5463

> <Gold.PLP.part.nonpolar>
-27.3138

> <Gold.PLP.part.repulsive>
0.7280

> <Gold.PLP.ligand.clash>
0.0000

> <Gold.PLP.ligand.torsion>
0.6726

> <Gold.PLP.Chemscore.Hbond>
3.8802

> <Gold.PLP.Chemscore.CHOScore>
1.0000

> <Gold.PLP.Chemscore.Metal>
0.0000

> <Gold.Chemscore.Hbonds>
donor molecule, donor type, donor heavy atom, donor atom, acceptor molecule, acceptor atom, score
      L1  H     7    36       P1  7948  0.99
      L1  H    10    37       P1  7948  1.00
      L1  H    13    24       P1 10186  1.00
      P1  H 10785 10796       L1    15  0.87
      L1  C    12    38       P1 10171  0.99

> <Gold.PLP.Chemscore.Internal.Correction>
0.6180

> <Gold.Rescore>
     Score         DG    S(hbond)    S(metal)    S(lipo)     H(rot)  DE(clash)    DE(int)     intcor
     20.06     -23.56       3.77        0.00      80.89       1.55       1.81       1.70       ----

> <Gold.Chemscore.Fitness>
20.0552

> <Gold.Chemscore.DG>
-23.5631

> <Gold.Chemscore.ZeroCoef>
-5.4800

> <Gold.Chemscore.Hbond>
3.7688

> <Gold.Chemscore.Metal>
0.0000

> <Gold.Chemscore.Lipo>
80.8866

> <Gold.Chemscore.Internal_Hbond>
0.0000

> <Gold.Chemscore.DEClash>
1.8070

> <Gold.Chemscore.DEInternal>
1.7008

> <Gold.Chemscore.Rot>
1.5502

> <Gold.Chemscore.Internal.Correction>
   9.000000E+99

> <Gold.Chemscore.Hbonds>
donor molecule, donor type, donor heavy atom, donor atom, acceptor molecule, acceptor atom, score
      L1  H     7    36       P1  7948  0.93
      L1  H    10    37       P1  7948  0.99
      L1  H    13    24       P1 10186  0.96
      P1  H 10785 10796       L1    15  0.80

> <Gold.Chemscore.Hbond.Weighted>
-12.5878

> <Gold.Chemscore.Metal.Weighted>
-0.0000

> <Gold.Chemscore.Lipo.Weighted>
-9.4637

> <Gold.Chemscore.Internal_Hbond.Weighted>
0.0000

> <Gold.Chemscore.DEClash.Weighted>
1.8070

> <Gold.Chemscore.DEInternal.Weighted>
1.7008

> <Gold.Chemscore.Rot.Weighted>
3.9685

> <Gold.Chemscore.Internal.Correction.Weighted>
   9.000000E+99

> <Gold.Protein.RotatedTorsions>
[ 6907 6896 6895 6894 ] final  -42.09 input  -60.11 | X-H torsion
[ 7974 7965 7964 7962 ] final  -58.74 input  175.53 | X-H torsion
[ 8008 7997 7996 7995 ] final -178.84 input   59.86 | X-H torsion
[ 10167 10162 10161 10158 ] final  -84.17 input  -65.29 | X-H torsion
[ 10718 10713 10712 10709 ] final  -31.31 input   66.30 | X-H torsion
[ 10763 10752 10751 10750 ] final   11.63 input  -60.55 | X-H torsion
[ 11005 11000 10999 10996 ] final -165.33 input  -57.11 | X-H torsion

> <Gold.Protein.ActiveResidues>
 VAL166  LYS551  ARG553  GLY616  TRP617  ASP618  TYR619  PRO620  LYS621  CYS622 
 ASP623  PHE694  ASN695  SER759  ASP760  ASP761  ALA762  ILE779  LEU786  VAL792 
 PHE793  MET794  SER795  GLU796  ALA797  LYS798  CYS799  TRP800  GLU811  SER814 

> <Gold.Protein.RotatedAtoms>
  150.9592  134.8983  159.7719 H   0  0  0  0  0  0  0  0  0  0  0  0  # atno 6907 bound_to 6896
  152.5150  134.3696  159.9323 H   0  0  0  0  0  0  0  0  0  0  0  0  # atno 6908 bound_to 6896
  151.3709  133.3815  159.2734 H   0  0  0  0  0  0  0  0  0  0  0  0  # atno 6909 bound_to 6896
  145.8357  140.8450  143.0060 H   0  0  0  0  0  0  0  0  0  0  0  0  # atno 7974 bound_to 7965
  156.0235  140.1266  157.0333 H   0  0  0  0  0  0  0  0  0  0  0  0  # atno 8008 bound_to 7997
  154.4321  140.1064  156.6068 H   0  0  0  0  0  0  0  0  0  0  0  0  # atno 8009 bound_to 7997
  155.5910  140.3469  155.4569 H   0  0  0  0  0  0  0  0  0  0  0  0  # atno 8010 bound_to 7997
  140.4157  143.2604  151.8958 H   0  0  0  0  0  0  0  0  0  0  0  0  # atno 10167 bound_to 10162
  156.3888  130.4369  149.7411 H   0  0  0  0  0  0  0  0  0  0  0  0  # atno 10718 bound_to 10713
  153.1906  135.6842  153.8357 H   0  0  0  0  0  0  0  0  0  0  0  0  # atno 10763 bound_to 10752
  153.7658  135.3203  155.3345 H   0  0  0  0  0  0  0  0  0  0  0  0  # atno 10764 bound_to 10752
  154.8115  135.4714  154.0627 H   0  0  0  0  0  0  0  0  0  0  0  0  # atno 10765 bound_to 10752
  140.5769  134.5181  157.5172 H   0  0  0  0  0  0  0  0  0  0  0  0  # atno 11005 bound_to 11000
  144.6736  140.0738  143.7472 LP  0  0  0  0  0  0  0  0  0  0  0  0  # atno 17320 bound_to 7965
  145.9521  139.2741  143.1206 LP  0  0  0  0  0  0  0  0  0  0  0  0  # atno 17321 bound_to 7965
  139.4782  144.5490  151.8414 LP  0  0  0  0  0  0  0  0  0  0  0  0  # atno 17342 bound_to 10162
  140.4589  144.1750  150.5904 LP  0  0  0  0  0  0  0  0  0  0  0  0  # atno 17343 bound_to 10162
  156.4472  130.7889  151.2911 LP  0  0  0  0  0  0  0  0  0  0  0  0  # atno 17370 bound_to 10713
  157.7497  131.0106  150.3314 LP  0  0  0  0  0  0  0  0  0  0  0  0  # atno 17371 bound_to 10713
  139.9335  134.7918  156.0865 LP  0  0  0  0  0  0  0  0  0  0  0  0  # atno 17394 bound_to 11000
  141.1021  133.6673  156.2778 LP  0  0  0  0  0  0  0  0  0  0  0  0  # atno 17395 bound_to 11000

$$$$
