AV-unprocessed.smi:1015|AV-procd|sdf|4436|dock3
  -GOLD-   22720 2393D 1   1.00000     0.00000
 Structure written by MMmdl.
 42 43  0  0  0  0  0  0  0  0  1 V2000
  151.2344  144.6845  158.1600 C   0  0  0  0  0  0  0  0  0  0  0  0
  150.6434  144.7903  159.4432 O   0  0  0  0  0  0  0  0  0  0  0  0
  151.4951  145.4224  160.3852 C   0  0  0  0  0  0  0  0  0  0  0  0
  152.1157  144.3785  161.3291 C   0  0  0  0  0  0  0  0  0  0  0  0
  152.8090  143.2662  160.6761 N   0  0  0  0  0  0  0  0  0  0  0  0
  151.8496  142.3847  160.0104 C   0  0  0  0  0  0  0  0  0  0  0  0
  152.5301  141.2447  159.2347 C   0  0  0  0  0  0  0  0  0  0  0  0
  153.4223  140.4053  160.1664 C   0  0  0  0  0  0  0  0  0  0  0  0
  154.1513  139.2872  159.3912 C   0  0  0  0  0  0  0  0  0  0  0  0
  154.7887  138.3304  160.2876 N   0  0  0  0  0  0  0  0  0  0  0  0
  154.4472  137.0383  160.4066 C   0  0  0  0  0  0  0  0  0  0  0  0
  153.6201  136.4829  159.6843 O   0  0  0  0  0  0  0  0  0  0  0  0
  155.1182  136.2628  161.5391 C   0  0  0  0  0  0  0  0  0  0  0  0
  155.8492  137.1677  162.4069 N   0  0  0  0  0  0  0  0  0  0  0  0
  155.7141  137.4357  163.7075 C   0  0  0  0  0  0  0  0  0  0  0  0
  156.5758  138.3577  164.1086 N   0  0  0  0  0  0  0  0  0  0  0  0
  157.2767  138.6579  162.9524 N   0  0  0  0  0  0  0  0  0  0  0  0
  156.8499  137.9551  161.9393 N   0  0  0  0  0  0  0  0  0  0  0  0
  154.3900  141.3444  160.9169 C   0  0  0  0  0  0  0  0  0  0  0  0
  153.6278  142.4870  161.6080 C   0  0  0  0  0  0  0  0  0  0  0  0
  150.5440  144.1865  157.4793 H   0  0  0  0  0  0  0  0  0  0  0  0
  152.1540  144.0990  158.1952 H   0  0  0  0  0  0  0  0  0  0  0  0
  151.4610  145.6691  157.7490 H   0  0  0  0  0  0  0  0  0  0  0  0
  152.2921  145.9348  159.8444 H   0  0  0  0  0  0  0  0  0  0  0  0
  150.9552  146.1793  160.9570 H   0  0  0  0  0  0  0  0  0  0  0  0
  152.7759  144.8708  162.0447 H   0  0  0  0  0  0  0  0  0  0  0  0
  151.2972  143.9646  161.9195 H   0  0  0  0  0  0  0  0  0  0  0  0
  151.1615  141.9643  160.7457 H   0  0  0  0  0  0  0  0  0  0  0  0
  151.2401  142.9635  159.3154 H   0  0  0  0  0  0  0  0  0  0  0  0
  151.7729  140.6123  158.7700 H   0  0  0  0  0  0  0  0  0  0  0  0
  153.1270  141.6631  158.4230 H   0  0  0  0  0  0  0  0  0  0  0  0
  152.7725  139.9362  160.9070 H   0  0  0  0  0  0  0  0  0  0  0  0
  153.4587  138.7684  158.7264 H   0  0  0  0  0  0  0  0  0  0  0  0
  154.9247  139.7179  158.7547 H   0  0  0  0  0  0  0  0  0  0  0  0
  155.4836  138.6967  160.9225 H   0  0  0  0  0  0  0  0  0  0  0  0
  154.3690  135.7362  162.1316 H   0  0  0  0  0  0  0  0  0  0  0  0
  155.7992  135.5133  161.1326 H   0  0  0  0  0  0  0  0  0  0  0  0
  154.9850  136.9662  164.3513 H   0  0  0  0  0  0  0  0  0  0  0  0
  154.9599  140.7919  161.6649 H   0  0  0  0  0  0  0  0  0  0  0  0
  155.1169  141.7622  160.2190 H   0  0  0  0  0  0  0  0  0  0  0  0
  154.3632  143.1301  162.0890 H   0  0  0  0  0  0  0  0  0  0  0  0
  153.0009  142.0810  162.4036 H   0  0  0  0  0  0  0  0  0  0  0  0
  1  2  1  0  0  0  0
  1 21  1  0  0  0  0
  1 22  1  0  0  0  0
  1 23  1  0  0  0  0
  2  3  1  0  0  0  0
  3  4  1  0  0  0  0
  3 24  1  0  0  0  0
  3 25  1  0  0  0  0
  4  5  1  0  0  0  0
  4 26  1  0  0  0  0
  4 27  1  0  0  0  0
  5 20  1  0  0  0  0
  5  6  1  0  0  0  0
  6  7  1  0  0  0  0
  6 28  1  0  0  0  0
  6 29  1  0  0  0  0
  7  8  1  0  0  0  0
  7 30  1  0  0  0  0
  7 31  1  0  0  0  0
  8  9  1  0  0  0  0
  8 19  1  0  0  0  0
  8 32  1  0  0  0  0
  9 10  1  0  0  0  0
  9 33  1  0  0  0  0
  9 34  1  0  0  0  0
 10 11  1  0  0  0  0
 10 35  1  0  0  0  0
 11 12  2  0  0  0  0
 11 13  1  0  0  0  0
 13 14  1  0  0  0  0
 13 36  1  0  0  0  0
 13 37  1  0  0  0  0
 14 18  1  0  0  0  0
 14 15  1  0  0  0  0
 15 16  2  0  0  0  0
 15 38  1  0  0  0  0
 16 17  1  0  0  0  0
 17 18  2  0  0  0  0
 19 20  1  0  0  0  0
 19 39  1  0  0  0  0
 19 40  1  0  0  0  0
 20 41  1  0  0  0  0
 20 42  1  0  0  0  0
M  END
> <s_m_source_file>
AV-unprocessed.smi

> <i_m_source_file_index>
1015

> <i_lp_mmshare_version>
43012

> <i_f3d_flags>
0

> <s_epik_input>
W0NIM11PW0NIMl1bQ0gyXU4xW0NIMl1bQ0gyXVtDSF0oW0NIMl1bQ0gyXTEpW0NIMl1bTkhdQyg9TylbQ0gyXW4yW2NIXW5ubjI=

> <s_epik_cmdline>
J2VwaWtfcHl0aG9uJywgJy1waCcsICc3LjAnLCAnLXRuJywgJzgnLCAnLW1hJywgJzIwMCcsICctbWV0YWxfYmluZGluZycsICctaW1hZScsICc8aW5maWxlLm1hZT4nLCAnLW9tYWUnLCAnPG91dGZpbGUubWFlPic=

> <r_lp_tautomer_probability>
1

> <r_epik_Ionization_Penalty>
2.39972

> <r_epik_Ionization_Penalty_Charging>
0

> <r_epik_Ionization_Penalty_Neutral>
2.39972

> <r_epik_State_Penalty>
2.55755

> <r_epik_Charging_Adjusted_Penalty>
2.55755

> <i_epik_Tot_Q>
0

> <i_epik_Tot_abs_Q>
0

> <r_epik_Metal_State_Penalty>
2.55755

> <b_epik_Metal_Only>
0

> <s_lp_Force_Field>
OPLS_2005

> <r_lp_Energy>
27.1713

> <b_lp_Chiralities_Consistent>
1

> <s_lp_Variant>
AV-unprocessed.smi:1015-3

> <Gold.Version>
5.8.1

> <Gold.Id.Protein>
6NUR|6NUR_protein|mol2

> <Gold.PLP.Fitness>
45.1764

> <Gold.PLP.PLP>
-43.1810

> <Gold.PLP.part.hbond>
-1.0000

> <Gold.PLP.part.metal>
0.0000

> <Gold.PLP.part.buried>
-6.9803

> <Gold.PLP.part.nonpolar>
-35.5657

> <Gold.PLP.part.repulsive>
0.2537

> <Gold.PLP.ligand.clash>
0.0000

> <Gold.PLP.ligand.torsion>
0.5439

> <Gold.PLP.Chemscore.Hbond>
1.0000

> <Gold.PLP.Chemscore.CHOScore>
0.0000

> <Gold.PLP.Chemscore.Metal>
0.0000

> <Gold.Chemscore.Hbonds>
donor molecule, donor type, donor heavy atom, donor atom, acceptor molecule, acceptor atom, score
      P1  H  6896  6907       L1    12  0.73

> <Gold.PLP.Chemscore.Internal.Correction>
0.0831

> <Gold.Rescore>
     Score         DG    S(hbond)    S(metal)    S(lipo)     H(rot)  DE(clash)    DE(int)     intcor
      9.28     -11.48       1.00        0.00      91.06       3.12       0.00       2.20       ----

> <Gold.Chemscore.Fitness>
9.2817

> <Gold.Chemscore.DG>
-11.4835

> <Gold.Chemscore.ZeroCoef>
-5.4800

> <Gold.Chemscore.Hbond>
0.9991

> <Gold.Chemscore.Metal>
0.0000

> <Gold.Chemscore.Lipo>
91.0574

> <Gold.Chemscore.Internal_Hbond>
0.0000

> <Gold.Chemscore.DEClash>
0.0029

> <Gold.Chemscore.DEInternal>
2.1988

> <Gold.Chemscore.Rot>
3.1201

> <Gold.Chemscore.Internal.Correction>
   9.000000E+99

> <Gold.Chemscore.Hbonds>
donor molecule, donor type, donor heavy atom, donor atom, acceptor molecule, acceptor atom, score
      P1  H  6896  6907       L1    12  0.72

> <Gold.Chemscore.Hbond.Weighted>
-3.3371

> <Gold.Chemscore.Metal.Weighted>
-0.0000

> <Gold.Chemscore.Lipo.Weighted>
-10.6537

> <Gold.Chemscore.Internal_Hbond.Weighted>
0.0000

> <Gold.Chemscore.DEClash.Weighted>
0.0029

> <Gold.Chemscore.DEInternal.Weighted>
2.1988

> <Gold.Chemscore.Rot.Weighted>
7.9874

> <Gold.Chemscore.Internal.Correction.Weighted>
   9.000000E+99

> <Gold.Protein.RotatedTorsions>
[ 6907 6896 6895 6894 ] final   53.21 input  -60.11 | X-H torsion
[ 7974 7965 7964 7962 ] final -158.30 input  175.53 | X-H torsion
[ 8008 7997 7996 7995 ] final -169.81 input   59.86 | X-H torsion
[ 10167 10162 10161 10158 ] final -148.99 input  -65.29 | X-H torsion
[ 10718 10713 10712 10709 ] final -109.02 input   66.30 | X-H torsion
[ 10763 10752 10751 10750 ] final -125.21 input  -60.55 | X-H torsion
[ 11005 11000 10999 10996 ] final   79.19 input  -57.11 | X-H torsion

> <Gold.Protein.ActiveResidues>
 VAL166  LYS551  ARG553  GLY616  TRP617  ASP618  TYR619  PRO620  LYS621  CYS622 
 ASP623  PHE694  ASN695  SER759  ASP760  ASP761  ALA762  ILE779  LEU786  VAL792 
 PHE793  MET794  SER795  GLU796  ALA797  LYS798  CYS799  TRP800  GLU811  SER814 

> <Gold.Protein.RotatedAtoms>
  152.3314  134.7255  160.0288 H   0  0  0  0  0  0  0  0  0  0  0  0  # atno 6907 bound_to 6896
  151.7670  133.3333  159.3442 H   0  0  0  0  0  0  0  0  0  0  0  0  # atno 6908 bound_to 6896
  150.7425  134.5985  159.6069 H   0  0  0  0  0  0  0  0  0  0  0  0  # atno 6909 bound_to 6896
  144.7511  140.3847  143.6047 H   0  0  0  0  0  0  0  0  0  0  0  0  # atno 7974 bound_to 7965
  155.9099  140.1055  157.1287 H   0  0  0  0  0  0  0  0  0  0  0  0  # atno 8008 bound_to 7997
  154.4038  140.1276  156.4609 H   0  0  0  0  0  0  0  0  0  0  0  0  # atno 8009 bound_to 7997
  155.7322  140.3468  155.5067 H   0  0  0  0  0  0  0  0  0  0  0  0  # atno 8010 bound_to 7997
  139.7482  143.8558  152.2580 H   0  0  0  0  0  0  0  0  0  0  0  0  # atno 10167 bound_to 10162
  156.0515  130.5742  150.8042 H   0  0  0  0  0  0  0  0  0  0  0  0  # atno 10718 bound_to 10713
  154.8733  135.4037  154.3230 H   0  0  0  0  0  0  0  0  0  0  0  0  # atno 10763 bound_to 10752
  153.4056  135.7019  153.6401 H   0  0  0  0  0  0  0  0  0  0  0  0  # atno 10764 bound_to 10752
  153.5125  135.3704  155.2564 H   0  0  0  0  0  0  0  0  0  0  0  0  # atno 10765 bound_to 10752
  139.9182  134.7823  156.1747 H   0  0  0  0  0  0  0  0  0  0  0  0  # atno 11005 bound_to 11000
  145.6940  139.1645  143.2630 LP  0  0  0  0  0  0  0  0  0  0  0  0  # atno 17320 bound_to 7965
  146.1463  140.6988  142.9343 LP  0  0  0  0  0  0  0  0  0  0  0  0  # atno 17321 bound_to 7965
  139.8528  144.7156  150.9193 LP  0  0  0  0  0  0  0  0  0  0  0  0  # atno 17342 bound_to 10162
  140.7795  143.3884  151.1353 LP  0  0  0  0  0  0  0  0  0  0  0  0  # atno 17343 bound_to 10162
  157.5446  131.0942  150.9780 LP  0  0  0  0  0  0  0  0  0  0  0  0  # atno 17370 bound_to 10713
  157.0055  130.5616  149.5315 LP  0  0  0  0  0  0  0  0  0  0  0  0  # atno 17371 bound_to 10713
  141.0679  133.6810  156.2081 LP  0  0  0  0  0  0  0  0  0  0  0  0  # atno 17394 bound_to 11000
  140.6555  134.5022  157.5580 LP  0  0  0  0  0  0  0  0  0  0  0  0  # atno 17395 bound_to 11000

$$$$
