AV-unprocessed.smi:1227|AV-procd|sdf|5146|dock9
  -GOLD-   22720 4213D 1   1.00000     0.00000
 Structure written by MMmdl.
 44 45  0  0  0  0  0  0  0  0  1 V2000
  151.7939  138.0856  154.3540 C   0  0  0  0  0  0  0  0  0  0  0  0
  150.3943  138.1209  154.0970 O   0  0  0  0  0  0  0  0  0  0  0  0
  149.6815  139.2430  154.4751 C   0  0  0  0  0  0  0  0  0  0  0  0
  150.3387  140.2319  155.1312 N   0  0  0  0  0  0  0  0  0  0  0  0
  149.6458  141.3265  155.5053 C   0  0  0  0  0  0  0  0  0  0  0  0
  148.2724  141.4912  155.2515 C   0  0  0  0  0  0  0  0  0  0  0  0
  147.5876  140.4671  154.5717 C   0  0  0  0  0  0  0  0  0  0  0  0
  148.3028  139.3139  154.1635 C   0  0  0  0  0  0  0  0  0  0  0  0
  147.7201  138.2072  153.4827 N   0  0  0  0  0  0  0  0  0  0  0  0
  146.4246  137.8983  153.3009 C   0  0  0  0  0  0  0  0  0  0  0  0
  145.4656  138.5562  153.7031 O   0  0  0  0  0  0  0  0  0  0  0  0
  146.2963  136.7628  152.6004 N   0  0  0  0  0  0  0  0  0  0  0  0
  145.0286  136.1411  152.2374 C   0  0  0  0  0  0  0  0  0  0  0  0
  144.7872  134.8379  153.0225 C   0  0  0  0  0  0  0  0  0  0  0  0
  145.5319  133.7159  152.4322 N   0  0  0  0  0  0  0  0  0  0  0  0
  145.1353  133.3363  151.0673 C   0  0  0  0  0  0  0  0  0  0  0  0
  144.5324  131.9197  150.9959 C   0  0  0  0  0  0  0  0  0  0  0  0
  145.5785  130.7958  150.9528 C   0  0  0  0  0  0  0  0  0  0  0  0
  146.4557  130.6993  152.2092 C   0  0  0  0  0  0  0  0  0  0  0  0
  147.3018  131.9593  152.4556 C   0  0  0  0  0  0  0  0  0  0  0  0
  146.5048  133.0827  153.1306 C   0  0  0  0  0  0  0  0  0  0  0  0
  146.7920  133.3827  154.2902 O   0  0  0  0  0  0  0  0  0  0  0  0
  152.2014  137.1385  154.0005 H   0  0  0  0  0  0  0  0  0  0  0  0
  152.0047  138.1574  155.4219 H   0  0  0  0  0  0  0  0  0  0  0  0
  152.3172  138.8869  153.8305 H   0  0  0  0  0  0  0  0  0  0  0  0
  150.2020  142.0916  156.0266 H   0  0  0  0  0  0  0  0  0  0  0  0
  147.7540  142.3817  155.5750 H   0  0  0  0  0  0  0  0  0  0  0  0
  146.5317  140.5893  154.3921 H   0  0  0  0  0  0  0  0  0  0  0  0
  148.3829  137.5829  153.0466 H   0  0  0  0  0  0  0  0  0  0  0  0
  147.1367  136.2891  152.3028 H   0  0  0  0  0  0  0  0  0  0  0  0
  144.2358  136.8601  152.4451 H   0  0  0  0  0  0  0  0  0  0  0  0
  145.0004  135.9513  151.1631 H   0  0  0  0  0  0  0  0  0  0  0  0
  145.0597  134.9728  154.0697 H   0  0  0  0  0  0  0  0  0  0  0  0
  143.7196  134.6115  153.0438 H   0  0  0  0  0  0  0  0  0  0  0  0
  144.3860  134.0312  150.6872 H   0  0  0  0  0  0  0  0  0  0  0  0
  145.9830  133.4330  150.3877 H   0  0  0  0  0  0  0  0  0  0  0  0
  143.8394  131.7617  151.8235 H   0  0  0  0  0  0  0  0  0  0  0  0
  143.9316  131.8491  150.0887 H   0  0  0  0  0  0  0  0  0  0  0  0
  145.0642  129.8445  150.8118 H   0  0  0  0  0  0  0  0  0  0  0  0
  146.2132  130.9236  150.0750 H   0  0  0  0  0  0  0  0  0  0  0  0
  145.8355  130.4809  153.0800 H   0  0  0  0  0  0  0  0  0  0  0  0
  147.1244  129.8449  152.0998 H   0  0  0  0  0  0  0  0  0  0  0  0
  148.1334  131.6988  153.1118 H   0  0  0  0  0  0  0  0  0  0  0  0
  147.7568  132.3169  151.5312 H   0  0  0  0  0  0  0  0  0  0  0  0
  1  2  1  0  0  0  0
  1 23  1  0  0  0  0
  1 24  1  0  0  0  0
  1 25  1  0  0  0  0
  2  3  1  0  0  0  0
  3  8  1  0  0  0  0
  3  4  2  0  0  0  0
  4  5  1  0  0  0  0
  5  6  2  0  0  0  0
  5 26  1  0  0  0  0
  6  7  1  0  0  0  0
  6 27  1  0  0  0  0
  7  8  2  0  0  0  0
  7 28  1  0  0  0  0
  8  9  1  0  0  0  0
  9 10  1  0  0  0  0
  9 29  1  0  0  0  0
 10 11  2  0  0  0  0
 10 12  1  0  0  0  0
 12 13  1  0  0  0  0
 12 30  1  0  0  0  0
 13 14  1  0  0  0  0
 13 31  1  0  0  0  0
 13 32  1  0  0  0  0
 14 15  1  0  0  0  0
 14 33  1  0  0  0  0
 14 34  1  0  0  0  0
 15 21  1  0  0  0  0
 15 16  1  0  0  0  0
 16 17  1  0  0  0  0
 16 35  1  0  0  0  0
 16 36  1  0  0  0  0
 17 18  1  0  0  0  0
 17 37  1  0  0  0  0
 17 38  1  0  0  0  0
 18 19  1  0  0  0  0
 18 39  1  0  0  0  0
 18 40  1  0  0  0  0
 19 20  1  0  0  0  0
 19 41  1  0  0  0  0
 19 42  1  0  0  0  0
 20 21  1  0  0  0  0
 20 43  1  0  0  0  0
 20 44  1  0  0  0  0
 21 22  2  0  0  0  0
M  END
> <s_m_source_file>
AV-unprocessed.smi

> <i_m_source_file_index>
1227

> <i_lp_mmshare_version>
43012

> <i_f3d_flags>
0

> <s_epik_input>
W0NIM11PYzFuW2NIXVtjSF1bY0hdYzFbTkhdQyg9TylbTkhdW0NIMl1bQ0gyXU4yW0NIMl1bQ0gyXVtDSDJdW0NIMl1bQ0gyXUMyPU8=

> <s_epik_cmdline>
J2VwaWtfcHl0aG9uJywgJy1waCcsICc3LjAnLCAnLXRuJywgJzgnLCAnLW1hJywgJzIwMCcsICctbWV0YWxfYmluZGluZycsICctaW1hZScsICc8aW5maWxlLm1hZT4nLCAnLW9tYWUnLCAnPG91dGZpbGUubWFlPic=

> <r_lp_tautomer_probability>
1

> <r_epik_Ionization_Penalty>
8.86757e-05

> <r_epik_Ionization_Penalty_Charging>
0

> <r_epik_Ionization_Penalty_Neutral>
8.86757e-05

> <r_epik_State_Penalty>
-0

> <r_epik_Charging_Adjusted_Penalty>
0

> <i_epik_Tot_Q>
0

> <i_epik_Tot_abs_Q>
0

> <r_epik_Metal_State_Penalty>
-0

> <b_epik_Metal_Only>
0

> <s_lp_Force_Field>
OPLS_2005

> <r_lp_Energy>
20.5681

> <b_lp_Chiralities_Consistent>
1

> <s_lp_Variant>
AV-unprocessed.smi:1227-1

> <Gold.Version>
5.8.1

> <Gold.Id.Protein>
6NUR|6NUR_protein|mol2

> <Gold.PLP.Fitness>
44.4826

> <Gold.PLP.PLP>
-33.4897

> <Gold.PLP.part.hbond>
-3.2828

> <Gold.PLP.part.metal>
0.0000

> <Gold.PLP.part.buried>
-2.6340

> <Gold.PLP.part.nonpolar>
-30.8752

> <Gold.PLP.part.repulsive>
3.5239

> <Gold.PLP.ligand.clash>
0.0000

> <Gold.PLP.ligand.torsion>
0.2122

> <Gold.PLP.Chemscore.Hbond>
2.9520

> <Gold.PLP.Chemscore.CHOScore>
0.8460

> <Gold.PLP.Chemscore.Metal>
0.0000

> <Gold.Chemscore.Hbonds>
donor molecule, donor type, donor heavy atom, donor atom, acceptor molecule, acceptor atom, score
      L1  H     9    29       P1  7948  1.00
      L1  H    12    30       P1  7948  1.00
      P1  H  7989  7998       L1     4  0.57

> <Gold.PLP.Chemscore.Internal.Correction>
0.0232

> <Gold.Rescore>
     Score         DG    S(hbond)    S(metal)    S(lipo)     H(rot)  DE(clash)    DE(int)     intcor
     14.07     -17.75       2.09        0.00      84.44       1.79       2.06       1.62       ----

> <Gold.Chemscore.Fitness>
14.0702

> <Gold.Chemscore.DG>
-17.7496

> <Gold.Chemscore.ZeroCoef>
-5.4800

> <Gold.Chemscore.Hbond>
2.0870

> <Gold.Chemscore.Metal>
0.0000

> <Gold.Chemscore.Lipo>
84.4364

> <Gold.Chemscore.Internal_Hbond>
0.0000

> <Gold.Chemscore.DEClash>
2.0553

> <Gold.Chemscore.DEInternal>
1.6241

> <Gold.Chemscore.Rot>
1.7890

> <Gold.Chemscore.Internal.Correction>
   9.000000E+99

> <Gold.Chemscore.Hbonds>
donor molecule, donor type, donor heavy atom, donor atom, acceptor molecule, acceptor atom, score
      L1  H     9    29       P1  7948  0.99
      L1  H    12    30       P1  7948  0.98
      P1  H  7989  7998       L1     4  0.06

> <Gold.Chemscore.Hbond.Weighted>
-6.9704

> <Gold.Chemscore.Metal.Weighted>
-0.0000

> <Gold.Chemscore.Lipo.Weighted>
-9.8791

> <Gold.Chemscore.Internal_Hbond.Weighted>
0.0000

> <Gold.Chemscore.DEClash.Weighted>
2.0553

> <Gold.Chemscore.DEInternal.Weighted>
1.6241

> <Gold.Chemscore.Rot.Weighted>
4.5799

> <Gold.Chemscore.Internal.Correction.Weighted>
   9.000000E+99

> <Gold.Protein.RotatedTorsions>
[ 6907 6896 6895 6894 ] final  -99.04 input  -60.11 | X-H torsion
[ 7974 7965 7964 7962 ] final   -7.46 input  175.53 | X-H torsion
[ 8008 7997 7996 7995 ] final  160.69 input   59.86 | X-H torsion
[ 10167 10162 10161 10158 ] final -103.62 input  -65.29 | X-H torsion
[ 10718 10713 10712 10709 ] final  -36.52 input   66.30 | X-H torsion
[ 10763 10752 10751 10750 ] final  137.06 input  -60.55 | X-H torsion
[ 11005 11000 10999 10996 ] final  122.70 input  -57.11 | X-H torsion

> <Gold.Protein.ActiveResidues>
 VAL166  LYS551  ARG553  GLY616  TRP617  ASP618  TYR619  PRO620  LYS621  CYS622 
 ASP623  PHE694  ASN695  SER759  ASP760  ASP761  ALA762  ILE779  LEU786  VAL792 
 PHE793  MET794  SER795  GLU796  ALA797  LYS798  CYS799  TRP800  GLU811  SER814 

> <Gold.Protein.RotatedAtoms>
  150.7066  134.1101  159.3996 H   0  0  0  0  0  0  0  0  0  0  0  0  # atno 6907 bound_to 6896
  151.9088  135.0345  160.0522 H   0  0  0  0  0  0  0  0  0  0  0  0  # atno 6908 bound_to 6896
  152.2353  133.5056  159.5276 H   0  0  0  0  0  0  0  0  0  0  0  0  # atno 6909 bound_to 6896
  146.2306  140.2322  142.8340 H   0  0  0  0  0  0  0  0  0  0  0  0  # atno 7974 bound_to 7965
  156.2155  140.1797  156.7599 H   0  0  0  0  0  0  0  0  0  0  0  0  # atno 8008 bound_to 7997
  154.5784  140.0670  156.9098 H   0  0  0  0  0  0  0  0  0  0  0  0  # atno 8009 bound_to 7997
  155.2545  140.3331  155.4281 H   0  0  0  0  0  0  0  0  0  0  0  0  # atno 8010 bound_to 7997
  140.2180  143.3697  152.0993 H   0  0  0  0  0  0  0  0  0  0  0  0  # atno 10167 bound_to 10162
  156.3258  130.4272  149.7917 H   0  0  0  0  0  0  0  0  0  0  0  0  # atno 10718 bound_to 10713
  153.8667  135.3060  155.3440 H   0  0  0  0  0  0  0  0  0  0  0  0  # atno 10763 bound_to 10752
  154.7824  135.4828  153.9876 H   0  0  0  0  0  0  0  0  0  0  0  0  # atno 10764 bound_to 10752
  153.1430  135.6828  153.9093 H   0  0  0  0  0  0  0  0  0  0  0  0  # atno 10765 bound_to 10752
  139.9280  134.9641  156.8149 H   0  0  0  0  0  0  0  0  0  0  0  0  # atno 11005 bound_to 11000
  144.9549  140.8216  143.5549 LP  0  0  0  0  0  0  0  0  0  0  0  0  # atno 17320 bound_to 7965
  145.2287  139.2125  143.5054 LP  0  0  0  0  0  0  0  0  0  0  0  0  # atno 17321 bound_to 7965
  139.5154  144.6963  151.5621 LP  0  0  0  0  0  0  0  0  0  0  0  0  # atno 17342 bound_to 10162
  140.6275  143.9140  150.6577 LP  0  0  0  0  0  0  0  0  0  0  0  0  # atno 17343 bound_to 10162
  156.5208  130.8214  151.3203 LP  0  0  0  0  0  0  0  0  0  0  0  0  # atno 17370 bound_to 10713
  157.7421  130.9883  150.2492 LP  0  0  0  0  0  0  0  0  0  0  0  0  # atno 17371 bound_to 10713
  140.6282  133.9930  155.7649 LP  0  0  0  0  0  0  0  0  0  0  0  0  # atno 17394 bound_to 11000
  141.0850  134.0004  157.3327 LP  0  0  0  0  0  0  0  0  0  0  0  0  # atno 17395 bound_to 11000

$$$$
