AV-unprocessed.smi:443|AV-procd|sdf|2586|dock1
  -GOLD-   2262022573D 1   1.00000     0.00000
 Structure written by MMmdl.
 48 49  0  0  0  0  0  0  0  0  1 V2000
  146.8763  137.0904  162.7644 C   0  0  0  0  0  0  0  0  0  0  0  0
  147.4457  136.2581  161.6477 C   0  0  0  0  0  0  0  0  0  0  0  0
  147.9736  136.9007  160.6581 N   0  0  0  0  0  0  0  0  0  0  0  0
  148.5237  136.2347  159.5810 N   0  0  0  0  0  0  0  0  0  0  0  0
  149.1297  137.1163  158.5774 C   0  0  0  0  0  0  0  0  0  0  0  0
  150.4502  137.7357  159.0953 C   0  0  1  0  0  0  0  0  0  0  0  0
  151.1415  136.7748  159.8678 O   0  0  0  0  0  0  0  0  0  0  0  0
  151.3863  138.1785  157.9612 C   0  0  0  0  0  0  0  0  0  0  0  0
  151.4334  139.5991  157.9386 O   0  0  0  0  0  0  0  0  0  0  0  0
  152.2114  140.2544  158.8713 C   0  0  0  0  0  0  0  0  0  0  0  0
  153.2170  139.6028  159.6320 C   0  0  0  0  0  0  0  0  0  0  0  0
  153.9766  140.3120  160.5800 C   0  0  0  0  0  0  0  0  0  0  0  0
  153.7438  141.6820  160.7841 C   0  0  0  0  0  0  0  0  0  0  0  0
  152.7534  142.3409  160.0352 C   0  0  0  0  0  0  0  0  0  0  0  0
  151.9857  141.6409  159.0766 C   0  0  0  0  0  0  0  0  0  0  0  0
  150.9299  142.4010  158.2717 C   0  0  0  0  0  0  0  0  0  0  0  0
  151.1109  142.1837  156.7603 C   0  0  0  0  0  0  0  0  0  0  0  0
  150.9109  143.8953  158.6296 C   0  0  0  0  0  0  0  0  0  0  0  0
  148.5654  134.8791  159.4428 C   0  0  0  0  0  0  0  0  0  0  0  0
  149.0725  134.3267  158.4656 O   0  0  0  0  0  0  0  0  0  0  0  0
  147.9649  134.1572  160.5668 C   0  0  0  0  0  0  0  0  0  0  0  0
  147.9863  132.7336  160.4638 C   0  0  0  0  0  0  0  0  0  0  0  0
  148.0234  131.5789  160.3901 N   0  0  0  0  0  0  0  0  0  0  0  0
  147.4307  134.7983  161.6361 C   0  0  0  0  0  0  0  0  0  0  0  0
  146.8027  134.0909  162.8292 C   0  0  0  0  0  0  0  0  0  0  0  0
  145.8868  136.7363  163.0533 H   0  0  0  0  0  0  0  0  0  0  0  0
  146.7728  138.1358  162.4747 H   0  0  0  0  0  0  0  0  0  0  0  0
  147.5216  137.0505  163.6421 H   0  0  0  0  0  0  0  0  0  0  0  0
  149.2796  136.5854  157.6349 H   0  0  0  0  0  0  0  0  0  0  0  0
  148.4179  137.9054  158.3268 H   0  0  0  0  0  0  0  0  0  0  0  0
  150.2503  138.5947  159.7379 H   0  0  0  0  0  0  0  0  0  0  0  0
  151.7172  137.2270  160.4653 H   0  0  0  0  0  0  0  0  0  0  0  0
  152.3863  137.7810  158.1428 H   0  0  0  0  0  0  0  0  0  0  0  0
  151.0324  137.7909  157.0041 H   0  0  0  0  0  0  0  0  0  0  0  0
  153.4273  138.5512  159.5104 H   0  0  0  0  0  0  0  0  0  0  0  0
  154.7376  139.8028  161.1527 H   0  0  0  0  0  0  0  0  0  0  0  0
  154.3248  142.2281  161.5126 H   0  0  0  0  0  0  0  0  0  0  0  0
  152.5873  143.3950  160.2008 H   0  0  0  0  0  0  0  0  0  0  0  0
  149.9422  142.0151  158.5196 H   0  0  0  0  0  0  0  0  0  0  0  0
  151.0534  141.1240  156.5095 H   0  0  0  0  0  0  0  0  0  0  0  0
  152.0724  142.5577  156.4082 H   0  0  0  0  0  0  0  0  0  0  0  0
  150.3360  142.6981  156.1922 H   0  0  0  0  0  0  0  0  0  0  0  0
  150.7299  144.0394  159.6951 H   0  0  0  0  0  0  0  0  0  0  0  0
  150.1202  144.4161  158.0889 H   0  0  0  0  0  0  0  0  0  0  0  0
  151.8543  144.3827  158.3829 H   0  0  0  0  0  0  0  0  0  0  0  0
  147.0101  133.0214  162.8267 H   0  0  0  0  0  0  0  0  0  0  0  0
  145.7200  134.2204  162.8184 H   0  0  0  0  0  0  0  0  0  0  0  0
  147.1885  134.4901  163.7678 H   0  0  0  0  0  0  0  0  0  0  0  0
  1  2  1  0  0  0  0
  1 26  1  0  0  0  0
  1 27  1  0  0  0  0
  1 28  1  0  0  0  0
  2 24  1  0  0  0  0
  2  3  2  0  0  0  0
  3  4  1  0  0  0  0
  4  5  1  0  0  0  0
  4 19  1  0  0  0  0
  5  6  1  0  0  0  0
  5 29  1  0  0  0  0
  5 30  1  0  0  0  0
  6  7  1  0  0  0  0
  6  8  1  0  0  0  0
  6 31  1  0  0  0  0
  7 32  1  0  0  0  0
  8  9  1  0  0  0  0
  8 33  1  0  0  0  0
  8 34  1  0  0  0  0
  9 10  1  0  0  0  0
 10 15  1  0  0  0  0
 10 11  2  0  0  0  0
 11 12  1  0  0  0  0
 11 35  1  0  0  0  0
 12 13  2  0  0  0  0
 12 36  1  0  0  0  0
 13 14  1  0  0  0  0
 13 37  1  0  0  0  0
 14 15  2  0  0  0  0
 14 38  1  0  0  0  0
 15 16  1  0  0  0  0
 16 17  1  0  0  0  0
 16 18  1  0  0  0  0
 16 39  1  0  0  0  0
 17 40  1  0  0  0  0
 17 41  1  0  0  0  0
 17 42  1  0  0  0  0
 18 43  1  0  0  0  0
 18 44  1  0  0  0  0
 18 45  1  0  0  0  0
 19 20  2  0  0  0  0
 19 21  1  0  0  0  0
 21 22  1  0  0  0  0
 21 24  2  0  0  0  0
 22 23  3  0  0  0  0
 24 25  1  0  0  0  0
 25 46  1  0  0  0  0
 25 47  1  0  0  0  0
 25 48  1  0  0  0  0
M  END
> <s_m_source_file>
AV-unprocessed.smi

> <i_m_source_file_index>
443

> <i_lp_mmshare_version>
43012

> <i_f3d_flags>
0

> <s_epik_input>
TiNDYyhjMVtDSDNdKWMoPU8pbihuYzFbQ0gzXSlbQ0gyXVtDQEhdKFtPSF0pW0NIMl1PYzJbY0hdW2NIXVtjSF1bY0hdYzJbQ0hdKFtDSDNdKVtDSDNd

> <s_epik_cmdline>
J2VwaWtfcHl0aG9uJywgJy1waCcsICc3LjAnLCAnLXRuJywgJzgnLCAnLW1hJywgJzIwMCcsICctbWV0YWxfYmluZGluZycsICctaW1hZScsICc8aW5maWxlLm1hZT4nLCAnLW9tYWUnLCAnPG91dGZpbGUubWFlPic=

> <r_lp_tautomer_probability>
1

> <r_epik_Ionization_Penalty>
1.17331e-07

> <r_epik_Ionization_Penalty_Charging>
1.57223e-10

> <r_epik_Ionization_Penalty_Neutral>
1.17174e-07

> <r_epik_State_Penalty>
-0

> <r_epik_Charging_Adjusted_Penalty>
1.57223e-10

> <i_epik_Tot_Q>
0

> <i_epik_Tot_abs_Q>
0

> <r_epik_Metal_State_Penalty>
-0

> <b_epik_Metal_Only>
0

> <s_lp_Force_Field>
OPLS_2005

> <r_lp_Energy>
30.2937

> <b_lp_Chiralities_Consistent>
1

> <s_lp_Variant>
AV-unprocessed.smi:443-2

> <Gold.Version>
5.8.1

> <Gold.Id.Protein>
6NUR|6NUR_protein|mol2

> <Gold.PLP.Fitness>
55.4658

> <Gold.PLP.PLP>
-48.2645

> <Gold.PLP.part.hbond>
-4.0000

> <Gold.PLP.part.metal>
0.0000

> <Gold.PLP.part.buried>
-2.8314

> <Gold.PLP.part.nonpolar>
-41.8772

> <Gold.PLP.part.repulsive>
0.0000

> <Gold.PLP.ligand.clash>
0.0000

> <Gold.PLP.ligand.torsion>
1.4412

> <Gold.PLP.Chemscore.Hbond>
3.3056

> <Gold.PLP.Chemscore.CHOScore>
0.0000

> <Gold.PLP.Chemscore.Metal>
0.0000

> <Gold.Chemscore.Hbonds>
donor molecule, donor type, donor heavy atom, donor atom, acceptor molecule, acceptor atom, score
      P1  H  6896  6907       L1     7  0.99
      P1  H  6896  6909       L1    20  0.75
      P1  H  6931  6943       L1     3  0.54
      P1  H  6934  6947       L1     3  0.32

> <Gold.PLP.Chemscore.Internal.Correction>
0.1669

> <Gold.Rescore>
     Score         DG    S(hbond)    S(metal)    S(lipo)     H(rot)  DE(clash)    DE(int)     intcor
     17.41     -20.37       1.62        0.00     133.63       2.41       0.21       2.75       ----

> <Gold.Chemscore.Fitness>
17.4125

> <Gold.Chemscore.DG>
-20.3703

> <Gold.Chemscore.ZeroCoef>
-5.4800

> <Gold.Chemscore.Hbond>
1.6232

> <Gold.Chemscore.Metal>
0.0000

> <Gold.Chemscore.Lipo>
133.6273

> <Gold.Chemscore.Internal_Hbond>
0.0000

> <Gold.Chemscore.DEClash>
0.2087

> <Gold.Chemscore.DEInternal>
2.7491

> <Gold.Chemscore.Rot>
2.4084

> <Gold.Chemscore.Internal.Correction>
   9.000000E+99

> <Gold.Chemscore.Hbonds>
donor molecule, donor type, donor heavy atom, donor atom, acceptor molecule, acceptor atom, score
      P1  H  6896  6907       L1     7  0.28
      P1  H  6896  6909       L1    20  0.09
      P1  H  6931  6943       L1     3  0.07
      P1  H  6934  6947       L1     3  0.14

> <Gold.Chemscore.Hbond.Weighted>
-5.4214

> <Gold.Chemscore.Metal.Weighted>
-0.0000

> <Gold.Chemscore.Lipo.Weighted>
-15.6344

> <Gold.Chemscore.Internal_Hbond.Weighted>
0.0000

> <Gold.Chemscore.DEClash.Weighted>
0.2087

> <Gold.Chemscore.DEInternal.Weighted>
2.7491

> <Gold.Chemscore.Rot.Weighted>
6.1655

> <Gold.Chemscore.Internal.Correction.Weighted>
   9.000000E+99

> <Gold.Protein.RotatedTorsions>
[ 6907 6896 6895 6894 ] final    9.16 input  -60.11 | X-H torsion
[ 7974 7965 7964 7962 ] final  -58.35 input  175.53 | X-H torsion
[ 8008 7997 7996 7995 ] final -163.68 input   59.86 | X-H torsion
[ 10167 10162 10161 10158 ] final   49.09 input  -65.29 | X-H torsion
[ 10718 10713 10712 10709 ] final  130.77 input   66.30 | X-H torsion
[ 10763 10752 10751 10750 ] final    6.87 input  -60.55 | X-H torsion
[ 11005 11000 10999 10996 ] final   23.83 input  -57.11 | X-H torsion

> <Gold.Protein.ActiveResidues>
 VAL166  LYS551  ARG553  GLY616  TRP617  ASP618  TYR619  PRO620  LYS621  CYS622 
 ASP623  PHE694  ASN695  SER759  ASP760  ASP761  ALA762  ILE779  LEU786  VAL792 
 PHE793  MET794  SER795  GLU796  ALA797  LYS798  CYS799  TRP800  GLU811  SER814 

> <Gold.Protein.RotatedAtoms>
  151.7176  135.0900  160.0278 H   0  0  0  0  0  0  0  0  0  0  0  0  # atno 6907 bound_to 6896
  152.3622  133.6307  159.6032 H   0  0  0  0  0  0  0  0  0  0  0  0  # atno 6908 bound_to 6896
  150.7612  133.9321  159.3472 H   0  0  0  0  0  0  0  0  0  0  0  0  # atno 6909 bound_to 6896
  145.8403  140.8421  143.0038 H   0  0  0  0  0  0  0  0  0  0  0  0  # atno 7974 bound_to 7965
  155.8248  140.0925  157.1827 H   0  0  0  0  0  0  0  0  0  0  0  0  # atno 8008 bound_to 7997
  154.3979  140.1430  156.3604 H   0  0  0  0  0  0  0  0  0  0  0  0  # atno 8009 bound_to 7997
  155.8228  140.3445  155.5527 H   0  0  0  0  0  0  0  0  0  0  0  0  # atno 8010 bound_to 7997
  140.2866  144.3095  150.6251 H   0  0  0  0  0  0  0  0  0  0  0  0  # atno 10167 bound_to 10162
  157.5031  131.1095  150.9400 H   0  0  0  0  0  0  0  0  0  0  0  0  # atno 10718 bound_to 10713
  153.2427  135.6905  153.7765 H   0  0  0  0  0  0  0  0  0  0  0  0  # atno 10763 bound_to 10752
  153.6889  135.3316  155.3198 H   0  0  0  0  0  0  0  0  0  0  0  0  # atno 10764 bound_to 10752
  154.8362  135.4540  154.1355 H   0  0  0  0  0  0  0  0  0  0  0  0  # atno 10765 bound_to 10752
  140.3654  134.2081  155.7669 H   0  0  0  0  0  0  0  0  0  0  0  0  # atno 11005 bound_to 11000
  144.6734  140.0802  143.7469 LP  0  0  0  0  0  0  0  0  0  0  0  0  # atno 17320 bound_to 7965
  145.9472  139.2709  143.1233 LP  0  0  0  0  0  0  0  0  0  0  0  0  # atno 17321 bound_to 7965
  140.5768  143.2176  151.7501 LP  0  0  0  0  0  0  0  0  0  0  0  0  # atno 17342 bound_to 10162
  139.4949  144.4138  152.0052 LP  0  0  0  0  0  0  0  0  0  0  0  0  # atno 17343 bound_to 10162
  157.0064  130.5620  149.5316 LP  0  0  0  0  0  0  0  0  0  0  0  0  # atno 17370 bound_to 10713
  156.0241  130.5335  150.8358 LP  0  0  0  0  0  0  0  0  0  0  0  0  # atno 17371 bound_to 10713
  141.1971  133.8066  157.0641 LP  0  0  0  0  0  0  0  0  0  0  0  0  # atno 17394 bound_to 11000
  140.0594  134.9763  157.1278 LP  0  0  0  0  0  0  0  0  0  0  0  0  # atno 17395 bound_to 11000

$$$$
