AV-unprocessed.smi:1897|AV-procd|sdf|7696|dock2
  -GOLD-   22720 9433D 1   1.00000     0.00000
 Structure written by MMmdl.
 38 40  0  0  0  0  0  0  0  0  3 V2000
  149.1906  141.0169  154.5236 C   0  0  0  0  0  0  0  0  0  0  0  0
  150.0410  139.8314  154.8279 C   0  0  0  0  0  0  0  0  0  0  0  0
  151.3644  139.9113  154.9864 N   0  0  0  0  0  0  0  0  0  0  0  0
  151.9334  138.6765  155.2605 N   0  0  0  0  0  0  0  0  0  0  0  0
  151.0328  137.6844  155.3205 C   0  0  0  0  0  0  0  0  0  0  0  0
  151.3761  136.4100  155.5862 N   0  5  0  0  0  0  0  0  0  0  0  0
  150.4633  135.4070  155.6606 C   0  0  0  0  0  0  0  0  0  0  0  0
  150.3642  134.6529  156.6274 O   0  0  0  0  0  0  0  0  0  0  0  0
  149.6198  135.2517  154.6216 N   0  0  0  0  0  0  0  0  0  0  0  0
  148.5252  134.2891  154.5227 C   0  0  2  0  0  0  0  0  0  0  0  0
  148.7438  133.2699  153.3868 C   0  0  0  0  0  0  0  0  0  0  0  0
  147.3961  133.1878  152.6632 C   0  0  0  0  0  0  0  0  0  0  0  0
  146.8400  134.5344  152.8389 N   0  3  1  0  0  0  0  0  0  0  0  0
  145.4217  134.7557  152.4890 C   0  0  0  0  0  0  0  0  0  0  0  0
  145.1163  136.2645  152.6000 C   0  0  0  0  0  0  0  0  0  0  0  0
  145.5249  136.8411  153.9736 C   0  0  0  0  0  0  0  0  0  0  0  0
  146.9799  136.4741  154.3341 C   0  0  0  0  0  0  0  0  0  0  0  0
  147.1607  134.9488  154.2153 C   0  0  2  0  0  0  0  0  0  0  0  0
  149.3800  138.2160  155.0161 S   0  0  0  0  0  0  0  0  0  0  0  0
  148.8475  141.4759  155.4507 H   0  0  0  0  0  0  0  0  0  0  0  0
  148.3214  140.7164  153.9382 H   0  0  0  0  0  0  0  0  0  0  0  0
  149.7557  141.7547  153.9532 H   0  0  0  0  0  0  0  0  0  0  0  0
  149.7344  135.8857  153.8445 H   0  0  0  0  0  0  0  0  0  0  0  0
  148.4428  133.7382  155.4616 H   0  0  0  0  0  0  0  0  0  0  0  0
  149.5035  133.6320  152.6919 H   0  0  0  0  0  0  0  0  0  0  0  0
  149.0750  132.2981  153.7545 H   0  0  0  0  0  0  0  0  0  0  0  0
  147.4980  132.9219  151.6108 H   0  0  0  0  0  0  0  0  0  0  0  0
  146.7468  132.4554  153.1457 H   0  0  0  0  0  0  0  0  0  0  0  0
  145.2351  134.4082  151.4725 H   0  0  0  0  0  0  0  0  0  0  0  0
  144.7768  134.1785  153.1531 H   0  0  0  0  0  0  0  0  0  0  0  0
  145.6572  136.7972  151.8164 H   0  0  0  0  0  0  0  0  0  0  0  0
  144.0566  136.4465  152.4184 H   0  0  0  0  0  0  0  0  0  0  0  0
  145.3997  137.9242  153.9785 H   0  0  0  0  0  0  0  0  0  0  0  0
  144.8547  136.4507  154.7405 H   0  0  0  0  0  0  0  0  0  0  0  0
  147.6704  136.9941  153.6682 H   0  0  0  0  0  0  0  0  0  0  0  0
  147.2042  136.8081  155.3476 H   0  0  0  0  0  0  0  0  0  0  0  0
  146.4340  134.4729  154.8775 H   0  0  0  0  0  0  0  0  0  0  0  0
  147.3843  135.1343  152.2356 H   0  0  0  0  0  0  0  0  0  0  0  0
  1  2  1  0  0  0  0
  1 20  1  0  0  0  0
  1 21  1  0  0  0  0
  1 22  1  0  0  0  0
  2 19  1  0  0  0  0
  2  3  2  0  0  0  0
  3  4  1  0  0  0  0
  4  5  2  0  0  0  0
  5  6  1  0  0  0  0
  5 19  1  0  0  0  0
  6  7  1  0  0  0  0
  7  8  2  0  0  0  0
  7  9  1  0  0  0  0
  9 10  1  0  0  0  0
  9 23  1  0  0  0  0
 10 18  1  0  0  0  0
 10 11  1  0  0  0  0
 10 24  1  0  0  0  0
 11 12  1  0  0  0  0
 11 25  1  0  0  0  0
 11 26  1  0  0  0  0
 12 13  1  0  0  0  0
 12 27  1  0  0  0  0
 12 28  1  0  0  0  0
 13 18  1  0  0  0  0
 13 14  1  0  0  0  0
 13 38  1  0  0  0  0
 14 15  1  0  0  0  0
 14 29  1  0  0  0  0
 14 30  1  0  0  0  0
 15 16  1  0  0  0  0
 15 31  1  0  0  0  0
 15 32  1  0  0  0  0
 16 17  1  0  0  0  0
 16 33  1  0  0  0  0
 16 34  1  0  0  0  0
 17 18  1  0  0  0  0
 17 35  1  0  0  0  0
 17 36  1  0  0  0  0
 18 37  1  0  0  0  0
M  CHG  1   6  -1
M  CHG  1  13   1
M  END
> <s_m_source_file>
AV-unprocessed.smi

> <i_m_source_file_index>
1897

> <i_lp_mmshare_version>
43012

> <i_f3d_flags>
0

> <s_epik_input>
W0NIM11jMW5uYyhzMSlbTkhdQyg9TylbTkhdW0NASF0oW0NIMl1bQ0gyXTIpW0NAQEhdKE4yMylbQ0gyXVtDSDJdW0NIMl1bQ0gyXTM=

> <s_epik_cmdline>
J2VwaWtfcHl0aG9uJywgJy1waCcsICc3LjAnLCAnLXRuJywgJzgnLCAnLW1hJywgJzIwMCcsICctbWV0YWxfYmluZGluZycsICctaW1hZScsICc8aW5maWxlLm1hZT4nLCAnLW9tYWUnLCAnPG91dGZpbGUubWFlPic=

> <r_lp_tautomer_probability>
1

> <r_epik_Ionization_Penalty>
3.77712

> <r_epik_Ionization_Penalty_Charging>
3.67739

> <r_epik_Ionization_Penalty_Neutral>
0.0997294

> <r_epik_State_Penalty>
3.67514

> <r_epik_Charging_Adjusted_Penalty>
7.35254

> <i_epik_Tot_Q>
0

> <i_epik_Tot_abs_Q>
2

> <r_epik_Metal_State_Penalty>
0.540795

> <b_epik_Metal_Only>
1

> <s_lp_Force_Field>
OPLS_2005

> <r_lp_Energy>
34.9816

> <b_lp_Chiralities_Consistent>
1

> <s_lp_Variant>
AV-unprocessed.smi:1897-13

> <Gold.Version>
5.8.1

> <Gold.Id.Protein>
6NUR|6NUR_protein|mol2

> <Gold.PLP.Fitness>
42.9944

> <Gold.PLP.PLP>
-26.7801

> <Gold.PLP.part.hbond>
-4.0000

> <Gold.PLP.part.metal>
0.0000

> <Gold.PLP.part.buried>
-3.0982

> <Gold.PLP.part.nonpolar>
-19.9627

> <Gold.PLP.part.repulsive>
0.2514

> <Gold.PLP.ligand.clash>
0.0003

> <Gold.PLP.ligand.torsion>
0.4989

> <Gold.PLP.Chemscore.Hbond>
5.7344

> <Gold.PLP.Chemscore.CHOScore>
0.0000

> <Gold.PLP.Chemscore.Metal>
0.0000

> <Gold.Chemscore.Hbonds>
donor molecule, donor type, donor heavy atom, donor atom, acceptor molecule, acceptor atom, score
      L1  H     9    23       P1  7948  0.64
      L1  H    13    38       P1  7948  2.00
      P1  H  7989  7998       L1     3  0.75
      P1  H 10752 10763       L1     6  1.95

> <Gold.PLP.Chemscore.Internal.Correction>
0.0091

> <Gold.Rescore>
     Score         DG    S(hbond)    S(metal)    S(lipo)     H(rot)  DE(clash)    DE(int)     intcor
     14.85     -15.72       2.24        0.00      45.55       1.00       0.24       0.63       ----

> <Gold.Chemscore.Fitness>
14.8535

> <Gold.Chemscore.DG>
-15.7181

> <Gold.Chemscore.ZeroCoef>
-5.4800

> <Gold.Chemscore.Hbond>
2.2362

> <Gold.Chemscore.Metal>
0.0000

> <Gold.Chemscore.Lipo>
45.5492

> <Gold.Chemscore.Internal_Hbond>
0.0000

> <Gold.Chemscore.DEClash>
0.2357

> <Gold.Chemscore.DEInternal>
0.6290

> <Gold.Chemscore.Rot>
1.0000

> <Gold.Chemscore.Internal.Correction>
   9.000000E+99

> <Gold.Chemscore.Hbonds>
donor molecule, donor type, donor heavy atom, donor atom, acceptor molecule, acceptor atom, score
      L1  H     9    23       P1  7948  0.16
      L1  H    13    38       P1  7948  0.96
      P1  H  7989  7998       L1     3  0.09
      P1  H 10752 10763       L1     6  0.39

> <Gold.Chemscore.Hbond.Weighted>
-7.4688

> <Gold.Chemscore.Metal.Weighted>
-0.0000

> <Gold.Chemscore.Lipo.Weighted>
-5.3293

> <Gold.Chemscore.Internal_Hbond.Weighted>
0.0000

> <Gold.Chemscore.DEClash.Weighted>
0.2357

> <Gold.Chemscore.DEInternal.Weighted>
0.6290

> <Gold.Chemscore.Rot.Weighted>
2.5600

> <Gold.Chemscore.Internal.Correction.Weighted>
   9.000000E+99

> <Gold.Protein.RotatedTorsions>
[ 6907 6896 6895 6894 ] final  -50.21 input  -60.11 | X-H torsion
[ 7974 7965 7964 7962 ] final -126.12 input  175.53 | X-H torsion
[ 8008 7997 7996 7995 ] final  -23.91 input   59.86 | X-H torsion
[ 10167 10162 10161 10158 ] final  -33.07 input  -65.29 | X-H torsion
[ 10718 10713 10712 10709 ] final -164.47 input   66.30 | X-H torsion
[ 10763 10752 10751 10750 ] final   55.41 input  -60.55 | X-H torsion
[ 11005 11000 10999 10996 ] final -113.17 input  -57.11 | X-H torsion

> <Gold.Protein.ActiveResidues>
 VAL166  LYS551  ARG553  GLY616  TRP617  ASP618  TYR619  PRO620  LYS621  CYS622 
 ASP623  PHE694  ASN695  SER759  ASP760  ASP761  ALA762  ILE779  LEU786  VAL792 
 PHE793  MET794  SER795  GLU796  ALA797  LYS798  CYS799  TRP800  GLU811  SER814 

> <Gold.Protein.RotatedAtoms>
  150.8730  134.8107  159.7168 H   0  0  0  0  0  0  0  0  0  0  0  0  # atno 6907 bound_to 6896
  152.4727  134.4917  159.9707 H   0  0  0  0  0  0  0  0  0  0  0  0  # atno 6908 bound_to 6896
  151.5003  133.3467  159.2903 H   0  0  0  0  0  0  0  0  0  0  0  0  # atno 6909 bound_to 6896
  144.9906  140.7728  143.4556 H   0  0  0  0  0  0  0  0  0  0  0  0  # atno 7974 bound_to 7965
  154.4559  140.1968  156.0382 H   0  0  0  0  0  0  0  0  0  0  0  0  # atno 8008 bound_to 7997
  156.0744  140.3280  155.7587 H   0  0  0  0  0  0  0  0  0  0  0  0  # atno 8009 bound_to 7997
  155.5212  140.0570  157.2897 H   0  0  0  0  0  0  0  0  0  0  0  0  # atno 8010 bound_to 7997
  140.7210  143.3647  151.1894 H   0  0  0  0  0  0  0  0  0  0  0  0  # atno 10167 bound_to 10162
  156.6395  130.8962  151.2993 H   0  0  0  0  0  0  0  0  0  0  0  0  # atno 10718 bound_to 10713
  152.9816  135.5711  154.5062 H   0  0  0  0  0  0  0  0  0  0  0  0  # atno 10763 bound_to 10752
  154.4574  135.2780  155.1740 H   0  0  0  0  0  0  0  0  0  0  0  0  # atno 10764 bound_to 10752
  154.3342  135.6243  153.5619 H   0  0  0  0  0  0  0  0  0  0  0  0  # atno 10765 bound_to 10752
  141.0630  133.9504  157.2631 H   0  0  0  0  0  0  0  0  0  0  0  0  # atno 11005 bound_to 11000
  145.2291  139.2123  143.5052 LP  0  0  0  0  0  0  0  0  0  0  0  0  # atno 17320 bound_to 7965
  146.3430  140.2165  142.8591 LP  0  0  0  0  0  0  0  0  0  0  0  0  # atno 17321 bound_to 7965
  139.7206  143.9229  152.2984 LP  0  0  0  0  0  0  0  0  0  0  0  0  # atno 17342 bound_to 10162
  139.8985  144.6925  150.8692 LP  0  0  0  0  0  0  0  0  0  0  0  0  # atno 17343 bound_to 10162
  157.7175  130.9516  150.1312 LP  0  0  0  0  0  0  0  0  0  0  0  0  # atno 17370 bound_to 10713
  156.2171  130.3671  149.8601 LP  0  0  0  0  0  0  0  0  0  0  0  0  # atno 17371 bound_to 10713
  139.9450  135.0185  156.8826 LP  0  0  0  0  0  0  0  0  0  0  0  0  # atno 17394 bound_to 11000
  140.5829  134.0334  155.7471 LP  0  0  0  0  0  0  0  0  0  0  0  0  # atno 17395 bound_to 11000

$$$$
