AV-unprocessed.smi:677|AV-procd|sdf|3311|dock1
  -GOLD-   22720 0273D 1   1.00000     0.00000
 Structure written by MMmdl.
 43 44  0  0  0  0  0  0  0  0  1 V2000
  143.5086  132.5940  148.3303 C   0  0  0  0  0  0  0  0  0  0  0  0
  144.0994  133.2757  149.5468 C   0  0  0  0  0  0  0  0  0  0  0  0
  144.5790  132.5132  150.6319 C   0  0  0  0  0  0  0  0  0  0  0  0
  145.1200  133.1910  151.7413 C   0  0  0  0  0  0  0  0  0  0  0  0
  145.1597  134.6006  151.7237 C   0  0  0  0  0  0  0  0  0  0  0  0
  145.7584  135.3773  152.8827 C   0  0  0  0  0  0  0  0  0  0  0  0
  145.7134  136.8732  152.5744 C   0  0  0  0  0  0  0  0  0  0  0  0
  144.6301  137.4408  152.4379 O   0  0  0  0  0  0  0  0  0  0  0  0
  146.8982  137.5005  152.5052 N   0  0  0  0  0  0  0  0  0  0  0  0
  147.0900  138.9409  152.3745 C   0  0  0  0  0  0  0  0  0  0  0  0
  147.7233  139.5459  153.6442 C   0  0  0  0  0  0  0  0  0  0  0  0
  148.1972  141.0007  153.4579 C   0  0  0  0  0  0  0  0  0  0  0  0
  148.8872  141.5310  154.7268 C   0  0  0  0  0  0  0  0  0  0  0  0
  150.0319  140.6869  155.0782 N   0  0  0  0  0  0  0  0  0  0  0  0
  150.7045  141.2195  156.2583 C   0  0  0  0  0  0  0  0  0  0  0  0
  151.7874  140.3438  156.7370 C   0  0  0  0  0  0  0  0  0  0  0  0
  152.6388  139.6561  157.1127 N   0  0  0  0  0  0  0  0  0  0  0  0
  149.5714  139.3298  155.3725 C   0  0  0  0  0  0  0  0  0  0  0  0
  148.9158  138.7048  154.1286 C   0  0  0  0  0  0  0  0  0  0  0  0
  144.6480  135.2684  150.5906 C   0  0  0  0  0  0  0  0  0  0  0  0
  144.1290  134.6267  149.5221 N   0  0  0  0  0  0  0  0  0  0  0  0
  144.0648  131.6869  148.0920 H   0  0  0  0  0  0  0  0  0  0  0  0
  143.5366  133.2466  147.4567 H   0  0  0  0  0  0  0  0  0  0  0  0
  142.4708  132.3200  148.5209 H   0  0  0  0  0  0  0  0  0  0  0  0
  144.5369  131.4340  150.6147 H   0  0  0  0  0  0  0  0  0  0  0  0
  145.5042  132.6380  152.5859 H   0  0  0  0  0  0  0  0  0  0  0  0
  145.2095  135.1670  153.8018 H   0  0  0  0  0  0  0  0  0  0  0  0
  146.7897  135.0620  153.0478 H   0  0  0  0  0  0  0  0  0  0  0  0
  147.7316  136.9431  152.6257 H   0  0  0  0  0  0  0  0  0  0  0  0
  147.7467  139.1094  151.5205 H   0  0  0  0  0  0  0  0  0  0  0  0
  146.1523  139.4472  152.1396 H   0  0  0  0  0  0  0  0  0  0  0  0
  146.9677  139.5381  154.4316 H   0  0  0  0  0  0  0  0  0  0  0  0
  148.8837  141.0639  152.6123 H   0  0  0  0  0  0  0  0  0  0  0  0
  147.3542  141.6498  153.2201 H   0  0  0  0  0  0  0  0  0  0  0  0
  149.2210  142.5532  154.5479 H   0  0  0  0  0  0  0  0  0  0  0  0
  148.1787  141.5675  155.5558 H   0  0  0  0  0  0  0  0  0  0  0  0
  151.1153  142.2110  156.0621 H   0  0  0  0  0  0  0  0  0  0  0  0
  149.9925  141.3159  157.0790 H   0  0  0  0  0  0  0  0  0  0  0  0
  150.4201  138.7174  155.6790 H   0  0  0  0  0  0  0  0  0  0  0  0
  148.8688  139.3438  156.2072 H   0  0  0  0  0  0  0  0  0  0  0  0
  148.5869  137.6911  154.3602 H   0  0  0  0  0  0  0  0  0  0  0  0
  149.6566  138.6143  153.3327 H   0  0  0  0  0  0  0  0  0  0  0  0
  144.6653  136.3469  150.5348 H   0  0  0  0  0  0  0  0  0  0  0  0
  1  2  1  0  0  0  0
  1 22  1  0  0  0  0
  1 23  1  0  0  0  0
  1 24  1  0  0  0  0
  2 21  1  0  0  0  0
  2  3  2  0  0  0  0
  3  4  1  0  0  0  0
  3 25  1  0  0  0  0
  4  5  2  0  0  0  0
  4 26  1  0  0  0  0
  5  6  1  0  0  0  0
  5 20  1  0  0  0  0
  6  7  1  0  0  0  0
  6 27  1  0  0  0  0
  6 28  1  0  0  0  0
  7  8  2  0  0  0  0
  7  9  1  0  0  0  0
  9 10  1  0  0  0  0
  9 29  1  0  0  0  0
 10 11  1  0  0  0  0
 10 30  1  0  0  0  0
 10 31  1  0  0  0  0
 11 19  1  0  0  0  0
 11 12  1  0  0  0  0
 11 32  1  0  0  0  0
 12 13  1  0  0  0  0
 12 33  1  0  0  0  0
 12 34  1  0  0  0  0
 13 14  1  0  0  0  0
 13 35  1  0  0  0  0
 13 36  1  0  0  0  0
 14 15  1  0  0  0  0
 14 18  1  0  0  0  0
 15 16  1  0  0  0  0
 15 37  1  0  0  0  0
 15 38  1  0  0  0  0
 16 17  3  0  0  0  0
 18 19  1  0  0  0  0
 18 39  1  0  0  0  0
 18 40  1  0  0  0  0
 19 41  1  0  0  0  0
 19 42  1  0  0  0  0
 20 21  2  0  0  0  0
 20 43  1  0  0  0  0
M  END
> <s_m_source_file>
AV-unprocessed.smi

> <i_m_source_file_index>
677

> <i_lp_mmshare_version>
43012

> <i_f3d_flags>
0

> <s_epik_input>
W0NIM11jMVtjSF1bY0hdYyhbY0hdbjEpW0NIMl1DKD1PKVtOSF1bQ0gyXVtDSF0yW0NIMl1bQ0gyXU4oW0NIMl1DI04pW0NIMl1bQ0gyXTI=

> <s_epik_cmdline>
J2VwaWtfcHl0aG9uJywgJy1waCcsICc3LjAnLCAnLXRuJywgJzgnLCAnLW1hJywgJzIwMCcsICctbWV0YWxfYmluZGluZycsICctaW1hZScsICc8aW5maWxlLm1hZT4nLCAnLW9tYWUnLCAnPG91dGZpbGUubWFlPic=

> <r_epik_Ionization_Penalty>
0.0175809

> <r_epik_Ionization_Penalty_Charging>
0

> <r_epik_Ionization_Penalty_Neutral>
0.0175809

> <r_epik_State_Penalty>
0.0130795

> <r_epik_Charging_Adjusted_Penalty>
0.0130795

> <i_epik_Tot_Q>
0

> <i_epik_Tot_abs_Q>
0

> <r_epik_Metal_State_Penalty>
0.0127214

> <b_epik_Metal_Only>
0

> <s_lp_Force_Field>
OPLS_2005

> <r_lp_Energy>
13.8767

> <b_lp_Chiralities_Consistent>
1

> <s_lp_Variant>
AV-unprocessed.smi:677-1

> <Gold.Version>
5.8.1

> <Gold.Id.Protein>
6NUR|6NUR_protein|mol2

> <Gold.PLP.Fitness>
46.5121

> <Gold.PLP.PLP>
-36.4341

> <Gold.PLP.part.hbond>
-2.9471

> <Gold.PLP.part.metal>
0.0000

> <Gold.PLP.part.buried>
-0.2498

> <Gold.PLP.part.nonpolar>
-34.8283

> <Gold.PLP.part.repulsive>
2.9282

> <Gold.PLP.ligand.clash>
0.0000

> <Gold.PLP.ligand.torsion>
0.1319

> <Gold.PLP.Chemscore.Hbond>
2.4346

> <Gold.PLP.Chemscore.CHOScore>
1.0000

> <Gold.PLP.Chemscore.Metal>
0.0000

> <Gold.Chemscore.Hbonds>
donor molecule, donor type, donor heavy atom, donor atom, acceptor molecule, acceptor atom, score
      L1  H     9    29       P1  7948  0.88
      P1  H  7989  7998       L1    14  0.39
      P1  H  7997  8010       L1    17  1.00
      L1  C    20    43       P1 10171  1.00

> <Gold.PLP.Chemscore.Internal.Correction>
0.0378

> <Gold.Rescore>
     Score         DG    S(hbond)    S(metal)    S(lipo)     H(rot)  DE(clash)    DE(int)     intcor
     15.90     -17.89       1.82        0.00      93.01       1.78       0.41       1.58       ----

> <Gold.Chemscore.Fitness>
15.9044

> <Gold.Chemscore.DG>
-17.8910

> <Gold.Chemscore.ZeroCoef>
-5.4800

> <Gold.Chemscore.Hbond>
1.8183

> <Gold.Chemscore.Metal>
0.0000

> <Gold.Chemscore.Lipo>
93.0110

> <Gold.Chemscore.Internal_Hbond>
0.0000

> <Gold.Chemscore.DEClash>
0.4078

> <Gold.Chemscore.DEInternal>
1.5788

> <Gold.Chemscore.Rot>
1.7751

> <Gold.Chemscore.Internal.Correction>
   9.000000E+99

> <Gold.Chemscore.Hbonds>
donor molecule, donor type, donor heavy atom, donor atom, acceptor molecule, acceptor atom, score
      L1  H     9    29       P1  7948  0.85
      P1  H  7989  7998       L1    14  0.09
      P1  H  7997  8010       L1    17  0.96

> <Gold.Chemscore.Hbond.Weighted>
-6.0730

> <Gold.Chemscore.Metal.Weighted>
-0.0000

> <Gold.Chemscore.Lipo.Weighted>
-10.8823

> <Gold.Chemscore.Internal_Hbond.Weighted>
0.0000

> <Gold.Chemscore.DEClash.Weighted>
0.4078

> <Gold.Chemscore.DEInternal.Weighted>
1.5788

> <Gold.Chemscore.Rot.Weighted>
4.5442

> <Gold.Chemscore.Internal.Correction.Weighted>
   9.000000E+99

> <Gold.Protein.RotatedTorsions>
[ 6907 6896 6895 6894 ] final  138.76 input  -60.11 | X-H torsion
[ 7974 7965 7964 7962 ] final  -41.91 input  175.53 | X-H torsion
[ 8008 7997 7996 7995 ] final   58.60 input   59.86 | X-H torsion
[ 10167 10162 10161 10158 ] final  169.54 input  -65.29 | X-H torsion
[ 10718 10713 10712 10709 ] final -121.28 input   66.30 | X-H torsion
[ 10763 10752 10751 10750 ] final   32.67 input  -60.55 | X-H torsion
[ 11005 11000 10999 10996 ] final   57.15 input  -57.11 | X-H torsion

> <Gold.Protein.ActiveResidues>
 VAL166  LYS551  ARG553  GLY616  TRP617  ASP618  TYR619  PRO620  LYS621  CYS622 
 ASP623  PHE694  ASN695  SER759  ASP760  ASP761  ALA762  ILE779  LEU786  VAL792 
 PHE793  MET794  SER795  GLU796  ALA797  LYS798  CYS799  TRP800  GLU811  SER814 

> <Gold.Protein.RotatedAtoms>
  152.2629  133.5313  159.5392 H   0  0  0  0  0  0  0  0  0  0  0  0  # atno 6907 bound_to 6896
  150.7131  134.0805  159.3905 H   0  0  0  0  0  0  0  0  0  0  0  0  # atno 6908 bound_to 6896
  151.8722  135.0485  160.0531 H   0  0  0  0  0  0  0  0  0  0  0  0  # atno 6909 bound_to 6896
  146.0166  140.6900  142.9198 H   0  0  0  0  0  0  0  0  0  0  0  0  # atno 7974 bound_to 7965
  155.5526  140.3486  155.4472 H   0  0  0  0  0  0  0  0  0  0  0  0  # atno 8008 bound_to 7997
  156.0572  140.1331  157.0008 H   0  0  0  0  0  0  0  0  0  0  0  0  # atno 8009 bound_to 7997
  154.4462  140.0992  156.6448 H   0  0  0  0  0  0  0  0  0  0  0  0  # atno 8010 bound_to 7997
  139.4995  144.3695  151.9740 H   0  0  0  0  0  0  0  0  0  0  0  0  # atno 10167 bound_to 10162
  156.1325  130.6406  150.9643 H   0  0  0  0  0  0  0  0  0  0  0  0  # atno 10718 bound_to 10713
  153.0251  135.6407  154.1391 H   0  0  0  0  0  0  0  0  0  0  0  0  # atno 10763 bound_to 10752
  154.1121  135.2852  155.3230 H   0  0  0  0  0  0  0  0  0  0  0  0  # atno 10764 bound_to 10752
  154.6324  135.5488  153.7758 H   0  0  0  0  0  0  0  0  0  0  0  0  # atno 10765 bound_to 10752
  140.0474  134.5786  155.9305 H   0  0  0  0  0  0  0  0  0  0  0  0  # atno 11005 bound_to 11000
  144.6973  140.3492  143.7185 LP  0  0  0  0  0  0  0  0  0  0  0  0  # atno 17320 bound_to 7965
  145.7259  139.1722  143.2458 LP  0  0  0  0  0  0  0  0  0  0  0  0  # atno 17321 bound_to 7965
  140.3131  144.3515  150.6029 LP  0  0  0  0  0  0  0  0  0  0  0  0  # atno 17342 bound_to 10162
  140.5783  143.2174  151.7475 LP  0  0  0  0  0  0  0  0  0  0  0  0  # atno 17343 bound_to 10162
  157.6501  131.0898  150.8069 LP  0  0  0  0  0  0  0  0  0  0  0  0  # atno 17370 bound_to 10713
  156.8152  130.4965  149.5350 LP  0  0  0  0  0  0  0  0  0  0  0  0  # atno 17371 bound_to 10713
  141.1914  133.6571  156.5453 LP  0  0  0  0  0  0  0  0  0  0  0  0  # atno 17394 bound_to 11000
  140.3971  134.7389  157.4757 LP  0  0  0  0  0  0  0  0  0  0  0  0  # atno 17395 bound_to 11000

$$$$
