AV-unprocessed.smi:2684|AV-procd|sdf|10380|dock10
  -GOLD-   2272014413D 1   1.00000     0.00000
 Structure written by MMmdl.
 44 45  0  0  0  0  0  0  0  0  1 V2000
  144.4049  144.8711  154.1850 C   0  0  0  0  0  0  0  0  0  0  0  0
  145.1723  143.5816  154.2043 C   0  0  0  0  0  0  0  0  0  0  0  0
  145.0483  142.5028  155.1250 C   0  0  0  0  0  0  0  0  0  0  0  0
  145.8852  141.5103  154.8702 N   0  0  0  0  0  0  0  0  0  0  0  0
  146.5626  141.9136  153.7739 N   0  0  0  0  0  0  0  0  0  0  0  0
  147.5925  141.0635  153.2034 C   0  0  0  0  0  0  0  0  0  0  0  0
  147.7089  139.6807  153.8844 C   0  0  2  0  0  0  0  0  0  0  0  0
  148.9203  139.6381  154.8261 C   0  0  0  0  0  0  0  0  0  0  0  0
  147.8982  138.6253  152.8921 N   0  0  0  0  0  0  0  0  0  0  0  0
  146.8902  138.6773  151.8255 C   0  0  0  0  0  0  0  0  0  0  0  0
  145.9462  137.4680  151.8783 C   0  0  0  0  0  0  0  0  0  0  0  0
  144.7387  137.6607  152.0090 O   0  0  0  0  0  0  0  0  0  0  0  0
  146.4280  136.2164  151.7730 N   0  0  0  0  0  0  0  0  0  0  0  0
  145.7017  134.9484  151.7995 C   0  0  0  0  0  0  0  0  0  0  0  0
  146.6586  133.7452  151.7031 C   0  0  0  0  0  0  0  0  0  0  0  0
  145.8680  132.4348  151.5647 C   0  0  0  0  0  0  0  0  0  0  0  0
  145.0184  132.4984  150.4246 O   0  0  0  0  0  0  0  0  0  0  0  0
  144.0395  133.5270  150.5192 C   0  0  0  0  0  0  0  0  0  0  0  0
  144.7216  134.9013  150.6169 C   0  0  0  0  0  0  0  0  0  0  0  0
  146.1553  143.1617  153.3537 C   0  0  0  0  0  0  0  0  0  0  0  0
  143.4361  144.7734  154.6751 H   0  0  0  0  0  0  0  0  0  0  0  0
  144.2177  145.2130  153.1667 H   0  0  0  0  0  0  0  0  0  0  0  0
  144.9459  145.6669  154.6976 H   0  0  0  0  0  0  0  0  0  0  0  0
  144.3814  142.4145  155.9698 H   0  0  0  0  0  0  0  0  0  0  0  0
  147.3978  140.9474  152.1359 H   0  0  0  0  0  0  0  0  0  0  0  0
  148.5407  141.5971  153.2850 H   0  0  0  0  0  0  0  0  0  0  0  0
  146.8220  139.4874  154.4912 H   0  0  0  0  0  0  0  0  0  0  0  0
  148.8331  140.3924  155.6085 H   0  0  0  0  0  0  0  0  0  0  0  0
  149.8516  139.8245  154.2897 H   0  0  0  0  0  0  0  0  0  0  0  0
  149.0054  138.6678  155.3172 H   0  0  0  0  0  0  0  0  0  0  0  0
  147.8690  137.7305  153.3601 H   0  0  0  0  0  0  0  0  0  0  0  0
  146.2849  139.5769  151.9434 H   0  0  0  0  0  0  0  0  0  0  0  0
  147.3858  138.7614  150.8633 H   0  0  0  0  0  0  0  0  0  0  0  0
  147.4267  136.1374  151.6473 H   0  0  0  0  0  0  0  0  0  0  0  0
  145.1156  134.8829  152.7166 H   0  0  0  0  0  0  0  0  0  0  0  0
  147.3132  133.8616  150.8383 H   0  0  0  0  0  0  0  0  0  0  0  0
  147.3081  133.6884  152.5762 H   0  0  0  0  0  0  0  0  0  0  0  0
  146.5531  131.5953  151.4460 H   0  0  0  0  0  0  0  0  0  0  0  0
  145.2788  132.2400  152.4620 H   0  0  0  0  0  0  0  0  0  0  0  0
  143.4028  133.4885  149.6353 H   0  0  0  0  0  0  0  0  0  0  0  0
  143.3946  133.3502  151.3798 H   0  0  0  0  0  0  0  0  0  0  0  0
  143.9689  135.6839  150.7178 H   0  0  0  0  0  0  0  0  0  0  0  0
  145.2541  135.0994  149.6854 H   0  0  0  0  0  0  0  0  0  0  0  0
  146.5946  143.6429  152.4924 H   0  0  0  0  0  0  0  0  0  0  0  0
  1  2  1  0  0  0  0
  1 21  1  0  0  0  0
  1 22  1  0  0  0  0
  1 23  1  0  0  0  0
  2 20  2  0  0  0  0
  2  3  1  0  0  0  0
  3  4  2  0  0  0  0
  3 24  1  0  0  0  0
  4  5  1  0  0  0  0
  5  6  1  0  0  0  0
  5 20  1  0  0  0  0
  6  7  1  0  0  0  0
  6 25  1  0  0  0  0
  6 26  1  0  0  0  0
  7  8  1  0  0  0  0
  7  9  1  0  0  0  0
  7 27  1  0  0  0  0
  8 28  1  0  0  0  0
  8 29  1  0  0  0  0
  8 30  1  0  0  0  0
  9 10  1  0  0  0  0
  9 31  1  0  0  0  0
 10 11  1  0  0  0  0
 10 32  1  0  0  0  0
 10 33  1  0  0  0  0
 11 12  2  0  0  0  0
 11 13  1  0  0  0  0
 13 14  1  0  0  0  0
 13 34  1  0  0  0  0
 14 19  1  0  0  0  0
 14 15  1  0  0  0  0
 14 35  1  0  0  0  0
 15 16  1  0  0  0  0
 15 36  1  0  0  0  0
 15 37  1  0  0  0  0
 16 17  1  0  0  0  0
 16 38  1  0  0  0  0
 16 39  1  0  0  0  0
 17 18  1  0  0  0  0
 18 19  1  0  0  0  0
 18 40  1  0  0  0  0
 18 41  1  0  0  0  0
 19 42  1  0  0  0  0
 19 43  1  0  0  0  0
 20 44  1  0  0  0  0
M  END
> <s_m_source_file>
AV-unprocessed.smi

> <i_m_source_file_index>
2684

> <i_lp_mmshare_version>
43012

> <i_f3d_flags>
0

> <s_epik_input>
W0NIM11jMVtjSF1ubihbY0hdMSlbQ0gyXVtDQEhdKFtDSDNdKVtOSF1bQ0gyXUMoPU8pW05IXVtDSF0yW0NIMl1bQ0gyXU9bQ0gyXVtDSDJdMg==

> <s_epik_cmdline>
J2VwaWtfcHl0aG9uJywgJy1waCcsICc3LjAnLCAnLXRuJywgJzgnLCAnLW1hJywgJzIwMCcsICctbWV0YWxfYmluZGluZycsICctaW1hZScsICc8aW5maWxlLm1hZT4nLCAnLW9tYWUnLCAnPG91dGZpbGUubWFlPic=

> <r_lp_tautomer_probability>
1

> <r_epik_Ionization_Penalty>
0.968507

> <r_epik_Ionization_Penalty_Charging>
0

> <r_epik_Ionization_Penalty_Neutral>
0.968507

> <r_epik_State_Penalty>
1.01412

> <r_epik_Charging_Adjusted_Penalty>
1.01412

> <i_epik_Tot_Q>
0

> <i_epik_Tot_abs_Q>
0

> <r_epik_Metal_State_Penalty>
1.01401

> <b_epik_Metal_Only>
0

> <s_lp_Force_Field>
OPLS_2005

> <r_lp_Energy>
12.1402

> <b_lp_Chiralities_Consistent>
1

> <s_lp_Variant>
AV-unprocessed.smi:2684-3

> <Gold.Version>
5.8.1

> <Gold.Id.Protein>
6NUR|6NUR_protein|mol2

> <Gold.PLP.Fitness>
41.7216

> <Gold.PLP.PLP>
-40.1663

> <Gold.PLP.part.hbond>
-2.8797

> <Gold.PLP.part.metal>
0.0000

> <Gold.PLP.part.buried>
-4.2955

> <Gold.PLP.part.nonpolar>
-33.1573

> <Gold.PLP.part.repulsive>
1.0556

> <Gold.PLP.ligand.clash>
0.0000

> <Gold.PLP.ligand.torsion>
1.0209

> <Gold.PLP.Chemscore.Hbond>
1.1900

> <Gold.PLP.Chemscore.CHOScore>
0.0000

> <Gold.PLP.Chemscore.Metal>
0.0000

> <Gold.Chemscore.Hbonds>
donor molecule, donor type, donor heavy atom, donor atom, acceptor molecule, acceptor atom, score
      L1  H     9    31       P1  7948  0.01
      L1  H    13    34       P1  7948  0.94

> <Gold.PLP.Chemscore.Internal.Correction>
0.0272

> <Gold.Rescore>
     Score         DG    S(hbond)    S(metal)    S(lipo)     H(rot)  DE(clash)    DE(int)     intcor
     12.31     -13.47       1.39        0.00      71.94       1.97       0.11       1.05       ----

> <Gold.Chemscore.Fitness>
12.3120

> <Gold.Chemscore.DG>
-13.4747

> <Gold.Chemscore.ZeroCoef>
-5.4800

> <Gold.Chemscore.Hbond>
1.3862

> <Gold.Chemscore.Metal>
0.0000

> <Gold.Chemscore.Lipo>
71.9407

> <Gold.Chemscore.Internal_Hbond>
0.0000

> <Gold.Chemscore.DEClash>
0.1112

> <Gold.Chemscore.DEInternal>
1.0515

> <Gold.Chemscore.Rot>
1.9736

> <Gold.Chemscore.Internal.Correction>
   9.000000E+99

> <Gold.Chemscore.Hbonds>
donor molecule, donor type, donor heavy atom, donor atom, acceptor molecule, acceptor atom, score
      L1  H     9    31       P1  7948  0.02
      L1  H    13    34       P1  7948  0.90

> <Gold.Chemscore.Hbond.Weighted>
-4.6300

> <Gold.Chemscore.Metal.Weighted>
-0.0000

> <Gold.Chemscore.Lipo.Weighted>
-8.4171

> <Gold.Chemscore.Internal_Hbond.Weighted>
0.0000

> <Gold.Chemscore.DEClash.Weighted>
0.1112

> <Gold.Chemscore.DEInternal.Weighted>
1.0515

> <Gold.Chemscore.Rot.Weighted>
5.0523

> <Gold.Chemscore.Internal.Correction.Weighted>
   9.000000E+99

> <Gold.Protein.RotatedTorsions>
[ 6907 6896 6895 6894 ] final  112.30 input  -60.11 | X-H torsion
[ 7974 7965 7964 7962 ] final  -31.26 input  175.53 | X-H torsion
[ 8008 7997 7996 7995 ] final  -81.53 input   59.86 | X-H torsion
[ 10167 10162 10161 10158 ] final  -24.60 input  -65.29 | X-H torsion
[ 10718 10713 10712 10709 ] final -145.46 input   66.30 | X-H torsion
[ 10763 10752 10751 10750 ] final   20.30 input  -60.55 | X-H torsion
[ 11005 11000 10999 10996 ] final  -27.53 input  -57.11 | X-H torsion

> <Gold.Protein.ActiveResidues>
 VAL166  LYS551  ARG553  GLY616  TRP617  ASP618  TYR619  PRO620  LYS621  CYS622 
 ASP623  PHE694  ASN695  SER759  ASP760  ASP761  ALA762  ILE779  LEU786  VAL792 
 PHE793  MET794  SER795  GLU796  ALA797  LYS798  CYS799  TRP800  GLU811  SER814 

> <Gold.Protein.RotatedAtoms>
  152.4924  133.8536  159.7213 H   0  0  0  0  0  0  0  0  0  0  0  0  # atno 6907 bound_to 6896
  150.9066  133.7041  159.2872 H   0  0  0  0  0  0  0  0  0  0  0  0  # atno 6908 bound_to 6896
  151.4464  135.1029  159.9737 H   0  0  0  0  0  0  0  0  0  0  0  0  # atno 6909 bound_to 6896
  146.1081  140.5644  142.8790 H   0  0  0  0  0  0  0  0  0  0  0  0  # atno 7974 bound_to 7965
  154.5992  140.0646  156.9346 H   0  0  0  0  0  0  0  0  0  0  0  0  # atno 8008 bound_to 7997
  155.2161  140.3326  155.4304 H   0  0  0  0  0  0  0  0  0  0  0  0  # atno 8009 bound_to 7997
  156.2307  140.1840  156.7233 H   0  0  0  0  0  0  0  0  0  0  0  0  # atno 8010 bound_to 7997
  140.7288  143.4339  151.0760 H   0  0  0  0  0  0  0  0  0  0  0  0  # atno 10167 bound_to 10162
  156.3828  130.7846  151.2040 H   0  0  0  0  0  0  0  0  0  0  0  0  # atno 10718 bound_to 10713
  153.1089  135.6691  153.9536 H   0  0  0  0  0  0  0  0  0  0  0  0  # atno 10763 bound_to 10752
  153.9085  135.3028  155.3450 H   0  0  0  0  0  0  0  0  0  0  0  0  # atno 10764 bound_to 10752
  154.7509  135.5035  153.9364 H   0  0  0  0  0  0  0  0  0  0  0  0  # atno 10765 bound_to 10752
  140.9127  133.7450  156.0693 H   0  0  0  0  0  0  0  0  0  0  0  0  # atno 11005 bound_to 11000
  144.7488  140.5137  143.6816 LP  0  0  0  0  0  0  0  0  0  0  0  0  # atno 17320 bound_to 7965
  145.5719  139.1484  143.3283 LP  0  0  0  0  0  0  0  0  0  0  0  0  # atno 17321 bound_to 7965
  139.7999  143.8099  152.3161 LP  0  0  0  0  0  0  0  0  0  0  0  0  # atno 17342 bound_to 10162
  139.8112  144.7335  150.9695 LP  0  0  0  0  0  0  0  0  0  0  0  0  # atno 17343 bound_to 10162
  157.7493  131.0339  150.4292 LP  0  0  0  0  0  0  0  0  0  0  0  0  # atno 17370 bound_to 10713
  156.4539  130.4017  149.6618 LP  0  0  0  0  0  0  0  0  0  0  0  0  # atno 17371 bound_to 10713
  140.8089  134.3422  157.5417 LP  0  0  0  0  0  0  0  0  0  0  0  0  # atno 17394 bound_to 11000
  139.8760  134.9242  156.3344 LP  0  0  0  0  0  0  0  0  0  0  0  0  # atno 17395 bound_to 11000

$$$$
