AV-unprocessed.smi:2639|AV-procd|sdf|10265|dock1
  -GOLD-   2272014273D 1   1.00000     0.00000
 Structure written by MMmdl.
 43 44  0  0  0  0  0  0  0  0  1 V2000
  147.0996  137.1392  156.1968 C   0  0  0  0  0  0  0  0  0  0  0  0
  147.2631  137.7949  154.8009 C   0  0  2  0  0  0  0  0  0  0  0  0
  146.0252  138.6842  154.5013 C   0  0  0  0  0  0  0  0  0  0  0  0
  146.1042  139.3008  153.2302 O   0  0  0  0  0  0  0  0  0  0  0  0
  147.2771  136.7474  153.7662 N   0  0  0  0  0  0  0  0  0  0  0  0
  146.2558  136.0079  153.2999 C   0  0  0  0  0  0  0  0  0  0  0  0
  145.0973  136.1009  153.7040 O   0  0  0  0  0  0  0  0  0  0  0  0
  146.6729  135.1761  152.3295 N   0  0  0  0  0  0  0  0  0  0  0  0
  145.9266  134.2060  151.6063 C   0  0  0  0  0  0  0  0  0  0  0  0
  146.6388  133.1574  150.9880 C   0  0  0  0  0  0  0  0  0  0  0  0
  145.9204  132.1728  150.2805 C   0  0  0  0  0  0  0  0  0  0  0  0
  144.5755  132.1725  150.1684 N   0  0  0  0  0  0  0  0  0  0  0  0
  143.8945  133.1689  150.7728 C   0  0  0  0  0  0  0  0  0  0  0  0
  144.5144  134.2018  151.5042 C   0  0  0  0  0  0  0  0  0  0  0  0
  148.5905  138.6347  154.7363 C   0  0  0  0  0  0  0  0  0  0  0  0
  149.8872  137.8012  154.9032 C   0  0  0  0  0  0  0  0  0  0  0  0
  151.1473  138.6593  154.7037 C   0  0  0  0  0  0  0  0  0  0  0  0
  151.1647  139.8556  155.6653 C   0  0  0  0  0  0  0  0  0  0  0  0
  149.8895  140.6968  155.5162 C   0  0  0  0  0  0  0  0  0  0  0  0
  148.6278  139.8410  155.7119 C   0  0  0  0  0  0  0  0  0  0  0  0
  146.8372  137.8730  156.9586 H   0  0  0  0  0  0  0  0  0  0  0  0
  148.0136  136.6450  156.5262 H   0  0  0  0  0  0  0  0  0  0  0  0
  146.3088  136.3880  156.1971 H   0  0  0  0  0  0  0  0  0  0  0  0
  145.1073  138.0980  154.5137 H   0  0  0  0  0  0  0  0  0  0  0  0
  145.9098  139.4695  155.2480 H   0  0  0  0  0  0  0  0  0  0  0  0
  145.3615  139.8766  153.1290 H   0  0  0  0  0  0  0  0  0  0  0  0
  148.1788  136.5836  153.3429 H   0  0  0  0  0  0  0  0  0  0  0  0
  147.6356  135.2786  152.0442 H   0  0  0  0  0  0  0  0  0  0  0  0
  147.7162  133.1068  151.0470 H   0  0  0  0  0  0  0  0  0  0  0  0
  146.4412  131.3622  149.7929 H   0  0  0  0  0  0  0  0  0  0  0  0
  142.8192  133.1392  150.6767 H   0  0  0  0  0  0  0  0  0  0  0  0
  143.8991  134.9518  151.9760 H   0  0  0  0  0  0  0  0  0  0  0  0
  148.6467  139.0565  153.7324 H   0  0  0  0  0  0  0  0  0  0  0  0
  149.9271  137.3512  155.8948 H   0  0  0  0  0  0  0  0  0  0  0  0
  149.9158  136.9802  154.1880 H   0  0  0  0  0  0  0  0  0  0  0  0
  152.0390  138.0501  154.8540 H   0  0  0  0  0  0  0  0  0  0  0  0
  151.1881  139.0166  153.6741 H   0  0  0  0  0  0  0  0  0  0  0  0
  151.2509  139.4990  156.6925 H   0  0  0  0  0  0  0  0  0  0  0  0
  152.0428  140.4736  155.4762 H   0  0  0  0  0  0  0  0  0  0  0  0
  149.8986  141.5144  156.2376 H   0  0  0  0  0  0  0  0  0  0  0  0
  149.8682  141.1578  154.5279 H   0  0  0  0  0  0  0  0  0  0  0  0
  147.7561  140.4808  155.5770 H   0  0  0  0  0  0  0  0  0  0  0  0
  148.5970  139.4932  156.7441 H   0  0  0  0  0  0  0  0  0  0  0  0
  1  2  1  0  0  0  0
  1 21  1  0  0  0  0
  1 22  1  0  0  0  0
  1 23  1  0  0  0  0
  2  3  1  0  0  0  0
  2  5  1  0  0  0  0
  2 15  1  0  0  0  0
  3  4  1  0  0  0  0
  3 24  1  0  0  0  0
  3 25  1  0  0  0  0
  4 26  1  0  0  0  0
  5  6  1  0  0  0  0
  5 27  1  0  0  0  0
  6  7  2  0  0  0  0
  6  8  1  0  0  0  0
  8  9  1  0  0  0  0
  8 28  1  0  0  0  0
  9 14  1  0  0  0  0
  9 10  2  0  0  0  0
 10 11  1  0  0  0  0
 10 29  1  0  0  0  0
 11 12  2  0  0  0  0
 11 30  1  0  0  0  0
 12 13  1  0  0  0  0
 13 14  2  0  0  0  0
 13 31  1  0  0  0  0
 14 32  1  0  0  0  0
 15 20  1  0  0  0  0
 15 16  1  0  0  0  0
 15 33  1  0  0  0  0
 16 17  1  0  0  0  0
 16 34  1  0  0  0  0
 16 35  1  0  0  0  0
 17 18  1  0  0  0  0
 17 36  1  0  0  0  0
 17 37  1  0  0  0  0
 18 19  1  0  0  0  0
 18 38  1  0  0  0  0
 18 39  1  0  0  0  0
 19 20  1  0  0  0  0
 19 40  1  0  0  0  0
 19 41  1  0  0  0  0
 20 42  1  0  0  0  0
 20 43  1  0  0  0  0
M  END
> <s_m_source_file>
AV-unprocessed.smi

> <i_m_source_file_index>
2639

> <i_lp_mmshare_version>
43012

> <i_f3d_flags>
0

> <s_epik_input>
W0NIMl0xW0NIMl1bQ0gyXVtDSDJdW0NIMl1bQ0hdMVtDQF0oW0NIM10pKFtDSDJdW09IXSlbTkhdQyg9TylbTkhdYzJbY0hdW2NIXW5bY0hdW2NIXTI=

> <s_epik_cmdline>
J2VwaWtfcHl0aG9uJywgJy1waCcsICc3LjAnLCAnLXRuJywgJzgnLCAnLW1hJywgJzIwMCcsICctbWV0YWxfYmluZGluZycsICctaW1hZScsICc8aW5maWxlLm1hZT4nLCAnLW9tYWUnLCAnPG91dGZpbGUubWFlPic=

> <r_epik_Ionization_Penalty>
0.119032

> <r_epik_Ionization_Penalty_Charging>
0

> <r_epik_Ionization_Penalty_Neutral>
0.119032

> <r_epik_State_Penalty>
0.108564

> <r_epik_Charging_Adjusted_Penalty>
0.108564

> <i_epik_Tot_Q>
0

> <i_epik_Tot_abs_Q>
0

> <r_epik_Metal_State_Penalty>
0.0902516

> <b_epik_Metal_Only>
0

> <s_lp_Force_Field>
OPLS_2005

> <r_lp_Energy>
26.8318

> <b_lp_Chiralities_Consistent>
1

> <s_lp_Variant>
AV-unprocessed.smi:2639-2

> <Gold.Version>
5.8.1

> <Gold.Id.Protein>
6NUR|6NUR_protein|mol2

> <Gold.PLP.Fitness>
41.9478

> <Gold.PLP.PLP>
-28.1319

> <Gold.PLP.part.hbond>
-2.9011

> <Gold.PLP.part.metal>
0.0000

> <Gold.PLP.part.buried>
-3.7839

> <Gold.PLP.part.nonpolar>
-22.4565

> <Gold.PLP.part.repulsive>
0.2360

> <Gold.PLP.ligand.clash>
0.0000

> <Gold.PLP.ligand.torsion>
0.3843

> <Gold.PLP.Chemscore.Hbond>
2.8800

> <Gold.PLP.Chemscore.CHOScore>
1.9558

> <Gold.PLP.Chemscore.Metal>
0.0000

> <Gold.Chemscore.Hbonds>
donor molecule, donor type, donor heavy atom, donor atom, acceptor molecule, acceptor atom, score
      L1  H     4    26       P1 10175  1.00
      L1  H     5    27       P1  7948  0.88
      L1  H     8    28       P1  7948  1.00
      L1  C    11    30       P1 10747  0.68
      L1  C    13    31       P1 10186  1.00

> <Gold.PLP.Chemscore.Internal.Correction>
0.0771

> <Gold.Rescore>
     Score         DG    S(hbond)    S(metal)    S(lipo)     H(rot)  DE(clash)    DE(int)     intcor
     16.48     -18.73       2.94        0.00      72.62       1.98       0.04       2.20       ----

> <Gold.Chemscore.Fitness>
16.4836

> <Gold.Chemscore.DG>
-18.7270

> <Gold.Chemscore.ZeroCoef>
-5.4800

> <Gold.Chemscore.Hbond>
2.9399

> <Gold.Chemscore.Metal>
0.0000

> <Gold.Chemscore.Lipo>
72.6156

> <Gold.Chemscore.Internal_Hbond>
0.0000

> <Gold.Chemscore.DEClash>
0.0447

> <Gold.Chemscore.DEInternal>
2.1987

> <Gold.Chemscore.Rot>
1.9798

> <Gold.Chemscore.Internal.Correction>
   9.000000E+99

> <Gold.Chemscore.Hbonds>
donor molecule, donor type, donor heavy atom, donor atom, acceptor molecule, acceptor atom, score
      L1  H     4    26       P1 10175  0.99
      L1  H     5    27       P1  7948  0.86
      L1  H     8    28       P1  7948  0.92

> <Gold.Chemscore.Hbond.Weighted>
-9.8191

> <Gold.Chemscore.Metal.Weighted>
-0.0000

> <Gold.Chemscore.Lipo.Weighted>
-8.4960

> <Gold.Chemscore.Internal_Hbond.Weighted>
0.0000

> <Gold.Chemscore.DEClash.Weighted>
0.0447

> <Gold.Chemscore.DEInternal.Weighted>
2.1987

> <Gold.Chemscore.Rot.Weighted>
5.0682

> <Gold.Chemscore.Internal.Correction.Weighted>
   9.000000E+99

> <Gold.Protein.RotatedTorsions>
[ 6907 6896 6895 6894 ] final  131.94 input  -60.11 | X-H torsion
[ 7974 7965 7964 7962 ] final  174.04 input  175.53 | X-H torsion
[ 8008 7997 7996 7995 ] final  -59.79 input   59.86 | X-H torsion
[ 10167 10162 10161 10158 ] final  -88.85 input  -65.29 | X-H torsion
[ 10718 10713 10712 10709 ] final  -29.64 input   66.30 | X-H torsion
[ 10763 10752 10751 10750 ] final -155.61 input  -60.55 | X-H torsion
[ 11005 11000 10999 10996 ] final  -69.80 input  -57.11 | X-H torsion

> <Gold.Protein.ActiveResidues>
 VAL166  LYS551  ARG553  GLY616  TRP617  ASP618  TYR619  PRO620  LYS621  CYS622 
 ASP623  PHE694  ASN695  SER759  ASP760  ASP761  ALA762  ILE779  LEU786  VAL792 
 PHE793  MET794  SER795  GLU796  ALA797  LYS798  CYS799  TRP800  GLU811  SER814 

> <Gold.Protein.RotatedAtoms>
  152.3375  133.6029  159.5852 H   0  0  0  0  0  0  0  0  0  0  0  0  # atno 6907 bound_to 6896
  150.7459  133.9773  159.3574 H   0  0  0  0  0  0  0  0  0  0  0  0  # atno 6908 bound_to 6896
  151.7641  135.0803  160.0401 H   0  0  0  0  0  0  0  0  0  0  0  0  # atno 6909 bound_to 6896
  144.7230  139.9738  143.6437 H   0  0  0  0  0  0  0  0  0  0  0  0  # atno 7974 bound_to 7965
  154.4368  140.1054  156.6171 H   0  0  0  0  0  0  0  0  0  0  0  0  # atno 8008 bound_to 7997
  155.5747  140.3490  155.4505 H   0  0  0  0  0  0  0  0  0  0  0  0  # atno 8009 bound_to 7997
  156.0364  140.1272  157.0193 H   0  0  0  0  0  0  0  0  0  0  0  0  # atno 8010 bound_to 7997
  140.3706  143.2796  151.9505 H   0  0  0  0  0  0  0  0  0  0  0  0  # atno 10167 bound_to 10162
  156.4098  130.4406  149.7260 H   0  0  0  0  0  0  0  0  0  0  0  0  # atno 10718 bound_to 10713
  154.7774  135.3164  154.8062 H   0  0  0  0  0  0  0  0  0  0  0  0  # atno 10763 bound_to 10752
  153.8782  135.6837  153.4773 H   0  0  0  0  0  0  0  0  0  0  0  0  # atno 10764 bound_to 10752
  153.1401  135.4742  154.9419 H   0  0  0  0  0  0  0  0  0  0  0  0  # atno 10765 bound_to 10752
  141.1561  133.6773  156.6655 H   0  0  0  0  0  0  0  0  0  0  0  0  # atno 11005 bound_to 11000
  146.0542  139.3540  143.0621 LP  0  0  0  0  0  0  0  0  0  0  0  0  # atno 17320 bound_to 7965
  145.8176  140.9695  143.0916 LP  0  0  0  0  0  0  0  0  0  0  0  0  # atno 17321 bound_to 7965
  139.4804  144.5910  151.7771 LP  0  0  0  0  0  0  0  0  0  0  0  0  # atno 17342 bound_to 10162
  140.5037  144.1130  150.5977 LP  0  0  0  0  0  0  0  0  0  0  0  0  # atno 17343 bound_to 10162
  156.4243  130.7784  151.2802 LP  0  0  0  0  0  0  0  0  0  0  0  0  # atno 17370 bound_to 10713
  157.7506  131.0173  150.3580 LP  0  0  0  0  0  0  0  0  0  0  0  0  # atno 17371 bound_to 10713
  140.3214  134.8004  157.4255 LP  0  0  0  0  0  0  0  0  0  0  0  0  # atno 17394 bound_to 11000
  140.1093  134.5366  155.8280 LP  0  0  0  0  0  0  0  0  0  0  0  0  # atno 17395 bound_to 11000

$$$$
