AV-unprocessed.smi:1645|AV-procd|sdf|6601|dock1
  -GOLD-   22720 7303D 1   1.00000     0.00000
 Structure written by MMmdl.
 55 58  0  0  0  0  0  0  0  0  2 V2000
  146.6540  137.9419  155.3075 O   0  0  0  0  0  0  0  0  0  0  0  0
  147.3823  137.5332  154.4043 C   0  0  0  0  0  0  0  0  0  0  0  0
  148.6661  137.8816  154.2120 N   0  0  0  0  0  0  0  0  0  0  0  0
  149.4789  138.7790  154.9586 C   0  0  0  0  0  0  0  0  0  0  0  0
  150.8489  139.0327  154.7114 C   0  0  0  0  0  0  0  0  0  0  0  0
  151.5317  139.9517  155.5309 C   0  0  0  0  0  0  0  0  0  0  0  0
  150.8340  140.6044  156.5739 C   0  0  0  0  0  0  0  0  0  0  0  0
  151.5016  141.5276  157.4084 N   0  0  0  0  0  0  0  0  0  0  0  0
  151.9121  141.0713  158.7392 C   0  0  0  0  0  0  0  0  0  0  0  0
  152.9531  142.0203  159.3567 C   0  0  0  0  0  0  0  0  0  0  0  0
  152.4443  143.4689  159.3618 C   0  0  0  0  0  0  0  0  0  0  0  0
  152.0388  143.8871  157.9409 C   0  0  0  0  0  0  0  0  0  0  0  0
  151.0125  142.9070  157.3467 C   0  0  0  0  0  0  0  0  0  0  0  0
  149.5206  140.3624  156.8047 N   0  0  0  0  0  0  0  0  0  0  0  0
  148.8700  139.4807  156.0177 C   0  0  0  0  0  0  0  0  0  0  0  0
  146.9739  136.6622  153.4701 N   0  0  0  0  0  0  0  0  0  0  0  0
  145.6267  136.1022  153.3733 C   0  0  1  0  0  0  0  0  0  0  0  0
  144.6687  136.9723  152.5377 C   0  0  0  0  0  0  0  0  0  0  0  0
  143.8308  135.9661  151.7426 C   0  0  0  0  0  0  0  0  0  0  0  0
  144.7825  134.8784  151.4907 N   0  3  2  0  0  0  0  0  0  0  0  0
  144.2748  133.6039  150.9448 C   0  0  0  0  0  0  0  0  0  0  0  0
  145.4848  132.7144  150.5870 C   0  0  0  0  0  0  0  0  0  0  0  0
  146.4667  132.5577  151.7707 C   0  0  0  0  0  0  0  0  0  0  0  0
  146.8525  133.9214  152.3852 C   0  0  0  0  0  0  0  0  0  0  0  0
  145.5676  134.6985  152.7241 C   0  0  1  0  0  0  0  0  0  0  0  0
  149.1132  137.4801  153.4007 H   0  0  0  0  0  0  0  0  0  0  0  0
  151.3950  138.5522  153.9160 H   0  0  0  0  0  0  0  0  0  0  0  0
  152.5821  140.1333  155.3586 H   0  0  0  0  0  0  0  0  0  0  0  0
  151.0330  141.0123  159.3823 H   0  0  0  0  0  0  0  0  0  0  0  0
  152.3375  140.0686  158.6810 H   0  0  0  0  0  0  0  0  0  0  0  0
  153.1909  141.7024  160.3721 H   0  0  0  0  0  0  0  0  0  0  0  0
  153.8820  141.9619  158.7878 H   0  0  0  0  0  0  0  0  0  0  0  0
  151.5869  143.5558  160.0304 H   0  0  0  0  0  0  0  0  0  0  0  0
  153.2134  144.1381  159.7481 H   0  0  0  0  0  0  0  0  0  0  0  0
  151.6272  144.8967  157.9511 H   0  0  0  0  0  0  0  0  0  0  0  0
  152.9232  143.9193  157.3033 H   0  0  0  0  0  0  0  0  0  0  0  0
  150.7846  143.2126  156.3266 H   0  0  0  0  0  0  0  0  0  0  0  0
  150.0773  142.9673  157.9045 H   0  0  0  0  0  0  0  0  0  0  0  0
  147.8253  139.3285  156.2463 H   0  0  0  0  0  0  0  0  0  0  0  0
  147.6374  136.3804  152.7632 H   0  0  0  0  0  0  0  0  0  0  0  0
  145.2073  136.0278  154.3787 H   0  0  0  0  0  0  0  0  0  0  0  0
  144.0558  137.6330  153.1518 H   0  0  0  0  0  0  0  0  0  0  0  0
  145.2331  137.5971  151.8434 H   0  0  0  0  0  0  0  0  0  0  0  0
  142.9984  135.5972  152.3441 H   0  0  0  0  0  0  0  0  0  0  0  0
  143.4336  136.3847  150.8176 H   0  0  0  0  0  0  0  0  0  0  0  0
  143.6298  133.1114  151.6741 H   0  0  0  0  0  0  0  0  0  0  0  0
  143.6725  133.7960  150.0563 H   0  0  0  0  0  0  0  0  0  0  0  0
  145.1428  131.7346  150.2522 H   0  0  0  0  0  0  0  0  0  0  0  0
  146.0152  133.1576  149.7429 H   0  0  0  0  0  0  0  0  0  0  0  0
  146.0032  131.9367  152.5385 H   0  0  0  0  0  0  0  0  0  0  0  0
  147.3619  132.0261  151.4469 H   0  0  0  0  0  0  0  0  0  0  0  0
  147.4527  133.7621  153.2813 H   0  0  0  0  0  0  0  0  0  0  0  0
  147.4676  134.4881  151.6848 H   0  0  0  0  0  0  0  0  0  0  0  0
  144.9755  134.0782  153.4007 H   0  0  0  0  0  0  0  0  0  0  0  0
  145.4274  135.2436  150.8046 H   0  0  0  0  0  0  0  0  0  0  0  0
  1  2  2  0  0  0  0
  2  3  1  0  0  0  0
  2 16  1  0  0  0  0
  3  4  1  0  0  0  0
  3 26  1  0  0  0  0
  4 15  1  0  0  0  0
  4  5  2  0  0  0  0
  5  6  1  0  0  0  0
  5 27  1  0  0  0  0
  6  7  2  0  0  0  0
  6 28  1  0  0  0  0
  7  8  1  0  0  0  0
  7 14  1  0  0  0  0
  8 13  1  0  0  0  0
  8  9  1  0  0  0  0
  9 10  1  0  0  0  0
  9 29  1  0  0  0  0
  9 30  1  0  0  0  0
 10 11  1  0  0  0  0
 10 31  1  0  0  0  0
 10 32  1  0  0  0  0
 11 12  1  0  0  0  0
 11 33  1  0  0  0  0
 11 34  1  0  0  0  0
 12 13  1  0  0  0  0
 12 35  1  0  0  0  0
 12 36  1  0  0  0  0
 13 37  1  0  0  0  0
 13 38  1  0  0  0  0
 14 15  2  0  0  0  0
 15 39  1  0  0  0  0
 16 17  1  0  0  0  0
 16 40  1  0  0  0  0
 17 25  1  0  0  0  0
 17 18  1  0  0  0  0
 17 41  1  0  0  0  0
 18 19  1  0  0  0  0
 18 42  1  0  0  0  0
 18 43  1  0  0  0  0
 19 20  1  0  0  0  0
 19 44  1  0  0  0  0
 19 45  1  0  0  0  0
 20 25  1  0  0  0  0
 20 21  1  0  0  0  0
 20 55  1  0  0  0  0
 21 22  1  0  0  0  0
 21 46  1  0  0  0  0
 21 47  1  0  0  0  0
 22 23  1  0  0  0  0
 22 48  1  0  0  0  0
 22 49  1  0  0  0  0
 23 24  1  0  0  0  0
 23 50  1  0  0  0  0
 23 51  1  0  0  0  0
 24 25  1  0  0  0  0
 24 52  1  0  0  0  0
 24 53  1  0  0  0  0
 25 54  1  0  0  0  0
M  CHG  1  20   1
M  END
> <s_m_source_file>
AV-unprocessed.smi

> <i_m_source_file_index>
1645

> <i_lp_mmshare_version>
43012

> <i_f3d_flags>
0

> <s_epik_input>
W0NIMl0xW0NIMl1bQ0gyXVtDSDJdW0NASF0oTjEyKVtDQEBIXShbQ0gyXVtDSDJdMilbTkhdQyg9TylbTkhdYzNbY0hdW2NIXWMobltjSF0zKU40W0NIMl1bQ0gyXVtDSDJdW0NIMl1bQ0gyXTQ=

> <s_epik_cmdline>
J2VwaWtfcHl0aG9uJywgJy1waCcsICc3LjAnLCAnLXRuJywgJzgnLCAnLW1hJywgJzIwMCcsICctbWV0YWxfYmluZGluZycsICctaW1hZScsICc8aW5maWxlLm1hZT4nLCAnLW9tYWUnLCAnPG91dGZpbGUubWFlPic=

> <r_lp_tautomer_probability>
1

> <r_epik_Ionization_Penalty>
0.0808019

> <r_epik_Ionization_Penalty_Charging>
0.000974069

> <r_epik_Ionization_Penalty_Neutral>
0.0798278

> <r_epik_State_Penalty>
0.0653665

> <r_epik_Charging_Adjusted_Penalty>
0.0663406

> <i_epik_Tot_Q>
1

> <i_epik_Tot_abs_Q>
1

> <r_epik_Metal_State_Penalty>
0.0585673

> <b_epik_Metal_Only>
0

> <s_lp_Force_Field>
OPLS_2005

> <r_lp_Energy>
56.9849

> <b_lp_Chiralities_Consistent>
1

> <s_lp_Variant>
AV-unprocessed.smi:1645-2

> <Gold.Version>
5.8.1

> <Gold.Id.Protein>
6NUR|6NUR_protein|mol2

> <Gold.PLP.Fitness>
47.2581

> <Gold.PLP.PLP>
-42.1664

> <Gold.PLP.part.hbond>
-2.0000

> <Gold.PLP.part.metal>
0.0000

> <Gold.PLP.part.buried>
-4.3893

> <Gold.PLP.part.nonpolar>
-35.8710

> <Gold.PLP.part.repulsive>
0.0671

> <Gold.PLP.ligand.clash>
0.0000

> <Gold.PLP.ligand.torsion>
0.6372

> <Gold.PLP.Chemscore.Hbond>
1.9760

> <Gold.PLP.Chemscore.CHOScore>
0.0000

> <Gold.PLP.Chemscore.Metal>
0.0000

> <Gold.Chemscore.Hbonds>
donor molecule, donor type, donor heavy atom, donor atom, acceptor molecule, acceptor atom, score
      L1  H     3    26       P1  7948  0.96
      L1  H    16    40       P1  7948  1.00

> <Gold.PLP.Chemscore.Internal.Correction>
0.4382

> <Gold.Rescore>
     Score         DG    S(hbond)    S(metal)    S(lipo)     H(rot)  DE(clash)    DE(int)     intcor
     20.29     -22.36       1.95        0.00     114.17       1.17       0.04       2.03       ----

> <Gold.Chemscore.Fitness>
20.2893

> <Gold.Chemscore.DG>
-22.3550

> <Gold.Chemscore.ZeroCoef>
-5.4800

> <Gold.Chemscore.Hbond>
1.9523

> <Gold.Chemscore.Metal>
0.0000

> <Gold.Chemscore.Lipo>
114.1675

> <Gold.Chemscore.Internal_Hbond>
0.0000

> <Gold.Chemscore.DEClash>
0.0407

> <Gold.Chemscore.DEInternal>
2.0250

> <Gold.Chemscore.Rot>
1.1731

> <Gold.Chemscore.Internal.Correction>
   9.000000E+99

> <Gold.Chemscore.Hbonds>
donor molecule, donor type, donor heavy atom, donor atom, acceptor molecule, acceptor atom, score
      L1  H     3    26       P1  7948  0.90
      L1  H    16    40       P1  7948  0.99

> <Gold.Chemscore.Hbond.Weighted>
-6.5206

> <Gold.Chemscore.Metal.Weighted>
-0.0000

> <Gold.Chemscore.Lipo.Weighted>
-13.3576

> <Gold.Chemscore.Internal_Hbond.Weighted>
0.0000

> <Gold.Chemscore.DEClash.Weighted>
0.0407

> <Gold.Chemscore.DEInternal.Weighted>
2.0250

> <Gold.Chemscore.Rot.Weighted>
3.0032

> <Gold.Chemscore.Internal.Correction.Weighted>
   9.000000E+99

> <Gold.Protein.RotatedTorsions>
[ 6907 6896 6895 6894 ] final   52.05 input  -60.11 | X-H torsion
[ 7974 7965 7964 7962 ] final  153.31 input  175.53 | X-H torsion
[ 8008 7997 7996 7995 ] final -168.81 input   59.86 | X-H torsion
[ 10167 10162 10161 10158 ] final   40.03 input  -65.29 | X-H torsion
[ 10718 10713 10712 10709 ] final -113.94 input   66.30 | X-H torsion
[ 10763 10752 10751 10750 ] final -113.34 input  -60.55 | X-H torsion
[ 11005 11000 10999 10996 ] final -148.74 input  -57.11 | X-H torsion

> <Gold.Protein.ActiveResidues>
 VAL166  LYS551  ARG553  GLY616  TRP617  ASP618  TYR619  PRO620  LYS621  CYS622 
 ASP623  PHE694  ASN695  SER759  ASP760  ASP761  ALA762  ILE779  LEU786  VAL792 
 PHE793  MET794  SER795  GLU796  ALA797  LYS798  CYS799  TRP800  GLU811  SER814 

> <Gold.Protein.RotatedAtoms>
  152.3192  134.7401  160.0317 H   0  0  0  0  0  0  0  0  0  0  0  0  # atno 6907 bound_to 6896
  151.7856  133.3348  159.3492 H   0  0  0  0  0  0  0  0  0  0  0  0  # atno 6908 bound_to 6896
  150.7361  134.5821  159.5989 H   0  0  0  0  0  0  0  0  0  0  0  0  # atno 6909 bound_to 6896
  144.8163  139.6784  143.6120 H   0  0  0  0  0  0  0  0  0  0  0  0  # atno 7974 bound_to 7965
  155.8964  140.1033  157.1381 H   0  0  0  0  0  0  0  0  0  0  0  0  # atno 8008 bound_to 7997
  154.4021  140.1301  156.4445 H   0  0  0  0  0  0  0  0  0  0  0  0  # atno 8009 bound_to 7997
  155.7474  140.3466  155.5136 H   0  0  0  0  0  0  0  0  0  0  0  0  # atno 8010 bound_to 7997
  140.3781  144.2016  150.6131 H   0  0  0  0  0  0  0  0  0  0  0  0  # atno 10167 bound_to 10162
  156.0798  130.6000  150.8709 H   0  0  0  0  0  0  0  0  0  0  0  0  # atno 10718 bound_to 10713
  154.8392  135.4458  154.1335 H   0  0  0  0  0  0  0  0  0  0  0  0  # atno 10763 bound_to 10752
  153.2539  135.6929  153.7656 H   0  0  0  0  0  0  0  0  0  0  0  0  # atno 10764 bound_to 10752
  153.6958  135.3380  155.3189 H   0  0  0  0  0  0  0  0  0  0  0  0  # atno 10765 bound_to 10752
  140.7581  134.3330  157.5109 H   0  0  0  0  0  0  0  0  0  0  0  0  # atno 11005 bound_to 11000
  146.2466  139.6111  142.9455 LP  0  0  0  0  0  0  0  0  0  0  0  0  # atno 17320 bound_to 7965
  145.5207  141.0432  143.2437 LP  0  0  0  0  0  0  0  0  0  0  0  0  # atno 17321 bound_to 7965
  140.4965  143.2331  151.8742 LP  0  0  0  0  0  0  0  0  0  0  0  0  # atno 17342 bound_to 10162
  139.4797  144.5108  151.8935 LP  0  0  0  0  0  0  0  0  0  0  0  0  # atno 17343 bound_to 10162
  157.5910  131.0944  150.9118 LP  0  0  0  0  0  0  0  0  0  0  0  0  # atno 17370 bound_to 10713
  156.9294  130.5344  149.5279 LP  0  0  0  0  0  0  0  0  0  0  0  0  # atno 17371 bound_to 10713
  139.8775  134.9184  156.3203 LP  0  0  0  0  0  0  0  0  0  0  0  0  # atno 17394 bound_to 11000
  140.9689  133.7340  156.0506 LP  0  0  0  0  0  0  0  0  0  0  0  0  # atno 17395 bound_to 11000

$$$$
