AV-unprocessed.smi:2714|AV-procd|sdf|10481|dock1
  -GOLD-   2272014523D 1   1.00000     0.00000
 Structure written by MMmdl.
 46 47  0  0  0  0  0  0  0  0  1 V2000
  152.2412  143.8315  161.5281 C   0  0  0  0  0  0  0  0  0  0  0  0
  152.5780  142.4121  161.0589 C   0  0  0  0  0  0  0  0  0  0  0  0
  153.0182  142.3691  159.5840 C   0  0  0  0  0  0  0  0  0  0  0  0
  151.8559  142.4646  158.5706 C   0  0  1  0  0  0  0  0  0  0  0  0
  151.8743  143.8171  157.8378 C   0  0  0  0  0  0  0  0  0  0  0  0
  151.8851  141.3172  157.5504 C   0  0  0  0  0  0  0  0  0  0  0  0
  152.6722  140.3816  157.6952 O   0  0  0  0  0  0  0  0  0  0  0  0
  151.0239  141.4088  156.5250 N   0  0  0  0  0  0  0  0  0  0  0  0
  150.9196  140.4743  155.4092 C   0  0  0  0  0  0  0  0  0  0  0  0
  149.5246  140.4682  154.7986 C   0  0  0  0  0  0  0  0  0  0  0  0
  148.9475  141.6861  154.3790 C   0  0  0  0  0  0  0  0  0  0  0  0
  147.6694  141.6757  153.7917 C   0  0  0  0  0  0  0  0  0  0  0  0
  147.0145  140.4397  153.6434 C   0  0  0  0  0  0  0  0  0  0  0  0
  147.5517  139.2674  154.0392 N   0  0  0  0  0  0  0  0  0  0  0  0
  148.7830  139.2725  154.6062 C   0  0  0  0  0  0  0  0  0  0  0  0
  149.3028  138.0378  155.0304 N   0  0  0  0  0  0  0  0  0  0  0  0
  150.5771  137.6444  154.4402 C   0  0  0  0  0  0  0  0  0  0  0  0
  151.0959  136.3676  155.1230 C   0  0  0  0  0  0  0  0  0  0  0  0
  150.1134  135.3406  155.0189 O   0  0  0  0  0  0  0  0  0  0  0  0
  148.8929  135.7001  155.6609 C   0  0  0  0  0  0  0  0  0  0  0  0
  148.3146  136.9675  155.0075 C   0  0  0  0  0  0  0  0  0  0  0  0
  151.9363  143.8329  162.5748 H   0  0  0  0  0  0  0  0  0  0  0  0
  151.4253  144.2572  160.9434 H   0  0  0  0  0  0  0  0  0  0  0  0
  153.1032  144.4924  161.4323 H   0  0  0  0  0  0  0  0  0  0  0  0
  153.3626  142.0076  161.6989 H   0  0  0  0  0  0  0  0  0  0  0  0
  151.7056  141.7727  161.1985 H   0  0  0  0  0  0  0  0  0  0  0  0
  153.7056  143.1969  159.4048 H   0  0  0  0  0  0  0  0  0  0  0  0
  153.5953  141.4607  159.4028 H   0  0  0  0  0  0  0  0  0  0  0  0
  150.9184  142.4074  159.1263 H   0  0  0  0  0  0  0  0  0  0  0  0
  151.0692  143.8839  157.1049 H   0  0  0  0  0  0  0  0  0  0  0  0
  152.8170  143.9765  157.3126 H   0  0  0  0  0  0  0  0  0  0  0  0
  151.7448  144.6418  158.5389 H   0  0  0  0  0  0  0  0  0  0  0  0
  150.4135  142.2126  156.4972 H   0  0  0  0  0  0  0  0  0  0  0  0
  151.6572  140.6800  154.6326 H   0  0  0  0  0  0  0  0  0  0  0  0
  151.1579  139.4787  155.7846 H   0  0  0  0  0  0  0  0  0  0  0  0
  149.4781  142.6193  154.4997 H   0  0  0  0  0  0  0  0  0  0  0  0
  147.2041  142.5921  153.4603 H   0  0  0  0  0  0  0  0  0  0  0  0
  146.0330  140.3904  153.1957 H   0  0  0  0  0  0  0  0  0  0  0  0
  150.4540  137.4648  153.3711 H   0  0  0  0  0  0  0  0  0  0  0  0
  151.3009  138.4523  154.5543 H   0  0  0  0  0  0  0  0  0  0  0  0
  152.0150  136.0314  154.6433 H   0  0  0  0  0  0  0  0  0  0  0  0
  151.3329  136.5539  156.1713 H   0  0  0  0  0  0  0  0  0  0  0  0
  148.1868  134.8750  155.5683 H   0  0  0  0  0  0  0  0  0  0  0  0
  149.0631  135.8541  156.7273 H   0  0  0  0  0  0  0  0  0  0  0  0
  147.4100  137.2779  155.5313 H   0  0  0  0  0  0  0  0  0  0  0  0
  148.0325  136.7591  153.9745 H   0  0  0  0  0  0  0  0  0  0  0  0
  1  2  1  0  0  0  0
  1 22  1  0  0  0  0
  1 23  1  0  0  0  0
  1 24  1  0  0  0  0
  2  3  1  0  0  0  0
  2 25  1  0  0  0  0
  2 26  1  0  0  0  0
  3  4  1  0  0  0  0
  3 27  1  0  0  0  0
  3 28  1  0  0  0  0
  4  5  1  0  0  0  0
  4  6  1  0  0  0  0
  4 29  1  0  0  0  0
  5 30  1  0  0  0  0
  5 31  1  0  0  0  0
  5 32  1  0  0  0  0
  6  7  2  0  0  0  0
  6  8  1  0  0  0  0
  8  9  1  0  0  0  0
  8 33  1  0  0  0  0
  9 10  1  0  0  0  0
  9 34  1  0  0  0  0
  9 35  1  0  0  0  0
 10 15  1  0  0  0  0
 10 11  2  0  0  0  0
 11 12  1  0  0  0  0
 11 36  1  0  0  0  0
 12 13  2  0  0  0  0
 12 37  1  0  0  0  0
 13 14  1  0  0  0  0
 13 38  1  0  0  0  0
 14 15  2  0  0  0  0
 15 16  1  0  0  0  0
 16 21  1  0  0  0  0
 16 17  1  0  0  0  0
 17 18  1  0  0  0  0
 17 39  1  0  0  0  0
 17 40  1  0  0  0  0
 18 19  1  0  0  0  0
 18 41  1  0  0  0  0
 18 42  1  0  0  0  0
 19 20  1  0  0  0  0
 20 21  1  0  0  0  0
 20 43  1  0  0  0  0
 20 44  1  0  0  0  0
 21 45  1  0  0  0  0
 21 46  1  0  0  0  0
M  END
> <s_m_source_file>
AV-unprocessed.smi

> <i_m_source_file_index>
2714

> <i_lp_mmshare_version>
43012

> <i_f3d_flags>
0

> <s_epik_input>
W0NIM11bQ0gyXVtDSDJdW0NASF0oW0NIM10pQyg9TylbTkhdW0NIMl1jMVtjSF1bY0hdW2NIXW5jMU4yW0NIMl1bQ0gyXU9bQ0gyXVtDSDJdMg==

> <s_epik_cmdline>
J2VwaWtfcHl0aG9uJywgJy1waCcsICc3LjAnLCAnLXRuJywgJzgnLCAnLW1hJywgJzIwMCcsICctbWV0YWxfYmluZGluZycsICctaW1hZScsICc8aW5maWxlLm1hZT4nLCAnLW9tYWUnLCAnPG91dGZpbGUubWFlPic=

> <r_lp_tautomer_probability>
1

> <r_epik_Ionization_Penalty>
0.00517355

> <r_epik_Ionization_Penalty_Charging>
0

> <r_epik_Ionization_Penalty_Neutral>
0.00517355

> <r_epik_State_Penalty>
0.00376978

> <r_epik_Charging_Adjusted_Penalty>
0.00376978

> <i_epik_Tot_Q>
0

> <i_epik_Tot_abs_Q>
0

> <r_epik_Metal_State_Penalty>
-0

> <b_epik_Metal_Only>
0

> <s_lp_Force_Field>
OPLS_2005

> <r_lp_Energy>
17.5243

> <b_lp_Chiralities_Consistent>
1

> <s_lp_Variant>
AV-unprocessed.smi:2714-2

> <Gold.Version>
5.8.1

> <Gold.Id.Protein>
6NUR|6NUR_protein|mol2

> <Gold.PLP.Fitness>
42.1476

> <Gold.PLP.PLP>
-38.7372

> <Gold.PLP.part.hbond>
-1.0000

> <Gold.PLP.part.metal>
0.0000

> <Gold.PLP.part.buried>
-0.5703

> <Gold.PLP.part.nonpolar>
-36.1245

> <Gold.PLP.part.repulsive>
0.5215

> <Gold.PLP.ligand.clash>
0.0000

> <Gold.PLP.ligand.torsion>
1.3380

> <Gold.PLP.Chemscore.Hbond>
0.9199

> <Gold.PLP.Chemscore.CHOScore>
1.0000

> <Gold.PLP.Chemscore.Metal>
0.0000

> <Gold.Chemscore.Hbonds>
donor molecule, donor type, donor heavy atom, donor atom, acceptor molecule, acceptor atom, score
      P1  H  7997  8010       L1     7  0.90
      L1  C    13    38       P1 10175  1.00

> <Gold.PLP.Chemscore.Internal.Correction>
0.3268

> <Gold.Rescore>
     Score         DG    S(hbond)    S(metal)    S(lipo)     H(rot)  DE(clash)    DE(int)     intcor
     14.68     -17.04       0.86        0.00     111.78       1.72       0.45       1.91       ----

> <Gold.Chemscore.Fitness>
14.6830

> <Gold.Chemscore.DG>
-17.0357

> <Gold.Chemscore.ZeroCoef>
-5.4800

> <Gold.Chemscore.Hbond>
0.8620

> <Gold.Chemscore.Metal>
0.0000

> <Gold.Chemscore.Lipo>
111.7754

> <Gold.Chemscore.Internal_Hbond>
0.0000

> <Gold.Chemscore.DEClash>
0.4467

> <Gold.Chemscore.DEInternal>
1.9061

> <Gold.Chemscore.Rot>
1.7192

> <Gold.Chemscore.Internal.Correction>
   9.000000E+99

> <Gold.Chemscore.Hbonds>
donor molecule, donor type, donor heavy atom, donor atom, acceptor molecule, acceptor atom, score
      P1  H  7997  8010       L1     7  0.85

> <Gold.Chemscore.Hbond.Weighted>
-2.8791

> <Gold.Chemscore.Metal.Weighted>
-0.0000

> <Gold.Chemscore.Lipo.Weighted>
-13.0777

> <Gold.Chemscore.Internal_Hbond.Weighted>
0.0000

> <Gold.Chemscore.DEClash.Weighted>
0.4467

> <Gold.Chemscore.DEInternal.Weighted>
1.9061

> <Gold.Chemscore.Rot.Weighted>
4.4011

> <Gold.Chemscore.Internal.Correction.Weighted>
   9.000000E+99

> <Gold.Protein.RotatedTorsions>
[ 6907 6896 6895 6894 ] final   23.27 input  -60.11 | X-H torsion
[ 7974 7965 7964 7962 ] final -124.92 input  175.53 | X-H torsion
[ 8008 7997 7996 7995 ] final   47.25 input   59.86 | X-H torsion
[ 10167 10162 10161 10158 ] final  -11.73 input  -65.29 | X-H torsion
[ 10718 10713 10712 10709 ] final  -82.34 input   66.30 | X-H torsion
[ 10763 10752 10751 10750 ] final  -89.18 input  -60.55 | X-H torsion
[ 11005 11000 10999 10996 ] final  101.14 input  -57.11 | X-H torsion

> <Gold.Protein.ActiveResidues>
 VAL166  LYS551  ARG553  GLY616  TRP617  ASP618  TYR619  PRO620  LYS621  CYS622 
 ASP623  PHE694  ASN695  SER759  ASP760  ASP761  ALA762  ILE779  LEU786  VAL792 
 PHE793  MET794  SER795  GLU796  ALA797  LYS798  CYS799  TRP800  GLU811  SER814 

> <Gold.Protein.RotatedAtoms>
  151.9398  135.0218  160.0534 H   0  0  0  0  0  0  0  0  0  0  0  0  # atno 6907 bound_to 6896
  152.2046  133.4861  159.5085 H   0  0  0  0  0  0  0  0  0  0  0  0  # atno 6908 bound_to 6896
  150.6962  134.1463  159.4166 H   0  0  0  0  0  0  0  0  0  0  0  0  # atno 6909 bound_to 6896
  145.0030  140.7838  143.4484 H   0  0  0  0  0  0  0  0  0  0  0  0  # atno 7974 bound_to 7965
  155.3659  140.3421  155.4242 H   0  0  0  0  0  0  0  0  0  0  0  0  # atno 8008 bound_to 7997
  156.1689  140.1625  156.8517 H   0  0  0  0  0  0  0  0  0  0  0  0  # atno 8009 bound_to 7997
  154.5213  140.0766  156.8158 H   0  0  0  0  0  0  0  0  0  0  0  0  # atno 8010 bound_to 7997
  140.7145  143.5608  150.9198 H   0  0  0  0  0  0  0  0  0  0  0  0  # atno 10167 bound_to 10162
  156.0035  130.4631  150.4090 H   0  0  0  0  0  0  0  0  0  0  0  0  # atno 10718 bound_to 10713
  154.6525  135.5350  153.7919 H   0  0  0  0  0  0  0  0  0  0  0  0  # atno 10763 bound_to 10752
  153.0394  135.6486  154.0995 H   0  0  0  0  0  0  0  0  0  0  0  0  # atno 10764 bound_to 10752
  154.0910  135.2940  155.3251 H   0  0  0  0  0  0  0  0  0  0  0  0  # atno 10765 bound_to 10752
  139.8772  134.9170  156.4862 H   0  0  0  0  0  0  0  0  0  0  0  0  # atno 11005 bound_to 11000
  145.2127  139.2197  143.5135 LP  0  0  0  0  0  0  0  0  0  0  0  0  # atno 17320 bound_to 7965
  146.3456  140.1968  142.8589 LP  0  0  0  0  0  0  0  0  0  0  0  0  # atno 17321 bound_to 7965
  139.9333  143.6467  152.3071 LP  0  0  0  0  0  0  0  0  0  0  0  0  # atno 17342 bound_to 10162
  139.6926  144.7645  151.1412 LP  0  0  0  0  0  0  0  0  0  0  0  0  # atno 17343 bound_to 10162
  157.2154  131.0470  151.2576 LP  0  0  0  0  0  0  0  0  0  0  0  0  # atno 17370 bound_to 10713
  157.3850  130.7251  149.6656 LP  0  0  0  0  0  0  0  0  0  0  0  0  # atno 17371 bound_to 10713
  140.8691  133.8002  155.9346 LP  0  0  0  0  0  0  0  0  0  0  0  0  # atno 17394 bound_to 11000
  140.8971  134.2424  157.5062 LP  0  0  0  0  0  0  0  0  0  0  0  0  # atno 17395 bound_to 11000

$$$$
