AV-unprocessed.smi:264|AV-procd|sdf|2011|dock8
  -GOLD-   2262021213D 1   1.00000     0.00000
 Structure written by MMmdl.
 52 56  0  0  0  0  0  0  0  0  1 V2000
  144.5561  132.7976  150.3904 C   0  0  0  0  0  0  0  0  0  0  0  0
  145.7780  132.0834  150.9898 C   0  0  2  0  0  0  0  0  0  0  0  0
  145.3615  130.7863  151.4083 O   0  0  0  0  0  0  0  0  0  0  0  0
  146.1626  130.3832  152.5044 C   0  0  0  0  0  0  0  0  0  0  0  0
  146.2753  131.6663  153.3134 C   0  0  0  0  0  0  0  0  0  0  0  0
  146.4335  132.7392  152.2389 C   0  0  1  0  0  0  0  0  0  0  0  0
  147.8187  132.8823  151.9703 O   0  0  0  0  0  0  0  0  0  0  0  0
  145.8818  134.1264  152.6615 C   0  0  0  0  0  0  0  0  0  0  0  0
  146.3309  134.5519  153.9794 N   0  0  0  0  0  0  0  0  0  0  0  0
  147.6288  134.7787  154.3735 C   0  0  0  0  0  0  0  0  0  0  0  0
  147.7738  135.1552  155.6136 N   0  0  0  0  0  0  0  0  0  0  0  0
  146.4775  135.2067  156.1176 C   0  0  0  0  0  0  0  0  0  0  0  0
  145.9008  135.5357  157.3833 C   0  0  0  0  0  0  0  0  0  0  0  0
  146.5841  135.9392  158.4871 N   0  0  0  0  0  0  0  0  0  0  0  0
  147.5201  137.0452  158.3129 C   0  0  0  0  0  0  0  0  0  0  0  0
  148.5265  137.0674  159.4718 C   0  0  0  0  0  0  0  0  0  0  0  0
  147.8396  137.1022  160.7216 O   0  0  0  0  0  0  0  0  0  0  0  0
  146.9544  135.9993  160.9362 C   0  0  2  0  0  0  0  0  0  0  0  0
  146.2632  136.2109  162.2784 C   0  0  0  0  0  0  0  0  0  0  0  0
  146.0830  134.7941  162.8005 C   0  0  0  0  0  0  0  0  0  0  0  0
  147.3074  134.1799  162.4436 O   0  0  0  0  0  0  0  0  0  0  0  0
  147.6977  134.6617  161.1619 C   0  0  0  0  0  0  0  0  0  0  0  0
  145.9225  135.9309  159.7861 C   0  0  0  0  0  0  0  0  0  0  0  0
  144.5487  135.4502  157.4881 N   0  0  0  0  0  0  0  0  0  0  0  0
  143.8057  135.0789  156.4426 C   0  0  0  0  0  0  0  0  0  0  0  0
  144.2030  134.7516  155.2130 N   0  0  0  0  0  0  0  0  0  0  0  0
  145.5591  134.8261  155.0954 C   0  0  0  0  0  0  0  0  0  0  0  0
  144.8107  133.7988  150.0423 H   0  0  0  0  0  0  0  0  0  0  0  0
  143.7455  132.8815  151.1144 H   0  0  0  0  0  0  0  0  0  0  0  0
  144.1706  132.2435  149.5343 H   0  0  0  0  0  0  0  0  0  0  0  0
  146.5182  131.9493  150.1986 H   0  0  0  0  0  0  0  0  0  0  0  0
  145.7011  129.5694  153.0637 H   0  0  0  0  0  0  0  0  0  0  0  0
  147.1397  130.0525  152.1490 H   0  0  0  0  0  0  0  0  0  0  0  0
  145.3421  131.8147  153.8577 H   0  0  0  0  0  0  0  0  0  0  0  0
  147.0862  131.6470  154.0430 H   0  0  0  0  0  0  0  0  0  0  0  0
  148.1399  132.0687  151.6128 H   0  0  0  0  0  0  0  0  0  0  0  0
  146.1763  134.8901  151.9405 H   0  0  0  0  0  0  0  0  0  0  0  0
  144.7917  134.1167  152.6718 H   0  0  0  0  0  0  0  0  0  0  0  0
  148.4713  134.6495  153.7098 H   0  0  0  0  0  0  0  0  0  0  0  0
  148.0630  136.9763  157.3701 H   0  0  0  0  0  0  0  0  0  0  0  0
  146.9581  137.9797  158.2881 H   0  0  0  0  0  0  0  0  0  0  0  0
  149.1894  136.2035  159.4181 H   0  0  0  0  0  0  0  0  0  0  0  0
  149.1604  137.9508  159.3970 H   0  0  0  0  0  0  0  0  0  0  0  0
  146.9191  136.7576  162.9572 H   0  0  0  0  0  0  0  0  0  0  0  0
  145.3258  136.7636  162.2083 H   0  0  0  0  0  0  0  0  0  0  0  0
  145.9125  134.7575  163.8765 H   0  0  0  0  0  0  0  0  0  0  0  0
  145.2550  134.2907  162.2990 H   0  0  0  0  0  0  0  0  0  0  0  0
  147.4397  133.9249  160.4002 H   0  0  0  0  0  0  0  0  0  0  0  0
  148.7814  134.7771  161.1554 H   0  0  0  0  0  0  0  0  0  0  0  0
  145.2526  136.7904  159.8367 H   0  0  0  0  0  0  0  0  0  0  0  0
  145.3119  135.0340  159.8968 H   0  0  0  0  0  0  0  0  0  0  0  0
  142.7406  135.0393  156.6163 H   0  0  0  0  0  0  0  0  0  0  0  0
  1  2  1  0  0  0  0
  1 28  1  0  0  0  0
  1 29  1  0  0  0  0
  1 30  1  0  0  0  0
  2  6  1  0  0  0  0
  2  3  1  0  0  0  0
  2 31  1  0  0  0  0
  3  4  1  0  0  0  0
  4  5  1  0  0  0  0
  4 32  1  0  0  0  0
  4 33  1  0  0  0  0
  5  6  1  0  0  0  0
  5 34  1  0  0  0  0
  5 35  1  0  0  0  0
  6  7  1  0  0  0  0
  6  8  1  0  0  0  0
  7 36  1  0  0  0  0
  8  9  1  0  0  0  0
  8 37  1  0  0  0  0
  8 38  1  0  0  0  0
  9 27  1  0  0  0  0
  9 10  1  0  0  0  0
 10 11  2  0  0  0  0
 10 39  1  0  0  0  0
 11 12  1  0  0  0  0
 12 27  2  0  0  0  0
 12 13  1  0  0  0  0
 13 14  1  0  0  0  0
 13 24  2  0  0  0  0
 14 23  1  0  0  0  0
 14 15  1  0  0  0  0
 15 16  1  0  0  0  0
 15 40  1  0  0  0  0
 15 41  1  0  0  0  0
 16 17  1  0  0  0  0
 16 42  1  0  0  0  0
 16 43  1  0  0  0  0
 17 18  1  0  0  0  0
 18 22  1  0  0  0  0
 18 19  1  0  0  0  0
 18 23  1  0  0  0  0
 19 20  1  0  0  0  0
 19 44  1  0  0  0  0
 19 45  1  0  0  0  0
 20 21  1  0  0  0  0
 20 46  1  0  0  0  0
 20 47  1  0  0  0  0
 21 22  1  0  0  0  0
 22 48  1  0  0  0  0
 22 49  1  0  0  0  0
 23 50  1  0  0  0  0
 23 51  1  0  0  0  0
 24 25  1  0  0  0  0
 25 26  2  0  0  0  0
 25 52  1  0  0  0  0
 26 27  1  0  0  0  0
M  END
> <s_m_source_file>
AV-unprocessed.smi

> <i_m_source_file_index>
264

> <i_lp_mmshare_version>
43012

> <i_f3d_flags>
0

> <s_epik_input>
W0NIMl0xW0NIMl1PW0NAQEhdKFtDSDNdKVtDQEBdMShbT0hdKVtDSDJdbihbY0hdbjIpYyhjMjMpbltjSF1uYzNOKFtDSDJdNClbQ0gyXVtDSDJdT1tDQF00NVtDSDJdW0NIMl1PW0NIMl01

> <s_epik_cmdline>
J2VwaWtfcHl0aG9uJywgJy1waCcsICc3LjAnLCAnLXRuJywgJzgnLCAnLW1hJywgJzIwMCcsICctbWV0YWxfYmluZGluZycsICctaW1hZScsICc8aW5maWxlLm1hZT4nLCAnLW9tYWUnLCAnPG91dGZpbGUubWFlPic=

> <r_lp_tautomer_probability>
1

> <r_epik_Ionization_Penalty>
0.00539389

> <r_epik_Ionization_Penalty_Charging>
0

> <r_epik_Ionization_Penalty_Neutral>
0.00539389

> <r_epik_State_Penalty>
0.00375441

> <r_epik_Charging_Adjusted_Penalty>
0.00375441

> <i_epik_Tot_Q>
0

> <i_epik_Tot_abs_Q>
0

> <r_epik_Metal_State_Penalty>
-0

> <b_epik_Metal_Only>
0

> <s_lp_Force_Field>
OPLS_2005

> <r_lp_Energy>
55.2391

> <b_lp_Chiralities_Consistent>
1

> <s_lp_Variant>
AV-unprocessed.smi:264-5

> <Gold.Version>
5.8.1

> <Gold.Id.Protein>
6NUR|6NUR_protein|mol2

> <Gold.PLP.Fitness>
42.4192

> <Gold.PLP.PLP>
-30.1681

> <Gold.PLP.part.hbond>
-3.0000

> <Gold.PLP.part.metal>
0.0000

> <Gold.PLP.part.buried>
-6.7478

> <Gold.PLP.part.nonpolar>
-21.1522

> <Gold.PLP.part.repulsive>
0.2748

> <Gold.PLP.ligand.clash>
0.0000

> <Gold.PLP.ligand.torsion>
0.6133

> <Gold.PLP.Chemscore.Hbond>
2.7129

> <Gold.PLP.Chemscore.CHOScore>
1.6799

> <Gold.PLP.Chemscore.Metal>
0.0000

> <Gold.Chemscore.Hbonds>
donor molecule, donor type, donor heavy atom, donor atom, acceptor molecule, acceptor atom, score
      L1  H     7    36       P1 10747  1.00
      P1  H  6931  6943       L1    17  0.86
      P1  H  6934  6947       L1    17  0.86
      L1  C    10    39       P1  7948  0.87
      L1  C    25    52       P1 11000  0.83

> <Gold.PLP.Chemscore.Internal.Correction>
0.2994

> <Gold.Rescore>
     Score         DG    S(hbond)    S(metal)    S(lipo)     H(rot)  DE(clash)    DE(int)     intcor
     16.08     -16.72       2.15        0.00      73.95       1.79       0.00       0.64       ----

> <Gold.Chemscore.Fitness>
16.0836

> <Gold.Chemscore.DG>
-16.7201

> <Gold.Chemscore.ZeroCoef>
-5.4800

> <Gold.Chemscore.Hbond>
2.1495

> <Gold.Chemscore.Metal>
0.0000

> <Gold.Chemscore.Lipo>
73.9482

> <Gold.Chemscore.Internal_Hbond>
0.0000

> <Gold.Chemscore.DEClash>
0.0000

> <Gold.Chemscore.DEInternal>
0.6365

> <Gold.Chemscore.Rot>
1.7935

> <Gold.Chemscore.Internal.Correction>
   9.000000E+99

> <Gold.Chemscore.Hbonds>
donor molecule, donor type, donor heavy atom, donor atom, acceptor molecule, acceptor atom, score
      L1  H     7    36       P1 10747  0.96
      P1  H  6931  6943       L1    17  0.35
      P1  H  6934  6947       L1    17  0.39

> <Gold.Chemscore.Hbond.Weighted>
-7.1794

> <Gold.Chemscore.Metal.Weighted>
-0.0000

> <Gold.Chemscore.Lipo.Weighted>
-8.6519

> <Gold.Chemscore.Internal_Hbond.Weighted>
0.0000

> <Gold.Chemscore.DEClash.Weighted>
0.0000

> <Gold.Chemscore.DEInternal.Weighted>
0.6365

> <Gold.Chemscore.Rot.Weighted>
4.5913

> <Gold.Chemscore.Internal.Correction.Weighted>
   9.000000E+99

> <Gold.Protein.RotatedTorsions>
[ 6907 6896 6895 6894 ] final   -9.84 input  -60.11 | X-H torsion
[ 7974 7965 7964 7962 ] final  -84.17 input  175.53 | X-H torsion
[ 8008 7997 7996 7995 ] final  154.06 input   59.86 | X-H torsion
[ 10167 10162 10161 10158 ] final  -92.86 input  -65.29 | X-H torsion
[ 10718 10713 10712 10709 ] final  140.49 input   66.30 | X-H torsion
[ 10763 10752 10751 10750 ] final  -80.42 input  -60.55 | X-H torsion
[ 11005 11000 10999 10996 ] final   87.33 input  -57.11 | X-H torsion

> <Gold.Protein.ActiveResidues>
 VAL166  LYS551  ARG553  GLY616  TRP617  ASP618  TYR619  PRO620  LYS621  CYS622 
 ASP623  PHE694  ASN695  SER759  ASP760  ASP761  ALA762  ILE779  LEU786  VAL792 
 PHE793  MET794  SER795  GLU796  ALA797  LYS798  CYS799  TRP800  GLU811  SER814 

> <Gold.Protein.RotatedAtoms>
  151.4114  135.0985  159.9585 H   0  0  0  0  0  0  0  0  0  0  0  0  # atno 6907 bound_to 6896
  152.5019  133.8794  159.7349 H   0  0  0  0  0  0  0  0  0  0  0  0  # atno 6908 bound_to 6896
  150.9290  133.6733  159.2843 H   0  0  0  0  0  0  0  0  0  0  0  0  # atno 6909 bound_to 6896
  145.5102  140.9540  143.1711 H   0  0  0  0  0  0  0  0  0  0  0  0  # atno 7974 bound_to 7965
  156.2550  140.1977  156.6588 H   0  0  0  0  0  0  0  0  0  0  0  0  # atno 8008 bound_to 7997
  154.6480  140.0575  156.9948 H   0  0  0  0  0  0  0  0  0  0  0  0  # atno 8009 bound_to 7997
  155.1461  140.3247  155.4444 H   0  0  0  0  0  0  0  0  0  0  0  0  # atno 8010 bound_to 7997
  140.3305  143.2997  151.9947 H   0  0  0  0  0  0  0  0  0  0  0  0  # atno 10167 bound_to 10162
  157.4026  131.1018  151.0536 H   0  0  0  0  0  0  0  0  0  0  0  0  # atno 10718 bound_to 10713
  154.5510  135.5661  153.6922 H   0  0  0  0  0  0  0  0  0  0  0  0  # atno 10763 bound_to 10752
  152.9989  135.6251  154.2374 H   0  0  0  0  0  0  0  0  0  0  0  0  # atno 10764 bound_to 10752
  154.2309  135.2866  155.2870 H   0  0  0  0  0  0  0  0  0  0  0  0  # atno 10765 bound_to 10752
  139.8922  134.8415  156.2845 H   0  0  0  0  0  0  0  0  0  0  0  0  # atno 11005 bound_to 11000
  144.7732  139.6689  143.7186 LP  0  0  0  0  0  0  0  0  0  0  0  0  # atno 17320 bound_to 7965
  146.2171  139.5569  142.9643 LP  0  0  0  0  0  0  0  0  0  0  0  0  # atno 17321 bound_to 7965
  139.4857  144.6239  151.7203 LP  0  0  0  0  0  0  0  0  0  0  0  0  # atno 17342 bound_to 10162
  140.5401  144.0592  150.6085 LP  0  0  0  0  0  0  0  0  0  0  0  0  # atno 17343 bound_to 10162
  157.1529  130.6192  149.5587 LP  0  0  0  0  0  0  0  0  0  0  0  0  # atno 17370 bound_to 10713
  155.9827  130.4843  150.6898 LP  0  0  0  0  0  0  0  0  0  0  0  0  # atno 17371 bound_to 10713
  141.0017  133.7147  156.0971 LP  0  0  0  0  0  0  0  0  0  0  0  0  # atno 17394 bound_to 11000
  140.7489  134.4067  157.5544 LP  0  0  0  0  0  0  0  0  0  0  0  0  # atno 17395 bound_to 11000

$$$$
