AV-unprocessed.smi:2044|AV-procd|sdf|8307|dock2
  -GOLD-   2272010573D 1   1.00000     0.00000
 Structure written by MMmdl.
 39 40  0  0  0  0  0  0  0  0  3 V2000
  153.1125  141.9302  160.7350 C   0  0  0  0  0  0  0  0  0  0  0  0
  152.5172  141.3887  159.4803 C   0  0  0  0  0  0  0  0  0  0  0  0
  151.2742  141.4935  158.9225 C   0  0  0  0  0  0  0  0  0  0  0  0
  151.3918  140.7316  157.7298 C   0  0  0  0  0  0  0  0  0  0  0  0
  150.2901  140.5969  156.8445 N   0  0  0  0  0  0  0  0  0  0  0  0
  150.2949  140.2598  155.5424 C   0  0  0  0  0  0  0  0  0  0  0  0
  151.3542  139.9614  154.9777 O   0  0  0  0  0  0  0  0  0  0  0  0
  149.0522  140.3151  154.9876 N   0  5  0  0  0  0  0  0  0  0  0  0
  148.5958  141.3406  154.0427 C   0  0  0  0  0  0  0  0  0  0  0  0
  147.2532  140.9488  153.3647 C   0  0  1  0  0  0  0  0  0  0  0  0
  147.0489  139.4227  153.1920 C   0  0  0  0  0  0  0  0  0  0  0  0
  146.0997  141.6629  153.9998 N   0  3  0  0  0  0  0  0  0  0  0  0
  145.8498  141.2833  155.4114 C   0  0  0  0  0  0  0  0  0  0  0  0
  144.5211  141.8917  155.8924 C   0  0  0  0  0  0  0  0  0  0  0  0
  144.5448  143.3044  155.7243 O   0  0  0  0  0  0  0  0  0  0  0  0
  144.7100  143.6771  154.3611 C   0  0  0  0  0  0  0  0  0  0  0  0
  146.0552  143.1421  153.8478 C   0  0  0  0  0  0  0  0  0  0  0  0
  152.6014  140.2146  157.5704 N   0  0  0  0  0  0  0  0  0  0  0  0
  153.3274  140.6300  158.6928 O   0  0  0  0  0  0  0  0  0  0  0  0
  152.7844  142.9554  160.9076 H   0  0  0  0  0  0  0  0  0  0  0  0
  154.2016  141.9293  160.6852 H   0  0  0  0  0  0  0  0  0  0  0  0
  152.8125  141.3298  161.5939 H   0  0  0  0  0  0  0  0  0  0  0  0
  150.4189  142.0283  159.3082 H   0  0  0  0  0  0  0  0  0  0  0  0
  149.3847  140.8010  157.2410 H   0  0  0  0  0  0  0  0  0  0  0  0
  148.4711  142.3115  154.5246 H   0  0  0  0  0  0  0  0  0  0  0  0
  149.3410  141.5087  153.2653 H   0  0  0  0  0  0  0  0  0  0  0  0
  147.3425  141.3329  152.3474 H   0  0  0  0  0  0  0  0  0  0  0  0
  147.8582  138.9704  152.6157 H   0  0  0  0  0  0  0  0  0  0  0  0
  146.1284  139.2152  152.6459 H   0  0  0  0  0  0  0  0  0  0  0  0
  146.9954  138.8907  154.1433 H   0  0  0  0  0  0  0  0  0  0  0  0
  145.8019  140.1977  155.5045 H   0  0  0  0  0  0  0  0  0  0  0  0
  146.6760  141.6273  156.0353 H   0  0  0  0  0  0  0  0  0  0  0  0
  143.6790  141.4650  155.3445 H   0  0  0  0  0  0  0  0  0  0  0  0
  144.3633  141.6635  156.9465 H   0  0  0  0  0  0  0  0  0  0  0  0
  143.8831  143.2956  153.7595 H   0  0  0  0  0  0  0  0  0  0  0  0
  144.6841  144.7644  154.2858 H   0  0  0  0  0  0  0  0  0  0  0  0
  146.8690  143.6056  154.4067 H   0  0  0  0  0  0  0  0  0  0  0  0
  146.1777  143.4230  152.8017 H   0  0  0  0  0  0  0  0  0  0  0  0
  145.2974  141.3211  153.4882 H   0  0  0  0  0  0  0  0  0  0  0  0
  1  2  1  0  0  0  0
  1 20  1  0  0  0  0
  1 21  1  0  0  0  0
  1 22  1  0  0  0  0
  2 19  1  0  0  0  0
  2  3  2  0  0  0  0
  3  4  1  0  0  0  0
  3 23  1  0  0  0  0
  4  5  1  0  0  0  0
  4 18  2  0  0  0  0
  5  6  1  0  0  0  0
  5 24  1  0  0  0  0
  6  7  2  0  0  0  0
  6  8  1  0  0  0  0
  8  9  1  0  0  0  0
  9 10  1  0  0  0  0
  9 25  1  0  0  0  0
  9 26  1  0  0  0  0
 10 11  1  0  0  0  0
 10 12  1  0  0  0  0
 10 27  1  0  0  0  0
 11 28  1  0  0  0  0
 11 29  1  0  0  0  0
 11 30  1  0  0  0  0
 12 17  1  0  0  0  0
 12 13  1  0  0  0  0
 12 39  1  0  0  0  0
 13 14  1  0  0  0  0
 13 31  1  0  0  0  0
 13 32  1  0  0  0  0
 14 15  1  0  0  0  0
 14 33  1  0  0  0  0
 14 34  1  0  0  0  0
 15 16  1  0  0  0  0
 16 17  1  0  0  0  0
 16 35  1  0  0  0  0
 16 36  1  0  0  0  0
 17 37  1  0  0  0  0
 17 38  1  0  0  0  0
 18 19  1  0  0  0  0
M  CHG  1   8  -1
M  CHG  1  12   1
M  END
> <s_m_source_file>
AV-unprocessed.smi

> <i_m_source_file_index>
2044

> <i_lp_mmshare_version>
43012

> <i_f3d_flags>
0

> <s_epik_input>
W0NIM11jMVtjSF1jKG5vMSlbTkhdQyg9TylbTkhdW0NIMl1bQ0BIXShbQ0gzXSlOMltDSDJdW0NIMl1PW0NIMl1bQ0gyXTI=

> <s_epik_cmdline>
J2VwaWtfcHl0aG9uJywgJy1waCcsICc3LjAnLCAnLXRuJywgJzgnLCAnLW1hJywgJzIwMCcsICctbWV0YWxfYmluZGluZycsICctaW1hZScsICc8aW5maWxlLm1hZT4nLCAnLW9tYWUnLCAnPG91dGZpbGUubWFlPic=

> <r_epik_Ionization_Penalty>
6.79272

> <r_epik_Ionization_Penalty_Charging>
6.79272

> <r_epik_Ionization_Penalty_Neutral>
5.6208e-06

> <r_epik_State_Penalty>
7.45901

> <r_epik_Charging_Adjusted_Penalty>
14.2517

> <i_epik_Tot_Q>
0

> <i_epik_Tot_abs_Q>
2

> <r_epik_Metal_State_Penalty>
3.38639

> <b_epik_Metal_Only>
1

> <s_lp_Force_Field>
OPLS_2005

> <r_lp_Energy>
15.3215

> <b_lp_Chiralities_Consistent>
1

> <s_lp_Variant>
AV-unprocessed.smi:2044-10

> <Gold.Version>
5.8.1

> <Gold.Id.Protein>
6NUR|6NUR_protein|mol2

> <Gold.PLP.Fitness>
39.6453

> <Gold.PLP.PLP>
-32.6136

> <Gold.PLP.part.hbond>
-3.8138

> <Gold.PLP.part.metal>
0.0000

> <Gold.PLP.part.buried>
-2.9108

> <Gold.PLP.part.nonpolar>
-26.5367

> <Gold.PLP.part.repulsive>
0.3286

> <Gold.PLP.ligand.clash>
0.0000

> <Gold.PLP.ligand.torsion>
1.4003

> <Gold.PLP.Chemscore.Hbond>
3.1875

> <Gold.PLP.Chemscore.CHOScore>
0.0000

> <Gold.PLP.Chemscore.Metal>
0.0000

> <Gold.Chemscore.Hbonds>
donor molecule, donor type, donor heavy atom, donor atom, acceptor molecule, acceptor atom, score
      L1  H    12    39       P1 10175  1.82
      P1  H  7989  7998       L1     7  1.00
      P1  H  7997  8009       L1    18  0.39

> <Gold.PLP.Chemscore.Internal.Correction>
0.2699

> <Gold.Rescore>
     Score         DG    S(hbond)    S(metal)    S(lipo)     H(rot)  DE(clash)    DE(int)     intcor
     12.33     -15.24       1.89        0.00      64.41       1.59       0.36       2.55       ----

> <Gold.Chemscore.Fitness>
12.3307

> <Gold.Chemscore.DG>
-15.2393

> <Gold.Chemscore.ZeroCoef>
-5.4800

> <Gold.Chemscore.Hbond>
1.8866

> <Gold.Chemscore.Metal>
0.0000

> <Gold.Chemscore.Lipo>
64.4112

> <Gold.Chemscore.Internal_Hbond>
0.0000

> <Gold.Chemscore.DEClash>
0.3631

> <Gold.Chemscore.DEInternal>
2.5455

> <Gold.Chemscore.Rot>
1.5930

> <Gold.Chemscore.Internal.Correction>
   9.000000E+99

> <Gold.Chemscore.Hbonds>
donor molecule, donor type, donor heavy atom, donor atom, acceptor molecule, acceptor atom, score
      L1  H    12    39       P1 10175  0.22
      P1  H  7989  7998       L1     7  0.88
      P1  H  7997  8009       L1    18  0.02

> <Gold.Chemscore.Hbond.Weighted>
-6.3013

> <Gold.Chemscore.Metal.Weighted>
-0.0000

> <Gold.Chemscore.Lipo.Weighted>
-7.5361

> <Gold.Chemscore.Internal_Hbond.Weighted>
0.0000

> <Gold.Chemscore.DEClash.Weighted>
0.3631

> <Gold.Chemscore.DEInternal.Weighted>
2.5455

> <Gold.Chemscore.Rot.Weighted>
4.0781

> <Gold.Chemscore.Internal.Correction.Weighted>
   9.000000E+99

> <Gold.Protein.RotatedTorsions>
[ 6907 6896 6895 6894 ] final  -55.23 input  -60.11 | X-H torsion
[ 7974 7965 7964 7962 ] final  129.53 input  175.53 | X-H torsion
[ 8008 7997 7996 7995 ] final -166.91 input   59.86 | X-H torsion
[ 10167 10162 10161 10158 ] final   23.18 input  -65.29 | X-H torsion
[ 10718 10713 10712 10709 ] final   80.37 input   66.30 | X-H torsion
[ 10763 10752 10751 10750 ] final -152.41 input  -60.55 | X-H torsion
[ 11005 11000 10999 10996 ] final -140.73 input  -57.11 | X-H torsion

> <Gold.Protein.ActiveResidues>
 VAL166  LYS551  ARG553  GLY616  TRP617  ASP618  TYR619  PRO620  LYS621  CYS622 
 ASP623  PHE694  ASN695  SER759  ASP760  ASP761  ALA762  ILE779  LEU786  VAL792 
 PHE793  MET794  SER795  GLU796  ALA797  LYS798  CYS799  TRP800  GLU811  SER814 

> <Gold.Protein.RotatedAtoms>
  150.8269  134.7504  159.6820 H   0  0  0  0  0  0  0  0  0  0  0  0  # atno 6907 bound_to 6896
  152.4379  134.5647  159.9914 H   0  0  0  0  0  0  0  0  0  0  0  0  # atno 6908 bound_to 6896
  151.5817  133.3339  159.3045 H   0  0  0  0  0  0  0  0  0  0  0  0  # atno 6909 bound_to 6896
  145.0276  139.4075  143.5166 H   0  0  0  0  0  0  0  0  0  0  0  0  # atno 7974 bound_to 7965
  155.8704  140.0992  157.1554 H   0  0  0  0  0  0  0  0  0  0  0  0  # atno 8008 bound_to 7997
  154.3996  140.1348  156.4134 H   0  0  0  0  0  0  0  0  0  0  0  0  # atno 8009 bound_to 7997
  155.7757  140.3460  155.5273 H   0  0  0  0  0  0  0  0  0  0  0  0  # atno 8010 bound_to 7997
  140.5290  143.9874  150.6455 H   0  0  0  0  0  0  0  0  0  0  0  0  # atno 10167 bound_to 10162
  157.6804  130.9956  150.2069 H   0  0  0  0  0  0  0  0  0  0  0  0  # atno 10718 bound_to 10713
  154.7996  135.3237  154.7583 H   0  0  0  0  0  0  0  0  0  0  0  0  # atno 10763 bound_to 10752
  153.8254  135.6884  153.4826 H   0  0  0  0  0  0  0  0  0  0  0  0  # atno 10764 bound_to 10752
  153.1705  135.4625  154.9839 H   0  0  0  0  0  0  0  0  0  0  0  0  # atno 10765 bound_to 10752
  140.8394  134.2421  157.4818 H   0  0  0  0  0  0  0  0  0  0  0  0  # atno 11005 bound_to 11000
  146.3494  139.9809  142.8696 LP  0  0  0  0  0  0  0  0  0  0  0  0  # atno 17320 bound_to 7965
  145.1812  140.9768  143.4265 LP  0  0  0  0  0  0  0  0  0  0  0  0  # atno 17321 bound_to 7965
  140.3244  143.3117  152.0751 LP  0  0  0  0  0  0  0  0  0  0  0  0  # atno 17342 bound_to 10162
  139.4948  144.6552  151.6588 LP  0  0  0  0  0  0  0  0  0  0  0  0  # atno 17343 bound_to 10162
  156.2748  130.3726  149.7995 LP  0  0  0  0  0  0  0  0  0  0  0  0  # atno 17370 bound_to 10713
  156.5701  130.8421  151.3354 LP  0  0  0  0  0  0  0  0  0  0  0  0  # atno 17371 bound_to 10713
  139.8703  134.9627  156.4438 LP  0  0  0  0  0  0  0  0  0  0  0  0  # atno 17394 bound_to 11000
  140.8912  133.7847  155.9574 LP  0  0  0  0  0  0  0  0  0  0  0  0  # atno 17395 bound_to 11000

$$$$
