AV-unprocessed.smi:2705|AV-procd|sdf|10443|dock9
  -GOLD-   2272014483D 1   1.00000     0.00000
 Structure written by MMmdl.
 36 37  0  0  0  0  0  0  0  0  1 V2000
  152.2650  144.3691  157.6342 C   0  0  0  0  0  0  0  0  0  0  0  0
  151.8600  143.3458  158.7205 C   0  0  0  0  0  0  0  0  0  0  0  0
  151.0266  142.2966  158.1168 N   0  0  0  0  0  0  0  0  0  0  0  0
  149.6862  142.2412  158.0128 C   0  0  0  0  0  0  0  0  0  0  0  0
  148.9257  143.1301  158.3936 O   0  0  0  0  0  0  0  0  0  0  0  0
  149.1142  140.9666  157.3943 C   0  0  0  0  0  0  0  0  0  0  0  0
  149.3658  140.9324  155.9654 N   0  0  0  0  0  0  0  0  0  0  0  0
  148.9062  141.6994  154.9740 C   0  0  0  0  0  0  0  0  0  0  0  0
  149.3989  141.3311  153.8015 N   0  0  0  0  0  0  0  0  0  0  0  0
  150.2142  140.2597  154.1260 N   0  0  0  0  0  0  0  0  0  0  0  0
  150.1988  140.0187  155.4084 N   0  0  0  0  0  0  0  0  0  0  0  0
  153.1512  142.6508  159.2235 C   0  0  0  0  0  0  0  0  0  0  0  0
  153.0250  141.8703  160.5447 C   0  0  0  0  0  0  0  0  0  0  0  0
  153.3332  142.7417  161.7747 C   0  0  0  0  0  0  0  0  0  0  0  0
  152.2603  143.7893  162.1085 C   0  0  0  0  0  0  0  0  0  0  0  0
  151.9003  144.7390  160.9516 C   0  0  0  0  0  0  0  0  0  0  0  0
  151.0642  144.0499  159.8577 C   0  0  0  0  0  0  0  0  0  0  0  0
  152.9334  145.1302  158.0375 H   0  0  0  0  0  0  0  0  0  0  0  0
  151.4055  144.8937  157.2168 H   0  0  0  0  0  0  0  0  0  0  0  0
  152.7851  143.8843  156.8070 H   0  0  0  0  0  0  0  0  0  0  0  0
  151.5354  141.5016  157.7581 H   0  0  0  0  0  0  0  0  0  0  0  0
  149.5616  140.0892  157.8641 H   0  0  0  0  0  0  0  0  0  0  0  0
  148.0381  140.9114  157.5647 H   0  0  0  0  0  0  0  0  0  0  0  0
  148.2221  142.5240  155.1115 H   0  0  0  0  0  0  0  0  0  0  0  0
  153.5030  141.9672  158.4490 H   0  0  0  0  0  0  0  0  0  0  0  0
  153.9558  143.3806  159.3240 H   0  0  0  0  0  0  0  0  0  0  0  0
  152.0491  141.3916  160.6338 H   0  0  0  0  0  0  0  0  0  0  0  0
  153.7529  141.0584  160.5267 H   0  0  0  0  0  0  0  0  0  0  0  0
  153.4573  142.0921  162.6417 H   0  0  0  0  0  0  0  0  0  0  0  0
  154.2960  143.2362  161.6405 H   0  0  0  0  0  0  0  0  0  0  0  0
  151.3599  143.2886  162.4661 H   0  0  0  0  0  0  0  0  0  0  0  0
  152.6171  144.3841  162.9500 H   0  0  0  0  0  0  0  0  0  0  0  0
  151.3014  145.5490  161.3691 H   0  0  0  0  0  0  0  0  0  0  0  0
  152.7896  145.2141  160.5366 H   0  0  0  0  0  0  0  0  0  0  0  0
  150.4064  144.7985  159.4138 H   0  0  0  0  0  0  0  0  0  0  0  0
  150.3876  143.3411  160.3379 H   0  0  0  0  0  0  0  0  0  0  0  0
  1  2  1  0  0  0  0
  1 18  1  0  0  0  0
  1 19  1  0  0  0  0
  1 20  1  0  0  0  0
  2 17  1  0  0  0  0
  2  3  1  0  0  0  0
  2 12  1  0  0  0  0
  3  4  1  0  0  0  0
  3 21  1  0  0  0  0
  4  5  2  0  0  0  0
  4  6  1  0  0  0  0
  6  7  1  0  0  0  0
  6 22  1  0  0  0  0
  6 23  1  0  0  0  0
  7 11  1  0  0  0  0
  7  8  1  0  0  0  0
  8  9  2  0  0  0  0
  8 24  1  0  0  0  0
  9 10  1  0  0  0  0
 10 11  2  0  0  0  0
 12 13  1  0  0  0  0
 12 25  1  0  0  0  0
 12 26  1  0  0  0  0
 13 14  1  0  0  0  0
 13 27  1  0  0  0  0
 13 28  1  0  0  0  0
 14 15  1  0  0  0  0
 14 29  1  0  0  0  0
 14 30  1  0  0  0  0
 15 16  1  0  0  0  0
 15 31  1  0  0  0  0
 15 32  1  0  0  0  0
 16 17  1  0  0  0  0
 16 33  1  0  0  0  0
 16 34  1  0  0  0  0
 17 35  1  0  0  0  0
 17 36  1  0  0  0  0
M  END
> <s_m_source_file>
AV-unprocessed.smi

> <i_m_source_file_index>
2705

> <i_lp_mmshare_version>
43012

> <i_f3d_flags>
0

> <s_epik_input>
W0NIMl0xW0NIMl1bQ0gyXVtDSDJdW0NIMl1bQ0gyXUMxKFtDSDNdKVtOSF1DKD1PKVtDSDJdbjJbY0hdbm5uMg==

> <s_epik_cmdline>
J2VwaWtfcHl0aG9uJywgJy1waCcsICc3LjAnLCAnLXRuJywgJzgnLCAnLW1hJywgJzIwMCcsICctbWV0YWxfYmluZGluZycsICctaW1hZScsICc8aW5maWxlLm1hZT4nLCAnLW9tYWUnLCAnPG91dGZpbGUubWFlPic=

> <r_lp_tautomer_probability>
1

> <r_epik_Ionization_Penalty>
4.39395e-07

> <r_epik_Ionization_Penalty_Charging>
0

> <r_epik_Ionization_Penalty_Neutral>
4.39395e-07

> <r_epik_State_Penalty>
-0

> <r_epik_Charging_Adjusted_Penalty>
0

> <i_epik_Tot_Q>
0

> <i_epik_Tot_abs_Q>
0

> <r_epik_Metal_State_Penalty>
-0

> <b_epik_Metal_Only>
0

> <s_lp_Force_Field>
OPLS_2005

> <r_lp_Energy>
20.5987

> <b_lp_Chiralities_Consistent>
1

> <s_lp_Variant>
AV-unprocessed.smi:2705-1

> <Gold.Version>
5.8.1

> <Gold.Id.Protein>
6NUR|6NUR_protein|mol2

> <Gold.PLP.Fitness>
41.6918

> <Gold.PLP.PLP>
-35.5451

> <Gold.PLP.part.hbond>
-3.0000

> <Gold.PLP.part.metal>
0.0000

> <Gold.PLP.part.buried>
-3.5229

> <Gold.PLP.part.nonpolar>
-30.2887

> <Gold.PLP.part.repulsive>
2.4233

> <Gold.PLP.ligand.clash>
0.0000

> <Gold.PLP.ligand.torsion>
0.7369

> <Gold.PLP.Chemscore.Hbond>
1.6344

> <Gold.PLP.Chemscore.CHOScore>
0.9032

> <Gold.PLP.Chemscore.Metal>
0.0000

> <Gold.Chemscore.Hbonds>
donor molecule, donor type, donor heavy atom, donor atom, acceptor molecule, acceptor atom, score
      P1  H  7989  7998       L1    10  0.80
      P1  H  8011  8017       L1     9  0.83
      L1  C     8    24       P1  8028  0.90

> <Gold.PLP.Chemscore.Internal.Correction>
0.0077

> <Gold.Rescore>
     Score         DG    S(hbond)    S(metal)    S(lipo)     H(rot)  DE(clash)    DE(int)     intcor
     11.41     -14.83       0.90        0.00      95.78       1.91       1.30       2.12       ----

> <Gold.Chemscore.Fitness>
11.4139

> <Gold.Chemscore.DG>
-14.8272

> <Gold.Chemscore.ZeroCoef>
-5.4800

> <Gold.Chemscore.Hbond>
0.9040

> <Gold.Chemscore.Metal>
0.0000

> <Gold.Chemscore.Lipo>
95.7849

> <Gold.Chemscore.Internal_Hbond>
0.0000

> <Gold.Chemscore.DEClash>
1.2954

> <Gold.Chemscore.DEInternal>
2.1179

> <Gold.Chemscore.Rot>
1.9058

> <Gold.Chemscore.Internal.Correction>
   9.000000E+99

> <Gold.Chemscore.Hbonds>
donor molecule, donor type, donor heavy atom, donor atom, acceptor molecule, acceptor atom, score
      P1  H  7989  7998       L1    10  0.13
      P1  H  8011  8017       L1     9  0.79

> <Gold.Chemscore.Hbond.Weighted>
-3.0192

> <Gold.Chemscore.Metal.Weighted>
-0.0000

> <Gold.Chemscore.Lipo.Weighted>
-11.2068

> <Gold.Chemscore.Internal_Hbond.Weighted>
0.0000

> <Gold.Chemscore.DEClash.Weighted>
1.2954

> <Gold.Chemscore.DEInternal.Weighted>
2.1179

> <Gold.Chemscore.Rot.Weighted>
4.8788

> <Gold.Chemscore.Internal.Correction.Weighted>
   9.000000E+99

> <Gold.Protein.RotatedTorsions>
[ 6907 6896 6895 6894 ] final   91.06 input  -60.11 | X-H torsion
[ 7974 7965 7964 7962 ] final   40.31 input  175.53 | X-H torsion
[ 8008 7997 7996 7995 ] final   29.91 input   59.86 | X-H torsion
[ 10167 10162 10161 10158 ] final  -49.69 input  -65.29 | X-H torsion
[ 10718 10713 10712 10709 ] final  -99.59 input   66.30 | X-H torsion
[ 10763 10752 10751 10750 ] final  112.30 input  -60.55 | X-H torsion
[ 11005 11000 10999 10996 ] final -104.77 input  -57.11 | X-H torsion

> <Gold.Protein.ActiveResidues>
 VAL166  LYS551  ARG553  GLY616  TRP617  ASP618  TYR619  PRO620  LYS621  CYS622 
 ASP623  PHE694  ASN695  SER759  ASP760  ASP761  ALA762  ILE779  LEU786  VAL792 
 PHE793  MET794  SER795  GLU796  ALA797  LYS798  CYS799  TRP800  GLU811  SER814 

> <Gold.Protein.RotatedAtoms>
  152.5448  134.1715  159.8598 H   0  0  0  0  0  0  0  0  0  0  0  0  # atno 6907 bound_to 6896
  151.1724  133.4769  159.2601 H   0  0  0  0  0  0  0  0  0  0  0  0  # atno 6908 bound_to 6896
  151.1261  135.0117  159.8616 H   0  0  0  0  0  0  0  0  0  0  0  0  # atno 6909 bound_to 6896
  146.0915  139.5548  142.9472 H   0  0  0  0  0  0  0  0  0  0  0  0  # atno 7974 bound_to 7965
  155.0821  140.3211  155.4598 H   0  0  0  0  0  0  0  0  0  0  0  0  # atno 8008 bound_to 7997
  156.2764  140.2093  156.5894 H   0  0  0  0  0  0  0  0  0  0  0  0  # atno 8009 bound_to 7997
  154.6970  140.0511  157.0408 H   0  0  0  0  0  0  0  0  0  0  0  0  # atno 8010 bound_to 7997
  140.6673  143.2687  151.4251 H   0  0  0  0  0  0  0  0  0  0  0  0  # atno 10167 bound_to 10162
  156.0138  130.5289  150.6693 H   0  0  0  0  0  0  0  0  0  0  0  0  # atno 10718 bound_to 10713
  153.4759  135.3690  155.2416 H   0  0  0  0  0  0  0  0  0  0  0  0  # atno 10763 bound_to 10752
  154.8756  135.3942  154.3757 H   0  0  0  0  0  0  0  0  0  0  0  0  # atno 10764 bound_to 10752
  153.4353  135.7083  153.6269 H   0  0  0  0  0  0  0  0  0  0  0  0  # atno 10765 bound_to 10752
  141.1085  133.8752  157.1652 H   0  0  0  0  0  0  0  0  0  0  0  0  # atno 11005 bound_to 11000
  145.6029  141.0352  143.2008 LP  0  0  0  0  0  0  0  0  0  0  0  0  # atno 17320 bound_to 7965
  144.7364  139.7574  143.7328 LP  0  0  0  0  0  0  0  0  0  0  0  0  # atno 17321 bound_to 7965
  139.5927  144.1464  152.2107 LP  0  0  0  0  0  0  0  0  0  0  0  0  # atno 17342 bound_to 10162
  140.0824  144.5689  150.7113 LP  0  0  0  0  0  0  0  0  0  0  0  0  # atno 17343 bound_to 10162
  157.4419  131.0862  151.0935 LP  0  0  0  0  0  0  0  0  0  0  0  0  # atno 17370 bound_to 10713
  157.1477  130.6170  149.5573 LP  0  0  0  0  0  0  0  0  0  0  0  0  # atno 17371 bound_to 10713
  139.9966  135.0044  157.0096 LP  0  0  0  0  0  0  0  0  0  0  0  0  # atno 17394 bound_to 11000
  140.4839  134.1261  155.7221 LP  0  0  0  0  0  0  0  0  0  0  0  0  # atno 17395 bound_to 11000

$$$$
