AV-unprocessed.smi:257|AV-procd|sdf|1963|dock1
  -GOLD-   2262021113D 1   1.00000     0.00000
 Structure written by MMmdl.
 50 53  0  0  0  0  0  0  0  0  1 V2000
  143.0429  133.0187  150.9016 C   0  0  0  0  0  0  0  0  0  0  0  0
  142.7875  133.7405  152.1383 N   0  0  0  0  0  0  0  0  0  0  0  0
  143.0449  135.0437  152.3186 C   0  0  0  0  0  0  0  0  0  0  0  0
  143.5181  135.7629  151.4372 O   0  0  0  0  0  0  0  0  0  0  0  0
  142.7040  135.6147  153.7072 C   0  0  2  0  0  0  0  0  0  0  0  0
  141.1844  135.7574  153.9037 C   0  0  0  0  0  0  0  0  0  0  0  0
  140.8683  137.1732  153.4254 C   0  0  0  0  0  0  0  0  0  0  0  0
  142.1108  137.9612  153.8376 C   0  0  0  0  0  0  0  0  0  0  0  0
  143.1936  136.9831  153.8781 N   0  0  0  0  0  0  0  0  0  0  0  0
  144.4784  137.3293  154.1708 C   0  0  0  0  0  0  0  0  0  0  0  0
  145.4673  136.4892  153.7642 N   0  0  0  0  0  0  0  0  0  0  0  0
  146.7484  136.7637  154.0199 C   0  0  0  0  0  0  0  0  0  0  0  0
  147.2625  137.8132  154.6596 N   0  0  0  0  0  0  0  0  0  0  0  0
  146.2841  138.6681  155.0708 C   0  0  0  0  0  0  0  0  0  0  0  0
  144.8805  138.5075  154.8733 C   0  0  0  0  0  0  0  0  0  0  0  0
  144.2130  139.5891  155.4398 N   0  0  0  0  0  0  0  0  0  0  0  0
  145.1578  140.3356  155.9397 C   0  0  0  0  0  0  0  0  0  0  0  0
  146.4353  139.8621  155.7546 N   0  0  0  0  0  0  0  0  0  0  0  0
  147.6693  140.4899  156.2048 C   0  0  0  0  0  0  0  0  0  0  0  0
  148.5353  141.0819  155.0589 C   0  0  0  0  0  0  0  0  0  0  0  0
  147.8684  142.2311  154.5693 O   0  0  0  0  0  0  0  0  0  0  0  0
  149.9182  141.5384  155.5654 C   0  0  0  0  0  0  0  0  0  0  0  0
  150.8514  140.3419  155.8268 C   0  0  0  0  0  0  0  0  0  0  0  0
  150.9707  139.5508  154.6494 O   0  0  0  0  0  0  0  0  0  0  0  0
  149.7317  138.9948  154.2234 C   0  0  0  0  0  0  0  0  0  0  0  0
  148.7457  140.1219  153.8680 C   0  0  0  0  0  0  0  0  0  0  0  0
  142.7323  131.9795  151.0071 H   0  0  0  0  0  0  0  0  0  0  0  0
  144.1059  133.0341  150.6571 H   0  0  0  0  0  0  0  0  0  0  0  0
  142.4881  133.4594  150.0723 H   0  0  0  0  0  0  0  0  0  0  0  0
  142.3985  133.2163  152.9088 H   0  0  0  0  0  0  0  0  0  0  0  0
  143.0982  134.9613  154.4861 H   0  0  0  0  0  0  0  0  0  0  0  0
  140.6022  134.9999  153.3769 H   0  0  0  0  0  0  0  0  0  0  0  0
  140.9454  135.6700  154.9646 H   0  0  0  0  0  0  0  0  0  0  0  0
  140.7662  137.1812  152.3393 H   0  0  0  0  0  0  0  0  0  0  0  0
  139.9495  137.5747  153.8533 H   0  0  0  0  0  0  0  0  0  0  0  0
  142.3147  138.7694  153.1342 H   0  0  0  0  0  0  0  0  0  0  0  0
  141.9791  138.3925  154.8309 H   0  0  0  0  0  0  0  0  0  0  0  0
  147.4631  136.0381  153.6606 H   0  0  0  0  0  0  0  0  0  0  0  0
  144.9480  141.2610  156.4562 H   0  0  0  0  0  0  0  0  0  0  0  0
  147.4052  141.2734  156.9165 H   0  0  0  0  0  0  0  0  0  0  0  0
  148.2327  139.7515  156.7745 H   0  0  0  0  0  0  0  0  0  0  0  0
  148.3986  142.9900  154.7600 H   0  0  0  0  0  0  0  0  0  0  0  0
  150.3899  142.1794  154.8187 H   0  0  0  0  0  0  0  0  0  0  0  0
  149.8179  142.1437  156.4672 H   0  0  0  0  0  0  0  0  0  0  0  0
  151.8422  140.6990  156.1079 H   0  0  0  0  0  0  0  0  0  0  0  0
  150.4934  139.7310  156.6559 H   0  0  0  0  0  0  0  0  0  0  0  0
  149.9114  138.3690  153.3493 H   0  0  0  0  0  0  0  0  0  0  0  0
  149.3305  138.3427  154.9992 H   0  0  0  0  0  0  0  0  0  0  0  0
  147.8008  139.7054  153.5188 H   0  0  0  0  0  0  0  0  0  0  0  0
  149.1569  140.6751  153.0222 H   0  0  0  0  0  0  0  0  0  0  0  0
  1  2  1  0  0  0  0
  1 27  1  0  0  0  0
  1 28  1  0  0  0  0
  1 29  1  0  0  0  0
  2  3  1  0  0  0  0
  2 30  1  0  0  0  0
  3  4  2  0  0  0  0
  3  5  1  0  0  0  0
  5  9  1  0  0  0  0
  5  6  1  0  0  0  0
  5 31  1  0  0  0  0
  6  7  1  0  0  0  0
  6 32  1  0  0  0  0
  6 33  1  0  0  0  0
  7  8  1  0  0  0  0
  7 34  1  0  0  0  0
  7 35  1  0  0  0  0
  8  9  1  0  0  0  0
  8 36  1  0  0  0  0
  8 37  1  0  0  0  0
  9 10  1  0  0  0  0
 10 15  1  0  0  0  0
 10 11  2  0  0  0  0
 11 12  1  0  0  0  0
 12 13  2  0  0  0  0
 12 38  1  0  0  0  0
 13 14  1  0  0  0  0
 14 18  1  0  0  0  0
 14 15  2  0  0  0  0
 15 16  1  0  0  0  0
 16 17  2  0  0  0  0
 17 18  1  0  0  0  0
 17 39  1  0  0  0  0
 18 19  1  0  0  0  0
 19 20  1  0  0  0  0
 19 40  1  0  0  0  0
 19 41  1  0  0  0  0
 20 26  1  0  0  0  0
 20 21  1  0  0  0  0
 20 22  1  0  0  0  0
 21 42  1  0  0  0  0
 22 23  1  0  0  0  0
 22 43  1  0  0  0  0
 22 44  1  0  0  0  0
 23 24  1  0  0  0  0
 23 45  1  0  0  0  0
 23 46  1  0  0  0  0
 24 25  1  0  0  0  0
 25 26  1  0  0  0  0
 25 47  1  0  0  0  0
 25 48  1  0  0  0  0
 26 49  1  0  0  0  0
 26 50  1  0  0  0  0
M  END
> <s_m_source_file>
AV-unprocessed.smi

> <i_m_source_file_index>
257

> <i_lp_mmshare_version>
43012

> <i_f3d_flags>
0

> <s_epik_input>
W0NIM11bTkhdQyg9TylbQ0BASF0xW0NIMl1bQ0gyXVtDSDJdTjFjKG5bY0hdbjIpYyhjMjMpbltjSF1uM1tDSDJdQzQoW09IXSlbQ0gyXVtDSDJdT1tDSDJdW0NIMl00

> <s_epik_cmdline>
J2VwaWtfcHl0aG9uJywgJy1waCcsICc3LjAnLCAnLXRuJywgJzgnLCAnLW1hJywgJzIwMCcsICctbWV0YWxfYmluZGluZycsICctaW1hZScsICc8aW5maWxlLm1hZT4nLCAnLW9tYWUnLCAnPG91dGZpbGUubWFlPic=

> <r_lp_tautomer_probability>
1

> <r_epik_Ionization_Penalty>
0.000951012

> <r_epik_Ionization_Penalty_Charging>
0

> <r_epik_Ionization_Penalty_Neutral>
0.000951012

> <r_epik_State_Penalty>
0.000495984

> <r_epik_Charging_Adjusted_Penalty>
0.000495984

> <i_epik_Tot_Q>
0

> <i_epik_Tot_abs_Q>
0

> <r_epik_Metal_State_Penalty>
-0

> <b_epik_Metal_Only>
0

> <s_lp_Force_Field>
OPLS_2005

> <r_lp_Energy>
35.0404

> <b_lp_Chiralities_Consistent>
1

> <s_lp_Variant>
AV-unprocessed.smi:257-1

> <Gold.Version>
5.8.1

> <Gold.Id.Protein>
6NUR|6NUR_protein|mol2

> <Gold.PLP.Fitness>
40.4313

> <Gold.PLP.PLP>
-30.1257

> <Gold.PLP.part.hbond>
-3.0000

> <Gold.PLP.part.metal>
0.0000

> <Gold.PLP.part.buried>
-3.0086

> <Gold.PLP.part.nonpolar>
-25.5384

> <Gold.PLP.part.repulsive>
0.7845

> <Gold.PLP.ligand.clash>
0.0000

> <Gold.PLP.ligand.torsion>
0.6873

> <Gold.PLP.Chemscore.Hbond>
2.9913

> <Gold.PLP.Chemscore.CHOScore>
0.8635

> <Gold.PLP.Chemscore.Metal>
0.0000

> <Gold.Chemscore.Hbonds>
donor molecule, donor type, donor heavy atom, donor atom, acceptor molecule, acceptor atom, score
      L1  H     2    30       P1 10957  0.16
      L1  H    21    42       P1  8028  1.00
      P1  H  7989  7998       L1    24  0.95
      L1  C    12    38       P1  7948  0.98

> <Gold.PLP.Chemscore.Internal.Correction>
0.1160

> <Gold.Rescore>
     Score         DG    S(hbond)    S(metal)    S(lipo)     H(rot)  DE(clash)    DE(int)     intcor
     10.19     -14.50       2.30        0.00      61.62       2.29       0.87       3.43       ----

> <Gold.Chemscore.Fitness>
10.1945

> <Gold.Chemscore.DG>
-14.5017

> <Gold.Chemscore.ZeroCoef>
-5.4800

> <Gold.Chemscore.Hbond>
2.2969

> <Gold.Chemscore.Metal>
0.0000

> <Gold.Chemscore.Lipo>
61.6224

> <Gold.Chemscore.Internal_Hbond>
0.0000

> <Gold.Chemscore.DEClash>
0.8750

> <Gold.Chemscore.DEInternal>
3.4323

> <Gold.Chemscore.Rot>
2.2889

> <Gold.Chemscore.Internal.Correction>
   9.000000E+99

> <Gold.Chemscore.Hbonds>
donor molecule, donor type, donor heavy atom, donor atom, acceptor molecule, acceptor atom, score
      L1  H     2    30       P1 10957  0.11
      L1  H    21    42       P1  8028  0.96
      P1  H  7989  7998       L1    24  0.18

> <Gold.Chemscore.Hbond.Weighted>
-7.6715

> <Gold.Chemscore.Metal.Weighted>
-0.0000

> <Gold.Chemscore.Lipo.Weighted>
-7.2098

> <Gold.Chemscore.Internal_Hbond.Weighted>
0.0000

> <Gold.Chemscore.DEClash.Weighted>
0.8750

> <Gold.Chemscore.DEInternal.Weighted>
3.4323

> <Gold.Chemscore.Rot.Weighted>
5.8596

> <Gold.Chemscore.Internal.Correction.Weighted>
   9.000000E+99

> <Gold.Protein.RotatedTorsions>
[ 6907 6896 6895 6894 ] final  -10.56 input  -60.11 | X-H torsion
[ 7974 7965 7964 7962 ] final  -62.57 input  175.53 | X-H torsion
[ 8008 7997 7996 7995 ] final   46.21 input   59.86 | X-H torsion
[ 10167 10162 10161 10158 ] final   93.58 input  -65.29 | X-H torsion
[ 10718 10713 10712 10709 ] final  -28.79 input   66.30 | X-H torsion
[ 10763 10752 10751 10750 ] final   85.41 input  -60.55 | X-H torsion
[ 11005 11000 10999 10996 ] final  108.46 input  -57.11 | X-H torsion

> <Gold.Protein.ActiveResidues>
 VAL166  LYS551  ARG553  GLY616  TRP617  ASP618  TYR619  PRO620  LYS621  CYS622 
 ASP623  PHE694  ASN695  SER759  ASP760  ASP761  ALA762  ILE779  LEU786  VAL792 
 PHE793  MET794  SER795  GLU796  ALA797  LYS798  CYS799  TRP800  GLU811  SER814 

> <Gold.Protein.RotatedAtoms>
  151.4001  135.0969  159.9552 H   0  0  0  0  0  0  0  0  0  0  0  0  # atno 6907 bound_to 6896
  152.5053  133.8897  159.7398 H   0  0  0  0  0  0  0  0  0  0  0  0  # atno 6908 bound_to 6896
  150.9369  133.6645  159.2827 H   0  0  0  0  0  0  0  0  0  0  0  0  # atno 6909 bound_to 6896
  145.7897  140.8716  143.0287 H   0  0  0  0  0  0  0  0  0  0  0  0  # atno 7974 bound_to 7965
  155.3486  140.3412  155.4239 H   0  0  0  0  0  0  0  0  0  0  0  0  # atno 8008 bound_to 7997
  156.1775  140.1653  156.8370 H   0  0  0  0  0  0  0  0  0  0  0  0  # atno 8009 bound_to 7997
  154.5298  140.0748  156.8307 H   0  0  0  0  0  0  0  0  0  0  0  0  # atno 8010 bound_to 7997
  139.8166  144.6750  150.9571 H   0  0  0  0  0  0  0  0  0  0  0  0  # atno 10167 bound_to 10162
  156.4208  130.4426  149.7185 H   0  0  0  0  0  0  0  0  0  0  0  0  # atno 10718 bound_to 10713
  153.1472  135.4618  154.9584 H   0  0  0  0  0  0  0  0  0  0  0  0  # atno 10763 bound_to 10752
  154.7796  135.3184  154.8021 H   0  0  0  0  0  0  0  0  0  0  0  0  # atno 10764 bound_to 10752
  153.8533  135.6919  153.4844 H   0  0  0  0  0  0  0  0  0  0  0  0  # atno 10765 bound_to 10752
  139.8844  134.9431  156.5976 H   0  0  0  0  0  0  0  0  0  0  0  0  # atno 11005 bound_to 11000
  144.6783  140.0106  143.7484 LP  0  0  0  0  0  0  0  0  0  0  0  0  # atno 17320 bound_to 7965
  145.9989  139.3075  143.0940 LP  0  0  0  0  0  0  0  0  0  0  0  0  # atno 17321 bound_to 7965
  140.7815  143.4132  151.0959 LP  0  0  0  0  0  0  0  0  0  0  0  0  # atno 17342 bound_to 10162
  139.7795  143.8376  152.3135 LP  0  0  0  0  0  0  0  0  0  0  0  0  # atno 17343 bound_to 10162
  156.4127  130.7730  151.2744 LP  0  0  0  0  0  0  0  0  0  0  0  0  # atno 17370 bound_to 10713
  157.7508  131.0206  150.3717 LP  0  0  0  0  0  0  0  0  0  0  0  0  # atno 17371 bound_to 10713
  140.7908  133.8584  155.8644 LP  0  0  0  0  0  0  0  0  0  0  0  0  # atno 17394 bound_to 11000
  140.9679  134.1570  157.4601 LP  0  0  0  0  0  0  0  0  0  0  0  0  # atno 17395 bound_to 11000

$$$$
