AV-unprocessed.smi:560|AV-procd|sdf|2928|dock5
  -GOLD-   2262023423D 1   1.00000     0.00000
 Structure written by MMmdl.
 42 43  0  0  0  0  0  0  0  0  2 V2000
  147.2454  141.8253  154.9221 C   0  0  0  0  0  0  0  0  0  0  0  0
  148.4172  140.9708  154.3972 C   0  0  2  0  0  0  0  0  0  0  0  0
  147.9758  139.5849  153.8938 C   0  0  0  0  0  0  0  0  0  0  0  0
  148.7811  138.6569  153.8068 O   0  0  0  0  0  0  0  0  0  0  0  0
  146.6797  139.4570  153.5653 N   0  0  0  0  0  0  0  0  0  0  0  0
  146.0597  138.2446  153.0414 C   0  0  2  0  0  0  0  0  0  0  0  0
  146.5064  137.0089  153.8455 C   0  0  0  0  0  0  0  0  0  0  0  0
  145.9453  135.7162  153.2319 C   0  0  0  0  0  0  0  0  0  0  0  0
  146.3506  135.5812  151.8072 N   0  3  1  0  0  0  0  0  0  0  0  0
  145.9497  134.2800  151.2101 C   0  0  0  0  0  0  0  0  0  0  0  0
  144.4774  134.1959  150.7780 C   0  0  0  0  0  0  0  0  0  0  0  0
  144.1763  134.2356  149.4751 N   0  0  0  0  0  0  0  0  0  0  0  0
  143.6038  134.0923  151.6349 O   0  0  0  0  0  0  0  0  0  0  0  0
  145.8882  136.7408  151.0022 C   0  0  0  0  0  0  0  0  0  0  0  0
  146.4416  138.0616  151.5636 C   0  0  0  0  0  0  0  0  0  0  0  0
  149.4797  140.8480  155.3898 N   0  0  0  0  0  0  0  0  0  0  0  0
  149.5945  141.5064  156.5975 C   0  0  0  0  0  0  0  0  0  0  0  0
  150.7588  141.0955  157.1804 C   0  0  0  0  0  0  0  0  0  0  0  0
  151.3009  140.1757  156.2407 C   0  0  0  0  0  0  0  0  0  0  0  0
  150.5389  140.0348  155.1686 N   0  0  0  0  0  0  0  0  0  0  0  0
  146.4878  141.9722  154.1515 H   0  0  0  0  0  0  0  0  0  0  0  0
  147.5920  142.8125  155.2287 H   0  0  0  0  0  0  0  0  0  0  0  0
  146.7582  141.3649  155.7826 H   0  0  0  0  0  0  0  0  0  0  0  0
  148.8391  141.4944  153.5378 H   0  0  0  0  0  0  0  0  0  0  0  0
  146.0854  140.2666  153.6708 H   0  0  0  0  0  0  0  0  0  0  0  0
  144.9742  138.3423  153.1072 H   0  0  0  0  0  0  0  0  0  0  0  0
  147.5960  136.9555  153.8714 H   0  0  0  0  0  0  0  0  0  0  0  0
  146.1777  137.0921  154.8822 H   0  0  0  0  0  0  0  0  0  0  0  0
  146.3006  134.8623  153.8091 H   0  0  0  0  0  0  0  0  0  0  0  0
  144.8563  135.7107  153.3037 H   0  0  0  0  0  0  0  0  0  0  0  0
  146.5979  134.0407  150.3655 H   0  0  0  0  0  0  0  0  0  0  0  0
  146.0950  133.4846  151.9422 H   0  0  0  0  0  0  0  0  0  0  0  0
  143.2190  134.1796  149.1620 H   0  0  0  0  0  0  0  0  0  0  0  0
  144.9223  134.3203  148.7985 H   0  0  0  0  0  0  0  0  0  0  0  0
  146.2181  136.6280  149.9687 H   0  0  0  0  0  0  0  0  0  0  0  0
  144.7972  136.7637  150.9869 H   0  0  0  0  0  0  0  0  0  0  0  0
  146.0651  138.8982  150.9736 H   0  0  0  0  0  0  0  0  0  0  0  0
  147.5275  138.0716  151.4565 H   0  0  0  0  0  0  0  0  0  0  0  0
  148.8451  142.2053  156.9391 H   0  0  0  0  0  0  0  0  0  0  0  0
  151.1620  141.4048  158.1332 H   0  0  0  0  0  0  0  0  0  0  0  0
  152.2202  139.6121  156.3038 H   0  0  0  0  0  0  0  0  0  0  0  0
  147.3595  135.6064  151.7794 H   0  0  0  0  0  0  0  0  0  0  0  0
  1  2  1  0  0  0  0
  1 21  1  0  0  0  0
  1 22  1  0  0  0  0
  1 23  1  0  0  0  0
  2  3  1  0  0  0  0
  2 16  1  0  0  0  0
  2 24  1  0  0  0  0
  3  4  2  0  0  0  0
  3  5  1  0  0  0  0
  5  6  1  0  0  0  0
  5 25  1  0  0  0  0
  6 15  1  0  0  0  0
  6  7  1  0  0  0  0
  6 26  1  0  0  0  0
  7  8  1  0  0  0  0
  7 27  1  0  0  0  0
  7 28  1  0  0  0  0
  8  9  1  0  0  0  0
  8 29  1  0  0  0  0
  8 30  1  0  0  0  0
  9 10  1  0  0  0  0
  9 14  1  0  0  0  0
  9 42  1  0  0  0  0
 10 11  1  0  0  0  0
 10 31  1  0  0  0  0
 10 32  1  0  0  0  0
 11 12  1  0  0  0  0
 11 13  2  0  0  0  0
 12 33  1  0  0  0  0
 12 34  1  0  0  0  0
 14 15  1  0  0  0  0
 14 35  1  0  0  0  0
 14 36  1  0  0  0  0
 15 37  1  0  0  0  0
 15 38  1  0  0  0  0
 16 20  1  0  0  0  0
 16 17  1  0  0  0  0
 17 18  2  0  0  0  0
 17 39  1  0  0  0  0
 18 19  1  0  0  0  0
 18 40  1  0  0  0  0
 19 20  2  0  0  0  0
 19 41  1  0  0  0  0
M  CHG  1   9   1
M  END
> <s_m_source_file>
AV-unprocessed.smi

> <i_m_source_file_index>
560

> <i_lp_mmshare_version>
43012

> <i_f3d_flags>
0

> <s_epik_input>
bjFbY0hdW2NIXVtjSF1uMVtDQEhdKFtDSDNdKUMoPU8pW05IXVtDSF0yW0NIMl1bQ0gyXU4oW0NIMl1bQ0gyXTIpW0NIMl1DKD1PKVtOSDJd

> <s_epik_cmdline>
J2VwaWtfcHl0aG9uJywgJy1waCcsICc3LjAnLCAnLXRuJywgJzgnLCAnLW1hJywgJzIwMCcsICctbWV0YWxfYmluZGluZycsICctaW1hZScsICc8aW5maWxlLm1hZT4nLCAnLW9tYWUnLCAnPG91dGZpbGUubWFlPic=

> <r_lp_tautomer_probability>
1

> <r_epik_Ionization_Penalty>
1.02943

> <r_epik_Ionization_Penalty_Charging>
1.02936

> <r_epik_Ionization_Penalty_Neutral>
7.4537e-05

> <r_epik_State_Penalty>
1.08036

> <r_epik_Charging_Adjusted_Penalty>
2.10972

> <i_epik_Tot_Q>
1

> <i_epik_Tot_abs_Q>
1

> <r_epik_Metal_State_Penalty>
1.09347

> <b_epik_Metal_Only>
0

> <s_lp_Force_Field>
OPLS_2005

> <r_lp_Energy>
17.0208

> <b_lp_Chiralities_Consistent>
1

> <s_lp_Variant>
AV-unprocessed.smi:560-3

> <Gold.Version>
5.8.1

> <Gold.Id.Protein>
6NUR|6NUR_protein|mol2

> <Gold.PLP.Fitness>
46.8802

> <Gold.PLP.PLP>
-31.6375

> <Gold.PLP.part.hbond>
-4.0000

> <Gold.PLP.part.metal>
0.0000

> <Gold.PLP.part.buried>
2.5549

> <Gold.PLP.part.nonpolar>
-32.5865

> <Gold.PLP.part.repulsive>
2.4840

> <Gold.PLP.ligand.clash>
0.0000

> <Gold.PLP.ligand.torsion>
1.3712

> <Gold.PLP.Chemscore.Hbond>
5.0000

> <Gold.PLP.Chemscore.CHOScore>
0.9518

> <Gold.PLP.Chemscore.Metal>
0.0000

> <Gold.Chemscore.Hbonds>
donor molecule, donor type, donor heavy atom, donor atom, acceptor molecule, acceptor atom, score
      L1  H     9    42       P1  7948  2.00
      L1  H    12    33       P1 10186  0.46
      L1  H    12    34       P1  7921  1.00
      P1  H  7989  7998       L1    20  0.67
      L1  C    17    39       P1  8028  0.20

> <Gold.PLP.Chemscore.Internal.Correction>
0.1298

> <Gold.Rescore>
     Score         DG    S(hbond)    S(metal)    S(lipo)     H(rot)  DE(clash)    DE(int)     intcor
     13.20     -19.28       3.83        0.00      63.97       2.52       2.08       4.01       ----

> <Gold.Chemscore.Fitness>
13.1982

> <Gold.Chemscore.DG>
-19.2836

> <Gold.Chemscore.ZeroCoef>
-5.4800

> <Gold.Chemscore.Hbond>
3.8268

> <Gold.Chemscore.Metal>
0.0000

> <Gold.Chemscore.Lipo>
63.9691

> <Gold.Chemscore.Internal_Hbond>
0.0000

> <Gold.Chemscore.DEClash>
2.0758

> <Gold.Chemscore.DEInternal>
4.0096

> <Gold.Chemscore.Rot>
2.5243

> <Gold.Chemscore.Internal.Correction>
   9.000000E+99

> <Gold.Chemscore.Hbonds>
donor molecule, donor type, donor heavy atom, donor atom, acceptor molecule, acceptor atom, score
      L1  H     9    42       P1  7948  0.99
      L1  H    12    33       P1 10186  0.44
      L1  H    12    34       P1  7921  1.00
      P1  H  7989  7998       L1    20  0.24

> <Gold.Chemscore.Hbond.Weighted>
-12.7814

> <Gold.Chemscore.Metal.Weighted>
-0.0000

> <Gold.Chemscore.Lipo.Weighted>
-7.4844

> <Gold.Chemscore.Internal_Hbond.Weighted>
0.0000

> <Gold.Chemscore.DEClash.Weighted>
2.0758

> <Gold.Chemscore.DEInternal.Weighted>
4.0096

> <Gold.Chemscore.Rot.Weighted>
6.4622

> <Gold.Chemscore.Internal.Correction.Weighted>
   9.000000E+99

> <Gold.Protein.RotatedTorsions>
[ 6907 6896 6895 6894 ] final  172.24 input  -60.11 | X-H torsion
[ 7974 7965 7964 7962 ] final  -76.81 input  175.53 | X-H torsion
[ 8008 7997 7996 7995 ] final   40.74 input   59.86 | X-H torsion
[ 10167 10162 10161 10158 ] final  143.04 input  -65.29 | X-H torsion
[ 10718 10713 10712 10709 ] final  124.42 input   66.30 | X-H torsion
[ 10763 10752 10751 10750 ] final -140.32 input  -60.55 | X-H torsion
[ 11005 11000 10999 10996 ] final  -84.61 input  -57.11 | X-H torsion

> <Gold.Protein.ActiveResidues>
 VAL166  LYS551  ARG553  GLY616  TRP617  ASP618  TYR619  PRO620  LYS621  CYS622 
 ASP623  PHE694  ASN695  SER759  ASP760  ASP761  ALA762  ILE779  LEU786  VAL792 
 PHE793  MET794  SER795  GLU796  ALA797  LYS798  CYS799  TRP800  GLU811  SER814 

> <Gold.Protein.RotatedAtoms>
  151.7875  133.3356  159.3489 H   0  0  0  0  0  0  0  0  0  0  0  0  # atno 6907 bound_to 6896
  150.7404  134.5873  159.5979 H   0  0  0  0  0  0  0  0  0  0  0  0  # atno 6908 bound_to 6896
  152.3233  134.7354  160.0359 H   0  0  0  0  0  0  0  0  0  0  0  0  # atno 6909 bound_to 6896
  145.6080  140.9393  143.1205 H   0  0  0  0  0  0  0  0  0  0  0  0  # atno 7974 bound_to 7965
  155.2580  140.3357  155.4276 H   0  0  0  0  0  0  0  0  0  0  0  0  # atno 8008 bound_to 7997
  156.2187  140.1800  156.7572 H   0  0  0  0  0  0  0  0  0  0  0  0  # atno 8009 bound_to 7997
  154.5792  140.0656  156.9064 H   0  0  0  0  0  0  0  0  0  0  0  0  # atno 8010 bound_to 7997
  139.4979  144.6067  151.6363 H   0  0  0  0  0  0  0  0  0  0  0  0  # atno 10167 bound_to 10162
  157.5586  131.1090  150.8578 H   0  0  0  0  0  0  0  0  0  0  0  0  # atno 10718 bound_to 10713
  154.8582  135.3556  154.5689 H   0  0  0  0  0  0  0  0  0  0  0  0  # atno 10763 bound_to 10752
  153.6302  135.7002  153.5283 H   0  0  0  0  0  0  0  0  0  0  0  0  # atno 10764 bound_to 10752
  153.3056  135.4193  155.1250 H   0  0  0  0  0  0  0  0  0  0  0  0  # atno 10765 bound_to 10752
  141.1649  133.7355  156.8894 H   0  0  0  0  0  0  0  0  0  0  0  0  # atno 11005 bound_to 11000
  144.7282  139.7809  143.7357 LP  0  0  0  0  0  0  0  0  0  0  0  0  # atno 17320 bound_to 7965
  146.1526  139.4614  143.0039 LP  0  0  0  0  0  0  0  0  0  0  0  0  # atno 17321 bound_to 7965
  140.5730  144.0076  150.6227 LP  0  0  0  0  0  0  0  0  0  0  0  0  # atno 17342 bound_to 10162
  140.3200  143.3143  152.0794 LP  0  0  0  0  0  0  0  0  0  0  0  0  # atno 17343 bound_to 10162
  156.9082  130.5271  149.5281 LP  0  0  0  0  0  0  0  0  0  0  0  0  # atno 17370 bound_to 10713
  156.0642  130.5688  150.9254 LP  0  0  0  0  0  0  0  0  0  0  0  0  # atno 17371 bound_to 10713
  140.1659  134.9133  157.2773 LP  0  0  0  0  0  0  0  0  0  0  0  0  # atno 17394 bound_to 11000
  140.2557  134.3630  155.7425 LP  0  0  0  0  0  0  0  0  0  0  0  0  # atno 17395 bound_to 11000

$$$$
