AV-unprocessed.smi:814|AV-procd|sdf|3821|dock7
  -GOLD-   22720 1263D 1   1.00000     0.00000
 Structure written by MMmdl.
 37 38  0  0  0  0  0  0  0  0  2 V2000
  149.4740  140.1278  154.3882 C   0  0  0  0  0  0  0  0  0  0  0  0
  148.1820  140.7846  154.1792 N   0  0  0  0  0  0  0  0  0  0  0  0
  147.7701  141.9713  154.7300 C   0  0  0  0  0  0  0  0  0  0  0  0
  146.5015  142.2010  154.2651 C   0  0  0  0  0  0  0  0  0  0  0  0
  146.1911  141.1454  153.4516 N   0  3  0  0  0  0  0  0  0  0  0  0
  147.2139  140.2844  153.3937 C   0  0  0  0  0  0  0  0  0  0  0  0
  147.2274  139.0086  152.6118 C   0  0  0  0  0  0  0  0  0  0  0  0
  146.0890  138.0564  153.0113 C   0  0  0  0  0  0  0  0  0  0  0  0
  146.0576  136.8739  152.1598 N   0  0  0  0  0  0  0  0  0  0  0  0
  144.9690  136.1241  151.9269 C   0  0  0  0  0  0  0  0  0  0  0  0
  143.8641  136.3751  152.4094 O   0  0  0  0  0  0  0  0  0  0  0  0
  145.1580  134.9045  151.0152 C   0  0  2  0  0  0  0  0  0  0  0  0
  143.8738  134.0458  150.9465 C   0  0  0  0  0  0  0  0  0  0  0  0
  144.1138  132.7109  150.2626 C   0  0  0  0  0  0  0  0  0  0  0  0
  145.3381  132.1972  150.0534 C   0  0  0  0  0  0  0  0  0  0  0  0
  146.6194  132.8900  150.4824 C   0  0  0  0  0  0  0  0  0  0  0  0
  146.3551  134.0447  151.4676 C   0  0  0  0  0  0  0  0  0  0  0  0
  150.0716  140.7118  155.0889 H   0  0  0  0  0  0  0  0  0  0  0  0
  150.0021  140.0572  153.4370 H   0  0  0  0  0  0  0  0  0  0  0  0
  149.3132  139.1306  154.7981 H   0  0  0  0  0  0  0  0  0  0  0  0
  148.3936  142.5503  155.3962 H   0  0  0  0  0  0  0  0  0  0  0  0
  145.8139  143.0140  154.4479 H   0  0  0  0  0  0  0  0  0  0  0  0
  147.1543  139.2854  151.5593 H   0  0  0  0  0  0  0  0  0  0  0  0
  148.2024  138.5421  152.7548 H   0  0  0  0  0  0  0  0  0  0  0  0
  146.2172  137.7274  154.0424 H   0  0  0  0  0  0  0  0  0  0  0  0
  145.1273  138.5707  152.9688 H   0  0  0  0  0  0  0  0  0  0  0  0
  146.9268  136.5970  151.7261 H   0  0  0  0  0  0  0  0  0  0  0  0
  145.3750  135.2650  150.0075 H   0  0  0  0  0  0  0  0  0  0  0  0
  143.4752  133.8438  151.9417 H   0  0  0  0  0  0  0  0  0  0  0  0
  143.0993  134.5831  150.3978 H   0  0  0  0  0  0  0  0  0  0  0  0
  143.2395  132.1596  149.9487 H   0  0  0  0  0  0  0  0  0  0  0  0
  145.4432  131.2481  149.5484 H   0  0  0  0  0  0  0  0  0  0  0  0
  147.2898  132.1599  150.9367 H   0  0  0  0  0  0  0  0  0  0  0  0
  147.1168  133.2643  149.5872 H   0  0  0  0  0  0  0  0  0  0  0  0
  147.2548  134.6534  151.5682 H   0  0  0  0  0  0  0  0  0  0  0  0
  146.1526  133.6296  152.4565 H   0  0  0  0  0  0  0  0  0  0  0  0
  145.3128  141.0285  152.9618 H   0  0  0  0  0  0  0  0  0  0  0  0
  1  2  1  0  0  0  0
  1 18  1  0  0  0  0
  1 19  1  0  0  0  0
  1 20  1  0  0  0  0
  2  6  1  0  0  0  0
  2  3  1  0  0  0  0
  3  4  2  0  0  0  0
  3 21  1  0  0  0  0
  4  5  1  0  0  0  0
  4 22  1  0  0  0  0
  5  6  2  0  0  0  0
  5 37  1  0  0  0  0
  6  7  1  0  0  0  0
  7  8  1  0  0  0  0
  7 23  1  0  0  0  0
  7 24  1  0  0  0  0
  8  9  1  0  0  0  0
  8 25  1  0  0  0  0
  8 26  1  0  0  0  0
  9 10  1  0  0  0  0
  9 27  1  0  0  0  0
 10 11  2  0  0  0  0
 10 12  1  0  0  0  0
 12 17  1  0  0  0  0
 12 13  1  0  0  0  0
 12 28  1  0  0  0  0
 13 14  1  0  0  0  0
 13 29  1  0  0  0  0
 13 30  1  0  0  0  0
 14 15  2  0  0  0  0
 14 31  1  0  0  0  0
 15 16  1  0  0  0  0
 15 32  1  0  0  0  0
 16 17  1  0  0  0  0
 16 33  1  0  0  0  0
 16 34  1  0  0  0  0
 17 35  1  0  0  0  0
 17 36  1  0  0  0  0
M  CHG  1   5   1
M  END
> <s_m_source_file>
AV-unprocessed.smi

> <i_m_source_file_index>
814

> <i_lp_mmshare_version>
43012

> <i_f3d_flags>
0

> <s_epik_input>
W0NIM11uMVtjSF1bY0hdbmMxW0NIMl1bQ0gyXVtOSF1DKD1PKVtDQEBIXTJbQ0gyXVtDSF09W0NIXVtDSDJdW0NIMl0y

> <s_epik_cmdline>
J2VwaWtfcHl0aG9uJywgJy1waCcsICc3LjAnLCAnLXRuJywgJzgnLCAnLW1hJywgJzIwMCcsICctbWV0YWxfYmluZGluZycsICctaW1hZScsICc8aW5maWxlLm1hZT4nLCAnLW9tYWUnLCAnPG91dGZpbGUubWFlPic=

> <r_lp_tautomer_probability>
1

> <r_epik_Ionization_Penalty>
0.0819619

> <r_epik_Ionization_Penalty_Charging>
0

> <r_epik_Ionization_Penalty_Neutral>
0.0819619

> <r_epik_State_Penalty>
0.0726933

> <r_epik_Charging_Adjusted_Penalty>
0.0726933

> <i_epik_Tot_Q>
1

> <i_epik_Tot_abs_Q>
1

> <r_epik_Metal_State_Penalty>
0.411758

> <b_epik_Metal_Only>
0

> <s_lp_Force_Field>
OPLS_2005

> <r_lp_Energy>
9.54254

> <b_lp_Chiralities_Consistent>
1

> <s_lp_Variant>
AV-unprocessed.smi:814-1

> <Gold.Version>
5.8.1

> <Gold.Id.Protein>
6NUR|6NUR_protein|mol2

> <Gold.PLP.Fitness>
46.7384

> <Gold.PLP.PLP>
-35.3246

> <Gold.PLP.part.hbond>
-2.0000

> <Gold.PLP.part.metal>
0.0000

> <Gold.PLP.part.buried>
-0.7639

> <Gold.PLP.part.nonpolar>
-33.7155

> <Gold.PLP.part.repulsive>
0.2155

> <Gold.PLP.ligand.clash>
0.0000

> <Gold.PLP.ligand.torsion>
0.3063

> <Gold.PLP.Chemscore.Hbond>
3.0000

> <Gold.PLP.Chemscore.CHOScore>
1.0000

> <Gold.PLP.Chemscore.Metal>
0.0000

> <Gold.Chemscore.Hbonds>
donor molecule, donor type, donor heavy atom, donor atom, acceptor molecule, acceptor atom, score
      L1  H     5    37       P1 10175  1.90
      L1  H     9    27       P1  7948  0.99
      L1  C     3    21       P1  8028  1.00

> <Gold.PLP.Chemscore.Internal.Correction>
0.0264

> <Gold.Rescore>
     Score         DG    S(hbond)    S(metal)    S(lipo)     H(rot)  DE(clash)    DE(int)     intcor
     15.62     -16.25       1.78        0.00      77.27       1.65       0.37       0.26       ----

> <Gold.Chemscore.Fitness>
15.6228

> <Gold.Chemscore.DG>
-16.2516

> <Gold.Chemscore.ZeroCoef>
-5.4800

> <Gold.Chemscore.Hbond>
1.7843

> <Gold.Chemscore.Metal>
0.0000

> <Gold.Chemscore.Lipo>
77.2706

> <Gold.Chemscore.Internal_Hbond>
0.0000

> <Gold.Chemscore.DEClash>
0.3660

> <Gold.Chemscore.DEInternal>
0.2627

> <Gold.Chemscore.Rot>
1.6518

> <Gold.Chemscore.Internal.Correction>
   9.000000E+99

> <Gold.Chemscore.Hbonds>
donor molecule, donor type, donor heavy atom, donor atom, acceptor molecule, acceptor atom, score
      L1  H     5    37       P1 10175  0.22
      L1  H     9    27       P1  7948  0.88

> <Gold.Chemscore.Hbond.Weighted>
-5.9596

> <Gold.Chemscore.Metal.Weighted>
-0.0000

> <Gold.Chemscore.Lipo.Weighted>
-9.0407

> <Gold.Chemscore.Internal_Hbond.Weighted>
0.0000

> <Gold.Chemscore.DEClash.Weighted>
0.3660

> <Gold.Chemscore.DEInternal.Weighted>
0.2627

> <Gold.Chemscore.Rot.Weighted>
4.2287

> <Gold.Chemscore.Internal.Correction.Weighted>
   9.000000E+99

> <Gold.Protein.RotatedTorsions>
[ 6907 6896 6895 6894 ] final  -43.29 input  -60.11 | X-H torsion
[ 7974 7965 7964 7962 ] final   -2.71 input  175.53 | X-H torsion
[ 8008 7997 7996 7995 ] final  -43.55 input   59.86 | X-H torsion
[ 10167 10162 10161 10158 ] final  102.93 input  -65.29 | X-H torsion
[ 10718 10713 10712 10709 ] final -160.72 input   66.30 | X-H torsion
[ 10763 10752 10751 10750 ] final  -99.90 input  -60.55 | X-H torsion
[ 11005 11000 10999 10996 ] final  -74.18 input  -57.11 | X-H torsion

> <Gold.Protein.ActiveResidues>
 VAL166  LYS551  ARG553  GLY616  TRP617  ASP618  TYR619  PRO620  LYS621  CYS622 
 ASP623  PHE694  ASN695  SER759  ASP760  ASP761  ALA762  ILE779  LEU786  VAL792 
 PHE793  MET794  SER795  GLU796  ALA797  LYS798  CYS799  TRP800  GLU811  SER814 

> <Gold.Protein.RotatedAtoms>
  150.9456  134.8861  159.7639 H   0  0  0  0  0  0  0  0  0  0  0  0  # atno 6907 bound_to 6896
  152.5098  134.3879  159.9384 H   0  0  0  0  0  0  0  0  0  0  0  0  # atno 6908 bound_to 6896
  151.3898  133.3752  159.2754 H   0  0  0  0  0  0  0  0  0  0  0  0  # atno 6909 bound_to 6896
  146.2400  140.1612  142.8333 H   0  0  0  0  0  0  0  0  0  0  0  0  # atno 7974 bound_to 7965
  154.3997  140.1445  156.3537 H   0  0  0  0  0  0  0  0  0  0  0  0  # atno 8008 bound_to 7997
  155.8245  140.3468  155.5513 H   0  0  0  0  0  0  0  0  0  0  0  0  # atno 8009 bound_to 7997
  155.8253  140.0904  157.1815 H   0  0  0  0  0  0  0  0  0  0  0  0  # atno 8010 bound_to 7997
  139.7307  144.7036  151.0726 H   0  0  0  0  0  0  0  0  0  0  0  0  # atno 10167 bound_to 10162
  156.5861  130.8750  151.2877 H   0  0  0  0  0  0  0  0  0  0  0  0  # atno 10718 bound_to 10713
  154.7536  135.4955  153.9333 H   0  0  0  0  0  0  0  0  0  0  0  0  # atno 10763 bound_to 10752
  153.1170  135.6723  153.9408 H   0  0  0  0  0  0  0  0  0  0  0  0  # atno 10764 bound_to 10752
  153.9151  135.3094  155.3427 H   0  0  0  0  0  0  0  0  0  0  0  0  # atno 10765 bound_to 10752
  141.1632  133.6903  156.7325 H   0  0  0  0  0  0  0  0  0  0  0  0  # atno 11005 bound_to 11000
  145.0088  140.8696  143.5237 LP  0  0  0  0  0  0  0  0  0  0  0  0  # atno 17320 bound_to 7965
  145.1642  139.2441  143.5375 LP  0  0  0  0  0  0  0  0  0  0  0  0  # atno 17321 bound_to 7965
  140.7770  143.5047  150.9727 LP  0  0  0  0  0  0  0  0  0  0  0  0  # atno 17342 bound_to 10162
  139.8735  143.7162  152.3164 LP  0  0  0  0  0  0  0  0  0  0  0  0  # atno 17343 bound_to 10162
  157.7315  130.9701  150.1882 LP  0  0  0  0  0  0  0  0  0  0  0  0  # atno 17370 bound_to 10713
  156.2589  130.3708  149.8151 LP  0  0  0  0  0  0  0  0  0  0  0  0  # atno 17371 bound_to 10713
  140.2735  134.8373  157.3868 LP  0  0  0  0  0  0  0  0  0  0  0  0  # atno 17394 bound_to 11000
  140.1499  134.4863  155.7968 LP  0  0  0  0  0  0  0  0  0  0  0  0  # atno 17395 bound_to 11000

$$$$
