AV-unprocessed.smi:3175|AV-procd|sdf|12123|dock4
  -GOLD-   2272017563D 1   1.00000     0.00000
 Structure written by MMmdl.
 38 39  0  0  0  0  0  0  0  0  2 V2000
  152.9028  139.8500  157.5792 O   0  0  0  0  0  0  0  0  0  0  0  0
  152.3157  140.8221  158.0541 C   0  0  0  0  0  0  0  0  0  0  0  0
  153.0041  141.7072  159.0977 C   0  0  0  0  0  0  0  0  0  0  0  0
  152.1468  142.9135  159.5331 C   0  0  0  0  0  0  0  0  0  0  0  0
  152.2770  144.1200  158.6016 C   0  0  0  0  0  0  0  0  0  0  0  0
  151.7472  145.3006  159.4198 C   0  0  0  0  0  0  0  0  0  0  0  0
  151.9784  144.9352  160.8939 C   0  0  0  0  0  0  0  0  0  0  0  0
  152.5069  143.4950  160.9063 C   0  0  0  0  0  0  0  0  0  0  0  0
  151.0627  141.1616  157.7152 N   0  0  0  0  0  0  0  0  0  0  0  0
  150.2345  140.4536  156.7431 C   0  0  0  0  0  0  0  0  0  0  0  0
  150.0187  141.2495  155.4405 C   0  0  0  0  0  0  0  0  0  0  0  0
  149.0275  140.6009  154.4896 C   0  0  0  0  0  0  0  0  0  0  0  0
  147.9041  141.3192  154.0246 C   0  0  0  0  0  0  0  0  0  0  0  0
  146.9963  140.6907  153.1468 C   0  0  0  0  0  0  0  0  0  0  0  0
  147.2328  139.3575  152.7536 C   0  0  0  0  0  0  0  0  0  0  0  0
  148.3189  138.7018  153.2186 N   0  3  0  0  0  0  0  0  0  0  0  0
  149.2119  139.2686  154.0592 C   0  0  0  0  0  0  0  0  0  0  0  0
  153.2725  141.1091  159.9701 H   0  0  0  0  0  0  0  0  0  0  0  0
  153.9417  142.0618  158.6688 H   0  0  0  0  0  0  0  0  0  0  0  0
  151.0948  142.6221  159.5502 H   0  0  0  0  0  0  0  0  0  0  0  0
  153.3261  144.2906  158.3552 H   0  0  0  0  0  0  0  0  0  0  0  0
  151.7346  143.9865  157.6650 H   0  0  0  0  0  0  0  0  0  0  0  0
  152.2368  146.2353  159.1448 H   0  0  0  0  0  0  0  0  0  0  0  0
  150.6788  145.4257  159.2382 H   0  0  0  0  0  0  0  0  0  0  0  0
  152.6875  145.6134  161.3695 H   0  0  0  0  0  0  0  0  0  0  0  0
  151.0411  145.0046  161.4471 H   0  0  0  0  0  0  0  0  0  0  0  0
  152.0921  142.9109  161.7286 H   0  0  0  0  0  0  0  0  0  0  0  0
  153.5908  143.5107  161.0298 H   0  0  0  0  0  0  0  0  0  0  0  0
  150.6582  141.9774  158.1517 H   0  0  0  0  0  0  0  0  0  0  0  0
  150.7348  139.5123  156.5146 H   0  0  0  0  0  0  0  0  0  0  0  0
  149.2746  140.1898  157.1899 H   0  0  0  0  0  0  0  0  0  0  0  0
  149.6711  142.2551  155.6800 H   0  0  0  0  0  0  0  0  0  0  0  0
  150.9708  141.3787  154.9241 H   0  0  0  0  0  0  0  0  0  0  0  0
  147.7379  142.3397  154.3380 H   0  0  0  0  0  0  0  0  0  0  0  0
  146.1313  141.2241  152.7808 H   0  0  0  0  0  0  0  0  0  0  0  0
  146.5913  138.8004  152.0865 H   0  0  0  0  0  0  0  0  0  0  0  0
  150.0376  138.6417  154.3641 H   0  0  0  0  0  0  0  0  0  0  0  0
  148.4717  137.7375  152.9222 H   0  0  0  0  0  0  0  0  0  0  0  0
  1  2  2  0  0  0  0
  2  3  1  0  0  0  0
  2  9  1  0  0  0  0
  3  4  1  0  0  0  0
  3 18  1  0  0  0  0
  3 19  1  0  0  0  0
  4  8  1  0  0  0  0
  4  5  1  0  0  0  0
  4 20  1  0  0  0  0
  5  6  1  0  0  0  0
  5 21  1  0  0  0  0
  5 22  1  0  0  0  0
  6  7  1  0  0  0  0
  6 23  1  0  0  0  0
  6 24  1  0  0  0  0
  7  8  1  0  0  0  0
  7 25  1  0  0  0  0
  7 26  1  0  0  0  0
  8 27  1  0  0  0  0
  8 28  1  0  0  0  0
  9 10  1  0  0  0  0
  9 29  1  0  0  0  0
 10 11  1  0  0  0  0
 10 30  1  0  0  0  0
 10 31  1  0  0  0  0
 11 12  1  0  0  0  0
 11 32  1  0  0  0  0
 11 33  1  0  0  0  0
 12 17  1  0  0  0  0
 12 13  2  0  0  0  0
 13 14  1  0  0  0  0
 13 34  1  0  0  0  0
 14 15  2  0  0  0  0
 14 35  1  0  0  0  0
 15 16  1  0  0  0  0
 15 36  1  0  0  0  0
 16 17  2  0  0  0  0
 16 38  1  0  0  0  0
 17 37  1  0  0  0  0
M  CHG  1  16   1
M  END
> <s_m_source_file>
AV-unprocessed.smi

> <i_m_source_file_index>
3175

> <i_lp_mmshare_version>
43012

> <i_f3d_flags>
0

> <s_epik_input>
W0NIMl0xW0NIMl1bQ0gyXVtDSDJdW0NIXTFbQ0gyXUMoPU8pW05IXVtDSDJdW0NIMl1jMltjSF1bY0hdW2NIXW5bY0hdMg==

> <s_epik_cmdline>
J2VwaWtfcHl0aG9uJywgJy1waCcsICc3LjAnLCAnLXRuJywgJzgnLCAnLW1hJywgJzIwMCcsICctbWV0YWxfYmluZGluZycsICctaW1hZScsICc8aW5maWxlLm1hZT4nLCAnLW9tYWUnLCAnPG91dGZpbGUubWFlPic=

> <r_epik_Ionization_Penalty>
2.25127

> <r_epik_Ionization_Penalty_Charging>
2.25127

> <r_epik_Ionization_Penalty_Neutral>
2.03742e-08

> <r_epik_State_Penalty>
2.39841

> <r_epik_Charging_Adjusted_Penalty>
4.64968

> <i_epik_Tot_Q>
1

> <i_epik_Tot_abs_Q>
1

> <r_epik_Metal_State_Penalty>
2.41158

> <b_epik_Metal_Only>
0

> <s_lp_Force_Field>
OPLS_2005

> <r_lp_Energy>
27.035

> <b_lp_Chiralities_Consistent>
1

> <s_lp_Variant>
AV-unprocessed.smi:3175-2

> <Gold.Version>
5.8.1

> <Gold.Id.Protein>
6NUR|6NUR_protein|mol2

> <Gold.PLP.Fitness>
51.5621

> <Gold.PLP.PLP>
-43.3434

> <Gold.PLP.part.hbond>
-3.0000

> <Gold.PLP.part.metal>
0.0000

> <Gold.PLP.part.buried>
-1.4657

> <Gold.PLP.part.nonpolar>
-38.8993

> <Gold.PLP.part.repulsive>
0.0987

> <Gold.PLP.ligand.clash>
0.0879

> <Gold.PLP.ligand.torsion>
0.3525

> <Gold.PLP.Chemscore.Hbond>
3.0000

> <Gold.PLP.Chemscore.CHOScore>
0.0000

> <Gold.PLP.Chemscore.Metal>
0.0000

> <Gold.Chemscore.Hbonds>
donor molecule, donor type, donor heavy atom, donor atom, acceptor molecule, acceptor atom, score
      L1  H    16    38       P1  7948  2.00
      P1  H  7997  8010       L1     1  1.00

> <Gold.PLP.Chemscore.Internal.Correction>
0.0117

> <Gold.Rescore>
     Score         DG    S(hbond)    S(metal)    S(lipo)     H(rot)  DE(clash)    DE(int)     intcor
     21.42     -21.74       1.85        0.00     120.91       1.59       0.07       0.25       ----

> <Gold.Chemscore.Fitness>
21.4222

> <Gold.Chemscore.DG>
-21.7421

> <Gold.Chemscore.ZeroCoef>
-5.4800

> <Gold.Chemscore.Hbond>
1.8547

> <Gold.Chemscore.Metal>
0.0000

> <Gold.Chemscore.Lipo>
120.9091

> <Gold.Chemscore.Internal_Hbond>
0.0000

> <Gold.Chemscore.DEClash>
0.0653

> <Gold.Chemscore.DEInternal>
0.2546

> <Gold.Chemscore.Rot>
1.5933

> <Gold.Chemscore.Internal.Correction>
   9.000000E+99

> <Gold.Chemscore.Hbonds>
donor molecule, donor type, donor heavy atom, donor atom, acceptor molecule, acceptor atom, score
      L1  H    16    38       P1  7948  0.99
      P1  H  7997  8010       L1     1  0.97

> <Gold.Chemscore.Hbond.Weighted>
-6.1947

> <Gold.Chemscore.Metal.Weighted>
-0.0000

> <Gold.Chemscore.Lipo.Weighted>
-14.1464

> <Gold.Chemscore.Internal_Hbond.Weighted>
0.0000

> <Gold.Chemscore.DEClash.Weighted>
0.0653

> <Gold.Chemscore.DEInternal.Weighted>
0.2546

> <Gold.Chemscore.Rot.Weighted>
4.0789

> <Gold.Chemscore.Internal.Correction.Weighted>
   9.000000E+99

> <Gold.Protein.RotatedTorsions>
[ 6907 6896 6895 6894 ] final   39.83 input  -60.11 | X-H torsion
[ 7974 7965 7964 7962 ] final   48.24 input  175.53 | X-H torsion
[ 8008 7997 7996 7995 ] final   47.70 input   59.86 | X-H torsion
[ 10167 10162 10161 10158 ] final -113.22 input  -65.29 | X-H torsion
[ 10718 10713 10712 10709 ] final    8.98 input   66.30 | X-H torsion
[ 10763 10752 10751 10750 ] final  101.01 input  -60.55 | X-H torsion
[ 11005 11000 10999 10996 ] final    4.28 input  -57.11 | X-H torsion

> <Gold.Protein.ActiveResidues>
 VAL166  LYS551  ARG553  GLY616  TRP617  ASP618  TYR619  PRO620  LYS621  CYS622 
 ASP623  PHE694  ASN695  SER759  ASP760  ASP761  ALA762  ILE779  LEU786  VAL792 
 PHE793  MET794  SER795  GLU796  ALA797  LYS798  CYS799  TRP800  GLU811  SER814 

> <Gold.Protein.RotatedAtoms>
  152.1746  134.8806  160.0531 H   0  0  0  0  0  0  0  0  0  0  0  0  # atno 6907 bound_to 6896
  151.9753  133.3734  159.4095 H   0  0  0  0  0  0  0  0  0  0  0  0  # atno 6908 bound_to 6896
  150.6907  134.4020  159.5167 H   0  0  0  0  0  0  0  0  0  0  0  0  # atno 6909 bound_to 6896
  146.0223  139.4666  142.9889 H   0  0  0  0  0  0  0  0  0  0  0  0  # atno 7974 bound_to 7965
  155.3735  140.3425  155.4244 H   0  0  0  0  0  0  0  0  0  0  0  0  # atno 8008 bound_to 7997
  156.1650  140.1613  156.8581 H   0  0  0  0  0  0  0  0  0  0  0  0  # atno 8009 bound_to 7997
  154.5176  140.0774  156.8093 H   0  0  0  0  0  0  0  0  0  0  0  0  # atno 8010 bound_to 7997
  140.1142  143.4500  152.1733 H   0  0  0  0  0  0  0  0  0  0  0  0  # atno 10167 bound_to 10162
  156.9597  130.5928  149.5661 H   0  0  0  0  0  0  0  0  0  0  0  0  # atno 10718 bound_to 10713
  153.3212  135.4059  155.1418 H   0  0  0  0  0  0  0  0  0  0  0  0  # atno 10763 bound_to 10752
  154.8601  135.3588  154.5594 H   0  0  0  0  0  0  0  0  0  0  0  0  # atno 10764 bound_to 10752
  153.6028  135.7070  153.5436 H   0  0  0  0  0  0  0  0  0  0  0  0  # atno 10765 bound_to 10752
  140.5837  133.9989  155.8058 H   0  0  0  0  0  0  0  0  0  0  0  0  # atno 11005 bound_to 11000
  145.7173  141.0086  143.1421 LP  0  0  0  0  0  0  0  0  0  0  0  0  # atno 17320 bound_to 7965
  144.6995  139.8829  143.7448 LP  0  0  0  0  0  0  0  0  0  0  0  0  # atno 17321 bound_to 7965
  139.5603  144.7401  151.4175 LP  0  0  0  0  0  0  0  0  0  0  0  0  # atno 17342 bound_to 10162
  140.6909  143.7865  150.7253 LP  0  0  0  0  0  0  0  0  0  0  0  0  # atno 17343 bound_to 10162
  156.0327  130.5417  150.8577 LP  0  0  0  0  0  0  0  0  0  0  0  0  # atno 17370 bound_to 10713
  157.5666  131.0946  150.9480 LP  0  0  0  0  0  0  0  0  0  0  0  0  # atno 17371 bound_to 10713
  141.0980  133.9813  157.3127 LP  0  0  0  0  0  0  0  0  0  0  0  0  # atno 17394 bound_to 11000
  139.9305  135.0200  156.8385 LP  0  0  0  0  0  0  0  0  0  0  0  0  # atno 17395 bound_to 11000

$$$$
