AV-unprocessed.smi:2163|AV-procd|sdf|8807|dock7
  -GOLD-   2272011593D 1   1.00000     0.00000
 Structure written by MMmdl.
 44 46  0  0  0  0  0  0  0  0  2 V2000
  152.2618  138.9925  158.5649 C   0  0  0  0  0  0  0  0  0  0  0  0
  152.0678  140.4538  158.7932 C   0  0  0  0  0  0  0  0  0  0  0  0
  152.2475  141.1109  159.9738 N   0  3  0  0  0  0  0  0  0  0  0  0
  151.9732  142.4689  159.8047 C   0  0  0  0  0  0  0  0  0  0  0  0
  152.0162  143.5274  160.7071 C   0  0  0  0  0  0  0  0  0  0  0  0
  151.6742  144.8005  160.2054 C   0  0  0  0  0  0  0  0  0  0  0  0
  151.3073  144.9843  158.8563 C   0  0  0  0  0  0  0  0  0  0  0  0
  151.2668  143.9034  157.9510 C   0  0  0  0  0  0  0  0  0  0  0  0
  151.6077  142.6487  158.4550 C   0  0  0  0  0  0  0  0  0  0  0  0
  151.6828  141.3805  157.8693 N   0  0  0  0  0  0  0  0  0  0  0  0
  151.3619  141.2290  156.4413 C   0  0  0  0  0  0  0  0  0  0  0  0
  149.9157  141.6447  156.1015 C   0  0  1  0  0  0  0  0  0  0  0  0
  149.9240  142.3885  154.8985 O   0  0  0  0  0  0  0  0  0  0  0  0
  148.9965  140.4268  155.9180 C   0  0  0  0  0  0  0  0  0  0  0  0
  148.0893  140.6913  154.8559 O   0  0  0  0  0  0  0  0  0  0  0  0
  146.9852  141.4737  155.1189 C   0  0  0  0  0  0  0  0  0  0  0  0
  146.5425  141.8172  156.4215 C   0  0  0  0  0  0  0  0  0  0  0  0
  145.3945  142.6140  156.5977 C   0  0  0  0  0  0  0  0  0  0  0  0
  144.6756  143.0811  155.4801 C   0  0  0  0  0  0  0  0  0  0  0  0
  143.4380  143.9323  155.6727 C   0  0  0  0  0  0  0  0  0  0  0  0
  143.3229  144.9815  154.6487 C   0  0  0  0  0  0  0  0  0  0  0  0
  143.2319  145.8069  153.8430 N   0  0  0  0  0  0  0  0  0  0  0  0
  145.1150  142.7522  154.1832 C   0  0  0  0  0  0  0  0  0  0  0  0
  146.2619  141.9541  154.0078 C   0  0  0  0  0  0  0  0  0  0  0  0
  152.6083  138.5045  159.4761 H   0  0  0  0  0  0  0  0  0  0  0  0
  153.0015  138.8284  157.7813 H   0  0  0  0  0  0  0  0  0  0  0  0
  151.3220  138.5316  158.2602 H   0  0  0  0  0  0  0  0  0  0  0  0
  152.2969  143.3895  161.7409 H   0  0  0  0  0  0  0  0  0  0  0  0
  151.6940  145.6530  160.8688 H   0  0  0  0  0  0  0  0  0  0  0  0
  151.0522  145.9747  158.5079 H   0  0  0  0  0  0  0  0  0  0  0  0
  150.9864  144.0538  156.9192 H   0  0  0  0  0  0  0  0  0  0  0  0
  152.0723  141.8324  155.8750 H   0  0  0  0  0  0  0  0  0  0  0  0
  151.5471  140.1921  156.1577 H   0  0  0  0  0  0  0  0  0  0  0  0
  149.5273  142.2771  156.9005 H   0  0  0  0  0  0  0  0  0  0  0  0
  149.6572  143.2742  155.0910 H   0  0  0  0  0  0  0  0  0  0  0  0
  149.5859  139.5262  155.7356 H   0  0  0  0  0  0  0  0  0  0  0  0
  148.4176  140.2681  156.8293 H   0  0  0  0  0  0  0  0  0  0  0  0
  147.0662  141.4816  157.3035 H   0  0  0  0  0  0  0  0  0  0  0  0
  145.0660  142.8662  157.5955 H   0  0  0  0  0  0  0  0  0  0  0  0
  142.5436  143.3101  155.6316 H   0  0  0  0  0  0  0  0  0  0  0  0
  143.4616  144.4078  156.6535 H   0  0  0  0  0  0  0  0  0  0  0  0
  144.5730  143.1093  153.3198 H   0  0  0  0  0  0  0  0  0  0  0  0
  146.5876  141.7045  153.0086 H   0  0  0  0  0  0  0  0  0  0  0  0
  152.5387  140.6605  160.8318 H   0  0  0  0  0  0  0  0  0  0  0  0
  1  2  1  0  0  0  0
  1 25  1  0  0  0  0
  1 26  1  0  0  0  0
  1 27  1  0  0  0  0
  2 10  1  0  0  0  0
  2  3  2  0  0  0  0
  3  4  1  0  0  0  0
  3 44  1  0  0  0  0
  4  9  2  0  0  0  0
  4  5  1  0  0  0  0
  5  6  2  0  0  0  0
  5 28  1  0  0  0  0
  6  7  1  0  0  0  0
  6 29  1  0  0  0  0
  7  8  2  0  0  0  0
  7 30  1  0  0  0  0
  8  9  1  0  0  0  0
  8 31  1  0  0  0  0
  9 10  1  0  0  0  0
 10 11  1  0  0  0  0
 11 12  1  0  0  0  0
 11 32  1  0  0  0  0
 11 33  1  0  0  0  0
 12 13  1  0  0  0  0
 12 14  1  0  0  0  0
 12 34  1  0  0  0  0
 13 35  1  0  0  0  0
 14 15  1  0  0  0  0
 14 36  1  0  0  0  0
 14 37  1  0  0  0  0
 15 16  1  0  0  0  0
 16 24  1  0  0  0  0
 16 17  2  0  0  0  0
 17 18  1  0  0  0  0
 17 38  1  0  0  0  0
 18 19  2  0  0  0  0
 18 39  1  0  0  0  0
 19 20  1  0  0  0  0
 19 23  1  0  0  0  0
 20 21  1  0  0  0  0
 20 40  1  0  0  0  0
 20 41  1  0  0  0  0
 21 22  3  0  0  0  0
 23 24  2  0  0  0  0
 23 42  1  0  0  0  0
 24 43  1  0  0  0  0
M  CHG  1   3   1
M  END
> <s_m_source_file>
AV-unprocessed.smi

> <i_m_source_file_index>
2163

> <i_lp_mmshare_version>
43012

> <i_f3d_flags>
0

> <s_epik_input>
W2NIXTFbY0hdW2NIXVtjSF1jKGMxMiluKGMobjIpW0NIM10pW0NIMl1bQ0BIXShbT0hdKVtDSDJdT2MzW2NIXVtjSF1jKFtDSDJdQyNOKVtjSF1bY0hdMw==

> <s_epik_cmdline>
J2VwaWtfcHl0aG9uJywgJy1waCcsICc3LjAnLCAnLXRuJywgJzgnLCAnLW1hJywgJzIwMCcsICctbWV0YWxfYmluZGluZycsICctaW1hZScsICc8aW5maWxlLm1hZT4nLCAnLW9tYWUnLCAnPG91dGZpbGUubWFlPic=

> <r_lp_tautomer_probability>
1

> <r_epik_Ionization_Penalty>
1.03158

> <r_epik_Ionization_Penalty_Charging>
1.03158

> <r_epik_Ionization_Penalty_Neutral>
2.3994e-06

> <r_epik_State_Penalty>
1.08278

> <r_epik_Charging_Adjusted_Penalty>
2.11436

> <i_epik_Tot_Q>
1

> <i_epik_Tot_abs_Q>
1

> <r_epik_Metal_State_Penalty>
5.07177

> <b_epik_Metal_Only>
0

> <s_lp_Force_Field>
OPLS_2005

> <r_lp_Energy>
20.4003

> <b_lp_Chiralities_Consistent>
1

> <s_lp_Variant>
AV-unprocessed.smi:2163-4

> <Gold.Version>
5.8.1

> <Gold.Id.Protein>
6NUR|6NUR_protein|mol2

> <Gold.PLP.Fitness>
49.8160

> <Gold.PLP.PLP>
-50.0292

> <Gold.PLP.part.hbond>
-5.0000

> <Gold.PLP.part.metal>
0.0000

> <Gold.PLP.part.buried>
-3.2370

> <Gold.PLP.part.nonpolar>
-41.7132

> <Gold.PLP.part.repulsive>
0.3031

> <Gold.PLP.ligand.clash>
0.0148

> <Gold.PLP.ligand.torsion>
1.6990

> <Gold.PLP.Chemscore.Hbond>
1.0000

> <Gold.PLP.Chemscore.CHOScore>
0.0000

> <Gold.PLP.Chemscore.Metal>
0.0000

> <Gold.Chemscore.Hbonds>
donor molecule, donor type, donor heavy atom, donor atom, acceptor molecule, acceptor atom, score
      L1  H    13    35       P1  8028  1.00

> <Gold.PLP.Chemscore.Internal.Correction>
0.1995

> <Gold.Rescore>
     Score         DG    S(hbond)    S(metal)    S(lipo)     H(rot)  DE(clash)    DE(int)     intcor
     13.60     -14.90       0.95        0.00     110.29       2.60       0.01       1.29       ----

> <Gold.Chemscore.Fitness>
13.6027

> <Gold.Chemscore.DG>
-14.9032

> <Gold.Chemscore.ZeroCoef>
-5.4800

> <Gold.Chemscore.Hbond>
0.9537

> <Gold.Chemscore.Metal>
0.0000

> <Gold.Chemscore.Lipo>
110.2936

> <Gold.Chemscore.Internal_Hbond>
0.0000

> <Gold.Chemscore.DEClash>
0.0088

> <Gold.Chemscore.DEInternal>
1.2918

> <Gold.Chemscore.Rot>
2.6041

> <Gold.Chemscore.Internal.Correction>
   9.000000E+99

> <Gold.Chemscore.Hbonds>
donor molecule, donor type, donor heavy atom, donor atom, acceptor molecule, acceptor atom, score
      L1  H    13    35       P1  8028  1.00

> <Gold.Chemscore.Hbond.Weighted>
-3.1854

> <Gold.Chemscore.Metal.Weighted>
-0.0000

> <Gold.Chemscore.Lipo.Weighted>
-12.9044

> <Gold.Chemscore.Internal_Hbond.Weighted>
0.0000

> <Gold.Chemscore.DEClash.Weighted>
0.0088

> <Gold.Chemscore.DEInternal.Weighted>
1.2918

> <Gold.Chemscore.Rot.Weighted>
6.6665

> <Gold.Chemscore.Internal.Correction.Weighted>
   9.000000E+99

> <Gold.Protein.RotatedTorsions>
[ 6907 6896 6895 6894 ] final   57.35 input  -60.11 | X-H torsion
[ 7974 7965 7964 7962 ] final  132.31 input  175.53 | X-H torsion
[ 8008 7997 7996 7995 ] final   44.32 input   59.86 | X-H torsion
[ 10167 10162 10161 10158 ] final -105.37 input  -65.29 | X-H torsion
[ 10718 10713 10712 10709 ] final  105.28 input   66.30 | X-H torsion
[ 10763 10752 10751 10750 ] final  145.03 input  -60.55 | X-H torsion
[ 11005 11000 10999 10996 ] final   76.49 input  -57.11 | X-H torsion

> <Gold.Protein.ActiveResidues>
 VAL166  LYS551  ARG553  GLY616  TRP617  ASP618  TYR619  PRO620  LYS621  CYS622 
 ASP623  PHE694  ASN695  SER759  ASP760  ASP761  ALA762  ILE779  LEU786  VAL792 
 PHE793  MET794  SER795  GLU796  ALA797  LYS798  CYS799  TRP800  GLU811  SER814 

> <Gold.Protein.RotatedAtoms>
  152.3723  134.6715  160.0171 H   0  0  0  0  0  0  0  0  0  0  0  0  # atno 6907 bound_to 6896
  151.7005  133.3305  159.3273 H   0  0  0  0  0  0  0  0  0  0  0  0  # atno 6908 bound_to 6896
  150.7683  134.6555  159.6356 H   0  0  0  0  0  0  0  0  0  0  0  0  # atno 6909 bound_to 6896
  144.9981  139.4339  143.5305 H   0  0  0  0  0  0  0  0  0  0  0  0  # atno 7974 bound_to 7965
  155.3174  140.3395  155.4242 H   0  0  0  0  0  0  0  0  0  0  0  0  # atno 8008 bound_to 7997
  156.1926  140.1703  156.8099 H   0  0  0  0  0  0  0  0  0  0  0  0  # atno 8009 bound_to 7997
  154.5460  140.0715  156.8573 H   0  0  0  0  0  0  0  0  0  0  0  0  # atno 8010 bound_to 7997
  140.1993  143.3831  152.1143 H   0  0  0  0  0  0  0  0  0  0  0  0  # atno 10167 bound_to 10162
  157.6711  131.0824  150.5833 H   0  0  0  0  0  0  0  0  0  0  0  0  # atno 10718 bound_to 10713
  153.9987  135.2925  155.3405 H   0  0  0  0  0  0  0  0  0  0  0  0  # atno 10763 bound_to 10752
  154.7172  135.5124  153.8759 H   0  0  0  0  0  0  0  0  0  0  0  0  # atno 10764 bound_to 10752
  153.0776  135.6668  154.0231 H   0  0  0  0  0  0  0  0  0  0  0  0  # atno 10765 bound_to 10752
  139.9296  134.7605  156.1403 H   0  0  0  0  0  0  0  0  0  0  0  0  # atno 11005 bound_to 11000
  146.3446  139.9354  142.8748 LP  0  0  0  0  0  0  0  0  0  0  0  0  # atno 17320 bound_to 7965
  145.2191  140.9927  143.4056 LP  0  0  0  0  0  0  0  0  0  0  0  0  # atno 17321 bound_to 7965
  139.5224  144.7058  151.5358 LP  0  0  0  0  0  0  0  0  0  0  0  0  # atno 17342 bound_to 10162
  140.6402  143.8905  150.6684 LP  0  0  0  0  0  0  0  0  0  0  0  0  # atno 17343 bound_to 10162
  156.6134  130.4386  149.5850 LP  0  0  0  0  0  0  0  0  0  0  0  0  # atno 17370 bound_to 10713
  156.2412  130.6852  151.1558 LP  0  0  0  0  0  0  0  0  0  0  0  0  # atno 17371 bound_to 10713
  141.0876  133.6728  156.2470 LP  0  0  0  0  0  0  0  0  0  0  0  0  # atno 17394 bound_to 11000
  140.6240  134.5332  157.5551 LP  0  0  0  0  0  0  0  0  0  0  0  0  # atno 17395 bound_to 11000

$$$$
