AV-unprocessed.smi:314|AV-procd|sdf|2314|dock7
  -GOLD-   2262022213D 1   1.00000     0.00000
 Structure written by MMmdl.
 48 49  0  0  0  0  0  0  0  0  1 V2000
  144.8425  132.2474  149.8612 C   0  0  0  0  0  0  0  0  0  0  0  0
  143.9083  132.9170  150.7008 O   0  0  0  0  0  0  0  0  0  0  0  0
  144.1989  134.2027  151.1090 C   0  0  0  0  0  0  0  0  0  0  0  0
  143.2587  134.8854  151.9063 C   0  0  0  0  0  0  0  0  0  0  0  0
  143.5504  136.1951  152.3328 C   0  0  0  0  0  0  0  0  0  0  0  0
  144.7812  136.7794  151.9514 C   0  0  0  0  0  0  0  0  0  0  0  0
  145.1775  138.0970  152.3036 N   0  0  0  0  0  0  0  0  0  0  0  0
  146.3952  138.6537  152.1910 C   0  0  0  0  0  0  0  0  0  0  0  0
  147.3896  138.0991  151.7229 O   0  0  0  0  0  0  0  0  0  0  0  0
  146.3929  139.9196  152.6323 N   0  0  0  0  0  0  0  0  0  0  0  0
  147.5465  140.8117  152.6133 C   0  0  0  0  0  0  0  0  0  0  0  0
  148.1317  141.0002  154.0274 C   0  0  0  0  0  0  0  0  0  0  0  0
  149.0703  139.8651  154.4704 C   0  0  0  0  0  0  0  0  0  0  0  0
  148.8235  138.7115  154.1154 O   0  0  0  0  0  0  0  0  0  0  0  0
  150.1477  140.1696  155.2331 N   0  0  0  0  0  0  0  0  0  0  0  0
  151.1253  139.2184  155.7708 C   0  0  0  0  0  0  0  0  0  0  0  0
  151.0197  139.1982  157.3103 C   0  0  2  0  0  0  0  0  0  0  0  0
  149.7414  138.5231  157.8392 C   0  0  0  0  0  0  0  0  0  0  0  0
  151.1615  140.5270  157.8230 O   0  0  0  0  0  0  0  0  0  0  0  0
  150.2772  141.5036  157.2672 C   0  0  1  0  0  0  0  0  0  0  0  0
  150.6178  142.8607  157.8927 C   0  0  0  0  0  0  0  0  0  0  0  0
  150.4246  141.5174  155.7332 C   0  0  0  0  0  0  0  0  0  0  0  0
  145.6451  136.0199  151.1359 C   0  0  0  0  0  0  0  0  0  0  0  0
  145.3731  134.7630  150.7265 N   0  0  0  0  0  0  0  0  0  0  0  0
  144.4735  131.2466  149.6369 H   0  0  0  0  0  0  0  0  0  0  0  0
  145.8121  132.1403  150.3496 H   0  0  0  0  0  0  0  0  0  0  0  0
  144.9744  132.7713  148.9134 H   0  0  0  0  0  0  0  0  0  0  0  0
  142.3275  134.4138  152.1839 H   0  0  0  0  0  0  0  0  0  0  0  0
  142.8245  136.7274  152.9279 H   0  0  0  0  0  0  0  0  0  0  0  0
  144.4349  138.7056  152.6152 H   0  0  0  0  0  0  0  0  0  0  0  0
  145.5312  140.2963  152.9992 H   0  0  0  0  0  0  0  0  0  0  0  0
  148.2957  140.3761  151.9513 H   0  0  0  0  0  0  0  0  0  0  0  0
  147.2636  141.7716  152.1765 H   0  0  0  0  0  0  0  0  0  0  0  0
  148.6882  141.9376  154.0625 H   0  0  0  0  0  0  0  0  0  0  0  0
  147.3143  141.0812  154.7450 H   0  0  0  0  0  0  0  0  0  0  0  0
  151.0242  138.2077  155.3783 H   0  0  0  0  0  0  0  0  0  0  0  0
  152.1247  139.5427  155.4770 H   0  0  0  0  0  0  0  0  0  0  0  0
  151.8657  138.6293  157.6967 H   0  0  0  0  0  0  0  0  0  0  0  0
  149.6960  137.4807  157.5229 H   0  0  0  0  0  0  0  0  0  0  0  0
  148.8348  139.0096  157.4808 H   0  0  0  0  0  0  0  0  0  0  0  0
  149.7184  138.5375  158.9290 H   0  0  0  0  0  0  0  0  0  0  0  0
  149.2489  141.2567  157.5331 H   0  0  0  0  0  0  0  0  0  0  0  0
  149.9598  143.6435  157.5146 H   0  0  0  0  0  0  0  0  0  0  0  0
  151.6455  143.1507  157.6722 H   0  0  0  0  0  0  0  0  0  0  0  0
  150.5059  142.8285  158.9767 H   0  0  0  0  0  0  0  0  0  0  0  0
  151.4374  141.8076  155.4495 H   0  0  0  0  0  0  0  0  0  0  0  0
  149.7641  142.2713  155.3029 H   0  0  0  0  0  0  0  0  0  0  0  0
  146.5890  136.4290  150.8063 H   0  0  0  0  0  0  0  0  0  0  0  0
  1  2  1  0  0  0  0
  1 25  1  0  0  0  0
  1 26  1  0  0  0  0
  1 27  1  0  0  0  0
  2  3  1  0  0  0  0
  3 24  1  0  0  0  0
  3  4  2  0  0  0  0
  4  5  1  0  0  0  0
  4 28  1  0  0  0  0
  5  6  2  0  0  0  0
  5 29  1  0  0  0  0
  6  7  1  0  0  0  0
  6 23  1  0  0  0  0
  7  8  1  0  0  0  0
  7 30  1  0  0  0  0
  8  9  2  0  0  0  0
  8 10  1  0  0  0  0
 10 11  1  0  0  0  0
 10 31  1  0  0  0  0
 11 12  1  0  0  0  0
 11 32  1  0  0  0  0
 11 33  1  0  0  0  0
 12 13  1  0  0  0  0
 12 34  1  0  0  0  0
 12 35  1  0  0  0  0
 13 14  2  0  0  0  0
 13 15  1  0  0  0  0
 15 22  1  0  0  0  0
 15 16  1  0  0  0  0
 16 17  1  0  0  0  0
 16 36  1  0  0  0  0
 16 37  1  0  0  0  0
 17 18  1  0  0  0  0
 17 19  1  0  0  0  0
 17 38  1  0  0  0  0
 18 39  1  0  0  0  0
 18 40  1  0  0  0  0
 18 41  1  0  0  0  0
 19 20  1  0  0  0  0
 20 21  1  0  0  0  0
 20 22  1  0  0  0  0
 20 42  1  0  0  0  0
 21 43  1  0  0  0  0
 21 44  1  0  0  0  0
 21 45  1  0  0  0  0
 22 46  1  0  0  0  0
 22 47  1  0  0  0  0
 23 24  2  0  0  0  0
 23 48  1  0  0  0  0
M  END
> <s_m_source_file>
AV-unprocessed.smi

> <i_m_source_file_index>
314

> <i_lp_mmshare_version>
43012

> <i_f3d_flags>
0

> <s_epik_input>
W0NIM11PYzFbY0hdW2NIXWMoW2NIXW4xKVtOSF1DKD1PKVtOSF1bQ0gyXVtDSDJdQyg9TylOMltDSDJdW0NAQEhdKFtDSDNdKU9bQ0BASF0oW0NIM10pW0NIMl0y

> <s_epik_cmdline>
J2VwaWtfcHl0aG9uJywgJy1waCcsICc3LjAnLCAnLXRuJywgJzgnLCAnLW1hJywgJzIwMCcsICctbWV0YWxfYmluZGluZycsICctaW1hZScsICc8aW5maWxlLm1hZT4nLCAnLW9tYWUnLCAnPG91dGZpbGUubWFlPic=

> <r_lp_tautomer_probability>
1

> <r_epik_Ionization_Penalty>
8.55977e-05

> <r_epik_Ionization_Penalty_Charging>
0

> <r_epik_Ionization_Penalty_Neutral>
8.55977e-05

> <r_epik_State_Penalty>
-0

> <r_epik_Charging_Adjusted_Penalty>
0

> <i_epik_Tot_Q>
0

> <i_epik_Tot_abs_Q>
0

> <r_epik_Metal_State_Penalty>
-0

> <b_epik_Metal_Only>
0

> <s_lp_Force_Field>
OPLS_2005

> <r_lp_Energy>
25.8744

> <b_lp_Chiralities_Consistent>
1

> <s_lp_Variant>
AV-unprocessed.smi:314-2

> <Gold.Version>
5.8.1

> <Gold.Id.Protein>
6NUR|6NUR_protein|mol2

> <Gold.PLP.Fitness>
44.4947

> <Gold.PLP.PLP>
-34.7527

> <Gold.PLP.part.hbond>
-4.0000

> <Gold.PLP.part.metal>
0.0000

> <Gold.PLP.part.buried>
-2.5813

> <Gold.PLP.part.nonpolar>
-34.1117

> <Gold.PLP.part.repulsive>
6.6182

> <Gold.PLP.ligand.clash>
0.0000

> <Gold.PLP.ligand.torsion>
0.5887

> <Gold.PLP.Chemscore.Hbond>
2.6320

> <Gold.PLP.Chemscore.CHOScore>
0.9994

> <Gold.PLP.Chemscore.Metal>
0.0000

> <Gold.Chemscore.Hbonds>
donor molecule, donor type, donor heavy atom, donor atom, acceptor molecule, acceptor atom, score
      L1  H     7    30       P1 10175  0.91
      L1  H    10    31       P1 10175  0.77
      P1  H  7954  7966       L1     9  1.00
      L1  C    23    48       P1  7948  0.96

> <Gold.PLP.Chemscore.Internal.Correction>
0.0254

> <Gold.Rescore>
     Score         DG    S(hbond)    S(metal)    S(lipo)     H(rot)  DE(clash)    DE(int)     intcor
     11.48     -19.60       2.68        0.00      83.84       1.81       4.83       3.29       ----

> <Gold.Chemscore.Fitness>
11.4848

> <Gold.Chemscore.DG>
-19.6002

> <Gold.Chemscore.ZeroCoef>
-5.4800

> <Gold.Chemscore.Hbond>
2.6754

> <Gold.Chemscore.Metal>
0.0000

> <Gold.Chemscore.Lipo>
83.8430

> <Gold.Chemscore.Internal_Hbond>
0.0000

> <Gold.Chemscore.DEClash>
4.8259

> <Gold.Chemscore.DEInternal>
3.2895

> <Gold.Chemscore.Rot>
1.8067

> <Gold.Chemscore.Internal.Correction>
   9.000000E+99

> <Gold.Chemscore.Hbonds>
donor molecule, donor type, donor heavy atom, donor atom, acceptor molecule, acceptor atom, score
      L1  H     7    30       P1 10175  0.88
      L1  H    10    31       P1 10175  0.74
      P1  H  7954  7966       L1     9  0.97

> <Gold.Chemscore.Hbond.Weighted>
-8.9357

> <Gold.Chemscore.Metal.Weighted>
-0.0000

> <Gold.Chemscore.Lipo.Weighted>
-9.8096

> <Gold.Chemscore.Internal_Hbond.Weighted>
0.0000

> <Gold.Chemscore.DEClash.Weighted>
4.8259

> <Gold.Chemscore.DEInternal.Weighted>
3.2895

> <Gold.Chemscore.Rot.Weighted>
4.6252

> <Gold.Chemscore.Internal.Correction.Weighted>
   9.000000E+99

> <Gold.Protein.RotatedTorsions>
[ 6907 6896 6895 6894 ] final  -11.45 input  -60.11 | X-H torsion
[ 7974 7965 7964 7962 ] final   56.32 input  175.53 | X-H torsion
[ 8008 7997 7996 7995 ] final  -75.12 input   59.86 | X-H torsion
[ 10167 10162 10161 10158 ] final   25.56 input  -65.29 | X-H torsion
[ 10718 10713 10712 10709 ] final   41.97 input   66.30 | X-H torsion
[ 10763 10752 10751 10750 ] final -122.37 input  -60.55 | X-H torsion
[ 11005 11000 10999 10996 ] final   70.25 input  -57.11 | X-H torsion

> <Gold.Protein.ActiveResidues>
 VAL166  LYS551  ARG553  GLY616  TRP617  ASP618  TYR619  PRO620  LYS621  CYS622 
 ASP623  PHE694  ASN695  SER759  ASP760  ASP761  ALA762  ILE779  LEU786  VAL792 
 PHE793  MET794  SER795  GLU796  ALA797  LYS798  CYS799  TRP800  GLU811  SER814 

> <Gold.Protein.RotatedAtoms>
  151.3860  135.0948  159.9510 H   0  0  0  0  0  0  0  0  0  0  0  0  # atno 6907 bound_to 6896
  152.5094  133.9025  159.7458 H   0  0  0  0  0  0  0  0  0  0  0  0  # atno 6908 bound_to 6896
  150.9469  133.6537  159.2808 H   0  0  0  0  0  0  0  0  0  0  0  0  # atno 6909 bound_to 6896
  145.9410  139.3888  143.0363 H   0  0  0  0  0  0  0  0  0  0  0  0  # atno 7974 bound_to 7965
  154.5390  140.0749  156.8476 H   0  0  0  0  0  0  0  0  0  0  0  0  # atno 8008 bound_to 7997
  155.3220  140.3396  155.4223 H   0  0  0  0  0  0  0  0  0  0  0  0  # atno 8009 bound_to 7997
  156.1856  140.1667  156.8179 H   0  0  0  0  0  0  0  0  0  0  0  0  # atno 8010 bound_to 7997
  140.5096  144.0182  150.6367 H   0  0  0  0  0  0  0  0  0  0  0  0  # atno 10167 bound_to 10162
  157.3995  130.7852  149.7337 H   0  0  0  0  0  0  0  0  0  0  0  0  # atno 10718 bound_to 10713
  154.8688  135.4135  154.2770 H   0  0  0  0  0  0  0  0  0  0  0  0  # atno 10763 bound_to 10752
  153.3670  135.7006  153.6673 H   0  0  0  0  0  0  0  0  0  0  0  0  # atno 10764 bound_to 10752
  153.5550  135.3621  155.2748 H   0  0  0  0  0  0  0  0  0  0  0  0  # atno 10765 bound_to 10752
  139.9608  134.7064  156.0650 H   0  0  0  0  0  0  0  0  0  0  0  0  # atno 11005 bound_to 11000
  145.8299  140.9636  143.0854 LP  0  0  0  0  0  0  0  0  0  0  0  0  # atno 17320 bound_to 7965
  144.6779  140.0150  143.7484 LP  0  0  0  0  0  0  0  0  0  0  0  0  # atno 17321 bound_to 7965
  140.3501  143.2968  152.0496 LP  0  0  0  0  0  0  0  0  0  0  0  0  # atno 17342 bound_to 10162
  139.4892  144.6380  151.6936 LP  0  0  0  0  0  0  0  0  0  0  0  0  # atno 17343 bound_to 10162
  155.9819  130.4014  150.3444 LP  0  0  0  0  0  0  0  0  0  0  0  0  # atno 17370 bound_to 10713
  157.1570  131.0335  151.2859 LP  0  0  0  0  0  0  0  0  0  0  0  0  # atno 17371 bound_to 10713
  141.1285  133.6593  156.3400 LP  0  0  0  0  0  0  0  0  0  0  0  0  # atno 17394 bound_to 11000
  140.5505  134.6033  157.5406 LP  0  0  0  0  0  0  0  0  0  0  0  0  # atno 17395 bound_to 11000

$$$$
