AV-unprocessed.smi:1046|AV-procd|sdf|4557|dock4
  -GOLD-   22720 2593D 1   1.00000     0.00000
 Structure written by MMmdl.
 54 56  0  0  0  0  0  0  0  0  3 V2000
  152.9267  141.2075  159.2094 C   0  0  0  0  0  0  0  0  0  0  0  0
  151.9541  141.1880  158.0434 C   0  0  0  0  0  0  0  0  0  0  0  0
  151.9977  140.1107  157.1299 C   0  0  0  0  0  0  0  0  0  0  0  0
  151.1104  140.0548  156.0332 C   0  0  0  0  0  0  0  0  0  0  0  0
  150.9823  139.1126  155.0274 N   0  0  0  0  0  0  0  0  0  0  0  0
  149.9853  139.6198  154.3089 C   0  0  0  0  0  0  0  0  0  0  0  0
  149.4586  140.7879  154.7242 N   0  0  0  0  0  0  0  0  0  0  0  0
  148.3831  141.5313  154.0943 C   0  0  0  0  0  0  0  0  0  0  0  0
  147.0608  140.7402  154.0664 C   0  0  1  0  0  0  0  0  0  0  0  0
  146.0018  141.6690  153.9528 O   0  0  0  0  0  0  0  0  0  0  0  0
  146.9652  139.7329  152.8989 C   0  0  0  0  0  0  0  0  0  0  0  0
  145.7586  138.8714  152.9889 N   0  3  2  0  0  0  0  0  0  0  0  0
  145.4184  138.4775  154.3808 C   0  0  0  0  0  0  0  0  0  0  0  0
  144.1146  137.6589  154.4213 C   0  0  0  0  0  0  0  0  0  0  0  0
  144.1865  136.4635  153.5445 N   0  3  2  0  0  0  0  0  0  0  0  0
  144.9891  135.3506  154.1203 C   0  0  0  0  0  0  0  0  0  0  0  0
  144.4211  134.8469  155.4581 C   0  0  0  0  0  0  0  0  0  0  0  0
  143.0479  134.5518  155.3159 O   0  0  0  0  0  0  0  0  0  0  0  0
  144.5527  136.8432  152.1549 C   0  0  0  0  0  0  0  0  0  0  0  0
  145.8441  137.6857  152.0998 C   0  0  0  0  0  0  0  0  0  0  0  0
  150.1701  141.1145  155.8741 C   0  0  0  0  0  0  0  0  0  0  0  0
  150.1166  142.1917  156.7764 C   0  0  0  0  0  0  0  0  0  0  0  0
  151.0108  142.2321  157.8665 C   0  0  0  0  0  0  0  0  0  0  0  0
  150.9446  143.3981  158.8369 C   0  0  0  0  0  0  0  0  0  0  0  0
  153.5718  140.3283  159.2050 H   0  0  0  0  0  0  0  0  0  0  0  0
  152.3874  141.2215  160.1568 H   0  0  0  0  0  0  0  0  0  0  0  0
  153.5645  142.0902  159.1605 H   0  0  0  0  0  0  0  0  0  0  0  0
  152.7157  139.3150  157.2651 H   0  0  0  0  0  0  0  0  0  0  0  0
  149.6215  139.1175  153.4244 H   0  0  0  0  0  0  0  0  0  0  0  0
  148.2526  142.4673  154.6398 H   0  0  0  0  0  0  0  0  0  0  0  0
  148.6910  141.8016  153.0833 H   0  0  0  0  0  0  0  0  0  0  0  0
  146.9521  140.2271  155.0214 H   0  0  0  0  0  0  0  0  0  0  0  0
  145.2958  141.2680  153.4681 H   0  0  0  0  0  0  0  0  0  0  0  0
  146.9554  140.2920  151.9617 H   0  0  0  0  0  0  0  0  0  0  0  0
  147.8453  139.0905  152.8568 H   0  0  0  0  0  0  0  0  0  0  0  0
  146.2399  137.9019  154.8104 H   0  0  0  0  0  0  0  0  0  0  0  0
  145.2978  139.3614  155.0059 H   0  0  0  0  0  0  0  0  0  0  0  0
  143.8733  137.3678  155.4444 H   0  0  0  0  0  0  0  0  0  0  0  0
  143.2864  138.2828  154.0825 H   0  0  0  0  0  0  0  0  0  0  0  0
  145.0599  134.5273  153.4097 H   0  0  0  0  0  0  0  0  0  0  0  0
  146.0130  135.6863  154.2925 H   0  0  0  0  0  0  0  0  0  0  0  0
  144.9504  133.9693  155.8280 H   0  0  0  0  0  0  0  0  0  0  0  0
  144.5269  135.6212  156.2186 H   0  0  0  0  0  0  0  0  0  0  0  0
  142.9513  133.6221  155.1701 H   0  0  0  0  0  0  0  0  0  0  0  0
  144.6459  135.9628  151.5202 H   0  0  0  0  0  0  0  0  0  0  0  0
  143.7293  137.4254  151.7386 H   0  0  0  0  0  0  0  0  0  0  0  0
  146.0110  138.0132  151.0730 H   0  0  0  0  0  0  0  0  0  0  0  0
  146.7094  137.0830  152.3785 H   0  0  0  0  0  0  0  0  0  0  0  0
  149.3926  142.9800  156.6329 H   0  0  0  0  0  0  0  0  0  0  0  0
  150.1806  144.1182  158.5425 H   0  0  0  0  0  0  0  0  0  0  0  0
  151.9004  143.9211  158.8737 H   0  0  0  0  0  0  0  0  0  0  0  0
  150.7033  143.0459  159.8402 H   0  0  0  0  0  0  0  0  0  0  0  0
  144.9908  139.4299  152.6422 H   0  0  0  0  0  0  0  0  0  0  0  0
  143.2442  136.0997  153.5042 H   0  0  0  0  0  0  0  0  0  0  0  0
  1  2  1  0  0  0  0
  1 25  1  0  0  0  0
  1 26  1  0  0  0  0
  1 27  1  0  0  0  0
  2 23  1  0  0  0  0
  2  3  2  0  0  0  0
  3  4  1  0  0  0  0
  3 28  1  0  0  0  0
  4 21  2  0  0  0  0
  4  5  1  0  0  0  0
  5  6  2  0  0  0  0
  6  7  1  0  0  0  0
  6 29  1  0  0  0  0
  7  8  1  0  0  0  0
  7 21  1  0  0  0  0
  8  9  1  0  0  0  0
  8 30  1  0  0  0  0
  8 31  1  0  0  0  0
  9 10  1  0  0  0  0
  9 11  1  0  0  0  0
  9 32  1  0  0  0  0
 10 33  1  0  0  0  0
 11 12  1  0  0  0  0
 11 34  1  0  0  0  0
 11 35  1  0  0  0  0
 12 20  1  0  0  0  0
 12 13  1  0  0  0  0
 12 53  1  0  0  0  0
 13 14  1  0  0  0  0
 13 36  1  0  0  0  0
 13 37  1  0  0  0  0
 14 15  1  0  0  0  0
 14 38  1  0  0  0  0
 14 39  1  0  0  0  0
 15 16  1  0  0  0  0
 15 19  1  0  0  0  0
 15 54  1  0  0  0  0
 16 17  1  0  0  0  0
 16 40  1  0  0  0  0
 16 41  1  0  0  0  0
 17 18  1  0  0  0  0
 17 42  1  0  0  0  0
 17 43  1  0  0  0  0
 18 44  1  0  0  0  0
 19 20  1  0  0  0  0
 19 45  1  0  0  0  0
 19 46  1  0  0  0  0
 20 47  1  0  0  0  0
 20 48  1  0  0  0  0
 21 22  1  0  0  0  0
 22 23  2  0  0  0  0
 22 49  1  0  0  0  0
 23 24  1  0  0  0  0
 24 50  1  0  0  0  0
 24 51  1  0  0  0  0
 24 52  1  0  0  0  0
M  CHG  1  12   1
M  CHG  1  15   1
M  END
> <s_m_source_file>
AV-unprocessed.smi

> <i_m_source_file_index>
1046

> <i_lp_mmshare_version>
43012

> <i_f3d_flags>
0

> <s_epik_input>
W0NIM11jKFtjSF0xKWMoW0NIM10pW2NIXWMoYzEyKW4oW2NIXW4yKVtDSDJdW0NASF0oW09IXSlbQ0gyXU4zW0NIMl1bQ0gyXU4oW0NIMl1bQ0gyXTMpW0NIMl1bQ0gyXVtPSF0=

> <s_epik_cmdline>
J2VwaWtfcHl0aG9uJywgJy1waCcsICc3LjAnLCAnLXRuJywgJzgnLCAnLW1hJywgJzIwMCcsICctbWV0YWxfYmluZGluZycsICctaW1hZScsICc8aW5maWxlLm1hZT4nLCAnLW9tYWUnLCAnPG91dGZpbGUubWFlPic=

> <r_epik_Ionization_Penalty>
3.17398

> <r_epik_Ionization_Penalty_Charging>
3.09061

> <r_epik_Ionization_Penalty_Neutral>
0.0833726

> <r_epik_State_Penalty>
2.17606

> <r_epik_Charging_Adjusted_Penalty>
5.26667

> <i_epik_Tot_Q>
2

> <i_epik_Tot_abs_Q>
2

> <r_epik_Metal_State_Penalty>
2.08587

> <b_epik_Metal_Only>
0

> <s_lp_Force_Field>
OPLS_2005

> <r_lp_Energy>
29.1343

> <b_lp_Chiralities_Consistent>
1

> <s_lp_Variant>
AV-unprocessed.smi:1046-10

> <Gold.Version>
5.8.1

> <Gold.Id.Protein>
6NUR|6NUR_protein|mol2

> <Gold.PLP.Fitness>
52.1953

> <Gold.PLP.PLP>
-38.3250

> <Gold.PLP.part.hbond>
-3.8793

> <Gold.PLP.part.metal>
0.0000

> <Gold.PLP.part.buried>
-1.7077

> <Gold.PLP.part.nonpolar>
-32.9466

> <Gold.PLP.part.repulsive>
0.0579

> <Gold.PLP.ligand.clash>
0.0000

> <Gold.PLP.ligand.torsion>
0.4739

> <Gold.PLP.Chemscore.Hbond>
3.9913

> <Gold.PLP.Chemscore.CHOScore>
0.8925

> <Gold.PLP.Chemscore.Metal>
0.0000

> <Gold.Chemscore.Hbonds>
donor molecule, donor type, donor heavy atom, donor atom, acceptor molecule, acceptor atom, score
      L1  H    10    33       P1 10175  0.99
      L1  H    12    53       P1 10175  2.00
      L1  H    18    44       P1 10957  1.00
      L1  C     6    29       P1  7957  0.92

> <Gold.PLP.Chemscore.Internal.Correction>
0.1667

> <Gold.Rescore>
     Score         DG    S(hbond)    S(metal)    S(lipo)     H(rot)  DE(clash)    DE(int)     intcor
     16.70     -17.56       2.76        0.00      96.33       3.28       0.32       0.54       ----

> <Gold.Chemscore.Fitness>
16.6956

> <Gold.Chemscore.DG>
-17.5622

> <Gold.Chemscore.ZeroCoef>
-5.4800

> <Gold.Chemscore.Hbond>
2.7592

> <Gold.Chemscore.Metal>
0.0000

> <Gold.Chemscore.Lipo>
96.3292

> <Gold.Chemscore.Internal_Hbond>
0.0000

> <Gold.Chemscore.DEClash>
0.3231

> <Gold.Chemscore.DEInternal>
0.5436

> <Gold.Chemscore.Rot>
3.2828

> <Gold.Chemscore.Internal.Correction>
   9.000000E+99

> <Gold.Chemscore.Hbonds>
donor molecule, donor type, donor heavy atom, donor atom, acceptor molecule, acceptor atom, score
      L1  H    10    33       P1 10175  0.28
      L1  H    12    53       P1 10175  1.00
      L1  H    18    44       P1 10957  1.00

> <Gold.Chemscore.Hbond.Weighted>
-9.2156

> <Gold.Chemscore.Metal.Weighted>
-0.0000

> <Gold.Chemscore.Lipo.Weighted>
-11.2705

> <Gold.Chemscore.Internal_Hbond.Weighted>
0.0000

> <Gold.Chemscore.DEClash.Weighted>
0.3231

> <Gold.Chemscore.DEInternal.Weighted>
0.5436

> <Gold.Chemscore.Rot.Weighted>
8.4039

> <Gold.Chemscore.Internal.Correction.Weighted>
   9.000000E+99

> <Gold.Protein.RotatedTorsions>
[ 6907 6896 6895 6894 ] final   26.62 input  -60.11 | X-H torsion
[ 7974 7965 7964 7962 ] final   54.58 input  175.53 | X-H torsion
[ 8008 7997 7996 7995 ] final -152.62 input   59.86 | X-H torsion
[ 10167 10162 10161 10158 ] final   19.92 input  -65.29 | X-H torsion
[ 10718 10713 10712 10709 ] final   58.49 input   66.30 | X-H torsion
[ 10763 10752 10751 10750 ] final  171.82 input  -60.55 | X-H torsion
[ 11005 11000 10999 10996 ] final -118.50 input  -57.11 | X-H torsion

> <Gold.Protein.ActiveResidues>
 VAL166  LYS551  ARG553  GLY616  TRP617  ASP618  TYR619  PRO620  LYS621  CYS622 
 ASP623  PHE694  ASN695  SER759  ASP760  ASP761  ALA762  ILE779  LEU786  VAL792 
 PHE793  MET794  SER795  GLU796  ALA797  LYS798  CYS799  TRP800  GLU811  SER814 

> <Gold.Protein.RotatedAtoms>
  151.9901  134.9983  160.0560 H   0  0  0  0  0  0  0  0  0  0  0  0  # atno 6907 bound_to 6896
  152.1616  133.4581  159.4872 H   0  0  0  0  0  0  0  0  0  0  0  0  # atno 6908 bound_to 6896
  150.6888  134.1982  159.4355 H   0  0  0  0  0  0  0  0  0  0  0  0  # atno 6909 bound_to 6896
  145.9594  139.4045  143.0257 H   0  0  0  0  0  0  0  0  0  0  0  0  # atno 7974 bound_to 7965
  155.6581  140.0719  157.2564 H   0  0  0  0  0  0  0  0  0  0  0  0  # atno 8008 bound_to 7997
  154.4148  140.1721  156.1797 H   0  0  0  0  0  0  0  0  0  0  0  0  # atno 8009 bound_to 7997
  155.9721  140.3361  155.6588 H   0  0  0  0  0  0  0  0  0  0  0  0  # atno 8010 bound_to 7997
  140.5543  143.9453  150.6599 H   0  0  0  0  0  0  0  0  0  0  0  0  # atno 10167 bound_to 10162
  157.5600  130.8828  149.9096 H   0  0  0  0  0  0  0  0  0  0  0  0  # atno 10718 bound_to 10713
  154.4173  135.2757  155.1998 H   0  0  0  0  0  0  0  0  0  0  0  0  # atno 10763 bound_to 10752
  154.3959  135.6055  153.5873 H   0  0  0  0  0  0  0  0  0  0  0  0  # atno 10764 bound_to 10752
  152.9832  135.5914  154.4463 H   0  0  0  0  0  0  0  0  0  0  0  0  # atno 10765 bound_to 10752
  141.0281  134.0022  157.3184 H   0  0  0  0  0  0  0  0  0  0  0  0  # atno 11005 bound_to 11000
  145.8061  140.9748  143.0973 LP  0  0  0  0  0  0  0  0  0  0  0  0  # atno 17320 bound_to 7965
  144.6812  139.9863  143.7484 LP  0  0  0  0  0  0  0  0  0  0  0  0  # atno 17321 bound_to 7965
  140.2887  143.3339  152.1083 LP  0  0  0  0  0  0  0  0  0  0  0  0  # atno 17342 bound_to 10162
  139.5041  144.6768  151.6107 LP  0  0  0  0  0  0  0  0  0  0  0  0  # atno 17343 bound_to 10162
  156.0654  130.3693  150.0890 LP  0  0  0  0  0  0  0  0  0  0  0  0  # atno 17370 bound_to 10713
  156.9055  130.9634  151.3570 LP  0  0  0  0  0  0  0  0  0  0  0  0  # atno 17371 bound_to 10713
  139.9190  135.0199  156.7991 LP  0  0  0  0  0  0  0  0  0  0  0  0  # atno 17394 bound_to 11000
  140.6455  133.9779  155.7728 LP  0  0  0  0  0  0  0  0  0  0  0  0  # atno 17395 bound_to 11000

$$$$
