AV-unprocessed.smi:1406|AV-procd|sdf|5723|dock7
  -GOLD-   22720 5353D 1   1.00000     0.00000
 Structure written by MMmdl.
 41 43  0  0  0  0  0  0  0  0  2 V2000
  149.2440  141.5978  157.1379 C   0  0  0  0  0  0  0  0  0  0  0  0
  149.9508  141.3512  155.7897 C   0  0  2  0  0  0  0  0  0  0  0  0
  148.9726  141.0413  154.6442 C   0  0  0  0  0  0  0  0  0  0  0  0
  148.8042  141.8388  153.7212 O   0  0  0  0  0  0  0  0  0  0  0  0
  148.3260  139.8677  154.7194 N   0  0  0  0  0  0  0  0  0  0  0  0
  147.3194  139.4073  153.7705 C   0  0  1  0  0  0  0  0  0  0  0  0
  147.6095  139.7692  152.3170 C   0  0  0  0  0  0  0  0  0  0  0  0
  146.7322  138.7707  151.5593 C   0  0  0  0  0  0  0  0  0  0  0  0
  146.7252  137.5353  152.3760 N   0  3  2  0  0  0  0  0  0  0  0  0
  145.4533  136.7730  152.3412 C   0  0  0  0  0  0  0  0  0  0  0  0
  145.5552  135.5091  153.2156 C   0  0  0  0  0  0  0  0  0  0  0  0
  146.0701  135.7984  154.6419 C   0  0  0  0  0  0  0  0  0  0  0  0
  146.3603  137.2901  154.8701 C   0  0  0  0  0  0  0  0  0  0  0  0
  147.2308  137.8754  153.7359 C   0  0  2  0  0  0  0  0  0  0  0  0
  150.9627  140.3056  155.8873 N   0  0  0  0  0  0  0  0  0  0  0  0
  151.8416  140.0493  156.8589 C   0  0  0  0  0  0  0  0  0  0  0  0
  152.6607  139.0419  156.5923 N   0  0  0  0  0  0  0  0  0  0  0  0
  152.2041  138.6988  155.3514 C   0  0  0  0  0  0  0  0  0  0  0  0
  151.1963  139.4307  154.8773 N   0  0  0  0  0  0  0  0  0  0  0  0
  148.5364  142.4245  157.0660 H   0  0  0  0  0  0  0  0  0  0  0  0
  149.9664  141.8547  157.9130 H   0  0  0  0  0  0  0  0  0  0  0  0
  148.6933  140.7199  157.4785 H   0  0  0  0  0  0  0  0  0  0  0  0
  150.4686  142.2742  155.5238 H   0  0  0  0  0  0  0  0  0  0  0  0
  148.5232  139.2676  155.5071 H   0  0  0  0  0  0  0  0  0  0  0  0
  146.3449  139.8185  154.0438 H   0  0  0  0  0  0  0  0  0  0  0  0
  147.3714  140.8067  152.0796 H   0  0  0  0  0  0  0  0  0  0  0  0
  148.6616  139.5985  152.0828 H   0  0  0  0  0  0  0  0  0  0  0  0
  145.7196  139.1704  151.4808 H   0  0  0  0  0  0  0  0  0  0  0  0
  147.0936  138.5792  150.5487 H   0  0  0  0  0  0  0  0  0  0  0  0
  144.6338  137.4048  152.6880 H   0  0  0  0  0  0  0  0  0  0  0  0
  145.2232  136.4978  151.3114 H   0  0  0  0  0  0  0  0  0  0  0  0
  144.5819  135.0196  153.2640 H   0  0  0  0  0  0  0  0  0  0  0  0
  146.2247  134.7947  152.7349 H   0  0  0  0  0  0  0  0  0  0  0  0
  145.3489  135.4467  155.3804 H   0  0  0  0  0  0  0  0  0  0  0  0
  146.9822  135.2258  154.8153 H   0  0  0  0  0  0  0  0  0  0  0  0
  145.4148  137.8307  154.9333 H   0  0  0  0  0  0  0  0  0  0  0  0
  146.8523  137.4336  155.8328 H   0  0  0  0  0  0  0  0  0  0  0  0
  148.2339  137.4498  153.7983 H   0  0  0  0  0  0  0  0  0  0  0  0
  151.8890  140.6164  157.7768 H   0  0  0  0  0  0  0  0  0  0  0  0
  152.6328  137.8910  154.7766 H   0  0  0  0  0  0  0  0  0  0  0  0
  147.4262  136.9275  151.9769 H   0  0  0  0  0  0  0  0  0  0  0  0
  1  2  1  0  0  0  0
  1 20  1  0  0  0  0
  1 21  1  0  0  0  0
  1 22  1  0  0  0  0
  2  3  1  0  0  0  0
  2 15  1  0  0  0  0
  2 23  1  0  0  0  0
  3  4  2  0  0  0  0
  3  5  1  0  0  0  0
  5  6  1  0  0  0  0
  5 24  1  0  0  0  0
  6 14  1  0  0  0  0
  6  7  1  0  0  0  0
  6 25  1  0  0  0  0
  7  8  1  0  0  0  0
  7 26  1  0  0  0  0
  7 27  1  0  0  0  0
  8  9  1  0  0  0  0
  8 28  1  0  0  0  0
  8 29  1  0  0  0  0
  9 14  1  0  0  0  0
  9 10  1  0  0  0  0
  9 41  1  0  0  0  0
 10 11  1  0  0  0  0
 10 30  1  0  0  0  0
 10 31  1  0  0  0  0
 11 12  1  0  0  0  0
 11 32  1  0  0  0  0
 11 33  1  0  0  0  0
 12 13  1  0  0  0  0
 12 34  1  0  0  0  0
 12 35  1  0  0  0  0
 13 14  1  0  0  0  0
 13 36  1  0  0  0  0
 13 37  1  0  0  0  0
 14 38  1  0  0  0  0
 15 19  1  0  0  0  0
 15 16  1  0  0  0  0
 16 17  2  0  0  0  0
 16 39  1  0  0  0  0
 17 18  1  0  0  0  0
 18 19  2  0  0  0  0
 18 40  1  0  0  0  0
M  CHG  1   9   1
M  END
> <s_m_source_file>
AV-unprocessed.smi

> <i_m_source_file_index>
1406

> <i_lp_mmshare_version>
43012

> <i_f3d_flags>
0

> <s_epik_input>
bjFbY0hdbltjSF1uMVtDQEhdKFtDSDNdKUMoPU8pW05IXVtDQEhdKFtDSDJdW0NIMl0yKVtDQEBIXShOMjMpW0NIMl1bQ0gyXVtDSDJdW0NIMl0z

> <s_epik_cmdline>
J2VwaWtfcHl0aG9uJywgJy1waCcsICc3LjAnLCAnLXRuJywgJzgnLCAnLW1hJywgJzIwMCcsICctbWV0YWxfYmluZGluZycsICctaW1hZScsICc8aW5maWxlLm1hZT4nLCAnLW9tYWUnLCAnPG91dGZpbGUubWFlPic=

> <r_lp_tautomer_probability>
1

> <r_epik_Ionization_Penalty>
0.00197066

> <r_epik_Ionization_Penalty_Charging>
0.00196223

> <r_epik_Ionization_Penalty_Neutral>
8.43107e-06

> <r_epik_State_Penalty>
0.00133866

> <r_epik_Charging_Adjusted_Penalty>
0.00330089

> <i_epik_Tot_Q>
1

> <i_epik_Tot_abs_Q>
1

> <r_epik_Metal_State_Penalty>
-0

> <b_epik_Metal_Only>
0

> <s_lp_Force_Field>
OPLS_2005

> <r_lp_Energy>
45.2549

> <b_lp_Chiralities_Consistent>
1

> <s_lp_Variant>
AV-unprocessed.smi:1406-15

> <Gold.Version>
5.8.1

> <Gold.Id.Protein>
6NUR|6NUR_protein|mol2

> <Gold.PLP.Fitness>
39.5446

> <Gold.PLP.PLP>
-27.9060

> <Gold.PLP.part.hbond>
-4.0000

> <Gold.PLP.part.metal>
0.0000

> <Gold.PLP.part.buried>
2.4923

> <Gold.PLP.part.nonpolar>
-27.4429

> <Gold.PLP.part.repulsive>
0.3774

> <Gold.PLP.ligand.clash>
0.0000

> <Gold.PLP.ligand.torsion>
0.9065

> <Gold.PLP.Chemscore.Hbond>
4.4480

> <Gold.PLP.Chemscore.CHOScore>
0.0000

> <Gold.PLP.Chemscore.Metal>
0.0000

> <Gold.Chemscore.Hbonds>
donor molecule, donor type, donor heavy atom, donor atom, acceptor molecule, acceptor atom, score
      L1  H     9    41       P1  7948  2.00
      P1  H  7989  7998       L1    19  0.74
      P1  H  7997  8009       L1    17  0.90
      P1  H  8011  8017       L1     4  0.56

> <Gold.PLP.Chemscore.Internal.Correction>
0.1077

> <Gold.Rescore>
     Score         DG    S(hbond)    S(metal)    S(lipo)     H(rot)  DE(clash)    DE(int)     intcor
     10.69     -14.93       2.56        0.00      48.98       1.89       1.79       2.45       ----

> <Gold.Chemscore.Fitness>
10.6926

> <Gold.Chemscore.DG>
-14.9266

> <Gold.Chemscore.ZeroCoef>
-5.4800

> <Gold.Chemscore.Hbond>
2.5585

> <Gold.Chemscore.Metal>
0.0000

> <Gold.Chemscore.Lipo>
48.9814

> <Gold.Chemscore.Internal_Hbond>
0.0000

> <Gold.Chemscore.DEClash>
1.7878

> <Gold.Chemscore.DEInternal>
2.4462

> <Gold.Chemscore.Rot>
1.8865

> <Gold.Chemscore.Internal.Correction>
   9.000000E+99

> <Gold.Chemscore.Hbonds>
donor molecule, donor type, donor heavy atom, donor atom, acceptor molecule, acceptor atom, score
      L1  H     9    41       P1  7948  0.98
      P1  H  7989  7998       L1    19  0.08
      P1  H  7997  8009       L1    17  0.15
      P1  H  8011  8017       L1     4  0.56

> <Gold.Chemscore.Hbond.Weighted>
-8.5453

> <Gold.Chemscore.Metal.Weighted>
-0.0000

> <Gold.Chemscore.Lipo.Weighted>
-5.7308

> <Gold.Chemscore.Internal_Hbond.Weighted>
0.0000

> <Gold.Chemscore.DEClash.Weighted>
1.7878

> <Gold.Chemscore.DEInternal.Weighted>
2.4462

> <Gold.Chemscore.Rot.Weighted>
4.8295

> <Gold.Chemscore.Internal.Correction.Weighted>
   9.000000E+99

> <Gold.Protein.RotatedTorsions>
[ 6907 6896 6895 6894 ] final   92.96 input  -60.11 | X-H torsion
[ 7974 7965 7964 7962 ] final   -9.70 input  175.53 | X-H torsion
[ 8008 7997 7996 7995 ] final -177.16 input   59.86 | X-H torsion
[ 10167 10162 10161 10158 ] final   21.47 input  -65.29 | X-H torsion
[ 10718 10713 10712 10709 ] final -158.54 input   66.30 | X-H torsion
[ 10763 10752 10751 10750 ] final  166.43 input  -60.55 | X-H torsion
[ 11005 11000 10999 10996 ] final  143.82 input  -57.11 | X-H torsion

> <Gold.Protein.ActiveResidues>
 VAL166  LYS551  ARG553  GLY616  TRP617  ASP618  TYR619  PRO620  LYS621  CYS622 
 ASP623  PHE694  ASN695  SER759  ASP760  ASP761  ALA762  ILE779  LEU786  VAL792 
 PHE793  MET794  SER795  GLU796  ALA797  LYS798  CYS799  TRP800  GLU811  SER814 

> <Gold.Protein.RotatedAtoms>
  152.5453  134.1421  159.8483 H   0  0  0  0  0  0  0  0  0  0  0  0  # atno 6907 bound_to 6896
  151.1456  133.4934  159.2603 H   0  0  0  0  0  0  0  0  0  0  0  0  # atno 6908 bound_to 6896
  151.1526  135.0245  159.8730 H   0  0  0  0  0  0  0  0  0  0  0  0  # atno 6909 bound_to 6896
  146.2243  140.2655  142.8354 H   0  0  0  0  0  0  0  0  0  0  0  0  # atno 7974 bound_to 7965
  156.0036  140.1225  157.0524 H   0  0  0  0  0  0  0  0  0  0  0  0  # atno 8008 bound_to 7997
  154.4251  140.1102  156.5800 H   0  0  0  0  0  0  0  0  0  0  0  0  # atno 8009 bound_to 7997
  155.6179  140.3472  155.4645 H   0  0  0  0  0  0  0  0  0  0  0  0  # atno 8010 bound_to 7997
  140.5424  143.9654  150.6527 H   0  0  0  0  0  0  0  0  0  0  0  0  # atno 10167 bound_to 10162
  156.5556  130.8624  151.2793 H   0  0  0  0  0  0  0  0  0  0  0  0  # atno 10718 bound_to 10713
  154.3388  135.2754  155.2433 H   0  0  0  0  0  0  0  0  0  0  0  0  # atno 10763 bound_to 10752
  154.4713  135.5882  153.6327 H   0  0  0  0  0  0  0  0  0  0  0  0  # atno 10764 bound_to 10752
  152.9859  135.6089  154.3587 H   0  0  0  0  0  0  0  0  0  0  0  0  # atno 10765 bound_to 10752
  140.0584  134.9218  157.1140 H   0  0  0  0  0  0  0  0  0  0  0  0  # atno 11005 bound_to 11000
  144.9307  140.7971  143.5691 LP  0  0  0  0  0  0  0  0  0  0  0  0  # atno 17320 bound_to 7965
  145.2599  139.1997  143.4897 LP  0  0  0  0  0  0  0  0  0  0  0  0  # atno 17321 bound_to 7965
  140.3058  143.3230  152.0927 LP  0  0  0  0  0  0  0  0  0  0  0  0  # atno 17342 bound_to 10162
  139.4994  144.6668  151.6338 LP  0  0  0  0  0  0  0  0  0  0  0  0  # atno 17343 bound_to 10162
  157.7379  130.9804  150.2220 LP  0  0  0  0  0  0  0  0  0  0  0  0  # atno 17370 bound_to 10713
  156.2845  130.3737  149.7902 LP  0  0  0  0  0  0  0  0  0  0  0  0  # atno 17371 bound_to 10713
  140.3809  134.2288  155.7171 LP  0  0  0  0  0  0  0  0  0  0  0  0  # atno 17394 bound_to 11000
  141.1962  133.8088  157.0681 LP  0  0  0  0  0  0  0  0  0  0  0  0  # atno 17395 bound_to 11000

$$$$
