AV-unprocessed.smi:25|AV-procd|sdf|179|dock7
  -GOLD-   2262015443D 1   1.00000     0.00000
 Structure written by MMmdl.
 47 50  0  0  0  0  0  0  0  0  1 V2000
  151.5643  139.6117  155.0990 C   0  0  0  0  0  0  0  0  0  0  0  0
  150.8133  140.1230  156.3448 C   0  0  2  0  0  0  0  0  0  0  0  0
  150.5147  141.6357  156.2426 C   0  0  0  0  0  0  0  0  0  0  0  0
  151.3254  142.2198  157.3579 C   0  0  0  0  0  0  0  0  0  0  0  0
  151.4777  143.5886  157.6388 C   0  0  0  0  0  0  0  0  0  0  0  0
  152.3067  143.9623  158.7155 C   0  0  0  0  0  0  0  0  0  0  0  0
  152.9682  142.9738  159.4764 C   0  0  0  0  0  0  0  0  0  0  0  0
  152.8037  141.6032  159.1789 C   0  0  0  0  0  0  0  0  0  0  0  0
  151.9549  141.2286  158.1090 C   0  0  0  0  0  0  0  0  0  0  0  0
  151.6071  139.9469  157.5831 N   0  0  0  0  0  0  0  0  0  0  0  0
  151.7695  138.7097  158.1287 C   0  0  0  0  0  0  0  0  0  0  0  0
  152.4005  138.5575  159.1778 O   0  0  0  0  0  0  0  0  0  0  0  0
  151.1983  137.4519  157.4455 C   0  0  0  0  0  0  0  0  0  0  0  0
  149.8430  137.0792  157.9144 N   0  0  0  0  0  0  0  0  0  0  0  0
  148.8168  136.8980  156.9531 C   0  0  0  0  0  0  0  0  0  0  0  0
  149.0333  137.0544  155.7503 O   0  0  0  0  0  0  0  0  0  0  0  0
  147.5156  136.5086  157.4850 C   0  0  0  0  0  0  0  0  0  0  0  0
  146.4859  136.3072  156.6454 F   0  0  0  0  0  0  0  0  0  0  0  0
  147.3288  136.3424  158.8103 C   0  0  0  0  0  0  0  0  0  0  0  0
  148.3374  136.5275  159.7374 N   0  0  0  0  0  0  0  0  0  0  0  0
  148.0896  136.3138  161.2131 C   0  0  2  0  0  0  0  0  0  0  0  0
  147.6221  134.8761  161.4708 C   0  0  0  0  0  0  0  0  0  0  0  0
  146.1203  135.0426  161.5608 C   0  0  0  0  0  0  0  0  0  0  0  0
  146.0033  136.4227  162.1957 C   0  0  0  0  0  0  0  0  0  0  0  0
  147.0706  137.1766  161.6307 O   0  0  0  0  0  0  0  0  0  0  0  0
  149.6315  136.8843  159.3011 C   0  0  0  0  0  0  0  0  0  0  0  0
  150.5553  137.0097  160.1079 O   0  0  0  0  0  0  0  0  0  0  0  0
  150.9890  139.8039  154.1931 H   0  0  0  0  0  0  0  0  0  0  0  0
  151.7454  138.5380  155.1421 H   0  0  0  0  0  0  0  0  0  0  0  0
  152.5297  140.1072  154.9899 H   0  0  0  0  0  0  0  0  0  0  0  0
  149.8651  139.5888  156.4328 H   0  0  0  0  0  0  0  0  0  0  0  0
  150.8107  142.0653  155.2848 H   0  0  0  0  0  0  0  0  0  0  0  0
  149.4575  141.8471  156.4059 H   0  0  0  0  0  0  0  0  0  0  0  0
  150.9767  144.3365  157.0419 H   0  0  0  0  0  0  0  0  0  0  0  0
  152.4439  145.0069  158.9533 H   0  0  0  0  0  0  0  0  0  0  0  0
  153.6112  143.2698  160.2921 H   0  0  0  0  0  0  0  0  0  0  0  0
  153.3496  140.9001  159.7812 H   0  0  0  0  0  0  0  0  0  0  0  0
  151.1788  137.6249  156.3698 H   0  0  0  0  0  0  0  0  0  0  0  0
  151.8845  136.6193  157.6023 H   0  0  0  0  0  0  0  0  0  0  0  0
  146.3469  136.0468  159.1486 H   0  0  0  0  0  0  0  0  0  0  0  0
  149.0162  136.5743  161.7266 H   0  0  0  0  0  0  0  0  0  0  0  0
  147.9473  134.1858  160.6912 H   0  0  0  0  0  0  0  0  0  0  0  0
  148.0276  134.5452  162.4276 H   0  0  0  0  0  0  0  0  0  0  0  0
  145.6793  135.0457  160.5635 H   0  0  0  0  0  0  0  0  0  0  0  0
  145.6365  134.2607  162.1466 H   0  0  0  0  0  0  0  0  0  0  0  0
  145.0376  136.8928  162.0097 H   0  0  0  0  0  0  0  0  0  0  0  0
  146.1500  136.3586  163.2745 H   0  0  0  0  0  0  0  0  0  0  0  0
  1  2  1  0  0  0  0
  1 28  1  0  0  0  0
  1 29  1  0  0  0  0
  1 30  1  0  0  0  0
  2 10  1  0  0  0  0
  2  3  1  0  0  0  0
  2 31  1  0  0  0  0
  3  4  1  0  0  0  0
  3 32  1  0  0  0  0
  3 33  1  0  0  0  0
  4  9  2  0  0  0  0
  4  5  1  0  0  0  0
  5  6  2  0  0  0  0
  5 34  1  0  0  0  0
  6  7  1  0  0  0  0
  6 35  1  0  0  0  0
  7  8  2  0  0  0  0
  7 36  1  0  0  0  0
  8  9  1  0  0  0  0
  8 37  1  0  0  0  0
  9 10  1  0  0  0  0
 10 11  1  0  0  0  0
 11 12  2  0  0  0  0
 11 13  1  0  0  0  0
 13 14  1  0  0  0  0
 13 38  1  0  0  0  0
 13 39  1  0  0  0  0
 14 26  1  0  0  0  0
 14 15  1  0  0  0  0
 15 16  2  0  0  0  0
 15 17  1  0  0  0  0
 17 18  1  0  0  0  0
 17 19  2  0  0  0  0
 19 20  1  0  0  0  0
 19 40  1  0  0  0  0
 20 21  1  0  0  0  0
 20 26  1  0  0  0  0
 21 25  1  0  0  0  0
 21 22  1  0  0  0  0
 21 41  1  0  0  0  0
 22 23  1  0  0  0  0
 22 42  1  0  0  0  0
 22 43  1  0  0  0  0
 23 24  1  0  0  0  0
 23 44  1  0  0  0  0
 23 45  1  0  0  0  0
 24 25  1  0  0  0  0
 24 46  1  0  0  0  0
 24 47  1  0  0  0  0
 26 27  2  0  0  0  0
M  END
> <s_m_source_file>
AV-unprocessed.smi

> <i_m_source_file_index>
25

> <i_lp_mmshare_version>
43012

> <i_f3d_flags>
0

> <s_epik_input>
W2NIXTFbY0hdW2NIXVtjSF1jKGMxMilOKFtDQEhdKFtDSDNdKVtDSDJdMilDKD1PKVtDSDJdbjNjKD1PKWMoRilbY0hdbihjMz1PKVtDQEBIXTRbQ0gyXVtDSDJdW0NIMl1PNA==

> <s_epik_cmdline>
J2VwaWtfcHl0aG9uJywgJy1waCcsICc3LjAnLCAnLXRuJywgJzgnLCAnLW1hJywgJzIwMCcsICctbWV0YWxfYmluZGluZycsICctaW1hZScsICc8aW5maWxlLm1hZT4nLCAnLW9tYWUnLCAnPG91dGZpbGUubWFlPic=

> <r_lp_tautomer_probability>
1

> <r_epik_Ionization_Penalty>
1.67943e-06

> <r_epik_Ionization_Penalty_Charging>
3.79603e-09

> <r_epik_Ionization_Penalty_Neutral>
1.67563e-06

> <r_epik_State_Penalty>
-0

> <r_epik_Charging_Adjusted_Penalty>
3.79603e-09

> <i_epik_Tot_Q>
0

> <i_epik_Tot_abs_Q>
0

> <r_epik_Metal_State_Penalty>
-0

> <b_epik_Metal_Only>
0

> <s_epik_Chemistry_Notes>
This compound contains an acetal/aminal-like group ( X-CH(R)-Y where X, Y are N, S, or O) that may be acid/base labile, releasing an aldehyde.

> <s_lp_Force_Field>
OPLS_2005

> <r_lp_Energy>
56.1974

> <b_lp_Chiralities_Consistent>
1

> <s_lp_Variant>
AV-unprocessed.smi:25-1

> <Gold.Version>
5.8.1

> <Gold.Id.Protein>
6NUR|6NUR_protein|mol2

> <Gold.PLP.Fitness>
49.3633

> <Gold.PLP.PLP>
-44.3689

> <Gold.PLP.part.hbond>
-3.7709

> <Gold.PLP.part.metal>
0.0000

> <Gold.PLP.part.buried>
-3.4843

> <Gold.PLP.part.nonpolar>
-38.2428

> <Gold.PLP.part.repulsive>
0.0540

> <Gold.PLP.ligand.clash>
0.0000

> <Gold.PLP.ligand.torsion>
0.4217

> <Gold.PLP.Chemscore.Hbond>
1.9350

> <Gold.PLP.Chemscore.CHOScore>
0.0000

> <Gold.PLP.Chemscore.Metal>
0.0000

> <Gold.Chemscore.Hbonds>
donor molecule, donor type, donor heavy atom, donor atom, acceptor molecule, acceptor atom, score
      P1  H  6896  6908       L1    27  1.00
      P1  H  6934  6947       L1    25  0.96

> <Gold.PLP.Chemscore.Internal.Correction>
0.0329

> <Gold.Rescore>
     Score         DG    S(hbond)    S(metal)    S(lipo)     H(rot)  DE(clash)    DE(int)     intcor
     15.53     -20.03       1.85        0.00     105.57       1.55       0.50       4.01       ----

> <Gold.Chemscore.Fitness>
15.5258

> <Gold.Chemscore.DG>
-20.0322

> <Gold.Chemscore.ZeroCoef>
-5.4800

> <Gold.Chemscore.Hbond>
1.8459

> <Gold.Chemscore.Metal>
0.0000

> <Gold.Chemscore.Lipo>
105.5737

> <Gold.Chemscore.Internal_Hbond>
0.0000

> <Gold.Chemscore.DEClash>
0.5003

> <Gold.Chemscore.DEInternal>
4.0062

> <Gold.Chemscore.Rot>
1.5489

> <Gold.Chemscore.Internal.Correction>
   9.000000E+99

> <Gold.Chemscore.Hbonds>
donor molecule, donor type, donor heavy atom, donor atom, acceptor molecule, acceptor atom, score
      P1  H  6896  6908       L1    27  0.24
      P1  H  6934  6947       L1    25  0.84

> <Gold.Chemscore.Hbond.Weighted>
-6.1652

> <Gold.Chemscore.Metal.Weighted>
-0.0000

> <Gold.Chemscore.Lipo.Weighted>
-12.3521

> <Gold.Chemscore.Internal_Hbond.Weighted>
0.0000

> <Gold.Chemscore.DEClash.Weighted>
0.5003

> <Gold.Chemscore.DEInternal.Weighted>
4.0062

> <Gold.Chemscore.Rot.Weighted>
3.9651

> <Gold.Chemscore.Internal.Correction.Weighted>
   9.000000E+99

> <Gold.Protein.RotatedTorsions>
[ 6907 6896 6895 6894 ] final -130.21 input  -60.11 | X-H torsion
[ 7974 7965 7964 7962 ] final   23.53 input  175.53 | X-H torsion
[ 8008 7997 7996 7995 ] final   61.48 input   59.86 | X-H torsion
[ 10167 10162 10161 10158 ] final  -10.84 input  -65.29 | X-H torsion
[ 10718 10713 10712 10709 ] final   -5.63 input   66.30 | X-H torsion
[ 10763 10752 10751 10750 ] final  -63.33 input  -60.55 | X-H torsion
[ 11005 11000 10999 10996 ] final  -30.72 input  -57.11 | X-H torsion

> <Gold.Protein.ActiveResidues>
 VAL166  LYS551  ARG553  GLY616  TRP617  ASP618  TYR619  PRO620  LYS621  CYS622 
 ASP623  PHE694  ASN695  SER759  ASP760  ASP761  ALA762  ILE779  LEU786  VAL792 
 PHE793  MET794  SER795  GLU796  ALA797  LYS798  CYS799  TRP800  GLU811  SER814 

> <Gold.Protein.RotatedAtoms>
  150.9373  133.6697  159.2797 H   0  0  0  0  0  0  0  0  0  0  0  0  # atno 6907 bound_to 6896
  151.4099  135.0982  159.9591 H   0  0  0  0  0  0  0  0  0  0  0  0  # atno 6908 bound_to 6896
  152.5053  133.8848  159.7419 H   0  0  0  0  0  0  0  0  0  0  0  0  # atno 6909 bound_to 6896
  146.1980  139.7732  142.8783 H   0  0  0  0  0  0  0  0  0  0  0  0  # atno 7974 bound_to 7965
  155.5990  140.3493  155.4588 H   0  0  0  0  0  0  0  0  0  0  0  0  # atno 8008 bound_to 7997
  156.0243  140.1260  157.0350 H   0  0  0  0  0  0  0  0  0  0  0  0  # atno 8009 bound_to 7997
  154.4327  140.1056  156.5994 H   0  0  0  0  0  0  0  0  0  0  0  0  # atno 8010 bound_to 7997
  140.7124  143.5704  150.9099 H   0  0  0  0  0  0  0  0  0  0  0  0  # atno 10167 bound_to 10162
  156.7438  130.5218  149.5818 H   0  0  0  0  0  0  0  0  0  0  0  0  # atno 10718 bound_to 10713
  154.3134  135.6211  153.5475 H   0  0  0  0  0  0  0  0  0  0  0  0  # atno 10763 bound_to 10752
  152.9827  135.5706  154.5152 H   0  0  0  0  0  0  0  0  0  0  0  0  # atno 10764 bound_to 10752
  154.4806  135.2863  155.1550 H   0  0  0  0  0  0  0  0  0  0  0  0  # atno 10765 bound_to 10752
  140.9407  133.7281  156.1071 H   0  0  0  0  0  0  0  0  0  0  0  0  # atno 11005 bound_to 11000
  145.3579  141.0320  143.3301 LP  0  0  0  0  0  0  0  0  0  0  0  0  # atno 17320 bound_to 7965
  144.8621  139.5161  143.6807 LP  0  0  0  0  0  0  0  0  0  0  0  0  # atno 17321 bound_to 7965
  139.9430  143.6360  152.3049 LP  0  0  0  0  0  0  0  0  0  0  0  0  # atno 17342 bound_to 10162
  139.6851  144.7652  151.1538 LP  0  0  0  0  0  0  0  0  0  0  0  0  # atno 17343 bound_to 10162
  156.1447  130.6269  151.0515 LP  0  0  0  0  0  0  0  0  0  0  0  0  # atno 17370 bound_to 10713
  157.6807  131.0839  150.7377 LP  0  0  0  0  0  0  0  0  0  0  0  0  # atno 17371 bound_to 10713
  140.7738  134.3803  157.5502 LP  0  0  0  0  0  0  0  0  0  0  0  0  # atno 17394 bound_to 11000
  139.8819  134.9039  156.2865 LP  0  0  0  0  0  0  0  0  0  0  0  0  # atno 17395 bound_to 11000

$$$$
