AV-unprocessed.smi:2253|AV-procd|sdf|9118|dock4
  -GOLD-   2272012323D 1   1.00000     0.00000
 Structure written by MMmdl.
 52 54  0  0  0  0  0  0  0  0  3 V2000
  145.1818  136.2827  151.5896 C   0  0  0  0  0  0  0  0  0  0  0  0
  146.2474  137.1778  152.0906 N   0  3  2  0  0  0  0  0  0  0  0  0
  146.2521  137.2781  153.5717 C   0  0  0  0  0  0  0  0  0  0  0  0
  147.4197  138.1528  154.0664 C   0  0  0  0  0  0  0  0  0  0  0  0
  147.3754  139.5755  153.4575 C   0  0  2  0  0  0  0  0  0  0  0  0
  146.2172  140.3878  153.9705 N   0  3  2  0  0  0  0  0  0  0  0  0
  146.3546  141.8692  153.8615 C   0  0  0  0  0  0  0  0  0  0  0  0
  147.3685  142.4274  154.8775 C   0  0  0  0  0  0  0  0  0  0  0  0
  146.9512  142.0650  156.3130 C   0  0  2  0  0  0  0  0  0  0  0  0
  147.9575  142.5323  157.2626 N   0  0  0  0  0  0  0  0  0  0  0  0
  149.1499  141.9519  157.4656 C   0  0  0  0  0  0  0  0  0  0  0  0
  149.5309  140.9646  156.8383 O   0  0  0  0  0  0  0  0  0  0  0  0
  149.8429  142.5908  158.4245 N   0  0  0  0  0  0  0  0  0  0  0  0
  151.1270  142.3027  158.9679 C   0  0  0  0  0  0  0  0  0  0  0  0
  151.6633  141.0022  159.1393 C   0  0  0  0  0  0  0  0  0  0  0  0
  152.9516  140.8701  159.6952 C   0  0  0  0  0  0  0  0  0  0  0  0
  153.7101  141.9193  160.0760 N   0  0  0  0  0  0  0  0  0  0  0  0
  153.1979  143.1569  159.9108 C   0  0  0  0  0  0  0  0  0  0  0  0
  151.9209  143.3994  159.3661 C   0  0  0  0  0  0  0  0  0  0  0  0
  151.4672  144.6691  159.2297 F   0  0  0  0  0  0  0  0  0  0  0  0
  146.7354  140.5436  156.4321 C   0  0  0  0  0  0  0  0  0  0  0  0
  145.7651  140.0328  155.3478 C   0  0  0  0  0  0  0  0  0  0  0  0
  147.3901  139.3875  151.9204 C   0  0  0  0  0  0  0  0  0  0  0  0
  146.2216  138.5092  151.4350 C   0  0  0  0  0  0  0  0  0  0  0  0
  144.1934  136.6769  151.8298 H   0  0  0  0  0  0  0  0  0  0  0  0
  145.2717  135.2907  152.0336 H   0  0  0  0  0  0  0  0  0  0  0  0
  145.2513  136.1696  150.5072 H   0  0  0  0  0  0  0  0  0  0  0  0
  145.3003  137.6849  153.9170 H   0  0  0  0  0  0  0  0  0  0  0  0
  146.3412  136.2786  153.9994 H   0  0  0  0  0  0  0  0  0  0  0  0
  147.4476  138.1654  155.1540 H   0  0  0  0  0  0  0  0  0  0  0  0
  148.3565  137.6751  153.7749 H   0  0  0  0  0  0  0  0  0  0  0  0
  148.2956  140.0926  153.7283 H   0  0  0  0  0  0  0  0  0  0  0  0
  146.5908  142.1910  152.8494 H   0  0  0  0  0  0  0  0  0  0  0  0
  145.3779  142.3116  154.0632 H   0  0  0  0  0  0  0  0  0  0  0  0
  148.3656  142.0413  154.6622 H   0  0  0  0  0  0  0  0  0  0  0  0
  147.4303  143.5114  154.7738 H   0  0  0  0  0  0  0  0  0  0  0  0
  146.0069  142.5707  156.5254 H   0  0  0  0  0  0  0  0  0  0  0  0
  147.7220  143.3410  157.8197 H   0  0  0  0  0  0  0  0  0  0  0  0
  149.3847  143.3915  158.8346 H   0  0  0  0  0  0  0  0  0  0  0  0
  151.1292  140.1073  158.8642 H   0  0  0  0  0  0  0  0  0  0  0  0
  153.3845  139.8911  159.8384 H   0  0  0  0  0  0  0  0  0  0  0  0
  153.8242  143.9793  160.2232 H   0  0  0  0  0  0  0  0  0  0  0  0
  147.6898  140.0213  156.3606 H   0  0  0  0  0  0  0  0  0  0  0  0
  146.3341  140.3006  157.4166 H   0  0  0  0  0  0  0  0  0  0  0  0
  144.7878  140.4908  155.5083 H   0  0  0  0  0  0  0  0  0  0  0  0
  145.5940  138.9654  155.4640 H   0  0  0  0  0  0  0  0  0  0  0  0
  147.4155  140.3365  151.3873 H   0  0  0  0  0  0  0  0  0  0  0  0
  148.3243  138.8988  151.6390 H   0  0  0  0  0  0  0  0  0  0  0  0
  146.2891  138.3797  150.3540 H   0  0  0  0  0  0  0  0  0  0  0  0
  145.2677  138.9994  151.6350 H   0  0  0  0  0  0  0  0  0  0  0  0
  145.4462  140.1515  153.3625 H   0  0  0  0  0  0  0  0  0  0  0  0
  147.1238  136.7474  151.8302 H   0  0  0  0  0  0  0  0  0  0  0  0
  1  2  1  0  0  0  0
  1 25  1  0  0  0  0
  1 26  1  0  0  0  0
  1 27  1  0  0  0  0
  2 24  1  0  0  0  0
  2  3  1  0  0  0  0
  2 52  1  0  0  0  0
  3  4  1  0  0  0  0
  3 28  1  0  0  0  0
  3 29  1  0  0  0  0
  4  5  1  0  0  0  0
  4 30  1  0  0  0  0
  4 31  1  0  0  0  0
  5  6  1  0  0  0  0
  5 23  1  0  0  0  0
  5 32  1  0  0  0  0
  6 22  1  0  0  0  0
  6  7  1  0  0  0  0
  6 51  1  0  0  0  0
  7  8  1  0  0  0  0
  7 33  1  0  0  0  0
  7 34  1  0  0  0  0
  8  9  1  0  0  0  0
  8 35  1  0  0  0  0
  8 36  1  0  0  0  0
  9 10  1  0  0  0  0
  9 21  1  0  0  0  0
  9 37  1  0  0  0  0
 10 11  1  0  0  0  0
 10 38  1  0  0  0  0
 11 12  2  0  0  0  0
 11 13  1  0  0  0  0
 13 14  1  0  0  0  0
 13 39  1  0  0  0  0
 14 19  1  0  0  0  0
 14 15  2  0  0  0  0
 15 16  1  0  0  0  0
 15 40  1  0  0  0  0
 16 17  2  0  0  0  0
 16 41  1  0  0  0  0
 17 18  1  0  0  0  0
 18 19  2  0  0  0  0
 18 42  1  0  0  0  0
 19 20  1  0  0  0  0
 21 22  1  0  0  0  0
 21 43  1  0  0  0  0
 21 44  1  0  0  0  0
 22 45  1  0  0  0  0
 22 46  1  0  0  0  0
 23 24  1  0  0  0  0
 23 47  1  0  0  0  0
 23 48  1  0  0  0  0
 24 49  1  0  0  0  0
 24 50  1  0  0  0  0
M  CHG  1   2   1
M  CHG  1   6   1
M  END
> <s_m_source_file>
AV-unprocessed.smi

> <i_m_source_file_index>
2253

> <i_lp_mmshare_version>
43012

> <i_f3d_flags>
0

> <s_epik_input>
W0NIM11OMVtDSDJdW0NIMl1bQ0hdKFtDSDJdW0NIMl0xKU4yW0NIMl1bQ0gyXVtDSF0oW0NIMl1bQ0gyXTIpW05IXUMoPU8pW05IXWMzW2NIXVtjSF1uW2NIXWMzRg==

> <s_epik_cmdline>
J2VwaWtfcHl0aG9uJywgJy1waCcsICc3LjAnLCAnLXRuJywgJzgnLCAnLW1hJywgJzIwMCcsICctbWV0YWxfYmluZGluZycsICctaW1hZScsICc8aW5maWxlLm1hZT4nLCAnLW9tYWUnLCAnPG91dGZpbGUubWFlPic=

> <r_epik_Ionization_Penalty>
0.183544

> <r_epik_Ionization_Penalty_Charging>
0.180787

> <r_epik_Ionization_Penalty_Neutral>
0.00275649

> <r_epik_State_Penalty>
0.153592

> <r_epik_Charging_Adjusted_Penalty>
0.334379

> <i_epik_Tot_Q>
2

> <i_epik_Tot_abs_Q>
2

> <r_epik_Metal_State_Penalty>
0.153693

> <b_epik_Metal_Only>
0

> <s_lp_Force_Field>
OPLS_2005

> <r_lp_Energy>
53.0851

> <b_lp_Chiralities_Consistent>
1

> <s_lp_Variant>
AV-unprocessed.smi:2253-4

> <Gold.Version>
5.8.1

> <Gold.Id.Protein>
6NUR|6NUR_protein|mol2

> <Gold.PLP.Fitness>
46.0781

> <Gold.PLP.PLP>
-36.0209

> <Gold.PLP.part.hbond>
-3.0058

> <Gold.PLP.part.metal>
0.0000

> <Gold.PLP.part.buried>
5.3885

> <Gold.PLP.part.nonpolar>
-38.1904

> <Gold.PLP.part.repulsive>
0.2280

> <Gold.PLP.ligand.clash>
0.0000

> <Gold.PLP.ligand.torsion>
0.9961

> <Gold.PLP.Chemscore.Hbond>
4.0000

> <Gold.PLP.Chemscore.CHOScore>
0.0000

> <Gold.PLP.Chemscore.Metal>
0.0000

> <Gold.Chemscore.Hbonds>
donor molecule, donor type, donor heavy atom, donor atom, acceptor molecule, acceptor atom, score
      L1  H     2    52       P1  7948  2.00
      L1  H     6    51       P1 10175  2.00

> <Gold.PLP.Chemscore.Internal.Correction>
0.0494

> <Gold.Rescore>
     Score         DG    S(hbond)    S(metal)    S(lipo)     H(rot)  DE(clash)    DE(int)     intcor
     15.22     -20.86       1.88        0.00     105.22       1.26       3.66       1.98       ----

> <Gold.Chemscore.Fitness>
15.2220

> <Gold.Chemscore.DG>
-20.8621

> <Gold.Chemscore.ZeroCoef>
-5.4800

> <Gold.Chemscore.Hbond>
1.8821

> <Gold.Chemscore.Metal>
0.0000

> <Gold.Chemscore.Lipo>
105.2228

> <Gold.Chemscore.Internal_Hbond>
0.0000

> <Gold.Chemscore.DEClash>
3.6648

> <Gold.Chemscore.DEInternal>
1.9753

> <Gold.Chemscore.Rot>
1.2559

> <Gold.Chemscore.Internal.Correction>
   9.000000E+99

> <Gold.Chemscore.Hbonds>
donor molecule, donor type, donor heavy atom, donor atom, acceptor molecule, acceptor atom, score
      L1  H     2    52       P1  7948  1.00
      L1  H     6    51       P1 10175  0.94

> <Gold.Chemscore.Hbond.Weighted>
-6.2862

> <Gold.Chemscore.Metal.Weighted>
-0.0000

> <Gold.Chemscore.Lipo.Weighted>
-12.3111

> <Gold.Chemscore.Internal_Hbond.Weighted>
0.0000

> <Gold.Chemscore.DEClash.Weighted>
3.6648

> <Gold.Chemscore.DEInternal.Weighted>
1.9753

> <Gold.Chemscore.Rot.Weighted>
3.2151

> <Gold.Chemscore.Internal.Correction.Weighted>
   9.000000E+99

> <Gold.Protein.RotatedTorsions>
[ 6907 6896 6895 6894 ] final   66.89 input  -60.11 | X-H torsion
[ 7974 7965 7964 7962 ] final   28.45 input  175.53 | X-H torsion
[ 8008 7997 7996 7995 ] final   58.12 input   59.86 | X-H torsion
[ 10167 10162 10161 10158 ] final   49.60 input  -65.29 | X-H torsion
[ 10718 10713 10712 10709 ] final -178.81 input   66.30 | X-H torsion
[ 10763 10752 10751 10750 ] final  -95.42 input  -60.55 | X-H torsion
[ 11005 11000 10999 10996 ] final -151.21 input  -57.11 | X-H torsion

> <Gold.Protein.ActiveResidues>
 VAL166  LYS551  ARG553  GLY616  TRP617  ASP618  TYR619  PRO620  LYS621  CYS622 
 ASP623  PHE694  ASN695  SER759  ASP760  ASP761  ALA762  ILE779  LEU786  VAL792 
 PHE793  MET794  SER795  GLU796  ALA797  LYS798  CYS799  TRP800  GLU811  SER814 

> <Gold.Protein.RotatedAtoms>
  152.4513  134.5387  159.9832 H   0  0  0  0  0  0  0  0  0  0  0  0  # atno 6907 bound_to 6896
  151.5459  133.3419  159.2952 H   0  0  0  0  0  0  0  0  0  0  0  0  # atno 6908 bound_to 6896
  150.8443  134.7778  159.7021 H   0  0  0  0  0  0  0  0  0  0  0  0  # atno 6909 bound_to 6896
  146.1728  139.7055  142.8955 H   0  0  0  0  0  0  0  0  0  0  0  0  # atno 7974 bound_to 7965
  155.5448  140.3485  155.4455 H   0  0  0  0  0  0  0  0  0  0  0  0  # atno 8008 bound_to 7997
  156.0625  140.1343  156.9950 H   0  0  0  0  0  0  0  0  0  0  0  0  # atno 8009 bound_to 7997
  154.4487  140.0982  156.6523 H   0  0  0  0  0  0  0  0  0  0  0  0  # atno 8010 bound_to 7997
  140.2812  144.3154  150.6264 H   0  0  0  0  0  0  0  0  0  0  0  0  # atno 10167 bound_to 10162
  156.8498  130.9715  151.3093 H   0  0  0  0  0  0  0  0  0  0  0  0  # atno 10718 bound_to 10713
  154.7146  135.5121  153.8718 H   0  0  0  0  0  0  0  0  0  0  0  0  # atno 10763 bound_to 10752
  153.0809  135.6631  154.0055 H   0  0  0  0  0  0  0  0  0  0  0  0  # atno 10764 bound_to 10752
  153.9890  135.3021  155.3393 H   0  0  0  0  0  0  0  0  0  0  0  0  # atno 10765 bound_to 10752
  140.7320  134.3610  157.5165 H   0  0  0  0  0  0  0  0  0  0  0  0  # atno 11005 bound_to 11000
  145.4293  141.0414  143.2919 LP  0  0  0  0  0  0  0  0  0  0  0  0  # atno 17320 bound_to 7965
  144.8189  139.5826  143.6995 LP  0  0  0  0  0  0  0  0  0  0  0  0  # atno 17321 bound_to 7965
  140.5810  143.2173  151.7428 LP  0  0  0  0  0  0  0  0  0  0  0  0  # atno 17342 bound_to 10162
  139.4962  144.4080  152.0111 LP  0  0  0  0  0  0  0  0  0  0  0  0  # atno 17343 bound_to 10162
  157.6310  130.8729  149.9273 LP  0  0  0  0  0  0  0  0  0  0  0  0  # atno 17370 bound_to 10713
  156.0834  130.3670  150.0535 LP  0  0  0  0  0  0  0  0  0  0  0  0  # atno 17371 bound_to 10713
  139.8824  134.9024  156.2833 LP  0  0  0  0  0  0  0  0  0  0  0  0  # atno 17394 bound_to 11000
  140.9912  133.7207  156.0817 LP  0  0  0  0  0  0  0  0  0  0  0  0  # atno 17395 bound_to 11000

$$$$
