AV-unprocessed.smi:49|AV-procd|sdf|480|dock8
  -GOLD-   2262016343D 1   1.00000     0.00000
 Structure written by MMmdl.
 28 29  0  0  0  0  0  0  0  0  2 V2000
  152.4292  142.6831  159.1442 C   0  0  0  0  0  0  0  0  0  0  0  0
  152.0281  141.2280  158.8793 C   0  0  0  0  0  0  0  0  0  0  0  0
  151.5886  141.0007  157.4702 C   0  0  0  0  0  0  0  0  0  0  0  0
  150.4792  141.5652  156.9717 N   0  0  0  0  0  0  0  0  0  0  0  0
  150.4403  141.0976  155.7153 C   0  0  0  0  0  0  0  0  0  0  0  0
  149.3459  141.4899  154.7679 C   0  0  1  0  0  0  0  0  0  0  0  0
  148.5642  140.3218  154.1627 C   0  0  0  0  0  0  0  0  0  0  0  0
  147.1752  140.9253  153.9775 C   0  0  1  0  0  0  0  0  0  0  0  0
  146.1705  139.9361  153.9056 O   0  0  0  0  0  0  0  0  0  0  0  0
  147.0161  141.8236  155.2096 C   0  0  0  0  0  0  0  0  0  0  0  0
  148.3782  142.2589  155.5792 N   0  3  0  0  0  0  0  0  0  0  0  0
  151.4660  140.2851  155.4310 N   0  0  0  0  0  0  0  0  0  0  0  0
  152.2176  140.2160  156.5907 N   0  0  0  0  0  0  0  0  0  0  0  0
  149.7350  142.1387  153.9816 H   0  0  0  0  0  0  0  0  0  0  0  0
  147.1555  141.5325  153.0713 H   0  0  0  0  0  0  0  0  0  0  0  0
  149.8345  142.1910  157.4327 H   0  0  0  0  0  0  0  0  0  0  0  0
  152.7420  142.8169  160.1799 H   0  0  0  0  0  0  0  0  0  0  0  0
  151.5954  143.3608  158.9584 H   0  0  0  0  0  0  0  0  0  0  0  0
  153.2574  142.9870  158.5035 H   0  0  0  0  0  0  0  0  0  0  0  0
  152.8647  140.5651  159.1038 H   0  0  0  0  0  0  0  0  0  0  0  0
  151.2166  140.9404  159.5488 H   0  0  0  0  0  0  0  0  0  0  0  0
  149.0057  139.9407  153.2415 H   0  0  0  0  0  0  0  0  0  0  0  0
  148.5099  139.4974  154.8764 H   0  0  0  0  0  0  0  0  0  0  0  0
  145.4296  140.2874  153.4349 H   0  0  0  0  0  0  0  0  0  0  0  0
  146.3569  142.6723  155.0261 H   0  0  0  0  0  0  0  0  0  0  0  0
  146.6098  141.2581  156.0496 H   0  0  0  0  0  0  0  0  0  0  0  0
  148.5311  142.0604  156.5583 H   0  0  0  0  0  0  0  0  0  0  0  0
  148.4973  143.2471  155.4088 H   0  0  0  0  0  0  0  0  0  0  0  0
  1  2  1  0  0  0  0
  1 17  1  0  0  0  0
  1 18  1  0  0  0  0
  1 19  1  0  0  0  0
  2 20  1  0  0  0  0
  2 21  1  0  0  0  0
  2  3  1  0  0  0  0
  3  4  1  0  0  0  0
  3 13  2  0  0  0  0
  4 16  1  0  0  0  0
  4  5  1  0  0  0  0
  5 12  2  0  0  0  0
  5  6  1  0  0  0  0
  6 14  1  0  0  0  0
  6 11  1  0  0  0  0
  6  7  1  0  0  0  0
  7  8  1  0  0  0  0
  7 22  1  0  0  0  0
  7 23  1  0  0  0  0
  8 15  1  0  0  0  0
  8  9  1  0  0  0  0
  8 10  1  0  0  0  0
  9 24  1  0  0  0  0
 10 11  1  0  0  0  0
 10 25  1  0  0  0  0
 10 26  1  0  0  0  0
 11 27  1  0  0  0  0
 11 28  1  0  0  0  0
 12 13  1  0  0  0  0
M  CHG  1  11   1
M  END
> <s_m_source_file>
AV-unprocessed.smi

> <i_m_source_file_index>
49

> <i_lp_mmshare_version>
43012

> <i_f3d_flags>
0

> <s_epik_input>
W0NIM11bQ0gyXWMxbmMobltuSF0xKVtDQEBIXTJbQ0gyXVtDQEBIXShbT0hdKVtDSDJdW05IXTI=

> <s_epik_cmdline>
J2VwaWtfcHl0aG9uJywgJy1waCcsICc3LjAnLCAnLXRuJywgJzgnLCAnLW1hJywgJzIwMCcsICctbWV0YWxfYmluZGluZycsICctaW1hZScsICc8aW5maWxlLm1hZT4nLCAnLW9tYWUnLCAnPG91dGZpbGUubWFlPic=

> <r_lp_tautomer_probability>
0.0517155

> <r_epik_Ionization_Penalty>
0.939819

> <r_epik_Ionization_Penalty_Charging>
0.0688988

> <r_epik_Ionization_Penalty_Neutral>
0.87092

> <r_epik_State_Penalty>
2.1224

> <r_epik_Charging_Adjusted_Penalty>
2.1913

> <i_epik_Tot_Q>
1

> <i_epik_Tot_abs_Q>
1

> <r_epik_Metal_State_Penalty>
2.39725

> <b_epik_Metal_Only>
0

> <s_lp_Force_Field>
OPLS_2005

> <r_lp_Energy>
21.0642

> <b_lp_Chiralities_Consistent>
1

> <s_lp_Variant>
AV-unprocessed.smi:49-18

> <Gold.Version>
5.8.1

> <Gold.Id.Protein>
6NUR|6NUR_protein|mol2

> <Gold.PLP.Fitness>
38.4877

> <Gold.PLP.PLP>
-24.4597

> <Gold.PLP.part.hbond>
-3.9158

> <Gold.PLP.part.metal>
0.0000

> <Gold.PLP.part.buried>
-1.3076

> <Gold.PLP.part.nonpolar>
-18.3772

> <Gold.PLP.part.repulsive>
0.1755

> <Gold.PLP.ligand.clash>
0.0000

> <Gold.PLP.ligand.torsion>
0.0829

> <Gold.PLP.Chemscore.Hbond>
4.7271

> <Gold.PLP.Chemscore.CHOScore>
0.0000

> <Gold.PLP.Chemscore.Metal>
0.0000

> <Gold.Chemscore.Hbonds>
donor molecule, donor type, donor heavy atom, donor atom, acceptor molecule, acceptor atom, score
      L1  H     9    24       P1 10175  1.00
      L1  H    11    28       P1  8028  1.98
      P1  H  7989  7998       L1    12  0.70
      P1  H  7997  8008       L1    13  0.75

> <Gold.PLP.Chemscore.Internal.Correction>
0.0125

> <Gold.Rescore>
     Score         DG    S(hbond)    S(metal)    S(lipo)     H(rot)  DE(clash)    DE(int)     intcor
     16.39     -16.68       3.25        0.00      44.17       1.89       0.27       0.02       ----

> <Gold.Chemscore.Fitness>
16.3870

> <Gold.Chemscore.DG>
-16.6780

> <Gold.Chemscore.ZeroCoef>
-5.4800

> <Gold.Chemscore.Hbond>
3.2529

> <Gold.Chemscore.Metal>
0.0000

> <Gold.Chemscore.Lipo>
44.1654

> <Gold.Chemscore.Internal_Hbond>
0.0000

> <Gold.Chemscore.DEClash>
0.2698

> <Gold.Chemscore.DEInternal>
0.0212

> <Gold.Chemscore.Rot>
1.8883

> <Gold.Chemscore.Internal.Correction>
   9.000000E+99

> <Gold.Chemscore.Hbonds>
donor molecule, donor type, donor heavy atom, donor atom, acceptor molecule, acceptor atom, score
      L1  H     9    24       P1 10175  0.96
      L1  H    11    28       P1  8028  0.92
      P1  H  7989  7998       L1    12  0.08
      P1  H  7997  8008       L1    13  0.67

> <Gold.Chemscore.Hbond.Weighted>
-10.8647

> <Gold.Chemscore.Metal.Weighted>
-0.0000

> <Gold.Chemscore.Lipo.Weighted>
-5.1674

> <Gold.Chemscore.Internal_Hbond.Weighted>
0.0000

> <Gold.Chemscore.DEClash.Weighted>
0.2698

> <Gold.Chemscore.DEInternal.Weighted>
0.0212

> <Gold.Chemscore.Rot.Weighted>
4.8340

> <Gold.Chemscore.Internal.Correction.Weighted>
   9.000000E+99

> <Gold.Protein.RotatedTorsions>
[ 6907 6896 6895 6894 ] final  174.30 input  -60.11 | X-H torsion
[ 7974 7965 7964 7962 ] final  -70.69 input  175.53 | X-H torsion
[ 8008 7997 7996 7995 ] final  -40.85 input   59.86 | X-H torsion
[ 10167 10162 10161 10158 ] final   48.46 input  -65.29 | X-H torsion
[ 10718 10713 10712 10709 ] final  -19.33 input   66.30 | X-H torsion
[ 10763 10752 10751 10750 ] final  154.07 input  -60.55 | X-H torsion
[ 11005 11000 10999 10996 ] final -120.84 input  -57.11 | X-H torsion

> <Gold.Protein.ActiveResidues>
 VAL166  LYS551  ARG553  GLY616  TRP617  ASP618  TYR619  PRO620  LYS621  CYS622 
 ASP623  PHE694  ASN695  SER759  ASP760  ASP761  ALA762  ILE779  LEU786  VAL792 
 PHE793  MET794  SER795  GLU796  ALA797  LYS798  CYS799  TRP800  GLU811  SER814 

> <Gold.Protein.RotatedAtoms>
  151.7546  133.3329  159.3400 H   0  0  0  0  0  0  0  0  0  0  0  0  # atno 6907 bound_to 6896
  150.7522  134.6161  159.6121 H   0  0  0  0  0  0  0  0  0  0  0  0  # atno 6908 bound_to 6896
  152.3446  134.7090  160.0305 H   0  0  0  0  0  0  0  0  0  0  0  0  # atno 6909 bound_to 6896
  145.6877  140.9165  143.0798 H   0  0  0  0  0  0  0  0  0  0  0  0  # atno 7974 bound_to 7965
  154.4008  140.1514  156.3095 H   0  0  0  0  0  0  0  0  0  0  0  0  # atno 8008 bound_to 7997
  155.8628  140.3452  155.5746 H   0  0  0  0  0  0  0  0  0  0  0  0  # atno 8009 bound_to 7997
  155.7861  140.0850  157.2024 H   0  0  0  0  0  0  0  0  0  0  0  0  # atno 8010 bound_to 7997
  140.2930  144.3023  150.6236 H   0  0  0  0  0  0  0  0  0  0  0  0  # atno 10167 bound_to 10162
  156.5471  130.4692  149.6470 H   0  0  0  0  0  0  0  0  0  0  0  0  # atno 10718 bound_to 10713
  154.1463  135.2818  155.3147 H   0  0  0  0  0  0  0  0  0  0  0  0  # atno 10763 bound_to 10752
  154.6250  135.5454  153.7620 H   0  0  0  0  0  0  0  0  0  0  0  0  # atno 10764 bound_to 10752
  153.0235  135.6448  154.1609 H   0  0  0  0  0  0  0  0  0  0  0  0  # atno 10765 bound_to 10752
  141.0114  134.0259  157.3408 H   0  0  0  0  0  0  0  0  0  0  0  0  # atno 11005 bound_to 11000
  144.7006  139.8780  143.7445 LP  0  0  0  0  0  0  0  0  0  0  0  0  # atno 17320 bound_to 7965
  146.0909  139.3899  143.0406 LP  0  0  0  0  0  0  0  0  0  0  0  0  # atno 17321 bound_to 7965
  140.5716  143.2180  151.7589 LP  0  0  0  0  0  0  0  0  0  0  0  0  # atno 17342 bound_to 10162
  139.4933  144.4209  151.9979 LP  0  0  0  0  0  0  0  0  0  0  0  0  # atno 17343 bound_to 10162
  156.2918  130.7128  151.1979 LP  0  0  0  0  0  0  0  0  0  0  0  0  # atno 17370 bound_to 10713
  157.7394  131.0529  150.5231 LP  0  0  0  0  0  0  0  0  0  0  0  0  # atno 17371 bound_to 10713
  139.9092  135.0186  156.7619 LP  0  0  0  0  0  0  0  0  0  0  0  0  # atno 17394 bound_to 11000
  140.6727  133.9545  155.7865 LP  0  0  0  0  0  0  0  0  0  0  0  0  # atno 17395 bound_to 11000

$$$$
