AV-unprocessed.smi:1507|AV-procd|sdf|6083|dock4
  -GOLD-   22720 6203D 1   1.00000     0.00000
 Structure written by MMmdl.
 33 34  0  0  0  0  0  0  0  0  2 V2000
  151.8000  136.0199  155.9055 N   0  5  0  0  0  0  0  0  0  0  0  0
  150.3051  136.2617  155.3462 S   0  0  0  0  0  0  0  0  0  0  0  0
  149.6834  135.0443  154.8026 O   0  0  0  0  0  0  0  0  0  0  0  0
  149.5029  137.1399  156.2117 O   0  0  0  0  0  0  0  0  0  0  0  0
  150.7485  137.2238  153.9844 N   0  0  0  0  0  0  0  0  0  0  0  0
  150.2767  138.6010  153.8386 C   0  0  0  0  0  0  0  0  0  0  0  0
  150.6602  139.4686  155.0203 C   0  0  0  0  0  0  0  0  0  0  0  0
  149.7074  140.2835  155.6608 C   0  0  0  0  0  0  0  0  0  0  0  0
  150.1131  141.0755  156.7523 C   0  0  0  0  0  0  0  0  0  0  0  0
  151.4642  141.0325  157.1735 C   0  0  0  0  0  0  0  0  0  0  0  0
  151.8927  141.8166  158.2670 N   0  0  0  0  0  0  0  0  0  0  0  0
  151.0088  142.9179  158.6414 C   0  0  0  0  0  0  0  0  0  0  0  0
  151.7205  143.8672  159.6210 C   0  0  0  0  0  0  0  0  0  0  0  0
  152.1975  143.1336  160.7441 O   0  0  0  0  0  0  0  0  0  0  0  0
  153.1448  142.1415  160.3640 C   0  0  0  0  0  0  0  0  0  0  0  0
  152.4813  141.1293  159.4153 C   0  0  0  0  0  0  0  0  0  0  0  0
  152.3790  140.2529  156.5443 N   0  0  0  0  0  0  0  0  0  0  0  0
  151.9844  139.4940  155.4999 C   0  0  0  0  0  0  0  0  0  0  0  0
  151.7672  136.0490  156.9316 H   0  0  0  0  0  0  0  0  0  0  0  0
  150.8899  136.7054  153.1182 H   0  0  0  0  0  0  0  0  0  0  0  0
  150.6909  139.0348  152.9279 H   0  0  0  0  0  0  0  0  0  0  0  0
  149.1932  138.5952  153.7177 H   0  0  0  0  0  0  0  0  0  0  0  0
  148.6822  140.3061  155.3210 H   0  0  0  0  0  0  0  0  0  0  0  0
  149.3912  141.7140  157.2391 H   0  0  0  0  0  0  0  0  0  0  0  0
  150.6814  143.4873  157.7728 H   0  0  0  0  0  0  0  0  0  0  0  0
  150.1123  142.5061  159.1065 H   0  0  0  0  0  0  0  0  0  0  0  0
  152.5485  144.3820  159.1309 H   0  0  0  0  0  0  0  0  0  0  0  0
  151.0290  144.6354  159.9674 H   0  0  0  0  0  0  0  0  0  0  0  0
  154.0090  142.6104  159.8903 H   0  0  0  0  0  0  0  0  0  0  0  0
  153.5079  141.6354  161.2586 H   0  0  0  0  0  0  0  0  0  0  0  0
  151.7031  140.5770  159.9443 H   0  0  0  0  0  0  0  0  0  0  0  0
  153.2267  140.4064  159.0812 H   0  0  0  0  0  0  0  0  0  0  0  0
  152.7495  138.8913  155.0332 H   0  0  0  0  0  0  0  0  0  0  0  0
  1  2  1  0  0  0  0
  1 19  1  0  0  0  0
  2  3  2  0  0  0  0
  2  4  2  0  0  0  0
  2  5  1  0  0  0  0
  5  6  1  0  0  0  0
  5 20  1  0  0  0  0
  6  7  1  0  0  0  0
  6 21  1  0  0  0  0
  6 22  1  0  0  0  0
  7 18  1  0  0  0  0
  7  8  2  0  0  0  0
  8  9  1  0  0  0  0
  8 23  1  0  0  0  0
  9 10  2  0  0  0  0
  9 24  1  0  0  0  0
 10 11  1  0  0  0  0
 10 17  1  0  0  0  0
 11 16  1  0  0  0  0
 11 12  1  0  0  0  0
 12 13  1  0  0  0  0
 12 25  1  0  0  0  0
 12 26  1  0  0  0  0
 13 14  1  0  0  0  0
 13 27  1  0  0  0  0
 13 28  1  0  0  0  0
 14 15  1  0  0  0  0
 15 16  1  0  0  0  0
 15 29  1  0  0  0  0
 15 30  1  0  0  0  0
 16 31  1  0  0  0  0
 16 32  1  0  0  0  0
 17 18  2  0  0  0  0
 18 33  1  0  0  0  0
M  CHG  1   1  -1
M  END
> <s_m_source_file>
AV-unprocessed.smi

> <i_m_source_file_index>
1507

> <i_lp_mmshare_version>
43012

> <i_f3d_flags>
0

> <s_epik_input>
W05IMl1TKD1PKSg9TylbTkhdW0NIMl1jMVtjSF1bY0hdYyhuW2NIXTEpTjJbQ0gyXVtDSDJdT1tDSDJdW0NIMl0y

> <s_epik_cmdline>
J2VwaWtfcHl0aG9uJywgJy1waCcsICc3LjAnLCAnLXRuJywgJzgnLCAnLW1hJywgJzIwMCcsICctbWV0YWxfYmluZGluZycsICctaW1hZScsICc8aW5maWxlLm1hZT4nLCAnLW9tYWUnLCAnPG91dGZpbGUubWFlPic=

> <r_lp_tautomer_probability>
1

> <r_epik_Ionization_Penalty>
2.76303

> <r_epik_Ionization_Penalty_Charging>
2.75358

> <r_epik_Ionization_Penalty_Neutral>
0.00945218

> <r_epik_State_Penalty>
2.93489

> <r_epik_Charging_Adjusted_Penalty>
5.68847

> <i_epik_Tot_Q>
-1

> <i_epik_Tot_abs_Q>
1

> <r_epik_Metal_State_Penalty>
0.838637

> <b_epik_Metal_Only>
1

> <s_lp_Force_Field>
OPLS_2005

> <r_lp_Energy>
17.9143

> <b_lp_Chiralities_Consistent>
1

> <s_lp_Variant>
AV-unprocessed.smi:1507-4

> <Gold.Version>
5.8.1

> <Gold.Id.Protein>
6NUR|6NUR_protein|mol2

> <Gold.PLP.Fitness>
43.8361

> <Gold.PLP.PLP>
-32.2436

> <Gold.PLP.part.hbond>
-3.8376

> <Gold.PLP.part.metal>
0.0000

> <Gold.PLP.part.buried>
-4.2909

> <Gold.PLP.part.nonpolar>
-24.0295

> <Gold.PLP.part.repulsive>
0.3388

> <Gold.PLP.ligand.clash>
0.0000

> <Gold.PLP.ligand.torsion>
0.9002

> <Gold.PLP.Chemscore.Hbond>
4.0000

> <Gold.PLP.Chemscore.CHOScore>
0.0000

> <Gold.PLP.Chemscore.Metal>
0.0000

> <Gold.Chemscore.Hbonds>
donor molecule, donor type, donor heavy atom, donor atom, acceptor molecule, acceptor atom, score
      L1  H     5    20       P1  7949  0.80
      P1  H  7997  8010       L1    17  1.00
      P1  H 10752 10764       L1     1  2.00

> <Gold.PLP.Chemscore.Internal.Correction>
1.3928

> <Gold.Rescore>
     Score         DG    S(hbond)    S(metal)    S(lipo)     H(rot)  DE(clash)    DE(int)     intcor
     13.62     -15.80       1.95        0.00      73.69       1.88       0.07       2.11       ----

> <Gold.Chemscore.Fitness>
13.6168

> <Gold.Chemscore.DG>
-15.7971

> <Gold.Chemscore.ZeroCoef>
-5.4800

> <Gold.Chemscore.Hbond>
1.9497

> <Gold.Chemscore.Metal>
0.0000

> <Gold.Chemscore.Lipo>
73.6892

> <Gold.Chemscore.Internal_Hbond>
0.0000

> <Gold.Chemscore.DEClash>
0.0712

> <Gold.Chemscore.DEInternal>
2.1090

> <Gold.Chemscore.Rot>
1.8814

> <Gold.Chemscore.Internal.Correction>
   9.000000E+99

> <Gold.Chemscore.Hbonds>
donor molecule, donor type, donor heavy atom, donor atom, acceptor molecule, acceptor atom, score
      L1  H     5    20       P1  7949  0.12
      P1  H  7997  8010       L1    17  0.42
      P1  H 10752 10764       L1     1  0.97

> <Gold.Chemscore.Hbond.Weighted>
-6.5119

> <Gold.Chemscore.Metal.Weighted>
-0.0000

> <Gold.Chemscore.Lipo.Weighted>
-8.6216

> <Gold.Chemscore.Internal_Hbond.Weighted>
0.0000

> <Gold.Chemscore.DEClash.Weighted>
0.0712

> <Gold.Chemscore.DEInternal.Weighted>
2.1090

> <Gold.Chemscore.Rot.Weighted>
4.8165

> <Gold.Chemscore.Internal.Correction.Weighted>
   9.000000E+99

> <Gold.Protein.RotatedTorsions>
[ 6907 6896 6895 6894 ] final   59.82 input  -60.11 | X-H torsion
[ 7974 7965 7964 7962 ] final -159.73 input  175.53 | X-H torsion
[ 8008 7997 7996 7995 ] final   67.93 input   59.86 | X-H torsion
[ 10167 10162 10161 10158 ] final  107.71 input  -65.29 | X-H torsion
[ 10718 10713 10712 10709 ] final   86.05 input   66.30 | X-H torsion
[ 10763 10752 10751 10750 ] final  -46.77 input  -60.55 | X-H torsion
[ 11005 11000 10999 10996 ] final -130.13 input  -57.11 | X-H torsion

> <Gold.Protein.ActiveResidues>
 VAL166  LYS551  ARG553  GLY616  TRP617  ASP618  TYR619  PRO620  LYS621  CYS622 
 ASP623  PHE694  ASN695  SER759  ASP760  ASP761  ALA762  ILE779  LEU786  VAL792 
 PHE793  MET794  SER795  GLU796  ALA797  LYS798  CYS799  TRP800  GLU811  SER814 

> <Gold.Protein.RotatedAtoms>
  152.3948  134.6382  160.0092 H   0  0  0  0  0  0  0  0  0  0  0  0  # atno 6907 bound_to 6896
  151.6605  133.3311  159.3181 H   0  0  0  0  0  0  0  0  0  0  0  0  # atno 6908 bound_to 6896
  150.7858  134.6885  159.6528 H   0  0  0  0  0  0  0  0  0  0  0  0  # atno 6909 bound_to 6896
  144.7454  140.3642  143.6089 H   0  0  0  0  0  0  0  0  0  0  0  0  # atno 7974 bound_to 7965
  155.7005  140.3495  155.4931 H   0  0  0  0  0  0  0  0  0  0  0  0  # atno 8008 bound_to 7997
  155.9445  140.1107  157.1051 H   0  0  0  0  0  0  0  0  0  0  0  0  # atno 8009 bound_to 7997
  154.4109  140.1206  156.4957 H   0  0  0  0  0  0  0  0  0  0  0  0  # atno 8010 bound_to 7997
  139.6905  144.7108  151.1357 H   0  0  0  0  0  0  0  0  0  0  0  0  # atno 10167 bound_to 10162
  157.6923  131.0199  150.2914 H   0  0  0  0  0  0  0  0  0  0  0  0  # atno 10718 bound_to 10713
  154.0505  135.6632  153.4800 H   0  0  0  0  0  0  0  0  0  0  0  0  # atno 10763 bound_to 10752
  153.0466  135.5111  154.7756 H   0  0  0  0  0  0  0  0  0  0  0  0  # atno 10764 bound_to 10752
  154.6760  135.3037  154.9644 H   0  0  0  0  0  0  0  0  0  0  0  0  # atno 10765 bound_to 10752
  140.9372  134.1241  157.4183 H   0  0  0  0  0  0  0  0  0  0  0  0  # atno 11005 bound_to 11000
  145.7145  139.1693  143.2520 LP  0  0  0  0  0  0  0  0  0  0  0  0  # atno 17320 bound_to 7965
  146.1322  140.7170  142.9406 LP  0  0  0  0  0  0  0  0  0  0  0  0  # atno 17321 bound_to 7965
  140.7681  143.5566  150.9145 LP  0  0  0  0  0  0  0  0  0  0  0  0  # atno 17342 bound_to 10162
  139.9243  143.6568  152.3090 LP  0  0  0  0  0  0  0  0  0  0  0  0  # atno 17343 bound_to 10162
  156.3444  130.3820  149.7381 LP  0  0  0  0  0  0  0  0  0  0  0  0  # atno 17370 bound_to 10713
  156.4880  130.8071  151.3083 LP  0  0  0  0  0  0  0  0  0  0  0  0  # atno 17371 bound_to 10713
  139.8811  135.0025  156.6128 LP  0  0  0  0  0  0  0  0  0  0  0  0  # atno 17394 bound_to 11000
  140.7783  133.8681  155.8547 LP  0  0  0  0  0  0  0  0  0  0  0  0  # atno 17395 bound_to 11000

$$$$
