AV-unprocessed.smi:2822|AV-procd|sdf|10861|dock6
  -GOLD-   2272015303D 1   1.00000     0.00000
 Structure written by MMmdl.
 41 43  0  0  0  0  0  0  0  0  3 V2000
  146.8009  142.1621  154.0801 Cl  0  0  0  0  0  0  0  0  0  0  0  0
  148.0064  140.9241  154.1370 C   0  0  0  0  0  0  0  0  0  0  0  0
  147.9480  139.8625  153.2105 C   0  0  0  0  0  0  0  0  0  0  0  0
  148.8820  138.8885  153.2395 N   0  3  0  0  0  0  0  0  0  0  0  0
  149.8942  138.8759  154.1322 C   0  0  0  0  0  0  0  0  0  0  0  0
  150.0065  139.9105  155.0834 C   0  0  0  0  0  0  0  0  0  0  0  0
  149.0513  140.9577  155.0934 C   0  0  0  0  0  0  0  0  0  0  0  0
  149.1056  142.0153  156.0146 N   0  0  0  0  0  0  0  0  0  0  0  0
  149.7831  141.8725  157.2943 C   0  0  0  0  0  0  0  0  0  0  0  0
  151.2954  142.1453  157.1645 C   0  0  1  0  0  0  0  0  0  0  0  0
  151.7085  143.5364  157.6830 C   0  0  0  0  0  0  0  0  0  0  0  0
  151.6576  143.6031  159.1627 N   0  3  2  0  0  0  0  0  0  0  0  0
  152.0236  144.9483  159.6752 C   0  0  0  0  0  0  0  0  0  0  0  0
  151.8812  145.0188  161.2037 C   0  0  0  0  0  0  0  0  0  0  0  0
  152.7234  143.9295  161.8783 C   0  0  0  0  0  0  0  0  0  0  0  0
  152.3442  142.5529  161.3173 C   0  0  0  0  0  0  0  0  0  0  0  0
  152.4652  142.5167  159.7803 C   0  0  1  0  0  0  0  0  0  0  0  0
  152.0211  141.1508  159.2249 C   0  0  0  0  0  0  0  0  0  0  0  0
  152.0894  141.1453  157.8033 O   0  0  0  0  0  0  0  0  0  0  0  0
  147.1855  139.7645  152.4516 H   0  0  0  0  0  0  0  0  0  0  0  0
  150.5788  138.0433  154.0607 H   0  0  0  0  0  0  0  0  0  0  0  0
  150.8209  139.8803  155.7918 H   0  0  0  0  0  0  0  0  0  0  0  0
  148.8273  142.9407  155.7177 H   0  0  0  0  0  0  0  0  0  0  0  0
  149.3517  142.5896  157.9937 H   0  0  0  0  0  0  0  0  0  0  0  0
  149.5939  140.8809  157.7051 H   0  0  0  0  0  0  0  0  0  0  0  0
  151.5431  142.1062  156.1029 H   0  0  0  0  0  0  0  0  0  0  0  0
  152.7246  143.7593  157.3533 H   0  0  0  0  0  0  0  0  0  0  0  0
  151.0638  144.3042  157.2530 H   0  0  0  0  0  0  0  0  0  0  0  0
  153.0486  145.1841  159.3843 H   0  0  0  0  0  0  0  0  0  0  0  0
  151.3825  145.7008  159.2147 H   0  0  0  0  0  0  0  0  0  0  0  0
  152.1875  146.0020  161.5621 H   0  0  0  0  0  0  0  0  0  0  0  0
  150.8331  144.9002  161.4825 H   0  0  0  0  0  0  0  0  0  0  0  0
  153.7831  144.1207  161.7047 H   0  0  0  0  0  0  0  0  0  0  0  0
  152.5738  143.9511  162.9583 H   0  0  0  0  0  0  0  0  0  0  0  0
  152.9829  141.7876  161.7605 H   0  0  0  0  0  0  0  0  0  0  0  0
  151.3224  142.3113  161.6143 H   0  0  0  0  0  0  0  0  0  0  0  0
  153.5103  142.6766  159.5081 H   0  0  0  0  0  0  0  0  0  0  0  0
  152.6773  140.3653  159.6006 H   0  0  0  0  0  0  0  0  0  0  0  0
  151.0157  140.8956  159.5606 H   0  0  0  0  0  0  0  0  0  0  0  0
  150.6977  143.4414  159.4313 H   0  0  0  0  0  0  0  0  0  0  0  0
  148.8196  138.1302  152.5592 H   0  0  0  0  0  0  0  0  0  0  0  0
  1  2  1  0  0  0  0
  2  7  1  0  0  0  0
  2  3  2  0  0  0  0
  3  4  1  0  0  0  0
  3 20  1  0  0  0  0
  4  5  2  0  0  0  0
  4 41  1  0  0  0  0
  5  6  1  0  0  0  0
  5 21  1  0  0  0  0
  6  7  2  0  0  0  0
  6 22  1  0  0  0  0
  7  8  1  0  0  0  0
  8  9  1  0  0  0  0
  8 23  1  0  0  0  0
  9 10  1  0  0  0  0
  9 24  1  0  0  0  0
  9 25  1  0  0  0  0
 10 19  1  0  0  0  0
 10 11  1  0  0  0  0
 10 26  1  0  0  0  0
 11 12  1  0  0  0  0
 11 27  1  0  0  0  0
 11 28  1  0  0  0  0
 12 17  1  0  0  0  0
 12 13  1  0  0  0  0
 12 40  1  0  0  0  0
 13 14  1  0  0  0  0
 13 29  1  0  0  0  0
 13 30  1  0  0  0  0
 14 15  1  0  0  0  0
 14 31  1  0  0  0  0
 14 32  1  0  0  0  0
 15 16  1  0  0  0  0
 15 33  1  0  0  0  0
 15 34  1  0  0  0  0
 16 17  1  0  0  0  0
 16 35  1  0  0  0  0
 16 36  1  0  0  0  0
 17 18  1  0  0  0  0
 17 37  1  0  0  0  0
 18 19  1  0  0  0  0
 18 38  1  0  0  0  0
 18 39  1  0  0  0  0
M  CHG  1   4   1
M  CHG  1  12   1
M  END
> <s_m_source_file>
AV-unprocessed.smi

> <i_m_source_file_index>
2822

> <i_lp_mmshare_version>
43012

> <i_f3d_flags>
0

> <s_epik_input>
Q2xjMVtjSF1uW2NIXVtjSF1jMVtOSF1bQ0gyXVtDQEhdKFtDSDJdMilPW0NIMl1bQ0BASF0oTjIzKVtDSDJdW0NIMl1bQ0gyXVtDSDJdMw==

> <s_epik_cmdline>
J2VwaWtfcHl0aG9uJywgJy1waCcsICc3LjAnLCAnLXRuJywgJzgnLCAnLW1hJywgJzIwMCcsICctbWV0YWxfYmluZGluZycsICctaW1hZScsICc8aW5maWxlLm1hZT4nLCAnLW9tYWUnLCAnPG91dGZpbGUubWFlPic=

> <r_lp_tautomer_probability>
1

> <r_epik_Ionization_Penalty>
0.254999

> <r_epik_Ionization_Penalty_Charging>
0.254956

> <r_epik_Ionization_Penalty_Neutral>
4.33524e-05

> <r_epik_State_Penalty>
0.230978

> <r_epik_Charging_Adjusted_Penalty>
0.485934

> <i_epik_Tot_Q>
2

> <i_epik_Tot_abs_Q>
2

> <r_epik_Metal_State_Penalty>
3.47007

> <b_epik_Metal_Only>
0

> <s_lp_Force_Field>
OPLS_2005

> <r_lp_Energy>
41.9056

> <b_lp_Chiralities_Consistent>
1

> <s_lp_Variant>
AV-unprocessed.smi:2822-2

> <Gold.Version>
5.8.1

> <Gold.Id.Protein>
6NUR|6NUR_protein|mol2

> <Gold.PLP.Fitness>
48.8034

> <Gold.PLP.PLP>
-41.6715

> <Gold.PLP.part.hbond>
-2.6358

> <Gold.PLP.part.metal>
0.0000

> <Gold.PLP.part.buried>
0.0118

> <Gold.PLP.part.nonpolar>
-38.0524

> <Gold.PLP.part.repulsive>
0.2331

> <Gold.PLP.ligand.clash>
0.0000

> <Gold.PLP.ligand.torsion>
0.9373

> <Gold.PLP.Chemscore.Hbond>
3.0000

> <Gold.PLP.Chemscore.CHOScore>
0.0000

> <Gold.PLP.Chemscore.Metal>
0.0000

> <Gold.Chemscore.Hbonds>
donor molecule, donor type, donor heavy atom, donor atom, acceptor molecule, acceptor atom, score
      L1  H     4    41       P1  7948  2.00
      L1  H     8    23       P1  8028  1.00

> <Gold.PLP.Chemscore.Internal.Correction>
0.0064

> <Gold.Rescore>
     Score         DG    S(hbond)    S(metal)    S(lipo)     H(rot)  DE(clash)    DE(int)     intcor
     21.83     -24.32       1.96        0.00     131.33       1.20       1.53       0.96       ----

> <Gold.Chemscore.Fitness>
21.8251

> <Gold.Chemscore.DG>
-24.3164

> <Gold.Chemscore.ZeroCoef>
-5.4800

> <Gold.Chemscore.Hbond>
1.9560

> <Gold.Chemscore.Metal>
0.0000

> <Gold.Chemscore.Lipo>
131.3292

> <Gold.Chemscore.Internal_Hbond>
0.0000

> <Gold.Chemscore.DEClash>
1.5337

> <Gold.Chemscore.DEInternal>
0.9576

> <Gold.Chemscore.Rot>
1.1962

> <Gold.Chemscore.Internal.Correction>
   9.000000E+99

> <Gold.Chemscore.Hbonds>
donor molecule, donor type, donor heavy atom, donor atom, acceptor molecule, acceptor atom, score
      L1  H     4    41       P1  7948  0.96
      L1  H     8    23       P1  8028  0.99

> <Gold.Chemscore.Hbond.Weighted>
-6.5332

> <Gold.Chemscore.Metal.Weighted>
-0.0000

> <Gold.Chemscore.Lipo.Weighted>
-15.3655

> <Gold.Chemscore.Internal_Hbond.Weighted>
0.0000

> <Gold.Chemscore.DEClash.Weighted>
1.5337

> <Gold.Chemscore.DEInternal.Weighted>
0.9576

> <Gold.Chemscore.Rot.Weighted>
3.0623

> <Gold.Chemscore.Internal.Correction.Weighted>
   9.000000E+99

> <Gold.Protein.RotatedTorsions>
[ 6907 6896 6895 6894 ] final -123.22 input  -60.11 | X-H torsion
[ 7974 7965 7964 7962 ] final -159.38 input  175.53 | X-H torsion
[ 8008 7997 7996 7995 ] final  170.45 input   59.86 | X-H torsion
[ 10167 10162 10161 10158 ] final -123.39 input  -65.29 | X-H torsion
[ 10718 10713 10712 10709 ] final    1.03 input   66.30 | X-H torsion
[ 10763 10752 10751 10750 ] final  -51.88 input  -60.55 | X-H torsion
[ 11005 11000 10999 10996 ] final -149.14 input  -57.11 | X-H torsion

> <Gold.Protein.ActiveResidues>
 VAL166  LYS551  ARG553  GLY616  TRP617  ASP618  TYR619  PRO620  LYS621  CYS622 
 ASP623  PHE694  ASN695  SER759  ASP760  ASP761  ALA762  ILE779  LEU786  VAL792 
 PHE793  MET794  SER795  GLU796  ALA797  LYS798  CYS799  TRP800  GLU811  SER814 

> <Gold.Protein.RotatedAtoms>
  150.8650  133.7587  159.2979 H   0  0  0  0  0  0  0  0  0  0  0  0  # atno 6907 bound_to 6896
  151.5218  135.1066  159.9890 H   0  0  0  0  0  0  0  0  0  0  0  0  # atno 6908 bound_to 6896
  152.4654  133.7868  159.6936 H   0  0  0  0  0  0  0  0  0  0  0  0  # atno 6909 bound_to 6896
  144.7467  140.3693  143.6079 H   0  0  0  0  0  0  0  0  0  0  0  0  # atno 7974 bound_to 7965
  156.1364  140.1538  156.8987 H   0  0  0  0  0  0  0  0  0  0  0  0  # atno 8008 bound_to 7997
  154.4951  140.0840  156.7718 H   0  0  0  0  0  0  0  0  0  0  0  0  # atno 8009 bound_to 7997
  155.4160  140.3421  155.4269 H   0  0  0  0  0  0  0  0  0  0  0  0  # atno 8010 bound_to 7997
  140.0040  143.5511  152.2291 H   0  0  0  0  0  0  0  0  0  0  0  0  # atno 10167 bound_to 10162
  156.8422  130.5525  149.5677 H   0  0  0  0  0  0  0  0  0  0  0  0  # atno 10718 bound_to 10713
  154.1337  135.6516  153.4927 H   0  0  0  0  0  0  0  0  0  0  0  0  # atno 10763 bound_to 10752
  153.0187  135.5299  154.6975 H   0  0  0  0  0  0  0  0  0  0  0  0  # atno 10764 bound_to 10752
  154.6217  135.2965  155.0289 H   0  0  0  0  0  0  0  0  0  0  0  0  # atno 10765 bound_to 10752
  140.7539  134.3375  157.5119 H   0  0  0  0  0  0  0  0  0  0  0  0  # atno 11005 bound_to 11000
  145.7095  139.1681  143.2547 LP  0  0  0  0  0  0  0  0  0  0  0  0  # atno 17320 bound_to 7965
  146.1357  140.7125  142.9391 LP  0  0  0  0  0  0  0  0  0  0  0  0  # atno 17321 bound_to 7965
  139.6251  144.7636  151.2655 LP  0  0  0  0  0  0  0  0  0  0  0  0  # atno 17342 bound_to 10162
  140.7407  143.6578  150.8191 LP  0  0  0  0  0  0  0  0  0  0  0  0  # atno 17343 bound_to 10162
  156.0874  130.5869  150.9673 LP  0  0  0  0  0  0  0  0  0  0  0  0  # atno 17370 bound_to 10713
  157.6349  131.0917  150.8367 LP  0  0  0  0  0  0  0  0  0  0  0  0  # atno 17371 bound_to 10713
  139.8782  134.9159  156.3143 LP  0  0  0  0  0  0  0  0  0  0  0  0  # atno 17394 bound_to 11000
  140.9725  133.7318  156.0555 LP  0  0  0  0  0  0  0  0  0  0  0  0  # atno 17395 bound_to 11000

$$$$
