AV-unprocessed.smi:2274|AV-procd|sdf|9168|dock5
  -GOLD-   2272012383D 1   1.00000     0.00000
 Structure written by MMmdl.
 47 48  0  0  0  0  0  0  0  0  1 V2000
  146.9775  128.4466  151.5225 C   0  0  0  0  0  0  0  0  0  0  0  0
  145.9571  129.4930  151.9858 C   0  0  0  0  0  0  0  0  0  0  0  0
  146.5958  130.7586  152.3022 N   0  0  0  0  0  0  0  0  0  0  0  0
  147.6453  130.7649  153.1587 N   0  0  0  0  0  0  0  0  0  0  0  0
  148.0177  132.0323  153.2593 C   0  0  0  0  0  0  0  0  0  0  0  0
  149.1317  132.3882  154.2042 C   0  0  0  0  0  0  0  0  0  0  0  0
  147.2106  132.8545  152.4172 C   0  0  0  0  0  0  0  0  0  0  0  0
  147.2449  134.2608  152.2458 N   0  0  0  0  0  0  0  0  0  0  0  0
  146.2405  135.1206  152.4733 C   0  0  0  0  0  0  0  0  0  0  0  0
  145.1310  134.8081  152.9051 O   0  0  0  0  0  0  0  0  0  0  0  0
  146.6002  136.3804  152.1904 N   0  0  0  0  0  0  0  0  0  0  0  0
  145.7367  137.5474  152.3282 C   0  0  0  0  0  0  0  0  0  0  0  0
  146.4704  138.8438  151.9418 C   0  0  0  0  0  0  0  0  0  0  0  0
  147.0850  139.5665  153.1507 C   0  0  2  0  0  0  0  0  0  0  0  0
  147.2412  141.0790  152.8975 C   0  0  0  0  0  0  0  0  0  0  0  0
  147.9320  141.7576  154.0857 C   0  0  0  0  0  0  0  0  0  0  0  0
  149.2451  141.0343  154.4014 C   0  0  0  0  0  0  0  0  0  0  0  0
  148.9959  139.5281  154.5758 C   0  0  0  0  0  0  0  0  0  0  0  0
  148.3692  139.0019  153.4099 O   0  0  0  0  0  0  0  0  0  0  0  0
  146.2910  132.0273  151.8402 C   0  0  0  0  0  0  0  0  0  0  0  0
  145.1677  132.3039  150.8929 C   0  0  0  0  0  0  0  0  0  0  0  0
  146.4859  127.5019  151.2904 H   0  0  0  0  0  0  0  0  0  0  0  0
  147.7218  128.2531  152.2958 H   0  0  0  0  0  0  0  0  0  0  0  0
  147.5028  128.7780  150.6262 H   0  0  0  0  0  0  0  0  0  0  0  0
  145.2049  129.6562  151.2136 H   0  0  0  0  0  0  0  0  0  0  0  0
  145.4248  129.1353  152.8686 H   0  0  0  0  0  0  0  0  0  0  0  0
  148.9761  133.3728  154.6455 H   0  0  0  0  0  0  0  0  0  0  0  0
  150.0929  132.3969  153.6901 H   0  0  0  0  0  0  0  0  0  0  0  0
  149.2028  131.6731  155.0246 H   0  0  0  0  0  0  0  0  0  0  0  0
  148.1436  134.6587  152.0166 H   0  0  0  0  0  0  0  0  0  0  0  0
  147.5356  136.5446  151.8478 H   0  0  0  0  0  0  0  0  0  0  0  0
  144.8370  137.4204  151.7237 H   0  0  0  0  0  0  0  0  0  0  0  0
  145.4077  137.5986  153.3664 H   0  0  0  0  0  0  0  0  0  0  0  0
  147.2506  138.6236  151.2120 H   0  0  0  0  0  0  0  0  0  0  0  0
  145.7698  139.5175  151.4465 H   0  0  0  0  0  0  0  0  0  0  0  0
  146.4411  139.4111  154.0184 H   0  0  0  0  0  0  0  0  0  0  0  0
  147.8287  141.2426  151.9931 H   0  0  0  0  0  0  0  0  0  0  0  0
  146.2666  141.5365  152.7240 H   0  0  0  0  0  0  0  0  0  0  0  0
  148.1193  142.8094  153.8676 H   0  0  0  0  0  0  0  0  0  0  0  0
  147.2771  141.7285  154.9574 H   0  0  0  0  0  0  0  0  0  0  0  0
  149.9560  141.1937  153.5898 H   0  0  0  0  0  0  0  0  0  0  0  0
  149.6987  141.4502  155.3016 H   0  0  0  0  0  0  0  0  0  0  0  0
  149.9409  139.0078  154.7321 H   0  0  0  0  0  0  0  0  0  0  0  0
  148.3771  139.3346  155.4535 H   0  0  0  0  0  0  0  0  0  0  0  0
  145.1872  133.3376  150.5483 H   0  0  0  0  0  0  0  0  0  0  0  0
  144.2052  132.1284  151.3736 H   0  0  0  0  0  0  0  0  0  0  0  0
  145.2314  131.6599  150.0156 H   0  0  0  0  0  0  0  0  0  0  0  0
  1  2  1  0  0  0  0
  1 22  1  0  0  0  0
  1 23  1  0  0  0  0
  1 24  1  0  0  0  0
  2  3  1  0  0  0  0
  2 25  1  0  0  0  0
  2 26  1  0  0  0  0
  3 20  1  0  0  0  0
  3  4  1  0  0  0  0
  4  5  2  0  0  0  0
  5  6  1  0  0  0  0
  5  7  1  0  0  0  0
  6 27  1  0  0  0  0
  6 28  1  0  0  0  0
  6 29  1  0  0  0  0
  7  8  1  0  0  0  0
  7 20  2  0  0  0  0
  8  9  1  0  0  0  0
  8 30  1  0  0  0  0
  9 10  2  0  0  0  0
  9 11  1  0  0  0  0
 11 12  1  0  0  0  0
 11 31  1  0  0  0  0
 12 13  1  0  0  0  0
 12 32  1  0  0  0  0
 12 33  1  0  0  0  0
 13 14  1  0  0  0  0
 13 34  1  0  0  0  0
 13 35  1  0  0  0  0
 14 19  1  0  0  0  0
 14 15  1  0  0  0  0
 14 36  1  0  0  0  0
 15 16  1  0  0  0  0
 15 37  1  0  0  0  0
 15 38  1  0  0  0  0
 16 17  1  0  0  0  0
 16 39  1  0  0  0  0
 16 40  1  0  0  0  0
 17 18  1  0  0  0  0
 17 41  1  0  0  0  0
 17 42  1  0  0  0  0
 18 19  1  0  0  0  0
 18 43  1  0  0  0  0
 18 44  1  0  0  0  0
 20 21  1  0  0  0  0
 21 45  1  0  0  0  0
 21 46  1  0  0  0  0
 21 47  1  0  0  0  0
M  END
> <s_m_source_file>
AV-unprocessed.smi

> <i_m_source_file_index>
2274

> <i_lp_mmshare_version>
43012

> <i_f3d_flags>
0

> <s_epik_input>
W0NIM11bQ0gyXW4xbmMoW0NIM10pYyhjMVtDSDNdKVtOSF1DKD1PKVtOSF1bQ0gyXVtDSDJdW0NAQEhdMltDSDJdW0NIMl1bQ0gyXVtDSDJdTzI=

> <s_epik_cmdline>
J2VwaWtfcHl0aG9uJywgJy1waCcsICc3LjAnLCAnLXRuJywgJzgnLCAnLW1hJywgJzIwMCcsICctbWV0YWxfYmluZGluZycsICctaW1hZScsICc8aW5maWxlLm1hZT4nLCAnLW9tYWUnLCAnPG91dGZpbGUubWFlPic=

> <r_lp_tautomer_probability>
1

> <r_epik_Ionization_Penalty>
0.00368263

> <r_epik_Ionization_Penalty_Charging>
0

> <r_epik_Ionization_Penalty_Neutral>
0.00368263

> <r_epik_State_Penalty>
0.00259417

> <r_epik_Charging_Adjusted_Penalty>
0.00259417

> <i_epik_Tot_Q>
0

> <i_epik_Tot_abs_Q>
0

> <r_epik_Metal_State_Penalty>
-0

> <b_epik_Metal_Only>
0

> <s_lp_Force_Field>
OPLS_2005

> <r_lp_Energy>
11.6854

> <b_lp_Chiralities_Consistent>
1

> <s_lp_Variant>
AV-unprocessed.smi:2274-1

> <Gold.Version>
5.8.1

> <Gold.Id.Protein>
6NUR|6NUR_protein|mol2

> <Gold.PLP.Fitness>
43.8119

> <Gold.PLP.PLP>
-39.8973

> <Gold.PLP.part.hbond>
-1.9263

> <Gold.PLP.part.metal>
0.0000

> <Gold.PLP.part.buried>
-3.5344

> <Gold.PLP.part.nonpolar>
-36.4071

> <Gold.PLP.part.repulsive>
1.9496

> <Gold.PLP.ligand.clash>
0.0000

> <Gold.PLP.ligand.torsion>
1.1031

> <Gold.PLP.Chemscore.Hbond>
1.9280

> <Gold.PLP.Chemscore.CHOScore>
0.0000

> <Gold.PLP.Chemscore.Metal>
0.0000

> <Gold.Chemscore.Hbonds>
donor molecule, donor type, donor heavy atom, donor atom, acceptor molecule, acceptor atom, score
      L1  H     8    30       P1  7948  0.68
      L1  H    11    31       P1  7948  0.75

> <Gold.PLP.Chemscore.Internal.Correction>
0.3368

> <Gold.Rescore>
     Score         DG    S(hbond)    S(metal)    S(lipo)     H(rot)  DE(clash)    DE(int)     intcor
     17.20     -18.53       1.65        0.00      96.42       1.46       0.26       1.07       ----

> <Gold.Chemscore.Fitness>
17.2020

> <Gold.Chemscore.DG>
-18.5297

> <Gold.Chemscore.ZeroCoef>
-5.4800

> <Gold.Chemscore.Hbond>
1.6489

> <Gold.Chemscore.Metal>
0.0000

> <Gold.Chemscore.Lipo>
96.4228

> <Gold.Chemscore.Internal_Hbond>
0.0000

> <Gold.Chemscore.DEClash>
0.2558

> <Gold.Chemscore.DEInternal>
1.0719

> <Gold.Chemscore.Rot>
1.4606

> <Gold.Chemscore.Internal.Correction>
   9.000000E+99

> <Gold.Chemscore.Hbonds>
donor molecule, donor type, donor heavy atom, donor atom, acceptor molecule, acceptor atom, score
      L1  H     8    30       P1  7948  0.10
      L1  H    11    31       P1  7948  0.71

> <Gold.Chemscore.Hbond.Weighted>
-5.5075

> <Gold.Chemscore.Metal.Weighted>
-0.0000

> <Gold.Chemscore.Lipo.Weighted>
-11.2815

> <Gold.Chemscore.Internal_Hbond.Weighted>
0.0000

> <Gold.Chemscore.DEClash.Weighted>
0.2558

> <Gold.Chemscore.DEInternal.Weighted>
1.0719

> <Gold.Chemscore.Rot.Weighted>
3.7393

> <Gold.Chemscore.Internal.Correction.Weighted>
   9.000000E+99

> <Gold.Protein.RotatedTorsions>
[ 6907 6896 6895 6894 ] final -131.14 input  -60.11 | X-H torsion
[ 7974 7965 7964 7962 ] final   35.71 input  175.53 | X-H torsion
[ 8008 7997 7996 7995 ] final  100.55 input   59.86 | X-H torsion
[ 10167 10162 10161 10158 ] final -178.57 input  -65.29 | X-H torsion
[ 10718 10713 10712 10709 ] final   64.26 input   66.30 | X-H torsion
[ 10763 10752 10751 10750 ] final  115.83 input  -60.55 | X-H torsion
[ 11005 11000 10999 10996 ] final   -2.38 input  -57.11 | X-H torsion

> <Gold.Protein.ActiveResidues>
 VAL166  LYS551  ARG553  GLY616  TRP617  ASP618  TYR619  PRO620  LYS621  CYS622 
 ASP623  PHE694  ASN695  SER759  ASP760  ASP761  ALA762  ILE779  LEU786  VAL792 
 PHE793  MET794  SER795  GLU796  ALA797  LYS798  CYS799  TRP800  GLU811  SER814 

> <Gold.Protein.RotatedAtoms>
  150.9476  133.6586  159.2778 H   0  0  0  0  0  0  0  0  0  0  0  0  # atno 6907 bound_to 6896
  151.3953  135.0961  159.9548 H   0  0  0  0  0  0  0  0  0  0  0  0  # atno 6908 bound_to 6896
  152.5096  133.8981  159.7482 H   0  0  0  0  0  0  0  0  0  0  0  0  # atno 6909 bound_to 6896
  146.1263  139.6108  142.9256 H   0  0  0  0  0  0  0  0  0  0  0  0  # atno 7974 bound_to 7965
  156.1214  140.3211  155.8214 H   0  0  0  0  0  0  0  0  0  0  0  0  # atno 8008 bound_to 7997
  155.4497  140.0531  157.3019 H   0  0  0  0  0  0  0  0  0  0  0  0  # atno 8009 bound_to 7997
  154.4830  140.2061  155.9732 H   0  0  0  0  0  0  0  0  0  0  0  0  # atno 8010 bound_to 7997
  139.5426  144.2322  152.0925 H   0  0  0  0  0  0  0  0  0  0  0  0  # atno 10167 bound_to 10162
  157.6027  130.9150  149.9822 H   0  0  0  0  0  0  0  0  0  0  0  0  # atno 10718 bound_to 10713
  153.5280  135.3584  155.2663 H   0  0  0  0  0  0  0  0  0  0  0  0  # atno 10763 bound_to 10752
  154.8729  135.4061  154.3183 H   0  0  0  0  0  0  0  0  0  0  0  0  # atno 10764 bound_to 10752
  153.3867  135.7070  153.6593 H   0  0  0  0  0  0  0  0  0  0  0  0  # atno 10765 bound_to 10752
  140.6578  133.9347  155.8418 H   0  0  0  0  0  0  0  0  0  0  0  0  # atno 11005 bound_to 11000
  145.5357  141.0424  143.2358 LP  0  0  0  0  0  0  0  0  0  0  0  0  # atno 17320 bound_to 7965
  144.7646  139.6876  143.7220 LP  0  0  0  0  0  0  0  0  0  0  0  0  # atno 17321 bound_to 7965
  140.1803  144.4851  150.6532 LP  0  0  0  0  0  0  0  0  0  0  0  0  # atno 17342 bound_to 10162
  140.6662  143.2269  151.5737 LP  0  0  0  0  0  0  0  0  0  0  0  0  # atno 17343 bound_to 10162
  156.1105  130.3650  150.0058 LP  0  0  0  0  0  0  0  0  0  0  0  0  # atno 17370 bound_to 10713
  156.8157  130.9341  151.3643 LP  0  0  0  0  0  0  0  0  0  0  0  0  # atno 17371 bound_to 10713
  141.0488  134.0514  157.3809 LP  0  0  0  0  0  0  0  0  0  0  0  0  # atno 17394 bound_to 11000
  139.9023  135.0169  156.7328 LP  0  0  0  0  0  0  0  0  0  0  0  0  # atno 17395 bound_to 11000

$$$$
