AV-unprocessed.smi:212|AV-procd|sdf|1618|dock4
  -GOLD-   2262019543D 1   1.00000     0.00000
 Structure written by MMmdl.
 65 68  0  0  0  0  0  0  0  0  2 V2000
  150.0078  132.4655  156.1011 C   0  0  0  0  0  0  0  0  0  0  0  0
  150.0617  133.7164  155.2079 C   0  0  1  0  0  0  0  0  0  0  0  0
  149.3200  133.5093  153.8706 C   0  0  0  0  0  0  0  0  0  0  0  0
  147.8465  133.4870  154.0623 N   0  3  2  0  0  0  0  0  0  0  0  0
  147.0946  133.1495  152.8256 C   0  0  0  0  0  0  0  0  0  0  0  0
  145.6066  132.8444  153.1123 C   0  0  0  0  0  0  0  0  0  0  0  0
  144.7919  134.1484  153.1390 C   0  0  0  0  0  0  0  0  0  0  0  0
  144.9943  131.8552  152.1036 C   0  0  0  0  0  0  0  0  0  0  0  0
  145.5110  132.2763  154.4041 O   0  0  0  0  0  0  0  0  0  0  0  0
  147.3493  134.7109  154.7389 C   0  0  0  0  0  0  0  0  0  0  0  0
  148.0829  134.9379  156.0737 C   0  0  0  0  0  0  0  0  0  0  0  0
  149.5360  134.8974  155.8980 N   0  0  0  0  0  0  0  0  0  0  0  0
  150.1989  136.0615  155.6695 C   0  0  0  0  0  0  0  0  0  0  0  0
  150.8300  136.2618  154.4818 N   0  0  0  0  0  0  0  0  0  0  0  0
  151.4988  137.3959  154.2547 C   0  0  0  0  0  0  0  0  0  0  0  0
  151.6590  138.4452  155.0623 N   0  0  0  0  0  0  0  0  0  0  0  0
  151.0180  138.2576  156.2507 C   0  0  0  0  0  0  0  0  0  0  0  0
  150.2741  137.1061  156.6338 C   0  0  0  0  0  0  0  0  0  0  0  0
  149.7635  137.2781  157.9151 N   0  0  0  0  0  0  0  0  0  0  0  0
  150.1878  138.4594  158.2722 C   0  0  0  0  0  0  0  0  0  0  0  0
  150.9351  139.1246  157.3263 N   0  0  0  0  0  0  0  0  0  0  0  0
  151.5368  140.4389  157.4597 C   0  0  0  0  0  0  0  0  0  0  0  0
  150.5298  141.6238  157.4819 C   0  0  2  0  0  0  0  0  0  0  0  0
  149.9978  141.8865  156.0555 C   0  0  0  0  0  0  0  0  0  0  0  0
  148.6494  142.3069  156.0787 O   0  0  0  0  0  0  0  0  0  0  0  0
  151.0381  142.9573  158.1054 C   0  0  2  0  0  0  0  0  0  0  0  0
  151.8302  143.8875  157.2056 C   0  0  0  0  0  0  0  0  0  0  0  0
  152.4328  144.8675  158.2121 C   0  0  0  0  0  0  0  0  0  0  0  0
  152.4882  144.1834  159.4631 O   0  0  0  0  0  0  0  0  0  0  0  0
  151.9497  142.8732  159.3304 C   0  0  0  0  0  0  0  0  0  0  0  0
  150.4601  131.6099  155.5992 H   0  0  0  0  0  0  0  0  0  0  0  0
  148.9858  132.1899  156.3620 H   0  0  0  0  0  0  0  0  0  0  0  0
  150.5566  132.6275  157.0294 H   0  0  0  0  0  0  0  0  0  0  0  0
  151.1116  133.8716  154.9603 H   0  0  0  0  0  0  0  0  0  0  0  0
  149.5731  134.3180  153.1830 H   0  0  0  0  0  0  0  0  0  0  0  0
  149.6533  132.5842  153.3990 H   0  0  0  0  0  0  0  0  0  0  0  0
  147.1610  133.9730  152.1123 H   0  0  0  0  0  0  0  0  0  0  0  0
  147.5585  132.2983  152.3243 H   0  0  0  0  0  0  0  0  0  0  0  0
  144.8162  134.6481  152.1701 H   0  0  0  0  0  0  0  0  0  0  0  0
  145.1821  134.8483  153.8791 H   0  0  0  0  0  0  0  0  0  0  0  0
  143.7458  133.9610  153.3846 H   0  0  0  0  0  0  0  0  0  0  0  0
  145.0695  132.2360  151.0846 H   0  0  0  0  0  0  0  0  0  0  0  0
  143.9381  131.6807  152.3112 H   0  0  0  0  0  0  0  0  0  0  0  0
  145.4912  130.8851  152.1319 H   0  0  0  0  0  0  0  0  0  0  0  0
  144.6002  132.1075  154.5928 H   0  0  0  0  0  0  0  0  0  0  0  0
  147.4858  135.5681  154.0783 H   0  0  0  0  0  0  0  0  0  0  0  0
  146.2783  134.6196  154.9242 H   0  0  0  0  0  0  0  0  0  0  0  0
  147.7690  135.8780  156.5291 H   0  0  0  0  0  0  0  0  0  0  0  0
  147.8018  134.1592  156.7828 H   0  0  0  0  0  0  0  0  0  0  0  0
  151.9737  137.4745  153.2878 H   0  0  0  0  0  0  0  0  0  0  0  0
  149.9580  138.8824  159.2394 H   0  0  0  0  0  0  0  0  0  0  0  0
  152.1589  140.4506  158.3549 H   0  0  0  0  0  0  0  0  0  0  0  0
  152.2257  140.5516  156.6223 H   0  0  0  0  0  0  0  0  0  0  0  0
  149.6687  141.3194  158.0782 H   0  0  0  0  0  0  0  0  0  0  0  0
  150.5724  142.6724  155.5646 H   0  0  0  0  0  0  0  0  0  0  0  0
  150.0869  140.9923  155.4377 H   0  0  0  0  0  0  0  0  0  0  0  0
  148.6257  143.2473  155.9875 H   0  0  0  0  0  0  0  0  0  0  0  0
  150.1618  143.5124  158.4447 H   0  0  0  0  0  0  0  0  0  0  0  0
  152.6335  143.3571  156.6965 H   0  0  0  0  0  0  0  0  0  0  0  0
  151.2170  144.3811  156.4515 H   0  0  0  0  0  0  0  0  0  0  0  0
  153.4218  145.2099  157.9067 H   0  0  0  0  0  0  0  0  0  0  0  0
  151.7931  145.7431  158.3264 H   0  0  0  0  0  0  0  0  0  0  0  0
  151.4147  142.5707  160.2309 H   0  0  0  0  0  0  0  0  0  0  0  0
  152.7837  142.1914  159.1911 H   0  0  0  0  0  0  0  0  0  0  0  0
  147.6591  132.7298  154.7043 H   0  0  0  0  0  0  0  0  0  0  0  0
  1  2  1  0  0  0  0
  1 31  1  0  0  0  0
  1 32  1  0  0  0  0
  1 33  1  0  0  0  0
  2 12  1  0  0  0  0
  2  3  1  0  0  0  0
  2 34  1  0  0  0  0
  3  4  1  0  0  0  0
  3 35  1  0  0  0  0
  3 36  1  0  0  0  0
  4  5  1  0  0  0  0
  4 10  1  0  0  0  0
  4 65  1  0  0  0  0
  5  6  1  0  0  0  0
  5 37  1  0  0  0  0
  5 38  1  0  0  0  0
  6  7  1  0  0  0  0
  6  8  1  0  0  0  0
  6  9  1  0  0  0  0
  7 39  1  0  0  0  0
  7 40  1  0  0  0  0
  7 41  1  0  0  0  0
  8 42  1  0  0  0  0
  8 43  1  0  0  0  0
  8 44  1  0  0  0  0
  9 45  1  0  0  0  0
 10 11  1  0  0  0  0
 10 46  1  0  0  0  0
 10 47  1  0  0  0  0
 11 12  1  0  0  0  0
 11 48  1  0  0  0  0
 11 49  1  0  0  0  0
 12 13  1  0  0  0  0
 13 18  1  0  0  0  0
 13 14  2  0  0  0  0
 14 15  1  0  0  0  0
 15 16  2  0  0  0  0
 15 50  1  0  0  0  0
 16 17  1  0  0  0  0
 17 21  1  0  0  0  0
 17 18  2  0  0  0  0
 18 19  1  0  0  0  0
 19 20  2  0  0  0  0
 20 21  1  0  0  0  0
 20 51  1  0  0  0  0
 21 22  1  0  0  0  0
 22 23  1  0  0  0  0
 22 52  1  0  0  0  0
 22 53  1  0  0  0  0
 23 24  1  0  0  0  0
 23 26  1  0  0  0  0
 23 54  1  0  0  0  0
 24 25  1  0  0  0  0
 24 55  1  0  0  0  0
 24 56  1  0  0  0  0
 25 57  1  0  0  0  0
 26 30  1  0  0  0  0
 26 27  1  0  0  0  0
 26 58  1  0  0  0  0
 27 28  1  0  0  0  0
 27 59  1  0  0  0  0
 27 60  1  0  0  0  0
 28 29  1  0  0  0  0
 28 61  1  0  0  0  0
 28 62  1  0  0  0  0
 29 30  1  0  0  0  0
 30 63  1  0  0  0  0
 30 64  1  0  0  0  0
M  CHG  1   4   1
M  END
> <s_m_source_file>
AV-unprocessed.smi

> <i_m_source_file_index>
212

> <i_lp_mmshare_version>
43012

> <i_f3d_flags>
0

> <s_epik_input>
W0NIM11bQ0BASF0xW0NIMl1OKFtDSDJdQyhbQ0gzXSkoW0NIM10pW09IXSlbQ0gyXVtDSDJdTjFjKG5bY0hdbjIpYyhjMjMpbltjSF1uM1tDSDJdW0NASF0oW0NIMl1bT0hdKVtDQEBIXTRbQ0gyXVtDSDJdT1tDSDJdNA==

> <s_epik_cmdline>
J2VwaWtfcHl0aG9uJywgJy1waCcsICc3LjAnLCAnLXRuJywgJzgnLCAnLW1hJywgJzIwMCcsICctbWV0YWxfYmluZGluZycsICctaW1hZScsICc8aW5maWxlLm1hZT4nLCAnLW9tYWUnLCAnPG91dGZpbGUubWFlPic=

> <r_lp_tautomer_probability>
1

> <r_epik_Ionization_Penalty>
0.00182193

> <r_epik_Ionization_Penalty_Charging>
0.00173996

> <r_epik_Ionization_Penalty_Neutral>
8.19718e-05

> <r_epik_State_Penalty>
-0

> <r_epik_Charging_Adjusted_Penalty>
0.00173996

> <i_epik_Tot_Q>
1

> <i_epik_Tot_abs_Q>
1

> <r_epik_Metal_State_Penalty>
-0

> <b_epik_Metal_Only>
0

> <s_lp_Force_Field>
OPLS_2005

> <r_lp_Energy>
59.4292

> <b_lp_Chiralities_Consistent>
1

> <s_lp_Variant>
AV-unprocessed.smi:212-2

> <Gold.Version>
5.8.1

> <Gold.Id.Protein>
6NUR|6NUR_protein|mol2

> <Gold.PLP.Fitness>
47.0223

> <Gold.PLP.PLP>
-42.5283

> <Gold.PLP.part.hbond>
-2.5148

> <Gold.PLP.part.metal>
0.0000

> <Gold.PLP.part.buried>
-6.1293

> <Gold.PLP.part.nonpolar>
-35.3890

> <Gold.PLP.part.repulsive>
1.0796

> <Gold.PLP.ligand.clash>
0.0000

> <Gold.PLP.ligand.torsion>
2.3378

> <Gold.PLP.Chemscore.Hbond>
1.9588

> <Gold.PLP.Chemscore.CHOScore>
0.7020

> <Gold.PLP.Chemscore.Metal>
0.0000

> <Gold.Chemscore.Hbonds>
donor molecule, donor type, donor heavy atom, donor atom, acceptor molecule, acceptor atom, score
      L1  H     9    45       P1 10957  1.00
      L1  H    25    57       P1  8028  0.98
      L1  C    15    50       P1  7949  0.77

> <Gold.PLP.Chemscore.Internal.Correction>
1.1876

> <Gold.Rescore>
     Score         DG    S(hbond)    S(metal)    S(lipo)     H(rot)  DE(clash)    DE(int)     intcor
     11.55     -14.91       1.93        0.00      99.97       3.40       0.08       3.28       ----

> <Gold.Chemscore.Fitness>
11.5540

> <Gold.Chemscore.DG>
-14.9141

> <Gold.Chemscore.ZeroCoef>
-5.4800

> <Gold.Chemscore.Hbond>
1.9276

> <Gold.Chemscore.Metal>
0.0000

> <Gold.Chemscore.Lipo>
99.9679

> <Gold.Chemscore.Internal_Hbond>
0.0000

> <Gold.Chemscore.DEClash>
0.0757

> <Gold.Chemscore.DEInternal>
3.2844

> <Gold.Chemscore.Rot>
3.3986

> <Gold.Chemscore.Internal.Correction>
   9.000000E+99

> <Gold.Chemscore.Hbonds>
donor molecule, donor type, donor heavy atom, donor atom, acceptor molecule, acceptor atom, score
      L1  H     9    45       P1 10957  0.34
      L1  H    25    57       P1  8028  0.91

> <Gold.Chemscore.Hbond.Weighted>
-6.4383

> <Gold.Chemscore.Metal.Weighted>
-0.0000

> <Gold.Chemscore.Lipo.Weighted>
-11.6963

> <Gold.Chemscore.Internal_Hbond.Weighted>
0.0000

> <Gold.Chemscore.DEClash.Weighted>
0.0757

> <Gold.Chemscore.DEInternal.Weighted>
3.2844

> <Gold.Chemscore.Rot.Weighted>
8.7005

> <Gold.Chemscore.Internal.Correction.Weighted>
   9.000000E+99

> <Gold.Protein.RotatedTorsions>
[ 6907 6896 6895 6894 ] final   14.98 input  -60.11 | X-H torsion
[ 7974 7965 7964 7962 ] final  107.46 input  175.53 | X-H torsion
[ 8008 7997 7996 7995 ] final -104.98 input   59.86 | X-H torsion
[ 10167 10162 10161 10158 ] final -153.38 input  -65.29 | X-H torsion
[ 10718 10713 10712 10709 ] final  -23.71 input   66.30 | X-H torsion
[ 10763 10752 10751 10750 ] final  -72.09 input  -60.55 | X-H torsion
[ 11005 11000 10999 10996 ] final  -41.71 input  -57.11 | X-H torsion

> <Gold.Protein.ActiveResidues>
 VAL166  LYS551  ARG553  GLY616  TRP617  ASP618  TYR619  PRO620  LYS621  CYS622 
 ASP623  PHE694  ASN695  SER759  ASP760  ASP761  ALA762  ILE779  LEU786  VAL792 
 PHE793  MET794  SER795  GLU796  ALA797  LYS798  CYS799  TRP800  GLU811  SER814 

> <Gold.Protein.RotatedAtoms>
  151.8108  135.0681  160.0412 H   0  0  0  0  0  0  0  0  0  0  0  0  # atno 6907 bound_to 6896
  152.3022  133.5662  159.5634 H   0  0  0  0  0  0  0  0  0  0  0  0  # atno 6908 bound_to 6896
  150.7279  134.0191  159.3737 H   0  0  0  0  0  0  0  0  0  0  0  0  # atno 6909 bound_to 6896
  145.2933  139.2593  143.3853 H   0  0  0  0  0  0  0  0  0  0  0  0  # atno 7974 bound_to 7965
  154.8932  140.0415  157.1850 H   0  0  0  0  0  0  0  0  0  0  0  0  # atno 8008 bound_to 7997
  154.8519  140.2930  155.5572 H   0  0  0  0  0  0  0  0  0  0  0  0  # atno 8009 bound_to 7997
  156.2996  140.2463  156.3480 H   0  0  0  0  0  0  0  0  0  0  0  0  # atno 8010 bound_to 7997
  139.7102  143.9121  152.2465 H   0  0  0  0  0  0  0  0  0  0  0  0  # atno 10167 bound_to 10162
  156.4875  130.4559  149.6775 H   0  0  0  0  0  0  0  0  0  0  0  0  # atno 10718 bound_to 10713
  154.4409  135.5941  153.6128 H   0  0  0  0  0  0  0  0  0  0  0  0  # atno 10763 bound_to 10752
  152.9805  135.5998  154.3724 H   0  0  0  0  0  0  0  0  0  0  0  0  # atno 10764 bound_to 10752
  154.3573  135.2841  155.2318 H   0  0  0  0  0  0  0  0  0  0  0  0  # atno 10765 bound_to 10752
  141.0265  133.6839  156.2495 H   0  0  0  0  0  0  0  0  0  0  0  0  # atno 11005 bound_to 11000
  146.3177  140.3429  142.8649 LP  0  0  0  0  0  0  0  0  0  0  0  0  # atno 17320 bound_to 7965
  144.9155  140.7807  143.5781 LP  0  0  0  0  0  0  0  0  0  0  0  0  # atno 17321 bound_to 7965
  139.8988  144.6924  150.8688 LP  0  0  0  0  0  0  0  0  0  0  0  0  # atno 17342 bound_to 10162
  140.7731  143.3530  151.1977 LP  0  0  0  0  0  0  0  0  0  0  0  0  # atno 17343 bound_to 10162
  156.3460  130.7407  151.2359 LP  0  0  0  0  0  0  0  0  0  0  0  0  # atno 17370 bound_to 10713
  157.7477  131.0390  150.4531 LP  0  0  0  0  0  0  0  0  0  0  0  0  # atno 17371 bound_to 10713
  140.6482  134.5095  157.5575 LP  0  0  0  0  0  0  0  0  0  0  0  0  # atno 17394 bound_to 11000
  139.9179  134.8208  156.1304 LP  0  0  0  0  0  0  0  0  0  0  0  0  # atno 17395 bound_to 11000

$$$$
