AV-unprocessed.smi:1115|AV-procd|sdf|4802|dock2
  -GOLD-   22720 3343D 1   1.00000     0.00000
 Structure written by MMmdl.
 51 52  0  0  0  0  0  0  0  0  2 V2000
  148.6519  128.2678  152.4913 C   0  0  0  0  0  0  0  0  0  0  0  0
  149.4530  128.8614  153.5558 N   0  0  0  0  0  0  0  0  0  0  0  0
  150.0972  128.0131  154.5498 C   0  0  0  0  0  0  0  0  0  0  0  0
  149.4971  130.2651  153.6999 C   0  0  0  0  0  0  0  0  0  0  0  0
  150.3550  130.9232  154.6145 C   0  0  0  0  0  0  0  0  0  0  0  0
  150.3402  132.3299  154.7020 C   0  0  0  0  0  0  0  0  0  0  0  0
  149.4677  133.0771  153.8839 C   0  0  0  0  0  0  0  0  0  0  0  0
  149.5011  134.4927  154.0121 N   0  0  0  0  0  0  0  0  0  0  0  0
  149.8071  135.2402  155.0865 C   0  0  0  0  0  0  0  0  0  0  0  0
  150.1273  134.8046  156.1917 O   0  0  0  0  0  0  0  0  0  0  0  0
  149.7209  136.5466  154.8008 N   0  0  0  0  0  0  0  0  0  0  0  0
  149.9536  137.6466  155.7366 C   0  0  0  0  0  0  0  0  0  0  0  0
  150.7969  138.7988  155.1145 C   0  0  0  0  0  0  0  0  0  0  0  0
  151.9774  138.1278  154.3673 C   0  0  0  0  0  0  0  0  0  0  0  0
  149.9137  139.4844  154.0442 C   0  0  0  0  0  0  0  0  0  0  0  0
  151.2900  139.7430  156.1569 N   0  0  0  0  0  0  0  0  0  0  0  0
  150.2660  140.6281  156.7239 C   0  0  0  0  0  0  0  0  0  0  0  0
  150.8646  141.6543  157.7011 C   0  0  0  0  0  0  0  0  0  0  0  0
  151.5695  140.9786  158.7351 O   0  0  0  0  0  0  0  0  0  0  0  0
  152.6127  140.1539  158.2309 C   0  0  0  0  0  0  0  0  0  0  0  0
  152.0274  139.1148  157.2596 C   0  0  0  0  0  0  0  0  0  0  0  0
  148.6364  132.3746  152.9787 C   0  0  0  0  0  0  0  0  0  0  0  0
  148.6841  131.0258  152.9267 N   0  3  0  0  0  0  0  0  0  0  0  0
  148.9786  128.6315  151.5166 H   0  0  0  0  0  0  0  0  0  0  0  0
  147.5985  128.5182  152.6205 H   0  0  0  0  0  0  0  0  0  0  0  0
  148.7406  127.1812  152.4865 H   0  0  0  0  0  0  0  0  0  0  0  0
  149.6942  128.2121  155.5434 H   0  0  0  0  0  0  0  0  0  0  0  0
  151.1726  128.1919  154.5670 H   0  0  0  0  0  0  0  0  0  0  0  0
  149.9389  126.9568  154.3318 H   0  0  0  0  0  0  0  0  0  0  0  0
  151.0285  130.3718  155.2533 H   0  0  0  0  0  0  0  0  0  0  0  0
  150.9961  132.8294  155.3999 H   0  0  0  0  0  0  0  0  0  0  0  0
  149.2953  135.0058  153.1674 H   0  0  0  0  0  0  0  0  0  0  0  0
  149.4444  136.8088  153.8660 H   0  0  0  0  0  0  0  0  0  0  0  0
  149.0065  138.0338  156.1167 H   0  0  0  0  0  0  0  0  0  0  0  0
  150.4472  137.2337  156.6161 H   0  0  0  0  0  0  0  0  0  0  0  0
  151.6368  137.3052  153.7373 H   0  0  0  0  0  0  0  0  0  0  0  0
  152.7152  137.7222  155.0605 H   0  0  0  0  0  0  0  0  0  0  0  0
  152.4951  138.8222  153.7056 H   0  0  0  0  0  0  0  0  0  0  0  0
  149.5796  138.7656  153.2953 H   0  0  0  0  0  0  0  0  0  0  0  0
  150.4481  140.2689  153.5088 H   0  0  0  0  0  0  0  0  0  0  0  0
  149.0159  139.9288  154.4733 H   0  0  0  0  0  0  0  0  0  0  0  0
  149.7522  141.1810  155.9395 H   0  0  0  0  0  0  0  0  0  0  0  0
  149.5100  140.0433  157.2481 H   0  0  0  0  0  0  0  0  0  0  0  0
  151.5360  142.3381  157.1793 H   0  0  0  0  0  0  0  0  0  0  0  0
  150.0745  142.2594  158.1454 H   0  0  0  0  0  0  0  0  0  0  0  0
  153.3647  140.7680  157.7329 H   0  0  0  0  0  0  0  0  0  0  0  0
  153.1072  139.6557  159.0648 H   0  0  0  0  0  0  0  0  0  0  0  0
  151.3728  138.4450  157.8175 H   0  0  0  0  0  0  0  0  0  0  0  0
  152.8515  138.5112  156.8842 H   0  0  0  0  0  0  0  0  0  0  0  0
  147.9402  132.8244  152.2878 H   0  0  0  0  0  0  0  0  0  0  0  0
  148.0701  130.5524  152.2638 H   0  0  0  0  0  0  0  0  0  0  0  0
  1  2  1  0  0  0  0
  1 24  1  0  0  0  0
  1 25  1  0  0  0  0
  1 26  1  0  0  0  0
  2  3  1  0  0  0  0
  2  4  1  0  0  0  0
  3 27  1  0  0  0  0
  3 28  1  0  0  0  0
  3 29  1  0  0  0  0
  4 23  1  0  0  0  0
  4  5  2  0  0  0  0
  5  6  1  0  0  0  0
  5 30  1  0  0  0  0
  6  7  2  0  0  0  0
  6 31  1  0  0  0  0
  7  8  1  0  0  0  0
  7 22  1  0  0  0  0
  8  9  1  0  0  0  0
  8 32  1  0  0  0  0
  9 10  2  0  0  0  0
  9 11  1  0  0  0  0
 11 12  1  0  0  0  0
 11 33  1  0  0  0  0
 12 13  1  0  0  0  0
 12 34  1  0  0  0  0
 12 35  1  0  0  0  0
 13 14  1  0  0  0  0
 13 15  1  0  0  0  0
 13 16  1  0  0  0  0
 14 36  1  0  0  0  0
 14 37  1  0  0  0  0
 14 38  1  0  0  0  0
 15 39  1  0  0  0  0
 15 40  1  0  0  0  0
 15 41  1  0  0  0  0
 16 21  1  0  0  0  0
 16 17  1  0  0  0  0
 17 18  1  0  0  0  0
 17 42  1  0  0  0  0
 17 43  1  0  0  0  0
 18 19  1  0  0  0  0
 18 44  1  0  0  0  0
 18 45  1  0  0  0  0
 19 20  1  0  0  0  0
 20 21  1  0  0  0  0
 20 46  1  0  0  0  0
 20 47  1  0  0  0  0
 21 48  1  0  0  0  0
 21 49  1  0  0  0  0
 22 23  2  0  0  0  0
 22 50  1  0  0  0  0
 23 51  1  0  0  0  0
M  CHG  1  23   1
M  END
> <s_m_source_file>
AV-unprocessed.smi

> <i_m_source_file_index>
1115

> <i_lp_mmshare_version>
43012

> <i_f3d_flags>
0

> <s_epik_input>
W0NIM11OKFtDSDNdKWMxW2NIXVtjSF1jKFtjSF1uMSlbTkhdQyg9TylbTkhdW0NIMl1DKFtDSDNdKShbQ0gzXSlOMltDSDJdW0NIMl1PW0NIMl1bQ0gyXTI=

> <s_epik_cmdline>
J2VwaWtfcHl0aG9uJywgJy1waCcsICc3LjAnLCAnLXRuJywgJzgnLCAnLW1hJywgJzIwMCcsICctbWV0YWxfYmluZGluZycsICctaW1hZScsICc8aW5maWxlLm1hZT4nLCAnLW9tYWUnLCAnPG91dGZpbGUubWFlPic=

> <r_lp_tautomer_probability>
0.999994

> <r_epik_Ionization_Penalty>
0.525804

> <r_epik_Ionization_Penalty_Charging>
0.259793

> <r_epik_Ionization_Penalty_Neutral>
0.266011

> <r_epik_State_Penalty>
0.517093

> <r_epik_Charging_Adjusted_Penalty>
0.776886

> <i_epik_Tot_Q>
1

> <i_epik_Tot_abs_Q>
1

> <r_epik_Metal_State_Penalty>
0.804287

> <b_epik_Metal_Only>
0

> <s_lp_Force_Field>
OPLS_2005

> <r_lp_Energy>
49.9386

> <b_lp_Chiralities_Consistent>
1

> <s_lp_Variant>
AV-unprocessed.smi:1115-1

> <Gold.Version>
5.8.1

> <Gold.Id.Protein>
6NUR|6NUR_protein|mol2

> <Gold.PLP.Fitness>
39.5889

> <Gold.PLP.PLP>
-36.1080

> <Gold.PLP.part.hbond>
-2.9938

> <Gold.PLP.part.metal>
0.0000

> <Gold.PLP.part.buried>
-2.5300

> <Gold.PLP.part.nonpolar>
-30.5235

> <Gold.PLP.part.repulsive>
0.0787

> <Gold.PLP.ligand.clash>
0.0000

> <Gold.PLP.ligand.torsion>
0.5932

> <Gold.PLP.Chemscore.Hbond>
1.5321

> <Gold.PLP.Chemscore.CHOScore>
0.0000

> <Gold.PLP.Chemscore.Metal>
0.0000

> <Gold.Chemscore.Hbonds>
donor molecule, donor type, donor heavy atom, donor atom, acceptor molecule, acceptor atom, score
      L1  H     8    32       P1  7948  0.55
      L1  H    11    33       P1  7948  0.76
      L1  H    23    51       P1 10747  0.07

> <Gold.PLP.Chemscore.Internal.Correction>
0.0711

> <Gold.Rescore>
     Score         DG    S(hbond)    S(metal)    S(lipo)     H(rot)  DE(clash)    DE(int)     intcor
     11.67     -14.79       1.01        0.00      82.36       1.44       1.22       1.90       ----

> <Gold.Chemscore.Fitness>
11.6742

> <Gold.Chemscore.DG>
-14.7875

> <Gold.Chemscore.ZeroCoef>
-5.4800

> <Gold.Chemscore.Hbond>
1.0090

> <Gold.Chemscore.Metal>
0.0000

> <Gold.Chemscore.Lipo>
82.3577

> <Gold.Chemscore.Internal_Hbond>
0.0000

> <Gold.Chemscore.DEClash>
1.2155

> <Gold.Chemscore.DEInternal>
1.8979

> <Gold.Chemscore.Rot>
1.4447

> <Gold.Chemscore.Internal.Correction>
   9.000000E+99

> <Gold.Chemscore.Hbonds>
donor molecule, donor type, donor heavy atom, donor atom, acceptor molecule, acceptor atom, score
      L1  H     8    32       P1  7948  0.03
      L1  H    11    33       P1  7948  0.65
      L1  H    23    51       P1 10747  0.08

> <Gold.Chemscore.Hbond.Weighted>
-3.3702

> <Gold.Chemscore.Metal.Weighted>
-0.0000

> <Gold.Chemscore.Lipo.Weighted>
-9.6359

> <Gold.Chemscore.Internal_Hbond.Weighted>
0.0000

> <Gold.Chemscore.DEClash.Weighted>
1.2155

> <Gold.Chemscore.DEInternal.Weighted>
1.8979

> <Gold.Chemscore.Rot.Weighted>
3.6985

> <Gold.Chemscore.Internal.Correction.Weighted>
   9.000000E+99

> <Gold.Protein.RotatedTorsions>
[ 6907 6896 6895 6894 ] final  123.26 input  -60.11 | X-H torsion
[ 7974 7965 7964 7962 ] final  147.48 input  175.53 | X-H torsion
[ 8008 7997 7996 7995 ] final   94.09 input   59.86 | X-H torsion
[ 10167 10162 10161 10158 ] final   90.64 input  -65.29 | X-H torsion
[ 10718 10713 10712 10709 ] final  157.33 input   66.30 | X-H torsion
[ 10763 10752 10751 10750 ] final  -78.31 input  -60.55 | X-H torsion
[ 11005 11000 10999 10996 ] final   87.96 input  -57.11 | X-H torsion

> <Gold.Protein.ActiveResidues>
 VAL166  LYS551  ARG553  GLY616  TRP617  ASP618  TYR619  PRO620  LYS621  CYS622 
 ASP623  PHE694  ASN695  SER759  ASP760  ASP761  ALA762  ILE779  LEU786  VAL792 
 PHE793  MET794  SER795  GLU796  ALA797  LYS798  CYS799  TRP800  GLU811  SER814 

> <Gold.Protein.RotatedAtoms>
  152.4176  133.7063  159.6452 H   0  0  0  0  0  0  0  0  0  0  0  0  # atno 6907 bound_to 6896
  150.8052  133.8512  159.3214 H   0  0  0  0  0  0  0  0  0  0  0  0  # atno 6908 bound_to 6896
  151.6237  135.1031  160.0158 H   0  0  0  0  0  0  0  0  0  0  0  0  # atno 6909 bound_to 6896
  144.8588  139.6035  143.5940 H   0  0  0  0  0  0  0  0  0  0  0  0  # atno 7974 bound_to 7965
  156.0540  140.3304  155.7384 H   0  0  0  0  0  0  0  0  0  0  0  0  # atno 8008 bound_to 7997
  155.5557  140.0614  157.2857 H   0  0  0  0  0  0  0  0  0  0  0  0  # atno 8009 bound_to 7997
  154.4449  140.1886  156.0720 H   0  0  0  0  0  0  0  0  0  0  0  0  # atno 8010 bound_to 7997
  139.8453  144.6621  150.9234 H   0  0  0  0  0  0  0  0  0  0  0  0  # atno 10167 bound_to 10162
  157.1930  131.0659  151.2069 H   0  0  0  0  0  0  0  0  0  0  0  0  # atno 10718 bound_to 10713
  154.5243  135.5734  153.6706 H   0  0  0  0  0  0  0  0  0  0  0  0  # atno 10763 bound_to 10752
  152.9924  135.6189  154.2714 H   0  0  0  0  0  0  0  0  0  0  0  0  # atno 10764 bound_to 10752
  154.2636  135.2855  155.2747 H   0  0  0  0  0  0  0  0  0  0  0  0  # atno 10765 bound_to 10752
  139.8907  134.8457  156.2934 H   0  0  0  0  0  0  0  0  0  0  0  0  # atno 11005 bound_to 11000
  146.2844  139.6964  142.9206 LP  0  0  0  0  0  0  0  0  0  0  0  0  # atno 17320 bound_to 7965
  145.4354  141.0418  143.2887 LP  0  0  0  0  0  0  0  0  0  0  0  0  # atno 17321 bound_to 7965
  140.7793  143.3875  151.1367 LP  0  0  0  0  0  0  0  0  0  0  0  0  # atno 17342 bound_to 10162
  139.7518  143.8767  152.3078 LP  0  0  0  0  0  0  0  0  0  0  0  0  # atno 17343 bound_to 10162
  157.3842  130.7247  149.6651 LP  0  0  0  0  0  0  0  0  0  0  0  0  # atno 17370 bound_to 10713
  155.9709  130.4164  150.4229 LP  0  0  0  0  0  0  0  0  0  0  0  0  # atno 17371 bound_to 10713
  140.9961  133.7179  156.0888 LP  0  0  0  0  0  0  0  0  0  0  0  0  # atno 17394 bound_to 11000
  140.7560  134.3992  157.5534 LP  0  0  0  0  0  0  0  0  0  0  0  0  # atno 17395 bound_to 11000

$$$$
