AV-unprocessed.smi:234|AV-procd|sdf|1798|dock8
  -GOLD-   2262020363D 1   1.00000     0.00000
 Structure written by MMmdl.
 59 62  0  0  0  0  0  0  0  0  1 V2000
  153.7021  142.4954  160.9103 C   0  0  0  0  0  0  0  0  0  0  0  0
  152.3951  143.1726  160.4776 C   0  0  0  0  0  0  0  0  0  0  0  0
  151.4429  142.2456  159.9730 O   0  0  0  0  0  0  0  0  0  0  0  0
  151.8027  141.6228  158.7463 C   0  0  1  0  0  0  0  0  0  0  0  0
  151.6022  140.1075  158.7005 C   0  0  0  0  0  0  0  0  0  0  0  0
  151.1250  140.3205  157.2574 C   0  0  1  0  0  0  0  0  0  0  0  0
  150.0226  139.4399  156.8546 N   0  0  0  0  0  0  0  0  0  0  0  0
  149.5308  139.5415  155.4845 C   0  0  0  0  0  0  0  0  0  0  0  0
  150.0436  138.1556  157.2906 C   0  0  0  0  0  0  0  0  0  0  0  0
  149.7634  137.8689  158.5902 N   0  0  0  0  0  0  0  0  0  0  0  0
  149.7983  136.6049  159.0222 C   0  0  0  0  0  0  0  0  0  0  0  0
  150.0849  135.4963  158.3369 N   0  0  0  0  0  0  0  0  0  0  0  0
  150.3698  135.7795  157.0333 C   0  0  0  0  0  0  0  0  0  0  0  0
  150.3793  137.0706  156.4351 C   0  0  0  0  0  0  0  0  0  0  0  0
  150.7192  136.9698  155.0918 N   0  0  0  0  0  0  0  0  0  0  0  0
  150.8973  135.6902  154.9054 C   0  0  0  0  0  0  0  0  0  0  0  0
  150.6987  134.9007  156.0160 N   0  0  0  0  0  0  0  0  0  0  0  0
  150.8192  133.4522  156.0878 C   0  0  0  0  0  0  0  0  0  0  0  0
  149.7229  132.7031  155.2851 C   0  0  2  0  0  0  0  0  0  0  0  0
  150.0499  131.3229  155.2906 O   0  0  0  0  0  0  0  0  0  0  0  0
  149.6092  133.1510  153.8313 C   0  0  0  0  0  0  0  0  0  0  0  0
  148.1627  132.8287  153.4898 C   0  0  0  0  0  0  0  0  0  0  0  0
  147.4763  133.1968  154.6736 O   0  0  0  0  0  0  0  0  0  0  0  0
  148.2650  132.8408  155.8075 C   0  0  2  0  0  0  0  0  0  0  0  0
  148.0183  133.9078  156.8855 C   0  0  0  0  0  0  0  0  0  0  0  0
  150.7002  141.7600  157.6656 C   0  0  0  0  0  0  0  0  0  0  0  0
  149.2685  141.9508  158.1992 C   0  0  0  0  0  0  0  0  0  0  0  0
  150.9461  142.8612  156.6334 C   0  0  0  0  0  0  0  0  0  0  0  0
  154.3561  143.2085  161.4123 H   0  0  0  0  0  0  0  0  0  0  0  0
  154.2526  142.0963  160.0598 H   0  0  0  0  0  0  0  0  0  0  0  0
  153.5077  141.6768  161.6036 H   0  0  0  0  0  0  0  0  0  0  0  0
  151.9472  143.6493  161.3496 H   0  0  0  0  0  0  0  0  0  0  0  0
  152.5849  143.9689  159.7568 H   0  0  0  0  0  0  0  0  0  0  0  0
  152.7808  141.9324  158.3702 H   0  0  0  0  0  0  0  0  0  0  0  0
  152.5179  139.5231  158.7900 H   0  0  0  0  0  0  0  0  0  0  0  0
  150.8256  139.7531  159.3805 H   0  0  0  0  0  0  0  0  0  0  0  0
  151.9603  140.3247  156.5542 H   0  0  0  0  0  0  0  0  0  0  0  0
  149.7427  138.6381  154.9101 H   0  0  0  0  0  0  0  0  0  0  0  0
  149.9923  140.3762  154.9589 H   0  0  0  0  0  0  0  0  0  0  0  0
  148.4523  139.7003  155.4845 H   0  0  0  0  0  0  0  0  0  0  0  0
  149.5634  136.4615  160.0666 H   0  0  0  0  0  0  0  0  0  0  0  0
  151.1722  135.2824  153.9434 H   0  0  0  0  0  0  0  0  0  0  0  0
  151.8106  133.1757  155.7262 H   0  0  0  0  0  0  0  0  0  0  0  0
  150.7847  133.1710  157.1403 H   0  0  0  0  0  0  0  0  0  0  0  0
  150.9910  131.2391  155.3067 H   0  0  0  0  0  0  0  0  0  0  0  0
  149.7526  134.2296  153.7590 H   0  0  0  0  0  0  0  0  0  0  0  0
  150.3274  132.6737  153.1631 H   0  0  0  0  0  0  0  0  0  0  0  0
  147.7987  133.3825  152.6244 H   0  0  0  0  0  0  0  0  0  0  0  0
  148.0297  131.7623  153.3015 H   0  0  0  0  0  0  0  0  0  0  0  0
  147.9008  131.8827  156.1830 H   0  0  0  0  0  0  0  0  0  0  0  0
  148.5806  133.6940  157.7946 H   0  0  0  0  0  0  0  0  0  0  0  0
  146.9631  133.9428  157.1568 H   0  0  0  0  0  0  0  0  0  0  0  0
  148.2978  134.9018  156.5351 H   0  0  0  0  0  0  0  0  0  0  0  0
  148.5289  141.8978  157.4003 H   0  0  0  0  0  0  0  0  0  0  0  0
  149.1501  142.9214  158.6817 H   0  0  0  0  0  0  0  0  0  0  0  0
  148.9991  141.1937  158.9358 H   0  0  0  0  0  0  0  0  0  0  0  0
  150.1909  142.8589  155.8475 H   0  0  0  0  0  0  0  0  0  0  0  0
  151.9165  142.7470  156.1495 H   0  0  0  0  0  0  0  0  0  0  0  0
  150.9318  143.8479  157.0974 H   0  0  0  0  0  0  0  0  0  0  0  0
  1  2  1  0  0  0  0
  1 29  1  0  0  0  0
  1 30  1  0  0  0  0
  1 31  1  0  0  0  0
  2  3  1  0  0  0  0
  2 32  1  0  0  0  0
  2 33  1  0  0  0  0
  3  4  1  0  0  0  0
  4 26  1  0  0  0  0
  4  5  1  0  0  0  0
  4 34  1  0  0  0  0
  5  6  1  0  0  0  0
  5 35  1  0  0  0  0
  5 36  1  0  0  0  0
  6  7  1  0  0  0  0
  6 26  1  0  0  0  0
  6 37  1  0  0  0  0
  7  8  1  0  0  0  0
  7  9  1  0  0  0  0
  8 38  1  0  0  0  0
  8 39  1  0  0  0  0
  8 40  1  0  0  0  0
  9 14  1  0  0  0  0
  9 10  2  0  0  0  0
 10 11  1  0  0  0  0
 11 12  2  0  0  0  0
 11 41  1  0  0  0  0
 12 13  1  0  0  0  0
 13 17  1  0  0  0  0
 13 14  2  0  0  0  0
 14 15  1  0  0  0  0
 15 16  2  0  0  0  0
 16 17  1  0  0  0  0
 16 42  1  0  0  0  0
 17 18  1  0  0  0  0
 18 19  1  0  0  0  0
 18 43  1  0  0  0  0
 18 44  1  0  0  0  0
 19 24  1  0  0  0  0
 19 20  1  0  0  0  0
 19 21  1  0  0  0  0
 20 45  1  0  0  0  0
 21 22  1  0  0  0  0
 21 46  1  0  0  0  0
 21 47  1  0  0  0  0
 22 23  1  0  0  0  0
 22 48  1  0  0  0  0
 22 49  1  0  0  0  0
 23 24  1  0  0  0  0
 24 25  1  0  0  0  0
 24 50  1  0  0  0  0
 25 51  1  0  0  0  0
 25 52  1  0  0  0  0
 25 53  1  0  0  0  0
 26 27  1  0  0  0  0
 26 28  1  0  0  0  0
 27 54  1  0  0  0  0
 27 55  1  0  0  0  0
 27 56  1  0  0  0  0
 28 57  1  0  0  0  0
 28 58  1  0  0  0  0
 28 59  1  0  0  0  0
M  END
> <s_m_source_file>
AV-unprocessed.smi

> <i_m_source_file_index>
234

> <i_lp_mmshare_version>
43012

> <i_f3d_flags>
0

> <s_epik_input>
W0NIM11bQ0gyXU9bQ0BASF0oQzEoW0NIM10pW0NIM10pW0NIMl1bQ0BIXTFOKFtDSDNdKWMobltjSF1uMiljKGMyMyluW2NIXW4zW0NIMl1bQ0BAXTQoW09IXSlbQ0gyXVtDSDJdT1tDQEhdNFtDSDNd

> <s_epik_cmdline>
J2VwaWtfcHl0aG9uJywgJy1waCcsICc3LjAnLCAnLXRuJywgJzgnLCAnLW1hJywgJzIwMCcsICctbWV0YWxfYmluZGluZycsICctaW1hZScsICc8aW5maWxlLm1hZT4nLCAnLW9tYWUnLCAnPG91dGZpbGUubWFlPic=

> <r_lp_tautomer_probability>
1

> <r_epik_Ionization_Penalty>
0.00349132

> <r_epik_Ionization_Penalty_Charging>
0

> <r_epik_Ionization_Penalty_Neutral>
0.00349132

> <r_epik_State_Penalty>
0.00242418

> <r_epik_Charging_Adjusted_Penalty>
0.00242418

> <i_epik_Tot_Q>
0

> <i_epik_Tot_abs_Q>
0

> <r_epik_Metal_State_Penalty>
-0

> <b_epik_Metal_Only>
0

> <s_lp_Force_Field>
OPLS_2005

> <r_lp_Energy>
48.9285

> <b_lp_Chiralities_Consistent>
1

> <s_lp_Variant>
AV-unprocessed.smi:234-14

> <Gold.Version>
5.8.1

> <Gold.Id.Protein>
6NUR|6NUR_protein|mol2

> <Gold.PLP.Fitness>
40.2429

> <Gold.PLP.PLP>
-37.6459

> <Gold.PLP.part.hbond>
-2.0000

> <Gold.PLP.part.metal>
0.0000

> <Gold.PLP.part.buried>
-5.9687

> <Gold.PLP.part.nonpolar>
-29.6205

> <Gold.PLP.part.repulsive>
0.2190

> <Gold.PLP.ligand.clash>
0.0000

> <Gold.PLP.ligand.torsion>
1.8293

> <Gold.PLP.Chemscore.Hbond>
0.9600

> <Gold.PLP.Chemscore.CHOScore>
0.7842

> <Gold.PLP.Chemscore.Metal>
0.0000

> <Gold.Chemscore.Hbonds>
donor molecule, donor type, donor heavy atom, donor atom, acceptor molecule, acceptor atom, score
      P1  H  6896  6907       L1    12  0.72
      L1  C    16    42       P1  7949  0.98

> <Gold.PLP.Chemscore.Internal.Correction>
1.0231

> <Gold.Rescore>
     Score         DG    S(hbond)    S(metal)    S(lipo)     H(rot)  DE(clash)    DE(int)     intcor
      5.04     -12.01       0.61        0.00      95.83       2.62       0.76       6.22       ----

> <Gold.Chemscore.Fitness>
5.0361

> <Gold.Chemscore.DG>
-12.0145

> <Gold.Chemscore.ZeroCoef>
-5.4800

> <Gold.Chemscore.Hbond>
0.6092

> <Gold.Chemscore.Metal>
0.0000

> <Gold.Chemscore.Lipo>
95.8282

> <Gold.Chemscore.Internal_Hbond>
0.0000

> <Gold.Chemscore.DEClash>
0.7620

> <Gold.Chemscore.DEInternal>
6.2164

> <Gold.Chemscore.Rot>
2.6219

> <Gold.Chemscore.Internal.Correction>
   9.000000E+99

> <Gold.Chemscore.Hbonds>
donor molecule, donor type, donor heavy atom, donor atom, acceptor molecule, acceptor atom, score
      P1  H  6896  6907       L1    12  0.50

> <Gold.Chemscore.Hbond.Weighted>
-2.0347

> <Gold.Chemscore.Metal.Weighted>
-0.0000

> <Gold.Chemscore.Lipo.Weighted>
-11.2119

> <Gold.Chemscore.Internal_Hbond.Weighted>
0.0000

> <Gold.Chemscore.DEClash.Weighted>
0.7620

> <Gold.Chemscore.DEInternal.Weighted>
6.2164

> <Gold.Chemscore.Rot.Weighted>
6.7121

> <Gold.Chemscore.Internal.Correction.Weighted>
   9.000000E+99

> <Gold.Protein.RotatedTorsions>
[ 6907 6896 6895 6894 ] final  -89.05 input  -60.11 | X-H torsion
[ 7974 7965 7964 7962 ] final -119.73 input  175.53 | X-H torsion
[ 8008 7997 7996 7995 ] final  -64.17 input   59.86 | X-H torsion
[ 10167 10162 10161 10158 ] final  124.78 input  -65.29 | X-H torsion
[ 10718 10713 10712 10709 ] final  -50.36 input   66.30 | X-H torsion
[ 10763 10752 10751 10750 ] final -172.70 input  -60.55 | X-H torsion
[ 11005 11000 10999 10996 ] final -157.59 input  -57.11 | X-H torsion

> <Gold.Protein.ActiveResidues>
 VAL166  LYS551  ARG553  GLY616  TRP617  ASP618  TYR619  PRO620  LYS621  CYS622 
 ASP623  PHE694  ASN695  SER759  ASP760  ASP761  ALA762  ILE779  LEU786  VAL792 
 PHE793  MET794  SER795  GLU796  ALA797  LYS798  CYS799  TRP800  GLU811  SER814 

> <Gold.Protein.RotatedAtoms>
  150.6871  134.2647  159.4563 H   0  0  0  0  0  0  0  0  0  0  0  0  # atno 6907 bound_to 6896
  152.0574  134.9613  160.0584 H   0  0  0  0  0  0  0  0  0  0  0  0  # atno 6908 bound_to 6896
  152.1053  133.4237  159.4643 H   0  0  0  0  0  0  0  0  0  0  0  0  # atno 6909 bound_to 6896
  145.0593  140.8277  143.4162 H   0  0  0  0  0  0  0  0  0  0  0  0  # atno 7974 bound_to 7965
  154.4596  140.0959  156.6856 H   0  0  0  0  0  0  0  0  0  0  0  0  # atno 8008 bound_to 7997
  155.5033  140.3474  155.4356 H   0  0  0  0  0  0  0  0  0  0  0  0  # atno 8009 bound_to 7997
  156.0845  140.1381  156.9659 H   0  0  0  0  0  0  0  0  0  0  0  0  # atno 8010 bound_to 7997
  139.5722  144.6945  151.3748 H   0  0  0  0  0  0  0  0  0  0  0  0  # atno 10167 bound_to 10162
  156.1808  130.4150  149.9510 H   0  0  0  0  0  0  0  0  0  0  0  0  # atno 10718 bound_to 10713
  154.6163  135.2870  155.0376 H   0  0  0  0  0  0  0  0  0  0  0  0  # atno 10763 bound_to 10752
  154.1588  135.6491  153.4985 H   0  0  0  0  0  0  0  0  0  0  0  0  # atno 10764 bound_to 10752
  153.0216  135.5373  154.6935 H   0  0  0  0  0  0  0  0  0  0  0  0  # atno 10765 bound_to 10752
  140.6629  134.4330  157.5234 H   0  0  0  0  0  0  0  0  0  0  0  0  # atno 11005 bound_to 11000
  145.1429  139.2561  143.5480 LP  0  0  0  0  0  0  0  0  0  0  0  0  # atno 17320 bound_to 7965
  146.3523  140.1111  142.8604 LP  0  0  0  0  0  0  0  0  0  0  0  0  # atno 17321 bound_to 7965
  140.7006  143.7640  150.7397 LP  0  0  0  0  0  0  0  0  0  0  0  0  # atno 17342 bound_to 10162
  140.1150  143.4664  152.2347 LP  0  0  0  0  0  0  0  0  0  0  0  0  # atno 17343 bound_to 10162
  156.7281  130.9033  151.3623 LP  0  0  0  0  0  0  0  0  0  0  0  0  # atno 17370 bound_to 10713
  157.6866  130.9192  150.0404 LP  0  0  0  0  0  0  0  0  0  0  0  0  # atno 17371 bound_to 10713
  139.9007  134.8563  156.1909 LP  0  0  0  0  0  0  0  0  0  0  0  0  # atno 17394 bound_to 11000
  141.0451  133.6917  156.1669 LP  0  0  0  0  0  0  0  0  0  0  0  0  # atno 17395 bound_to 11000

$$$$
