AV-unprocessed.smi:2710|AV-procd|sdf|10471|dock4
  -GOLD-   2272014513D 1   1.00000     0.00000
 Structure written by MMmdl.
 53 54  0  0  0  0  0  0  0  0  2 V2000
  143.8446  135.5796  151.8098 C   0  0  0  0  0  0  0  0  0  0  0  0
  145.2286  135.8658  151.2041 C   0  0  0  0  0  0  0  0  0  0  0  0
  146.2341  136.3247  152.2066 N   0  3  1  0  0  0  0  0  0  0  0  0
  146.2428  137.8100  152.3426 C   0  0  0  0  0  0  0  0  0  0  0  0
  147.3570  138.3005  153.2780 C   0  0  0  0  0  0  0  0  0  0  0  0
  147.2265  137.6619  154.6633 C   0  0  2  0  0  0  0  0  0  0  0  0
  148.3255  138.1017  155.5184 N   0  0  0  0  0  0  0  0  0  0  0  0
  148.4966  139.3504  155.9756 C   0  0  0  0  0  0  0  0  0  0  0  0
  147.7153  140.2703  155.7375 O   0  0  0  0  0  0  0  0  0  0  0  0
  149.6084  139.4441  156.7243 N   0  0  0  0  0  0  0  0  0  0  0  0
  150.1506  140.5863  157.3735 C   0  0  0  0  0  0  0  0  0  0  0  0
  149.8316  141.9324  157.0732 C   0  0  0  0  0  0  0  0  0  0  0  0
  150.4088  142.9605  157.7306 N   0  0  0  0  0  0  0  0  0  0  0  0
  151.2794  142.6706  158.7062 C   0  0  0  0  0  0  0  0  0  0  0  0
  152.0383  143.8479  159.3433 C   0  0  0  0  0  0  0  0  0  0  0  0
  151.0622  144.8412  160.0168 C   0  0  0  0  0  0  0  0  0  0  0  0
  152.8041  144.6606  158.2726 C   0  0  0  0  0  0  0  0  0  0  0  0
  153.0309  143.3112  160.3908 C   0  0  0  0  0  0  0  0  0  0  0  0
  151.6841  141.4360  159.0324 N   0  0  0  0  0  0  0  0  0  0  0  0
  151.1156  140.3987  158.3831 C   0  0  0  0  0  0  0  0  0  0  0  0
  147.2223  136.1341  154.5024 C   0  0  0  0  0  0  0  0  0  0  0  0
  146.1114  135.6537  153.5426 C   0  0  2  0  0  0  0  0  0  0  0  0
  146.1633  134.1138  153.4616 C   0  0  0  0  0  0  0  0  0  0  0  0
  143.1121  135.4120  151.0197 H   0  0  0  0  0  0  0  0  0  0  0  0
  143.4932  136.4199  152.4091 H   0  0  0  0  0  0  0  0  0  0  0  0
  143.8397  134.6874  152.4350 H   0  0  0  0  0  0  0  0  0  0  0  0
  145.6027  134.9876  150.6758 H   0  0  0  0  0  0  0  0  0  0  0  0
  145.0658  136.6339  150.4518 H   0  0  0  0  0  0  0  0  0  0  0  0
  146.3950  138.2854  151.3753 H   0  0  0  0  0  0  0  0  0  0  0  0
  145.2718  138.1468  152.7095 H   0  0  0  0  0  0  0  0  0  0  0  0
  148.3291  138.0612  152.8438 H   0  0  0  0  0  0  0  0  0  0  0  0
  147.3138  139.3873  153.3616 H   0  0  0  0  0  0  0  0  0  0  0  0
  146.2815  137.9814  155.1075 H   0  0  0  0  0  0  0  0  0  0  0  0
  149.0149  137.4078  155.7685 H   0  0  0  0  0  0  0  0  0  0  0  0
  150.1169  138.5845  156.8720 H   0  0  0  0  0  0  0  0  0  0  0  0
  149.1369  142.2136  156.2979 H   0  0  0  0  0  0  0  0  0  0  0  0
  151.5919  145.7015  160.4274 H   0  0  0  0  0  0  0  0  0  0  0  0
  150.5187  144.3834  160.8441 H   0  0  0  0  0  0  0  0  0  0  0  0
  150.3261  145.2185  159.3058 H   0  0  0  0  0  0  0  0  0  0  0  0
  152.1304  145.0354  157.5010 H   0  0  0  0  0  0  0  0  0  0  0  0
  153.5732  144.0650  157.7794 H   0  0  0  0  0  0  0  0  0  0  0  0
  153.3086  145.5213  158.7129 H   0  0  0  0  0  0  0  0  0  0  0  0
  153.5877  144.1208  160.8637 H   0  0  0  0  0  0  0  0  0  0  0  0
  153.7558  142.6335  159.9382 H   0  0  0  0  0  0  0  0  0  0  0  0
  152.5155  142.7616  161.1794 H   0  0  0  0  0  0  0  0  0  0  0  0
  151.4407  139.4095  158.6708 H   0  0  0  0  0  0  0  0  0  0  0  0
  148.1937  135.8007  154.1332 H   0  0  0  0  0  0  0  0  0  0  0  0
  147.0891  135.6651  155.4783 H   0  0  0  0  0  0  0  0  0  0  0  0
  145.1478  135.9346  153.9710 H   0  0  0  0  0  0  0  0  0  0  0  0
  146.2331  133.6745  154.4573 H   0  0  0  0  0  0  0  0  0  0  0  0
  147.0281  133.7723  152.8917 H   0  0  0  0  0  0  0  0  0  0  0  0
  145.2660  133.6906  153.0117 H   0  0  0  0  0  0  0  0  0  0  0  0
  147.1381  136.0611  151.8413 H   0  0  0  0  0  0  0  0  0  0  0  0
  1  2  1  0  0  0  0
  1 24  1  0  0  0  0
  1 25  1  0  0  0  0
  1 26  1  0  0  0  0
  2  3  1  0  0  0  0
  2 27  1  0  0  0  0
  2 28  1  0  0  0  0
  3 22  1  0  0  0  0
  3  4  1  0  0  0  0
  3 53  1  0  0  0  0
  4  5  1  0  0  0  0
  4 29  1  0  0  0  0
  4 30  1  0  0  0  0
  5  6  1  0  0  0  0
  5 31  1  0  0  0  0
  5 32  1  0  0  0  0
  6  7  1  0  0  0  0
  6 21  1  0  0  0  0
  6 33  1  0  0  0  0
  7  8  1  0  0  0  0
  7 34  1  0  0  0  0
  8  9  2  0  0  0  0
  8 10  1  0  0  0  0
 10 11  1  0  0  0  0
 10 35  1  0  0  0  0
 11 20  1  0  0  0  0
 11 12  2  0  0  0  0
 12 13  1  0  0  0  0
 12 36  1  0  0  0  0
 13 14  2  0  0  0  0
 14 15  1  0  0  0  0
 14 19  1  0  0  0  0
 15 16  1  0  0  0  0
 15 17  1  0  0  0  0
 15 18  1  0  0  0  0
 16 37  1  0  0  0  0
 16 38  1  0  0  0  0
 16 39  1  0  0  0  0
 17 40  1  0  0  0  0
 17 41  1  0  0  0  0
 17 42  1  0  0  0  0
 18 43  1  0  0  0  0
 18 44  1  0  0  0  0
 18 45  1  0  0  0  0
 19 20  2  0  0  0  0
 20 46  1  0  0  0  0
 21 22  1  0  0  0  0
 21 47  1  0  0  0  0
 21 48  1  0  0  0  0
 22 23  1  0  0  0  0
 22 49  1  0  0  0  0
 23 50  1  0  0  0  0
 23 51  1  0  0  0  0
 23 52  1  0  0  0  0
M  CHG  1   3   1
M  END
> <s_m_source_file>
AV-unprocessed.smi

> <i_m_source_file_index>
2710

> <i_lp_mmshare_version>
43012

> <i_f3d_flags>
0

> <s_epik_input>
W0NIM11bQ0gyXU4xW0NIMl1bQ0gyXVtDQEhdKFtDSDJdW0NASF0xW0NIM10pW05IXUMoPU8pW05IXWMyW2NIXW5jKEMoW0NIM10pKFtDSDNdKVtDSDNdKW5bY0hdMg==

> <s_epik_cmdline>
J2VwaWtfcHl0aG9uJywgJy1waCcsICc3LjAnLCAnLXRuJywgJzgnLCAnLW1hJywgJzIwMCcsICctbWV0YWxfYmluZGluZycsICctaW1hZScsICc8aW5maWxlLm1hZT4nLCAnLW9tYWUnLCAnPG91dGZpbGUubWFlPic=

> <r_lp_tautomer_probability>
1

> <r_epik_Ionization_Penalty>
0.00396003

> <r_epik_Ionization_Penalty_Charging>
0.0039379

> <r_epik_Ionization_Penalty_Neutral>
2.21316e-05

> <r_epik_State_Penalty>
0.00281651

> <r_epik_Charging_Adjusted_Penalty>
0.00675441

> <i_epik_Tot_Q>
1

> <i_epik_Tot_abs_Q>
1

> <r_epik_Metal_State_Penalty>
-0

> <b_epik_Metal_Only>
0

> <s_lp_Force_Field>
OPLS_2005

> <r_lp_Energy>
20.1014

> <b_lp_Chiralities_Consistent>
1

> <s_lp_Variant>
AV-unprocessed.smi:2710-8

> <Gold.Version>
5.8.1

> <Gold.Id.Protein>
6NUR|6NUR_protein|mol2

> <Gold.PLP.Fitness>
40.8297

> <Gold.PLP.PLP>
-33.3516

> <Gold.PLP.part.hbond>
-1.0000

> <Gold.PLP.part.metal>
0.0000

> <Gold.PLP.part.buried>
-1.6071

> <Gold.PLP.part.nonpolar>
-30.0805

> <Gold.PLP.part.repulsive>
0.4328

> <Gold.PLP.ligand.clash>
0.0000

> <Gold.PLP.ligand.torsion>
0.5312

> <Gold.PLP.Chemscore.Hbond>
2.0000

> <Gold.PLP.Chemscore.CHOScore>
0.7913

> <Gold.PLP.Chemscore.Metal>
0.0000

> <Gold.Chemscore.Hbonds>
donor molecule, donor type, donor heavy atom, donor atom, acceptor molecule, acceptor atom, score
      L1  H     3    53       P1  7948  2.00
      L1  C    12    36       P1  8028  0.66

> <Gold.PLP.Chemscore.Internal.Correction>
0.1667

> <Gold.Rescore>
     Score         DG    S(hbond)    S(metal)    S(lipo)     H(rot)  DE(clash)    DE(int)     intcor
     15.00     -16.44       0.97        0.00      94.43       1.31       0.04       1.39       ----

> <Gold.Chemscore.Fitness>
15.0048

> <Gold.Chemscore.DG>
-16.4353

> <Gold.Chemscore.ZeroCoef>
-5.4800

> <Gold.Chemscore.Hbond>
0.9747

> <Gold.Chemscore.Metal>
0.0000

> <Gold.Chemscore.Lipo>
94.4320

> <Gold.Chemscore.Internal_Hbond>
0.0000

> <Gold.Chemscore.DEClash>
0.0395

> <Gold.Chemscore.DEInternal>
1.3910

> <Gold.Chemscore.Rot>
1.3081

> <Gold.Chemscore.Internal.Correction>
   9.000000E+99

> <Gold.Chemscore.Hbonds>
donor molecule, donor type, donor heavy atom, donor atom, acceptor molecule, acceptor atom, score
      L1  H     3    53       P1  7948  0.95

> <Gold.Chemscore.Hbond.Weighted>
-3.2556

> <Gold.Chemscore.Metal.Weighted>
-0.0000

> <Gold.Chemscore.Lipo.Weighted>
-11.0485

> <Gold.Chemscore.Internal_Hbond.Weighted>
0.0000

> <Gold.Chemscore.DEClash.Weighted>
0.0395

> <Gold.Chemscore.DEInternal.Weighted>
1.3910

> <Gold.Chemscore.Rot.Weighted>
3.3488

> <Gold.Chemscore.Internal.Correction.Weighted>
   9.000000E+99

> <Gold.Protein.RotatedTorsions>
[ 6907 6896 6895 6894 ] final   92.50 input  -60.11 | X-H torsion
[ 7974 7965 7964 7962 ] final -112.35 input  175.53 | X-H torsion
[ 8008 7997 7996 7995 ] final  -43.61 input   59.86 | X-H torsion
[ 10167 10162 10161 10158 ] final -105.30 input  -65.29 | X-H torsion
[ 10718 10713 10712 10709 ] final  164.31 input   66.30 | X-H torsion
[ 10763 10752 10751 10750 ] final   78.02 input  -60.55 | X-H torsion
[ 11005 11000 10999 10996 ] final  161.63 input  -57.11 | X-H torsion

> <Gold.Protein.ActiveResidues>
 VAL166  LYS551  ARG553  GLY616  TRP617  ASP618  TYR619  PRO620  LYS621  CYS622 
 ASP623  PHE694  ASN695  SER759  ASP760  ASP761  ALA762  ILE779  LEU786  VAL792 
 PHE793  MET794  SER795  GLU796  ALA797  LYS798  CYS799  TRP800  GLU811  SER814 

> <Gold.Protein.RotatedAtoms>
  152.5452  134.1493  159.8511 H   0  0  0  0  0  0  0  0  0  0  0  0  # atno 6907 bound_to 6896
  151.1521  133.4893  159.2602 H   0  0  0  0  0  0  0  0  0  0  0  0  # atno 6908 bound_to 6896
  151.1461  135.0214  159.8702 H   0  0  0  0  0  0  0  0  0  0  0  0  # atno 6909 bound_to 6896
  145.1451  140.8799  143.3679 H   0  0  0  0  0  0  0  0  0  0  0  0  # atno 7974 bound_to 7965
  154.3997  140.1443  156.3547 H   0  0  0  0  0  0  0  0  0  0  0  0  # atno 8008 bound_to 7997
  155.8236  140.3468  155.5508 H   0  0  0  0  0  0  0  0  0  0  0  0  # atno 8009 bound_to 7997
  155.8262  140.0905  157.1810 H   0  0  0  0  0  0  0  0  0  0  0  0  # atno 8010 bound_to 7997
  140.2000  143.3826  152.1137 H   0  0  0  0  0  0  0  0  0  0  0  0  # atno 10167 bound_to 10162
  157.0962  131.0431  151.2517 H   0  0  0  0  0  0  0  0  0  0  0  0  # atno 10718 bound_to 10713
  153.0842  135.4892  154.8564 H   0  0  0  0  0  0  0  0  0  0  0  0  # atno 10763 bound_to 10752
  154.7190  135.3035  154.9081 H   0  0  0  0  0  0  0  0  0  0  0  0  # atno 10764 bound_to 10752
  153.9751  135.6796  153.4801 H   0  0  0  0  0  0  0  0  0  0  0  0  # atno 10765 bound_to 10752
  140.2177  134.8220  157.3188 H   0  0  0  0  0  0  0  0  0  0  0  0  # atno 11005 bound_to 11000
  145.0490  139.3197  143.5938 LP  0  0  0  0  0  0  0  0  0  0  0  0  # atno 17320 bound_to 7965
  146.3501  139.9892  142.8687 LP  0  0  0  0  0  0  0  0  0  0  0  0  # atno 17321 bound_to 7965
  139.5221  144.7054  151.5369 LP  0  0  0  0  0  0  0  0  0  0  0  0  # atno 17342 bound_to 10162
  140.6397  143.8914  150.6680 LP  0  0  0  0  0  0  0  0  0  0  0  0  # atno 17343 bound_to 10162
  157.4679  130.7692  149.7296 LP  0  0  0  0  0  0  0  0  0  0  0  0  # atno 17370 bound_to 10713
  155.9885  130.3958  150.3115 LP  0  0  0  0  0  0  0  0  0  0  0  0  # atno 17371 bound_to 10713
  140.1883  134.4404  155.7731 LP  0  0  0  0  0  0  0  0  0  0  0  0  # atno 17394 bound_to 11000
  141.2224  133.7015  156.7984 LP  0  0  0  0  0  0  0  0  0  0  0  0  # atno 17395 bound_to 11000

$$$$
