AV-unprocessed.smi:540|AV-procd|sdf|2870|dock1
  -GOLD-   2262023363D 1   1.00000     0.00000
 Structure written by MMmdl.
 48 50  0  0  0  0  0  0  0  0  2 V2000
  146.7428  140.0185  153.6037 C   0  0  0  0  0  0  0  0  0  0  0  0
  146.8316  141.5208  153.8807 C   0  0  0  0  0  0  0  0  0  0  0  0
  148.1953  141.8719  154.0283 O   0  0  0  0  0  0  0  0  0  0  0  0
  148.7797  141.3453  155.2077 C   0  0  0  0  0  0  0  0  0  0  0  0
  150.1749  141.9532  155.4075 C   0  0  0  0  0  0  0  0  0  0  0  0
  150.9790  141.1696  156.3453 N   0  0  0  0  0  0  0  0  0  0  0  0
  151.5306  141.5794  157.5208 C   0  0  0  0  0  0  0  0  0  0  0  0
  151.3559  142.8711  158.0227 N   0  0  0  0  0  0  0  0  0  0  0  0
  150.5093  143.1800  159.1733 C   0  0  0  0  0  0  0  0  0  0  0  0
  151.2562  144.0468  160.2026 C   0  0  0  0  0  0  0  0  0  0  0  0
  151.7522  145.3573  159.5668 C   0  0  0  0  0  0  0  0  0  0  0  0
  152.5748  146.1970  160.5538 C   0  0  0  0  0  0  0  0  0  0  0  0
  152.5455  145.0351  158.2885 C   0  0  0  0  0  0  0  0  0  0  0  0
  151.7312  144.1187  157.3576 C   0  0  0  0  0  0  0  0  0  0  0  0
  152.2915  140.6662  158.1264 N   0  0  0  0  0  0  0  0  0  0  0  0
  152.2017  139.5730  157.2798 C   0  0  0  0  0  0  0  0  0  0  0  0
  151.4268  139.8500  156.1964 C   0  0  0  0  0  0  0  0  0  0  0  0
  151.1859  138.8874  155.0953 C   0  0  0  0  0  0  0  0  0  0  0  0
  150.4967  139.1864  154.1226 O   0  0  0  0  0  0  0  0  0  0  0  0
  151.8128  137.6875  155.3093 N   0  5  0  0  0  0  0  0  0  0  0  0
  152.5995  137.3656  156.3936 C   0  0  0  0  0  0  0  0  0  0  0  0
  153.1324  136.2607  156.5049 O   0  0  0  0  0  0  0  0  0  0  0  0
  152.8051  138.2902  157.3831 N   0  0  0  0  0  0  0  0  0  0  0  0
  153.6428  137.9781  158.5449 C   0  0  0  0  0  0  0  0  0  0  0  0
  145.7061  139.7031  153.4860 H   0  0  0  0  0  0  0  0  0  0  0  0
  147.1772  139.4451  154.4231 H   0  0  0  0  0  0  0  0  0  0  0  0
  147.2793  139.7572  152.6912 H   0  0  0  0  0  0  0  0  0  0  0  0
  146.3856  142.0793  153.0565 H   0  0  0  0  0  0  0  0  0  0  0  0
  146.2786  141.7675  154.7879 H   0  0  0  0  0  0  0  0  0  0  0  0
  148.1491  141.5755  156.0677 H   0  0  0  0  0  0  0  0  0  0  0  0
  148.8534  140.2593  155.1383 H   0  0  0  0  0  0  0  0  0  0  0  0
  150.6846  142.0332  154.4529 H   0  0  0  0  0  0  0  0  0  0  0  0
  150.0953  142.9807  155.7535 H   0  0  0  0  0  0  0  0  0  0  0  0
  149.6050  143.6862  158.8330 H   0  0  0  0  0  0  0  0  0  0  0  0
  150.1860  142.2529  159.6477 H   0  0  0  0  0  0  0  0  0  0  0  0
  150.5999  144.2645  161.0456 H   0  0  0  0  0  0  0  0  0  0  0  0
  152.1005  143.4844  160.6042 H   0  0  0  0  0  0  0  0  0  0  0  0
  150.8774  145.9429  159.2801 H   0  0  0  0  0  0  0  0  0  0  0  0
  153.4671  145.6630  160.8818 H   0  0  0  0  0  0  0  0  0  0  0  0
  151.9899  146.4446  161.4401 H   0  0  0  0  0  0  0  0  0  0  0  0
  152.8961  147.1339  160.0983 H   0  0  0  0  0  0  0  0  0  0  0  0
  152.8021  145.9568  157.7653 H   0  0  0  0  0  0  0  0  0  0  0  0
  153.4889  144.5541  158.5484 H   0  0  0  0  0  0  0  0  0  0  0  0
  152.2801  143.9113  156.4398 H   0  0  0  0  0  0  0  0  0  0  0  0
  150.8223  144.6326  157.0420 H   0  0  0  0  0  0  0  0  0  0  0  0
  153.2692  137.0935  159.0624 H   0  0  0  0  0  0  0  0  0  0  0  0
  153.6740  138.7890  159.2720 H   0  0  0  0  0  0  0  0  0  0  0  0
  154.6684  137.7808  158.2307 H   0  0  0  0  0  0  0  0  0  0  0  0
  1  2  1  0  0  0  0
  1 25  1  0  0  0  0
  1 26  1  0  0  0  0
  1 27  1  0  0  0  0
  2  3  1  0  0  0  0
  2 28  1  0  0  0  0
  2 29  1  0  0  0  0
  3  4  1  0  0  0  0
  4  5  1  0  0  0  0
  4 30  1  0  0  0  0
  4 31  1  0  0  0  0
  5  6  1  0  0  0  0
  5 32  1  0  0  0  0
  5 33  1  0  0  0  0
  6 17  1  0  0  0  0
  6  7  1  0  0  0  0
  7  8  1  0  0  0  0
  7 15  2  0  0  0  0
  8 14  1  0  0  0  0
  8  9  1  0  0  0  0
  9 10  1  0  0  0  0
  9 34  1  0  0  0  0
  9 35  1  0  0  0  0
 10 11  1  0  0  0  0
 10 36  1  0  0  0  0
 10 37  1  0  0  0  0
 11 12  1  0  0  0  0
 11 13  1  0  0  0  0
 11 38  1  0  0  0  0
 12 39  1  0  0  0  0
 12 40  1  0  0  0  0
 12 41  1  0  0  0  0
 13 14  1  0  0  0  0
 13 42  1  0  0  0  0
 13 43  1  0  0  0  0
 14 44  1  0  0  0  0
 14 45  1  0  0  0  0
 15 16  1  0  0  0  0
 16 23  1  0  0  0  0
 16 17  2  0  0  0  0
 17 18  1  0  0  0  0
 18 19  2  0  0  0  0
 18 20  1  0  0  0  0
 20 21  1  0  0  0  0
 21 22  2  0  0  0  0
 21 23  1  0  0  0  0
 23 24  1  0  0  0  0
 24 46  1  0  0  0  0
 24 47  1  0  0  0  0
 24 48  1  0  0  0  0
M  CHG  1  20  -1
M  END
> <s_m_source_file>
AV-unprocessed.smi

> <i_m_source_file_index>
540

> <i_lp_mmshare_version>
43012

> <i_f3d_flags>
0

> <s_epik_input>
W0NIM11uMWMoPU8pW25IXWMoPU8pYyhjMTIpbihbQ0gyXVtDSDJdT1tDSDJdW0NIM10pYyhuMilOM1tDSDJdW0NIMl1bQ0hdKFtDSDNdKVtDSDJdW0NIMl0z

> <s_epik_cmdline>
J2VwaWtfcHl0aG9uJywgJy1waCcsICc3LjAnLCAnLXRuJywgJzgnLCAnLW1hJywgJzIwMCcsICctbWV0YWxfYmluZGluZycsICctaW1hZScsICc8aW5maWxlLm1hZT4nLCAnLW9tYWUnLCAnPG91dGZpbGUubWFlPic=

> <r_lp_tautomer_probability>
1

> <r_epik_Ionization_Penalty>
5.11981

> <r_epik_Ionization_Penalty_Charging>
0.0737583

> <r_epik_Ionization_Penalty_Neutral>
5.04605

> <r_epik_State_Penalty>
5.03218

> <r_epik_Charging_Adjusted_Penalty>
5.10594

> <i_epik_Tot_Q>
-1

> <i_epik_Tot_abs_Q>
1

> <r_epik_Metal_State_Penalty>
1.14277

> <b_epik_Metal_Only>
1

> <s_lp_Force_Field>
OPLS_2005

> <r_lp_Energy>
41.1943

> <b_lp_Chiralities_Consistent>
1

> <s_lp_Variant>
AV-unprocessed.smi:540-2

> <Gold.Version>
5.8.1

> <Gold.Id.Protein>
6NUR|6NUR_protein|mol2

> <Gold.PLP.Fitness>
45.9907

> <Gold.PLP.PLP>
-40.4145

> <Gold.PLP.part.hbond>
-3.4955

> <Gold.PLP.part.metal>
0.0000

> <Gold.PLP.part.buried>
-0.7370

> <Gold.PLP.part.nonpolar>
-35.4249

> <Gold.PLP.part.repulsive>
0.4203

> <Gold.PLP.ligand.clash>
0.0000

> <Gold.PLP.ligand.torsion>
1.3791

> <Gold.PLP.Chemscore.Hbond>
2.5131

> <Gold.PLP.Chemscore.CHOScore>
0.0000

> <Gold.PLP.Chemscore.Metal>
0.0000

> <Gold.Chemscore.Hbonds>
donor molecule, donor type, donor heavy atom, donor atom, acceptor molecule, acceptor atom, score
      P1  H  7989  7998       L1    19  0.72
      P1  H  8011  8017       L1     3  0.05
      P1  H 10752 10764       L1    22  0.94

> <Gold.PLP.Chemscore.Internal.Correction>
0.7953

> <Gold.Rescore>
     Score         DG    S(hbond)    S(metal)    S(lipo)     H(rot)  DE(clash)    DE(int)     intcor
     16.27     -21.51       2.17        0.00     109.18       1.55       3.97       1.27       ----

> <Gold.Chemscore.Fitness>
16.2714

> <Gold.Chemscore.DG>
-21.5102

> <Gold.Chemscore.ZeroCoef>
-5.4800

> <Gold.Chemscore.Hbond>
2.1655

> <Gold.Chemscore.Metal>
0.0000

> <Gold.Chemscore.Lipo>
109.1829

> <Gold.Chemscore.Internal_Hbond>
0.0000

> <Gold.Chemscore.DEClash>
3.9715

> <Gold.Chemscore.DEInternal>
1.2674

> <Gold.Chemscore.Rot>
1.5534

> <Gold.Chemscore.Internal.Correction>
   9.000000E+99

> <Gold.Chemscore.Hbonds>
donor molecule, donor type, donor heavy atom, donor atom, acceptor molecule, acceptor atom, score
      P1  H  7989  7998       L1    19  0.14
      P1  H  8011  8017       L1     3  0.06
      P1  H 10752 10764       L1    22  0.87

> <Gold.Chemscore.Hbond.Weighted>
-7.2326

> <Gold.Chemscore.Metal.Weighted>
-0.0000

> <Gold.Chemscore.Lipo.Weighted>
-12.7744

> <Gold.Chemscore.Internal_Hbond.Weighted>
0.0000

> <Gold.Chemscore.DEClash.Weighted>
3.9715

> <Gold.Chemscore.DEInternal.Weighted>
1.2674

> <Gold.Chemscore.Rot.Weighted>
3.9768

> <Gold.Chemscore.Internal.Correction.Weighted>
   9.000000E+99

> <Gold.Protein.RotatedTorsions>
[ 6907 6896 6895 6894 ] final   26.23 input  -60.11 | X-H torsion
[ 7974 7965 7964 7962 ] final  -74.82 input  175.53 | X-H torsion
[ 8008 7997 7996 7995 ] final  155.09 input   59.86 | X-H torsion
[ 10167 10162 10161 10158 ] final -119.93 input  -65.29 | X-H torsion
[ 10718 10713 10712 10709 ] final  -90.87 input   66.30 | X-H torsion
[ 10763 10752 10751 10750 ] final   11.86 input  -60.55 | X-H torsion
[ 11005 11000 10999 10996 ] final -125.21 input  -57.11 | X-H torsion

> <Gold.Protein.ActiveResidues>
 VAL166  LYS551  ARG553  GLY616  TRP617  ASP618  TYR619  PRO620  LYS621  CYS622 
 ASP623  PHE694  ASN695  SER759  ASP760  ASP761  ALA762  ILE779  LEU786  VAL792 
 PHE793  MET794  SER795  GLU796  ALA797  LYS798  CYS799  TRP800  GLU811  SER814 

> <Gold.Protein.RotatedAtoms>
  151.9844  135.0012  160.0558 H   0  0  0  0  0  0  0  0  0  0  0  0  # atno 6907 bound_to 6896
  152.1667  133.4612  159.4896 H   0  0  0  0  0  0  0  0  0  0  0  0  # atno 6908 bound_to 6896
  150.6895  134.1922  159.4332 H   0  0  0  0  0  0  0  0  0  0  0  0  # atno 6909 bound_to 6896
  145.6341  140.9329  143.1071 H   0  0  0  0  0  0  0  0  0  0  0  0  # atno 7974 bound_to 7965
  156.2497  140.1949  156.6747 H   0  0  0  0  0  0  0  0  0  0  0  0  # atno 8008 bound_to 7997
  154.6366  140.0589  156.9822 H   0  0  0  0  0  0  0  0  0  0  0  0  # atno 8009 bound_to 7997
  155.1627  140.3261  155.4411 H   0  0  0  0  0  0  0  0  0  0  0  0  # atno 8010 bound_to 7997
  140.0413  143.5151  152.2129 H   0  0  0  0  0  0  0  0  0  0  0  0  # atno 10167 bound_to 10162
  155.9990  130.4926  150.5389 H   0  0  0  0  0  0  0  0  0  0  0  0  # atno 10718 bound_to 10713
  153.1882  135.6838  153.8388 H   0  0  0  0  0  0  0  0  0  0  0  0  # atno 10763 bound_to 10752
  153.7696  135.3198  155.3351 H   0  0  0  0  0  0  0  0  0  0  0  0  # atno 10764 bound_to 10752
  154.8101  135.4723  154.0591 H   0  0  0  0  0  0  0  0  0  0  0  0  # atno 10765 bound_to 10752
  140.9780  134.0713  157.3796 H   0  0  0  0  0  0  0  0  0  0  0  0  # atno 11005 bound_to 11000
  144.7182  139.8121  143.7391 LP  0  0  0  0  0  0  0  0  0  0  0  0  # atno 17320 bound_to 7965
  146.1333  139.4373  143.0155 LP  0  0  0  0  0  0  0  0  0  0  0  0  # atno 17321 bound_to 7965
  139.6012  144.7583  151.3167 LP  0  0  0  0  0  0  0  0  0  0  0  0  # atno 17342 bound_to 10162
  140.7259  143.7005  150.7848 LP  0  0  0  0  0  0  0  0  0  0  0  0  # atno 17343 bound_to 10162
  157.3328  131.0702  151.1848 LP  0  0  0  0  0  0  0  0  0  0  0  0  # atno 17370 bound_to 10713
  157.2723  130.6710  149.6025 LP  0  0  0  0  0  0  0  0  0  0  0  0  # atno 17371 bound_to 10713
  139.8938  135.0132  156.6920 LP  0  0  0  0  0  0  0  0  0  0  0  0  # atno 17394 bound_to 11000
  140.7229  133.9125  155.8159 LP  0  0  0  0  0  0  0  0  0  0  0  0  # atno 17395 bound_to 11000

$$$$
