AV-unprocessed.smi:440|AV-procd|sdf|2581|dock5
  -GOLD-   2262022573D 1   1.00000     0.00000
 Structure written by MMmdl.
 41 42  0  0  0  0  0  0  0  0  1 V2000
  152.0624  138.1748  159.3680 C   0  0  0  0  0  0  0  0  0  0  0  0
  151.9296  139.6036  158.9238 C   0  0  0  0  0  0  0  0  0  0  0  0
  152.6845  140.5299  159.4885 N   0  0  0  0  0  0  0  0  0  0  0  0
  152.3319  141.6828  158.8830 N   0  0  0  0  0  0  0  0  0  0  0  0
  152.9832  142.9209  159.2844 C   0  0  0  0  0  0  0  0  0  0  0  0
  151.9941  143.9990  159.7786 C   0  0  0  0  0  0  0  0  0  0  0  0
  152.1868  145.3082  158.9994 C   0  0  0  0  0  0  0  0  0  0  0  0
  152.0815  144.2468  161.2948 C   0  0  0  0  0  0  0  0  0  0  0  0
  151.3569  141.4791  157.9232 C   0  0  0  0  0  0  0  0  0  0  0  0
  150.7963  142.5911  157.0952 C   0  0  0  0  0  0  0  0  0  0  0  0
  151.0677  140.1404  157.9230 C   0  0  0  0  0  0  0  0  0  0  0  0
  150.0764  139.3918  157.0682 C   0  0  0  0  0  0  0  0  0  0  0  0
  150.0373  140.0037  155.6678 C   0  0  0  0  0  0  0  0  0  0  0  0
  151.0109  139.8962  154.9223 O   0  0  0  0  0  0  0  0  0  0  0  0
  148.9047  140.6363  155.3269 N   0  0  0  0  0  0  0  0  0  0  0  0
  148.6422  141.2503  154.0664 C   0  0  0  0  0  0  0  0  0  0  0  0
  147.4203  142.1362  153.9556 C   0  0  0  0  0  0  0  0  0  0  0  0
  147.4223  140.7811  153.3034 C   0  0  0  0  0  0  0  0  0  0  0  0
  151.0901  137.7547  159.6264 H   0  0  0  0  0  0  0  0  0  0  0  0
  152.7045  138.0814  160.2448 H   0  0  0  0  0  0  0  0  0  0  0  0
  152.4913  137.5596  158.5771 H   0  0  0  0  0  0  0  0  0  0  0  0
  153.7100  142.6958  160.0669 H   0  0  0  0  0  0  0  0  0  0  0  0
  153.5585  143.2959  158.4376 H   0  0  0  0  0  0  0  0  0  0  0  0
  150.9839  143.6473  159.5679 H   0  0  0  0  0  0  0  0  0  0  0  0
  153.1812  145.7242  159.1639 H   0  0  0  0  0  0  0  0  0  0  0  0
  151.4572  146.0591  159.3036 H   0  0  0  0  0  0  0  0  0  0  0  0
  152.0655  145.1490  157.9275 H   0  0  0  0  0  0  0  0  0  0  0  0
  153.0858  144.5549  161.5870 H   0  0  0  0  0  0  0  0  0  0  0  0
  151.8274  143.3528  161.8644 H   0  0  0  0  0  0  0  0  0  0  0  0
  151.3901  145.0311  161.6041 H   0  0  0  0  0  0  0  0  0  0  0  0
  150.1601  142.2070  156.2979 H   0  0  0  0  0  0  0  0  0  0  0  0
  151.5919  143.1717  156.6284 H   0  0  0  0  0  0  0  0  0  0  0  0
  150.1949  143.2645  157.7052 H   0  0  0  0  0  0  0  0  0  0  0  0
  150.3334  138.3348  156.9892 H   0  0  0  0  0  0  0  0  0  0  0  0
  149.0753  139.4233  157.4996 H   0  0  0  0  0  0  0  0  0  0  0  0
  148.1612  140.6684  156.0092 H   0  0  0  0  0  0  0  0  0  0  0  0
  149.5008  141.5396  153.4618 H   0  0  0  0  0  0  0  0  0  0  0  0
  146.8031  142.2661  154.8428 H   0  0  0  0  0  0  0  0  0  0  0  0
  147.4895  143.0061  153.3057 H   0  0  0  0  0  0  0  0  0  0  0  0
  147.4932  140.7458  152.2180 H   0  0  0  0  0  0  0  0  0  0  0  0
  146.8053  140.0062  153.7551 H   0  0  0  0  0  0  0  0  0  0  0  0
  1  2  1  0  0  0  0
  1 19  1  0  0  0  0
  1 20  1  0  0  0  0
  1 21  1  0  0  0  0
  2 11  1  0  0  0  0
  2  3  2  0  0  0  0
  3  4  1  0  0  0  0
  4  5  1  0  0  0  0
  4  9  1  0  0  0  0
  5  6  1  0  0  0  0
  5 22  1  0  0  0  0
  5 23  1  0  0  0  0
  6  7  1  0  0  0  0
  6  8  1  0  0  0  0
  6 24  1  0  0  0  0
  7 25  1  0  0  0  0
  7 26  1  0  0  0  0
  7 27  1  0  0  0  0
  8 28  1  0  0  0  0
  8 29  1  0  0  0  0
  8 30  1  0  0  0  0
  9 10  1  0  0  0  0
  9 11  2  0  0  0  0
 10 31  1  0  0  0  0
 10 32  1  0  0  0  0
 10 33  1  0  0  0  0
 11 12  1  0  0  0  0
 12 13  1  0  0  0  0
 12 34  1  0  0  0  0
 12 35  1  0  0  0  0
 13 14  2  0  0  0  0
 13 15  1  0  0  0  0
 15 16  1  0  0  0  0
 15 36  1  0  0  0  0
 16 18  1  0  0  0  0
 16 17  1  0  0  0  0
 16 37  1  0  0  0  0
 17 18  1  0  0  0  0
 17 38  1  0  0  0  0
 17 39  1  0  0  0  0
 18 40  1  0  0  0  0
 18 41  1  0  0  0  0
M  END
> <s_m_source_file>
AV-unprocessed.smi

> <i_m_source_file_index>
440

> <i_lp_mmshare_version>
43012

> <i_f3d_flags>
0

> <s_epik_input>
W0NIM11jMW5uKFtDSDJdW0NIXShbQ0gzXSlbQ0gzXSljKFtDSDNdKWMxW0NIMl1DKD1PKVtOSF1bQ0hdMltDSDJdW0NIMl0y

> <s_epik_cmdline>
J2VwaWtfcHl0aG9uJywgJy1waCcsICc3LjAnLCAnLXRuJywgJzgnLCAnLW1hJywgJzIwMCcsICctbWV0YWxfYmluZGluZycsICctaW1hZScsICc8aW5maWxlLm1hZT4nLCAnLW9tYWUnLCAnPG91dGZpbGUubWFlPic=

> <r_lp_tautomer_probability>
1

> <r_epik_Ionization_Penalty>
0.00313774

> <r_epik_Ionization_Penalty_Charging>
0

> <r_epik_Ionization_Penalty_Neutral>
0.00313774

> <r_epik_State_Penalty>
0.00220979

> <r_epik_Charging_Adjusted_Penalty>
0.00220979

> <i_epik_Tot_Q>
0

> <i_epik_Tot_abs_Q>
0

> <r_epik_Metal_State_Penalty>
-0

> <b_epik_Metal_Only>
0

> <s_lp_Force_Field>
OPLS_2005

> <r_lp_Energy>
13.2521

> <b_lp_Chiralities_Consistent>
1

> <s_lp_Variant>
AV-unprocessed.smi:440-1

> <Gold.Version>
5.8.1

> <Gold.Id.Protein>
6NUR|6NUR_protein|mol2

> <Gold.PLP.Fitness>
42.9462

> <Gold.PLP.PLP>
-42.2512

> <Gold.PLP.part.hbond>
-1.0000

> <Gold.PLP.part.metal>
0.0000

> <Gold.PLP.part.buried>
-5.5844

> <Gold.PLP.part.nonpolar>
-35.5826

> <Gold.PLP.part.repulsive>
0.1290

> <Gold.PLP.ligand.clash>
0.0000

> <Gold.PLP.ligand.torsion>
1.1847

> <Gold.PLP.Chemscore.Hbond>
1.0000

> <Gold.PLP.Chemscore.CHOScore>
0.0000

> <Gold.PLP.Chemscore.Metal>
0.0000

> <Gold.Chemscore.Hbonds>
donor molecule, donor type, donor heavy atom, donor atom, acceptor molecule, acceptor atom, score
      P1  H  7989  7998       L1    14  1.00

> <Gold.PLP.Chemscore.Internal.Correction>
0.0644

> <Gold.Rescore>
     Score         DG    S(hbond)    S(metal)    S(lipo)     H(rot)  DE(clash)    DE(int)     intcor
     16.31     -17.30       1.00        0.00     106.09       1.53       0.07       0.92       ----

> <Gold.Chemscore.Fitness>
16.3125

> <Gold.Chemscore.DG>
-17.2982

> <Gold.Chemscore.ZeroCoef>
-5.4800

> <Gold.Chemscore.Hbond>
0.9981

> <Gold.Chemscore.Metal>
0.0000

> <Gold.Chemscore.Lipo>
106.0861

> <Gold.Chemscore.Internal_Hbond>
0.0000

> <Gold.Chemscore.DEClash>
0.0663

> <Gold.Chemscore.DEInternal>
0.9194

> <Gold.Chemscore.Rot>
1.5342

> <Gold.Chemscore.Internal.Correction>
   9.000000E+99

> <Gold.Chemscore.Hbonds>
donor molecule, donor type, donor heavy atom, donor atom, acceptor molecule, acceptor atom, score
      P1  H  7989  7998       L1    14  1.00

> <Gold.Chemscore.Hbond.Weighted>
-3.3337

> <Gold.Chemscore.Metal.Weighted>
-0.0000

> <Gold.Chemscore.Lipo.Weighted>
-12.4121

> <Gold.Chemscore.Internal_Hbond.Weighted>
0.0000

> <Gold.Chemscore.DEClash.Weighted>
0.0663

> <Gold.Chemscore.DEInternal.Weighted>
0.9194

> <Gold.Chemscore.Rot.Weighted>
3.9276

> <Gold.Chemscore.Internal.Correction.Weighted>
   9.000000E+99

> <Gold.Protein.RotatedTorsions>
[ 6907 6896 6895 6894 ] final  -55.97 input  -60.11 | X-H torsion
[ 7974 7965 7964 7962 ] final -153.80 input  175.53 | X-H torsion
[ 8008 7997 7996 7995 ] final -158.87 input   59.86 | X-H torsion
[ 10167 10162 10161 10158 ] final   -3.64 input  -65.29 | X-H torsion
[ 10718 10713 10712 10709 ] final   83.61 input   66.30 | X-H torsion
[ 10763 10752 10751 10750 ] final   96.82 input  -60.55 | X-H torsion
[ 11005 11000 10999 10996 ] final -114.81 input  -57.11 | X-H torsion

> <Gold.Protein.ActiveResidues>
 VAL166  LYS551  ARG553  GLY616  TRP617  ASP618  TYR619  PRO620  LYS621  CYS622 
 ASP623  PHE694  ASN695  SER759  ASP760  ASP761  ALA762  ILE779  LEU786  VAL792 
 PHE793  MET794  SER795  GLU796  ALA797  LYS798  CYS799  TRP800  GLU811  SER814 

> <Gold.Protein.RotatedAtoms>
  150.8207  134.7413  159.6769 H   0  0  0  0  0  0  0  0  0  0  0  0  # atno 6907 bound_to 6896
  152.4323  134.5751  159.9942 H   0  0  0  0  0  0  0  0  0  0  0  0  # atno 6908 bound_to 6896
  151.5936  133.3326  159.3069 H   0  0  0  0  0  0  0  0  0  0  0  0  # atno 6909 bound_to 6896
  144.7722  140.4476  143.5899 H   0  0  0  0  0  0  0  0  0  0  0  0  # atno 7974 bound_to 7965
  155.7541  140.0830  157.2187 H   0  0  0  0  0  0  0  0  0  0  0  0  # atno 8008 bound_to 7997
  154.4009  140.1555  156.2813 H   0  0  0  0  0  0  0  0  0  0  0  0  # atno 8009 bound_to 7997
  155.8902  140.3415  155.5953 H   0  0  0  0  0  0  0  0  0  0  0  0  # atno 8010 bound_to 7997
  140.6898  143.6517  150.8344 H   0  0  0  0  0  0  0  0  0  0  0  0  # atno 10167 bound_to 10162
  157.6882  131.0098  150.2548 H   0  0  0  0  0  0  0  0  0  0  0  0  # atno 10718 bound_to 10713
  153.2695  135.4205  155.0973 H   0  0  0  0  0  0  0  0  0  0  0  0  # atno 10763 bound_to 10752
  154.8450  135.3468  154.6265 H   0  0  0  0  0  0  0  0  0  0  0  0  # atno 10764 bound_to 10752
  153.6685  135.7045  153.5212 H   0  0  0  0  0  0  0  0  0  0  0  0  # atno 10765 bound_to 10752
  141.0528  133.9660  157.2806 H   0  0  0  0  0  0  0  0  0  0  0  0  # atno 11005 bound_to 11000
  145.6291  139.1534  143.2979 LP  0  0  0  0  0  0  0  0  0  0  0  0  # atno 17320 bound_to 7965
  146.1876  140.6396  142.9160 LP  0  0  0  0  0  0  0  0  0  0  0  0  # atno 17321 bound_to 7965
  140.0228  143.5524  152.2793 LP  0  0  0  0  0  0  0  0  0  0  0  0  # atno 17342 bound_to 10162
  139.6289  144.7641  151.2579 LP  0  0  0  0  0  0  0  0  0  0  0  0  # atno 17343 bound_to 10162
  156.3138  130.3776  149.7637 LP  0  0  0  0  0  0  0  0  0  0  0  0  # atno 17370 bound_to 10713
  156.5229  130.8223  151.3210 LP  0  0  0  0  0  0  0  0  0  0  0  0  # atno 17371 bound_to 10713
  139.9365  135.0196  156.8571 LP  0  0  0  0  0  0  0  0  0  0  0  0  # atno 17394 bound_to 11000
  140.6022  134.0161  155.7542 LP  0  0  0  0  0  0  0  0  0  0  0  0  # atno 17395 bound_to 11000

$$$$
