AV-unprocessed.smi:481|AV-procd|sdf|2682|dock10
  -GOLD-   2262023113D 1   1.00000     0.00000
 Structure written by MMmdl.
 42 44  0  0  0  0  0  0  0  0  2 V2000
  154.3868  135.6340  164.2111 C   0  0  0  0  0  0  0  0  0  0  0  0
  154.4713  136.2052  162.9173 O   0  0  0  0  0  0  0  0  0  0  0  0
  154.2949  137.6117  162.9333 C   0  0  0  0  0  0  0  0  0  0  0  0
  155.5611  138.2658  163.4995 C   0  0  0  0  0  0  0  0  0  0  0  0
  155.3476  139.6777  163.8030 N   0  0  0  0  0  0  0  0  0  0  0  0
  154.9492  140.6538  162.9482 C   0  0  0  0  0  0  0  0  0  0  0  0
  154.7062  140.3482  161.6093 N   0  0  0  0  0  0  0  0  0  0  0  0
  154.3177  141.2841  160.7612 N   0  0  0  0  0  0  0  0  0  0  0  0
  153.3829  142.0642  161.1706 C   0  0  0  0  0  0  0  0  0  0  0  0
  152.8450  143.1516  160.3394 C   0  0  0  0  0  0  0  0  0  0  0  0
  153.0387  143.1883  158.9379 C   0  0  0  0  0  0  0  0  0  0  0  0
  152.5098  144.2466  158.1732 C   0  0  0  0  0  0  0  0  0  0  0  0
  151.7837  145.2763  158.8008 C   0  0  0  0  0  0  0  0  0  0  0  0
  151.5865  145.2468  160.1942 C   0  0  0  0  0  0  0  0  0  0  0  0
  152.1148  144.1889  160.9596 C   0  0  0  0  0  0  0  0  0  0  0  0
  154.8312  141.8659  163.5000 N   0  0  0  0  0  0  0  0  0  0  0  0
  155.1969  141.6375  164.8187 C   0  0  0  0  0  0  0  0  0  0  0  0
  155.5197  140.3330  165.0246 C   0  0  0  0  0  0  0  0  0  0  0  0
  155.9687  139.7909  166.3240 C   0  0  0  0  0  0  0  0  0  0  0  0
  156.2735  138.6060  166.4453 O   0  0  0  0  0  0  0  0  0  0  0  0
  155.9956  140.7524  167.3009 N   0  5  0  0  0  0  0  0  0  0  0  0
  155.6701  142.0830  167.1402 C   0  0  0  0  0  0  0  0  0  0  0  0
  155.7237  142.8766  168.0801 O   0  0  0  0  0  0  0  0  0  0  0  0
  155.2767  142.5439  165.9090 N   0  0  0  0  0  0  0  0  0  0  0  0
  154.9279  143.9447  165.6527 C   0  0  0  0  0  0  0  0  0  0  0  0
  154.5246  134.5549  164.1451 H   0  0  0  0  0  0  0  0  0  0  0  0
  153.4121  135.8216  164.6634 H   0  0  0  0  0  0  0  0  0  0  0  0
  155.1610  136.0323  164.8682 H   0  0  0  0  0  0  0  0  0  0  0  0
  154.0995  137.9768  161.9239 H   0  0  0  0  0  0  0  0  0  0  0  0
  153.4328  137.8703  163.5502 H   0  0  0  0  0  0  0  0  0  0  0  0
  155.8785  137.7451  164.4031 H   0  0  0  0  0  0  0  0  0  0  0  0
  156.3924  138.1680  162.8023 H   0  0  0  0  0  0  0  0  0  0  0  0
  154.8468  139.3970  161.3008 H   0  0  0  0  0  0  0  0  0  0  0  0
  152.9577  141.9329  162.1681 H   0  0  0  0  0  0  0  0  0  0  0  0
  153.5928  142.4091  158.4347 H   0  0  0  0  0  0  0  0  0  0  0  0
  152.6625  144.2673  157.1040 H   0  0  0  0  0  0  0  0  0  0  0  0
  151.3788  146.0877  158.2142 H   0  0  0  0  0  0  0  0  0  0  0  0
  151.0300  146.0363  160.6776 H   0  0  0  0  0  0  0  0  0  0  0  0
  151.9548  144.1817  162.0281 H   0  0  0  0  0  0  0  0  0  0  0  0
  154.9943  144.5932  166.5267 H   0  0  0  0  0  0  0  0  0  0  0  0
  153.9062  144.0097  165.2776 H   0  0  0  0  0  0  0  0  0  0  0  0
  155.5907  144.3574  164.8913 H   0  0  0  0  0  0  0  0  0  0  0  0
  1  2  1  0  0  0  0
  1 26  1  0  0  0  0
  1 27  1  0  0  0  0
  1 28  1  0  0  0  0
  2  3  1  0  0  0  0
  3  4  1  0  0  0  0
  3 29  1  0  0  0  0
  3 30  1  0  0  0  0
  4  5  1  0  0  0  0
  4 31  1  0  0  0  0
  4 32  1  0  0  0  0
  5 18  1  0  0  0  0
  5  6  1  0  0  0  0
  6  7  1  0  0  0  0
  6 16  2  0  0  0  0
  7  8  1  0  0  0  0
  7 33  1  0  0  0  0
  8  9  2  0  0  0  0
  9 10  1  0  0  0  0
  9 34  1  0  0  0  0
 10 15  1  0  0  0  0
 10 11  2  0  0  0  0
 11 12  1  0  0  0  0
 11 35  1  0  0  0  0
 12 13  2  0  0  0  0
 12 36  1  0  0  0  0
 13 14  1  0  0  0  0
 13 37  1  0  0  0  0
 14 15  2  0  0  0  0
 14 38  1  0  0  0  0
 15 39  1  0  0  0  0
 16 17  1  0  0  0  0
 17 24  1  0  0  0  0
 17 18  2  0  0  0  0
 18 19  1  0  0  0  0
 19 20  2  0  0  0  0
 19 21  1  0  0  0  0
 21 22  1  0  0  0  0
 22 23  2  0  0  0  0
 22 24  1  0  0  0  0
 24 25  1  0  0  0  0
 25 40  1  0  0  0  0
 25 41  1  0  0  0  0
 25 42  1  0  0  0  0
M  CHG  1  21  -1
M  END
> <s_m_source_file>
AV-unprocessed.smi

> <i_m_source_file_index>
481

> <i_lp_mmshare_version>
43012

> <i_f3d_flags>
0

> <s_epik_input>
W0NIM11uMWMoPU8pW25IXWMoPU8pYyhjMTIpbihbQ0gyXVtDSDJdT1tDSDNdKWMobjIpW05IXS9OPVtDSF0vYzNbY0hdW2NIXVtjSF1bY0hdW2NIXTM=

> <s_epik_cmdline>
J2VwaWtfcHl0aG9uJywgJy1waCcsICc3LjAnLCAnLXRuJywgJzgnLCAnLW1hJywgJzIwMCcsICctbWV0YWxfYmluZGluZycsICctaW1hZScsICc8aW5maWxlLm1hZT4nLCAnLW9tYWUnLCAnPG91dGZpbGUubWFlPic=

> <r_epik_Ionization_Penalty>
4.48471

> <r_epik_Ionization_Penalty_Charging>
4.58449e-09

> <r_epik_Ionization_Penalty_Neutral>
4.48471

> <r_epik_State_Penalty>
4.48428

> <r_epik_Charging_Adjusted_Penalty>
4.48428

> <i_epik_Tot_Q>
-1

> <i_epik_Tot_abs_Q>
1

> <r_epik_Metal_State_Penalty>
0.811551

> <b_epik_Metal_Only>
1

> <s_epik_Chemistry_Notes>
This compound has an imine and may undergo hydrolysis.

> <s_lp_Force_Field>
OPLS_2005

> <r_lp_Energy>
36.4971

> <b_lp_Chiralities_Consistent>
1

> <s_lp_Variant>
AV-unprocessed.smi:481-3

> <Gold.Version>
5.8.1

> <Gold.Id.Protein>
6NUR|6NUR_protein|mol2

> <Gold.PLP.Fitness>
57.2623

> <Gold.PLP.PLP>
-57.9510

> <Gold.PLP.part.hbond>
-1.5490

> <Gold.PLP.part.metal>
0.0000

> <Gold.PLP.part.buried>
-7.4723

> <Gold.PLP.part.nonpolar>
-48.5601

> <Gold.PLP.part.repulsive>
0.1494

> <Gold.PLP.ligand.clash>
0.0000

> <Gold.PLP.ligand.torsion>
0.3548

> <Gold.PLP.Chemscore.Hbond>
0.0000

> <Gold.PLP.Chemscore.CHOScore>
0.0000

> <Gold.PLP.Chemscore.Metal>
0.0000

> <Gold.PLP.Chemscore.Internal.Correction>
0.0209

> <Gold.Rescore>
     Score         DG    S(hbond)    S(metal)    S(lipo)     H(rot)  DE(clash)    DE(int)     intcor
     13.20     -16.31       0.00        0.00     125.92       1.52       1.40       1.71       ----

> <Gold.Chemscore.Fitness>
13.1989

> <Gold.Chemscore.DG>
-16.3137

> <Gold.Chemscore.ZeroCoef>
-5.4800

> <Gold.Chemscore.Hbond>
0.0000

> <Gold.Chemscore.Metal>
0.0000

> <Gold.Chemscore.Lipo>
125.9196

> <Gold.Chemscore.Internal_Hbond>
0.0000

> <Gold.Chemscore.DEClash>
1.4022

> <Gold.Chemscore.DEInternal>
1.7126

> <Gold.Chemscore.Rot>
1.5230

> <Gold.Chemscore.Internal.Correction>
   9.000000E+99

> <Gold.Chemscore.Hbond.Weighted>
-0.0000

> <Gold.Chemscore.Metal.Weighted>
-0.0000

> <Gold.Chemscore.Lipo.Weighted>
-14.7326

> <Gold.Chemscore.Internal_Hbond.Weighted>
0.0000

> <Gold.Chemscore.DEClash.Weighted>
1.4022

> <Gold.Chemscore.DEInternal.Weighted>
1.7126

> <Gold.Chemscore.Rot.Weighted>
3.8989

> <Gold.Chemscore.Internal.Correction.Weighted>
   9.000000E+99

> <Gold.Protein.RotatedTorsions>
[ 6907 6896 6895 6894 ] final  -59.29 input  -60.11 | X-H torsion
[ 7974 7965 7964 7962 ] final   49.53 input  175.53 | X-H torsion
[ 8008 7997 7996 7995 ] final    8.64 input   59.86 | X-H torsion
[ 10167 10162 10161 10158 ] final  -34.36 input  -65.29 | X-H torsion
[ 10718 10713 10712 10709 ] final -158.92 input   66.30 | X-H torsion
[ 10763 10752 10751 10750 ] final    5.44 input  -60.55 | X-H torsion
[ 11005 11000 10999 10996 ] final   35.44 input  -57.11 | X-H torsion

> <Gold.Protein.ActiveResidues>
 VAL166  LYS551  ARG553  GLY616  TRP617  ASP618  TYR619  PRO620  LYS621  CYS622 
 ASP623  PHE694  ASN695  SER759  ASP760  ASP761  ALA762  ILE779  LEU786  VAL792 
 PHE793  MET794  SER795  GLU796  ALA797  LYS798  CYS799  TRP800  GLU811  SER814 

> <Gold.Protein.RotatedAtoms>
  150.7941  134.6987  159.6537 H   0  0  0  0  0  0  0  0  0  0  0  0  # atno 6907 bound_to 6896
  152.4051  134.6217  160.0062 H   0  0  0  0  0  0  0  0  0  0  0  0  # atno 6908 bound_to 6896
  151.6477  133.3285  159.3181 H   0  0  0  0  0  0  0  0  0  0  0  0  # atno 6909 bound_to 6896
  146.0099  139.4532  142.9962 H   0  0  0  0  0  0  0  0  0  0  0  0  # atno 7974 bound_to 7965
  154.7695  140.2799  155.6149 H   0  0  0  0  0  0  0  0  0  0  0  0  # atno 8008 bound_to 7997
  156.2931  140.2644  156.2422 H   0  0  0  0  0  0  0  0  0  0  0  0  # atno 8009 bound_to 7997
  154.9917  140.0373  157.2312 H   0  0  0  0  0  0  0  0  0  0  0  0  # atno 8010 bound_to 7997
  140.7187  143.3553  151.2071 H   0  0  0  0  0  0  0  0  0  0  0  0  # atno 10167 bound_to 10162
  156.5609  130.8646  151.2809 H   0  0  0  0  0  0  0  0  0  0  0  0  # atno 10718 bound_to 10713
  153.2593  135.6921  153.7595 H   0  0  0  0  0  0  0  0  0  0  0  0  # atno 10763 bound_to 10752
  153.6660  135.3352  155.3141 H   0  0  0  0  0  0  0  0  0  0  0  0  # atno 10764 bound_to 10752
  154.8424  135.4488  154.1578 H   0  0  0  0  0  0  0  0  0  0  0  0  # atno 10765 bound_to 10752
  140.2426  134.3397  155.7920 H   0  0  0  0  0  0  0  0  0  0  0  0  # atno 11005 bound_to 11000
  145.7358  141.0026  143.1327 LP  0  0  0  0  0  0  0  0  0  0  0  0  # atno 17320 bound_to 7965
  144.6949  139.9039  143.7460 LP  0  0  0  0  0  0  0  0  0  0  0  0  # atno 17321 bound_to 7965
  139.7094  143.9402  152.2941 LP  0  0  0  0  0  0  0  0  0  0  0  0  # atno 17342 bound_to 10162
  139.9122  144.6850  150.8550 LP  0  0  0  0  0  0  0  0  0  0  0  0  # atno 17343 bound_to 10162
  157.7368  130.9786  150.2160 LP  0  0  0  0  0  0  0  0  0  0  0  0  # atno 17370 bound_to 10713
  156.2800  130.3732  149.7945 LP  0  0  0  0  0  0  0  0  0  0  0  0  # atno 17371 bound_to 10713
  141.2209  133.7307  156.8910 LP  0  0  0  0  0  0  0  0  0  0  0  0  # atno 17394 bound_to 11000
  140.1638  134.9147  157.2748 LP  0  0  0  0  0  0  0  0  0  0  0  0  # atno 17395 bound_to 11000

$$$$
