AV-unprocessed.smi:338|AV-procd|sdf|2374|dock8
  -GOLD-   2262022293D 1   1.00000     0.00000
 Structure written by MMmdl.
 41 43  0  0  0  0  0  0  0  0  1 V2000
  147.6157  134.8400  161.1458 C   0  0  0  0  0  0  0  0  0  0  0  0
  147.6838  136.2792  160.6373 C   0  0  0  0  0  0  0  0  0  0  0  0
  147.5450  137.1971  161.4455 O   0  0  0  0  0  0  0  0  0  0  0  0
  147.9174  136.4930  159.1800 C   0  0  0  0  0  0  0  0  0  0  0  0
  148.0638  135.4071  158.2857 C   0  0  0  0  0  0  0  0  0  0  0  0
  148.2843  135.6400  156.9161 C   0  0  0  0  0  0  0  0  0  0  0  0
  148.3599  136.9561  156.4264 C   0  0  0  0  0  0  0  0  0  0  0  0
  148.2155  138.0554  157.2952 C   0  0  0  0  0  0  0  0  0  0  0  0
  148.3019  139.3108  156.7319 O   0  0  0  0  0  0  0  0  0  0  0  0
  148.2036  140.4428  157.5866 C   0  0  0  0  0  0  0  0  0  0  0  0
  148.7230  141.6813  156.8417 C   0  0  2  0  0  0  0  0  0  0  0  0
  147.7497  142.0717  155.8931 O   0  0  0  0  0  0  0  0  0  0  0  0
  150.0676  141.4238  156.1343 C   0  0  0  0  0  0  0  0  0  0  0  0
  151.1495  141.1765  157.0707 N   0  0  0  0  0  0  0  0  0  0  0  0
  151.9024  140.0634  157.1614 C   0  0  0  0  0  0  0  0  0  0  0  0
  152.8493  140.0424  158.0950 N   0  0  0  0  0  0  0  0  0  0  0  0
  152.6947  141.2885  158.6780 C   0  0  0  0  0  0  0  0  0  0  0  0
  153.3996  141.8982  159.7406 C   0  0  0  0  0  0  0  0  0  0  0  0
  153.0580  143.1969  160.1724 C   0  0  0  0  0  0  0  0  0  0  0  0
  152.0079  143.9040  159.5515 C   0  0  0  0  0  0  0  0  0  0  0  0
  151.2916  143.3176  158.4905 C   0  0  0  0  0  0  0  0  0  0  0  0
  151.6372  142.0228  158.0607 C   0  0  0  0  0  0  0  0  0  0  0  0
  147.9944  137.8125  158.6748 C   0  0  0  0  0  0  0  0  0  0  0  0
  148.5508  134.3179  160.9428 H   0  0  0  0  0  0  0  0  0  0  0  0
  146.8000  134.3018  160.6629 H   0  0  0  0  0  0  0  0  0  0  0  0
  147.4441  134.8232  162.2224 H   0  0  0  0  0  0  0  0  0  0  0  0
  148.0106  134.3844  158.6280 H   0  0  0  0  0  0  0  0  0  0  0  0
  148.3954  134.8059  156.2388 H   0  0  0  0  0  0  0  0  0  0  0  0
  148.5293  137.1236  155.3728 H   0  0  0  0  0  0  0  0  0  0  0  0
  147.1704  140.6017  157.9003 H   0  0  0  0  0  0  0  0  0  0  0  0
  148.8077  140.2747  158.4801 H   0  0  0  0  0  0  0  0  0  0  0  0
  148.8358  142.5010  157.5523 H   0  0  0  0  0  0  0  0  0  0  0  0
  148.0375  142.8721  155.4811 H   0  0  0  0  0  0  0  0  0  0  0  0
  149.9877  140.5599  155.4728 H   0  0  0  0  0  0  0  0  0  0  0  0
  150.3373  142.2719  155.5037 H   0  0  0  0  0  0  0  0  0  0  0  0
  151.7442  139.2199  156.5052 H   0  0  0  0  0  0  0  0  0  0  0  0
  154.2052  141.3658  160.2242 H   0  0  0  0  0  0  0  0  0  0  0  0
  153.6043  143.6525  160.9852 H   0  0  0  0  0  0  0  0  0  0  0  0
  151.7526  144.8973  159.8904 H   0  0  0  0  0  0  0  0  0  0  0  0
  150.4854  143.8555  158.0138 H   0  0  0  0  0  0  0  0  0  0  0  0
  147.8835  138.6372  159.3627 H   0  0  0  0  0  0  0  0  0  0  0  0
  1  2  1  0  0  0  0
  1 24  1  0  0  0  0
  1 25  1  0  0  0  0
  1 26  1  0  0  0  0
  2  3  2  0  0  0  0
  2  4  1  0  0  0  0
  4 23  1  0  0  0  0
  4  5  2  0  0  0  0
  5  6  1  0  0  0  0
  5 27  1  0  0  0  0
  6  7  2  0  0  0  0
  6 28  1  0  0  0  0
  7  8  1  0  0  0  0
  7 29  1  0  0  0  0
  8  9  1  0  0  0  0
  8 23  2  0  0  0  0
  9 10  1  0  0  0  0
 10 11  1  0  0  0  0
 10 30  1  0  0  0  0
 10 31  1  0  0  0  0
 11 12  1  0  0  0  0
 11 13  1  0  0  0  0
 11 32  1  0  0  0  0
 12 33  1  0  0  0  0
 13 14  1  0  0  0  0
 13 34  1  0  0  0  0
 13 35  1  0  0  0  0
 14 22  1  0  0  0  0
 14 15  1  0  0  0  0
 15 16  2  0  0  0  0
 15 36  1  0  0  0  0
 16 17  1  0  0  0  0
 17 22  2  0  0  0  0
 17 18  1  0  0  0  0
 18 19  2  0  0  0  0
 18 37  1  0  0  0  0
 19 20  1  0  0  0  0
 19 38  1  0  0  0  0
 20 21  2  0  0  0  0
 20 39  1  0  0  0  0
 21 22  1  0  0  0  0
 21 40  1  0  0  0  0
 23 41  1  0  0  0  0
M  END
> <s_m_source_file>
AV-unprocessed.smi

> <i_m_source_file_index>
338

> <i_lp_mmshare_version>
43012

> <i_f3d_flags>
0

> <s_epik_input>
W0NIM11DKD1PKWMxW2NIXVtjSF1bY0hdYyhbY0hdMSlPW0NIMl1bQ0BIXShbT0hdKVtDSDJdbihbY0hdbjIpYyhjMjMpW2NIXVtjSF1bY0hdW2NIXTM=

> <s_epik_cmdline>
J2VwaWtfcHl0aG9uJywgJy1waCcsICc3LjAnLCAnLXRuJywgJzgnLCAnLW1hJywgJzIwMCcsICctbWV0YWxfYmluZGluZycsICctaW1hZScsICc8aW5maWxlLm1hZT4nLCAnLW9tYWUnLCAnPG91dGZpbGUubWFlPic=

> <r_lp_tautomer_probability>
0.99995

> <r_epik_Ionization_Penalty>
0.0640132

> <r_epik_Ionization_Penalty_Charging>
0

> <r_epik_Ionization_Penalty_Neutral>
0.0640132

> <r_epik_State_Penalty>
0.0557325

> <r_epik_Charging_Adjusted_Penalty>
0.0557325

> <i_epik_Tot_Q>
0

> <i_epik_Tot_abs_Q>
0

> <r_epik_Metal_State_Penalty>
5.8435e-05

> <b_epik_Metal_Only>
0

> <s_lp_Force_Field>
OPLS_2005

> <r_lp_Energy>
20.8584

> <b_lp_Chiralities_Consistent>
1

> <s_lp_Variant>
AV-unprocessed.smi:338-1

> <Gold.Version>
5.8.1

> <Gold.Id.Protein>
6NUR|6NUR_protein|mol2

> <Gold.PLP.Fitness>
46.6025

> <Gold.PLP.PLP>
-35.3735

> <Gold.PLP.part.hbond>
-4.0000

> <Gold.PLP.part.metal>
0.0000

> <Gold.PLP.part.buried>
-4.0272

> <Gold.PLP.part.nonpolar>
-26.7914

> <Gold.PLP.part.repulsive>
0.0000

> <Gold.PLP.ligand.clash>
0.0000

> <Gold.PLP.ligand.torsion>
0.1833

> <Gold.PLP.Chemscore.Hbond>
3.8400

> <Gold.PLP.Chemscore.CHOScore>
0.0000

> <Gold.PLP.Chemscore.Metal>
0.0000

> <Gold.Chemscore.Hbonds>
donor molecule, donor type, donor heavy atom, donor atom, acceptor molecule, acceptor atom, score
      L1  H    12    33       P1  8028  0.99
      P1  H  6931  6943       L1     3  0.94
      P1  H  6934  6947       L1     3  0.85
      P1  H  7997  8008       L1    16  0.77

> <Gold.PLP.Chemscore.Internal.Correction>
0.0756

> <Gold.Rescore>
     Score         DG    S(hbond)    S(metal)    S(lipo)     H(rot)  DE(clash)    DE(int)     intcor
     19.01     -19.34       2.71        0.00      93.63       2.40       0.09       0.24       ----

> <Gold.Chemscore.Fitness>
19.0056

> <Gold.Chemscore.DG>
-19.3405

> <Gold.Chemscore.ZeroCoef>
-5.4800

> <Gold.Chemscore.Hbond>
2.7100

> <Gold.Chemscore.Metal>
0.0000

> <Gold.Chemscore.Lipo>
93.6258

> <Gold.Chemscore.Internal_Hbond>
0.0000

> <Gold.Chemscore.DEClash>
0.0905

> <Gold.Chemscore.DEInternal>
0.2443

> <Gold.Chemscore.Rot>
2.4005

> <Gold.Chemscore.Internal.Correction>
   9.000000E+99

> <Gold.Chemscore.Hbonds>
donor molecule, donor type, donor heavy atom, donor atom, acceptor molecule, acceptor atom, score
      L1  H    12    33       P1  8028  0.79
      P1  H  6931  6943       L1     3  0.89
      P1  H  6934  6947       L1     3  0.84
      P1  H  7997  8008       L1    16  0.07

> <Gold.Chemscore.Hbond.Weighted>
-9.0515

> <Gold.Chemscore.Metal.Weighted>
-0.0000

> <Gold.Chemscore.Lipo.Weighted>
-10.9542

> <Gold.Chemscore.Internal_Hbond.Weighted>
0.0000

> <Gold.Chemscore.DEClash.Weighted>
0.0905

> <Gold.Chemscore.DEInternal.Weighted>
0.2443

> <Gold.Chemscore.Rot.Weighted>
6.1453

> <Gold.Chemscore.Internal.Correction.Weighted>
   9.000000E+99

> <Gold.Protein.RotatedTorsions>
[ 6907 6896 6895 6894 ] final   30.12 input  -60.11 | X-H torsion
[ 7974 7965 7964 7962 ] final   72.14 input  175.53 | X-H torsion
[ 8008 7997 7996 7995 ] final  -69.03 input   59.86 | X-H torsion
[ 10167 10162 10161 10158 ] final   67.61 input  -65.29 | X-H torsion
[ 10718 10713 10712 10709 ] final  -45.05 input   66.30 | X-H torsion
[ 10763 10752 10751 10750 ] final -142.26 input  -60.55 | X-H torsion
[ 11005 11000 10999 10996 ] final -150.90 input  -57.11 | X-H torsion

> <Gold.Protein.ActiveResidues>
 VAL166  LYS551  ARG553  GLY616  TRP617  ASP618  TYR619  PRO620  LYS621  CYS622 
 ASP623  PHE694  ASN695  SER759  ASP760  ASP761  ALA762  ILE779  LEU786  VAL792 
 PHE793  MET794  SER795  GLU796  ALA797  LYS798  CYS799  TRP800  GLU811  SER814 

> <Gold.Protein.RotatedAtoms>
  152.0413  134.9709  160.0573 H   0  0  0  0  0  0  0  0  0  0  0  0  # atno 6907 bound_to 6896
  152.1147  133.4315  159.4655 H   0  0  0  0  0  0  0  0  0  0  0  0  # atno 6908 bound_to 6896
  150.6845  134.2525  159.4560 H   0  0  0  0  0  0  0  0  0  0  0  0  # atno 6909 bound_to 6896
  145.7571  139.2784  143.1398 H   0  0  0  0  0  0  0  0  0  0  0  0  # atno 7974 bound_to 7965
  154.4909  140.0861  156.7593 H   0  0  0  0  0  0  0  0  0  0  0  0  # atno 8008 bound_to 7997
  155.4232  140.3446  155.4255 H   0  0  0  0  0  0  0  0  0  0  0  0  # atno 8009 bound_to 7997
  156.1329  140.1506  156.9027 H   0  0  0  0  0  0  0  0  0  0  0  0  # atno 8010 bound_to 7997
  140.0877  144.5015  150.7119 H   0  0  0  0  0  0  0  0  0  0  0  0  # atno 10167 bound_to 10162
  156.2323  130.4173  149.8859 H   0  0  0  0  0  0  0  0  0  0  0  0  # atno 10718 bound_to 10713
  154.8515  135.3501  154.5999 H   0  0  0  0  0  0  0  0  0  0  0  0  # atno 10763 bound_to 10752
  153.6608  135.6989  153.5182 H   0  0  0  0  0  0  0  0  0  0  0  0  # atno 10764 bound_to 10752
  153.2819  135.4261  155.1044 H   0  0  0  0  0  0  0  0  0  0  0  0  # atno 10765 bound_to 10752
  140.7353  134.3575  157.5158 H   0  0  0  0  0  0  0  0  0  0  0  0  # atno 11005 bound_to 11000
  146.0301  140.8266  142.9880 LP  0  0  0  0  0  0  0  0  0  0  0  0  # atno 17320 bound_to 7965
  144.6838  140.2756  143.7299 LP  0  0  0  0  0  0  0  0  0  0  0  0  # atno 17321 bound_to 7965
  140.7045  143.2458  151.4767 LP  0  0  0  0  0  0  0  0  0  0  0  0  # atno 17342 bound_to 10162
  139.5743  144.1856  152.1880 LP  0  0  0  0  0  0  0  0  0  0  0  0  # atno 17343 bound_to 10162
  156.6469  130.8728  151.3524 LP  0  0  0  0  0  0  0  0  0  0  0  0  # atno 17370 bound_to 10713
  157.7139  130.9473  150.1184 LP  0  0  0  0  0  0  0  0  0  0  0  0  # atno 17371 bound_to 10713
  139.8817  134.9045  156.2880 LP  0  0  0  0  0  0  0  0  0  0  0  0  # atno 17394 bound_to 11000
  140.9884  133.7223  156.0777 LP  0  0  0  0  0  0  0  0  0  0  0  0  # atno 17395 bound_to 11000

$$$$
