AV-unprocessed.smi:109|AV-procd|sdf|1042|dock5
  -GOLD-   2262018 73D 1   1.00000     0.00000
 Structure written by MMmdl.
 58 61  0  0  0  0  0  0  0  0  1 V2000
  148.0877  142.7728  154.4798 O   0  0  0  0  0  0  0  0  0  0  0  0
  148.6754  141.5828  154.9597 C   0  0  0  0  0  0  0  0  0  0  0  0
  150.1237  141.8566  155.3949 C   0  0  0  0  0  0  0  0  0  0  0  0
  150.4374  141.3350  156.8150 C   0  0  1  0  0  0  0  0  0  0  0  0
  150.7067  139.8980  156.7656 N   0  0  0  0  0  0  0  0  0  0  0  0
  149.7479  138.9884  157.0484 C   0  0  0  0  0  0  0  0  0  0  0  0
  148.4649  139.1625  156.6378 N   0  0  0  0  0  0  0  0  0  0  0  0
  147.5390  138.2461  156.9338 C   0  0  0  0  0  0  0  0  0  0  0  0
  147.6816  137.1074  157.6146 N   0  0  0  0  0  0  0  0  0  0  0  0
  148.9684  136.9246  158.0298 C   0  0  0  0  0  0  0  0  0  0  0  0
  150.0519  137.8141  157.7841 C   0  0  0  0  0  0  0  0  0  0  0  0
  151.2151  137.3081  158.3482 N   0  0  0  0  0  0  0  0  0  0  0  0
  150.8363  136.1856  158.8967 C   0  0  0  0  0  0  0  0  0  0  0  0
  149.5021  135.8746  158.7536 N   0  0  0  0  0  0  0  0  0  0  0  0
  148.7997  134.6569  159.2782 C   0  0  1  0  0  0  0  0  0  0  0  0
  149.5065  133.5097  158.9094 O   0  0  0  0  0  0  0  0  0  0  0  0
  149.9456  132.7966  160.0647 C   0  0  2  0  0  0  0  0  0  0  0  0
  150.0472  131.2881  159.7791 C   0  0  0  0  0  0  0  0  0  0  0  0
  148.7803  130.7731  159.4294 O   0  0  0  0  0  0  0  0  0  0  0  0
  148.9408  133.1997  161.1533 C   0  0  2  0  0  0  0  0  0  0  0  0
  147.7562  132.4266  161.0747 O   0  0  0  0  0  0  0  0  0  0  0  0
  148.6497  134.6526  160.8131 C   0  0  1  0  0  0  0  0  0  0  0  0
  149.5553  135.5127  161.4825 O   0  0  0  0  0  0  0  0  0  0  0  0
  151.5968  142.0897  157.5238 C   0  0  0  0  0  0  0  0  0  0  0  0
  152.0905  141.3709  158.7982 C   0  0  0  0  0  0  0  0  0  0  0  0
  153.3066  142.0861  159.4096 C   0  0  0  0  0  0  0  0  0  0  0  0
  152.9933  143.5612  159.7063 C   0  0  0  0  0  0  0  0  0  0  0  0
  152.4951  144.2870  158.4469 C   0  0  0  0  0  0  0  0  0  0  0  0
  151.2808  143.5708  157.8333 C   0  0  0  0  0  0  0  0  0  0  0  0
  147.8383  134.6525  158.7631 H   0  0  0  0  0  0  0  0  0  0  0  0
  150.9223  133.1801  160.3633 H   0  0  0  0  0  0  0  0  0  0  0  0
  149.3554  133.0793  162.1553 H   0  0  0  0  0  0  0  0  0  0  0  0
  147.6363  134.9521  161.0841 H   0  0  0  0  0  0  0  0  0  0  0  0
  147.8689  143.3198  155.2187 H   0  0  0  0  0  0  0  0  0  0  0  0
  148.0862  141.2088  155.7977 H   0  0  0  0  0  0  0  0  0  0  0  0
  148.6377  140.8301  154.1718 H   0  0  0  0  0  0  0  0  0  0  0  0
  150.8093  141.4125  154.6722 H   0  0  0  0  0  0  0  0  0  0  0  0
  150.2886  142.9324  155.3488 H   0  0  0  0  0  0  0  0  0  0  0  0
  149.5346  141.4916  157.4068 H   0  0  0  0  0  0  0  0  0  0  0  0
  151.6754  139.6426  156.6380 H   0  0  0  0  0  0  0  0  0  0  0  0
  146.5420  138.4548  156.5751 H   0  0  0  0  0  0  0  0  0  0  0  0
  151.5279  135.5457  159.4256 H   0  0  0  0  0  0  0  0  0  0  0  0
  150.7137  131.1099  158.9347 H   0  0  0  0  0  0  0  0  0  0  0  0
  150.4517  130.7471  160.6350 H   0  0  0  0  0  0  0  0  0  0  0  0
  148.1710  130.9752  160.1226 H   0  0  0  0  0  0  0  0  0  0  0  0
  147.7227  132.0144  160.2249 H   0  0  0  0  0  0  0  0  0  0  0  0
  149.5095  135.3317  162.4088 H   0  0  0  0  0  0  0  0  0  0  0  0
  152.4446  142.0870  156.8371 H   0  0  0  0  0  0  0  0  0  0  0  0
  151.2983  141.3258  159.5450 H   0  0  0  0  0  0  0  0  0  0  0  0
  152.3553  140.3391  158.5652 H   0  0  0  0  0  0  0  0  0  0  0  0
  153.6134  141.5800  160.3252 H   0  0  0  0  0  0  0  0  0  0  0  0
  154.1516  142.0223  158.7229 H   0  0  0  0  0  0  0  0  0  0  0  0
  152.2351  143.6235  160.4877 H   0  0  0  0  0  0  0  0  0  0  0  0
  153.8813  144.0592  160.0959 H   0  0  0  0  0  0  0  0  0  0  0  0
  152.2346  145.3173  158.6905 H   0  0  0  0  0  0  0  0  0  0  0  0
  153.2992  144.3373  157.7116 H   0  0  0  0  0  0  0  0  0  0  0  0
  150.9777  144.0915  156.9243 H   0  0  0  0  0  0  0  0  0  0  0  0
  150.4414  143.6412  158.5256 H   0  0  0  0  0  0  0  0  0  0  0  0
  1  2  1  0  0  0  0
  1 34  1  0  0  0  0
  2  3  1  0  0  0  0
  2 35  1  0  0  0  0
  2 36  1  0  0  0  0
  3  4  1  0  0  0  0
  3 37  1  0  0  0  0
  3 38  1  0  0  0  0
  4  5  1  0  0  0  0
  4 24  1  0  0  0  0
  4 39  1  0  0  0  0
  5  6  1  0  0  0  0
  5 40  1  0  0  0  0
  6 11  1  0  0  0  0
  6  7  2  0  0  0  0
  7  8  1  0  0  0  0
  8  9  2  0  0  0  0
  8 41  1  0  0  0  0
  9 10  1  0  0  0  0
 10 14  1  0  0  0  0
 10 11  2  0  0  0  0
 11 12  1  0  0  0  0
 12 13  2  0  0  0  0
 13 14  1  0  0  0  0
 13 42  1  0  0  0  0
 14 15  1  0  0  0  0
 15 30  1  0  0  0  0
 15 22  1  0  0  0  0
 15 16  1  0  0  0  0
 16 17  1  0  0  0  0
 17 31  1  0  0  0  0
 17 18  1  0  0  0  0
 17 20  1  0  0  0  0
 18 19  1  0  0  0  0
 18 43  1  0  0  0  0
 18 44  1  0  0  0  0
 19 45  1  0  0  0  0
 20 32  1  0  0  0  0
 20 21  1  0  0  0  0
 20 22  1  0  0  0  0
 21 46  1  0  0  0  0
 22 33  1  0  0  0  0
 22 23  1  0  0  0  0
 23 47  1  0  0  0  0
 24 29  1  0  0  0  0
 24 25  1  0  0  0  0
 24 48  1  0  0  0  0
 25 26  1  0  0  0  0
 25 49  1  0  0  0  0
 25 50  1  0  0  0  0
 26 27  1  0  0  0  0
 26 51  1  0  0  0  0
 26 52  1  0  0  0  0
 27 28  1  0  0  0  0
 27 53  1  0  0  0  0
 27 54  1  0  0  0  0
 28 29  1  0  0  0  0
 28 55  1  0  0  0  0
 28 56  1  0  0  0  0
 29 57  1  0  0  0  0
 29 58  1  0  0  0  0
M  END
> <s_m_source_file>
AV-unprocessed.smi

> <i_m_source_file_index>
109

> <i_lp_mmshare_version>
43012

> <i_f3d_flags>
0

> <s_epik_input>
W0NIMl0xW0NIMl1bQ0gyXVtDSDJdW0NIMl1bQ0hdMVtDQEhdKFtDSDJdW0NIMl1bT0hdKVtOSF1jKG5bY0hdbjIpYyhjMjMpbltjSF1uM1tDQEBIXTRPW0NASF0oW0NIMl1bT0hdKVtDQEBIXShbT0hdKVtDQEhdNFtPSF0=

> <s_epik_cmdline>
J2VwaWtfcHl0aG9uJywgJy1waCcsICc3LjAnLCAnLXRuJywgJzgnLCAnLW1hJywgJzIwMCcsICctbWV0YWxfYmluZGluZycsICctaW1hZScsICc8aW5maWxlLm1hZT4nLCAnLW9tYWUnLCAnPG91dGZpbGUubWFlPic=

> <r_lp_tautomer_probability>
1

> <r_epik_Ionization_Penalty>
0.000793976

> <r_epik_Ionization_Penalty_Charging>
0

> <r_epik_Ionization_Penalty_Neutral>
0.000793976

> <r_epik_State_Penalty>
-0

> <r_epik_Charging_Adjusted_Penalty>
0

> <i_epik_Tot_Q>
0

> <i_epik_Tot_abs_Q>
0

> <r_epik_Metal_State_Penalty>
-0

> <b_epik_Metal_Only>
0

> <s_epik_Chemistry_Notes>
This compound contains an acetal/aminal-like group ( X-CH(R)-Y where X, Y are N, S, or O) that may be acid/base labile, releasing an aldehyde.

> <s_lp_Force_Field>
OPLS_2005

> <r_lp_Energy>
56.1563

> <b_lp_Chiralities_Consistent>
1

> <s_lp_Variant>
AV-unprocessed.smi:109-12

> <Gold.Version>
5.8.1

> <Gold.Id.Protein>
6NUR|6NUR_protein|mol2

> <Gold.PLP.Fitness>
52.6367

> <Gold.PLP.PLP>
-50.3696

> <Gold.PLP.part.hbond>
-4.2601

> <Gold.PLP.part.metal>
0.0000

> <Gold.PLP.part.buried>
-6.3821

> <Gold.PLP.part.nonpolar>
-41.2666

> <Gold.PLP.part.repulsive>
0.0292

> <Gold.PLP.ligand.clash>
1.2211

> <Gold.PLP.ligand.torsion>
1.4904

> <Gold.PLP.Chemscore.Hbond>
2.0832

> <Gold.PLP.Chemscore.CHOScore>
0.0000

> <Gold.PLP.Chemscore.Metal>
0.0000

> <Gold.Chemscore.Hbonds>
donor molecule, donor type, donor heavy atom, donor atom, acceptor molecule, acceptor atom, score
      L1  H     1    34       P1  8028  0.43
      P1  H  6896  6908       L1    23  0.05
      P1  H  8022  8030       L1     1  0.03

> <Gold.PLP.Chemscore.Internal.Correction>
0.2194

> <Gold.Rescore>
     Score         DG    S(hbond)    S(metal)    S(lipo)     H(rot)  DE(clash)    DE(int)     intcor
      7.80     -11.72       1.90        0.00     118.71       5.47       0.27       3.66       ----

> <Gold.Chemscore.Fitness>
7.7970

> <Gold.Chemscore.DG>
-11.7229

> <Gold.Chemscore.ZeroCoef>
-5.4800

> <Gold.Chemscore.Hbond>
1.9006

> <Gold.Chemscore.Metal>
0.0000

> <Gold.Chemscore.Lipo>
118.7057

> <Gold.Chemscore.Internal_Hbond>
0.0000

> <Gold.Chemscore.DEClash>
0.2692

> <Gold.Chemscore.DEInternal>
3.6567

> <Gold.Chemscore.Rot>
5.4662

> <Gold.Chemscore.Internal.Correction>
   9.000000E+99

> <Gold.Chemscore.Hbonds>
donor molecule, donor type, donor heavy atom, donor atom, acceptor molecule, acceptor atom, score
      L1  H     1    34       P1  8028  0.25

> <Gold.Chemscore.Hbond.Weighted>
-6.3479

> <Gold.Chemscore.Metal.Weighted>
-0.0000

> <Gold.Chemscore.Lipo.Weighted>
-13.8886

> <Gold.Chemscore.Internal_Hbond.Weighted>
0.0000

> <Gold.Chemscore.DEClash.Weighted>
0.2692

> <Gold.Chemscore.DEInternal.Weighted>
3.6567

> <Gold.Chemscore.Rot.Weighted>
13.9935

> <Gold.Chemscore.Internal.Correction.Weighted>
   9.000000E+99

> <Gold.Protein.RotatedTorsions>
[ 6907 6896 6895 6894 ] final -144.04 input  -60.11 | X-H torsion
[ 7974 7965 7964 7962 ] final -163.10 input  175.53 | X-H torsion
[ 8008 7997 7996 7995 ] final -103.36 input   59.86 | X-H torsion
[ 10167 10162 10161 10158 ] final  117.63 input  -65.29 | X-H torsion
[ 10718 10713 10712 10709 ] final  112.20 input   66.30 | X-H torsion
[ 10763 10752 10751 10750 ] final -174.31 input  -60.55 | X-H torsion
[ 11005 11000 10999 10996 ] final -145.87 input  -57.11 | X-H torsion

> <Gold.Protein.ActiveResidues>
 VAL166  LYS551  ARG553  GLY616  TRP617  ASP618  TYR619  PRO620  LYS621  CYS622 
 ASP623  PHE694  ASN695  SER759  ASP760  ASP761  ALA762  ILE779  LEU786  VAL792 
 PHE793  MET794  SER795  GLU796  ALA797  LYS798  CYS799  TRP800  GLU811  SER814 

> <Gold.Protein.RotatedAtoms>
  151.1086  133.5189  159.2606 H   0  0  0  0  0  0  0  0  0  0  0  0  # atno 6907 bound_to 6896
  151.1992  135.0435  159.8875 H   0  0  0  0  0  0  0  0  0  0  0  0  # atno 6908 bound_to 6896
  152.5448  134.0917  159.8333 H   0  0  0  0  0  0  0  0  0  0  0  0  # atno 6909 bound_to 6896
  144.7336  140.3156  143.6180 H   0  0  0  0  0  0  0  0  0  0  0  0  # atno 7974 bound_to 7965
  154.8699  140.0423  157.1718 H   0  0  0  0  0  0  0  0  0  0  0  0  # atno 8008 bound_to 7997
  154.8750  140.2964  155.5438 H   0  0  0  0  0  0  0  0  0  0  0  0  # atno 8009 bound_to 7997
  156.2999  140.2422  156.3745 H   0  0  0  0  0  0  0  0  0  0  0  0  # atno 8010 bound_to 7997
  139.6165  144.7093  151.2727 H   0  0  0  0  0  0  0  0  0  0  0  0  # atno 10167 bound_to 10162
  157.6405  131.0964  150.6861 H   0  0  0  0  0  0  0  0  0  0  0  0  # atno 10718 bound_to 10713
  154.5977  135.2851  155.0569 H   0  0  0  0  0  0  0  0  0  0  0  0  # atno 10763 bound_to 10752
  154.1846  135.6451  153.5047 H   0  0  0  0  0  0  0  0  0  0  0  0  # atno 10764 bound_to 10752
  153.0145  135.5431  154.6684 H   0  0  0  0  0  0  0  0  0  0  0  0  # atno 10765 bound_to 10752
  140.7878  134.3003  157.5024 H   0  0  0  0  0  0  0  0  0  0  0  0  # atno 11005 bound_to 11000
  145.7620  139.1828  143.2261 LP  0  0  0  0  0  0  0  0  0  0  0  0  # atno 17320 bound_to 7965
  146.0979  140.7579  142.9563 LP  0  0  0  0  0  0  0  0  0  0  0  0  # atno 17321 bound_to 7965
  140.7354  143.6736  150.8060 LP  0  0  0  0  0  0  0  0  0  0  0  0  # atno 17342 bound_to 10162
  140.0340  143.5414  152.2747 LP  0  0  0  0  0  0  0  0  0  0  0  0  # atno 17343 bound_to 10162
  156.7185  130.4673  149.5529 LP  0  0  0  0  0  0  0  0  0  0  0  0  # atno 17370 bound_to 10713
  156.1681  130.6419  151.0804 LP  0  0  0  0  0  0  0  0  0  0  0  0  # atno 17371 bound_to 10713
  139.8734  134.9357  156.3640 LP  0  0  0  0  0  0  0  0  0  0  0  0  # atno 17394 bound_to 11000
  140.9419  133.7509  156.0157 LP  0  0  0  0  0  0  0  0  0  0  0  0  # atno 17395 bound_to 11000

$$$$
