AV-unprocessed.smi:2313|AV-procd|sdf|9264|dock10
  -GOLD-   2272012493D 1   1.00000     0.00000
 Structure written by MMmdl.
 37 38  0  0  0  0  0  0  0  0  1 V2000
  152.5470  142.9506  161.6150 C   0  0  0  0  0  0  0  0  0  0  0  0
  152.1804  142.5574  160.1961 C   0  0  0  0  0  0  0  0  0  0  0  0
  151.3179  143.4115  159.4063 C   0  0  0  0  0  0  0  0  0  0  0  0
  151.0098  143.0528  158.1509 C   0  0  0  0  0  0  0  0  0  0  0  0
  151.4980  141.8667  157.5756 N   0  0  0  0  0  0  0  0  0  0  0  0
  151.0874  141.5734  156.1923 C   0  0  0  0  0  0  0  0  0  0  0  0
  149.7004  140.9221  156.1007 C   0  0  0  0  0  0  0  0  0  0  0  0
  149.5065  139.7972  156.5617 O   0  0  0  0  0  0  0  0  0  0  0  0
  148.7429  141.6676  155.5230 N   0  0  0  0  0  0  0  0  0  0  0  0
  147.3329  141.3255  155.2920 C   0  0  1  0  0  0  0  0  0  0  0  0
  147.2878  140.6053  153.9343 C   0  0  0  0  0  0  0  0  0  0  0  0
  146.8217  140.3879  156.3116 C   0  0  0  0  0  0  0  0  0  0  0  0
  146.4237  139.6528  157.1122 N   0  0  0  0  0  0  0  0  0  0  0  0
  146.3749  142.5177  155.2403 C   0  0  0  0  0  0  0  0  0  0  0  0
  144.8940  142.3530  154.9825 C   0  0  0  0  0  0  0  0  0  0  0  0
  145.7635  143.0617  153.9678 C   0  0  0  0  0  0  0  0  0  0  0  0
  152.3081  141.0078  158.2645 C   0  0  0  0  0  0  0  0  0  0  0  0
  152.7243  139.9644  157.7570 O   0  0  0  0  0  0  0  0  0  0  0  0
  152.6450  141.4137  159.6385 C   0  0  0  0  0  0  0  0  0  0  0  0
  153.5009  140.5226  160.3538 C   0  0  0  0  0  0  0  0  0  0  0  0
  154.2050  139.8180  160.9437 N   0  0  0  0  0  0  0  0  0  0  0  0
  152.0533  143.8777  161.9073 H   0  0  0  0  0  0  0  0  0  0  0  0
  153.6238  143.0984  161.7026 H   0  0  0  0  0  0  0  0  0  0  0  0
  152.2467  142.1725  162.3176 H   0  0  0  0  0  0  0  0  0  0  0  0
  150.9211  144.3270  159.8203 H   0  0  0  0  0  0  0  0  0  0  0  0
  150.3664  143.6430  157.5145 H   0  0  0  0  0  0  0  0  0  0  0  0
  151.0709  142.4869  155.5967 H   0  0  0  0  0  0  0  0  0  0  0  0
  151.8267  140.9318  155.7089 H   0  0  0  0  0  0  0  0  0  0  0  0
  149.0238  142.5789  155.1920 H   0  0  0  0  0  0  0  0  0  0  0  0
  146.2753  140.2800  153.6918 H   0  0  0  0  0  0  0  0  0  0  0  0
  147.9226  139.7181  153.9348 H   0  0  0  0  0  0  0  0  0  0  0  0
  147.6262  141.2551  153.1265 H   0  0  0  0  0  0  0  0  0  0  0  0
  146.6307  143.2827  155.9717 H   0  0  0  0  0  0  0  0  0  0  0  0
  144.5220  141.3651  154.7190 H   0  0  0  0  0  0  0  0  0  0  0  0
  144.2132  142.9615  155.5742 H   0  0  0  0  0  0  0  0  0  0  0  0
  145.6591  144.1417  153.8877 H   0  0  0  0  0  0  0  0  0  0  0  0
  145.9458  142.5483  153.0280 H   0  0  0  0  0  0  0  0  0  0  0  0
  1  2  1  0  0  0  0
  1 22  1  0  0  0  0
  1 23  1  0  0  0  0
  1 24  1  0  0  0  0
  2 19  2  0  0  0  0
  2  3  1  0  0  0  0
  3  4  2  0  0  0  0
  3 25  1  0  0  0  0
  4  5  1  0  0  0  0
  4 26  1  0  0  0  0
  5  6  1  0  0  0  0
  5 17  1  0  0  0  0
  6  7  1  0  0  0  0
  6 27  1  0  0  0  0
  6 28  1  0  0  0  0
  7  8  2  0  0  0  0
  7  9  1  0  0  0  0
  9 10  1  0  0  0  0
  9 29  1  0  0  0  0
 10 11  1  0  0  0  0
 10 12  1  0  0  0  0
 10 14  1  0  0  0  0
 11 30  1  0  0  0  0
 11 31  1  0  0  0  0
 11 32  1  0  0  0  0
 12 13  3  0  0  0  0
 14 16  1  0  0  0  0
 14 15  1  0  0  0  0
 14 33  1  0  0  0  0
 15 16  1  0  0  0  0
 15 34  1  0  0  0  0
 15 35  1  0  0  0  0
 16 36  1  0  0  0  0
 16 37  1  0  0  0  0
 17 18  2  0  0  0  0
 17 19  1  0  0  0  0
 19 20  1  0  0  0  0
 20 21  3  0  0  0  0
M  END
> <s_m_source_file>
AV-unprocessed.smi

> <i_m_source_file_index>
2313

> <i_lp_mmshare_version>
43012

> <i_f3d_flags>
0

> <s_epik_input>
W0NIM11jMVtjSF1bY0hdbihjKD1PKWMxQyNOKVtDSDJdQyg9TylbTkhdW0NAQF0oW0NIM10pKEMjTilbQ0hdMltDSDJdW0NIMl0y

> <s_epik_cmdline>
J2VwaWtfcHl0aG9uJywgJy1waCcsICc3LjAnLCAnLXRuJywgJzgnLCAnLW1hJywgJzIwMCcsICctbWV0YWxfYmluZGluZycsICctaW1hZScsICc8aW5maWxlLm1hZT4nLCAnLW9tYWUnLCAnPG91dGZpbGUubWFlPic=

> <r_lp_tautomer_probability>
1

> <r_epik_Ionization_Penalty>
4.65501e-07

> <r_epik_Ionization_Penalty_Charging>
2.39086e-10

> <r_epik_Ionization_Penalty_Neutral>
4.65262e-07

> <r_epik_State_Penalty>
-0

> <r_epik_Charging_Adjusted_Penalty>
2.39086e-10

> <i_epik_Tot_Q>
0

> <i_epik_Tot_abs_Q>
0

> <r_epik_Metal_State_Penalty>
-0

> <b_epik_Metal_Only>
0

> <s_lp_Force_Field>
OPLS_2005

> <r_lp_Energy>
24.9024

> <b_lp_Chiralities_Consistent>
1

> <s_lp_Variant>
AV-unprocessed.smi:2313-1

> <Gold.Version>
5.8.1

> <Gold.Id.Protein>
6NUR|6NUR_protein|mol2

> <Gold.PLP.Fitness>
45.5038

> <Gold.PLP.PLP>
-39.5397

> <Gold.PLP.part.hbond>
-2.0000

> <Gold.PLP.part.metal>
0.0000

> <Gold.PLP.part.buried>
-6.4394

> <Gold.PLP.part.nonpolar>
-31.2473

> <Gold.PLP.part.repulsive>
0.1469

> <Gold.PLP.ligand.clash>
0.0000

> <Gold.PLP.ligand.torsion>
1.9286

> <Gold.PLP.Chemscore.Hbond>
1.7760

> <Gold.PLP.Chemscore.CHOScore>
1.0000

> <Gold.PLP.Chemscore.Metal>
0.0000

> <Gold.Chemscore.Hbonds>
donor molecule, donor type, donor heavy atom, donor atom, acceptor molecule, acceptor atom, score
      L1  H     9    29       P1  8028  0.52
      P1  H  7997  8010       L1    18  0.96
      L1  C     4    26       P1  8028  0.86

> <Gold.PLP.Chemscore.Internal.Correction>
1.4934

> <Gold.Rescore>
     Score         DG    S(hbond)    S(metal)    S(lipo)     H(rot)  DE(clash)    DE(int)     intcor
     13.40     -16.63       1.73        0.00      85.22       1.80       0.19       3.04       ----

> <Gold.Chemscore.Fitness>
13.4017

> <Gold.Chemscore.DG>
-16.6336

> <Gold.Chemscore.ZeroCoef>
-5.4800

> <Gold.Chemscore.Hbond>
1.7303

> <Gold.Chemscore.Metal>
0.0000

> <Gold.Chemscore.Lipo>
85.2208

> <Gold.Chemscore.Internal_Hbond>
0.0000

> <Gold.Chemscore.DEClash>
0.1945

> <Gold.Chemscore.DEInternal>
3.0375

> <Gold.Chemscore.Rot>
1.7955

> <Gold.Chemscore.Internal.Correction>
   9.000000E+99

> <Gold.Chemscore.Hbonds>
donor molecule, donor type, donor heavy atom, donor atom, acceptor molecule, acceptor atom, score
      L1  H     9    29       P1  8028  0.51
      P1  H  7997  8010       L1    18  0.83

> <Gold.Chemscore.Hbond.Weighted>
-5.7793

> <Gold.Chemscore.Metal.Weighted>
-0.0000

> <Gold.Chemscore.Lipo.Weighted>
-9.9708

> <Gold.Chemscore.Internal_Hbond.Weighted>
0.0000

> <Gold.Chemscore.DEClash.Weighted>
0.1945

> <Gold.Chemscore.DEInternal.Weighted>
3.0375

> <Gold.Chemscore.Rot.Weighted>
4.5965

> <Gold.Chemscore.Internal.Correction.Weighted>
   9.000000E+99

> <Gold.Protein.RotatedTorsions>
[ 6907 6896 6895 6894 ] final  -33.56 input  -60.11 | X-H torsion
[ 7974 7965 7964 7962 ] final   14.03 input  175.53 | X-H torsion
[ 8008 7997 7996 7995 ] final   63.87 input   59.86 | X-H torsion
[ 10167 10162 10161 10158 ] final  -30.70 input  -65.29 | X-H torsion
[ 10718 10713 10712 10709 ] final   20.11 input   66.30 | X-H torsion
[ 10763 10752 10751 10750 ] final  -65.82 input  -60.55 | X-H torsion
[ 11005 11000 10999 10996 ] final  -34.31 input  -57.11 | X-H torsion

> <Gold.Protein.ActiveResidues>
 VAL166  LYS551  ARG553  GLY616  TRP617  ASP618  TYR619  PRO620  LYS621  CYS622 
 ASP623  PHE694  ASN695  SER759  ASP760  ASP761  ALA762  ILE779  LEU786  VAL792 
 PHE793  MET794  SER795  GLU796  ALA797  LYS798  CYS799  TRP800  GLU811  SER814 

> <Gold.Protein.RotatedAtoms>
  151.0640  134.9755  159.8274 H   0  0  0  0  0  0  0  0  0  0  0  0  # atno 6907 bound_to 6896
  152.5399  134.2381  159.8861 H   0  0  0  0  0  0  0  0  0  0  0  0  # atno 6908 bound_to 6896
  151.2403  133.4360  159.2641 H   0  0  0  0  0  0  0  0  0  0  0  0  # atno 6909 bound_to 6896
  146.2315  139.9101  142.8526 H   0  0  0  0  0  0  0  0  0  0  0  0  # atno 7974 bound_to 7965
  155.6371  140.3496  155.4702 H   0  0  0  0  0  0  0  0  0  0  0  0  # atno 8008 bound_to 7997
  155.9956  140.1202  157.0620 H   0  0  0  0  0  0  0  0  0  0  0  0  # atno 8009 bound_to 7997
  154.4232  140.1111  156.5612 H   0  0  0  0  0  0  0  0  0  0  0  0  # atno 8010 bound_to 7997
  140.7246  143.3828  151.1569 H   0  0  0  0  0  0  0  0  0  0  0  0  # atno 10167 bound_to 10162
  157.1198  130.6545  149.5921 H   0  0  0  0  0  0  0  0  0  0  0  0  # atno 10718 bound_to 10713
  154.3507  135.6137  153.5641 H   0  0  0  0  0  0  0  0  0  0  0  0  # atno 10763 bound_to 10752
  152.9798  135.5791  154.4747 H   0  0  0  0  0  0  0  0  0  0  0  0  # atno 10764 bound_to 10752
  154.4467  135.2851  155.1787 H   0  0  0  0  0  0  0  0  0  0  0  0  # atno 10765 bound_to 10752
  140.9705  133.7112  156.1517 H   0  0  0  0  0  0  0  0  0  0  0  0  # atno 11005 bound_to 11000
  145.2238  140.9946  143.4030 LP  0  0  0  0  0  0  0  0  0  0  0  0  # atno 17320 bound_to 7965
  144.9588  139.4003  143.6366 LP  0  0  0  0  0  0  0  0  0  0  0  0  # atno 17321 bound_to 7965
  139.7420  143.8910  152.3052 LP  0  0  0  0  0  0  0  0  0  0  0  0  # atno 17342 bound_to 10162
  139.8734  144.7056  150.8961 LP  0  0  0  0  0  0  0  0  0  0  0  0  # atno 17343 bound_to 10162
  155.9831  130.4848  150.6915 LP  0  0  0  0  0  0  0  0  0  0  0  0  # atno 17370 bound_to 10713
  157.4486  131.0870  151.0869 LP  0  0  0  0  0  0  0  0  0  0  0  0  # atno 17371 bound_to 10713
  140.7335  134.4228  157.5563 LP  0  0  0  0  0  0  0  0  0  0  0  0  # atno 17394 bound_to 11000
  139.8910  134.8789  156.2339 LP  0  0  0  0  0  0  0  0  0  0  0  0  # atno 17395 bound_to 11000

$$$$
