AV-unprocessed.smi:1582|AV-procd|sdf|6362|dock5
  -GOLD-   22720 6583D 1   1.00000     0.00000
 Structure written by MMmdl.
 41 42  0  0  0  0  0  0  0  0  2 V2000
  143.7890  135.8550  151.7874 O   0  0  0  0  0  0  0  0  0  0  0  0
  144.9581  135.5872  151.5122 C   0  0  0  0  0  0  0  0  0  0  0  0
  145.9948  136.3675  151.8487 N   0  0  0  0  0  0  0  0  0  0  0  0
  145.9021  137.6053  152.6172 C   0  0  0  0  0  0  0  0  0  0  0  0
  147.1936  138.4488  152.5673 C   0  0  1  0  0  0  0  0  0  0  0  0
  147.3893  138.8521  151.2268 O   0  0  0  0  0  0  0  0  0  0  0  0
  147.1373  139.7083  153.4590 C   0  0  0  0  0  0  0  0  0  0  0  0
  148.4821  140.1384  153.9220 N   0  3  0  0  0  0  0  0  0  0  0  0
  148.4077  141.2309  154.9270 C   0  0  0  0  0  0  0  0  0  0  0  0
  149.8081  141.7579  155.2827 C   0  0  0  0  0  0  0  0  0  0  0  0
  150.7146  140.6234  155.7770 C   0  0  0  0  0  0  0  0  0  0  0  0
  150.7506  139.4935  154.7400 C   0  0  0  0  0  0  0  0  0  0  0  0
  149.3298  139.0122  154.3995 C   0  0  0  0  0  0  0  0  0  0  0  0
  145.3657  134.4956  150.8451 N   0  0  0  0  0  0  0  0  0  0  0  0
  144.5582  133.4400  150.3525 C   0  0  0  0  0  0  0  0  0  0  0  0
  144.9076  132.3675  149.4800 C   0  0  0  0  0  0  0  0  0  0  0  0
  143.8675  131.5786  149.2497 N   0  0  0  0  0  0  0  0  0  0  0  0
  142.8622  132.1342  149.9630 N   0  0  0  0  0  0  0  0  0  0  0  0
  143.2392  133.2677  150.6490 C   0  0  0  0  0  0  0  0  0  0  0  0
  141.9354  131.7322  149.9709 H   0  0  0  0  0  0  0  0  0  0  0  0
  146.9209  136.0654  151.5833 H   0  0  0  0  0  0  0  0  0  0  0  0
  145.0542  138.1891  152.2540 H   0  0  0  0  0  0  0  0  0  0  0  0
  145.6709  137.3377  153.6489 H   0  0  0  0  0  0  0  0  0  0  0  0
  148.0364  137.8183  152.8475 H   0  0  0  0  0  0  0  0  0  0  0  0
  148.0563  139.5216  151.2045 H   0  0  0  0  0  0  0  0  0  0  0  0
  146.6657  140.5109  152.8898 H   0  0  0  0  0  0  0  0  0  0  0  0
  146.5026  139.5445  154.3309 H   0  0  0  0  0  0  0  0  0  0  0  0
  147.8086  142.0533  154.5340 H   0  0  0  0  0  0  0  0  0  0  0  0
  147.9009  140.8684  155.8231 H   0  0  0  0  0  0  0  0  0  0  0  0
  150.2553  142.2291  154.4065 H   0  0  0  0  0  0  0  0  0  0  0  0
  149.7321  142.5330  156.0459 H   0  0  0  0  0  0  0  0  0  0  0  0
  151.7217  140.9981  155.9627 H   0  0  0  0  0  0  0  0  0  0  0  0
  150.3426  140.2405  156.7284 H   0  0  0  0  0  0  0  0  0  0  0  0
  151.2461  139.8430  153.8332 H   0  0  0  0  0  0  0  0  0  0  0  0
  151.3463  138.6613  155.1166 H   0  0  0  0  0  0  0  0  0  0  0  0
  148.8701  138.5550  155.2771 H   0  0  0  0  0  0  0  0  0  0  0  0
  149.3958  138.2343  153.6398 H   0  0  0  0  0  0  0  0  0  0  0  0
  146.3585  134.3995  150.6891 H   0  0  0  0  0  0  0  0  0  0  0  0
  145.8526  132.1322  149.0136 H   0  0  0  0  0  0  0  0  0  0  0  0
  142.5561  133.8326  151.2662 H   0  0  0  0  0  0  0  0  0  0  0  0
  148.9436  140.5322  153.1138 H   0  0  0  0  0  0  0  0  0  0  0  0
  1  2  2  0  0  0  0
  2  3  1  0  0  0  0
  2 14  1  0  0  0  0
  3  4  1  0  0  0  0
  3 21  1  0  0  0  0
  4  5  1  0  0  0  0
  4 22  1  0  0  0  0
  4 23  1  0  0  0  0
  5  6  1  0  0  0  0
  5  7  1  0  0  0  0
  5 24  1  0  0  0  0
  6 25  1  0  0  0  0
  7  8  1  0  0  0  0
  7 26  1  0  0  0  0
  7 27  1  0  0  0  0
  8 13  1  0  0  0  0
  8  9  1  0  0  0  0
  8 41  1  0  0  0  0
  9 10  1  0  0  0  0
  9 28  1  0  0  0  0
  9 29  1  0  0  0  0
 10 11  1  0  0  0  0
 10 30  1  0  0  0  0
 10 31  1  0  0  0  0
 11 12  1  0  0  0  0
 11 32  1  0  0  0  0
 11 33  1  0  0  0  0
 12 13  1  0  0  0  0
 12 34  1  0  0  0  0
 12 35  1  0  0  0  0
 13 36  1  0  0  0  0
 13 37  1  0  0  0  0
 14 15  1  0  0  0  0
 14 38  1  0  0  0  0
 15 19  2  0  0  0  0
 15 16  1  0  0  0  0
 16 17  2  0  0  0  0
 16 39  1  0  0  0  0
 17 18  1  0  0  0  0
 18 20  1  0  0  0  0
 18 19  1  0  0  0  0
 19 40  1  0  0  0  0
M  CHG  1   8   1
M  END
> <s_m_source_file>
AV-unprocessed.smi

> <i_m_source_file_index>
1582

> <i_lp_mmshare_version>
43012

> <i_f3d_flags>
0

> <s_epik_input>
W2NIXTFbbkhdbltjSF1jMVtOSF1DKD1PKVtOSF1bQ0gyXVtDQEhdKFtPSF0pW0NIMl1OMltDSDJdW0NIMl1bQ0gyXVtDSDJdW0NIMl0y

> <s_epik_cmdline>
J2VwaWtfcHl0aG9uJywgJy1waCcsICc3LjAnLCAnLXRuJywgJzgnLCAnLW1hJywgJzIwMCcsICctbWV0YWxfYmluZGluZycsICctaW1hZScsICc8aW5maWxlLm1hZT4nLCAnLW9tYWUnLCAnPG91dGZpbGUubWFlPic=

> <r_lp_tautomer_probability>
0.5

> <r_epik_Ionization_Penalty>
0.00519658

> <r_epik_Ionization_Penalty_Charging>
0.00515354

> <r_epik_Ionization_Penalty_Neutral>
4.30332e-05

> <r_epik_State_Penalty>
0.00375424

> <r_epik_Charging_Adjusted_Penalty>
0.00890779

> <i_epik_Tot_Q>
1

> <i_epik_Tot_abs_Q>
1

> <r_epik_Metal_State_Penalty>
-0

> <b_epik_Metal_Only>
0

> <s_lp_Force_Field>
OPLS_2005

> <r_lp_Energy>
21.3928

> <b_lp_Chiralities_Consistent>
1

> <s_lp_Variant>
AV-unprocessed.smi:1582-2

> <Gold.Version>
5.8.1

> <Gold.Id.Protein>
6NUR|6NUR_protein|mol2

> <Gold.PLP.Fitness>
46.6165

> <Gold.PLP.PLP>
-31.6220

> <Gold.PLP.part.hbond>
-7.5477

> <Gold.PLP.part.metal>
0.0000

> <Gold.PLP.part.buried>
5.3856

> <Gold.PLP.part.nonpolar>
-28.8972

> <Gold.PLP.part.repulsive>
0.6994

> <Gold.PLP.ligand.clash>
0.0000

> <Gold.PLP.ligand.torsion>
0.5115

> <Gold.PLP.Chemscore.Hbond>
4.9488

> <Gold.PLP.Chemscore.CHOScore>
0.3636

> <Gold.PLP.Chemscore.Metal>
0.0000

> <Gold.Chemscore.Hbonds>
donor molecule, donor type, donor heavy atom, donor atom, acceptor molecule, acceptor atom, score
      L1  H     3    21       P1  7948  0.99
      L1  H     6    25       P1  7957  1.00
      L1  H     8    41       P1  7957  0.66
      L1  H    18    20       P1 10952  1.00
      P1  H  7954  7966       L1     6  0.56
      P1  H 10785 10796       L1    17  0.72
      L1  C    19    40       P1 10186  0.37

> <Gold.PLP.Chemscore.Internal.Correction>
0.0803

> <Gold.Rescore>
     Score         DG    S(hbond)    S(metal)    S(lipo)     H(rot)  DE(clash)    DE(int)     intcor
     16.53     -21.13       3.81        0.00      81.55       2.59       2.85       1.74       ----

> <Gold.Chemscore.Fitness>
16.5340

> <Gold.Chemscore.DG>
-21.1287

> <Gold.Chemscore.ZeroCoef>
-5.4800

> <Gold.Chemscore.Hbond>
3.8118

> <Gold.Chemscore.Metal>
0.0000

> <Gold.Chemscore.Lipo>
81.5510

> <Gold.Chemscore.Internal_Hbond>
0.0000

> <Gold.Chemscore.DEClash>
2.8521

> <Gold.Chemscore.DEInternal>
1.7426

> <Gold.Chemscore.Rot>
2.5876

> <Gold.Chemscore.Internal.Correction>
   9.000000E+99

> <Gold.Chemscore.Hbonds>
donor molecule, donor type, donor heavy atom, donor atom, acceptor molecule, acceptor atom, score
      L1  H     3    21       P1  7948  0.87
      L1  H     6    25       P1  7957  0.84
      L1  H     8    41       P1  7957  0.64
      L1  H    18    20       P1 10952  0.86
      P1  H  7954  7966       L1     6  0.05
      P1  H 10785 10796       L1    17  0.28

> <Gold.Chemscore.Hbond.Weighted>
-12.7314

> <Gold.Chemscore.Metal.Weighted>
-0.0000

> <Gold.Chemscore.Lipo.Weighted>
-9.5415

> <Gold.Chemscore.Internal_Hbond.Weighted>
0.0000

> <Gold.Chemscore.DEClash.Weighted>
2.8521

> <Gold.Chemscore.DEInternal.Weighted>
1.7426

> <Gold.Chemscore.Rot.Weighted>
6.6242

> <Gold.Chemscore.Internal.Correction.Weighted>
   9.000000E+99

> <Gold.Protein.RotatedTorsions>
[ 6907 6896 6895 6894 ] final  162.91 input  -60.11 | X-H torsion
[ 7974 7965 7964 7962 ] final   47.46 input  175.53 | X-H torsion
[ 8008 7997 7996 7995 ] final   27.24 input   59.86 | X-H torsion
[ 10167 10162 10161 10158 ] final  -42.94 input  -65.29 | X-H torsion
[ 10718 10713 10712 10709 ] final   19.84 input   66.30 | X-H torsion
[ 10763 10752 10751 10750 ] final  128.99 input  -60.55 | X-H torsion
[ 11005 11000 10999 10996 ] final  133.05 input  -57.11 | X-H torsion

> <Gold.Protein.ActiveResidues>
 VAL166  LYS551  ARG553  GLY616  TRP617  ASP618  TYR619  PRO620  LYS621  CYS622 
 ASP623  PHE694  ASN695  SER759  ASP760  ASP761  ALA762  ILE779  LEU786  VAL792 
 PHE793  MET794  SER795  GLU796  ALA797  LYS798  CYS799  TRP800  GLU811  SER814 

> <Gold.Protein.RotatedAtoms>
  151.9333  133.3617  159.3938 H   0  0  0  0  0  0  0  0  0  0  0  0  # atno 6907 bound_to 6896
  150.7013  134.4515  159.5348 H   0  0  0  0  0  0  0  0  0  0  0  0  # atno 6908 bound_to 6896
  152.2159  134.8458  160.0542 H   0  0  0  0  0  0  0  0  0  0  0  0  # atno 6909 bound_to 6896
  146.0296  139.4747  142.9846 H   0  0  0  0  0  0  0  0  0  0  0  0  # atno 7974 bound_to 7965
  155.0398  140.3168  155.4729 H   0  0  0  0  0  0  0  0  0  0  0  0  # atno 8008 bound_to 7997
  156.2857  140.2165  156.5464 H   0  0  0  0  0  0  0  0  0  0  0  0  # atno 8009 bound_to 7997
  154.7300  140.0482  157.0705 H   0  0  0  0  0  0  0  0  0  0  0  0  # atno 8010 bound_to 7997
  140.6952  143.3010  151.3280 H   0  0  0  0  0  0  0  0  0  0  0  0  # atno 10167 bound_to 10162
  157.1162  130.6530  149.5911 H   0  0  0  0  0  0  0  0  0  0  0  0  # atno 10718 bound_to 10713
  153.7344  135.3233  155.3292 H   0  0  0  0  0  0  0  0  0  0  0  0  # atno 10763 bound_to 10752
  154.8315  135.4530  154.1089 H   0  0  0  0  0  0  0  0  0  0  0  0  # atno 10764 bound_to 10752
  153.2246  135.6952  153.8042 H   0  0  0  0  0  0  0  0  0  0  0  0  # atno 10765 bound_to 10752
  139.9827  134.9542  156.9669 H   0  0  0  0  0  0  0  0  0  0  0  0  # atno 11005 bound_to 11000
  145.7063  141.0120  143.1477 LP  0  0  0  0  0  0  0  0  0  0  0  0  # atno 17320 bound_to 7965
  144.7024  139.8704  143.7440 LP  0  0  0  0  0  0  0  0  0  0  0  0  # atno 17321 bound_to 7965
  139.6398  144.0561  152.2545 LP  0  0  0  0  0  0  0  0  0  0  0  0  # atno 17342 bound_to 10162
  140.0062  144.6257  150.7686 LP  0  0  0  0  0  0  0  0  0  0  0  0  # atno 17343 bound_to 10162
  155.9839  130.4861  150.6956 LP  0  0  0  0  0  0  0  0  0  0  0  0  # atno 17370 bound_to 10713
  157.4517  131.0873  151.0839 LP  0  0  0  0  0  0  0  0  0  0  0  0  # atno 17371 bound_to 10713
  140.5063  134.1047  155.7261 LP  0  0  0  0  0  0  0  0  0  0  0  0  # atno 17394 bound_to 11000
  141.1497  133.8991  157.2128 LP  0  0  0  0  0  0  0  0  0  0  0  0  # atno 17395 bound_to 11000

$$$$
