AV-unprocessed.smi:1752|AV-procd|sdf|7061|dock9
  -GOLD-   22720 8283D 1   1.00000     0.00000
 Structure written by MMmdl.
 43 44  0  0  0  0  0  0  0  0  2 V2000
  152.2151  141.1311  158.3307 C   0  0  0  0  0  0  0  0  0  0  0  0
  153.1934  141.1430  159.5168 C   0  0  1  0  0  0  0  0  0  0  0  0
  152.7627  142.0975  160.6523 C   0  0  0  0  0  0  0  0  0  0  0  0
  152.3383  143.3966  160.1625 N   0  0  0  0  0  0  0  0  0  0  0  0
  151.5960  144.3558  160.8187 C   0  0  0  0  0  0  0  0  0  0  0  0
  151.4465  145.4092  159.9627 C   0  0  0  0  0  0  0  0  0  0  0  0
  152.1387  144.9934  158.7910 C   0  0  0  0  0  0  0  0  0  0  0  0
  152.6698  143.7876  158.9127 N   0  0  0  0  0  0  0  0  0  0  0  0
  153.3365  139.7832  160.0290 N   0  0  0  0  0  0  0  0  0  0  0  0
  153.6014  138.6915  159.2898 C   0  0  0  0  0  0  0  0  0  0  0  0
  153.7280  138.7385  158.0655 O   0  0  0  0  0  0  0  0  0  0  0  0
  153.6548  137.5334  159.9949 N   0  0  0  0  0  0  0  0  0  0  0  0
  153.2302  137.4056  161.4072 C   0  0  0  0  0  0  0  0  0  0  0  0
  154.0362  136.3638  162.2189 C   0  0  0  0  0  0  0  0  0  0  0  0
  155.5614  136.6029  162.2640 C   0  0  0  0  0  0  0  0  0  0  0  0
  156.1762  136.9990  160.9681 N   0  3  1  0  0  0  0  0  0  0  0  0
  157.6457  137.1331  161.0764 C   0  0  0  0  0  0  0  0  0  0  0  0
  155.7705  136.1845  159.7910 C   0  0  0  0  0  0  0  0  0  0  0  0
  154.2787  136.3351  159.4080 C   0  0  0  0  0  0  0  0  0  0  0  0
  152.1472  142.1112  157.8578 H   0  0  0  0  0  0  0  0  0  0  0  0
  151.2117  140.8449  158.6475 H   0  0  0  0  0  0  0  0  0  0  0  0
  152.5366  140.4257  157.5639 H   0  0  0  0  0  0  0  0  0  0  0  0
  154.1618  141.4716  159.1347 H   0  0  0  0  0  0  0  0  0  0  0  0
  151.9500  141.6544  161.2309 H   0  0  0  0  0  0  0  0  0  0  0  0
  153.5863  142.2577  161.3494 H   0  0  0  0  0  0  0  0  0  0  0  0
  151.2429  144.2106  161.8292 H   0  0  0  0  0  0  0  0  0  0  0  0
  150.9225  146.3354  160.1455 H   0  0  0  0  0  0  0  0  0  0  0  0
  152.2698  145.5287  157.8619 H   0  0  0  0  0  0  0  0  0  0  0  0
  153.2178  139.6610  161.0243 H   0  0  0  0  0  0  0  0  0  0  0  0
  153.3258  138.3587  161.9300 H   0  0  0  0  0  0  0  0  0  0  0  0
  152.1712  137.1458  161.4274 H   0  0  0  0  0  0  0  0  0  0  0  0
  153.6622  136.3598  163.2433 H   0  0  0  0  0  0  0  0  0  0  0  0
  153.8335  135.3548  161.8610 H   0  0  0  0  0  0  0  0  0  0  0  0
  155.7708  137.3947  162.9841 H   0  0  0  0  0  0  0  0  0  0  0  0
  156.0518  135.7047  162.6419 H   0  0  0  0  0  0  0  0  0  0  0  0
  158.1136  136.1647  161.2581 H   0  0  0  0  0  0  0  0  0  0  0  0
  157.9130  137.8017  161.8953 H   0  0  0  0  0  0  0  0  0  0  0  0
  158.0660  137.5504  160.1610 H   0  0  0  0  0  0  0  0  0  0  0  0
  156.3634  136.5131  158.9360 H   0  0  0  0  0  0  0  0  0  0  0  0
  156.0227  135.1355  159.9522 H   0  0  0  0  0  0  0  0  0  0  0  0
  153.7168  135.4513  159.7093 H   0  0  0  0  0  0  0  0  0  0  0  0
  154.1815  136.3301  158.3207 H   0  0  0  0  0  0  0  0  0  0  0  0
  155.8315  137.9289  160.7755 H   0  0  0  0  0  0  0  0  0  0  0  0
  1  2  1  0  0  0  0
  1 20  1  0  0  0  0
  1 21  1  0  0  0  0
  1 22  1  0  0  0  0
  2  3  1  0  0  0  0
  2  9  1  0  0  0  0
  2 23  1  0  0  0  0
  3  4  1  0  0  0  0
  3 24  1  0  0  0  0
  3 25  1  0  0  0  0
  4  8  1  0  0  0  0
  4  5  1  0  0  0  0
  5  6  2  0  0  0  0
  5 26  1  0  0  0  0
  6  7  1  0  0  0  0
  6 27  1  0  0  0  0
  7  8  2  0  0  0  0
  7 28  1  0  0  0  0
  9 10  1  0  0  0  0
  9 29  1  0  0  0  0
 10 11  2  0  0  0  0
 10 12  1  0  0  0  0
 12 19  1  0  0  0  0
 12 13  1  0  0  0  0
 13 14  1  0  0  0  0
 13 30  1  0  0  0  0
 13 31  1  0  0  0  0
 14 15  1  0  0  0  0
 14 32  1  0  0  0  0
 14 33  1  0  0  0  0
 15 16  1  0  0  0  0
 15 34  1  0  0  0  0
 15 35  1  0  0  0  0
 16 17  1  0  0  0  0
 16 18  1  0  0  0  0
 16 43  1  0  0  0  0
 17 36  1  0  0  0  0
 17 37  1  0  0  0  0
 17 38  1  0  0  0  0
 18 19  1  0  0  0  0
 18 39  1  0  0  0  0
 18 40  1  0  0  0  0
 19 41  1  0  0  0  0
 19 42  1  0  0  0  0
M  CHG  1  16   1
M  END
> <s_m_source_file>
AV-unprocessed.smi

> <i_m_source_file_index>
1752

> <i_lp_mmshare_version>
43012

> <i_f3d_flags>
0

> <s_epik_input>
bjFbY0hdW2NIXVtjSF1uMVtDSDJdW0NAQEhdKFtDSDNdKVtOSF1DKD1PKU4yW0NIMl1bQ0gyXVtDSDJdTihbQ0gzXSlbQ0gyXVtDSDJdMg==

> <s_epik_cmdline>
J2VwaWtfcHl0aG9uJywgJy1waCcsICc3LjAnLCAnLXRuJywgJzgnLCAnLW1hJywgJzIwMCcsICctbWV0YWxfYmluZGluZycsICctaW1hZScsICc8aW5maWxlLm1hZT4nLCAnLW9tYWUnLCAnPG91dGZpbGUubWFlPic=

> <r_lp_tautomer_probability>
1

> <r_epik_Ionization_Penalty>
0.00208423

> <r_epik_Ionization_Penalty_Charging>
0.00203643

> <r_epik_Ionization_Penalty_Neutral>
4.77939e-05

> <r_epik_State_Penalty>
0.00139278

> <r_epik_Charging_Adjusted_Penalty>
0.00342922

> <i_epik_Tot_Q>
1

> <i_epik_Tot_abs_Q>
1

> <r_epik_Metal_State_Penalty>
-0

> <b_epik_Metal_Only>
0

> <s_lp_Force_Field>
OPLS_2005

> <r_lp_Energy>
45.7643

> <b_lp_Chiralities_Consistent>
1

> <s_lp_Variant>
AV-unprocessed.smi:1752-4

> <Gold.Version>
5.8.1

> <Gold.Id.Protein>
6NUR|6NUR_protein|mol2

> <Gold.PLP.Fitness>
39.3572

> <Gold.PLP.PLP>
-37.2565

> <Gold.PLP.part.hbond>
-1.0000

> <Gold.PLP.part.metal>
0.0000

> <Gold.PLP.part.buried>
-5.6545

> <Gold.PLP.part.nonpolar>
-30.8656

> <Gold.PLP.part.repulsive>
0.0742

> <Gold.PLP.ligand.clash>
0.0000

> <Gold.PLP.ligand.torsion>
0.4844

> <Gold.PLP.Chemscore.Hbond>
1.0000

> <Gold.PLP.Chemscore.CHOScore>
0.0000

> <Gold.PLP.Chemscore.Metal>
0.0000

> <Gold.Chemscore.Hbonds>
donor molecule, donor type, donor heavy atom, donor atom, acceptor molecule, acceptor atom, score
      P1  H  7997  8009       L1    11  1.00

> <Gold.PLP.Chemscore.Internal.Correction>
0.0695

> <Gold.Rescore>
     Score         DG    S(hbond)    S(metal)    S(lipo)     H(rot)  DE(clash)    DE(int)     intcor
     12.66     -15.96       1.00        0.00      92.03       1.41       0.00       3.30       ----

> <Gold.Chemscore.Fitness>
12.6616

> <Gold.Chemscore.DG>
-15.9617

> <Gold.Chemscore.ZeroCoef>
-5.4800

> <Gold.Chemscore.Hbond>
0.9972

> <Gold.Chemscore.Metal>
0.0000

> <Gold.Chemscore.Lipo>
92.0250

> <Gold.Chemscore.Internal_Hbond>
0.0000

> <Gold.Chemscore.DEClash>
0.0000

> <Gold.Chemscore.DEInternal>
3.3001

> <Gold.Chemscore.Rot>
1.4125

> <Gold.Chemscore.Internal.Correction>
   9.000000E+99

> <Gold.Chemscore.Hbonds>
donor molecule, donor type, donor heavy atom, donor atom, acceptor molecule, acceptor atom, score
      P1  H  7997  8009       L1    11  1.00

> <Gold.Chemscore.Hbond.Weighted>
-3.3307

> <Gold.Chemscore.Metal.Weighted>
-0.0000

> <Gold.Chemscore.Lipo.Weighted>
-10.7669

> <Gold.Chemscore.Internal_Hbond.Weighted>
0.0000

> <Gold.Chemscore.DEClash.Weighted>
0.0000

> <Gold.Chemscore.DEInternal.Weighted>
3.3001

> <Gold.Chemscore.Rot.Weighted>
3.6160

> <Gold.Chemscore.Internal.Correction.Weighted>
   9.000000E+99

> <Gold.Protein.RotatedTorsions>
[ 6907 6896 6895 6894 ] final  110.60 input  -60.11 | X-H torsion
[ 7974 7965 7964 7962 ] final  121.09 input  175.53 | X-H torsion
[ 8008 7997 7996 7995 ] final  150.10 input   59.86 | X-H torsion
[ 10167 10162 10161 10158 ] final -160.22 input  -65.29 | X-H torsion
[ 10718 10713 10712 10709 ] final -112.14 input   66.30 | X-H torsion
[ 10763 10752 10751 10750 ] final   58.79 input  -60.55 | X-H torsion
[ 11005 11000 10999 10996 ] final   83.45 input  -57.11 | X-H torsion

> <Gold.Protein.ActiveResidues>
 VAL166  LYS551  ARG553  GLY616  TRP617  ASP618  TYR619  PRO620  LYS621  CYS622 
 ASP623  PHE694  ASN695  SER759  ASP760  ASP761  ALA762  ILE779  LEU786  VAL792 
 PHE793  MET794  SER795  GLU796  ALA797  LYS798  CYS799  TRP800  GLU811  SER814 

> <Gold.Protein.RotatedAtoms>
  152.5011  133.8777  159.7330 H   0  0  0  0  0  0  0  0  0  0  0  0  # atno 6907 bound_to 6896
  150.9247  133.6829  159.2831 H   0  0  0  0  0  0  0  0  0  0  0  0  # atno 6908 bound_to 6896
  151.4193  135.1000  159.9661 H   0  0  0  0  0  0  0  0  0  0  0  0  # atno 6909 bound_to 6896
  145.1234  139.3374  143.4702 H   0  0  0  0  0  0  0  0  0  0  0  0  # atno 7974 bound_to 7965
  156.2729  140.2084  156.5964 H   0  0  0  0  0  0  0  0  0  0  0  0  # atno 8008 bound_to 7997
  154.6941  140.0527  157.0417 H   0  0  0  0  0  0  0  0  0  0  0  0  # atno 8009 bound_to 7997
  155.0825  140.3188  155.4600 H   0  0  0  0  0  0  0  0  0  0  0  0  # atno 8010 bound_to 7997
  139.6556  144.0005  152.2191 H   0  0  0  0  0  0  0  0  0  0  0  0  # atno 10167 bound_to 10162
  156.0688  130.5904  150.8469 H   0  0  0  0  0  0  0  0  0  0  0  0  # atno 10718 bound_to 10713
  152.9879  135.5594  154.5609 H   0  0  0  0  0  0  0  0  0  0  0  0  # atno 10763 bound_to 10752
  154.5028  135.2798  155.1409 H   0  0  0  0  0  0  0  0  0  0  0  0  # atno 10764 bound_to 10752
  154.2832  135.6340  153.5408 H   0  0  0  0  0  0  0  0  0  0  0  0  # atno 10765 bound_to 10752
  139.9031  134.8145  156.2311 H   0  0  0  0  0  0  0  0  0  0  0  0  # atno 11005 bound_to 11000
  146.3519  140.1203  142.8600 LP  0  0  0  0  0  0  0  0  0  0  0  0  # atno 17320 bound_to 7965
  145.0715  140.9158  143.4879 LP  0  0  0  0  0  0  0  0  0  0  0  0  # atno 17321 bound_to 7965
  139.9730  144.6480  150.7971 LP  0  0  0  0  0  0  0  0  0  0  0  0  # atno 17342 bound_to 10162
  140.7557  143.3052  151.2980 LP  0  0  0  0  0  0  0  0  0  0  0  0  # atno 17343 bound_to 10162
  157.5747  131.0946  150.9364 LP  0  0  0  0  0  0  0  0  0  0  0  0  # atno 17370 bound_to 10713
  156.9573  130.5442  149.5284 LP  0  0  0  0  0  0  0  0  0  0  0  0  # atno 17371 bound_to 10713
  141.0345  133.6971  156.1488 LP  0  0  0  0  0  0  0  0  0  0  0  0  # atno 17394 bound_to 11000
  140.7048  134.4525  157.5584 LP  0  0  0  0  0  0  0  0  0  0  0  0  # atno 17395 bound_to 11000

$$$$
