AV-unprocessed.smi:3052|AV-procd|sdf|11636|dock6
  -GOLD-   2272017 33D 1   1.00000     0.00000
 Structure written by MMmdl.
 41 43  0  0  0  0  0  0  0  0  1 V2000
  149.2569  136.2830  157.8517 C   0  0  0  0  0  0  0  0  0  0  0  0
  149.4130  135.0390  157.0219 C   0  0  0  0  0  0  0  0  0  0  0  0
  149.8368  133.9261  157.6024 N   0  0  0  0  0  0  0  0  0  0  0  0
  149.8210  132.9267  156.6173 O   0  0  0  0  0  0  0  0  0  0  0  0
  149.3904  133.4666  155.4471 C   0  0  0  0  0  0  0  0  0  0  0  0
  149.2890  132.5415  154.2785 C   0  0  0  0  0  0  0  0  0  0  0  0
  148.8165  133.0382  152.9352 C   0  0  0  0  0  0  0  0  0  0  0  0
  147.9568  132.0830  153.7341 C   0  0  0  0  0  0  0  0  0  0  0  0
  149.1401  134.7932  155.6445 C   0  0  0  0  0  0  0  0  0  0  0  0
  148.6345  135.6762  154.6586 N   0  0  0  0  0  0  0  0  0  0  0  0
  147.8419  136.7384  154.8639 C   0  0  0  0  0  0  0  0  0  0  0  0
  147.4102  137.0861  155.9623 O   0  0  0  0  0  0  0  0  0  0  0  0
  147.6002  137.3878  153.7132 N   0  0  0  0  0  0  0  0  0  0  0  0
  146.7921  138.5940  153.4952 C   0  0  2  0  0  0  0  0  0  0  0  0
  145.3453  138.1571  153.8325 C   0  0  0  0  0  0  0  0  0  0  0  0
  146.8658  138.9755  151.9916 C   0  0  0  0  0  0  0  0  0  0  0  0
  146.8930  137.8383  151.1518 O   0  0  0  0  0  0  0  0  0  0  0  0
  147.2734  139.7765  154.3544 C   0  0  0  0  0  0  0  0  0  0  0  0
  147.3057  141.2070  153.8696 C   0  0  0  0  0  0  0  0  0  0  0  0
  148.6007  140.4773  154.1703 C   0  0  0  0  0  0  0  0  0  0  0  0
  148.4309  136.8967  157.4926 H   0  0  0  0  0  0  0  0  0  0  0  0
  150.1629  136.8882  157.8229 H   0  0  0  0  0  0  0  0  0  0  0  0
  149.0524  136.0438  158.8958 H   0  0  0  0  0  0  0  0  0  0  0  0
  150.1000  131.8161  154.2847 H   0  0  0  0  0  0  0  0  0  0  0  0
  148.4846  134.0723  152.8663 H   0  0  0  0  0  0  0  0  0  0  0  0
  149.3165  132.6481  152.0512 H   0  0  0  0  0  0  0  0  0  0  0  0
  147.8854  131.0563  153.3815 H   0  0  0  0  0  0  0  0  0  0  0  0
  147.0487  132.4884  154.1755 H   0  0  0  0  0  0  0  0  0  0  0  0
  149.0131  135.5663  153.7294 H   0  0  0  0  0  0  0  0  0  0  0  0
  148.0226  137.0004  152.8823 H   0  0  0  0  0  0  0  0  0  0  0  0
  144.6195  138.9572  153.6909 H   0  0  0  0  0  0  0  0  0  0  0  0
  145.2524  137.8057  154.8600 H   0  0  0  0  0  0  0  0  0  0  0  0
  145.0279  137.3344  153.1902 H   0  0  0  0  0  0  0  0  0  0  0  0
  146.0125  139.5864  151.6960 H   0  0  0  0  0  0  0  0  0  0  0  0
  147.7601  139.5663  151.7887 H   0  0  0  0  0  0  0  0  0  0  0  0
  147.1719  137.0939  151.6626 H   0  0  0  0  0  0  0  0  0  0  0  0
  146.9897  139.6651  155.3989 H   0  0  0  0  0  0  0  0  0  0  0  0
  147.0788  141.4144  152.8268 H   0  0  0  0  0  0  0  0  0  0  0  0
  146.9885  141.9758  154.5711 H   0  0  0  0  0  0  0  0  0  0  0  0
  149.1393  140.7655  155.0707 H   0  0  0  0  0  0  0  0  0  0  0  0
  149.2305  140.2112  153.3255 H   0  0  0  0  0  0  0  0  0  0  0  0
  1  2  1  0  0  0  0
  1 21  1  0  0  0  0
  1 22  1  0  0  0  0
  1 23  1  0  0  0  0
  2  9  1  0  0  0  0
  2  3  2  0  0  0  0
  3  4  1  0  0  0  0
  4  5  1  0  0  0  0
  5  6  1  0  0  0  0
  5  9  2  0  0  0  0
  6  8  1  0  0  0  0
  6  7  1  0  0  0  0
  6 24  1  0  0  0  0
  7  8  1  0  0  0  0
  7 25  1  0  0  0  0
  7 26  1  0  0  0  0
  8 27  1  0  0  0  0
  8 28  1  0  0  0  0
  9 10  1  0  0  0  0
 10 11  1  0  0  0  0
 10 29  1  0  0  0  0
 11 12  2  0  0  0  0
 11 13  1  0  0  0  0
 13 14  1  0  0  0  0
 13 30  1  0  0  0  0
 14 15  1  0  0  0  0
 14 16  1  0  0  0  0
 14 18  1  0  0  0  0
 15 31  1  0  0  0  0
 15 32  1  0  0  0  0
 15 33  1  0  0  0  0
 16 17  1  0  0  0  0
 16 34  1  0  0  0  0
 16 35  1  0  0  0  0
 17 36  1  0  0  0  0
 18 20  1  0  0  0  0
 18 19  1  0  0  0  0
 18 37  1  0  0  0  0
 19 20  1  0  0  0  0
 19 38  1  0  0  0  0
 19 39  1  0  0  0  0
 20 40  1  0  0  0  0
 20 41  1  0  0  0  0
M  END
> <s_m_source_file>
AV-unprocessed.smi

> <i_m_source_file_index>
3052

> <i_lp_mmshare_version>
43012

> <i_f3d_flags>
0

> <s_epik_input>
W0NIM11jMW5vYyhbQ0hdMltDSDJdW0NIMl0yKWMxW05IXUMoPU8pW05IXVtDQEBdKFtDSDNdKShbQ0gyXVtPSF0pW0NIXTNbQ0gyXVtDSDJdMw==

> <s_epik_cmdline>
J2VwaWtfcHl0aG9uJywgJy1waCcsICc3LjAnLCAnLXRuJywgJzgnLCAnLW1hJywgJzIwMCcsICctbWV0YWxfYmluZGluZycsICctaW1hZScsICc8aW5maWxlLm1hZT4nLCAnLW9tYWUnLCAnPG91dGZpbGUubWFlPic=

> <r_lp_tautomer_probability>
1

> <r_epik_Ionization_Penalty>
3.5887e-05

> <r_epik_Ionization_Penalty_Charging>
0

> <r_epik_Ionization_Penalty_Neutral>
3.5887e-05

> <r_epik_State_Penalty>
-0

> <r_epik_Charging_Adjusted_Penalty>
0

> <i_epik_Tot_Q>
0

> <i_epik_Tot_abs_Q>
0

> <r_epik_Metal_State_Penalty>
-0

> <b_epik_Metal_Only>
0

> <s_lp_Force_Field>
OPLS_2005

> <r_lp_Energy>
28.1978

> <b_lp_Chiralities_Consistent>
1

> <s_lp_Variant>
AV-unprocessed.smi:3052-2

> <Gold.Version>
5.8.1

> <Gold.Id.Protein>
6NUR|6NUR_protein|mol2

> <Gold.PLP.Fitness>
42.6418

> <Gold.PLP.PLP>
-30.0414

> <Gold.PLP.part.hbond>
-5.0000

> <Gold.PLP.part.metal>
0.0000

> <Gold.PLP.part.buried>
-2.3285

> <Gold.PLP.part.nonpolar>
-22.9462

> <Gold.PLP.part.repulsive>
0.0331

> <Gold.PLP.ligand.clash>
0.0000

> <Gold.PLP.ligand.torsion>
1.4869

> <Gold.PLP.Chemscore.Hbond>
4.5120

> <Gold.PLP.Chemscore.CHOScore>
0.0000

> <Gold.PLP.Chemscore.Metal>
0.0000

> <Gold.Chemscore.Hbonds>
donor molecule, donor type, donor heavy atom, donor atom, acceptor molecule, acceptor atom, score
      L1  H    10    29       P1  7948  0.93
      L1  H    13    30       P1  7948  1.00
      L1  H    17    36       P1  7948  0.61
      P1  H  6896  6908       L1     3  1.00
      P1  H  7954  7966       L1    17  1.00

> <Gold.PLP.Chemscore.Internal.Correction>
2.0383

> <Gold.Rescore>
     Score         DG    S(hbond)    S(metal)    S(lipo)     H(rot)  DE(clash)    DE(int)     intcor
     17.05     -20.25       3.79        0.00      65.24       2.16       0.06       3.15       ----

> <Gold.Chemscore.Fitness>
17.0477

> <Gold.Chemscore.DG>
-20.2513

> <Gold.Chemscore.ZeroCoef>
-5.4800

> <Gold.Chemscore.Hbond>
3.7905

> <Gold.Chemscore.Metal>
0.0000

> <Gold.Chemscore.Lipo>
65.2377

> <Gold.Chemscore.Internal_Hbond>
0.0000

> <Gold.Chemscore.DEClash>
0.0584

> <Gold.Chemscore.DEInternal>
3.1452

> <Gold.Chemscore.Rot>
2.1569

> <Gold.Chemscore.Internal.Correction>
   9.000000E+99

> <Gold.Chemscore.Hbonds>
donor molecule, donor type, donor heavy atom, donor atom, acceptor molecule, acceptor atom, score
      L1  H    10    29       P1  7948  0.74
      L1  H    13    30       P1  7948  0.97
      L1  H    17    36       P1  7948  0.59
      P1  H  6896  6908       L1     3  0.97
      P1  H  7954  7966       L1    17  0.27

> <Gold.Chemscore.Hbond.Weighted>
-12.6602

> <Gold.Chemscore.Metal.Weighted>
-0.0000

> <Gold.Chemscore.Lipo.Weighted>
-7.6328

> <Gold.Chemscore.Internal_Hbond.Weighted>
0.0000

> <Gold.Chemscore.DEClash.Weighted>
0.0584

> <Gold.Chemscore.DEInternal.Weighted>
3.1452

> <Gold.Chemscore.Rot.Weighted>
5.5218

> <Gold.Chemscore.Internal.Correction.Weighted>
   9.000000E+99

> <Gold.Protein.RotatedTorsions>
[ 6907 6896 6895 6894 ] final  126.76 input  -60.11 | X-H torsion
[ 7974 7965 7964 7962 ] final  123.21 input  175.53 | X-H torsion
[ 8008 7997 7996 7995 ] final  -52.84 input   59.86 | X-H torsion
[ 10167 10162 10161 10158 ] final  150.88 input  -65.29 | X-H torsion
[ 10718 10713 10712 10709 ] final  174.19 input   66.30 | X-H torsion
[ 10763 10752 10751 10750 ] final  -88.35 input  -60.55 | X-H torsion
[ 11005 11000 10999 10996 ] final -167.41 input  -57.11 | X-H torsion

> <Gold.Protein.ActiveResidues>
 VAL166  LYS551  ARG553  GLY616  TRP617  ASP618  TYR619  PRO620  LYS621  CYS622 
 ASP623  PHE694  ASN695  SER759  ASP760  ASP761  ALA762  ILE779  LEU786  VAL792 
 PHE793  MET794  SER795  GLU796  ALA797  LYS798  CYS799  TRP800  GLU811  SER814 

> <Gold.Protein.RotatedAtoms>
  152.3874  133.6631  159.6209 H   0  0  0  0  0  0  0  0  0  0  0  0  # atno 6907 bound_to 6896
  150.7790  133.9012  159.3350 H   0  0  0  0  0  0  0  0  0  0  0  0  # atno 6908 bound_to 6896
  151.6805  135.0964  160.0266 H   0  0  0  0  0  0  0  0  0  0  0  0  # atno 6909 bound_to 6896
  145.0986  139.3535  143.4823 H   0  0  0  0  0  0  0  0  0  0  0  0  # atno 7974 bound_to 7965
  154.4117  140.1214  156.5056 H   0  0  0  0  0  0  0  0  0  0  0  0  # atno 8008 bound_to 7997
  155.6851  140.3496  155.4851 H   0  0  0  0  0  0  0  0  0  0  0  0  # atno 8009 bound_to 7997
  155.9518  140.1106  157.0960 H   0  0  0  0  0  0  0  0  0  0  0  0  # atno 8010 bound_to 7997
  139.4846  144.5486  151.7440 H   0  0  0  0  0  0  0  0  0  0  0  0  # atno 10167 bound_to 10162
  156.9533  131.0038  151.2944 H   0  0  0  0  0  0  0  0  0  0  0  0  # atno 10718 bound_to 10713
  154.6436  135.5380  153.7818 H   0  0  0  0  0  0  0  0  0  0  0  0  # atno 10763 bound_to 10752
  153.0347  135.6465  154.1123 H   0  0  0  0  0  0  0  0  0  0  0  0  # atno 10764 bound_to 10752
  154.1046  135.2931  155.3224 H   0  0  0  0  0  0  0  0  0  0  0  0  # atno 10765 bound_to 10752
  140.5536  134.5404  157.5128 H   0  0  0  0  0  0  0  0  0  0  0  0  # atno 11005 bound_to 11000
  146.3530  140.0853  142.8615 LP  0  0  0  0  0  0  0  0  0  0  0  0  # atno 17320 bound_to 7965
  145.0982  140.9328  143.4728 LP  0  0  0  0  0  0  0  0  0  0  0  0  # atno 17321 bound_to 7965
  140.5037  144.1130  150.5977 LP  0  0  0  0  0  0  0  0  0  0  0  0  # atno 17342 bound_to 10162
  140.4032  143.2693  151.9922 LP  0  0  0  0  0  0  0  0  0  0  0  0  # atno 17343 bound_to 10162
  157.5707  130.8309  149.8388 LP  0  0  0  0  0  0  0  0  0  0  0  0  # atno 17370 bound_to 10713
  156.0353  130.3753  150.1576 LP  0  0  0  0  0  0  0  0  0  0  0  0  # atno 17371 bound_to 10713
  139.9443  134.7731  156.0601 LP  0  0  0  0  0  0  0  0  0  0  0  0  # atno 17394 bound_to 11000
  141.1157  133.6628  156.3088 LP  0  0  0  0  0  0  0  0  0  0  0  0  # atno 17395 bound_to 11000

$$$$
