AV-unprocessed.smi:204|AV-procd|sdf|1599|dock2
  -GOLD-   2262019503D 1   1.00000     0.00000
 Structure written by MMmdl.
 53 56  0  0  0  0  0  0  0  0  1 V2000
  148.1979  141.2959  153.7699 C   0  0  0  0  0  0  0  0  0  0  0  0
  148.6258  140.8778  155.1726 C   0  0  0  0  0  0  0  0  0  0  0  0
  148.5688  139.6958  155.5102 O   0  0  0  0  0  0  0  0  0  0  0  0
  149.0533  141.8583  155.9802 N   0  0  0  0  0  0  0  0  0  0  0  0
  149.5080  141.6568  157.3504 C   0  0  0  0  0  0  0  0  0  0  0  0
  150.8887  142.2945  157.5917 C   0  0  1  0  0  0  0  0  0  0  0  0
  150.9018  143.8121  157.3084 C   0  0  0  0  0  0  0  0  0  0  0  0
  152.2890  144.4047  157.5989 C   0  0  0  0  0  0  0  0  0  0  0  0
  152.7409  144.0779  159.0305 C   0  0  0  0  0  0  0  0  0  0  0  0
  152.6754  142.6370  159.2788 N   0  0  0  0  0  0  0  0  0  0  0  0
  153.3402  142.1490  160.3577 C   0  0  0  0  0  0  0  0  0  0  0  0
  153.2022  142.7526  161.5687 N   0  0  0  0  0  0  0  0  0  0  0  0
  153.8438  142.2757  162.6392 C   0  0  0  0  0  0  0  0  0  0  0  0
  154.6646  141.2274  162.7207 N   0  0  0  0  0  0  0  0  0  0  0  0
  154.8173  140.6219  161.5086 C   0  0  0  0  0  0  0  0  0  0  0  0
  154.1944  141.0114  160.2887 C   0  0  0  0  0  0  0  0  0  0  0  0
  154.5899  140.1589  159.2645 N   0  0  0  0  0  0  0  0  0  0  0  0
  155.3862  139.3060  159.8483 C   0  0  0  0  0  0  0  0  0  0  0  0
  155.5926  139.5192  161.1928 N   0  0  0  0  0  0  0  0  0  0  0  0
  156.4342  138.7283  162.0783 C   0  0  0  0  0  0  0  0  0  0  0  0
  155.8655  137.3327  162.4106 C   0  0  0  0  0  0  0  0  0  0  0  0
  155.7318  136.4784  161.1377 C   0  0  0  0  0  0  0  0  0  0  0  0
  155.1710  135.2117  161.4200 O   0  0  0  0  0  0  0  0  0  0  0  0
  156.5197  136.6024  163.5924 C   0  0  0  0  0  0  0  0  0  0  0  0
  155.2415  136.3402  164.2088 O   0  0  0  0  0  0  0  0  0  0  0  0
  154.6366  137.3125  163.3303 C   0  0  0  0  0  0  0  0  0  0  0  0
  151.3687  142.0271  159.0322 C   0  0  0  0  0  0  0  0  0  0  0  0
  148.9965  141.8504  153.2761 H   0  0  0  0  0  0  0  0  0  0  0  0
  147.3125  141.9302  153.8162 H   0  0  0  0  0  0  0  0  0  0  0  0
  147.9621  140.4232  153.1598 H   0  0  0  0  0  0  0  0  0  0  0  0
  149.0651  142.8031  155.6246 H   0  0  0  0  0  0  0  0  0  0  0  0
  148.7739  142.0764  158.0402 H   0  0  0  0  0  0  0  0  0  0  0  0
  149.5573  140.5851  157.5517 H   0  0  0  0  0  0  0  0  0  0  0  0
  151.5986  141.8173  156.9137 H   0  0  0  0  0  0  0  0  0  0  0  0
  150.6327  144.0149  156.2716 H   0  0  0  0  0  0  0  0  0  0  0  0
  150.1545  144.3103  157.9275 H   0  0  0  0  0  0  0  0  0  0  0  0
  153.0128  144.0029  156.8885 H   0  0  0  0  0  0  0  0  0  0  0  0
  152.2745  145.4846  157.4493 H   0  0  0  0  0  0  0  0  0  0  0  0
  153.7591  144.4402  159.1791 H   0  0  0  0  0  0  0  0  0  0  0  0
  152.1041  144.5966  159.7490 H   0  0  0  0  0  0  0  0  0  0  0  0
  153.6755  142.8107  163.5622 H   0  0  0  0  0  0  0  0  0  0  0  0
  155.8580  138.4980  159.3080 H   0  0  0  0  0  0  0  0  0  0  0  0
  157.4155  138.6379  161.6107 H   0  0  0  0  0  0  0  0  0  0  0  0
  156.6017  139.3023  162.9904 H   0  0  0  0  0  0  0  0  0  0  0  0
  155.1299  136.9770  160.3782 H   0  0  0  0  0  0  0  0  0  0  0  0
  156.7099  136.3142  160.6841 H   0  0  0  0  0  0  0  0  0  0  0  0
  155.8449  134.6599  161.7870 H   0  0  0  0  0  0  0  0  0  0  0  0
  157.0500  135.6908  163.3149 H   0  0  0  0  0  0  0  0  0  0  0  0
  157.1414  137.2374  164.2242 H   0  0  0  0  0  0  0  0  0  0  0  0
  154.4491  138.2583  163.8415 H   0  0  0  0  0  0  0  0  0  0  0  0
  153.7282  136.9415  162.8541 H   0  0  0  0  0  0  0  0  0  0  0  0
  150.6542  142.4410  159.7451 H   0  0  0  0  0  0  0  0  0  0  0  0
  151.3925  140.9526  159.2096 H   0  0  0  0  0  0  0  0  0  0  0  0
  1  2  1  0  0  0  0
  1 28  1  0  0  0  0
  1 29  1  0  0  0  0
  1 30  1  0  0  0  0
  2  3  2  0  0  0  0
  2  4  1  0  0  0  0
  4  5  1  0  0  0  0
  4 31  1  0  0  0  0
  5  6  1  0  0  0  0
  5 32  1  0  0  0  0
  5 33  1  0  0  0  0
  6 27  1  0  0  0  0
  6  7  1  0  0  0  0
  6 34  1  0  0  0  0
  7  8  1  0  0  0  0
  7 35  1  0  0  0  0
  7 36  1  0  0  0  0
  8  9  1  0  0  0  0
  8 37  1  0  0  0  0
  8 38  1  0  0  0  0
  9 10  1  0  0  0  0
  9 39  1  0  0  0  0
  9 40  1  0  0  0  0
 10 11  1  0  0  0  0
 10 27  1  0  0  0  0
 11 16  1  0  0  0  0
 11 12  2  0  0  0  0
 12 13  1  0  0  0  0
 13 14  2  0  0  0  0
 13 41  1  0  0  0  0
 14 15  1  0  0  0  0
 15 19  1  0  0  0  0
 15 16  2  0  0  0  0
 16 17  1  0  0  0  0
 17 18  2  0  0  0  0
 18 19  1  0  0  0  0
 18 42  1  0  0  0  0
 19 20  1  0  0  0  0
 20 21  1  0  0  0  0
 20 43  1  0  0  0  0
 20 44  1  0  0  0  0
 21 26  1  0  0  0  0
 21 22  1  0  0  0  0
 21 24  1  0  0  0  0
 22 23  1  0  0  0  0
 22 45  1  0  0  0  0
 22 46  1  0  0  0  0
 23 47  1  0  0  0  0
 24 25  1  0  0  0  0
 24 48  1  0  0  0  0
 24 49  1  0  0  0  0
 25 26  1  0  0  0  0
 26 50  1  0  0  0  0
 26 51  1  0  0  0  0
 27 52  1  0  0  0  0
 27 53  1  0  0  0  0
M  END
> <s_m_source_file>
AV-unprocessed.smi

> <i_m_source_file_index>
204

> <i_lp_mmshare_version>
43012

> <i_f3d_flags>
0

> <s_epik_input>
W0NIM11DKD1PKVtOSF1bQ0gyXVtDQEBIXTFbQ0gyXVtDSDJdW0NIMl1OKFtDSDJdMSljKG5bY0hdbjIpYyhjMjMpbltjSF1uM1tDSDJdQzQoW0NIMl1bT0hdKVtDSDJdT1tDSDJdNA==

> <s_epik_cmdline>
J2VwaWtfcHl0aG9uJywgJy1waCcsICc3LjAnLCAnLXRuJywgJzgnLCAnLW1hJywgJzIwMCcsICctbWV0YWxfYmluZGluZycsICctaW1hZScsICc8aW5maWxlLm1hZT4nLCAnLW9tYWUnLCAnPG91dGZpbGUubWFlPic=

> <r_lp_tautomer_probability>
1

> <r_epik_Ionization_Penalty>
0.00166599

> <r_epik_Ionization_Penalty_Charging>
0

> <r_epik_Ionization_Penalty_Neutral>
0.00166599

> <r_epik_State_Penalty>
0.000989951

> <r_epik_Charging_Adjusted_Penalty>
0.000989951

> <i_epik_Tot_Q>
0

> <i_epik_Tot_abs_Q>
0

> <r_epik_Metal_State_Penalty>
-0

> <b_epik_Metal_Only>
0

> <s_lp_Force_Field>
OPLS_2005

> <r_lp_Energy>
35.563

> <b_lp_Chiralities_Consistent>
1

> <s_lp_Variant>
AV-unprocessed.smi:204-2

> <Gold.Version>
5.8.1

> <Gold.Id.Protein>
6NUR|6NUR_protein|mol2

> <Gold.PLP.Fitness>
48.1247

> <Gold.PLP.PLP>
-43.0046

> <Gold.PLP.part.hbond>
-3.0000

> <Gold.PLP.part.metal>
0.0000

> <Gold.PLP.part.buried>
-1.8241

> <Gold.PLP.part.nonpolar>
-37.6785

> <Gold.PLP.part.repulsive>
0.2260

> <Gold.PLP.ligand.clash>
0.0000

> <Gold.PLP.ligand.torsion>
0.8438

> <Gold.PLP.Chemscore.Hbond>
1.9920

> <Gold.PLP.Chemscore.CHOScore>
0.0000

> <Gold.PLP.Chemscore.Metal>
0.0000

> <Gold.Chemscore.Hbonds>
donor molecule, donor type, donor heavy atom, donor atom, acceptor molecule, acceptor atom, score
      L1  H     4    31       P1  8028  1.00
      P1  H  7997  8010       L1    17  0.94

> <Gold.PLP.Chemscore.Internal.Correction>
0.8317

> <Gold.Rescore>
     Score         DG    S(hbond)    S(metal)    S(lipo)     H(rot)  DE(clash)    DE(int)     intcor
     11.40     -13.36       1.52        0.00      96.71       3.33       0.05       1.92       ----

> <Gold.Chemscore.Fitness>
11.3964

> <Gold.Chemscore.DG>
-13.3639

> <Gold.Chemscore.ZeroCoef>
-5.4800

> <Gold.Chemscore.Hbond>
1.5222

> <Gold.Chemscore.Metal>
0.0000

> <Gold.Chemscore.Lipo>
96.7073

> <Gold.Chemscore.Internal_Hbond>
0.0000

> <Gold.Chemscore.DEClash>
0.0482

> <Gold.Chemscore.DEInternal>
1.9193

> <Gold.Chemscore.Rot>
3.3261

> <Gold.Chemscore.Internal.Correction>
   9.000000E+99

> <Gold.Chemscore.Hbonds>
donor molecule, donor type, donor heavy atom, donor atom, acceptor molecule, acceptor atom, score
      L1  H     4    31       P1  8028  0.99
      P1  H  7997  8010       L1    17  0.35

> <Gold.Chemscore.Hbond.Weighted>
-5.0840

> <Gold.Chemscore.Metal.Weighted>
-0.0000

> <Gold.Chemscore.Lipo.Weighted>
-11.3148

> <Gold.Chemscore.Internal_Hbond.Weighted>
0.0000

> <Gold.Chemscore.DEClash.Weighted>
0.0482

> <Gold.Chemscore.DEInternal.Weighted>
1.9193

> <Gold.Chemscore.Rot.Weighted>
8.5149

> <Gold.Chemscore.Internal.Correction.Weighted>
   9.000000E+99

> <Gold.Protein.RotatedTorsions>
[ 6907 6896 6895 6894 ] final  134.57 input  -60.11 | X-H torsion
[ 7974 7965 7964 7962 ] final   82.32 input  175.53 | X-H torsion
[ 8008 7997 7996 7995 ] final   -2.31 input   59.86 | X-H torsion
[ 10167 10162 10161 10158 ] final   16.86 input  -65.29 | X-H torsion
[ 10718 10713 10712 10709 ] final  151.20 input   66.30 | X-H torsion
[ 10763 10752 10751 10750 ] final  -63.11 input  -60.55 | X-H torsion
[ 11005 11000 10999 10996 ] final  -13.79 input  -57.11 | X-H torsion

> <Gold.Protein.ActiveResidues>
 VAL166  LYS551  ARG553  GLY616  TRP617  ASP618  TYR619  PRO620  LYS621  CYS622 
 ASP623  PHE694  ASN695  SER759  ASP760  ASP761  ALA762  ILE779  LEU786  VAL792 
 PHE793  MET794  SER795  GLU796  ALA797  LYS798  CYS799  TRP800  GLU811  SER814 

> <Gold.Protein.RotatedAtoms>
  152.3099  133.5742  159.5673 H   0  0  0  0  0  0  0  0  0  0  0  0  # atno 6907 bound_to 6896
  150.7318  134.0168  159.3697 H   0  0  0  0  0  0  0  0  0  0  0  0  # atno 6908 bound_to 6896
  151.8061  135.0695  160.0457 H   0  0  0  0  0  0  0  0  0  0  0  0  # atno 6909 bound_to 6896
  145.6265  139.2396  143.2108 H   0  0  0  0  0  0  0  0  0  0  0  0  # atno 7974 bound_to 7965
  154.6371  140.2537  155.7365 H   0  0  0  0  0  0  0  0  0  0  0  0  # atno 8008 bound_to 7997
  156.2510  140.2895  156.0669 H   0  0  0  0  0  0  0  0  0  0  0  0  # atno 8009 bound_to 7997
  155.1653  140.0385  157.2842 H   0  0  0  0  0  0  0  0  0  0  0  0  # atno 8010 bound_to 7997
  140.5767  143.9059  150.6756 H   0  0  0  0  0  0  0  0  0  0  0  0  # atno 10167 bound_to 10162
  157.2738  131.0822  151.1581 H   0  0  0  0  0  0  0  0  0  0  0  0  # atno 10718 bound_to 10713
  154.3100  135.6217  153.5461 H   0  0  0  0  0  0  0  0  0  0  0  0  # atno 10763 bound_to 10752
  152.9830  135.5699  154.5187 H   0  0  0  0  0  0  0  0  0  0  0  0  # atno 10764 bound_to 10752
  154.4835  135.2864  155.1528 H   0  0  0  0  0  0  0  0  0  0  0  0  # atno 10765 bound_to 10752
  140.7797  133.8372  155.9281 H   0  0  0  0  0  0  0  0  0  0  0  0  # atno 11005 bound_to 11000
  146.1390  140.7084  142.9376 LP  0  0  0  0  0  0  0  0  0  0  0  0  # atno 17320 bound_to 7965
  144.7210  140.4373  143.7008 LP  0  0  0  0  0  0  0  0  0  0  0  0  # atno 17321 bound_to 7965
  140.2548  143.3567  152.1375 LP  0  0  0  0  0  0  0  0  0  0  0  0  # atno 17342 bound_to 10162
  139.5147  144.6951  151.5652 LP  0  0  0  0  0  0  0  0  0  0  0  0  # atno 17343 bound_to 10162
  157.3042  130.6858  149.6180 LP  0  0  0  0  0  0  0  0  0  0  0  0  # atno 17370 bound_to 10713
  155.9663  130.4383  150.5210 LP  0  0  0  0  0  0  0  0  0  0  0  0  # atno 17371 bound_to 10713
  140.9494  134.1798  157.4739 LP  0  0  0  0  0  0  0  0  0  0  0  0  # atno 17394 bound_to 11000
  139.8744  134.9903  156.5497 LP  0  0  0  0  0  0  0  0  0  0  0  0  # atno 17395 bound_to 11000

$$$$
