AV-unprocessed.smi:800|AV-procd|sdf|3788|dock9
  -GOLD-   22720 1223D 1   1.00000     0.00000
 Structure written by MMmdl.
 35 36  0  0  0  0  0  0  0  0  2 V2000
  157.3834  140.1414  159.6854 C   0  0  0  0  0  0  0  0  0  0  0  0
  156.3924  138.9821  159.4983 C   0  0  0  0  0  0  0  0  0  0  0  0
  156.7806  138.0984  158.3049 C   0  0  0  0  0  0  0  0  0  0  0  0
  155.0508  139.5193  159.2750 N   0  5  0  0  0  0  0  0  0  0  0  0
  154.3373  140.2167  160.2042 C   0  0  0  0  0  0  0  0  0  0  0  0
  154.4519  140.2472  161.4346 O   0  0  0  0  0  0  0  0  0  0  0  0
  153.2167  141.0011  159.5831 C   0  0  0  0  0  0  0  0  0  0  0  0
  152.7896  140.5804  158.3696 N   0  0  0  0  0  0  0  0  0  0  0  0
  151.7962  141.2493  157.7731 C   0  0  0  0  0  0  0  0  0  0  0  0
  151.3820  140.8029  156.5112 N   0  0  0  0  0  0  0  0  0  0  0  0
  152.1452  139.8196  155.7392 C   0  0  0  0  0  0  0  0  0  0  0  0
  151.2046  138.9319  154.9066 C   0  0  0  0  0  0  0  0  0  0  0  0
  150.3761  139.7440  154.0837 O   0  0  0  0  0  0  0  0  0  0  0  0
  149.5532  140.6060  154.8605 C   0  0  0  0  0  0  0  0  0  0  0  0
  150.4317  141.5574  155.6900 C   0  0  0  0  0  0  0  0  0  0  0  0
  151.1704  142.3131  158.2918 N   0  0  0  0  0  0  0  0  0  0  0  0
  151.5660  142.7408  159.5089 C   0  0  0  0  0  0  0  0  0  0  0  0
  152.6011  142.1089  160.2229 C   0  0  0  0  0  0  0  0  0  0  0  0
  153.0283  142.6733  161.8030 Cl  0  0  0  0  0  0  0  0  0  0  0  0
  158.3947  139.7678  159.8468 H   0  0  0  0  0  0  0  0  0  0  0  0
  157.1190  140.7526  160.5491 H   0  0  0  0  0  0  0  0  0  0  0  0
  157.4058  140.7928  158.8108 H   0  0  0  0  0  0  0  0  0  0  0  0
  156.4338  138.3576  160.3920 H   0  0  0  0  0  0  0  0  0  0  0  0
  157.7763  137.6756  158.4406 H   0  0  0  0  0  0  0  0  0  0  0  0
  156.7851  138.6641  157.3726 H   0  0  0  0  0  0  0  0  0  0  0  0
  156.0849  137.2666  158.1874 H   0  0  0  0  0  0  0  0  0  0  0  0
  152.8358  140.3518  155.0842 H   0  0  0  0  0  0  0  0  0  0  0  0
  152.7485  139.1735  156.3762 H   0  0  0  0  0  0  0  0  0  0  0  0
  151.7854  138.2620  154.2727 H   0  0  0  0  0  0  0  0  0  0  0  0
  150.5896  138.3036  155.5531 H   0  0  0  0  0  0  0  0  0  0  0  0
  148.9099  141.1779  154.1916 H   0  0  0  0  0  0  0  0  0  0  0  0
  148.8980  140.0194  155.5068 H   0  0  0  0  0  0  0  0  0  0  0  0
  149.7785  142.1922  156.2880 H   0  0  0  0  0  0  0  0  0  0  0  0
  150.9932  142.2185  155.0292 H   0  0  0  0  0  0  0  0  0  0  0  0
  151.0409  143.5897  159.9210 H   0  0  0  0  0  0  0  0  0  0  0  0
  1  2  1  0  0  0  0
  1 20  1  0  0  0  0
  1 21  1  0  0  0  0
  1 22  1  0  0  0  0
  2  3  1  0  0  0  0
  2  4  1  0  0  0  0
  2 23  1  0  0  0  0
  3 24  1  0  0  0  0
  3 25  1  0  0  0  0
  3 26  1  0  0  0  0
  4  5  1  0  0  0  0
  5  6  2  0  0  0  0
  5  7  1  0  0  0  0
  7 18  1  0  0  0  0
  7  8  2  0  0  0  0
  8  9  1  0  0  0  0
  9 10  1  0  0  0  0
  9 16  2  0  0  0  0
 10 15  1  0  0  0  0
 10 11  1  0  0  0  0
 11 12  1  0  0  0  0
 11 27  1  0  0  0  0
 11 28  1  0  0  0  0
 12 13  1  0  0  0  0
 12 29  1  0  0  0  0
 12 30  1  0  0  0  0
 13 14  1  0  0  0  0
 14 15  1  0  0  0  0
 14 31  1  0  0  0  0
 14 32  1  0  0  0  0
 15 33  1  0  0  0  0
 15 34  1  0  0  0  0
 16 17  1  0  0  0  0
 17 18  2  0  0  0  0
 17 35  1  0  0  0  0
 18 19  1  0  0  0  0
M  CHG  1   4  -1
M  END
> <s_m_source_file>
AV-unprocessed.smi

> <i_m_source_file_index>
800

> <i_lp_mmshare_version>
43012

> <i_f3d_flags>
0

> <s_epik_input>
W0NIM11bQ0hdKFtDSDNdKVtOSF1DKD1PKWMxbmMobltjSF1jMUNsKU4yW0NIMl1bQ0gyXU9bQ0gyXVtDSDJdMg==

> <s_epik_cmdline>
J2VwaWtfcHl0aG9uJywgJy1waCcsICc3LjAnLCAnLXRuJywgJzgnLCAnLW1hJywgJzIwMCcsICctbWV0YWxfYmluZGluZycsICctaW1hZScsICc8aW5maWxlLm1hZT4nLCAnLW9tYWUnLCAnPG91dGZpbGUubWFlPic=

> <r_lp_tautomer_probability>
1

> <r_epik_Ionization_Penalty>
6.38192

> <r_epik_Ionization_Penalty_Charging>
6.38189

> <r_epik_Ionization_Penalty_Neutral>
2.33077e-05

> <r_epik_State_Penalty>
6.38188

> <r_epik_Charging_Adjusted_Penalty>
12.7638

> <i_epik_Tot_Q>
-1

> <i_epik_Tot_abs_Q>
1

> <r_epik_Metal_State_Penalty>
2.31349

> <b_epik_Metal_Only>
1

> <s_lp_Force_Field>
OPLS_2005

> <r_lp_Energy>
18.4653

> <b_lp_Chiralities_Consistent>
1

> <s_lp_Variant>
AV-unprocessed.smi:800-2

> <Gold.Version>
5.8.1

> <Gold.Id.Protein>
6NUR|6NUR_protein|mol2

> <Gold.PLP.Fitness>
45.6065

> <Gold.PLP.PLP>
-37.2992

> <Gold.PLP.part.hbond>
-2.8160

> <Gold.PLP.part.metal>
0.0000

> <Gold.PLP.part.buried>
-4.0535

> <Gold.PLP.part.nonpolar>
-30.4077

> <Gold.PLP.part.repulsive>
0.6511

> <Gold.PLP.ligand.clash>
0.0000

> <Gold.PLP.ligand.torsion>
0.3954

> <Gold.PLP.Chemscore.Hbond>
3.0000

> <Gold.PLP.Chemscore.CHOScore>
0.0000

> <Gold.PLP.Chemscore.Metal>
0.0000

> <Gold.Chemscore.Hbonds>
donor molecule, donor type, donor heavy atom, donor atom, acceptor molecule, acceptor atom, score
      P1  H  7989  7998       L1    13  0.95
      P1  H  7997  8009       L1     4  1.90

> <Gold.PLP.Chemscore.Internal.Correction>
0.0981

> <Gold.Rescore>
     Score         DG    S(hbond)    S(metal)    S(lipo)     H(rot)  DE(clash)    DE(int)     intcor
     12.69     -14.53       0.54        0.00      83.70       1.00       0.07       1.77       ----

> <Gold.Chemscore.Fitness>
12.6943

> <Gold.Chemscore.DG>
-14.5302

> <Gold.Chemscore.ZeroCoef>
-5.4800

> <Gold.Chemscore.Hbond>
0.5440

> <Gold.Chemscore.Metal>
0.0000

> <Gold.Chemscore.Lipo>
83.7024

> <Gold.Chemscore.Internal_Hbond>
0.0000

> <Gold.Chemscore.DEClash>
0.0701

> <Gold.Chemscore.DEInternal>
1.7658

> <Gold.Chemscore.Rot>
1.0000

> <Gold.Chemscore.Internal.Correction>
   9.000000E+99

> <Gold.Chemscore.Hbonds>
donor molecule, donor type, donor heavy atom, donor atom, acceptor molecule, acceptor atom, score
      P1  H  7989  7998       L1    13  0.07
      P1  H  7997  8009       L1     4  0.21

> <Gold.Chemscore.Hbond.Weighted>
-1.8171

> <Gold.Chemscore.Metal.Weighted>
-0.0000

> <Gold.Chemscore.Lipo.Weighted>
-9.7932

> <Gold.Chemscore.Internal_Hbond.Weighted>
0.0000

> <Gold.Chemscore.DEClash.Weighted>
0.0701

> <Gold.Chemscore.DEInternal.Weighted>
1.7658

> <Gold.Chemscore.Rot.Weighted>
2.5600

> <Gold.Chemscore.Internal.Correction.Weighted>
   9.000000E+99

> <Gold.Protein.RotatedTorsions>
[ 6907 6896 6895 6894 ] final  127.09 input  -60.11 | X-H torsion
[ 7974 7965 7964 7962 ] final -100.30 input  175.53 | X-H torsion
[ 8008 7997 7996 7995 ] final  113.52 input   59.86 | X-H torsion
[ 10167 10162 10161 10158 ] final -172.58 input  -65.29 | X-H torsion
[ 10718 10713 10712 10709 ] final   75.78 input   66.30 | X-H torsion
[ 10763 10752 10751 10750 ] final   18.94 input  -60.55 | X-H torsion
[ 11005 11000 10999 10996 ] final -175.14 input  -57.11 | X-H torsion

> <Gold.Protein.ActiveResidues>
 VAL166  LYS551  ARG553  GLY616  TRP617  ASP618  TYR619  PRO620  LYS621  CYS622 
 ASP623  PHE694  ASN695  SER759  ASP760  ASP761  ALA762  ILE779  LEU786  VAL792 
 PHE793  MET794  SER795  GLU796  ALA797  LYS798  CYS799  TRP800  GLU811  SER814 

> <Gold.Protein.RotatedAtoms>
  152.3844  133.6591  159.6186 H   0  0  0  0  0  0  0  0  0  0  0  0  # atno 6907 bound_to 6896
  150.7767  133.9059  159.3364 H   0  0  0  0  0  0  0  0  0  0  0  0  # atno 6908 bound_to 6896
  151.6859  135.0956  160.0276 H   0  0  0  0  0  0  0  0  0  0  0  0  # atno 6909 bound_to 6896
  145.2964  140.9366  143.2848 H   0  0  0  0  0  0  0  0  0  0  0  0  # atno 7974 bound_to 7965
  156.2263  140.2978  156.0075 H   0  0  0  0  0  0  0  0  0  0  0  0  # atno 8008 bound_to 7997
  155.2347  140.0420  157.2984 H   0  0  0  0  0  0  0  0  0  0  0  0  # atno 8009 bound_to 7997
  154.5921  140.2404  155.7915 H   0  0  0  0  0  0  0  0  0  0  0  0  # atno 8010 bound_to 7997
  139.5736  144.1584  152.1419 H   0  0  0  0  0  0  0  0  0  0  0  0  # atno 10167 bound_to 10162
  157.6648  130.9743  150.1403 H   0  0  0  0  0  0  0  0  0  0  0  0  # atno 10718 bound_to 10713
  153.1205  135.6718  153.9344 H   0  0  0  0  0  0  0  0  0  0  0  0  # atno 10763 bound_to 10752
  153.8861  135.3052  155.3448 H   0  0  0  0  0  0  0  0  0  0  0  0  # atno 10764 bound_to 10752
  154.7617  135.4985  153.9555 H   0  0  0  0  0  0  0  0  0  0  0  0  # atno 10765 bound_to 10752
  140.4666  134.6204  157.4865 H   0  0  0  0  0  0  0  0  0  0  0  0  # atno 11005 bound_to 11000
  144.9130  139.4505  143.6578 LP  0  0  0  0  0  0  0  0  0  0  0  0  # atno 17320 bound_to 7965
  146.3167  139.7948  142.8978 LP  0  0  0  0  0  0  0  0  0  0  0  0  # atno 17321 bound_to 7965
  140.1122  144.5447  150.6918 LP  0  0  0  0  0  0  0  0  0  0  0  0  # atno 17342 bound_to 10162
  140.7020  143.2441  151.4837 LP  0  0  0  0  0  0  0  0  0  0  0  0  # atno 17343 bound_to 10162
  156.2227  130.3675  149.8536 LP  0  0  0  0  0  0  0  0  0  0  0  0  # atno 17370 bound_to 10713
  156.6385  130.8695  151.3509 LP  0  0  0  0  0  0  0  0  0  0  0  0  # atno 17371 bound_to 10713
  139.9911  134.6984  155.9688 LP  0  0  0  0  0  0  0  0  0  0  0  0  # atno 17394 bound_to 11000
  141.1596  133.6540  156.4275 LP  0  0  0  0  0  0  0  0  0  0  0  0  # atno 17395 bound_to 11000

$$$$
