AV-unprocessed.smi:213|AV-procd|sdf|1646|dock8
  -GOLD-   2262020 23D 1   1.00000     0.00000
 Structure written by MMmdl.
 58 61  0  0  0  0  0  0  0  0  1 V2000
  151.7138  139.6310  155.8004 C   0  0  0  0  0  0  0  0  0  0  0  0
  151.8513  139.9945  157.2930 C   0  0  1  0  0  0  0  0  0  0  0  0
  151.1656  141.3377  157.6437 C   0  0  0  0  0  0  0  0  0  0  0  0
  151.9932  142.3102  158.3598 N   0  0  0  0  0  0  0  0  0  0  0  0
  152.2553  141.8631  159.7236 C   0  0  0  0  0  0  0  0  0  0  0  0
  153.1446  142.8524  160.4945 C   0  0  0  0  0  0  0  0  0  0  0  0
  152.5304  144.1361  160.4985 O   0  0  0  0  0  0  0  0  0  0  0  0
  152.3022  144.6352  159.1850 C   0  0  0  0  0  0  0  0  0  0  0  0
  151.4189  143.6515  158.3971 C   0  0  0  0  0  0  0  0  0  0  0  0
  151.3210  138.9059  158.1193 N   0  0  0  0  0  0  0  0  0  0  0  0
  152.2212  137.9818  158.8069 C   0  0  0  0  0  0  0  0  0  0  0  0
  149.9949  138.6004  158.1081 C   0  0  0  0  0  0  0  0  0  0  0  0
  149.1565  139.4574  157.4661 N   0  0  0  0  0  0  0  0  0  0  0  0
  147.8444  139.2136  157.4097 C   0  0  0  0  0  0  0  0  0  0  0  0
  147.1642  138.1887  157.9240 N   0  0  0  0  0  0  0  0  0  0  0  0
  147.9924  137.3289  158.5816 C   0  0  0  0  0  0  0  0  0  0  0  0
  149.4053  137.4538  158.7231 C   0  0  0  0  0  0  0  0  0  0  0  0
  149.8877  136.3879  159.4760 N   0  0  0  0  0  0  0  0  0  0  0  0
  148.8318  135.6733  159.7495 C   0  0  0  0  0  0  0  0  0  0  0  0
  147.6499  136.1678  159.2509 N   0  0  0  0  0  0  0  0  0  0  0  0
  146.3277  135.5866  159.4035 C   0  0  0  0  0  0  0  0  0  0  0  0
  145.5036  136.2776  160.5079 C   0  0  2  0  0  0  0  0  0  0  0  0
  145.3425  137.6455  160.1820 O   0  0  0  0  0  0  0  0  0  0  0  0
  146.1755  136.1719  161.8895 C   0  0  1  0  0  0  0  0  0  0  0  0
  146.8167  134.8161  162.1800 C   0  0  0  0  0  0  0  0  0  0  0  0
  147.7807  135.1592  163.2959 C   0  0  0  0  0  0  0  0  0  0  0  0
  148.2001  136.5922  162.9624 C   0  0  0  0  0  0  0  0  0  0  0  0
  147.2819  137.0609  161.9777 O   0  0  0  0  0  0  0  0  0  0  0  0
  152.1718  140.3751  155.1517 H   0  0  0  0  0  0  0  0  0  0  0  0
  150.6705  139.5427  155.4973 H   0  0  0  0  0  0  0  0  0  0  0  0
  152.2005  138.6785  155.5878 H   0  0  0  0  0  0  0  0  0  0  0  0
  152.9202  140.0791  157.4863 H   0  0  0  0  0  0  0  0  0  0  0  0
  150.7458  141.7899  156.7441 H   0  0  0  0  0  0  0  0  0  0  0  0
  150.3062  141.1150  158.2785 H   0  0  0  0  0  0  0  0  0  0  0  0
  151.3128  141.7351  160.2582 H   0  0  0  0  0  0  0  0  0  0  0  0
  152.7388  140.8858  159.7068 H   0  0  0  0  0  0  0  0  0  0  0  0
  153.2808  142.5189  161.5232 H   0  0  0  0  0  0  0  0  0  0  0  0
  154.1360  142.9145  160.0426 H   0  0  0  0  0  0  0  0  0  0  0  0
  151.8174  145.6091  159.2529 H   0  0  0  0  0  0  0  0  0  0  0  0
  153.2559  144.7870  158.6772 H   0  0  0  0  0  0  0  0  0  0  0  0
  151.3062  144.0378  157.3855 H   0  0  0  0  0  0  0  0  0  0  0  0
  150.4231  143.6174  158.8414 H   0  0  0  0  0  0  0  0  0  0  0  0
  151.8935  136.9486  158.6843 H   0  0  0  0  0  0  0  0  0  0  0  0
  152.2541  138.2099  159.8726 H   0  0  0  0  0  0  0  0  0  0  0  0
  153.2351  138.0511  158.4135 H   0  0  0  0  0  0  0  0  0  0  0  0
  147.2559  139.9446  156.8753 H   0  0  0  0  0  0  0  0  0  0  0  0
  148.8872  134.7646  160.3309 H   0  0  0  0  0  0  0  0  0  0  0  0
  145.8141  135.6615  158.4443 H   0  0  0  0  0  0  0  0  0  0  0  0
  146.4359  134.5221  159.6158 H   0  0  0  0  0  0  0  0  0  0  0  0
  144.5124  135.8244  160.5545 H   0  0  0  0  0  0  0  0  0  0  0  0
  145.5804  138.1635  160.9356 H   0  0  0  0  0  0  0  0  0  0  0  0
  145.4670  136.4216  162.6818 H   0  0  0  0  0  0  0  0  0  0  0  0
  146.0925  134.0521  162.4644 H   0  0  0  0  0  0  0  0  0  0  0  0
  147.3669  134.4584  161.3083 H   0  0  0  0  0  0  0  0  0  0  0  0
  147.2617  135.1370  164.2551 H   0  0  0  0  0  0  0  0  0  0  0  0
  148.6252  134.4716  163.3522 H   0  0  0  0  0  0  0  0  0  0  0  0
  148.1705  137.2283  163.8475 H   0  0  0  0  0  0  0  0  0  0  0  0
  149.2101  136.6273  162.5532 H   0  0  0  0  0  0  0  0  0  0  0  0
  1  2  1  0  0  0  0
  1 29  1  0  0  0  0
  1 30  1  0  0  0  0
  1 31  1  0  0  0  0
  2  3  1  0  0  0  0
  2 10  1  0  0  0  0
  2 32  1  0  0  0  0
  3  4  1  0  0  0  0
  3 33  1  0  0  0  0
  3 34  1  0  0  0  0
  4  9  1  0  0  0  0
  4  5  1  0  0  0  0
  5  6  1  0  0  0  0
  5 35  1  0  0  0  0
  5 36  1  0  0  0  0
  6  7  1  0  0  0  0
  6 37  1  0  0  0  0
  6 38  1  0  0  0  0
  7  8  1  0  0  0  0
  8  9  1  0  0  0  0
  8 39  1  0  0  0  0
  8 40  1  0  0  0  0
  9 41  1  0  0  0  0
  9 42  1  0  0  0  0
 10 11  1  0  0  0  0
 10 12  1  0  0  0  0
 11 43  1  0  0  0  0
 11 44  1  0  0  0  0
 11 45  1  0  0  0  0
 12 17  1  0  0  0  0
 12 13  2  0  0  0  0
 13 14  1  0  0  0  0
 14 15  2  0  0  0  0
 14 46  1  0  0  0  0
 15 16  1  0  0  0  0
 16 20  1  0  0  0  0
 16 17  2  0  0  0  0
 17 18  1  0  0  0  0
 18 19  2  0  0  0  0
 19 20  1  0  0  0  0
 19 47  1  0  0  0  0
 20 21  1  0  0  0  0
 21 22  1  0  0  0  0
 21 48  1  0  0  0  0
 21 49  1  0  0  0  0
 22 23  1  0  0  0  0
 22 24  1  0  0  0  0
 22 50  1  0  0  0  0
 23 51  1  0  0  0  0
 24 28  1  0  0  0  0
 24 25  1  0  0  0  0
 24 52  1  0  0  0  0
 25 26  1  0  0  0  0
 25 53  1  0  0  0  0
 25 54  1  0  0  0  0
 26 27  1  0  0  0  0
 26 55  1  0  0  0  0
 26 56  1  0  0  0  0
 27 28  1  0  0  0  0
 27 57  1  0  0  0  0
 27 58  1  0  0  0  0
M  END
> <s_m_source_file>
AV-unprocessed.smi

> <i_m_source_file_index>
213

> <i_lp_mmshare_version>
43012

> <i_f3d_flags>
0

> <s_epik_input>
W0NIMl0xW0NIMl1PW0NIMl1bQ0gyXU4xW0NIMl1bQ0BASF0oW0NIM10pTihbQ0gzXSljKG5bY0hdbjIpYyhjMjMpbltjSF1uM1tDSDJdW0NASF0oW09IXSlbQ0BASF00W0NIMl1bQ0gyXVtDSDJdTzQ=

> <s_epik_cmdline>
J2VwaWtfcHl0aG9uJywgJy1waCcsICc3LjAnLCAnLXRuJywgJzgnLCAnLW1hJywgJzIwMCcsICctbWV0YWxfYmluZGluZycsICctaW1hZScsICc8aW5maWxlLm1hZT4nLCAnLW9tYWUnLCAnPG91dGZpbGUubWFlPic=

> <r_lp_tautomer_probability>
1

> <r_epik_Ionization_Penalty>
0.423322

> <r_epik_Ionization_Penalty_Charging>
0

> <r_epik_Ionization_Penalty_Neutral>
0.423322

> <r_epik_State_Penalty>
0.569486

> <r_epik_Charging_Adjusted_Penalty>
0.569486

> <i_epik_Tot_Q>
0

> <i_epik_Tot_abs_Q>
0

> <r_epik_Metal_State_Penalty>
0.568671

> <b_epik_Metal_Only>
0

> <s_lp_Force_Field>
OPLS_2005

> <r_lp_Energy>
53.3549

> <b_lp_Chiralities_Consistent>
1

> <s_lp_Variant>
AV-unprocessed.smi:213-14

> <Gold.Version>
5.8.1

> <Gold.Id.Protein>
6NUR|6NUR_protein|mol2

> <Gold.PLP.Fitness>
48.6666

> <Gold.PLP.PLP>
-45.6197

> <Gold.PLP.part.hbond>
-2.6369

> <Gold.PLP.part.metal>
0.0000

> <Gold.PLP.part.buried>
-5.2606

> <Gold.PLP.part.nonpolar>
-37.4958

> <Gold.PLP.part.repulsive>
0.0645

> <Gold.PLP.ligand.clash>
0.0000

> <Gold.PLP.ligand.torsion>
1.5329

> <Gold.PLP.Chemscore.Hbond>
1.9280

> <Gold.PLP.Chemscore.CHOScore>
0.0000

> <Gold.PLP.Chemscore.Metal>
0.0000

> <Gold.Chemscore.Hbonds>
donor molecule, donor type, donor heavy atom, donor atom, acceptor molecule, acceptor atom, score
      P1  H  6896  6908       L1    18  0.75
      P1  H  6934  6947       L1    28  0.42

> <Gold.PLP.Chemscore.Internal.Correction>
0.3287

> <Gold.Rescore>
     Score         DG    S(hbond)    S(metal)    S(lipo)     H(rot)  DE(clash)    DE(int)     intcor
     10.04     -16.62       1.74        0.00     105.34       2.74       0.07       6.51       ----

> <Gold.Chemscore.Fitness>
10.0426

> <Gold.Chemscore.DG>
-16.6176

> <Gold.Chemscore.ZeroCoef>
-5.4800

> <Gold.Chemscore.Hbond>
1.7429

> <Gold.Chemscore.Metal>
0.0000

> <Gold.Chemscore.Lipo>
105.3416

> <Gold.Chemscore.Internal_Hbond>
0.0000

> <Gold.Chemscore.DEClash>
0.0662

> <Gold.Chemscore.DEInternal>
6.5089

> <Gold.Chemscore.Rot>
2.7378

> <Gold.Chemscore.Internal.Correction>
   9.000000E+99

> <Gold.Chemscore.Hbonds>
donor molecule, donor type, donor heavy atom, donor atom, acceptor molecule, acceptor atom, score
      P1  H  6896  6908       L1    18  0.09
      P1  H  6934  6947       L1    28  0.41

> <Gold.Chemscore.Hbond.Weighted>
-5.8213

> <Gold.Chemscore.Metal.Weighted>
-0.0000

> <Gold.Chemscore.Lipo.Weighted>
-12.3250

> <Gold.Chemscore.Internal_Hbond.Weighted>
0.0000

> <Gold.Chemscore.DEClash.Weighted>
0.0662

> <Gold.Chemscore.DEInternal.Weighted>
6.5089

> <Gold.Chemscore.Rot.Weighted>
7.0087

> <Gold.Chemscore.Internal.Correction.Weighted>
   9.000000E+99

> <Gold.Protein.RotatedTorsions>
[ 6907 6896 6895 6894 ] final -148.41 input  -60.11 | X-H torsion
[ 7974 7965 7964 7962 ] final -129.21 input  175.53 | X-H torsion
[ 8008 7997 7996 7995 ] final  -60.24 input   59.86 | X-H torsion
[ 10167 10162 10161 10158 ] final -145.94 input  -65.29 | X-H torsion
[ 10718 10713 10712 10709 ] final  -16.09 input   66.30 | X-H torsion
[ 10763 10752 10751 10750 ] final -167.75 input  -60.55 | X-H torsion
[ 11005 11000 10999 10996 ] final   66.75 input  -57.11 | X-H torsion

> <Gold.Protein.ActiveResidues>
 VAL166  LYS551  ARG553  GLY616  TRP617  ASP618  TYR619  PRO620  LYS621  CYS622 
 ASP623  PHE694  ASN695  SER759  ASP760  ASP761  ALA762  ILE779  LEU786  VAL792 
 PHE793  MET794  SER795  GLU796  ALA797  LYS798  CYS799  TRP800  GLU811  SER814 

> <Gold.Protein.RotatedAtoms>
  151.1694  133.4794  159.2593 H   0  0  0  0  0  0  0  0  0  0  0  0  # atno 6907 bound_to 6896
  151.1372  135.0160  159.8619 H   0  0  0  0  0  0  0  0  0  0  0  0  # atno 6908 bound_to 6896
  152.5461  134.1591  159.8603 H   0  0  0  0  0  0  0  0  0  0  0  0  # atno 6909 bound_to 6896
  144.9595  140.7431  143.4738 H   0  0  0  0  0  0  0  0  0  0  0  0  # atno 7974 bound_to 7965
  154.4389  140.1044  156.6243 H   0  0  0  0  0  0  0  0  0  0  0  0  # atno 8008 bound_to 7997
  155.5674  140.3488  155.4488 H   0  0  0  0  0  0  0  0  0  0  0  0  # atno 8009 bound_to 7997
  156.0415  140.1283  157.0139 H   0  0  0  0  0  0  0  0  0  0  0  0  # atno 8010 bound_to 7997
  139.7759  143.8171  152.2632 H   0  0  0  0  0  0  0  0  0  0  0  0  # atno 10167 bound_to 10162
  156.5924  130.4802  149.6273 H   0  0  0  0  0  0  0  0  0  0  0  0  # atno 10718 bound_to 10713
  154.6700  135.2938  154.9754 H   0  0  0  0  0  0  0  0  0  0  0  0  # atno 10763 bound_to 10752
  154.0785  135.6608  153.4838 H   0  0  0  0  0  0  0  0  0  0  0  0  # atno 10764 bound_to 10752
  153.0481  135.5191  154.7691 H   0  0  0  0  0  0  0  0  0  0  0  0  # atno 10765 bound_to 10752
  139.9813  134.6740  156.0258 H   0  0  0  0  0  0  0  0  0  0  0  0  # atno 11005 bound_to 11000
  145.2722  139.1950  143.4835 LP  0  0  0  0  0  0  0  0  0  0  0  0  # atno 17320 bound_to 7965
  146.3348  140.2670  142.8604 LP  0  0  0  0  0  0  0  0  0  0  0  0  # atno 17321 bound_to 7965
  139.8219  144.7292  150.9562 LP  0  0  0  0  0  0  0  0  0  0  0  0  # atno 17342 bound_to 10162
  140.7816  143.4151  151.0930 LP  0  0  0  0  0  0  0  0  0  0  0  0  # atno 17343 bound_to 10162
  156.2538  130.6922  151.1669 LP  0  0  0  0  0  0  0  0  0  0  0  0  # atno 17370 bound_to 10713
  157.7300  131.0620  150.5746 LP  0  0  0  0  0  0  0  0  0  0  0  0  # atno 17371 bound_to 10713
  141.1484  133.6552  156.3939 LP  0  0  0  0  0  0  0  0  0  0  0  0  # atno 17394 bound_to 11000
  140.5091  134.6412  157.5277 LP  0  0  0  0  0  0  0  0  0  0  0  0  # atno 17395 bound_to 11000

$$$$
