AV-unprocessed.smi:264|AV-procd|sdf|2008|dock4
  -GOLD-   2262021203D 1   1.00000     0.00000
 Structure written by MMmdl.
 52 56  0  0  0  0  0  0  0  0  1 V2000
  145.7284  135.1249  151.1842 C   0  0  0  0  0  0  0  0  0  0  0  0
  145.1336  133.7372  151.4735 C   0  0  1  0  0  0  0  0  0  0  0  0
  144.0192  133.4841  150.6303 O   0  0  0  0  0  0  0  0  0  0  0  0
  143.7791  132.0893  150.6693 C   0  0  0  0  0  0  0  0  0  0  0  0
  145.1806  131.5027  150.5518 C   0  0  0  0  0  0  0  0  0  0  0  0
  146.0688  132.5132  151.2849 C   0  0  1  0  0  0  0  0  0  0  0  0
  147.1721  132.8185  150.4475 O   0  0  0  0  0  0  0  0  0  0  0  0
  146.6147  131.9486  152.6198 C   0  0  0  0  0  0  0  0  0  0  0  0
  147.5267  132.8527  153.3049 N   0  0  0  0  0  0  0  0  0  0  0  0
  148.8745  132.6631  153.5126 C   0  0  0  0  0  0  0  0  0  0  0  0
  149.4812  133.6264  154.1497 N   0  0  0  0  0  0  0  0  0  0  0  0
  148.4736  134.5459  154.4160 C   0  0  0  0  0  0  0  0  0  0  0  0
  148.4333  135.8116  155.0667 C   0  0  0  0  0  0  0  0  0  0  0  0
  149.5311  136.3863  155.6205 N   0  0  0  0  0  0  0  0  0  0  0  0
  150.2836  135.5290  156.5277 C   0  0  0  0  0  0  0  0  0  0  0  0
  151.6648  136.1413  156.7981 C   0  0  0  0  0  0  0  0  0  0  0  0
  151.5259  137.4761  157.2836 O   0  0  0  0  0  0  0  0  0  0  0  0
  150.8144  138.3545  156.4061 C   0  0  1  0  0  0  0  0  0  0  0  0
  150.6939  139.7081  157.0996 C   0  0  0  0  0  0  0  0  0  0  0  0
  150.8150  140.7001  155.9529 C   0  0  0  0  0  0  0  0  0  0  0  0
  151.8273  140.1154  155.1553 O   0  0  0  0  0  0  0  0  0  0  0  0
  151.6137  138.7089  155.1296 C   0  0  0  0  0  0  0  0  0  0  0  0
  149.4189  137.7603  156.1022 C   0  0  0  0  0  0  0  0  0  0  0  0
  147.2326  136.4485  155.1187 N   0  0  0  0  0  0  0  0  0  0  0  0
  146.1448  135.8850  154.5856 C   0  0  0  0  0  0  0  0  0  0  0  0
  146.0349  134.7124  153.9592 N   0  0  0  0  0  0  0  0  0  0  0  0
  147.2374  134.0730  153.8911 C   0  0  0  0  0  0  0  0  0  0  0  0
  146.5988  135.3188  151.8114 H   0  0  0  0  0  0  0  0  0  0  0  0
  144.9961  135.9067  151.3856 H   0  0  0  0  0  0  0  0  0  0  0  0
  146.0334  135.2213  150.1420 H   0  0  0  0  0  0  0  0  0  0  0  0
  144.7408  133.7364  152.4907 H   0  0  0  0  0  0  0  0  0  0  0  0
  143.3192  131.8193  151.6213 H   0  0  0  0  0  0  0  0  0  0  0  0
  143.1188  131.7704  149.8626 H   0  0  0  0  0  0  0  0  0  0  0  0
  145.2396  130.4935  150.9610 H   0  0  0  0  0  0  0  0  0  0  0  0
  145.4464  131.4406  149.4950 H   0  0  0  0  0  0  0  0  0  0  0  0
  147.5977  132.0106  150.2053 H   0  0  0  0  0  0  0  0  0  0  0  0
  145.7882  131.7202  153.2942 H   0  0  0  0  0  0  0  0  0  0  0  0
  147.1349  131.0049  152.4493 H   0  0  0  0  0  0  0  0  0  0  0  0
  149.3997  131.7847  153.1662 H   0  0  0  0  0  0  0  0  0  0  0  0
  149.7299  135.4309  157.4625 H   0  0  0  0  0  0  0  0  0  0  0  0
  150.4047  134.5239  156.1256 H   0  0  0  0  0  0  0  0  0  0  0  0
  152.1938  135.5506  157.5458 H   0  0  0  0  0  0  0  0  0  0  0  0
  152.2752  136.1181  155.8953 H   0  0  0  0  0  0  0  0  0  0  0  0
  149.7738  139.8290  157.6721 H   0  0  0  0  0  0  0  0  0  0  0  0
  151.5304  139.8558  157.7845 H   0  0  0  0  0  0  0  0  0  0  0  0
  149.8851  140.7646  155.3856 H   0  0  0  0  0  0  0  0  0  0  0  0
  151.0910  141.7008  156.2859 H   0  0  0  0  0  0  0  0  0  0  0  0
  152.5810  138.2099  155.0792 H   0  0  0  0  0  0  0  0  0  0  0  0
  151.0601  138.4477  154.2269 H   0  0  0  0  0  0  0  0  0  0  0  0
  148.9006  138.3786  155.3677 H   0  0  0  0  0  0  0  0  0  0  0  0
  148.8107  137.7612  157.0082 H   0  0  0  0  0  0  0  0  0  0  0  0
  145.2320  136.4555  154.6740 H   0  0  0  0  0  0  0  0  0  0  0  0
  1  2  1  0  0  0  0
  1 28  1  0  0  0  0
  1 29  1  0  0  0  0
  1 30  1  0  0  0  0
  2  6  1  0  0  0  0
  2  3  1  0  0  0  0
  2 31  1  0  0  0  0
  3  4  1  0  0  0  0
  4  5  1  0  0  0  0
  4 32  1  0  0  0  0
  4 33  1  0  0  0  0
  5  6  1  0  0  0  0
  5 34  1  0  0  0  0
  5 35  1  0  0  0  0
  6  7  1  0  0  0  0
  6  8  1  0  0  0  0
  7 36  1  0  0  0  0
  8  9  1  0  0  0  0
  8 37  1  0  0  0  0
  8 38  1  0  0  0  0
  9 27  1  0  0  0  0
  9 10  1  0  0  0  0
 10 11  2  0  0  0  0
 10 39  1  0  0  0  0
 11 12  1  0  0  0  0
 12 27  2  0  0  0  0
 12 13  1  0  0  0  0
 13 14  1  0  0  0  0
 13 24  2  0  0  0  0
 14 23  1  0  0  0  0
 14 15  1  0  0  0  0
 15 16  1  0  0  0  0
 15 40  1  0  0  0  0
 15 41  1  0  0  0  0
 16 17  1  0  0  0  0
 16 42  1  0  0  0  0
 16 43  1  0  0  0  0
 17 18  1  0  0  0  0
 18 22  1  0  0  0  0
 18 19  1  0  0  0  0
 18 23  1  0  0  0  0
 19 20  1  0  0  0  0
 19 44  1  0  0  0  0
 19 45  1  0  0  0  0
 20 21  1  0  0  0  0
 20 46  1  0  0  0  0
 20 47  1  0  0  0  0
 21 22  1  0  0  0  0
 22 48  1  0  0  0  0
 22 49  1  0  0  0  0
 23 50  1  0  0  0  0
 23 51  1  0  0  0  0
 24 25  1  0  0  0  0
 25 26  2  0  0  0  0
 25 52  1  0  0  0  0
 26 27  1  0  0  0  0
M  END
> <s_m_source_file>
AV-unprocessed.smi

> <i_m_source_file_index>
264

> <i_lp_mmshare_version>
43012

> <i_f3d_flags>
0

> <s_epik_input>
W0NIMl0xW0NIMl1PW0NAQEhdKFtDSDNdKVtDQEBdMShbT0hdKVtDSDJdbihbY0hdbjIpYyhjMjMpbltjSF1uYzNOKFtDSDJdNClbQ0gyXVtDSDJdT1tDQF00NVtDSDJdW0NIMl1PW0NIMl01

> <s_epik_cmdline>
J2VwaWtfcHl0aG9uJywgJy1waCcsICc3LjAnLCAnLXRuJywgJzgnLCAnLW1hJywgJzIwMCcsICctbWV0YWxfYmluZGluZycsICctaW1hZScsICc8aW5maWxlLm1hZT4nLCAnLW9tYWUnLCAnPG91dGZpbGUubWFlPic=

> <r_lp_tautomer_probability>
1

> <r_epik_Ionization_Penalty>
0.00539389

> <r_epik_Ionization_Penalty_Charging>
0

> <r_epik_Ionization_Penalty_Neutral>
0.00539389

> <r_epik_State_Penalty>
0.00375441

> <r_epik_Charging_Adjusted_Penalty>
0.00375441

> <i_epik_Tot_Q>
0

> <i_epik_Tot_abs_Q>
0

> <r_epik_Metal_State_Penalty>
-0

> <b_epik_Metal_Only>
0

> <s_lp_Force_Field>
OPLS_2005

> <r_lp_Energy>
54.8303

> <b_lp_Chiralities_Consistent>
1

> <s_lp_Variant>
AV-unprocessed.smi:264-2

> <Gold.Version>
5.8.1

> <Gold.Id.Protein>
6NUR|6NUR_protein|mol2

> <Gold.PLP.Fitness>
40.8884

> <Gold.PLP.PLP>
-35.4202

> <Gold.PLP.part.hbond>
-2.2078

> <Gold.PLP.part.metal>
0.0000

> <Gold.PLP.part.buried>
-5.5708

> <Gold.PLP.part.nonpolar>
-28.4523

> <Gold.PLP.part.repulsive>
0.6145

> <Gold.PLP.ligand.clash>
0.0000

> <Gold.PLP.ligand.torsion>
0.2128

> <Gold.PLP.Chemscore.Hbond>
1.8640

> <Gold.PLP.Chemscore.CHOScore>
0.0000

> <Gold.PLP.Chemscore.Metal>
0.0000

> <Gold.Chemscore.Hbonds>
donor molecule, donor type, donor heavy atom, donor atom, acceptor molecule, acceptor atom, score
      L1  H     7    36       P1 10747  1.00
      P1  H  7989  7998       L1    21  0.88

> <Gold.PLP.Chemscore.Internal.Correction>
0.3017

> <Gold.Rescore>
     Score         DG    S(hbond)    S(metal)    S(lipo)     H(rot)  DE(clash)    DE(int)     intcor
     12.23     -15.57       1.84        0.00      79.86       2.11       0.30       3.04       ----

> <Gold.Chemscore.Fitness>
12.2263

> <Gold.Chemscore.DG>
-15.5691

> <Gold.Chemscore.ZeroCoef>
-5.4800

> <Gold.Chemscore.Hbond>
1.8376

> <Gold.Chemscore.Metal>
0.0000

> <Gold.Chemscore.Lipo>
79.8599

> <Gold.Chemscore.Internal_Hbond>
0.0000

> <Gold.Chemscore.DEClash>
0.2989

> <Gold.Chemscore.DEInternal>
3.0439

> <Gold.Chemscore.Rot>
2.1063

> <Gold.Chemscore.Internal.Correction>
   9.000000E+99

> <Gold.Chemscore.Hbonds>
donor molecule, donor type, donor heavy atom, donor atom, acceptor molecule, acceptor atom, score
      L1  H     7    36       P1 10747  0.96
      P1  H  7989  7998       L1    21  0.41

> <Gold.Chemscore.Hbond.Weighted>
-6.1376

> <Gold.Chemscore.Metal.Weighted>
-0.0000

> <Gold.Chemscore.Lipo.Weighted>
-9.3436

> <Gold.Chemscore.Internal_Hbond.Weighted>
0.0000

> <Gold.Chemscore.DEClash.Weighted>
0.2989

> <Gold.Chemscore.DEInternal.Weighted>
3.0439

> <Gold.Chemscore.Rot.Weighted>
5.3921

> <Gold.Chemscore.Internal.Correction.Weighted>
   9.000000E+99

> <Gold.Protein.RotatedTorsions>
[ 6907 6896 6895 6894 ] final   98.39 input  -60.11 | X-H torsion
[ 7974 7965 7964 7962 ] final   83.12 input  175.53 | X-H torsion
[ 8008 7997 7996 7995 ] final  -14.61 input   59.86 | X-H torsion
[ 10167 10162 10161 10158 ] final   22.95 input  -65.29 | X-H torsion
[ 10718 10713 10712 10709 ] final    9.65 input   66.30 | X-H torsion
[ 10763 10752 10751 10750 ] final -163.38 input  -60.55 | X-H torsion
[ 11005 11000 10999 10996 ] final   42.93 input  -57.11 | X-H torsion

> <Gold.Protein.ActiveResidues>
 VAL166  LYS551  ARG553  GLY616  TRP617  ASP618  TYR619  PRO620  LYS621  CYS622 
 ASP623  PHE694  ASN695  SER759  ASP760  ASP761  ALA762  ILE779  LEU786  VAL792 
 PHE793  MET794  SER795  GLU796  ALA797  LYS798  CYS799  TRP800  GLU811  SER814 

> <Gold.Protein.RotatedAtoms>
  152.5410  134.0587  159.8142 H   0  0  0  0  0  0  0  0  0  0  0  0  # atno 6907 bound_to 6896
  151.0718  133.5452  159.2634 H   0  0  0  0  0  0  0  0  0  0  0  0  # atno 6908 bound_to 6896
  151.2312  135.0563  159.9042 H   0  0  0  0  0  0  0  0  0  0  0  0  # atno 6909 bound_to 6896
  145.6161  139.2377  143.2165 H   0  0  0  0  0  0  0  0  0  0  0  0  # atno 7974 bound_to 7965
  154.5196  140.2218  155.9001 H   0  0  0  0  0  0  0  0  0  0  0  0  # atno 8008 bound_to 7997
  156.1647  140.3135  155.8833 H   0  0  0  0  0  0  0  0  0  0  0  0  # atno 8009 bound_to 7997
  155.3681  140.0465  157.3036 H   0  0  0  0  0  0  0  0  0  0  0  0  # atno 8010 bound_to 7997
  140.5308  143.9845  150.6464 H   0  0  0  0  0  0  0  0  0  0  0  0  # atno 10167 bound_to 10162
  156.9694  130.5963  149.5667 H   0  0  0  0  0  0  0  0  0  0  0  0  # atno 10718 bound_to 10713
  154.7128  135.3009  154.9171 H   0  0  0  0  0  0  0  0  0  0  0  0  # atno 10763 bound_to 10752
  154.0068  135.6700  153.4766 H   0  0  0  0  0  0  0  0  0  0  0  0  # atno 10764 bound_to 10752
  153.0768  135.5030  154.8336 H   0  0  0  0  0  0  0  0  0  0  0  0  # atno 10765 bound_to 10752
  140.1693  134.4242  155.8267 H   0  0  0  0  0  0  0  0  0  0  0  0  # atno 11005 bound_to 11000
  146.1467  140.6983  142.9341 LP  0  0  0  0  0  0  0  0  0  0  0  0  # atno 17320 bound_to 7965
  144.7250  140.4495  143.6980 LP  0  0  0  0  0  0  0  0  0  0  0  0  # atno 17321 bound_to 7965
  140.3219  143.3131  152.0775 LP  0  0  0  0  0  0  0  0  0  0  0  0  # atno 17342 bound_to 10162
  139.4953  144.6568  151.6555 LP  0  0  0  0  0  0  0  0  0  0  0  0  # atno 17343 bound_to 10162
  156.0289  130.5381  150.8481 LP  0  0  0  0  0  0  0  0  0  0  0  0  # atno 17370 bound_to 10713
  157.5603  131.0945  150.9569 LP  0  0  0  0  0  0  0  0  0  0  0  0  # atno 17371 bound_to 10713
  141.2216  133.6948  156.7734 LP  0  0  0  0  0  0  0  0  0  0  0  0  # atno 17394 bound_to 11000
  140.2397  134.8623  157.3560 LP  0  0  0  0  0  0  0  0  0  0  0  0  # atno 17395 bound_to 11000

$$$$
