AV-unprocessed.smi:1047|AV-procd|sdf|4566|dock2
  -GOLD-   22720 3 13D 1   1.00000     0.00000
 Structure written by MMmdl.
 57 59  0  0  0  0  0  0  0  0  3 V2000
  146.0162  129.8382  152.2508 C   0  0  0  0  0  0  0  0  0  0  0  0
  146.1374  131.3633  152.3768 C   0  0  0  0  0  0  0  0  0  0  0  0
  146.3112  132.0311  151.0593 N   0  3  1  0  0  0  0  0  0  0  0  0
  145.2746  131.6578  150.0663 C   0  0  0  0  0  0  0  0  0  0  0  0
  143.9561  132.4053  150.3315 C   0  0  0  0  0  0  0  0  0  0  0  0
  144.1985  133.8069  150.3280 O   0  0  0  0  0  0  0  0  0  0  0  0
  145.1032  134.2149  151.3492 C   0  0  2  0  0  0  0  0  0  0  0  0
  145.2085  135.7476  151.2759 C   0  0  0  0  0  0  0  0  0  0  0  0
  146.2302  136.2799  152.2015 N   0  3  0  0  0  0  0  0  0  0  0  0
  145.9940  137.6785  152.6139 C   0  0  0  0  0  0  0  0  0  0  0  0
  146.7425  138.6672  151.7047 C   0  0  1  0  0  0  0  0  0  0  0  0
  146.3192  138.4613  150.3703 O   0  0  0  0  0  0  0  0  0  0  0  0
  146.4743  140.1303  152.1077 C   0  0  0  0  0  0  0  0  0  0  0  0
  147.3113  140.5684  153.2109 N   0  0  0  0  0  0  0  0  0  0  0  0
  148.6157  140.2891  153.3975 C   0  0  0  0  0  0  0  0  0  0  0  0
  149.1973  140.7919  154.4821 N   0  0  0  0  0  0  0  0  0  0  0  0
  148.1461  141.4719  155.0729 C   0  0  0  0  0  0  0  0  0  0  0  0
  148.0975  142.2258  156.2656 C   0  0  0  0  0  0  0  0  0  0  0  0
  146.8975  142.8429  156.6849 C   0  0  0  0  0  0  0  0  0  0  0  0
  146.8901  143.6408  157.9771 C   0  0  0  0  0  0  0  0  0  0  0  0
  145.7206  142.7105  155.9049 C   0  0  0  0  0  0  0  0  0  0  0  0
  144.4191  143.3630  156.3368 C   0  0  0  0  0  0  0  0  0  0  0  0
  145.7521  141.9629  154.7091 C   0  0  0  0  0  0  0  0  0  0  0  0
  146.9519  141.3517  154.3033 C   0  0  0  0  0  0  0  0  0  0  0  0
  146.4610  133.5086  151.1208 C   0  0  0  0  0  0  0  0  0  0  0  0
  145.7917  129.3915  153.2197 H   0  0  0  0  0  0  0  0  0  0  0  0
  146.9369  129.3799  151.8917 H   0  0  0  0  0  0  0  0  0  0  0  0
  145.2122  129.5619  151.5680 H   0  0  0  0  0  0  0  0  0  0  0  0
  145.2194  131.7280  152.8391 H   0  0  0  0  0  0  0  0  0  0  0  0
  146.9459  131.6254  153.0590 H   0  0  0  0  0  0  0  0  0  0  0  0
  145.6416  131.9179  149.0725 H   0  0  0  0  0  0  0  0  0  0  0  0
  145.1154  130.5788  150.0592 H   0  0  0  0  0  0  0  0  0  0  0  0
  143.2324  132.1733  149.5500 H   0  0  0  0  0  0  0  0  0  0  0  0
  143.5078  132.0999  151.2782 H   0  0  0  0  0  0  0  0  0  0  0  0
  144.6848  133.9406  152.3189 H   0  0  0  0  0  0  0  0  0  0  0  0
  145.4345  136.0634  150.2564 H   0  0  0  0  0  0  0  0  0  0  0  0
  144.2458  136.1884  151.5386 H   0  0  0  0  0  0  0  0  0  0  0  0
  146.2555  135.7033  153.0304 H   0  0  0  0  0  0  0  0  0  0  0  0
  144.9240  137.8923  152.6061 H   0  0  0  0  0  0  0  0  0  0  0  0
  146.3341  137.7942  153.6439 H   0  0  0  0  0  0  0  0  0  0  0  0
  147.8151  138.4747  151.7591 H   0  0  0  0  0  0  0  0  0  0  0  0
  145.4990  138.9149  150.2416 H   0  0  0  0  0  0  0  0  0  0  0  0
  146.6359  140.7964  151.2592 H   0  0  0  0  0  0  0  0  0  0  0  0
  145.4318  140.2542  152.4038 H   0  0  0  0  0  0  0  0  0  0  0  0
  149.1706  139.6845  152.6950 H   0  0  0  0  0  0  0  0  0  0  0  0
  148.9938  142.3253  156.8602 H   0  0  0  0  0  0  0  0  0  0  0  0
  146.2449  143.1632  158.7144 H   0  0  0  0  0  0  0  0  0  0  0  0
  146.5263  144.6533  157.8024 H   0  0  0  0  0  0  0  0  0  0  0  0
  147.8902  143.7156  158.4046 H   0  0  0  0  0  0  0  0  0  0  0  0
  143.6039  143.1134  155.6573 H   0  0  0  0  0  0  0  0  0  0  0  0
  144.5235  144.4479  156.3509 H   0  0  0  0  0  0  0  0  0  0  0  0
  144.1354  143.0289  157.3346 H   0  0  0  0  0  0  0  0  0  0  0  0
  144.8620  141.8562  154.1067 H   0  0  0  0  0  0  0  0  0  0  0  0
  147.1827  133.7938  151.8850 H   0  0  0  0  0  0  0  0  0  0  0  0
  146.8837  133.8397  150.1711 H   0  0  0  0  0  0  0  0  0  0  0  0
  147.1327  136.2375  151.7492 H   0  0  0  0  0  0  0  0  0  0  0  0
  147.1808  131.6669  150.6956 H   0  0  0  0  0  0  0  0  0  0  0  0
  1  2  1  0  0  0  0
  1 26  1  0  0  0  0
  1 27  1  0  0  0  0
  1 28  1  0  0  0  0
  2  3  1  0  0  0  0
  2 29  1  0  0  0  0
  2 30  1  0  0  0  0
  3 25  1  0  0  0  0
  3  4  1  0  0  0  0
  3 57  1  0  0  0  0
  4  5  1  0  0  0  0
  4 31  1  0  0  0  0
  4 32  1  0  0  0  0
  5  6  1  0  0  0  0
  5 33  1  0  0  0  0
  5 34  1  0  0  0  0
  6  7  1  0  0  0  0
  7  8  1  0  0  0  0
  7 25  1  0  0  0  0
  7 35  1  0  0  0  0
  8  9  1  0  0  0  0
  8 36  1  0  0  0  0
  8 37  1  0  0  0  0
  9 10  1  0  0  0  0
  9 38  1  0  0  0  0
  9 56  1  0  0  0  0
 10 11  1  0  0  0  0
 10 39  1  0  0  0  0
 10 40  1  0  0  0  0
 11 12  1  0  0  0  0
 11 13  1  0  0  0  0
 11 41  1  0  0  0  0
 12 42  1  0  0  0  0
 13 14  1  0  0  0  0
 13 43  1  0  0  0  0
 13 44  1  0  0  0  0
 14 24  1  0  0  0  0
 14 15  1  0  0  0  0
 15 16  2  0  0  0  0
 15 45  1  0  0  0  0
 16 17  1  0  0  0  0
 17 24  2  0  0  0  0
 17 18  1  0  0  0  0
 18 19  2  0  0  0  0
 18 46  1  0  0  0  0
 19 20  1  0  0  0  0
 19 21  1  0  0  0  0
 20 47  1  0  0  0  0
 20 48  1  0  0  0  0
 20 49  1  0  0  0  0
 21 22  1  0  0  0  0
 21 23  2  0  0  0  0
 22 50  1  0  0  0  0
 22 51  1  0  0  0  0
 22 52  1  0  0  0  0
 23 24  1  0  0  0  0
 23 53  1  0  0  0  0
 25 54  1  0  0  0  0
 25 55  1  0  0  0  0
M  CHG  1   3   1
M  CHG  1   9   1
M  END
> <s_m_source_file>
AV-unprocessed.smi

> <i_m_source_file_index>
1047

> <i_lp_mmshare_version>
43012

> <i_f3d_flags>
0

> <s_epik_input>
W0NIM11bQ0gyXU4xW0NIMl1bQ0gyXU9bQ0BIXShbQ0gyXTEpW0NIMl1bTkhdW0NIMl1bQ0BIXShbT0hdKVtDSDJdbihbY0hdbjIpYyhjMjMpW2NIXWMoW0NIM10pYyhbY0hdMylbQ0gzXQ==

> <s_epik_cmdline>
J2VwaWtfcHl0aG9uJywgJy1waCcsICc3LjAnLCAnLXRuJywgJzgnLCAnLW1hJywgJzIwMCcsICctbWV0YWxfYmluZGluZycsICctaW1hZScsICc8aW5maWxlLm1hZT4nLCAnLW9tYWUnLCAnPG91dGZpbGUubWFlPic=

> <r_epik_Ionization_Penalty>
0.528991

> <r_epik_Ionization_Penalty_Charging>
0.438567

> <r_epik_Ionization_Penalty_Neutral>
0.0904237

> <r_epik_State_Penalty>
0.533036

> <r_epik_Charging_Adjusted_Penalty>
0.971603

> <i_epik_Tot_Q>
2

> <i_epik_Tot_abs_Q>
2

> <r_epik_Metal_State_Penalty>
0.448985

> <b_epik_Metal_Only>
0

> <s_lp_Force_Field>
OPLS_2005

> <r_lp_Energy>
33.3507

> <b_lp_Chiralities_Consistent>
1

> <s_lp_Variant>
AV-unprocessed.smi:1047-7

> <Gold.Version>
5.8.1

> <Gold.Id.Protein>
6NUR|6NUR_protein|mol2

> <Gold.PLP.Fitness>
59.9519

> <Gold.PLP.PLP>
-44.8365

> <Gold.PLP.part.hbond>
-4.0000

> <Gold.PLP.part.metal>
0.0000

> <Gold.PLP.part.buried>
-2.1657

> <Gold.PLP.part.nonpolar>
-40.0609

> <Gold.PLP.part.repulsive>
1.2050

> <Gold.PLP.ligand.clash>
0.0000

> <Gold.PLP.ligand.torsion>
0.8846

> <Gold.PLP.Chemscore.Hbond>
4.5200

> <Gold.PLP.Chemscore.CHOScore>
1.0000

> <Gold.PLP.Chemscore.Metal>
0.0000

> <Gold.Chemscore.Hbonds>
donor molecule, donor type, donor heavy atom, donor atom, acceptor molecule, acceptor atom, score
      L1  H     3    57       P1 10747  1.00
      L1  H     9    56       P1  7948  2.00
      L1  H    12    42       P1 10171  0.82
      P1  H  7954  7966       L1    12  0.36
      L1  C    15    45       P1  7957  0.01

> <Gold.PLP.Chemscore.Internal.Correction>
0.3246

> <Gold.Rescore>
     Score         DG    S(hbond)    S(metal)    S(lipo)     H(rot)  DE(clash)    DE(int)     intcor
     18.93     -20.97       3.28        0.00      97.83       2.70       1.14       0.90       ----

> <Gold.Chemscore.Fitness>
18.9292

> <Gold.Chemscore.DG>
-20.9667

> <Gold.Chemscore.ZeroCoef>
-5.4800

> <Gold.Chemscore.Hbond>
3.2781

> <Gold.Chemscore.Metal>
0.0000

> <Gold.Chemscore.Lipo>
97.8282

> <Gold.Chemscore.Internal_Hbond>
0.0000

> <Gold.Chemscore.DEClash>
1.1393

> <Gold.Chemscore.DEInternal>
0.8982

> <Gold.Chemscore.Rot>
2.6985

> <Gold.Chemscore.Internal.Correction>
   9.000000E+99

> <Gold.Chemscore.Hbonds>
donor molecule, donor type, donor heavy atom, donor atom, acceptor molecule, acceptor atom, score
      L1  H     3    57       P1 10747  0.95
      L1  H     9    56       P1  7948  0.96
      L1  H    12    42       P1 10171  0.81
      P1  H  7954  7966       L1    12  0.02

> <Gold.Chemscore.Hbond.Weighted>
-10.9490

> <Gold.Chemscore.Metal.Weighted>
-0.0000

> <Gold.Chemscore.Lipo.Weighted>
-11.4459

> <Gold.Chemscore.Internal_Hbond.Weighted>
0.0000

> <Gold.Chemscore.DEClash.Weighted>
1.1393

> <Gold.Chemscore.DEInternal.Weighted>
0.8982

> <Gold.Chemscore.Rot.Weighted>
6.9081

> <Gold.Chemscore.Internal.Correction.Weighted>
   9.000000E+99

> <Gold.Protein.RotatedTorsions>
[ 6907 6896 6895 6894 ] final   96.70 input  -60.11 | X-H torsion
[ 7974 7965 7964 7962 ] final  162.32 input  175.53 | X-H torsion
[ 8008 7997 7996 7995 ] final  112.29 input   59.86 | X-H torsion
[ 10167 10162 10161 10158 ] final   56.49 input  -65.29 | X-H torsion
[ 10718 10713 10712 10709 ] final   37.05 input   66.30 | X-H torsion
[ 10763 10752 10751 10750 ] final   -3.45 input  -60.55 | X-H torsion
[ 11005 11000 10999 10996 ] final   21.19 input  -57.11 | X-H torsion

> <Gold.Protein.ActiveResidues>
 VAL166  LYS551  ARG553  GLY616  TRP617  ASP618  TYR619  PRO620  LYS621  CYS622 
 ASP623  PHE694  ASN695  SER759  ASP760  ASP761  ALA762  ILE779  LEU786  VAL792 
 PHE793  MET794  SER795  GLU796  ALA797  LYS798  CYS799  TRP800  GLU811  SER814 

> <Gold.Protein.RotatedAtoms>
  152.5432  134.0846  159.8250 H   0  0  0  0  0  0  0  0  0  0  0  0  # atno 6907 bound_to 6896
  151.0943  133.5284  159.2620 H   0  0  0  0  0  0  0  0  0  0  0  0  # atno 6908 bound_to 6896
  151.2063  135.0472  159.8947 H   0  0  0  0  0  0  0  0  0  0  0  0  # atno 6909 bound_to 6896
  144.7642  139.8023  143.6321 H   0  0  0  0  0  0  0  0  0  0  0  0  # atno 7974 bound_to 7965
  156.2182  140.3002  155.9889 H   0  0  0  0  0  0  0  0  0  0  0  0  # atno 8008 bound_to 7997
  155.2550  140.0427  157.3008 H   0  0  0  0  0  0  0  0  0  0  0  0  # atno 8009 bound_to 7997
  154.5800  140.2372  155.8076 H   0  0  0  0  0  0  0  0  0  0  0  0  # atno 8010 bound_to 7997
  140.2082  144.3917  150.6500 H   0  0  0  0  0  0  0  0  0  0  0  0  # atno 10167 bound_to 10162
  157.3422  130.7554  149.6920 H   0  0  0  0  0  0  0  0  0  0  0  0  # atno 10718 bound_to 10713
  153.3715  135.6995  153.6634 H   0  0  0  0  0  0  0  0  0  0  0  0  # atno 10763 bound_to 10752
  153.5282  135.3598  155.2664 H   0  0  0  0  0  0  0  0  0  0  0  0  # atno 10764 bound_to 10752
  154.8682  135.4174  154.2995 H   0  0  0  0  0  0  0  0  0  0  0  0  # atno 10765 bound_to 10752
  140.3943  134.1786  155.7663 H   0  0  0  0  0  0  0  0  0  0  0  0  # atno 11005 bound_to 11000
  146.1734  139.4895  142.9913 LP  0  0  0  0  0  0  0  0  0  0  0  0  # atno 17320 bound_to 7965
  145.6522  141.0260  143.1754 LP  0  0  0  0  0  0  0  0  0  0  0  0  # atno 17321 bound_to 7965
  140.6342  143.2192  151.6429 LP  0  0  0  0  0  0  0  0  0  0  0  0  # atno 17342 bound_to 10162
  139.5190  144.3266  152.0864 LP  0  0  0  0  0  0  0  0  0  0  0  0  # atno 17343 bound_to 10162
  155.9709  130.4164  150.4230 LP  0  0  0  0  0  0  0  0  0  0  0  0  # atno 17370 bound_to 10713
  157.2280  131.0497  151.2509 LP  0  0  0  0  0  0  0  0  0  0  0  0  # atno 17371 bound_to 10713
  141.1880  133.8270  157.1012 LP  0  0  0  0  0  0  0  0  0  0  0  0  # atno 17394 bound_to 11000
  140.0383  134.9867  157.0914 LP  0  0  0  0  0  0  0  0  0  0  0  0  # atno 17395 bound_to 11000

$$$$
