AV-unprocessed.smi:240|AV-procd|sdf|1839|dock2
  -GOLD-   2262020453D 1   1.00000     0.00000
 Structure written by MMmdl.
 55 59  0  0  0  0  0  0  0  0  1 V2000
  149.8149  140.1087  153.7659 O   0  0  0  0  0  0  0  0  0  0  0  0
  148.7782  140.5178  154.6338 C   0  0  1  0  0  0  0  0  0  0  0  0
  148.0314  141.7294  154.0784 C   0  0  0  0  0  0  0  0  0  0  0  0
  146.6907  141.7132  154.8174 C   0  0  0  0  0  0  0  0  0  0  0  0
  146.4250  140.2454  155.1903 C   0  0  0  0  0  0  0  0  0  0  0  0
  147.6789  139.4535  154.7683 C   0  0  2  0  0  0  0  0  0  0  0  0
  148.0324  138.2121  155.6439 C   0  0  1  0  0  0  0  0  0  0  0  0
  148.3611  138.5636  157.1180 C   0  0  0  0  0  0  0  0  0  0  0  0
  148.6895  137.3861  157.8461 O   0  0  0  0  0  0  0  0  0  0  0  0
  147.6067  136.4669  157.8843 C   0  0  0  0  0  0  0  0  0  0  0  0
  147.2824  136.0221  156.4526 C   0  0  0  0  0  0  0  0  0  0  0  0
  146.9862  137.1796  155.6163 N   0  0  0  0  0  0  0  0  0  0  0  0
  146.5412  136.7876  154.4010 C   0  0  0  0  0  0  0  0  0  0  0  0
  145.7329  137.6486  153.7359 N   0  0  0  0  0  0  0  0  0  0  0  0
  145.2713  137.3292  152.5230 C   0  0  0  0  0  0  0  0  0  0  0  0
  145.4873  136.2200  151.8126 N   0  0  0  0  0  0  0  0  0  0  0  0
  146.2867  135.3445  152.4875 C   0  0  0  0  0  0  0  0  0  0  0  0
  146.8544  135.5463  153.7769 C   0  0  0  0  0  0  0  0  0  0  0  0
  147.6163  134.4415  154.1369 N   0  0  0  0  0  0  0  0  0  0  0  0
  147.5133  133.6373  153.1143 C   0  0  0  0  0  0  0  0  0  0  0  0
  146.7239  134.0946  152.0831 N   0  0  0  0  0  0  0  0  0  0  0  0
  146.4440  133.4120  150.8280 C   0  0  0  0  0  0  0  0  0  0  0  0
  144.9624  133.4814  150.3770 C   0  0  2  0  0  0  0  0  0  0  0  0
  144.6910  134.7676  149.8512 O   0  0  0  0  0  0  0  0  0  0  0  0
  143.9531  133.1708  151.4853 C   0  0  0  0  0  0  0  0  0  0  0  0
  143.5733  131.7226  151.2114 C   0  0  0  0  0  0  0  0  0  0  0  0
  143.5296  131.6833  149.7969 O   0  0  0  0  0  0  0  0  0  0  0  0
  144.6477  132.4136  149.3091 C   0  0  0  0  0  0  0  0  0  0  0  0
  149.4331  139.8629  152.9370 H   0  0  0  0  0  0  0  0  0  0  0  0
  149.2001  140.7833  155.6021 H   0  0  0  0  0  0  0  0  0  0  0  0
  148.5780  142.6627  154.2175 H   0  0  0  0  0  0  0  0  0  0  0  0
  147.8550  141.6038  153.0088 H   0  0  0  0  0  0  0  0  0  0  0  0
  146.7646  142.3121  155.7261 H   0  0  0  0  0  0  0  0  0  0  0  0
  145.8894  142.1371  154.2113 H   0  0  0  0  0  0  0  0  0  0  0  0
  146.2277  140.1701  156.2587 H   0  0  0  0  0  0  0  0  0  0  0  0
  145.5410  139.8617  154.6797 H   0  0  0  0  0  0  0  0  0  0  0  0
  147.4886  139.1100  153.7500 H   0  0  0  0  0  0  0  0  0  0  0  0
  148.9354  137.7673  155.2259 H   0  0  0  0  0  0  0  0  0  0  0  0
  149.2220  139.2272  157.1795 H   0  0  0  0  0  0  0  0  0  0  0  0
  147.5328  139.0716  157.6119 H   0  0  0  0  0  0  0  0  0  0  0  0
  147.8908  135.6068  158.4904 H   0  0  0  0  0  0  0  0  0  0  0  0
  146.7374  136.9229  158.3611 H   0  0  0  0  0  0  0  0  0  0  0  0
  148.1291  135.4749  156.0351 H   0  0  0  0  0  0  0  0  0  0  0  0
  146.4314  135.3392  156.4632 H   0  0  0  0  0  0  0  0  0  0  0  0
  144.6408  138.0694  152.0531 H   0  0  0  0  0  0  0  0  0  0  0  0
  148.0136  132.6802  153.0860 H   0  0  0  0  0  0  0  0  0  0  0  0
  147.0872  133.8438  150.0600 H   0  0  0  0  0  0  0  0  0  0  0  0
  146.7544  132.3716  150.9326 H   0  0  0  0  0  0  0  0  0  0  0  0
  145.3443  134.9689  149.1987 H   0  0  0  0  0  0  0  0  0  0  0  0
  144.3307  133.3181  152.4956 H   0  0  0  0  0  0  0  0  0  0  0  0
  143.0605  133.7897  151.3804 H   0  0  0  0  0  0  0  0  0  0  0  0
  144.3386  131.0376  151.5798 H   0  0  0  0  0  0  0  0  0  0  0  0
  142.6158  131.4457  151.6528 H   0  0  0  0  0  0  0  0  0  0  0  0
  144.4281  132.8348  148.3271 H   0  0  0  0  0  0  0  0  0  0  0  0
  145.4812  131.7203  149.1862 H   0  0  0  0  0  0  0  0  0  0  0  0
  1  2  1  0  0  0  0
  1 29  1  0  0  0  0
  2  6  1  0  0  0  0
  2  3  1  0  0  0  0
  2 30  1  0  0  0  0
  3  4  1  0  0  0  0
  3 31  1  0  0  0  0
  3 32  1  0  0  0  0
  4  5  1  0  0  0  0
  4 33  1  0  0  0  0
  4 34  1  0  0  0  0
  5  6  1  0  0  0  0
  5 35  1  0  0  0  0
  5 36  1  0  0  0  0
  6  7  1  0  0  0  0
  6 37  1  0  0  0  0
  7 12  1  0  0  0  0
  7  8  1  0  0  0  0
  7 38  1  0  0  0  0
  8  9  1  0  0  0  0
  8 39  1  0  0  0  0
  8 40  1  0  0  0  0
  9 10  1  0  0  0  0
 10 11  1  0  0  0  0
 10 41  1  0  0  0  0
 10 42  1  0  0  0  0
 11 12  1  0  0  0  0
 11 43  1  0  0  0  0
 11 44  1  0  0  0  0
 12 13  1  0  0  0  0
 13 18  1  0  0  0  0
 13 14  2  0  0  0  0
 14 15  1  0  0  0  0
 15 16  2  0  0  0  0
 15 45  1  0  0  0  0
 16 17  1  0  0  0  0
 17 21  1  0  0  0  0
 17 18  2  0  0  0  0
 18 19  1  0  0  0  0
 19 20  2  0  0  0  0
 20 21  1  0  0  0  0
 20 46  1  0  0  0  0
 21 22  1  0  0  0  0
 22 23  1  0  0  0  0
 22 47  1  0  0  0  0
 22 48  1  0  0  0  0
 23 28  1  0  0  0  0
 23 24  1  0  0  0  0
 23 25  1  0  0  0  0
 24 49  1  0  0  0  0
 25 26  1  0  0  0  0
 25 50  1  0  0  0  0
 25 51  1  0  0  0  0
 26 27  1  0  0  0  0
 26 52  1  0  0  0  0
 26 53  1  0  0  0  0
 27 28  1  0  0  0  0
 28 54  1  0  0  0  0
 28 55  1  0  0  0  0
M  END
> <s_m_source_file>
AV-unprocessed.smi

> <i_m_source_file_index>
240

> <i_lp_mmshare_version>
43012

> <i_f3d_flags>
0

> <s_epik_input>
W09IXVtDQEBIXTFbQ0gyXVtDSDJdW0NIMl1bQ0BIXTFbQ0BASF0yW0NIMl1PW0NIMl1bQ0gyXU4yYyhuW2NIXW4zKWMoYzM0KW5bY0hdbjRbQ0gyXVtDQEBdNShbT0hdKVtDSDJdW0NIMl1PW0NIMl01

> <s_epik_cmdline>
J2VwaWtfcHl0aG9uJywgJy1waCcsICc3LjAnLCAnLXRuJywgJzgnLCAnLW1hJywgJzIwMCcsICctbWV0YWxfYmluZGluZycsICctaW1hZScsICc8aW5maWxlLm1hZT4nLCAnLW9tYWUnLCAnPG91dGZpbGUubWFlPic=

> <r_lp_tautomer_probability>
1

> <r_epik_Ionization_Penalty>
0.000130618

> <r_epik_Ionization_Penalty_Charging>
0

> <r_epik_Ionization_Penalty_Neutral>
0.000130618

> <r_epik_State_Penalty>
-0

> <r_epik_Charging_Adjusted_Penalty>
0

> <i_epik_Tot_Q>
0

> <i_epik_Tot_abs_Q>
0

> <r_epik_Metal_State_Penalty>
-0

> <b_epik_Metal_Only>
0

> <s_lp_Force_Field>
OPLS_2005

> <r_lp_Energy>
62.6221

> <b_lp_Chiralities_Consistent>
1

> <s_lp_Variant>
AV-unprocessed.smi:240-16

> <Gold.Version>
5.8.1

> <Gold.Id.Protein>
6NUR|6NUR_protein|mol2

> <Gold.PLP.Fitness>
44.8130

> <Gold.PLP.PLP>
-28.8632

> <Gold.PLP.part.hbond>
-3.5954

> <Gold.PLP.part.metal>
0.0000

> <Gold.PLP.part.buried>
1.7575

> <Gold.PLP.part.nonpolar>
-27.3170

> <Gold.PLP.part.repulsive>
1.2605

> <Gold.PLP.ligand.clash>
0.0000

> <Gold.PLP.ligand.torsion>
0.9257

> <Gold.PLP.Chemscore.Hbond>
3.8640

> <Gold.PLP.Chemscore.CHOScore>
2.0000

> <Gold.PLP.Chemscore.Metal>
0.0000

> <Gold.Chemscore.Hbonds>
donor molecule, donor type, donor heavy atom, donor atom, acceptor molecule, acceptor atom, score
      L1  H     1    29       P1  7957  0.86
      L1  H    24    49       P1  7921  1.00
      P1  H  7989  7998       L1     1  0.74
      P1  H 10785 10796       L1    27  0.99
      L1  C    15    45       P1 10171  1.00
      L1  C    15    45       P1 10175  0.84

> <Gold.PLP.Chemscore.Internal.Correction>
0.2092

> <Gold.Rescore>
     Score         DG    S(hbond)    S(metal)    S(lipo)     H(rot)  DE(clash)    DE(int)     intcor
     10.73     -17.78       3.30        0.00      76.60       3.00       3.55       3.49       ----

> <Gold.Chemscore.Fitness>
10.7313

> <Gold.Chemscore.DG>
-17.7785

> <Gold.Chemscore.ZeroCoef>
-5.4800

> <Gold.Chemscore.Hbond>
3.3013

> <Gold.Chemscore.Metal>
0.0000

> <Gold.Chemscore.Lipo>
76.5984

> <Gold.Chemscore.Internal_Hbond>
0.0000

> <Gold.Chemscore.DEClash>
3.5532

> <Gold.Chemscore.DEInternal>
3.4941

> <Gold.Chemscore.Rot>
3.0039

> <Gold.Chemscore.Internal.Correction>
   9.000000E+99

> <Gold.Chemscore.Hbonds>
donor molecule, donor type, donor heavy atom, donor atom, acceptor molecule, acceptor atom, score
      L1  H     1    29       P1  7957  0.85
      L1  H    24    49       P1  7921  0.98
      P1  H  7989  7998       L1     1  0.51
      P1  H 10785 10796       L1    27  0.73

> <Gold.Chemscore.Hbond.Weighted>
-11.0264

> <Gold.Chemscore.Metal.Weighted>
-0.0000

> <Gold.Chemscore.Lipo.Weighted>
-8.9620

> <Gold.Chemscore.Internal_Hbond.Weighted>
0.0000

> <Gold.Chemscore.DEClash.Weighted>
3.5532

> <Gold.Chemscore.DEInternal.Weighted>
3.4941

> <Gold.Chemscore.Rot.Weighted>
7.6899

> <Gold.Chemscore.Internal.Correction.Weighted>
   9.000000E+99

> <Gold.Protein.RotatedTorsions>
[ 6907 6896 6895 6894 ] final   98.77 input  -60.11 | X-H torsion
[ 7974 7965 7964 7962 ] final  136.73 input  175.53 | X-H torsion
[ 8008 7997 7996 7995 ] final  -89.39 input   59.86 | X-H torsion
[ 10167 10162 10161 10158 ] final  163.72 input  -65.29 | X-H torsion
[ 10718 10713 10712 10709 ] final  -49.57 input   66.30 | X-H torsion
[ 10763 10752 10751 10750 ] final   54.07 input  -60.55 | X-H torsion
[ 11005 11000 10999 10996 ] final  129.42 input  -57.11 | X-H torsion

> <Gold.Protein.ActiveResidues>
 VAL166  LYS551  ARG553  GLY616  TRP617  ASP618  TYR619  PRO620  LYS621  CYS622 
 ASP623  PHE694  ASN695  SER759  ASP760  ASP761  ALA762  ILE779  LEU786  VAL792 
 PHE793  MET794  SER795  GLU796  ALA797  LYS798  CYS799  TRP800  GLU811  SER814 

> <Gold.Protein.RotatedAtoms>
  152.5403  134.0529  159.8117 H   0  0  0  0  0  0  0  0  0  0  0  0  # atno 6907 bound_to 6896
  151.0668  133.5491  159.2637 H   0  0  0  0  0  0  0  0  0  0  0  0  # atno 6908 bound_to 6896
  151.2369  135.0583  159.9063 H   0  0  0  0  0  0  0  0  0  0  0  0  # atno 6909 bound_to 6896
  144.9536  139.4790  143.5514 H   0  0  0  0  0  0  0  0  0  0  0  0  # atno 7974 bound_to 7965
  154.6860  140.0542  157.0315 H   0  0  0  0  0  0  0  0  0  0  0  0  # atno 8008 bound_to 7997
  155.0883  140.3216  155.4562 H   0  0  0  0  0  0  0  0  0  0  0  0  # atno 8009 bound_to 7997
  156.2711  140.2052  156.6011 H   0  0  0  0  0  0  0  0  0  0  0  0  # atno 8010 bound_to 7997
  139.4878  144.4308  151.9073 H   0  0  0  0  0  0  0  0  0  0  0  0  # atno 10167 bound_to 10162
  156.1881  130.4152  149.9411 H   0  0  0  0  0  0  0  0  0  0  0  0  # atno 10718 bound_to 10713
  152.9801  135.5757  154.4845 H   0  0  0  0  0  0  0  0  0  0  0  0  # atno 10763 bound_to 10752
  154.4389  135.2775  155.1863 H   0  0  0  0  0  0  0  0  0  0  0  0  # atno 10764 bound_to 10752
  154.3540  135.6203  153.5710 H   0  0  0  0  0  0  0  0  0  0  0  0  # atno 10765 bound_to 10752
  139.9614  134.9601  156.9145 H   0  0  0  0  0  0  0  0  0  0  0  0  # atno 11005 bound_to 11000
  146.3329  139.8638  142.8851 LP  0  0  0  0  0  0  0  0  0  0  0  0  # atno 17320 bound_to 7965
  145.2806  141.0137  143.3719 LP  0  0  0  0  0  0  0  0  0  0  0  0  # atno 17321 bound_to 7965
  140.3755  144.2801  150.5914 LP  0  0  0  0  0  0  0  0  0  0  0  0  # atno 17342 bound_to 10162
  140.5280  143.2250  151.8284 LP  0  0  0  0  0  0  0  0  0  0  0  0  # atno 17343 bound_to 10162
  156.7160  130.8988  151.3614 LP  0  0  0  0  0  0  0  0  0  0  0  0  # atno 17370 bound_to 10713
  157.6911  130.9235  150.0517 LP  0  0  0  0  0  0  0  0  0  0  0  0  # atno 17371 bound_to 10713
  140.5491  134.0644  155.7364 LP  0  0  0  0  0  0  0  0  0  0  0  0  # atno 17394 bound_to 11000
  141.1291  133.9332  157.2572 LP  0  0  0  0  0  0  0  0  0  0  0  0  # atno 17395 bound_to 11000

$$$$
