AV-unprocessed.smi:3046|AV-procd|sdf|11619|dock2
  -GOLD-   2272017 03D 1   1.00000     0.00000
 Structure written by MMmdl.
 37 37  0  0  0  0  0  0  0  0  1 V2000
  144.3364  133.9719  151.0013 C   0  0  0  0  0  0  0  0  0  0  0  0
  145.1584  134.8048  151.6567 C   0  0  0  0  0  0  0  0  0  0  0  0
  145.5343  136.1935  151.1781 C   0  0  0  0  0  0  0  0  0  0  0  0
  146.1935  136.9558  152.2304 N   0  0  0  0  0  0  0  0  0  0  0  0
  146.7862  138.1490  152.0666 C   0  0  0  0  0  0  0  0  0  0  0  0
  146.8180  138.7453  150.9895 O   0  0  0  0  0  0  0  0  0  0  0  0
  147.4814  138.7453  153.3014 C   0  0  2  0  0  0  0  0  0  0  0  0
  146.9923  140.1787  153.5621 C   0  0  0  0  0  0  0  0  0  0  0  0
  148.9515  138.7331  153.1984 N   0  0  0  0  0  0  0  0  0  0  0  0
  149.6725  138.9620  154.4507 C   0  0  1  0  0  0  0  0  0  0  0  0
  151.0490  138.2855  154.3595 C   0  0  0  0  0  0  0  0  0  0  0  0
  149.8049  140.4801  154.6823 C   0  0  0  0  0  0  0  0  0  0  0  0
  150.4576  140.7883  155.9435 N   0  0  0  0  0  0  0  0  0  0  0  0
  150.6883  142.0260  156.5058 C   0  0  0  0  0  0  0  0  0  0  0  0
  151.3411  141.8206  157.6872 C   0  0  0  0  0  0  0  0  0  0  0  0
  151.4634  140.4050  157.7635 C   0  0  0  0  0  0  0  0  0  0  0  0
  150.9321  139.7899  156.7196 N   0  0  0  0  0  0  0  0  0  0  0  0
  143.8777  134.2559  150.0653 H   0  0  0  0  0  0  0  0  0  0  0  0
  144.1114  132.9918  151.3952 H   0  0  0  0  0  0  0  0  0  0  0  0
  145.6004  134.4822  152.5885 H   0  0  0  0  0  0  0  0  0  0  0  0
  146.1826  136.1106  150.3044 H   0  0  0  0  0  0  0  0  0  0  0  0
  144.6422  136.7340  150.8598 H   0  0  0  0  0  0  0  0  0  0  0  0
  146.2213  136.5367  153.1486 H   0  0  0  0  0  0  0  0  0  0  0  0
  147.2057  138.1466  154.1718 H   0  0  0  0  0  0  0  0  0  0  0  0
  145.9065  140.2154  153.6590 H   0  0  0  0  0  0  0  0  0  0  0  0
  147.2780  140.8561  152.7561 H   0  0  0  0  0  0  0  0  0  0  0  0
  147.4145  140.5713  154.4879 H   0  0  0  0  0  0  0  0  0  0  0  0
  149.2946  137.9013  152.7396 H   0  0  0  0  0  0  0  0  0  0  0  0
  149.1324  138.5416  155.3002 H   0  0  0  0  0  0  0  0  0  0  0  0
  151.6192  138.4394  155.2759 H   0  0  0  0  0  0  0  0  0  0  0  0
  151.6365  138.6875  153.5331 H   0  0  0  0  0  0  0  0  0  0  0  0
  150.9579  137.2093  154.2110 H   0  0  0  0  0  0  0  0  0  0  0  0
  150.4004  140.9273  153.8855 H   0  0  0  0  0  0  0  0  0  0  0  0
  148.8284  140.9671  154.6502 H   0  0  0  0  0  0  0  0  0  0  0  0
  150.3760  142.9391  156.0211 H   0  0  0  0  0  0  0  0  0  0  0  0
  151.6799  142.5672  158.3898 H   0  0  0  0  0  0  0  0  0  0  0  0
  151.9193  139.8101  158.5411 H   0  0  0  0  0  0  0  0  0  0  0  0
  1  2  2  0  0  0  0
  1 18  1  0  0  0  0
  1 19  1  0  0  0  0
  2  3  1  0  0  0  0
  2 20  1  0  0  0  0
  3  4  1  0  0  0  0
  3 21  1  0  0  0  0
  3 22  1  0  0  0  0
  4  5  1  0  0  0  0
  4 23  1  0  0  0  0
  5  6  2  0  0  0  0
  5  7  1  0  0  0  0
  7  8  1  0  0  0  0
  7  9  1  0  0  0  0
  7 24  1  0  0  0  0
  8 25  1  0  0  0  0
  8 26  1  0  0  0  0
  8 27  1  0  0  0  0
  9 10  1  0  0  0  0
  9 28  1  0  0  0  0
 10 11  1  0  0  0  0
 10 12  1  0  0  0  0
 10 29  1  0  0  0  0
 11 30  1  0  0  0  0
 11 31  1  0  0  0  0
 11 32  1  0  0  0  0
 12 13  1  0  0  0  0
 12 33  1  0  0  0  0
 12 34  1  0  0  0  0
 13 17  1  0  0  0  0
 13 14  1  0  0  0  0
 14 15  2  0  0  0  0
 14 35  1  0  0  0  0
 15 16  1  0  0  0  0
 15 36  1  0  0  0  0
 16 17  2  0  0  0  0
 16 37  1  0  0  0  0
M  END
> <s_m_source_file>
AV-unprocessed.smi

> <i_m_source_file_index>
3046

> <i_lp_mmshare_version>
43012

> <i_f3d_flags>
0

> <s_epik_input>
W0NIMl09W0NIXVtDSDJdW05IXUMoPU8pW0NASF0oW0NIM10pW05IXVtDQEhdKFtDSDNdKVtDSDJdbjFbY0hdW2NIXVtjSF1uMQ==

> <s_epik_cmdline>
J2VwaWtfcHl0aG9uJywgJy1waCcsICc3LjAnLCAnLXRuJywgJzgnLCAnLW1hJywgJzIwMCcsICctbWV0YWxfYmluZGluZycsICctaW1hZScsICc8aW5maWxlLm1hZT4nLCAnLW9tYWUnLCAnPG91dGZpbGUubWFlPic=

> <r_lp_tautomer_probability>
1

> <r_epik_Ionization_Penalty>
0.950627

> <r_epik_Ionization_Penalty_Charging>
0

> <r_epik_Ionization_Penalty_Neutral>
0.950627

> <r_epik_State_Penalty>
0.994814

> <r_epik_Charging_Adjusted_Penalty>
0.994814

> <i_epik_Tot_Q>
0

> <i_epik_Tot_abs_Q>
0

> <r_epik_Metal_State_Penalty>
0.994788

> <b_epik_Metal_Only>
0

> <s_lp_Force_Field>
OPLS_2005

> <r_lp_Energy>
6.36017

> <b_lp_Chiralities_Consistent>
1

> <s_lp_Variant>
AV-unprocessed.smi:3046-7

> <Gold.Version>
5.8.1

> <Gold.Id.Protein>
6NUR|6NUR_protein|mol2

> <Gold.PLP.Fitness>
41.7491

> <Gold.PLP.PLP>
-34.1263

> <Gold.PLP.part.hbond>
-3.9010

> <Gold.PLP.part.metal>
0.0000

> <Gold.PLP.part.buried>
-1.7549

> <Gold.PLP.part.nonpolar>
-29.9626

> <Gold.PLP.part.repulsive>
0.9783

> <Gold.PLP.ligand.clash>
0.0000

> <Gold.PLP.ligand.torsion>
0.6432

> <Gold.PLP.Chemscore.Hbond>
1.9280

> <Gold.PLP.Chemscore.CHOScore>
1.0000

> <Gold.PLP.Chemscore.Metal>
0.0000

> <Gold.Chemscore.Hbonds>
donor molecule, donor type, donor heavy atom, donor atom, acceptor molecule, acceptor atom, score
      L1  H     9    28       P1  7948  1.00
      P1  H  7954  7966       L1     6  0.91
      L1  C    14    35       P1  8028  1.00

> <Gold.PLP.Chemscore.Internal.Correction>
0.1253

> <Gold.Rescore>
     Score         DG    S(hbond)    S(metal)    S(lipo)     H(rot)  DE(clash)    DE(int)     intcor
     11.36     -14.86       1.96        0.00      71.89       2.17       1.48       2.02       ----

> <Gold.Chemscore.Fitness>
11.3634

> <Gold.Chemscore.DG>
-14.8603

> <Gold.Chemscore.ZeroCoef>
-5.4800

> <Gold.Chemscore.Hbond>
1.9564

> <Gold.Chemscore.Metal>
0.0000

> <Gold.Chemscore.Lipo>
71.8894

> <Gold.Chemscore.Internal_Hbond>
0.0000

> <Gold.Chemscore.DEClash>
1.4773

> <Gold.Chemscore.DEInternal>
2.0196

> <Gold.Chemscore.Rot>
2.1739

> <Gold.Chemscore.Internal.Correction>
   9.000000E+99

> <Gold.Chemscore.Hbonds>
donor molecule, donor type, donor heavy atom, donor atom, acceptor molecule, acceptor atom, score
      L1  H     9    28       P1  7948  0.88
      P1  H  7954  7966       L1     6  0.58

> <Gold.Chemscore.Hbond.Weighted>
-6.5344

> <Gold.Chemscore.Metal.Weighted>
-0.0000

> <Gold.Chemscore.Lipo.Weighted>
-8.4111

> <Gold.Chemscore.Internal_Hbond.Weighted>
0.0000

> <Gold.Chemscore.DEClash.Weighted>
1.4773

> <Gold.Chemscore.DEInternal.Weighted>
2.0196

> <Gold.Chemscore.Rot.Weighted>
5.5652

> <Gold.Chemscore.Internal.Correction.Weighted>
   9.000000E+99

> <Gold.Protein.RotatedTorsions>
[ 6907 6896 6895 6894 ] final   95.45 input  -60.11 | X-H torsion
[ 7974 7965 7964 7962 ] final  -71.33 input  175.53 | X-H torsion
[ 8008 7997 7996 7995 ] final -103.37 input   59.86 | X-H torsion
[ 10167 10162 10161 10158 ] final  152.20 input  -65.29 | X-H torsion
[ 10718 10713 10712 10709 ] final   24.16 input   66.30 | X-H torsion
[ 10763 10752 10751 10750 ] final   57.82 input  -60.55 | X-H torsion
[ 11005 11000 10999 10996 ] final  -27.57 input  -57.11 | X-H torsion

> <Gold.Protein.ActiveResidues>
 VAL166  LYS551  ARG553  GLY616  TRP617  ASP618  TYR619  PRO620  LYS621  CYS622 
 ASP623  PHE694  ASN695  SER759  ASP760  ASP761  ALA762  ILE779  LEU786  VAL792 
 PHE793  MET794  SER795  GLU796  ALA797  LYS798  CYS799  TRP800  GLU811  SER814 

> <Gold.Protein.RotatedAtoms>
  152.5443  134.1038  159.8329 H   0  0  0  0  0  0  0  0  0  0  0  0  # atno 6907 bound_to 6896
  151.1113  133.5163  159.2613 H   0  0  0  0  0  0  0  0  0  0  0  0  # atno 6908 bound_to 6896
  151.1881  135.0400  159.8875 H   0  0  0  0  0  0  0  0  0  0  0  0  # atno 6909 bound_to 6896
  145.6795  140.9193  143.0840 H   0  0  0  0  0  0  0  0  0  0  0  0  # atno 7974 bound_to 7965
  154.8699  140.0423  157.1718 H   0  0  0  0  0  0  0  0  0  0  0  0  # atno 8008 bound_to 7997
  154.8750  140.2964  155.5438 H   0  0  0  0  0  0  0  0  0  0  0  0  # atno 8009 bound_to 7997
  156.2999  140.2422  156.3744 H   0  0  0  0  0  0  0  0  0  0  0  0  # atno 8010 bound_to 7997
  139.4834  144.5377  151.7617 H   0  0  0  0  0  0  0  0  0  0  0  0  # atno 10167 bound_to 10162
  157.1760  130.6781  149.6095 H   0  0  0  0  0  0  0  0  0  0  0  0  # atno 10718 bound_to 10713
  152.9858  135.5628  154.5453 H   0  0  0  0  0  0  0  0  0  0  0  0  # atno 10763 bound_to 10752
  154.4900  135.2792  155.1506 H   0  0  0  0  0  0  0  0  0  0  0  0  # atno 10764 bound_to 10752
  154.2980  135.6313  153.5465 H   0  0  0  0  0  0  0  0  0  0  0  0  # atno 10765 bound_to 10752
  140.9131  133.7448  156.0697 H   0  0  0  0  0  0  0  0  0  0  0  0  # atno 11005 bound_to 11000
  144.7031  139.8677  143.7438 LP  0  0  0  0  0  0  0  0  0  0  0  0  # atno 17320 bound_to 7965
  146.0977  139.3970  143.0366 LP  0  0  0  0  0  0  0  0  0  0  0  0  # atno 17321 bound_to 7965
  140.4912  144.1307  150.5951 LP  0  0  0  0  0  0  0  0  0  0  0  0  # atno 17342 bound_to 10162
  140.4169  143.2630  151.9764 LP  0  0  0  0  0  0  0  0  0  0  0  0  # atno 17343 bound_to 10162
  155.9731  130.4663  150.6283 LP  0  0  0  0  0  0  0  0  0  0  0  0  # atno 17370 bound_to 10713
  157.3998  131.0808  151.1319 LP  0  0  0  0  0  0  0  0  0  0  0  0  # atno 17371 bound_to 10713
  140.8085  134.3427  157.5419 LP  0  0  0  0  0  0  0  0  0  0  0  0  # atno 17394 bound_to 11000
  139.8761  134.9240  156.3338 LP  0  0  0  0  0  0  0  0  0  0  0  0  # atno 17395 bound_to 11000

$$$$
