AV-unprocessed.smi:1492|AV-procd|sdf|6038|dock5
  -GOLD-   22720 6143D 1   1.00000     0.00000
 Structure written by MMmdl.
 53 54  0  0  0  0  0  0  0  0  2 V2000
  147.9989  138.6030  156.1393 C   0  0  0  0  0  0  0  0  0  0  0  0
  149.1386  138.4859  155.1109 C   0  0  0  0  0  0  0  0  0  0  0  0
  150.0710  137.2459  155.2758 C   0  0  1  0  0  0  0  0  0  0  0  0
  151.3817  137.5503  154.5036 C   0  0  0  0  0  0  0  0  0  0  0  0
  150.3919  137.0458  156.7899 C   0  0  0  0  0  0  0  0  0  0  0  0
  151.5636  137.7925  157.2443 N   0  0  0  0  0  0  0  0  0  0  0  0
  152.1031  137.7377  158.4722 C   0  0  0  0  0  0  0  0  0  0  0  0
  151.6688  137.0236  159.3750 O   0  0  0  0  0  0  0  0  0  0  0  0
  153.3317  138.6155  158.7102 C   0  0  0  0  0  0  0  0  0  0  0  0
  153.0377  140.0638  159.0971 C   0  0  0  0  0  0  0  0  0  0  0  0
  153.6992  140.7151  160.0981 C   0  0  0  0  0  0  0  0  0  0  0  0
  154.7922  140.0607  160.9251 C   0  0  0  0  0  0  0  0  0  0  0  0
  153.4104  142.0478  160.4237 N   0  0  0  0  0  0  0  0  0  0  0  0
  152.4936  142.6665  159.7553 C   0  0  0  0  0  0  0  0  0  0  0  0
  152.0914  144.1047  160.0052 C   0  0  0  0  0  0  0  0  0  0  0  0
  151.7771  142.0575  158.7264 N   0  0  0  0  0  0  0  0  0  0  0  0
  151.9845  140.7765  158.3482 C   0  0  0  0  0  0  0  0  0  0  0  0
  151.3118  140.2766  157.4475 O   0  0  0  0  0  0  0  0  0  0  0  0
  149.4110  136.0147  154.7049 N   0  3  0  0  0  0  0  0  0  0  0  0
  150.2234  134.7648  154.7309 C   0  0  0  0  0  0  0  0  0  0  0  0
  149.5161  133.6432  153.9511 C   0  0  0  0  0  0  0  0  0  0  0  0
  148.2226  133.4198  154.4940 O   0  0  0  0  0  0  0  0  0  0  0  0
  147.4048  134.5768  154.3947 C   0  0  0  0  0  0  0  0  0  0  0  0
  148.0359  135.7228  155.2013 C   0  0  0  0  0  0  0  0  0  0  0  0
  151.0673  142.5885  158.2433 H   0  0  0  0  0  0  0  0  0  0  0  0
  147.4076  139.4990  155.9498 H   0  0  0  0  0  0  0  0  0  0  0  0
  148.3753  138.6745  157.1596 H   0  0  0  0  0  0  0  0  0  0  0  0
  147.3190  137.7530  156.0894 H   0  0  0  0  0  0  0  0  0  0  0  0
  148.6830  138.4708  154.1199 H   0  0  0  0  0  0  0  0  0  0  0  0
  149.7212  139.4067  155.1229 H   0  0  0  0  0  0  0  0  0  0  0  0
  151.7579  138.5497  154.7237 H   0  0  0  0  0  0  0  0  0  0  0  0
  151.2395  137.4932  153.4242 H   0  0  0  0  0  0  0  0  0  0  0  0
  152.1823  136.8588  154.7667 H   0  0  0  0  0  0  0  0  0  0  0  0
  149.5618  137.3921  157.4047 H   0  0  0  0  0  0  0  0  0  0  0  0
  150.5148  135.9890  157.0278 H   0  0  0  0  0  0  0  0  0  0  0  0
  151.9982  138.4077  156.5711 H   0  0  0  0  0  0  0  0  0  0  0  0
  153.9374  138.1540  159.4904 H   0  0  0  0  0  0  0  0  0  0  0  0
  153.9628  138.5812  157.8211 H   0  0  0  0  0  0  0  0  0  0  0  0
  154.4235  139.1528  161.4021 H   0  0  0  0  0  0  0  0  0  0  0  0
  155.1479  140.7280  161.7110 H   0  0  0  0  0  0  0  0  0  0  0  0
  155.6447  139.8022  160.2966 H   0  0  0  0  0  0  0  0  0  0  0  0
  152.9429  144.7657  159.8429 H   0  0  0  0  0  0  0  0  0  0  0  0
  151.7537  144.2271  161.0346 H   0  0  0  0  0  0  0  0  0  0  0  0
  151.2844  144.4189  159.3418 H   0  0  0  0  0  0  0  0  0  0  0  0
  151.2028  134.9106  154.2791 H   0  0  0  0  0  0  0  0  0  0  0  0
  150.3876  134.4413  155.7589 H   0  0  0  0  0  0  0  0  0  0  0  0
  149.4414  133.8924  152.8914 H   0  0  0  0  0  0  0  0  0  0  0  0
  150.0906  132.7193  154.0200 H   0  0  0  0  0  0  0  0  0  0  0  0
  147.2740  134.8600  153.3489 H   0  0  0  0  0  0  0  0  0  0  0  0
  146.4152  134.3422  154.7873 H   0  0  0  0  0  0  0  0  0  0  0  0
  148.0635  135.4434  156.2547 H   0  0  0  0  0  0  0  0  0  0  0  0
  147.3849  136.5904  155.1158 H   0  0  0  0  0  0  0  0  0  0  0  0
  149.2959  136.2277  153.7243 H   0  0  0  0  0  0  0  0  0  0  0  0
  1  2  1  0  0  0  0
  1 26  1  0  0  0  0
  1 27  1  0  0  0  0
  1 28  1  0  0  0  0
  2  3  1  0  0  0  0
  2 29  1  0  0  0  0
  2 30  1  0  0  0  0
  3  4  1  0  0  0  0
  3  5  1  0  0  0  0
  3 19  1  0  0  0  0
  4 31  1  0  0  0  0
  4 32  1  0  0  0  0
  4 33  1  0  0  0  0
  5  6  1  0  0  0  0
  5 34  1  0  0  0  0
  5 35  1  0  0  0  0
  6  7  1  0  0  0  0
  6 36  1  0  0  0  0
  7  8  2  0  0  0  0
  7  9  1  0  0  0  0
  9 10  1  0  0  0  0
  9 37  1  0  0  0  0
  9 38  1  0  0  0  0
 10 17  1  0  0  0  0
 10 11  2  0  0  0  0
 11 12  1  0  0  0  0
 11 13  1  0  0  0  0
 12 39  1  0  0  0  0
 12 40  1  0  0  0  0
 12 41  1  0  0  0  0
 13 14  2  0  0  0  0
 14 15  1  0  0  0  0
 14 16  1  0  0  0  0
 15 42  1  0  0  0  0
 15 43  1  0  0  0  0
 15 44  1  0  0  0  0
 16 25  1  0  0  0  0
 16 17  1  0  0  0  0
 17 18  2  0  0  0  0
 19 24  1  0  0  0  0
 19 20  1  0  0  0  0
 19 53  1  0  0  0  0
 20 21  1  0  0  0  0
 20 45  1  0  0  0  0
 20 46  1  0  0  0  0
 21 22  1  0  0  0  0
 21 47  1  0  0  0  0
 21 48  1  0  0  0  0
 22 23  1  0  0  0  0
 23 24  1  0  0  0  0
 23 49  1  0  0  0  0
 23 50  1  0  0  0  0
 24 51  1  0  0  0  0
 24 52  1  0  0  0  0
M  CHG  1  19   1
M  END
> <s_m_source_file>
AV-unprocessed.smi

> <i_m_source_file_index>
1492

> <i_lp_mmshare_version>
43012

> <i_f3d_flags>
0

> <s_epik_input>
W0NIMl0xW0NIMl1PW0NIMl1bQ0gyXU4xW0NAQF0oW0NIM10pKFtDSDJdW0NIM10pW0NIMl1bTkhdQyg9TylbQ0gyXWMyYyhbQ0gzXSluYyhbQ0gzXSlbbkhdYzI9Tw==

> <s_epik_cmdline>
J2VwaWtfcHl0aG9uJywgJy1waCcsICc3LjAnLCAnLXRuJywgJzgnLCAnLW1hJywgJzIwMCcsICctbWV0YWxfYmluZGluZycsICctaW1hZScsICc8aW5maWxlLm1hZT4nLCAnLW9tYWUnLCAnPG91dGZpbGUubWFlPic=

> <r_lp_tautomer_probability>
0.839158

> <r_epik_Ionization_Penalty>
0.506959

> <r_epik_Ionization_Penalty_Charging>
0.506936

> <r_epik_Ionization_Penalty_Neutral>
2.27768e-05

> <r_epik_State_Penalty>
0.6046

> <r_epik_Charging_Adjusted_Penalty>
1.11154

> <i_epik_Tot_Q>
1

> <i_epik_Tot_abs_Q>
1

> <r_epik_Metal_State_Penalty>
0.783136

> <b_epik_Metal_Only>
0

> <s_lp_Force_Field>
OPLS_2005

> <r_lp_Energy>
29.8272

> <b_lp_Chiralities_Consistent>
1

> <s_lp_Variant>
AV-unprocessed.smi:1492-3

> <Gold.Version>
5.8.1

> <Gold.Id.Protein>
6NUR|6NUR_protein|mol2

> <Gold.PLP.Fitness>
41.1433

> <Gold.PLP.PLP>
-34.8909

> <Gold.PLP.part.hbond>
-2.0000

> <Gold.PLP.part.metal>
0.0000

> <Gold.PLP.part.buried>
-6.9424

> <Gold.PLP.part.nonpolar>
-27.3043

> <Gold.PLP.part.repulsive>
0.2057

> <Gold.PLP.ligand.clash>
0.0000

> <Gold.PLP.ligand.torsion>
1.4127

> <Gold.PLP.Chemscore.Hbond>
2.9750

> <Gold.PLP.Chemscore.CHOScore>
0.0000

> <Gold.PLP.Chemscore.Metal>
0.0000

> <Gold.Chemscore.Hbonds>
donor molecule, donor type, donor heavy atom, donor atom, acceptor molecule, acceptor atom, score
      L1  H    19    53       P1  7948  2.00
      P1  H  6896  6907       L1     8  1.00

> <Gold.PLP.Chemscore.Internal.Correction>
0.1527

> <Gold.Rescore>
     Score         DG    S(hbond)    S(metal)    S(lipo)     H(rot)  DE(clash)    DE(int)     intcor
      9.81     -15.18       1.91        0.00      76.27       2.19       0.00       5.37       ----

> <Gold.Chemscore.Fitness>
9.8055

> <Gold.Chemscore.DG>
-15.1807

> <Gold.Chemscore.ZeroCoef>
-5.4800

> <Gold.Chemscore.Hbond>
1.9134

> <Gold.Chemscore.Metal>
0.0000

> <Gold.Chemscore.Lipo>
76.2652

> <Gold.Chemscore.Internal_Hbond>
0.0000

> <Gold.Chemscore.DEClash>
0.0024

> <Gold.Chemscore.DEInternal>
5.3728

> <Gold.Chemscore.Rot>
2.1926

> <Gold.Chemscore.Internal.Correction>
   9.000000E+99

> <Gold.Chemscore.Hbonds>
donor molecule, donor type, donor heavy atom, donor atom, acceptor molecule, acceptor atom, score
      L1  H    19    53       P1  7948  0.85
      P1  H  6896  6907       L1     8  0.98

> <Gold.Chemscore.Hbond.Weighted>
-6.3906

> <Gold.Chemscore.Metal.Weighted>
-0.0000

> <Gold.Chemscore.Lipo.Weighted>
-8.9230

> <Gold.Chemscore.Internal_Hbond.Weighted>
0.0000

> <Gold.Chemscore.DEClash.Weighted>
0.0024

> <Gold.Chemscore.DEInternal.Weighted>
5.3728

> <Gold.Chemscore.Rot.Weighted>
5.6129

> <Gold.Chemscore.Internal.Correction.Weighted>
   9.000000E+99

> <Gold.Protein.RotatedTorsions>
[ 6907 6896 6895 6894 ] final   -5.66 input  -60.11 | X-H torsion
[ 7974 7965 7964 7962 ] final  -48.77 input  175.53 | X-H torsion
[ 8008 7997 7996 7995 ] final  174.08 input   59.86 | X-H torsion
[ 10167 10162 10161 10158 ] final    6.62 input  -65.29 | X-H torsion
[ 10718 10713 10712 10709 ] final  -90.35 input   66.30 | X-H torsion
[ 10763 10752 10751 10750 ] final  175.47 input  -60.55 | X-H torsion
[ 11005 11000 10999 10996 ] final -121.48 input  -57.11 | X-H torsion

> <Gold.Protein.ActiveResidues>
 VAL166  LYS551  ARG553  GLY616  TRP617  ASP618  TYR619  PRO620  LYS621  CYS622 
 ASP623  PHE694  ASN695  SER759  ASP760  ASP761  ALA762  ILE779  LEU786  VAL792 
 PHE793  MET794  SER795  GLU796  ALA797  LYS798  CYS799  TRP800  GLU811  SER814 

> <Gold.Protein.RotatedAtoms>
  151.4779  135.1050  159.9769 H   0  0  0  0  0  0  0  0  0  0  0  0  # atno 6907 bound_to 6896
  152.4791  133.8205  159.7061 H   0  0  0  0  0  0  0  0  0  0  0  0  # atno 6908 bound_to 6896
  150.8849  133.7260  159.2948 H   0  0  0  0  0  0  0  0  0  0  0  0  # atno 6909 bound_to 6896
  145.9476  140.7603  142.9520 H   0  0  0  0  0  0  0  0  0  0  0  0  # atno 7974 bound_to 7965
  156.1011  140.1443  156.9466 H   0  0  0  0  0  0  0  0  0  0  0  0  # atno 8008 bound_to 7997
  154.4703  140.0912  156.7172 H   0  0  0  0  0  0  0  0  0  0  0  0  # atno 8009 bound_to 7997
  155.4759  140.3443  155.4334 H   0  0  0  0  0  0  0  0  0  0  0  0  # atno 8010 bound_to 7997
  140.6417  143.7758  150.7438 H   0  0  0  0  0  0  0  0  0  0  0  0  # atno 10167 bound_to 10162
  155.9987  130.4906  150.5310 H   0  0  0  0  0  0  0  0  0  0  0  0  # atno 10718 bound_to 10713
  154.4680  135.2770  155.1664 H   0  0  0  0  0  0  0  0  0  0  0  0  # atno 10763 bound_to 10752
  154.3425  135.6167  153.5607 H   0  0  0  0  0  0  0  0  0  0  0  0  # atno 10764 bound_to 10752
  152.9861  135.5792  154.5055 H   0  0  0  0  0  0  0  0  0  0  0  0  # atno 10765 bound_to 10752
  141.0067  134.0324  157.3467 H   0  0  0  0  0  0  0  0  0  0  0  0  # atno 11005 bound_to 11000
  144.6790  140.2383  143.7347 LP  0  0  0  0  0  0  0  0  0  0  0  0  # atno 17320 bound_to 7965
  145.8214  139.2045  143.1935 LP  0  0  0  0  0  0  0  0  0  0  0  0  # atno 17321 bound_to 7965
  140.1390  143.4458  152.2205 LP  0  0  0  0  0  0  0  0  0  0  0  0  # atno 17342 bound_to 10162
  139.5627  144.7415  151.4110 LP  0  0  0  0  0  0  0  0  0  0  0  0  # atno 17343 bound_to 10162
  157.3259  131.0690  151.1897 LP  0  0  0  0  0  0  0  0  0  0  0  0  # atno 17370 bound_to 10713
  157.2794  130.6743  149.6058 LP  0  0  0  0  0  0  0  0  0  0  0  0  # atno 17371 bound_to 10713
  139.9067  135.0181  156.7517 LP  0  0  0  0  0  0  0  0  0  0  0  0  # atno 17394 bound_to 11000
  140.6801  133.9482  155.7905 LP  0  0  0  0  0  0  0  0  0  0  0  0  # atno 17395 bound_to 11000

$$$$
