AV-unprocessed.smi:3025|AV-procd|sdf|11507|dock6
  -GOLD-   2272016443D 1   1.00000     0.00000
 Structure written by MMmdl.
 42 43  0  0  0  0  0  0  0  0  2 V2000
  151.9447  143.4338  158.7829 C   0  0  0  0  0  0  0  0  0  0  0  0
  151.0834  142.9838  157.5976 C   0  0  0  0  0  0  0  0  0  0  0  0
  151.2485  141.4866  157.2858 C   0  0  0  0  0  0  0  0  0  0  0  0
  150.6592  141.0551  155.9270 C   0  0  2  0  0  0  0  0  0  0  0  0
  149.1471  141.3446  155.8177 C   0  0  0  0  0  0  0  0  0  0  0  0
  148.5703  140.8842  154.4689 C   0  0  0  0  0  0  0  0  0  0  0  0
  148.8428  139.3877  154.2138 C   0  0  1  0  0  0  0  0  0  0  0  0
  148.3409  138.9599  152.8889 N   0  3  0  0  0  0  0  0  0  0  0  0
  146.8803  139.0798  152.6991 C   0  0  0  0  0  0  0  0  0  0  0  0
  146.1673  137.7731  153.0711 C   0  0  0  0  0  0  0  0  0  0  0  0
  145.8077  136.9704  151.8652 C   0  0  0  0  0  0  0  0  0  0  0  0
  146.3880  137.2003  150.6863 N   0  0  0  0  0  0  0  0  0  0  0  0
  145.8241  136.2539  149.9050 N   0  0  0  0  0  0  0  0  0  0  0  0
  144.9834  135.5322  150.6446 C   0  0  0  0  0  0  0  0  0  0  0  0
  144.9270  135.9244  151.9107 N   0  0  0  0  0  0  0  0  0  0  0  0
  150.3517  139.1037  154.3153 C   0  0  0  0  0  0  0  0  0  0  0  0
  150.9223  139.5580  155.6681 C   0  0  0  0  0  0  0  0  0  0  0  0
  151.8119  144.4981  158.9772 H   0  0  0  0  0  0  0  0  0  0  0  0
  153.0038  143.2612  158.5894 H   0  0  0  0  0  0  0  0  0  0  0  0
  151.6769  142.8941  159.6914 H   0  0  0  0  0  0  0  0  0  0  0  0
  150.0408  143.2108  157.8191 H   0  0  0  0  0  0  0  0  0  0  0  0
  151.3491  143.5725  156.7188 H   0  0  0  0  0  0  0  0  0  0  0  0
  152.3143  141.2544  157.2947 H   0  0  0  0  0  0  0  0  0  0  0  0
  150.8054  140.8924  158.0860 H   0  0  0  0  0  0  0  0  0  0  0  0
  151.1718  141.6192  155.1460 H   0  0  0  0  0  0  0  0  0  0  0  0
  148.6165  140.8444  156.6290 H   0  0  0  0  0  0  0  0  0  0  0  0
  148.9534  142.4104  155.9341 H   0  0  0  0  0  0  0  0  0  0  0  0
  147.4999  141.0890  154.4587 H   0  0  0  0  0  0  0  0  0  0  0  0
  149.0064  141.4813  153.6668 H   0  0  0  0  0  0  0  0  0  0  0  0
  148.3360  138.7958  154.9781 H   0  0  0  0  0  0  0  0  0  0  0  0
  148.8156  139.4922  152.1734 H   0  0  0  0  0  0  0  0  0  0  0  0
  146.5031  139.8960  153.3169 H   0  0  0  0  0  0  0  0  0  0  0  0
  146.6601  139.3311  151.6617 H   0  0  0  0  0  0  0  0  0  0  0  0
  146.8050  137.1697  153.7189 H   0  0  0  0  0  0  0  0  0  0  0  0
  145.2614  137.9869  153.6405 H   0  0  0  0  0  0  0  0  0  0  0  0
  144.4088  134.7053  150.2531 H   0  0  0  0  0  0  0  0  0  0  0  0
  150.5408  138.0379  154.1811 H   0  0  0  0  0  0  0  0  0  0  0  0
  150.8815  139.6148  153.5101 H   0  0  0  0  0  0  0  0  0  0  0  0
  151.9940  139.3577  155.6930 H   0  0  0  0  0  0  0  0  0  0  0  0
  150.4799  138.9623  156.4679 H   0  0  0  0  0  0  0  0  0  0  0  0
  148.5787  137.9852  152.7727 H   0  0  0  0  0  0  0  0  0  0  0  0
  146.0388  136.1427  148.9241 H   0  0  0  0  0  0  0  0  0  0  0  0
  1  2  1  0  0  0  0
  1 18  1  0  0  0  0
  1 19  1  0  0  0  0
  1 20  1  0  0  0  0
  2  3  1  0  0  0  0
  2 21  1  0  0  0  0
  2 22  1  0  0  0  0
  3  4  1  0  0  0  0
  3 23  1  0  0  0  0
  3 24  1  0  0  0  0
  4 17  1  0  0  0  0
  4  5  1  0  0  0  0
  4 25  1  0  0  0  0
  5  6  1  0  0  0  0
  5 26  1  0  0  0  0
  5 27  1  0  0  0  0
  6  7  1  0  0  0  0
  6 28  1  0  0  0  0
  6 29  1  0  0  0  0
  7  8  1  0  0  0  0
  7 16  1  0  0  0  0
  7 30  1  0  0  0  0
  8  9  1  0  0  0  0
  8 31  1  0  0  0  0
  8 41  1  0  0  0  0
  9 10  1  0  0  0  0
  9 32  1  0  0  0  0
  9 33  1  0  0  0  0
 10 34  1  0  0  0  0
 10 35  1  0  0  0  0
 10 11  1  0  0  0  0
 11 15  1  0  0  0  0
 11 12  2  0  0  0  0
 12 13  1  0  0  0  0
 13 14  1  0  0  0  0
 13 42  1  0  0  0  0
 14 15  2  0  0  0  0
 14 36  1  0  0  0  0
 16 17  1  0  0  0  0
 16 37  1  0  0  0  0
 16 38  1  0  0  0  0
 17 39  1  0  0  0  0
 17 40  1  0  0  0  0
M  CHG  1   8   1
M  END
> <s_m_source_file>
AV-unprocessed.smi

> <i_m_source_file_index>
3025

> <i_lp_mmshare_version>
43012

> <i_f3d_flags>
0

> <s_epik_input>
W0NIM11bQ0gyXVtDSDJdW0NAQEhdMVtDSDJdW0NIMl1bQ0BIXShbQ0gyXVtDSDJdMSlbTkhdW0NIMl1bQ0gyXWMybm5bY0hdW25IXTI=

> <s_epik_cmdline>
J2VwaWtfcHl0aG9uJywgJy1waCcsICc3LjAnLCAnLXRuJywgJzgnLCAnLW1hJywgJzIwMCcsICctbWV0YWxfYmluZGluZycsICctaW1hZScsICc8aW5maWxlLm1hZT4nLCAnLW9tYWUnLCAnPG91dGZpbGUubWFlPic=

> <r_epik_Ionization_Penalty>
0.00995411

> <r_epik_Ionization_Penalty_Charging>
0.000442289

> <r_epik_Ionization_Penalty_Neutral>
0.00951182

> <r_epik_State_Penalty>
0.448541

> <r_epik_Charging_Adjusted_Penalty>
0.448983

> <i_epik_Tot_Q>
1

> <i_epik_Tot_abs_Q>
1

> <r_epik_Metal_State_Penalty>
0.682245

> <b_epik_Metal_Only>
0

> <s_lp_Force_Field>
OPLS_2005

> <r_lp_Energy>
10.682

> <b_lp_Chiralities_Consistent>
1

> <s_lp_Variant>
AV-unprocessed.smi:3025-3

> <Gold.Version>
5.8.1

> <Gold.Id.Protein>
6NUR|6NUR_protein|mol2

> <Gold.PLP.Fitness>
46.3894

> <Gold.PLP.PLP>
-35.1806

> <Gold.PLP.part.hbond>
-4.2710

> <Gold.PLP.part.metal>
0.0000

> <Gold.PLP.part.buried>
-4.8891

> <Gold.PLP.part.nonpolar>
-29.8550

> <Gold.PLP.part.repulsive>
2.7269

> <Gold.PLP.ligand.clash>
0.0000

> <Gold.PLP.ligand.torsion>
0.7575

> <Gold.PLP.Chemscore.Hbond>
4.2273

> <Gold.PLP.Chemscore.CHOScore>
0.0000

> <Gold.PLP.Chemscore.Metal>
0.0000

> <Gold.Chemscore.Hbonds>
donor molecule, donor type, donor heavy atom, donor atom, acceptor molecule, acceptor atom, score
      L1  H     8    31       P1  7957  0.65
      L1  H     8    41       P1  7948  2.00
      L1  H    13    42       P1  7921  0.83
      P1  H  7954  7966       L1    12  0.94

> <Gold.PLP.Chemscore.Internal.Correction>
0.0421

> <Gold.Rescore>
     Score         DG    S(hbond)    S(metal)    S(lipo)     H(rot)  DE(clash)    DE(int)     intcor
     16.54     -18.73       3.08        0.00      81.30       2.56       1.43       0.76       ----

> <Gold.Chemscore.Fitness>
16.5450

> <Gold.Chemscore.DG>
-18.7284

> <Gold.Chemscore.ZeroCoef>
-5.4800

> <Gold.Chemscore.Hbond>
3.0808

> <Gold.Chemscore.Metal>
0.0000

> <Gold.Chemscore.Lipo>
81.3046

> <Gold.Chemscore.Internal_Hbond>
0.0000

> <Gold.Chemscore.DEClash>
1.4258

> <Gold.Chemscore.DEInternal>
0.7576

> <Gold.Chemscore.Rot>
2.5602

> <Gold.Chemscore.Internal.Correction>
   9.000000E+99

> <Gold.Chemscore.Hbonds>
donor molecule, donor type, donor heavy atom, donor atom, acceptor molecule, acceptor atom, score
      L1  H     8    31       P1  7957  0.65
      L1  H     8    41       P1  7948  0.97
      L1  H    13    42       P1  7921  0.83
      P1  H  7954  7966       L1    12  0.67

> <Gold.Chemscore.Hbond.Weighted>
-10.2899

> <Gold.Chemscore.Metal.Weighted>
-0.0000

> <Gold.Chemscore.Lipo.Weighted>
-9.5126

> <Gold.Chemscore.Internal_Hbond.Weighted>
0.0000

> <Gold.Chemscore.DEClash.Weighted>
1.4258

> <Gold.Chemscore.DEInternal.Weighted>
0.7576

> <Gold.Chemscore.Rot.Weighted>
6.5542

> <Gold.Chemscore.Internal.Correction.Weighted>
   9.000000E+99

> <Gold.Protein.RotatedTorsions>
[ 6907 6896 6895 6894 ] final   72.22 input  -60.11 | X-H torsion
[ 7974 7965 7964 7962 ] final   55.49 input  175.53 | X-H torsion
[ 8008 7997 7996 7995 ] final -128.32 input   59.86 | X-H torsion
[ 10167 10162 10161 10158 ] final   92.54 input  -65.29 | X-H torsion
[ 10718 10713 10712 10709 ] final  118.91 input   66.30 | X-H torsion
[ 10763 10752 10751 10750 ] final   -7.77 input  -60.55 | X-H torsion
[ 11005 11000 10999 10996 ] final  153.46 input  -57.11 | X-H torsion

> <Gold.Protein.ActiveResidues>
 VAL166  LYS551  ARG553  GLY616  TRP617  ASP618  TYR619  PRO620  LYS621  CYS622 
 ASP623  PHE694  ASN695  SER759  ASP760  ASP761  ALA762  ILE779  LEU786  VAL792 
 PHE793  MET794  SER795  GLU796  ALA797  LYS798  CYS799  TRP800  GLU811  SER814 

> <Gold.Protein.RotatedAtoms>
  152.4855  134.4604  159.9603 H   0  0  0  0  0  0  0  0  0  0  0  0  # atno 6907 bound_to 6896
  151.4601  133.3589  159.2816 H   0  0  0  0  0  0  0  0  0  0  0  0  # atno 6908 bound_to 6896
  150.8962  134.8395  159.7389 H   0  0  0  0  0  0  0  0  0  0  0  0  # atno 6909 bound_to 6896
  145.9498  139.3962  143.0313 H   0  0  0  0  0  0  0  0  0  0  0  0  # atno 7974 bound_to 7965
  155.2607  140.0436  157.2997 H   0  0  0  0  0  0  0  0  0  0  0  0  # atno 8008 bound_to 7997
  154.5712  140.2374  155.8158 H   0  0  0  0  0  0  0  0  0  0  0  0  # atno 8009 bound_to 7997
  156.2124  140.2995  155.9770 H   0  0  0  0  0  0  0  0  0  0  0  0  # atno 8010 bound_to 7997
  139.8267  144.6706  150.9451 H   0  0  0  0  0  0  0  0  0  0  0  0  # atno 10167 bound_to 10162
  157.5998  131.1052  150.7822 H   0  0  0  0  0  0  0  0  0  0  0  0  # atno 10718 bound_to 10713
  153.4310  135.7012  153.6231 H   0  0  0  0  0  0  0  0  0  0  0  0  # atno 10763 bound_to 10752
  153.4645  135.3728  155.2357 H   0  0  0  0  0  0  0  0  0  0  0  0  # atno 10764 bound_to 10752
  154.8725  135.4028  154.3694 H   0  0  0  0  0  0  0  0  0  0  0  0  # atno 10765 bound_to 10752
  140.1400  134.8745  157.2318 H   0  0  0  0  0  0  0  0  0  0  0  0  # atno 11005 bound_to 11000
  145.8186  140.9690  143.0910 LP  0  0  0  0  0  0  0  0  0  0  0  0  # atno 17320 bound_to 7965
  144.6794  140.0013  143.7484 LP  0  0  0  0  0  0  0  0  0  0  0  0  # atno 17321 bound_to 7965
  140.7810  143.4040  151.1102 LP  0  0  0  0  0  0  0  0  0  0  0  0  # atno 17342 bound_to 10162
  139.7696  143.8513  152.3118 LP  0  0  0  0  0  0  0  0  0  0  0  0  # atno 17343 bound_to 10162
  156.8224  130.4988  149.5341 LP  0  0  0  0  0  0  0  0  0  0  0  0  # atno 17370 bound_to 10713
  156.1068  130.6011  150.9984 LP  0  0  0  0  0  0  0  0  0  0  0  0  # atno 17371 bound_to 10713
  140.2734  134.3433  155.7366 LP  0  0  0  0  0  0  0  0  0  0  0  0  # atno 17394 bound_to 11000
  141.2184  133.7436  156.9257 LP  0  0  0  0  0  0  0  0  0  0  0  0  # atno 17395 bound_to 11000

$$$$
