AV-unprocessed.smi:221|AV-procd|sdf|1691|dock5
  -GOLD-   2262020133D 1   1.00000     0.00000
 Structure written by MMmdl.
 50 53  0  0  0  0  0  0  0  0  1 V2000
  143.2579  136.2566  161.8119 N   0  0  0  0  0  0  0  0  0  0  0  0
  144.1810  137.2017  161.6094 C   0  0  0  0  0  0  0  0  0  0  0  0
  143.8822  138.3152  161.1830 O   0  0  0  0  0  0  0  0  0  0  0  0
  145.6511  136.8522  161.9194 C   0  0  1  0  0  0  0  0  0  0  0  0
  145.9047  135.4380  162.4628 C   0  0  0  0  0  0  0  0  0  0  0  0
  147.4124  135.2396  162.2567 C   0  0  1  0  0  0  0  0  0  0  0  0
  147.6459  134.0791  161.6428 F   0  0  0  0  0  0  0  0  0  0  0  0
  147.8623  136.4232  161.3829 C   0  0  0  0  0  0  0  0  0  0  0  0
  146.6459  137.0304  160.8523 N   0  0  0  0  0  0  0  0  0  0  0  0
  146.4077  136.6254  159.5755 C   0  0  0  0  0  0  0  0  0  0  0  0
  146.3847  135.3069  159.2428 N   0  0  0  0  0  0  0  0  0  0  0  0
  146.1667  134.9346  157.9784 C   0  0  0  0  0  0  0  0  0  0  0  0
  145.9605  135.7024  156.9066 N   0  0  0  0  0  0  0  0  0  0  0  0
  145.9962  137.0259  157.2327 C   0  0  0  0  0  0  0  0  0  0  0  0
  146.2136  137.5677  158.5302 C   0  0  0  0  0  0  0  0  0  0  0  0
  146.1841  138.9557  158.4792 N   0  0  0  0  0  0  0  0  0  0  0  0
  145.9642  139.2209  157.2201 C   0  0  0  0  0  0  0  0  0  0  0  0
  145.8441  138.1213  156.4007 N   0  0  0  0  0  0  0  0  0  0  0  0
  145.6040  138.1328  154.9682 C   0  0  0  0  0  0  0  0  0  0  0  0
  146.8656  138.4888  154.1433 C   0  0  1  0  0  0  0  0  0  0  0  0
  146.6316  138.3762  152.6167 C   0  0  0  0  0  0  0  0  0  0  0  0
  146.3838  137.0401  152.2294 O   0  0  0  0  0  0  0  0  0  0  0  0
  147.4417  139.8686  154.5521 C   0  0  2  0  0  0  0  0  0  0  0  0
  146.6006  141.0633  154.1379 C   0  0  0  0  0  0  0  0  0  0  0  0
  147.6002  142.2098  154.2362 C   0  0  0  0  0  0  0  0  0  0  0  0
  148.8613  141.6478  153.8920 O   0  0  0  0  0  0  0  0  0  0  0  0
  148.7770  140.2258  153.8895 C   0  0  0  0  0  0  0  0  0  0  0  0
  145.9388  137.5570  162.7019 H   0  0  0  0  0  0  0  0  0  0  0  0
  147.9562  135.2191  163.2016 H   0  0  0  0  0  0  0  0  0  0  0  0
  142.2864  136.4565  161.6233 H   0  0  0  0  0  0  0  0  0  0  0  0
  143.5340  135.3489  162.1573 H   0  0  0  0  0  0  0  0  0  0  0  0
  145.6186  135.3442  163.5109 H   0  0  0  0  0  0  0  0  0  0  0  0
  145.3394  134.6937  161.8996 H   0  0  0  0  0  0  0  0  0  0  0  0
  148.3712  137.1698  161.9941 H   0  0  0  0  0  0  0  0  0  0  0  0
  148.5722  136.1118  160.6135 H   0  0  0  0  0  0  0  0  0  0  0  0
  146.1589  133.8693  157.7998 H   0  0  0  0  0  0  0  0  0  0  0  0
  145.8873  140.2328  156.8494 H   0  0  0  0  0  0  0  0  0  0  0  0
  145.2189  137.1571  154.6693 H   0  0  0  0  0  0  0  0  0  0  0  0
  144.8044  138.8487  154.7765 H   0  0  0  0  0  0  0  0  0  0  0  0
  147.6218  137.7420  154.3902 H   0  0  0  0  0  0  0  0  0  0  0  0
  145.7878  138.9919  152.3066 H   0  0  0  0  0  0  0  0  0  0  0  0
  147.4911  138.7477  152.0586 H   0  0  0  0  0  0  0  0  0  0  0  0
  147.2083  136.6296  152.0182 H   0  0  0  0  0  0  0  0  0  0  0  0
  147.5768  139.9022  155.6345 H   0  0  0  0  0  0  0  0  0  0  0  0
  146.2590  140.9521  153.1078 H   0  0  0  0  0  0  0  0  0  0  0  0
  145.7281  141.2178  154.7734 H   0  0  0  0  0  0  0  0  0  0  0  0
  147.3433  143.0454  153.5848 H   0  0  0  0  0  0  0  0  0  0  0  0
  147.6528  142.5815  155.2602 H   0  0  0  0  0  0  0  0  0  0  0  0
  149.6292  139.7843  154.4064 H   0  0  0  0  0  0  0  0  0  0  0  0
  148.7990  139.8860  152.8531 H   0  0  0  0  0  0  0  0  0  0  0  0
  1  2  1  0  0  0  0
  1 30  1  0  0  0  0
  1 31  1  0  0  0  0
  2  3  2  0  0  0  0
  2  4  1  0  0  0  0
  4 28  1  0  0  0  0
  4  9  1  0  0  0  0
  4  5  1  0  0  0  0
  5  6  1  0  0  0  0
  5 32  1  0  0  0  0
  5 33  1  0  0  0  0
  6 29  1  0  0  0  0
  6  7  1  0  0  0  0
  6  8  1  0  0  0  0
  8  9  1  0  0  0  0
  8 34  1  0  0  0  0
  8 35  1  0  0  0  0
  9 10  1  0  0  0  0
 10 15  1  0  0  0  0
 10 11  2  0  0  0  0
 11 12  1  0  0  0  0
 12 13  2  0  0  0  0
 12 36  1  0  0  0  0
 13 14  1  0  0  0  0
 14 18  1  0  0  0  0
 14 15  2  0  0  0  0
 15 16  1  0  0  0  0
 16 17  2  0  0  0  0
 17 18  1  0  0  0  0
 17 37  1  0  0  0  0
 18 19  1  0  0  0  0
 19 20  1  0  0  0  0
 19 38  1  0  0  0  0
 19 39  1  0  0  0  0
 20 21  1  0  0  0  0
 20 23  1  0  0  0  0
 20 40  1  0  0  0  0
 21 22  1  0  0  0  0
 21 41  1  0  0  0  0
 21 42  1  0  0  0  0
 22 43  1  0  0  0  0
 23 27  1  0  0  0  0
 23 24  1  0  0  0  0
 23 44  1  0  0  0  0
 24 25  1  0  0  0  0
 24 45  1  0  0  0  0
 24 46  1  0  0  0  0
 25 26  1  0  0  0  0
 25 47  1  0  0  0  0
 25 48  1  0  0  0  0
 26 27  1  0  0  0  0
 27 49  1  0  0  0  0
 27 50  1  0  0  0  0
M  END
> <s_m_source_file>
AV-unprocessed.smi

> <i_m_source_file_index>
221

> <i_lp_mmshare_version>
43012

> <i_f3d_flags>
0

> <s_epik_input>
W05IMl1DKD1PKVtDQEBIXTFbQ0gyXVtDQEBIXShGKVtDSDJdTjFjKG5bY0hdbjIpYyhjMjMpbltjSF1uM1tDSDJdW0NASF0oW0NIMl1bT0hdKVtDQEBIXTRbQ0gyXVtDSDJdT1tDSDJdNA==

> <s_epik_cmdline>
J2VwaWtfcHl0aG9uJywgJy1waCcsICc3LjAnLCAnLXRuJywgJzgnLCAnLW1hJywgJzIwMCcsICctbWV0YWxfYmluZGluZycsICctaW1hZScsICc8aW5maWxlLm1hZT4nLCAnLW9tYWUnLCAnPG91dGZpbGUubWFlPic=

> <r_lp_tautomer_probability>
1

> <r_epik_Ionization_Penalty>
0.000818822

> <r_epik_Ionization_Penalty_Charging>
0

> <r_epik_Ionization_Penalty_Neutral>
0.000818822

> <r_epik_State_Penalty>
0.000440551

> <r_epik_Charging_Adjusted_Penalty>
0.000440551

> <i_epik_Tot_Q>
0

> <i_epik_Tot_abs_Q>
0

> <r_epik_Metal_State_Penalty>
-0

> <b_epik_Metal_Only>
0

> <s_lp_Force_Field>
OPLS_2005

> <r_lp_Energy>
55.0143

> <b_lp_Chiralities_Consistent>
1

> <s_lp_Variant>
AV-unprocessed.smi:221-6

> <Gold.Version>
5.8.1

> <Gold.Id.Protein>
6NUR|6NUR_protein|mol2

> <Gold.PLP.Fitness>
40.2127

> <Gold.PLP.PLP>
-32.5799

> <Gold.PLP.part.hbond>
-5.9624

> <Gold.PLP.part.metal>
0.0000

> <Gold.PLP.part.buried>
-1.4470

> <Gold.PLP.part.nonpolar>
-26.0914

> <Gold.PLP.part.repulsive>
1.0681

> <Gold.PLP.ligand.clash>
0.0000

> <Gold.PLP.ligand.torsion>
0.4948

> <Gold.PLP.Chemscore.Hbond>
2.8000

> <Gold.PLP.Chemscore.CHOScore>
0.0000

> <Gold.PLP.Chemscore.Metal>
0.0000

> <Gold.Chemscore.Hbonds>
donor molecule, donor type, donor heavy atom, donor atom, acceptor molecule, acceptor atom, score
      L1  H    22    43       P1  7948  1.00
      P1  H  6934  6947       L1     9  0.93
      P1  H  8011  8017       L1    26  0.62

> <Gold.PLP.Chemscore.Internal.Correction>
0.2226

> <Gold.Rescore>
     Score         DG    S(hbond)    S(metal)    S(lipo)     H(rot)  DE(clash)    DE(int)     intcor
      6.38      -9.60       1.81        0.00      64.98       3.72       1.43       1.78       ----

> <Gold.Chemscore.Fitness>
6.3839

> <Gold.Chemscore.DG>
-9.5995

> <Gold.Chemscore.ZeroCoef>
-5.4800

> <Gold.Chemscore.Hbond>
1.8085

> <Gold.Chemscore.Metal>
0.0000

> <Gold.Chemscore.Lipo>
64.9801

> <Gold.Chemscore.Internal_Hbond>
0.0000

> <Gold.Chemscore.DEClash>
1.4345

> <Gold.Chemscore.DEInternal>
1.7810

> <Gold.Chemscore.Rot>
3.7202

> <Gold.Chemscore.Internal.Correction>
   9.000000E+99

> <Gold.Chemscore.Hbonds>
donor molecule, donor type, donor heavy atom, donor atom, acceptor molecule, acceptor atom, score
      L1  H    22    43       P1  7948  1.00
      P1  H  6934  6947       L1     9  0.09
      P1  H  8011  8017       L1    26  0.52

> <Gold.Chemscore.Hbond.Weighted>
-6.0405

> <Gold.Chemscore.Metal.Weighted>
-0.0000

> <Gold.Chemscore.Lipo.Weighted>
-7.6027

> <Gold.Chemscore.Internal_Hbond.Weighted>
0.0000

> <Gold.Chemscore.DEClash.Weighted>
1.4345

> <Gold.Chemscore.DEInternal.Weighted>
1.7810

> <Gold.Chemscore.Rot.Weighted>
9.5237

> <Gold.Chemscore.Internal.Correction.Weighted>
   9.000000E+99

> <Gold.Protein.RotatedTorsions>
[ 6907 6896 6895 6894 ] final  -30.65 input  -60.11 | X-H torsion
[ 7974 7965 7964 7962 ] final  -78.43 input  175.53 | X-H torsion
[ 8008 7997 7996 7995 ] final  -56.66 input   59.86 | X-H torsion
[ 10167 10162 10161 10158 ] final   15.91 input  -65.29 | X-H torsion
[ 10718 10713 10712 10709 ] final -166.58 input   66.30 | X-H torsion
[ 10763 10752 10751 10750 ] final  -41.42 input  -60.55 | X-H torsion
[ 11005 11000 10999 10996 ] final  -89.46 input  -57.11 | X-H torsion

> <Gold.Protein.ActiveResidues>
 VAL166  LYS551  ARG553  GLY616  TRP617  ASP618  TYR619  PRO620  LYS621  CYS622 
 ASP623  PHE694  ASN695  SER759  ASP760  ASP761  ALA762  ILE779  LEU786  VAL792 
 PHE793  MET794  SER795  GLU796  ALA797  LYS798  CYS799  TRP800  GLU811  SER814 

> <Gold.Protein.RotatedAtoms>
  151.1026  134.9981  159.8455 H   0  0  0  0  0  0  0  0  0  0  0  0  # atno 6907 bound_to 6896
  152.5438  134.1931  159.8692 H   0  0  0  0  0  0  0  0  0  0  0  0  # atno 6908 bound_to 6896
  151.1975  133.4586  159.2629 H   0  0  0  0  0  0  0  0  0  0  0  0  # atno 6909 bound_to 6896
  145.5865  140.9438  143.1315 H   0  0  0  0  0  0  0  0  0  0  0  0  # atno 7974 bound_to 7965
  154.4238  140.1125  156.5672 H   0  0  0  0  0  0  0  0  0  0  0  0  # atno 8008 bound_to 7997
  155.6249  140.3495  155.4645 H   0  0  0  0  0  0  0  0  0  0  0  0  # atno 8009 bound_to 7997
  155.9994  140.1196  157.0551 H   0  0  0  0  0  0  0  0  0  0  0  0  # atno 8010 bound_to 7997
  140.5834  143.8937  150.6809 H   0  0  0  0  0  0  0  0  0  0  0  0  # atno 10167 bound_to 10162
  156.6699  130.9080  151.3042 H   0  0  0  0  0  0  0  0  0  0  0  0  # atno 10718 bound_to 10713
  153.9622  135.6738  153.4745 H   0  0  0  0  0  0  0  0  0  0  0  0  # atno 10763 bound_to 10752
  153.0833  135.4912  154.8543 H   0  0  0  0  0  0  0  0  0  0  0  0  # atno 10764 bound_to 10752
  154.7266  135.3129  154.8920 H   0  0  0  0  0  0  0  0  0  0  0  0  # atno 10765 bound_to 10752
  141.1584  133.7631  156.9598 H   0  0  0  0  0  0  0  0  0  0  0  0  # atno 11005 bound_to 11000
  144.7370  139.7556  143.7325 LP  0  0  0  0  0  0  0  0  0  0  0  0  # atno 17320 bound_to 7965
  146.1678  139.4816  142.9947 LP  0  0  0  0  0  0  0  0  0  0  0  0  # atno 17321 bound_to 7965
  140.2442  143.3641  152.1461 LP  0  0  0  0  0  0  0  0  0  0  0  0  # atno 17342 bound_to 10162
  139.5183  144.7004  151.5510 LP  0  0  0  0  0  0  0  0  0  0  0  0  # atno 17343 bound_to 10162
  157.7081  130.9408  150.0996 LP  0  0  0  0  0  0  0  0  0  0  0  0  # atno 17370 bound_to 10713
  156.1946  130.3656  149.8865 LP  0  0  0  0  0  0  0  0  0  0  0  0  # atno 17371 bound_to 10713
  140.1201  134.9423  157.2190 LP  0  0  0  0  0  0  0  0  0  0  0  0  # atno 17394 bound_to 11000
  140.3083  134.3052  155.7273 LP  0  0  0  0  0  0  0  0  0  0  0  0  # atno 17395 bound_to 11000

$$$$
