AV-unprocessed.smi:2229|AV-procd|sdf|9028|dock4
  -GOLD-   2272012233D 1   1.00000     0.00000
 Structure written by MMmdl.
 44 45  0  0  0  0  0  0  0  0  1 V2000
  151.9872  145.3326  159.8227 C   0  0  0  0  0  0  0  0  0  0  0  0
  152.3200  144.1703  158.8709 C   0  0  0  0  0  0  0  0  0  0  0  0
  151.8824  144.5112  157.4383 C   0  0  0  0  0  0  0  0  0  0  0  0
  151.7026  142.8312  159.3263 C   0  0  0  0  0  0  0  0  0  0  0  0
  152.7452  141.7368  159.6111 C   0  0  0  0  0  0  0  0  0  0  0  0
  153.6649  142.0370  160.8162 C   0  0  1  0  0  0  0  0  0  0  0  0
  152.9245  142.5403  162.0597 C   0  0  0  0  0  0  0  0  0  0  0  0
  153.9301  142.3547  163.1912 C   0  0  0  0  0  0  0  0  0  0  0  0
  154.6546  141.0489  162.8570 C   0  0  0  0  0  0  0  0  0  0  0  0
  154.5353  140.8587  161.3310 C   0  0  1  0  0  0  0  0  0  0  0  0
  153.9568  139.5475  161.0311 N   0  0  0  0  0  0  0  0  0  0  0  0
  153.9380  138.9598  159.8246 C   0  0  0  0  0  0  0  0  0  0  0  0
  154.4762  139.4398  158.8265 O   0  0  0  0  0  0  0  0  0  0  0  0
  153.1928  137.6246  159.7293 C   0  0  0  0  0  0  0  0  0  0  0  0
  152.0839  137.6914  158.7764 N   0  0  0  0  0  0  0  0  0  0  0  0
  150.9711  138.4853  158.9566 C   0  0  0  0  0  0  0  0  0  0  0  0
  150.1254  138.3540  157.9920 N   0  0  0  0  0  0  0  0  0  0  0  0
  150.7324  137.4473  157.1891 N   0  0  0  0  0  0  0  0  0  0  0  0
  151.9166  137.0269  157.6358 C   0  0  0  0  0  0  0  0  0  0  0  0
  152.6738  136.2133  157.1096 O   0  0  0  0  0  0  0  0  0  0  0  0
  150.2732  137.1552  156.3384 H   0  0  0  0  0  0  0  0  0  0  0  0
  150.9099  145.4724  159.9165 H   0  0  0  0  0  0  0  0  0  0  0  0
  152.4121  146.2685  159.4591 H   0  0  0  0  0  0  0  0  0  0  0  0
  152.3911  145.1685  160.8212 H   0  0  0  0  0  0  0  0  0  0  0  0
  153.4046  144.0531  158.8566 H   0  0  0  0  0  0  0  0  0  0  0  0
  150.8018  144.6432  157.3752 H   0  0  0  0  0  0  0  0  0  0  0  0
  152.1630  143.7215  156.7406 H   0  0  0  0  0  0  0  0  0  0  0  0
  152.3511  145.4332  157.0925 H   0  0  0  0  0  0  0  0  0  0  0  0
  151.0843  142.9902  160.2105 H   0  0  0  0  0  0  0  0  0  0  0  0
  151.0290  142.4773  158.5455 H   0  0  0  0  0  0  0  0  0  0  0  0
  152.2328  140.7868  159.7661 H   0  0  0  0  0  0  0  0  0  0  0  0
  153.3688  141.6138  158.7265 H   0  0  0  0  0  0  0  0  0  0  0  0
  154.3565  142.8254  160.5144 H   0  0  0  0  0  0  0  0  0  0  0  0
  152.5977  143.5763  161.9662 H   0  0  0  0  0  0  0  0  0  0  0  0
  152.0421  141.9264  162.2466 H   0  0  0  0  0  0  0  0  0  0  0  0
  154.6421  143.1810  163.1853 H   0  0  0  0  0  0  0  0  0  0  0  0
  153.4567  142.3319  164.1733 H   0  0  0  0  0  0  0  0  0  0  0  0
  155.6950  141.0769  163.1827 H   0  0  0  0  0  0  0  0  0  0  0  0
  154.1773  140.2260  163.3919 H   0  0  0  0  0  0  0  0  0  0  0  0
  155.5296  140.9320  160.8864 H   0  0  0  0  0  0  0  0  0  0  0  0
  153.4901  139.0751  161.7918 H   0  0  0  0  0  0  0  0  0  0  0  0
  153.9034  136.8480  159.4418 H   0  0  0  0  0  0  0  0  0  0  0  0
  152.8021  137.3393  160.7079 H   0  0  0  0  0  0  0  0  0  0  0  0
  150.8959  139.1182  159.8425 H   0  0  0  0  0  0  0  0  0  0  0  0
  1  2  1  0  0  0  0
  1 22  1  0  0  0  0
  1 23  1  0  0  0  0
  1 24  1  0  0  0  0
  2  3  1  0  0  0  0
  2  4  1  0  0  0  0
  2 25  1  0  0  0  0
  3 26  1  0  0  0  0
  3 27  1  0  0  0  0
  3 28  1  0  0  0  0
  4  5  1  0  0  0  0
  4 29  1  0  0  0  0
  4 30  1  0  0  0  0
  5  6  1  0  0  0  0
  5 31  1  0  0  0  0
  5 32  1  0  0  0  0
  6 10  1  0  0  0  0
  6  7  1  0  0  0  0
  6 33  1  0  0  0  0
  7  8  1  0  0  0  0
  7 34  1  0  0  0  0
  7 35  1  0  0  0  0
  8  9  1  0  0  0  0
  8 36  1  0  0  0  0
  8 37  1  0  0  0  0
  9 10  1  0  0  0  0
  9 38  1  0  0  0  0
  9 39  1  0  0  0  0
 10 11  1  0  0  0  0
 10 40  1  0  0  0  0
 11 12  1  0  0  0  0
 11 41  1  0  0  0  0
 12 13  2  0  0  0  0
 12 14  1  0  0  0  0
 14 15  1  0  0  0  0
 14 42  1  0  0  0  0
 14 43  1  0  0  0  0
 15 19  1  0  0  0  0
 15 16  1  0  0  0  0
 16 17  2  0  0  0  0
 16 44  1  0  0  0  0
 17 18  1  0  0  0  0
 18 21  1  0  0  0  0
 18 19  1  0  0  0  0
 19 20  2  0  0  0  0
M  END
> <s_m_source_file>
AV-unprocessed.smi

> <i_m_source_file_index>
2229

> <i_lp_mmshare_version>
43012

> <i_f3d_flags>
0

> <s_epik_input>
W0NIM11bQ0hdKFtDSDNdKVtDSDJdW0NIMl1bQ0BASF0xW0NIMl1bQ0gyXVtDSDJdW0NASF0xW05IXUMoPU8pW0NIMl1uMltjSF1uW25IXWMyPU8=

> <s_epik_cmdline>
J2VwaWtfcHl0aG9uJywgJy1waCcsICc3LjAnLCAnLXRuJywgJzgnLCAnLW1hJywgJzIwMCcsICctbWV0YWxfYmluZGluZycsICctaW1hZScsICc8aW5maWxlLm1hZT4nLCAnLW9tYWUnLCAnPG91dGZpbGUubWFlPic=

> <r_lp_tautomer_probability>
1

> <r_epik_Ionization_Penalty>
4.14174e-05

> <r_epik_Ionization_Penalty_Charging>
4.13165e-05

> <r_epik_Ionization_Penalty_Neutral>
1.00911e-07

> <r_epik_State_Penalty>
-0

> <r_epik_Charging_Adjusted_Penalty>
4.13165e-05

> <i_epik_Tot_Q>
0

> <i_epik_Tot_abs_Q>
0

> <r_epik_Metal_State_Penalty>
0.0399369

> <b_epik_Metal_Only>
0

> <s_lp_Force_Field>
OPLS_2005

> <r_lp_Energy>
36.1569

> <b_lp_Chiralities_Consistent>
1

> <s_lp_Variant>
AV-unprocessed.smi:2229-2

> <Gold.Version>
5.8.1

> <Gold.Id.Protein>
6NUR|6NUR_protein|mol2

> <Gold.PLP.Fitness>
46.2314

> <Gold.PLP.PLP>
-42.2362

> <Gold.PLP.part.hbond>
-2.0000

> <Gold.PLP.part.metal>
0.0000

> <Gold.PLP.part.buried>
-2.1682

> <Gold.PLP.part.nonpolar>
-37.6624

> <Gold.PLP.part.repulsive>
0.0842

> <Gold.PLP.ligand.clash>
0.0000

> <Gold.PLP.ligand.torsion>
1.0228

> <Gold.PLP.Chemscore.Hbond>
2.0000

> <Gold.PLP.Chemscore.CHOScore>
0.0000

> <Gold.PLP.Chemscore.Metal>
0.0000

> <Gold.Chemscore.Hbonds>
donor molecule, donor type, donor heavy atom, donor atom, acceptor molecule, acceptor atom, score
      P1  H  7997  8008       L1    13  1.00
      P1  H 10752 10764       L1    20  0.75

> <Gold.PLP.Chemscore.Internal.Correction>
0.0409

> <Gold.Rescore>
     Score         DG    S(hbond)    S(metal)    S(lipo)     H(rot)  DE(clash)    DE(int)     intcor
     17.92     -19.18       1.99        0.00     117.91       2.64       0.21       1.05       ----

> <Gold.Chemscore.Fitness>
17.9239

> <Gold.Chemscore.DG>
-19.1843

> <Gold.Chemscore.ZeroCoef>
-5.4800

> <Gold.Chemscore.Hbond>
1.9937

> <Gold.Chemscore.Metal>
0.0000

> <Gold.Chemscore.Lipo>
117.9104

> <Gold.Chemscore.Internal_Hbond>
0.0000

> <Gold.Chemscore.DEClash>
0.2078

> <Gold.Chemscore.DEInternal>
1.0526

> <Gold.Chemscore.Rot>
2.6368

> <Gold.Chemscore.Internal.Correction>
   9.000000E+99

> <Gold.Chemscore.Hbonds>
donor molecule, donor type, donor heavy atom, donor atom, acceptor molecule, acceptor atom, score
      P1  H  7997  8008       L1    13  0.98
      P1  H 10752 10764       L1    20  0.75

> <Gold.Chemscore.Hbond.Weighted>
-6.6589

> <Gold.Chemscore.Metal.Weighted>
-0.0000

> <Gold.Chemscore.Lipo.Weighted>
-13.7955

> <Gold.Chemscore.Internal_Hbond.Weighted>
0.0000

> <Gold.Chemscore.DEClash.Weighted>
0.2078

> <Gold.Chemscore.DEInternal.Weighted>
1.0526

> <Gold.Chemscore.Rot.Weighted>
6.7501

> <Gold.Chemscore.Internal.Correction.Weighted>
   9.000000E+99

> <Gold.Protein.RotatedTorsions>
[ 6907 6896 6895 6894 ] final  -29.19 input  -60.11 | X-H torsion
[ 7974 7965 7964 7962 ] final   86.23 input  175.53 | X-H torsion
[ 8008 7997 7996 7995 ] final -130.18 input   59.86 | X-H torsion
[ 10167 10162 10161 10158 ] final -170.39 input  -65.29 | X-H torsion
[ 10718 10713 10712 10709 ] final  151.84 input   66.30 | X-H torsion
[ 10763 10752 10751 10750 ] final   -4.56 input  -60.55 | X-H torsion
[ 11005 11000 10999 10996 ] final -159.76 input  -57.11 | X-H torsion

> <Gold.Protein.ActiveResidues>
 VAL166  LYS551  ARG553  GLY616  TRP617  ASP618  TYR619  PRO620  LYS621  CYS622 
 ASP623  PHE694  ASN695  SER759  ASP760  ASP761  ALA762  ILE779  LEU786  VAL792 
 PHE793  MET794  SER795  GLU796  ALA797  LYS798  CYS799  TRP800  GLU811  SER814 

> <Gold.Protein.RotatedAtoms>
  151.1226  135.0087  159.8545 H   0  0  0  0  0  0  0  0  0  0  0  0  # atno 6907 bound_to 6896
  152.5448  134.1705  159.8605 H   0  0  0  0  0  0  0  0  0  0  0  0  # atno 6908 bound_to 6896
  151.1764  133.4707  159.2627 H   0  0  0  0  0  0  0  0  0  0  0  0  # atno 6909 bound_to 6896
  145.5750  139.2318  143.2385 H   0  0  0  0  0  0  0  0  0  0  0  0  # atno 7974 bound_to 7965
  155.2915  140.0448  157.3023 H   0  0  0  0  0  0  0  0  0  0  0  0  # atno 8008 bound_to 7997
  154.5539  140.2325  155.8409 H   0  0  0  0  0  0  0  0  0  0  0  0  # atno 8009 bound_to 7997
  156.1990  140.3030  155.9494 H   0  0  0  0  0  0  0  0  0  0  0  0  # atno 8010 bound_to 7997
  139.5865  144.1308  152.1581 H   0  0  0  0  0  0  0  0  0  0  0  0  # atno 10167 bound_to 10162
  157.2655  131.0806  151.1636 H   0  0  0  0  0  0  0  0  0  0  0  0  # atno 10718 bound_to 10713
  153.3865  135.7000  153.6526 H   0  0  0  0  0  0  0  0  0  0  0  0  # atno 10763 bound_to 10752
  153.5116  135.3631  155.2590 H   0  0  0  0  0  0  0  0  0  0  0  0  # atno 10764 bound_to 10752
  154.8698  135.4136  154.3174 H   0  0  0  0  0  0  0  0  0  0  0  0  # atno 10765 bound_to 10752
  140.6390  134.4571  157.5232 H   0  0  0  0  0  0  0  0  0  0  0  0  # atno 11005 bound_to 11000
  146.1757  140.6576  142.9212 LP  0  0  0  0  0  0  0  0  0  0  0  0  # atno 17320 bound_to 7965
  144.7420  140.4968  143.6862 LP  0  0  0  0  0  0  0  0  0  0  0  0  # atno 17321 bound_to 7965
  140.0873  144.5651  150.7080 LP  0  0  0  0  0  0  0  0  0  0  0  0  # atno 17342 bound_to 10162
  140.7135  143.2525  151.4506 LP  0  0  0  0  0  0  0  0  0  0  0  0  # atno 17343 bound_to 10162
  157.3129  130.6899  149.6226 LP  0  0  0  0  0  0  0  0  0  0  0  0  # atno 17370 bound_to 10713
  155.9663  130.4358  150.5107 LP  0  0  0  0  0  0  0  0  0  0  0  0  # atno 17371 bound_to 10713
  139.9087  134.8392  156.1608 LP  0  0  0  0  0  0  0  0  0  0  0  0  # atno 17394 bound_to 11000
  141.0620  133.6837  156.1971 LP  0  0  0  0  0  0  0  0  0  0  0  0  # atno 17395 bound_to 11000

$$$$
