AV-unprocessed.smi:48|AV-procd|sdf|449|dock1
  -GOLD-   2262016313D 1   1.00000     0.00000
 Structure written by MMmdl.
 30 32  0  0  0  0  0  0  0  0  1 V2000
  145.8650  140.7343  154.7179 O   0  0  0  0  0  0  0  0  0  0  0  0
  146.6232  141.8669  155.0850 C   0  0  0  0  0  0  0  0  0  0  0  0
  148.0644  141.4484  155.4118 C   0  0  1  0  0  0  0  0  0  0  0  0
  148.0816  140.6665  156.6014 O   0  0  0  0  0  0  0  0  0  0  0  0
  149.2508  139.9037  156.6486 C   0  0  2  0  0  0  0  0  0  0  0  0
  150.2065  140.5615  157.5990 N   0  0  0  0  0  0  0  0  0  0  0  0
  150.0748  141.7176  158.2850 C   0  0  0  0  0  0  0  0  0  0  0  0
  151.0843  142.0781  159.0774 N   0  0  0  0  0  0  0  0  0  0  0  0
  151.9736  141.0339  158.8852 C   0  0  0  0  0  0  0  0  0  0  0  0
  153.2592  140.7552  159.4093 C   0  0  0  0  0  0  0  0  0  0  0  0
  154.0159  141.8297  160.5276 Cl  0  0  0  0  0  0  0  0  0  0  0  0
  153.8853  139.6215  159.0113 N   0  0  0  0  0  0  0  0  0  0  0  0
  153.2757  138.8054  158.1420 C   0  0  0  0  0  0  0  0  0  0  0  0
  152.0747  138.9354  157.5659 N   0  0  0  0  0  0  0  0  0  0  0  0
  151.4473  140.0785  157.9713 C   0  0  0  0  0  0  0  0  0  0  0  0
  149.8019  139.8272  155.2040 C   0  0  2  0  0  0  0  0  0  0  0  0
  151.0377  140.5031  155.0216 O   0  0  0  0  0  0  0  0  0  0  0  0
  148.6666  140.4669  154.4068 C   0  0  2  0  0  0  0  0  0  0  0  0
  149.0943  141.0921  153.2109 O   0  0  0  0  0  0  0  0  0  0  0  0
  148.7165  142.3175  155.5188 H   0  0  0  0  0  0  0  0  0  0  0  0
  149.0468  138.9295  157.0943 H   0  0  0  0  0  0  0  0  0  0  0  0
  149.9372  138.7825  154.9223 H   0  0  0  0  0  0  0  0  0  0  0  0
  147.9290  139.7017  154.1604 H   0  0  0  0  0  0  0  0  0  0  0  0
  145.2787  140.9793  154.0184 H   0  0  0  0  0  0  0  0  0  0  0  0
  146.5960  142.6165  154.2938 H   0  0  0  0  0  0  0  0  0  0  0  0
  146.1509  142.3057  155.9642 H   0  0  0  0  0  0  0  0  0  0  0  0
  149.1898  142.3312  158.2035 H   0  0  0  0  0  0  0  0  0  0  0  0
  153.8303  137.9202  157.8674 H   0  0  0  0  0  0  0  0  0  0  0  0
  151.1779  141.0756  155.7602 H   0  0  0  0  0  0  0  0  0  0  0  0
  148.9306  140.5037  152.4900 H   0  0  0  0  0  0  0  0  0  0  0  0
  1  2  1  0  0  0  0
  1 24  1  0  0  0  0
  2  3  1  0  0  0  0
  2 25  1  0  0  0  0
  2 26  1  0  0  0  0
  3 20  1  0  0  0  0
  3 18  1  0  0  0  0
  3  4  1  0  0  0  0
  4  5  1  0  0  0  0
  5 21  1  0  0  0  0
  5  6  1  0  0  0  0
  5 16  1  0  0  0  0
  6 15  1  0  0  0  0
  6  7  1  0  0  0  0
  7  8  2  0  0  0  0
  7 27  1  0  0  0  0
  8  9  1  0  0  0  0
  9 15  2  0  0  0  0
  9 10  1  0  0  0  0
 10 11  1  0  0  0  0
 10 12  2  0  0  0  0
 12 13  1  0  0  0  0
 13 14  2  0  0  0  0
 13 28  1  0  0  0  0
 14 15  1  0  0  0  0
 16 22  1  0  0  0  0
 16 17  1  0  0  0  0
 16 18  1  0  0  0  0
 17 29  1  0  0  0  0
 18 23  1  0  0  0  0
 18 19  1  0  0  0  0
 19 30  1  0  0  0  0
M  END
> <s_m_source_file>
AV-unprocessed.smi

> <i_m_source_file_index>
48

> <i_lp_mmshare_version>
43012

> <i_f3d_flags>
0

> <s_epik_input>
W09IXVtDSDJdW0NASF0xT1tDQEhdKFtDQEhdKFtPSF0pW0NAQEhdMVtPSF0pbihbY0hdbjIpYyhjMjMpbltjSF1uYzNDbA==

> <s_epik_cmdline>
J2VwaWtfcHl0aG9uJywgJy1waCcsICc3LjAnLCAnLXRuJywgJzgnLCAnLW1hJywgJzIwMCcsICctbWV0YWxfYmluZGluZycsICctaW1hZScsICc8aW5maWxlLm1hZT4nLCAnLW9tYWUnLCAnPG91dGZpbGUubWFlPic=

> <r_lp_tautomer_probability>
1

> <r_epik_Ionization_Penalty>
3.45505e-06

> <r_epik_Ionization_Penalty_Charging>
0

> <r_epik_Ionization_Penalty_Neutral>
3.45505e-06

> <r_epik_State_Penalty>
-0

> <r_epik_Charging_Adjusted_Penalty>
0

> <i_epik_Tot_Q>
0

> <i_epik_Tot_abs_Q>
0

> <r_epik_Metal_State_Penalty>
-0

> <b_epik_Metal_Only>
0

> <s_epik_Chemistry_Notes>
This compound contains an acetal/aminal-like group ( X-CH(R)-Y where X, Y are N, S, or O) that may be acid/base labile, releasing an aldehyde.

> <s_lp_Force_Field>
OPLS_2005

> <r_lp_Energy>
41.4935

> <b_lp_Chiralities_Consistent>
1

> <s_lp_Variant>
AV-unprocessed.smi:48-3

> <Gold.Version>
5.8.1

> <Gold.Id.Protein>
6NUR|6NUR_protein|mol2

> <Gold.PLP.Fitness>
38.9228

> <Gold.PLP.PLP>
-28.6089

> <Gold.PLP.part.hbond>
-4.9736

> <Gold.PLP.part.metal>
0.0000

> <Gold.PLP.part.buried>
-5.3887

> <Gold.PLP.part.nonpolar>
-18.8450

> <Gold.PLP.part.repulsive>
0.0487

> <Gold.PLP.ligand.clash>
0.0000

> <Gold.PLP.ligand.torsion>
0.1085

> <Gold.PLP.Chemscore.Hbond>
3.4851

> <Gold.PLP.Chemscore.CHOScore>
0.0000

> <Gold.PLP.Chemscore.Metal>
0.0000

> <Gold.Chemscore.Hbonds>
donor molecule, donor type, donor heavy atom, donor atom, acceptor molecule, acceptor atom, score
      L1  H     1    24       P1 10175  0.42
      L1  H    19    30       P1  7957  0.78
      P1  H  7989  7998       L1    17  1.00
      P1  H  7997  8009       L1    12  0.08
      P1  H  8011  8017       L1    19  0.95

> <Gold.PLP.Chemscore.Internal.Correction>
0.0757

> <Gold.Rescore>
     Score         DG    S(hbond)    S(metal)    S(lipo)     H(rot)  DE(clash)    DE(int)     intcor
     10.85     -11.81       3.10        0.00      48.80       3.80       0.00       0.96       ----

> <Gold.Chemscore.Fitness>
10.8497

> <Gold.Chemscore.DG>
-11.8091

> <Gold.Chemscore.ZeroCoef>
-5.4800

> <Gold.Chemscore.Hbond>
3.0994

> <Gold.Chemscore.Metal>
0.0000

> <Gold.Chemscore.Lipo>
48.7976

> <Gold.Chemscore.Internal_Hbond>
0.0000

> <Gold.Chemscore.DEClash>
0.0009

> <Gold.Chemscore.DEInternal>
0.9584

> <Gold.Chemscore.Rot>
3.8017

> <Gold.Chemscore.Internal.Correction>
   9.000000E+99

> <Gold.Chemscore.Hbonds>
donor molecule, donor type, donor heavy atom, donor atom, acceptor molecule, acceptor atom, score
      L1  H     1    24       P1 10175  0.35
      L1  H    19    30       P1  7957  0.75
      P1  H  7989  7998       L1    17  0.92
      P1  H  8011  8017       L1    19  0.21

> <Gold.Chemscore.Hbond.Weighted>
-10.3521

> <Gold.Chemscore.Metal.Weighted>
-0.0000

> <Gold.Chemscore.Lipo.Weighted>
-5.7093

> <Gold.Chemscore.Internal_Hbond.Weighted>
0.0000

> <Gold.Chemscore.DEClash.Weighted>
0.0009

> <Gold.Chemscore.DEInternal.Weighted>
0.9584

> <Gold.Chemscore.Rot.Weighted>
9.7324

> <Gold.Chemscore.Internal.Correction.Weighted>
   9.000000E+99

> <Gold.Protein.RotatedTorsions>
[ 6907 6896 6895 6894 ] final   42.70 input  -60.11 | X-H torsion
[ 7974 7965 7964 7962 ] final -170.70 input  175.53 | X-H torsion
[ 8008 7997 7996 7995 ] final  118.44 input   59.86 | X-H torsion
[ 10167 10162 10161 10158 ] final   45.95 input  -65.29 | X-H torsion
[ 10718 10713 10712 10709 ] final   39.80 input   66.30 | X-H torsion
[ 10763 10752 10751 10750 ] final  -10.12 input  -60.55 | X-H torsion
[ 11005 11000 10999 10996 ] final  -75.10 input  -57.11 | X-H torsion

> <Gold.Protein.ActiveResidues>
 VAL166  LYS551  ARG553  GLY616  TRP617  ASP618  TYR619  PRO620  LYS621  CYS622 
 ASP623  PHE694  ASN695  SER759  ASP760  ASP761  ALA762  ILE779  LEU786  VAL792 
 PHE793  MET794  SER795  GLU796  ALA797  LYS798  CYS799  TRP800  GLU811  SER814 

> <Gold.Protein.RotatedAtoms>
  152.2111  134.8501  160.0497 H   0  0  0  0  0  0  0  0  0  0  0  0  # atno 6907 bound_to 6896
  151.9319  133.3608  159.3942 H   0  0  0  0  0  0  0  0  0  0  0  0  # atno 6908 bound_to 6896
  150.6976  134.4453  159.5355 H   0  0  0  0  0  0  0  0  0  0  0  0  # atno 6909 bound_to 6896
  144.7166  140.2032  143.6336 H   0  0  0  0  0  0  0  0  0  0  0  0  # atno 7974 bound_to 7965
  156.2546  140.2874  156.0835 H   0  0  0  0  0  0  0  0  0  0  0  0  # atno 8008 bound_to 7997
  155.1541  140.0398  157.2845 H   0  0  0  0  0  0  0  0  0  0  0  0  # atno 8009 bound_to 7997
  154.6440  140.2529  155.7296 H   0  0  0  0  0  0  0  0  0  0  0  0  # atno 8010 bound_to 7997
  140.3189  144.2730  150.6186 H   0  0  0  0  0  0  0  0  0  0  0  0  # atno 10167 bound_to 10162
  157.3748  130.7721  149.7147 H   0  0  0  0  0  0  0  0  0  0  0  0  # atno 10718 bound_to 10713
  153.4646  135.7016  153.6029 H   0  0  0  0  0  0  0  0  0  0  0  0  # atno 10763 bound_to 10752
  153.4309  135.3803  155.2170 H   0  0  0  0  0  0  0  0  0  0  0  0  # atno 10764 bound_to 10752
  154.8726  135.3950  154.4076 H   0  0  0  0  0  0  0  0  0  0  0  0  # atno 10765 bound_to 10752
  141.1642  133.6935  156.7466 H   0  0  0  0  0  0  0  0  0  0  0  0  # atno 11005 bound_to 11000
  145.8660  139.2247  143.1689 LP  0  0  0  0  0  0  0  0  0  0  0  0  # atno 17320 bound_to 7965
  146.0129  140.8419  142.9962 LP  0  0  0  0  0  0  0  0  0  0  0  0  # atno 17321 bound_to 7965
  140.5501  143.2208  151.7941 LP  0  0  0  0  0  0  0  0  0  0  0  0  # atno 17342 bound_to 10162
  139.4878  144.4487  151.9679 LP  0  0  0  0  0  0  0  0  0  0  0  0  # atno 17343 bound_to 10162
  155.9763  130.4077  150.3789 LP  0  0  0  0  0  0  0  0  0  0  0  0  # atno 17370 bound_to 10713
  157.1885  131.0409  151.2712 LP  0  0  0  0  0  0  0  0  0  0  0  0  # atno 17371 bound_to 10713
  140.2635  134.8448  157.3781 LP  0  0  0  0  0  0  0  0  0  0  0  0  # atno 17394 bound_to 11000
  140.1588  134.4755  155.7909 LP  0  0  0  0  0  0  0  0  0  0  0  0  # atno 17395 bound_to 11000

$$$$
