AV-unprocessed.smi:1326|AV-procd|sdf|5474|dock2
  -GOLD-   22720 5 43D 1   1.00000     0.00000
 Structure written by MMmdl.
 39 39  0  0  0  0  0  0  0  0  1 V2000
  146.8575  139.1383  152.6437 C   0  0  0  0  0  0  0  0  0  0  0  0
  147.7008  139.0612  153.8989 C   0  0  0  0  0  0  0  0  0  0  0  0
  147.2191  138.8525  155.0799 N   0  0  0  0  0  0  0  0  0  0  0  0
  148.0999  138.8039  156.1696 C   0  0  0  0  0  0  0  0  0  0  0  0
  147.4520  138.5484  157.5200 C   0  0  0  0  0  0  0  0  0  0  0  0
  149.4460  138.9713  156.0087 C   0  0  0  0  0  0  0  0  0  0  0  0
  150.4428  138.9385  157.1677 C   0  0  0  0  0  0  0  0  0  0  0  0
  151.2928  140.1975  157.3656 C   0  0  0  0  0  0  0  0  0  0  0  0
  152.5202  140.1115  157.3767 O   0  0  0  0  0  0  0  0  0  0  0  0
  150.6380  141.3562  157.5307 N   0  0  0  0  0  0  0  0  0  0  0  0
  151.2777  142.6473  157.7356 C   0  0  0  0  0  0  0  0  0  0  0  0
  151.8320  142.7486  159.1660 C   0  0  0  0  0  0  0  0  0  0  0  0
  151.6007  144.1184  159.8362 C   0  0  0  0  0  0  0  0  0  0  0  0
  152.1841  145.2818  159.0161 C   0  0  0  0  0  0  0  0  0  0  0  0
  152.1749  144.1295  161.2612 C   0  0  0  0  0  0  0  0  0  0  0  0
  149.9846  139.2081  154.6554 C   0  0  0  0  0  0  0  0  0  0  0  0
  151.1761  139.3752  154.4002 O   0  0  0  0  0  0  0  0  0  0  0  0
  149.0634  139.2383  153.6668 N   0  0  0  0  0  0  0  0  0  0  0  0
  149.3832  139.3974  152.7224 H   0  0  0  0  0  0  0  0  0  0  0  0
  147.4674  139.3271  151.7591 H   0  0  0  0  0  0  0  0  0  0  0  0
  146.1265  139.9426  152.7317 H   0  0  0  0  0  0  0  0  0  0  0  0
  146.3208  138.2011  152.4946 H   0  0  0  0  0  0  0  0  0  0  0  0
  147.7809  137.5908  157.9240 H   0  0  0  0  0  0  0  0  0  0  0  0
  146.3646  138.5198  157.4385 H   0  0  0  0  0  0  0  0  0  0  0  0
  147.7092  139.3319  158.2320 H   0  0  0  0  0  0  0  0  0  0  0  0
  149.9159  138.7506  158.1025 H   0  0  0  0  0  0  0  0  0  0  0  0
  151.1047  138.0792  157.0492 H   0  0  0  0  0  0  0  0  0  0  0  0
  149.6285  141.3411  157.5117 H   0  0  0  0  0  0  0  0  0  0  0  0
  152.0778  142.7671  157.0043 H   0  0  0  0  0  0  0  0  0  0  0  0
  150.5501  143.4399  157.5553 H   0  0  0  0  0  0  0  0  0  0  0  0
  151.3567  141.9758  159.7722 H   0  0  0  0  0  0  0  0  0  0  0  0
  152.8980  142.5161  159.1647 H   0  0  0  0  0  0  0  0  0  0  0  0
  150.5245  144.2751  159.9213 H   0  0  0  0  0  0  0  0  0  0  0  0
  153.2552  145.1557  158.8549 H   0  0  0  0  0  0  0  0  0  0  0  0
  152.0366  146.2332  159.5279 H   0  0  0  0  0  0  0  0  0  0  0  0
  151.7065  145.3672  158.0404 H   0  0  0  0  0  0  0  0  0  0  0  0
  153.2542  143.9726  161.2545 H   0  0  0  0  0  0  0  0  0  0  0  0
  151.7284  143.3452  161.8733 H   0  0  0  0  0  0  0  0  0  0  0  0
  151.9801  145.0807  161.7574 H   0  0  0  0  0  0  0  0  0  0  0  0
  1  2  1  0  0  0  0
  1 20  1  0  0  0  0
  1 21  1  0  0  0  0
  1 22  1  0  0  0  0
  2 18  1  0  0  0  0
  2  3  2  0  0  0  0
  3  4  1  0  0  0  0
  4  5  1  0  0  0  0
  4  6  2  0  0  0  0
  5 23  1  0  0  0  0
  5 24  1  0  0  0  0
  5 25  1  0  0  0  0
  6  7  1  0  0  0  0
  6 16  1  0  0  0  0
  7  8  1  0  0  0  0
  7 26  1  0  0  0  0
  7 27  1  0  0  0  0
  8  9  2  0  0  0  0
  8 10  1  0  0  0  0
 10 11  1  0  0  0  0
 10 28  1  0  0  0  0
 11 12  1  0  0  0  0
 11 29  1  0  0  0  0
 11 30  1  0  0  0  0
 12 13  1  0  0  0  0
 12 31  1  0  0  0  0
 12 32  1  0  0  0  0
 13 14  1  0  0  0  0
 13 15  1  0  0  0  0
 13 33  1  0  0  0  0
 14 34  1  0  0  0  0
 14 35  1  0  0  0  0
 14 36  1  0  0  0  0
 15 37  1  0  0  0  0
 15 38  1  0  0  0  0
 15 39  1  0  0  0  0
 16 17  2  0  0  0  0
 16 18  1  0  0  0  0
 18 19  1  0  0  0  0
M  END
> <s_m_source_file>
AV-unprocessed.smi

> <i_m_source_file_index>
1326

> <i_lp_mmshare_version>
43012

> <i_f3d_flags>
0

> <s_epik_input>
W0NIM11jMW5jKFtDSDNdKWMoYyg9TylbbkhdMSlbQ0gyXUMoPU8pW05IXVtDSDJdW0NIMl1bQ0hdKFtDSDNdKVtDSDNd

> <s_epik_cmdline>
J2VwaWtfcHl0aG9uJywgJy1waCcsICc3LjAnLCAnLXRuJywgJzgnLCAnLW1hJywgJzIwMCcsICctbWV0YWxfYmluZGluZycsICctaW1hZScsICc8aW5maWxlLm1hZT4nLCAnLW9tYWUnLCAnPG91dGZpbGUubWFlPic=

> <r_lp_tautomer_probability>
0.839158

> <r_epik_Ionization_Penalty>
0.000369141

> <r_epik_Ionization_Penalty_Charging>
0.00033405

> <r_epik_Ionization_Penalty_Neutral>
3.5091e-05

> <r_epik_State_Penalty>
0.09125

> <r_epik_Charging_Adjusted_Penalty>
0.0915841

> <i_epik_Tot_Q>
0

> <i_epik_Tot_abs_Q>
0

> <r_epik_Metal_State_Penalty>
0.250923

> <b_epik_Metal_Only>
0

> <s_lp_Force_Field>
OPLS_2005

> <r_lp_Energy>
6.99246

> <b_lp_Chiralities_Consistent>
1

> <s_lp_Variant>
AV-unprocessed.smi:1326-1

> <Gold.Version>
5.8.1

> <Gold.Id.Protein>
6NUR|6NUR_protein|mol2

> <Gold.PLP.Fitness>
38.8475

> <Gold.PLP.PLP>
-30.6203

> <Gold.PLP.part.hbond>
-3.0000

> <Gold.PLP.part.metal>
0.0000

> <Gold.PLP.part.buried>
-4.4818

> <Gold.PLP.part.nonpolar>
-23.0843

> <Gold.PLP.part.repulsive>
0.3145

> <Gold.PLP.ligand.clash>
0.0000

> <Gold.PLP.ligand.torsion>
0.4083

> <Gold.PLP.Chemscore.Hbond>
3.0000

> <Gold.PLP.Chemscore.CHOScore>
0.0000

> <Gold.PLP.Chemscore.Metal>
0.0000

> <Gold.Chemscore.Hbonds>
donor molecule, donor type, donor heavy atom, donor atom, acceptor molecule, acceptor atom, score
      L1  H    18    19       P1  7957  1.00
      P1  H  7989  7998       L1    17  1.00
      P1  H  7997  8010       L1     9  1.00

> <Gold.PLP.Chemscore.Internal.Correction>
0.0438

> <Gold.Rescore>
     Score         DG    S(hbond)    S(metal)    S(lipo)     H(rot)  DE(clash)    DE(int)     intcor
     18.62     -19.02       2.94        0.00      73.22       1.89       0.00       0.39       ----

> <Gold.Chemscore.Fitness>
18.6229

> <Gold.Chemscore.DG>
-19.0151

> <Gold.Chemscore.ZeroCoef>
-5.4800

> <Gold.Chemscore.Hbond>
2.9373

> <Gold.Chemscore.Metal>
0.0000

> <Gold.Chemscore.Lipo>
73.2216

> <Gold.Chemscore.Internal_Hbond>
0.0000

> <Gold.Chemscore.DEClash>
0.0021

> <Gold.Chemscore.DEInternal>
0.3901

> <Gold.Chemscore.Rot>
1.8916

> <Gold.Chemscore.Internal.Correction>
   9.000000E+99

> <Gold.Chemscore.Hbonds>
donor molecule, donor type, donor heavy atom, donor atom, acceptor molecule, acceptor atom, score
      L1  H    18    19       P1  7957  1.00
      P1  H  7989  7998       L1    17  0.96
      P1  H  7997  8010       L1     9  0.94

> <Gold.Chemscore.Hbond.Weighted>
-9.8106

> <Gold.Chemscore.Metal.Weighted>
-0.0000

> <Gold.Chemscore.Lipo.Weighted>
-8.5669

> <Gold.Chemscore.Internal_Hbond.Weighted>
0.0000

> <Gold.Chemscore.DEClash.Weighted>
0.0021

> <Gold.Chemscore.DEInternal.Weighted>
0.3901

> <Gold.Chemscore.Rot.Weighted>
4.8424

> <Gold.Chemscore.Internal.Correction.Weighted>
   9.000000E+99

> <Gold.Protein.RotatedTorsions>
[ 6907 6896 6895 6894 ] final  -37.76 input  -60.11 | X-H torsion
[ 7974 7965 7964 7962 ] final   27.01 input  175.53 | X-H torsion
[ 8008 7997 7996 7995 ] final   54.95 input   59.86 | X-H torsion
[ 10167 10162 10161 10158 ] final   79.10 input  -65.29 | X-H torsion
[ 10718 10713 10712 10709 ] final   73.74 input   66.30 | X-H torsion
[ 10763 10752 10751 10750 ] final  -82.89 input  -60.55 | X-H torsion
[ 11005 11000 10999 10996 ] final  146.61 input  -57.11 | X-H torsion

> <Gold.Protein.ActiveResidues>
 VAL166  LYS551  ARG553  GLY616  TRP617  ASP618  TYR619  PRO620  LYS621  CYS622 
 ASP623  PHE694  ASN695  SER759  ASP760  ASP761  ALA762  ILE779  LEU786  VAL792 
 PHE793  MET794  SER795  GLU796  ALA797  LYS798  CYS799  TRP800  GLU811  SER814 

> <Gold.Protein.RotatedAtoms>
  151.0108  134.9395  159.8005 H   0  0  0  0  0  0  0  0  0  0  0  0  # atno 6907 bound_to 6896
  152.5302  134.3031  159.9096 H   0  0  0  0  0  0  0  0  0  0  0  0  # atno 6908 bound_to 6896
  151.3037  133.4069  159.2676 H   0  0  0  0  0  0  0  0  0  0  0  0  # atno 6909 bound_to 6896
  146.1807  139.7250  142.8902 H   0  0  0  0  0  0  0  0  0  0  0  0  # atno 7974 bound_to 7965
  155.4931  140.3472  155.4358 H   0  0  0  0  0  0  0  0  0  0  0  0  # atno 8008 bound_to 7997
  156.0963  140.1424  156.9554 H   0  0  0  0  0  0  0  0  0  0  0  0  # atno 8009 bound_to 7997
  154.4666  140.0915  156.7013 H   0  0  0  0  0  0  0  0  0  0  0  0  # atno 8010 bound_to 7997
  139.9639  144.5942  150.8047 H   0  0  0  0  0  0  0  0  0  0  0  0  # atno 10167 bound_to 10162
  157.6561  130.9643  150.1112 H   0  0  0  0  0  0  0  0  0  0  0  0  # atno 10718 bound_to 10713
  154.5812  135.5575  153.7187 H   0  0  0  0  0  0  0  0  0  0  0  0  # atno 10763 bound_to 10752
  153.0082  135.6320  154.1980 H   0  0  0  0  0  0  0  0  0  0  0  0  # atno 10764 bound_to 10752
  154.1921  135.2882  155.2998 H   0  0  0  0  0  0  0  0  0  0  0  0  # atno 10765 bound_to 10752
  140.0808  134.9098  157.1497 H   0  0  0  0  0  0  0  0  0  0  0  0  # atno 11005 bound_to 11000
  145.4083  141.0393  143.3031 LP  0  0  0  0  0  0  0  0  0  0  0  0  # atno 17320 bound_to 7965
  144.8311  139.5627  143.6943 LP  0  0  0  0  0  0  0  0  0  0  0  0  # atno 17321 bound_to 7965
  140.7544  143.3027  151.3041 LP  0  0  0  0  0  0  0  0  0  0  0  0  # atno 17342 bound_to 10162
  139.6533  144.0323  152.2641 LP  0  0  0  0  0  0  0  0  0  0  0  0  # atno 17343 bound_to 10162
  156.2008  130.3660  149.8791 LP  0  0  0  0  0  0  0  0  0  0  0  0  # atno 17370 bound_to 10713
  156.6695  130.8814  151.3560 LP  0  0  0  0  0  0  0  0  0  0  0  0  # atno 17371 bound_to 10713
  140.3491  134.2618  155.7201 LP  0  0  0  0  0  0  0  0  0  0  0  0  # atno 17394 bound_to 11000
  141.2046  133.7883  157.0280 LP  0  0  0  0  0  0  0  0  0  0  0  0  # atno 17395 bound_to 11000

$$$$
