AV-unprocessed.smi:2753|AV-procd|sdf|10610|dock1
  -GOLD-   2272015 63D 1   1.00000     0.00000
 Structure written by MMmdl.
 28 29  0  0  0  0  0  0  0  0  2 V2000
  154.5143  138.4013  162.1986 F   0  0  0  0  0  0  0  0  0  0  0  0
  154.9550  139.5768  161.7525 C   0  0  0  0  0  0  0  0  0  0  0  0
  155.1880  140.3493  162.8141 F   0  0  0  0  0  0  0  0  0  0  0  0
  156.1210  139.3672  161.1431 F   0  0  0  0  0  0  0  0  0  0  0  0
  153.9636  140.2009  160.8140 C   0  0  0  0  0  0  0  0  0  0  0  0
  153.4206  139.6669  159.6669 C   0  0  0  0  0  0  0  0  0  0  0  0
  152.5683  140.6380  159.1723 N   0  0  0  0  0  0  0  0  0  0  0  0
  152.6180  141.6889  159.9999 C   0  0  0  0  0  0  0  0  0  0  0  0
  151.8131  142.9315  159.7737 C   0  0  1  0  0  0  0  0  0  0  0  0
  152.6930  144.1965  159.7705 C   0  0  0  0  0  0  0  0  0  0  0  0
  151.8380  145.4480  159.5186 C   0  0  0  0  0  0  0  0  0  0  0  0
  151.0116  145.2993  158.2304 C   0  0  0  0  0  0  0  0  0  0  0  0
  150.1790  144.0779  158.2816 N   0  3  0  0  0  0  0  0  0  0  0  0
  150.9719  142.8450  158.4833 C   0  0  0  0  0  0  0  0  0  0  0  0
  153.4500  141.4854  161.0176 N   0  0  0  0  0  0  0  0  0  0  0  0
  152.0077  140.5642  158.3351 H   0  0  0  0  0  0  0  0  0  0  0  0
  153.5654  138.7125  159.1827 H   0  0  0  0  0  0  0  0  0  0  0  0
  151.1184  143.0206  160.6111 H   0  0  0  0  0  0  0  0  0  0  0  0
  153.2221  144.2920  160.7194 H   0  0  0  0  0  0  0  0  0  0  0  0
  153.4562  144.1176  158.9948 H   0  0  0  0  0  0  0  0  0  0  0  0
  151.1711  145.6125  160.3660 H   0  0  0  0  0  0  0  0  0  0  0  0
  152.4770  146.3292  159.4524 H   0  0  0  0  0  0  0  0  0  0  0  0
  150.3644  146.1659  158.0933 H   0  0  0  0  0  0  0  0  0  0  0  0
  151.6681  145.2508  157.3604 H   0  0  0  0  0  0  0  0  0  0  0  0
  149.5241  144.1675  159.0453 H   0  0  0  0  0  0  0  0  0  0  0  0
  151.6146  142.6918  157.6151 H   0  0  0  0  0  0  0  0  0  0  0  0
  150.2918  141.9940  158.5298 H   0  0  0  0  0  0  0  0  0  0  0  0
  149.6619  143.9968  157.4176 H   0  0  0  0  0  0  0  0  0  0  0  0
  1  2  1  0  0  0  0
  2  3  1  0  0  0  0
  2  4  1  0  0  0  0
  2  5  1  0  0  0  0
  5 15  1  0  0  0  0
  5  6  2  0  0  0  0
  6  7  1  0  0  0  0
  6 17  1  0  0  0  0
  7 16  1  0  0  0  0
  7  8  1  0  0  0  0
  8  9  1  0  0  0  0
  8 15  2  0  0  0  0
  9 14  1  0  0  0  0
  9 10  1  0  0  0  0
  9 18  1  0  0  0  0
 10 11  1  0  0  0  0
 10 19  1  0  0  0  0
 10 20  1  0  0  0  0
 11 12  1  0  0  0  0
 11 21  1  0  0  0  0
 11 22  1  0  0  0  0
 12 13  1  0  0  0  0
 12 23  1  0  0  0  0
 12 24  1  0  0  0  0
 13 14  1  0  0  0  0
 13 25  1  0  0  0  0
 13 28  1  0  0  0  0
 14 26  1  0  0  0  0
 14 27  1  0  0  0  0
M  CHG  1  13   1
M  END
> <s_m_source_file>
AV-unprocessed.smi

> <i_m_source_file_index>
2753

> <i_lp_mmshare_version>
43012

> <i_f3d_flags>
0

> <s_epik_input>
RkMoRikoRiljMVtjSF1bbkhdYyhuMSlbQ0BASF0yW0NIMl1bQ0gyXVtDSDJdW05IXVtDSDJdMg==

> <s_epik_cmdline>
J2VwaWtfcHl0aG9uJywgJy1waCcsICc3LjAnLCAnLXRuJywgJzgnLCAnLW1hJywgJzIwMCcsICctbWV0YWxfYmluZGluZycsICctaW1hZScsICc8aW5maWxlLm1hZT4nLCAnLW9tYWUnLCAnPG91dGZpbGUubWFlPic=

> <r_lp_tautomer_probability>
0.5

> <r_epik_Ionization_Penalty>
0.00052307

> <r_epik_Ionization_Penalty_Charging>
0.000431517

> <r_epik_Ionization_Penalty_Neutral>
9.15529e-05

> <r_epik_State_Penalty>
0.103148

> <r_epik_Charging_Adjusted_Penalty>
0.103579

> <i_epik_Tot_Q>
1

> <i_epik_Tot_abs_Q>
1

> <r_epik_Metal_State_Penalty>
0.166025

> <b_epik_Metal_Only>
0

> <s_lp_Force_Field>
OPLS_2005

> <r_lp_Energy>
16.8068

> <b_lp_Chiralities_Consistent>
1

> <s_lp_Variant>
AV-unprocessed.smi:2753-2

> <Gold.Version>
5.8.1

> <Gold.Id.Protein>
6NUR|6NUR_protein|mol2

> <Gold.PLP.Fitness>
35.2648

> <Gold.PLP.PLP>
-29.4380

> <Gold.PLP.part.hbond>
-1.7428

> <Gold.PLP.part.metal>
0.0000

> <Gold.PLP.part.buried>
-2.9123

> <Gold.PLP.part.nonpolar>
-24.6897

> <Gold.PLP.part.repulsive>
0.1923

> <Gold.PLP.ligand.clash>
0.0000

> <Gold.PLP.ligand.torsion>
0.1008

> <Gold.PLP.Chemscore.Hbond>
2.0000

> <Gold.PLP.Chemscore.CHOScore>
0.0000

> <Gold.PLP.Chemscore.Metal>
0.0000

> <Gold.Chemscore.Hbonds>
donor molecule, donor type, donor heavy atom, donor atom, acceptor molecule, acceptor atom, score
      L1  H    13    28       P1  8028  2.00

> <Gold.PLP.Chemscore.Internal.Correction>
0.0283

> <Gold.Rescore>
     Score         DG    S(hbond)    S(metal)    S(lipo)     H(rot)  DE(clash)    DE(int)     intcor
     13.86     -15.37       0.87        0.00      81.63       1.00       1.45       0.05       ----

> <Gold.Chemscore.Fitness>
13.8631

> <Gold.Chemscore.DG>
-15.3683

> <Gold.Chemscore.ZeroCoef>
-5.4800

> <Gold.Chemscore.Hbond>
0.8674

> <Gold.Chemscore.Metal>
0.0000

> <Gold.Chemscore.Lipo>
81.6335

> <Gold.Chemscore.Internal_Hbond>
0.0000

> <Gold.Chemscore.DEClash>
1.4515

> <Gold.Chemscore.DEInternal>
0.0537

> <Gold.Chemscore.Rot>
1.0000

> <Gold.Chemscore.Internal.Correction>
   9.000000E+99

> <Gold.Chemscore.Hbonds>
donor molecule, donor type, donor heavy atom, donor atom, acceptor molecule, acceptor atom, score
      L1  H    13    28       P1  8028  0.41

> <Gold.Chemscore.Hbond.Weighted>
-2.8972

> <Gold.Chemscore.Metal.Weighted>
-0.0000

> <Gold.Chemscore.Lipo.Weighted>
-9.5511

> <Gold.Chemscore.Internal_Hbond.Weighted>
0.0000

> <Gold.Chemscore.DEClash.Weighted>
1.4515

> <Gold.Chemscore.DEInternal.Weighted>
0.0537

> <Gold.Chemscore.Rot.Weighted>
2.5600

> <Gold.Chemscore.Internal.Correction.Weighted>
   9.000000E+99

> <Gold.Protein.RotatedTorsions>
[ 6907 6896 6895 6894 ] final  176.51 input  -60.11 | X-H torsion
[ 7974 7965 7964 7962 ] final  -82.47 input  175.53 | X-H torsion
[ 8008 7997 7996 7995 ] final -119.63 input   59.86 | X-H torsion
[ 10167 10162 10161 10158 ] final  157.78 input  -65.29 | X-H torsion
[ 10718 10713 10712 10709 ] final   99.38 input   66.30 | X-H torsion
[ 10763 10752 10751 10750 ] final   39.99 input  -60.55 | X-H torsion
[ 11005 11000 10999 10996 ] final  -29.57 input  -57.11 | X-H torsion

> <Gold.Protein.ActiveResidues>
 VAL166  LYS551  ARG553  GLY616  TRP617  ASP618  TYR619  PRO620  LYS621  CYS622 
 ASP623  PHE694  ASN695  SER759  ASP760  ASP761  ALA762  ILE779  LEU786  VAL792 
 PHE793  MET794  SER795  GLU796  ALA797  LYS798  CYS799  TRP800  GLU811  SER814 

> <Gold.Protein.RotatedAtoms>
  151.7189  133.3314  159.3309 H   0  0  0  0  0  0  0  0  0  0  0  0  # atno 6907 bound_to 6896
  150.7661  134.6466  159.6275 H   0  0  0  0  0  0  0  0  0  0  0  0  # atno 6908 bound_to 6896
  152.3664  134.6800  160.0242 H   0  0  0  0  0  0  0  0  0  0  0  0  # atno 6909 bound_to 6896
  145.5329  140.9519  143.1593 H   0  0  0  0  0  0  0  0  0  0  0  0  # atno 7974 bound_to 7965
  155.1189  140.0398  157.2744 H   0  0  0  0  0  0  0  0  0  0  0  0  # atno 8008 bound_to 7997
  154.6629  140.2595  155.7064 H   0  0  0  0  0  0  0  0  0  0  0  0  # atno 8009 bound_to 7997
  156.2626  140.2813  156.1108 H   0  0  0  0  0  0  0  0  0  0  0  0  # atno 8010 bound_to 7997
  139.4824  144.4886  151.8341 H   0  0  0  0  0  0  0  0  0  0  0  0  # atno 10167 bound_to 10162
  157.6877  131.0668  150.4940 H   0  0  0  0  0  0  0  0  0  0  0  0  # atno 10718 bound_to 10713
  152.9950  135.6204  154.2553 H   0  0  0  0  0  0  0  0  0  0  0  0  # atno 10763 bound_to 10752
  154.2291  135.2793  155.2898 H   0  0  0  0  0  0  0  0  0  0  0  0  # atno 10764 bound_to 10752
  154.5465  135.5746  153.6942 H   0  0  0  0  0  0  0  0  0  0  0  0  # atno 10765 bound_to 10752
  140.9307  133.7340  156.0932 H   0  0  0  0  0  0  0  0  0  0  0  0  # atno 11005 bound_to 11000
  144.7616  139.6942  143.7232 LP  0  0  0  0  0  0  0  0  0  0  0  0  # atno 17320 bound_to 7965
  146.2032  139.5340  142.9729 LP  0  0  0  0  0  0  0  0  0  0  0  0  # atno 17321 bound_to 7965
  140.4368  144.2041  150.5889 LP  0  0  0  0  0  0  0  0  0  0  0  0  # atno 17342 bound_to 10162
  140.4724  143.2408  151.9071 LP  0  0  0  0  0  0  0  0  0  0  0  0  # atno 17343 bound_to 10162
  156.5265  130.4174  149.6223 LP  0  0  0  0  0  0  0  0  0  0  0  0  # atno 17370 bound_to 10713
  156.3107  130.7227  151.2119 LP  0  0  0  0  0  0  0  0  0  0  0  0  # atno 17371 bound_to 10713
  140.7866  134.3665  157.5475 LP  0  0  0  0  0  0  0  0  0  0  0  0  # atno 17394 bound_to 11000
  139.8796  134.9114  156.3037 LP  0  0  0  0  0  0  0  0  0  0  0  0  # atno 17395 bound_to 11000

$$$$
