AV-unprocessed.smi:1053|AV-procd|sdf|4621|dock4
  -GOLD-   22720 3123D 1   1.00000     0.00000
 Structure written by MMmdl.
 37 38  0  0  0  0  0  0  0  0  1 V2000
  146.7827  142.3522  153.8762 C   0  0  0  0  0  0  0  0  0  0  0  0
  146.5103  140.9555  154.4530 C   0  0  0  0  0  0  0  0  0  0  0  0
  147.7049  140.1942  154.8142 N   0  0  0  0  0  0  0  0  0  0  0  0
  148.2756  139.4744  153.6785 C   0  0  0  0  0  0  0  0  0  0  0  0
  149.5502  138.7083  154.0699 C   0  0  0  0  0  0  0  0  0  0  0  0
  150.4952  139.6131  154.6309 O   0  0  0  0  0  0  0  0  0  0  0  0
  149.9998  140.2936  155.7817 C   0  0  1  0  0  0  0  0  0  0  0  0
  151.0946  141.2370  156.2972 C   0  0  0  0  0  0  0  0  0  0  0  0
  151.9148  140.6051  157.3197 N   0  0  0  0  0  0  0  0  0  0  0  0
  152.3278  141.2332  158.4793 C   0  0  0  0  0  0  0  0  0  0  0  0
  153.1123  140.5530  159.3233 N   0  0  0  0  0  0  0  0  0  0  0  0
  153.5038  141.1911  160.4469 C   0  0  0  0  0  0  0  0  0  0  0  0
  153.1089  142.5144  160.7250 C   0  0  0  0  0  0  0  0  0  0  0  0
  152.2812  143.1358  159.7631 C   0  0  0  0  0  0  0  0  0  0  0  0
  151.7755  144.5608  159.9310 C   0  0  0  0  0  0  0  0  0  0  0  0
  152.1943  145.0971  161.0780 F   0  0  0  0  0  0  0  0  0  0  0  0
  152.2166  145.3172  158.9256 F   0  0  0  0  0  0  0  0  0  0  0  0
  150.4425  144.5676  159.9226 F   0  0  0  0  0  0  0  0  0  0  0  0
  151.8938  142.4849  158.6413 N   0  0  0  0  0  0  0  0  0  0  0  0
  148.7269  141.0668  155.3825 C   0  0  0  0  0  0  0  0  0  0  0  0
  145.8561  142.8114  153.5316 H   0  0  0  0  0  0  0  0  0  0  0  0
  147.4620  142.3002  153.0249 H   0  0  0  0  0  0  0  0  0  0  0  0
  147.2185  143.0218  154.6172 H   0  0  0  0  0  0  0  0  0  0  0  0
  145.8486  141.0406  155.3163 H   0  0  0  0  0  0  0  0  0  0  0  0
  145.9515  140.3960  153.7017 H   0  0  0  0  0  0  0  0  0  0  0  0
  147.5521  138.7661  153.2759 H   0  0  0  0  0  0  0  0  0  0  0  0
  148.5095  140.1749  152.8755 H   0  0  0  0  0  0  0  0  0  0  0  0
  149.3220  137.9175  154.7861 H   0  0  0  0  0  0  0  0  0  0  0  0
  149.9899  138.2307  153.1942 H   0  0  0  0  0  0  0  0  0  0  0  0
  149.7516  139.5664  156.5576 H   0  0  0  0  0  0  0  0  0  0  0  0
  151.7277  141.5692  155.4735 H   0  0  0  0  0  0  0  0  0  0  0  0
  150.6354  142.1272  156.7288 H   0  0  0  0  0  0  0  0  0  0  0  0
  152.2423  139.6638  157.1582 H   0  0  0  0  0  0  0  0  0  0  0  0
  154.1362  140.6425  161.1289 H   0  0  0  0  0  0  0  0  0  0  0  0
  153.4264  143.0165  161.6268 H   0  0  0  0  0  0  0  0  0  0  0  0
  148.9866  141.8460  154.6639 H   0  0  0  0  0  0  0  0  0  0  0  0
  148.3269  141.5760  156.2602 H   0  0  0  0  0  0  0  0  0  0  0  0
  1  2  1  0  0  0  0
  1 21  1  0  0  0  0
  1 22  1  0  0  0  0
  1 23  1  0  0  0  0
  2  3  1  0  0  0  0
  2 24  1  0  0  0  0
  2 25  1  0  0  0  0
  3 20  1  0  0  0  0
  3  4  1  0  0  0  0
  4  5  1  0  0  0  0
  4 26  1  0  0  0  0
  4 27  1  0  0  0  0
  5  6  1  0  0  0  0
  5 28  1  0  0  0  0
  5 29  1  0  0  0  0
  6  7  1  0  0  0  0
  7  8  1  0  0  0  0
  7 20  1  0  0  0  0
  7 30  1  0  0  0  0
  8  9  1  0  0  0  0
  8 31  1  0  0  0  0
  8 32  1  0  0  0  0
  9 10  1  0  0  0  0
  9 33  1  0  0  0  0
 10 19  1  0  0  0  0
 10 11  2  0  0  0  0
 11 12  1  0  0  0  0
 12 13  2  0  0  0  0
 12 34  1  0  0  0  0
 13 14  1  0  0  0  0
 13 35  1  0  0  0  0
 14 15  1  0  0  0  0
 14 19  2  0  0  0  0
 15 16  1  0  0  0  0
 15 17  1  0  0  0  0
 15 18  1  0  0  0  0
 20 36  1  0  0  0  0
 20 37  1  0  0  0  0
M  END
> <s_m_source_file>
AV-unprocessed.smi

> <i_m_source_file_index>
1053

> <i_lp_mmshare_version>
43012

> <i_f3d_flags>
0

> <s_epik_input>
W0NIM11bQ0gyXU4xW0NIMl1bQ0gyXU9bQ0BIXShbQ0gyXTEpW0NIMl1bTkhdYzJuW2NIXVtjSF1jKG4yKUMoRikoRilG

> <s_epik_cmdline>
J2VwaWtfcHl0aG9uJywgJy1waCcsICc3LjAnLCAnLXRuJywgJzgnLCAnLW1hJywgJzIwMCcsICctbWV0YWxfYmluZGluZycsICctaW1hZScsICc8aW5maWxlLm1hZT4nLCAnLW9tYWUnLCAnPG91dGZpbGUubWFlPic=

> <r_lp_tautomer_probability>
1

> <r_epik_Ionization_Penalty>
0.797829

> <r_epik_Ionization_Penalty_Charging>
0

> <r_epik_Ionization_Penalty_Neutral>
0.797829

> <r_epik_State_Penalty>
0.828842

> <r_epik_Charging_Adjusted_Penalty>
0.828842

> <i_epik_Tot_Q>
0

> <i_epik_Tot_abs_Q>
0

> <r_epik_Metal_State_Penalty>
0.828842

> <b_epik_Metal_Only>
0

> <s_lp_Force_Field>
OPLS_2005

> <r_lp_Energy>
17.4925

> <b_lp_Chiralities_Consistent>
1

> <s_lp_Variant>
AV-unprocessed.smi:1053-5

> <Gold.Version>
5.8.1

> <Gold.Id.Protein>
6NUR|6NUR_protein|mol2

> <Gold.PLP.Fitness>
42.5434

> <Gold.PLP.PLP>
-41.1411

> <Gold.PLP.part.hbond>
-0.9798

> <Gold.PLP.part.metal>
0.0000

> <Gold.PLP.part.buried>
-3.9349

> <Gold.PLP.part.nonpolar>
-36.8203

> <Gold.PLP.part.repulsive>
0.2794

> <Gold.PLP.ligand.clash>
0.0000

> <Gold.PLP.ligand.torsion>
0.8062

> <Gold.PLP.Chemscore.Hbond>
0.9913

> <Gold.PLP.Chemscore.CHOScore>
0.0000

> <Gold.PLP.Chemscore.Metal>
0.0000

> <Gold.Chemscore.Hbonds>
donor molecule, donor type, donor heavy atom, donor atom, acceptor molecule, acceptor atom, score
      P1  H  7989  7998       L1     6  0.99

> <Gold.PLP.Chemscore.Internal.Correction>
0.0409

> <Gold.Rescore>
     Score         DG    S(hbond)    S(metal)    S(lipo)     H(rot)  DE(clash)    DE(int)     intcor
     14.04     -15.23       1.12        0.00      84.51       1.52       0.45       0.74       ----

> <Gold.Chemscore.Fitness>
14.0390

> <Gold.Chemscore.DG>
-15.2298

> <Gold.Chemscore.ZeroCoef>
-5.4800

> <Gold.Chemscore.Hbond>
1.1243

> <Gold.Chemscore.Metal>
0.0000

> <Gold.Chemscore.Lipo>
84.5102

> <Gold.Chemscore.Internal_Hbond>
0.0000

> <Gold.Chemscore.DEClash>
0.4548

> <Gold.Chemscore.DEInternal>
0.7359

> <Gold.Chemscore.Rot>
1.5208

> <Gold.Chemscore.Internal.Correction>
   9.000000E+99

> <Gold.Chemscore.Hbonds>
donor molecule, donor type, donor heavy atom, donor atom, acceptor molecule, acceptor atom, score
      P1  H  7989  7998       L1     6  0.72

> <Gold.Chemscore.Hbond.Weighted>
-3.7553

> <Gold.Chemscore.Metal.Weighted>
-0.0000

> <Gold.Chemscore.Lipo.Weighted>
-9.8877

> <Gold.Chemscore.Internal_Hbond.Weighted>
0.0000

> <Gold.Chemscore.DEClash.Weighted>
0.4548

> <Gold.Chemscore.DEInternal.Weighted>
0.7359

> <Gold.Chemscore.Rot.Weighted>
3.8932

> <Gold.Chemscore.Internal.Correction.Weighted>
   9.000000E+99

> <Gold.Protein.RotatedTorsions>
[ 6907 6896 6895 6894 ] final -120.50 input  -60.11 | X-H torsion
[ 7974 7965 7964 7962 ] final   69.21 input  175.53 | X-H torsion
[ 8008 7997 7996 7995 ] final  126.15 input   59.86 | X-H torsion
[ 10167 10162 10161 10158 ] final  -54.66 input  -65.29 | X-H torsion
[ 10718 10713 10712 10709 ] final  -22.34 input   66.30 | X-H torsion
[ 10763 10752 10751 10750 ] final   19.07 input  -60.55 | X-H torsion
[ 11005 11000 10999 10996 ] final -155.09 input  -57.11 | X-H torsion

> <Gold.Protein.ActiveResidues>
 VAL166  LYS551  ARG553  GLY616  TRP617  ASP618  TYR619  PRO620  LYS621  CYS622 
 ASP623  PHE694  ASN695  SER759  ASP760  ASP761  ALA762  ILE779  LEU786  VAL792 
 PHE793  MET794  SER795  GLU796  ALA797  LYS798  CYS799  TRP800  GLU811  SER814 

> <Gold.Protein.RotatedAtoms>
  150.8398  133.7954  159.3064 H   0  0  0  0  0  0  0  0  0  0  0  0  # atno 6907 bound_to 6896
  151.5659  135.1062  159.9993 H   0  0  0  0  0  0  0  0  0  0  0  0  # atno 6908 bound_to 6896
  152.4464  133.7502  159.6746 H   0  0  0  0  0  0  0  0  0  0  0  0  # atno 6909 bound_to 6896
  145.7932  139.2945  143.1198 H   0  0  0  0  0  0  0  0  0  0  0  0  # atno 7974 bound_to 7965
  156.2855  140.2699  156.2064 H   0  0  0  0  0  0  0  0  0  0  0  0  # atno 8008 bound_to 7997
  155.0309  140.0386  157.2491 H   0  0  0  0  0  0  0  0  0  0  0  0  # atno 8009 bound_to 7997
  154.7355  140.2715  155.6423 H   0  0  0  0  0  0  0  0  0  0  0  0  # atno 8010 bound_to 7997
  140.6418  143.2512  151.4968 H   0  0  0  0  0  0  0  0  0  0  0  0  # atno 10167 bound_to 10162
  156.5058  130.4598  149.6675 H   0  0  0  0  0  0  0  0  0  0  0  0  # atno 10718 bound_to 10713
  153.1194  135.6715  153.9362 H   0  0  0  0  0  0  0  0  0  0  0  0  # atno 10763 bound_to 10752
  153.8882  135.3050  155.3448 H   0  0  0  0  0  0  0  0  0  0  0  0  # atno 10764 bound_to 10752
  154.7607  135.4989  153.9537 H   0  0  0  0  0  0  0  0  0  0  0  0  # atno 10765 bound_to 10752
  140.6902  134.4049  157.5220 H   0  0  0  0  0  0  0  0  0  0  0  0  # atno 11005 bound_to 11000
  145.9955  140.8566  143.0045 LP  0  0  0  0  0  0  0  0  0  0  0  0  # atno 17320 bound_to 7965
  144.6779  140.2276  143.7359 LP  0  0  0  0  0  0  0  0  0  0  0  0  # atno 17321 bound_to 7965
  139.5627  144.2116  152.1717 LP  0  0  0  0  0  0  0  0  0  0  0  0  # atno 17342 bound_to 10162
  140.1389  144.5220  150.6756 LP  0  0  0  0  0  0  0  0  0  0  0  0  # atno 17343 bound_to 10162
  156.3288  130.7320  151.2246 LP  0  0  0  0  0  0  0  0  0  0  0  0  # atno 17370 bound_to 10713
  157.7457  131.0435  150.4749 LP  0  0  0  0  0  0  0  0  0  0  0  0  # atno 17371 bound_to 10713
  139.8925  134.8752  156.2265 LP  0  0  0  0  0  0  0  0  0  0  0  0  # atno 17394 bound_to 11000
  141.0247  133.7021  156.1328 LP  0  0  0  0  0  0  0  0  0  0  0  0  # atno 17395 bound_to 11000

$$$$
