AV-unprocessed.smi:2826|AV-procd|sdf|10893|dock5
  -GOLD-   2272015343D 1   1.00000     0.00000
 Structure written by MMmdl.
 50 51  0  0  0  0  0  0  0  0  1 V2000
  141.0208  134.2678  152.9950 C   0  0  0  0  0  0  0  0  0  0  0  0
  141.5261  135.0498  154.0715 O   0  0  0  0  0  0  0  0  0  0  0  0
  142.8439  135.4563  154.0239 C   0  0  0  0  0  0  0  0  0  0  0  0
  143.2623  136.4898  154.8834 C   0  0  0  0  0  0  0  0  0  0  0  0
  144.6047  136.9095  154.8387 C   0  0  0  0  0  0  0  0  0  0  0  0
  145.4912  136.2886  153.9261 C   0  0  0  0  0  0  0  0  0  0  0  0
  146.8688  136.6313  153.8257 N   0  0  0  0  0  0  0  0  0  0  0  0
  147.6510  137.2096  154.7529 C   0  0  0  0  0  0  0  0  0  0  0  0
  147.2824  137.5647  155.8725 O   0  0  0  0  0  0  0  0  0  0  0  0
  148.9002  137.3801  154.2968 N   0  0  0  0  0  0  0  0  0  0  0  0
  149.9900  137.9973  155.0474 C   0  0  1  0  0  0  0  0  0  0  0  0
  151.2594  138.0478  154.1855 C   0  0  0  0  0  0  0  0  0  0  0  0
  152.3716  138.8227  154.9090 C   0  0  0  0  0  0  0  0  0  0  0  0
  151.9137  140.1280  155.2449 O   0  0  0  0  0  0  0  0  0  0  0  0
  150.8146  140.1250  156.1533 C   0  0  1  0  0  0  0  0  0  0  0  0
  150.4843  141.5813  156.5303 C   0  0  0  0  0  0  0  0  0  0  0  0
  151.6193  142.3373  157.2549 C   0  0  0  0  0  0  0  0  0  0  0  0
  152.1690  141.5613  158.4639 C   0  0  0  0  0  0  0  0  0  0  0  0
  151.1466  143.7331  157.6888 C   0  0  0  0  0  0  0  0  0  0  0  0
  149.6160  139.4238  155.4856 C   0  0  0  0  0  0  0  0  0  0  0  0
  144.9771  135.2480  153.1150 C   0  0  0  0  0  0  0  0  0  0  0  0
  145.8567  134.5100  152.1210 C   0  0  0  0  0  0  0  0  0  0  0  0
  143.6882  134.8444  153.1579 N   0  0  0  0  0  0  0  0  0  0  0  0
  139.9724  134.0345  153.1799 H   0  0  0  0  0  0  0  0  0  0  0  0
  141.5581  133.3232  152.9015 H   0  0  0  0  0  0  0  0  0  0  0  0
  141.0772  134.8073  152.0487 H   0  0  0  0  0  0  0  0  0  0  0  0
  142.5669  136.9499  155.5699 H   0  0  0  0  0  0  0  0  0  0  0  0
  144.9307  137.6856  155.5137 H   0  0  0  0  0  0  0  0  0  0  0  0
  147.2870  136.4847  152.9189 H   0  0  0  0  0  0  0  0  0  0  0  0
  149.1139  137.0638  153.3623 H   0  0  0  0  0  0  0  0  0  0  0  0
  150.2028  137.3961  155.9338 H   0  0  0  0  0  0  0  0  0  0  0  0
  151.5994  137.0386  153.9499 H   0  0  0  0  0  0  0  0  0  0  0  0
  151.0442  138.5367  153.2340 H   0  0  0  0  0  0  0  0  0  0  0  0
  152.6929  138.2951  155.8086 H   0  0  0  0  0  0  0  0  0  0  0  0
  153.2461  138.9121  154.2643 H   0  0  0  0  0  0  0  0  0  0  0  0
  151.0885  139.5694  157.0507 H   0  0  0  0  0  0  0  0  0  0  0  0
  150.2223  142.1198  155.6185 H   0  0  0  0  0  0  0  0  0  0  0  0
  149.5896  141.5996  157.1542 H   0  0  0  0  0  0  0  0  0  0  0  0
  152.4390  142.4827  156.5503 H   0  0  0  0  0  0  0  0  0  0  0  0
  151.3812  141.3403  159.1845 H   0  0  0  0  0  0  0  0  0  0  0  0
  152.9380  142.1362  158.9807 H   0  0  0  0  0  0  0  0  0  0  0  0
  152.6249  140.6176  158.1661 H   0  0  0  0  0  0  0  0  0  0  0  0
  150.3225  143.6689  158.4002 H   0  0  0  0  0  0  0  0  0  0  0  0
  150.8038  144.3169  156.8340 H   0  0  0  0  0  0  0  0  0  0  0  0
  151.9535  144.2926  158.1632 H   0  0  0  0  0  0  0  0  0  0  0  0
  149.2929  140.0026  154.6188 H   0  0  0  0  0  0  0  0  0  0  0  0
  148.7706  139.3963  156.1742 H   0  0  0  0  0  0  0  0  0  0  0  0
  146.3049  135.2111  151.4163 H   0  0  0  0  0  0  0  0  0  0  0  0
  145.2873  133.7763  151.5486 H   0  0  0  0  0  0  0  0  0  0  0  0
  146.6571  133.9840  152.6418 H   0  0  0  0  0  0  0  0  0  0  0  0
  1  2  1  0  0  0  0
  1 24  1  0  0  0  0
  1 25  1  0  0  0  0
  1 26  1  0  0  0  0
  2  3  1  0  0  0  0
  3 23  1  0  0  0  0
  3  4  2  0  0  0  0
  4  5  1  0  0  0  0
  4 27  1  0  0  0  0
  5  6  2  0  0  0  0
  5 28  1  0  0  0  0
  6  7  1  0  0  0  0
  6 21  1  0  0  0  0
  7  8  1  0  0  0  0
  7 29  1  0  0  0  0
  8  9  2  0  0  0  0
  8 10  1  0  0  0  0
 10 11  1  0  0  0  0
 10 30  1  0  0  0  0
 11 20  1  0  0  0  0
 11 12  1  0  0  0  0
 11 31  1  0  0  0  0
 12 13  1  0  0  0  0
 12 32  1  0  0  0  0
 12 33  1  0  0  0  0
 13 14  1  0  0  0  0
 13 34  1  0  0  0  0
 13 35  1  0  0  0  0
 14 15  1  0  0  0  0
 15 16  1  0  0  0  0
 15 20  1  0  0  0  0
 15 36  1  0  0  0  0
 16 17  1  0  0  0  0
 16 37  1  0  0  0  0
 16 38  1  0  0  0  0
 17 18  1  0  0  0  0
 17 19  1  0  0  0  0
 17 39  1  0  0  0  0
 18 40  1  0  0  0  0
 18 41  1  0  0  0  0
 18 42  1  0  0  0  0
 19 43  1  0  0  0  0
 19 44  1  0  0  0  0
 19 45  1  0  0  0  0
 20 46  1  0  0  0  0
 20 47  1  0  0  0  0
 21 22  1  0  0  0  0
 21 23  2  0  0  0  0
 22 48  1  0  0  0  0
 22 49  1  0  0  0  0
 22 50  1  0  0  0  0
M  END
> <s_m_source_file>
AV-unprocessed.smi

> <i_m_source_file_index>
2826

> <i_lp_mmshare_version>
43012

> <i_f3d_flags>
0

> <s_epik_input>
W0NIM11PYzFbY0hdW2NIXWMoYyhuMSlbQ0gzXSlbTkhdQyg9TylbTkhdW0NAQEhdMltDSDJdW0NIMl1PW0NASF0oW0NIMl0yKVtDSDJdW0NIXShbQ0gzXSlbQ0gzXQ==

> <s_epik_cmdline>
J2VwaWtfcHl0aG9uJywgJy1waCcsICc3LjAnLCAnLXRuJywgJzgnLCAnLW1hJywgJzIwMCcsICctbWV0YWxfYmluZGluZycsICctaW1hZScsICc8aW5maWxlLm1hZT4nLCAnLW9tYWUnLCAnPG91dGZpbGUubWFlPic=

> <r_lp_tautomer_probability>
1

> <r_epik_Ionization_Penalty>
0.000249977

> <r_epik_Ionization_Penalty_Charging>
0

> <r_epik_Ionization_Penalty_Neutral>
0.000249977

> <r_epik_State_Penalty>
-0

> <r_epik_Charging_Adjusted_Penalty>
0

> <i_epik_Tot_Q>
0

> <i_epik_Tot_abs_Q>
0

> <r_epik_Metal_State_Penalty>
-0

> <b_epik_Metal_Only>
0

> <s_lp_Force_Field>
OPLS_2005

> <r_lp_Energy>
13.3691

> <b_lp_Chiralities_Consistent>
1

> <s_lp_Variant>
AV-unprocessed.smi:2826-2

> <Gold.Version>
5.8.1

> <Gold.Id.Protein>
6NUR|6NUR_protein|mol2

> <Gold.PLP.Fitness>
40.1228

> <Gold.PLP.PLP>
-29.6155

> <Gold.PLP.part.hbond>
-4.0000

> <Gold.PLP.part.metal>
0.0000

> <Gold.PLP.part.buried>
-4.0630

> <Gold.PLP.part.nonpolar>
-23.1617

> <Gold.PLP.part.repulsive>
0.2895

> <Gold.PLP.ligand.clash>
0.0000

> <Gold.PLP.ligand.torsion>
0.3611

> <Gold.PLP.Chemscore.Hbond>
3.7277

> <Gold.PLP.Chemscore.CHOScore>
0.0000

> <Gold.PLP.Chemscore.Metal>
0.0000

> <Gold.Chemscore.Hbonds>
donor molecule, donor type, donor heavy atom, donor atom, acceptor molecule, acceptor atom, score
      L1  H     7    29       P1  7948  0.96
      L1  H    10    30       P1  7948  1.00
      P1  H  7989  7998       L1    14  0.83
      P1  H 11000 11005       L1     2  0.66

> <Gold.PLP.Chemscore.Internal.Correction>
0.0463

> <Gold.Rescore>
     Score         DG    S(hbond)    S(metal)    S(lipo)     H(rot)  DE(clash)    DE(int)     intcor
     17.20     -20.00       2.54        0.00      84.61       1.51       0.12       2.68       ----

> <Gold.Chemscore.Fitness>
17.2048

> <Gold.Chemscore.DG>
-19.9990

> <Gold.Chemscore.ZeroCoef>
-5.4800

> <Gold.Chemscore.Hbond>
2.5371

> <Gold.Chemscore.Metal>
0.0000

> <Gold.Chemscore.Lipo>
84.6127

> <Gold.Chemscore.Internal_Hbond>
0.0000

> <Gold.Chemscore.DEClash>
0.1168

> <Gold.Chemscore.DEInternal>
2.6774

> <Gold.Chemscore.Rot>
1.5057

> <Gold.Chemscore.Internal.Correction>
   9.000000E+99

> <Gold.Chemscore.Hbonds>
donor molecule, donor type, donor heavy atom, donor atom, acceptor molecule, acceptor atom, score
      L1  H     7    29       P1  7948  0.90
      L1  H    10    30       P1  7948  0.99
      P1  H  7989  7998       L1    14  0.24
      P1  H 11000 11005       L1     2  0.16

> <Gold.Chemscore.Hbond.Weighted>
-8.4739

> <Gold.Chemscore.Metal.Weighted>
-0.0000

> <Gold.Chemscore.Lipo.Weighted>
-9.8997

> <Gold.Chemscore.Internal_Hbond.Weighted>
0.0000

> <Gold.Chemscore.DEClash.Weighted>
0.1168

> <Gold.Chemscore.DEInternal.Weighted>
2.6774

> <Gold.Chemscore.Rot.Weighted>
3.8547

> <Gold.Chemscore.Internal.Correction.Weighted>
   9.000000E+99

> <Gold.Protein.RotatedTorsions>
[ 6907 6896 6895 6894 ] final   71.14 input  -60.11 | X-H torsion
[ 7974 7965 7964 7962 ] final   32.53 input  175.53 | X-H torsion
[ 8008 7997 7996 7995 ] final  162.67 input   59.86 | X-H torsion
[ 10167 10162 10161 10158 ] final  154.35 input  -65.29 | X-H torsion
[ 10718 10713 10712 10709 ] final -156.17 input   66.30 | X-H torsion
[ 10763 10752 10751 10750 ] final   14.14 input  -60.55 | X-H torsion
[ 11005 11000 10999 10996 ] final   12.62 input  -57.11 | X-H torsion

> <Gold.Protein.ActiveResidues>
 VAL166  LYS551  ARG553  GLY616  TRP617  ASP618  TYR619  PRO620  LYS621  CYS622 
 ASP623  PHE694  ASN695  SER759  ASP760  ASP761  ALA762  ILE779  LEU786  VAL792 
 PHE793  MET794  SER795  GLU796  ALA797  LYS798  CYS799  TRP800  GLU811  SER814 

> <Gold.Protein.RotatedAtoms>
  152.4792  134.4764  159.9651 H   0  0  0  0  0  0  0  0  0  0  0  0  # atno 6907 bound_to 6896
  151.4773  133.3549  159.2840 H   0  0  0  0  0  0  0  0  0  0  0  0  # atno 6908 bound_to 6896
  150.8852  134.8275  159.7315 H   0  0  0  0  0  0  0  0  0  0  0  0  # atno 6909 bound_to 6896
  146.1480  139.6514  142.9118 H   0  0  0  0  0  0  0  0  0  0  0  0  # atno 7974 bound_to 7965
  156.2014  140.1744  156.7892 H   0  0  0  0  0  0  0  0  0  0  0  0  # atno 8008 bound_to 7997
  154.5596  140.0702  156.8829 H   0  0  0  0  0  0  0  0  0  0  0  0  # atno 8009 bound_to 7997
  155.2872  140.3353  155.4257 H   0  0  0  0  0  0  0  0  0  0  0  0  # atno 8010 bound_to 7997
  139.4823  144.5194  151.7900 H   0  0  0  0  0  0  0  0  0  0  0  0  # atno 10167 bound_to 10162
  156.5228  130.8486  151.2688 H   0  0  0  0  0  0  0  0  0  0  0  0  # atno 10718 bound_to 10713
  153.1652  135.6803  153.8686 H   0  0  0  0  0  0  0  0  0  0  0  0  # atno 10763 bound_to 10752
  153.8068  135.3148  155.3397 H   0  0  0  0  0  0  0  0  0  0  0  0  # atno 10764 bound_to 10752
  154.7960  135.4807  154.0253 H   0  0  0  0  0  0  0  0  0  0  0  0  # atno 10765 bound_to 10752
  140.4899  134.0850  155.7769 H   0  0  0  0  0  0  0  0  0  0  0  0  # atno 11005 bound_to 11000
  145.4890  141.0438  143.2603 LP  0  0  0  0  0  0  0  0  0  0  0  0  # atno 17320 bound_to 7965
  144.7870  139.6407  143.7130 LP  0  0  0  0  0  0  0  0  0  0  0  0  # atno 17321 bound_to 7965
  140.4706  144.1592  150.5917 LP  0  0  0  0  0  0  0  0  0  0  0  0  # atno 17342 bound_to 10162
  140.4386  143.2536  151.9502 LP  0  0  0  0  0  0  0  0  0  0  0  0  # atno 17343 bound_to 10162
  157.7434  130.9911  150.2590 LP  0  0  0  0  0  0  0  0  0  0  0  0  # atno 17370 bound_to 10713
  156.3133  130.3775  149.7642 LP  0  0  0  0  0  0  0  0  0  0  0  0  # atno 17371 bound_to 10713
  141.1489  133.9005  157.2147 LP  0  0  0  0  0  0  0  0  0  0  0  0  # atno 17394 bound_to 11000
  139.9775  135.0109  156.9668 LP  0  0  0  0  0  0  0  0  0  0  0  0  # atno 17395 bound_to 11000

$$$$
