AV-unprocessed.smi:2052|AV-procd|sdf|8328|dock2
  -GOLD-   2272010593D 1   1.00000     0.00000
 Structure written by MMmdl.
 41 42  0  0  0  0  0  0  0  0  1 V2000
  144.1070  143.3284  157.3721 C   0  0  0  0  0  0  0  0  0  0  0  0
  144.8991  141.8547  156.6727 S   0  0  0  0  0  0  0  0  0  0  0  0
  145.8398  142.5898  155.3023 C   0  0  2  0  0  0  0  0  0  0  0  0
  144.8945  143.3285  154.3416 C   0  0  0  0  0  0  0  0  0  0  0  0
  146.6765  141.5443  154.5553 C   0  0  0  0  0  0  0  0  0  0  0  0
  146.4116  141.2519  153.3888 O   0  0  0  0  0  0  0  0  0  0  0  0
  147.6910  140.9907  155.2380 N   0  0  0  0  0  0  0  0  0  0  0  0
  148.6343  140.0206  154.6907 C   0  0  0  0  0  0  0  0  0  0  0  0
  149.9928  140.0032  155.3799 C   0  0  0  0  0  0  0  0  0  0  0  0
  150.9330  139.0085  155.0477 C   0  0  0  0  0  0  0  0  0  0  0  0
  152.1772  139.0145  155.7046 C   0  0  0  0  0  0  0  0  0  0  0  0
  152.5174  139.9276  156.6379 N   0  0  0  0  0  0  0  0  0  0  0  0
  151.6231  140.8923  156.9668 C   0  0  0  0  0  0  0  0  0  0  0  0
  151.9933  141.8495  157.9358 N   0  0  0  0  0  0  0  0  0  0  0  0
  151.2119  143.0822  158.0155 C   0  0  0  0  0  0  0  0  0  0  0  0
  151.9233  144.1093  158.9124 C   0  0  0  0  0  0  0  0  0  0  0  0
  152.1760  143.5359  160.1908 O   0  0  0  0  0  0  0  0  0  0  0  0
  153.0280  142.3986  160.1022 C   0  0  0  0  0  0  0  0  0  0  0  0
  152.3587  141.3114  159.2441 C   0  0  0  0  0  0  0  0  0  0  0  0
  150.3434  140.9527  156.3660 C   0  0  0  0  0  0  0  0  0  0  0  0
  143.4566  143.0456  158.1998 H   0  0  0  0  0  0  0  0  0  0  0  0
  143.5042  143.8323  156.6167 H   0  0  0  0  0  0  0  0  0  0  0  0
  144.8538  144.0279  157.7475 H   0  0  0  0  0  0  0  0  0  0  0  0
  146.5122  143.3325  155.7345 H   0  0  0  0  0  0  0  0  0  0  0  0
  145.4411  143.7658  153.5049 H   0  0  0  0  0  0  0  0  0  0  0  0
  144.3774  144.1403  154.8536 H   0  0  0  0  0  0  0  0  0  0  0  0
  144.1350  142.6612  153.9323 H   0  0  0  0  0  0  0  0  0  0  0  0
  147.8380  141.2825  156.1932 H   0  0  0  0  0  0  0  0  0  0  0  0
  148.1925  139.0283  154.7833 H   0  0  0  0  0  0  0  0  0  0  0  0
  148.7662  140.2017  153.6225 H   0  0  0  0  0  0  0  0  0  0  0  0
  150.7089  138.2564  154.3054 H   0  0  0  0  0  0  0  0  0  0  0  0
  152.9205  138.2659  155.4742 H   0  0  0  0  0  0  0  0  0  0  0  0
  151.0724  143.5063  157.0202 H   0  0  0  0  0  0  0  0  0  0  0  0
  150.2227  142.8582  158.4173 H   0  0  0  0  0  0  0  0  0  0  0  0
  152.8590  144.4405  158.4589 H   0  0  0  0  0  0  0  0  0  0  0  0
  151.2994  144.9944  159.0368 H   0  0  0  0  0  0  0  0  0  0  0  0
  153.9936  142.6852  159.6822 H   0  0  0  0  0  0  0  0  0  0  0  0
  153.2183  142.0192  161.1061 H   0  0  0  0  0  0  0  0  0  0  0  0
  151.4566  140.9495  159.7390 H   0  0  0  0  0  0  0  0  0  0  0  0
  153.0345  140.4615  159.1593 H   0  0  0  0  0  0  0  0  0  0  0  0
  149.6355  141.7114  156.6635 H   0  0  0  0  0  0  0  0  0  0  0  0
  1  2  1  0  0  0  0
  1 21  1  0  0  0  0
  1 22  1  0  0  0  0
  1 23  1  0  0  0  0
  2  3  1  0  0  0  0
  3  4  1  0  0  0  0
  3  5  1  0  0  0  0
  3 24  1  0  0  0  0
  4 25  1  0  0  0  0
  4 26  1  0  0  0  0
  4 27  1  0  0  0  0
  5  6  2  0  0  0  0
  5  7  1  0  0  0  0
  7  8  1  0  0  0  0
  7 28  1  0  0  0  0
  8  9  1  0  0  0  0
  8 29  1  0  0  0  0
  8 30  1  0  0  0  0
  9 20  1  0  0  0  0
  9 10  2  0  0  0  0
 10 11  1  0  0  0  0
 10 31  1  0  0  0  0
 11 12  2  0  0  0  0
 11 32  1  0  0  0  0
 12 13  1  0  0  0  0
 13 14  1  0  0  0  0
 13 20  2  0  0  0  0
 14 19  1  0  0  0  0
 14 15  1  0  0  0  0
 15 16  1  0  0  0  0
 15 33  1  0  0  0  0
 15 34  1  0  0  0  0
 16 17  1  0  0  0  0
 16 35  1  0  0  0  0
 16 36  1  0  0  0  0
 17 18  1  0  0  0  0
 18 19  1  0  0  0  0
 18 37  1  0  0  0  0
 18 38  1  0  0  0  0
 19 39  1  0  0  0  0
 19 40  1  0  0  0  0
 20 41  1  0  0  0  0
M  END
> <s_m_source_file>
AV-unprocessed.smi

> <i_m_source_file_index>
2052

> <i_lp_mmshare_version>
43012

> <i_f3d_flags>
0

> <s_epik_input>
W0NIM11TW0NASF0oW0NIM10pQyg9TylbTkhdW0NIMl1jMVtjSF1bY0hdbmMoW2NIXTEpTjJbQ0gyXVtDSDJdT1tDSDJdW0NIMl0y

> <s_epik_cmdline>
J2VwaWtfcHl0aG9uJywgJy1waCcsICc3LjAnLCAnLXRuJywgJzgnLCAnLW1hJywgJzIwMCcsICctbWV0YWxfYmluZGluZycsICctaW1hZScsICc8aW5maWxlLm1hZT4nLCAnLW9tYWUnLCAnPG91dGZpbGUubWFlPic=

> <r_lp_tautomer_probability>
1

> <r_epik_Ionization_Penalty>
0.00463955

> <r_epik_Ionization_Penalty_Charging>
0

> <r_epik_Ionization_Penalty_Neutral>
0.00463955

> <r_epik_State_Penalty>
0.00335544

> <r_epik_Charging_Adjusted_Penalty>
0.00335544

> <i_epik_Tot_Q>
0

> <i_epik_Tot_abs_Q>
0

> <r_epik_Metal_State_Penalty>
-0

> <b_epik_Metal_Only>
0

> <s_lp_Force_Field>
OPLS_2005

> <r_lp_Energy>
14.3355

> <b_lp_Chiralities_Consistent>
1

> <s_lp_Variant>
AV-unprocessed.smi:2052-1

> <Gold.Version>
5.8.1

> <Gold.Id.Protein>
6NUR|6NUR_protein|mol2

> <Gold.PLP.Fitness>
40.8348

> <Gold.PLP.PLP>
-38.6666

> <Gold.PLP.part.hbond>
-1.0000

> <Gold.PLP.part.metal>
0.0000

> <Gold.PLP.part.buried>
-2.2421

> <Gold.PLP.part.nonpolar>
-36.0890

> <Gold.PLP.part.repulsive>
0.3399

> <Gold.PLP.ligand.clash>
0.0000

> <Gold.PLP.ligand.torsion>
0.6061

> <Gold.PLP.Chemscore.Hbond>
1.0000

> <Gold.PLP.Chemscore.CHOScore>
0.0000

> <Gold.PLP.Chemscore.Metal>
0.0000

> <Gold.Chemscore.Hbonds>
donor molecule, donor type, donor heavy atom, donor atom, acceptor molecule, acceptor atom, score
      P1  H  7997  8009       L1    12  1.00

> <Gold.PLP.Chemscore.Internal.Correction>
0.3804

> <Gold.Rescore>
     Score         DG    S(hbond)    S(metal)    S(lipo)     H(rot)  DE(clash)    DE(int)     intcor
     13.05     -15.15       0.90        0.00      93.36       1.67       1.65       0.44       ----

> <Gold.Chemscore.Fitness>
13.0511

> <Gold.Chemscore.DG>
-15.1464

> <Gold.Chemscore.ZeroCoef>
-5.4800

> <Gold.Chemscore.Hbond>
0.9025

> <Gold.Chemscore.Metal>
0.0000

> <Gold.Chemscore.Lipo>
93.3570

> <Gold.Chemscore.Internal_Hbond>
0.0000

> <Gold.Chemscore.DEClash>
1.6542

> <Gold.Chemscore.DEInternal>
0.4411

> <Gold.Chemscore.Rot>
1.6682

> <Gold.Chemscore.Internal.Correction>
   9.000000E+99

> <Gold.Chemscore.Hbonds>
donor molecule, donor type, donor heavy atom, donor atom, acceptor molecule, acceptor atom, score
      P1  H  7997  8009       L1    12  0.24

> <Gold.Chemscore.Hbond.Weighted>
-3.0143

> <Gold.Chemscore.Metal.Weighted>
-0.0000

> <Gold.Chemscore.Lipo.Weighted>
-10.9228

> <Gold.Chemscore.Internal_Hbond.Weighted>
0.0000

> <Gold.Chemscore.DEClash.Weighted>
1.6542

> <Gold.Chemscore.DEInternal.Weighted>
0.4411

> <Gold.Chemscore.Rot.Weighted>
4.2707

> <Gold.Chemscore.Internal.Correction.Weighted>
   9.000000E+99

> <Gold.Protein.RotatedTorsions>
[ 6907 6896 6895 6894 ] final   32.05 input  -60.11 | X-H torsion
[ 7974 7965 7964 7962 ] final -135.81 input  175.53 | X-H torsion
[ 8008 7997 7996 7995 ] final -153.70 input   59.86 | X-H torsion
[ 10167 10162 10161 10158 ] final   60.43 input  -65.29 | X-H torsion
[ 10718 10713 10712 10709 ] final -144.25 input   66.30 | X-H torsion
[ 10763 10752 10751 10750 ] final  102.23 input  -60.55 | X-H torsion
[ 11005 11000 10999 10996 ] final   84.25 input  -57.11 | X-H torsion

> <Gold.Protein.ActiveResidues>
 VAL166  LYS551  ARG553  GLY616  TRP617  ASP618  TYR619  PRO620  LYS621  CYS622 
 ASP623  PHE694  ASN695  SER759  ASP760  ASP761  ALA762  ILE779  LEU786  VAL792 
 PHE793  MET794  SER795  GLU796  ALA797  LYS798  CYS799  TRP800  GLU811  SER814 

> <Gold.Protein.RotatedAtoms>
  152.0689  134.9546  160.0574 H   0  0  0  0  0  0  0  0  0  0  0  0  # atno 6907 bound_to 6896
  152.0880  133.4181  159.4539 H   0  0  0  0  0  0  0  0  0  0  0  0  # atno 6908 bound_to 6896
  150.6836  134.2824  159.4676 H   0  0  0  0  0  0  0  0  0  0  0  0  # atno 6909 bound_to 6896
  144.8981  140.6734  143.5102 H   0  0  0  0  0  0  0  0  0  0  0  0  # atno 7974 bound_to 7965
  155.6749  140.0737  157.2506 H   0  0  0  0  0  0  0  0  0  0  0  0  # atno 8008 bound_to 7997
  154.4116  140.1692  156.1971 H   0  0  0  0  0  0  0  0  0  0  0  0  # atno 8009 bound_to 7997
  155.9584  140.3372  155.6472 H   0  0  0  0  0  0  0  0  0  0  0  0  # atno 8010 bound_to 7997
  140.1657  144.4327  150.6686 H   0  0  0  0  0  0  0  0  0  0  0  0  # atno 10167 bound_to 10162
  156.3678  130.7772  151.1948 H   0  0  0  0  0  0  0  0  0  0  0  0  # atno 10718 bound_to 10713
  153.3369  135.4017  155.1540 H   0  0  0  0  0  0  0  0  0  0  0  0  # atno 10763 bound_to 10752
  154.8635  135.3624  154.5397 H   0  0  0  0  0  0  0  0  0  0  0  0  # atno 10764 bound_to 10752
  153.5839  135.7076  153.5511 H   0  0  0  0  0  0  0  0  0  0  0  0  # atno 10765 bound_to 10752
  139.9006  134.8203  156.2420 H   0  0  0  0  0  0  0  0  0  0  0  0  # atno 11005 bound_to 11000
  145.3664  139.1669  143.4355 LP  0  0  0  0  0  0  0  0  0  0  0  0  # atno 17320 bound_to 7965
  146.3093  140.3732  142.8676 LP  0  0  0  0  0  0  0  0  0  0  0  0  # atno 17321 bound_to 7965
  140.6614  143.2253  151.5846 LP  0  0  0  0  0  0  0  0  0  0  0  0  # atno 17342 bound_to 10162
  139.5361  144.2778  152.1253 LP  0  0  0  0  0  0  0  0  0  0  0  0  # atno 17343 bound_to 10162
  157.7480  131.0381  150.4488 LP  0  0  0  0  0  0  0  0  0  0  0  0  # atno 17370 bound_to 10713
  156.4709  130.4052  149.6518 LP  0  0  0  0  0  0  0  0  0  0  0  0  # atno 17371 bound_to 10713
  141.0279  133.7005  156.1379 LP  0  0  0  0  0  0  0  0  0  0  0  0  # atno 17394 bound_to 11000
  140.7140  134.4431  157.5580 LP  0  0  0  0  0  0  0  0  0  0  0  0  # atno 17395 bound_to 11000

$$$$
