AV-unprocessed.smi:1417|AV-procd|sdf|5765|dock2
  -GOLD-   22720 5403D 1   1.00000     0.00000
 Structure written by MMmdl.
 39 40  0  0  0  0  0  0  0  0  1 V2000
  151.9051  137.3552  158.2225 C   0  0  0  0  0  0  0  0  0  0  0  0
  150.8916  136.6612  157.3784 C   0  0  0  0  0  0  0  0  0  0  0  0
  150.5639  136.7513  156.0549 C   0  0  0  0  0  0  0  0  0  0  0  0
  149.5056  135.8054  155.9226 C   0  0  0  0  0  0  0  0  0  0  0  0
  148.7891  135.5047  154.7354 N   0  0  0  0  0  0  0  0  0  0  0  0
  147.7949  134.6177  154.5612 C   0  0  0  0  0  0  0  0  0  0  0  0
  147.3056  133.9118  155.4429 O   0  0  0  0  0  0  0  0  0  0  0  0
  147.3882  134.5925  153.2836 N   0  0  0  0  0  0  0  0  0  0  0  0
  146.3324  133.7363  152.7511 C   0  0  0  0  0  0  0  0  0  0  0  0
  146.9128  132.6688  151.8081 C   0  0  0  0  0  0  0  0  0  0  0  0
  145.7985  131.8596  151.1220 C   0  0  0  0  0  0  0  0  0  0  0  0
  144.8997  132.7511  150.3745 N   0  0  0  0  0  0  0  0  0  0  0  0
  143.8557  132.0075  149.6319 C   0  0  0  0  0  0  0  0  0  0  0  0
  143.3845  132.6832  148.3384 C   0  0  0  0  0  0  0  0  0  0  0  0
  142.1788  132.3402  147.8772 N   0  0  0  0  0  0  0  0  0  0  0  0
  144.1031  133.4959  147.7612 O   0  0  0  0  0  0  0  0  0  0  0  0
  144.2597  133.7028  151.2884 C   0  0  0  0  0  0  0  0  0  0  0  0
  145.3157  134.5862  151.9755 C   0  0  0  0  0  0  0  0  0  0  0  0
  149.2193  135.2009  157.0610 N   0  0  0  0  0  0  0  0  0  0  0  0
  150.1054  135.7419  157.9998 O   0  0  0  0  0  0  0  0  0  0  0  0
  152.3333  138.2081  157.6957 H   0  0  0  0  0  0  0  0  0  0  0  0
  152.7172  136.6775  158.4860 H   0  0  0  0  0  0  0  0  0  0  0  0
  151.4554  137.7204  159.1461 H   0  0  0  0  0  0  0  0  0  0  0  0
  151.0161  137.3966  155.3170 H   0  0  0  0  0  0  0  0  0  0  0  0
  149.0722  136.0258  153.9188 H   0  0  0  0  0  0  0  0  0  0  0  0
  147.8455  135.2083  152.6273 H   0  0  0  0  0  0  0  0  0  0  0  0
  145.8145  133.2443  153.5770 H   0  0  0  0  0  0  0  0  0  0  0  0
  147.5353  133.1427  151.0472 H   0  0  0  0  0  0  0  0  0  0  0  0
  147.5649  131.9923  152.3617 H   0  0  0  0  0  0  0  0  0  0  0  0
  146.2697  131.1342  150.4591 H   0  0  0  0  0  0  0  0  0  0  0  0
  145.2341  131.2891  151.8619 H   0  0  0  0  0  0  0  0  0  0  0  0
  144.2142  131.0029  149.3992 H   0  0  0  0  0  0  0  0  0  0  0  0
  142.9769  131.8831  150.2663 H   0  0  0  0  0  0  0  0  0  0  0  0
  141.8321  132.7547  147.0244 H   0  0  0  0  0  0  0  0  0  0  0  0
  141.6227  131.6627  148.3783 H   0  0  0  0  0  0  0  0  0  0  0  0
  143.5743  134.3446  150.7330 H   0  0  0  0  0  0  0  0  0  0  0  0
  143.6641  133.1738  152.0347 H   0  0  0  0  0  0  0  0  0  0  0  0
  144.8258  135.2894  152.6498 H   0  0  0  0  0  0  0  0  0  0  0  0
  145.8281  135.1866  151.2219 H   0  0  0  0  0  0  0  0  0  0  0  0
  1  2  1  0  0  0  0
  1 21  1  0  0  0  0
  1 22  1  0  0  0  0
  1 23  1  0  0  0  0
  2 20  1  0  0  0  0
  2  3  2  0  0  0  0
  3  4  1  0  0  0  0
  3 24  1  0  0  0  0
  4  5  1  0  0  0  0
  4 19  2  0  0  0  0
  5  6  1  0  0  0  0
  5 25  1  0  0  0  0
  6  7  2  0  0  0  0
  6  8  1  0  0  0  0
  8  9  1  0  0  0  0
  8 26  1  0  0  0  0
  9 18  1  0  0  0  0
  9 10  1  0  0  0  0
  9 27  1  0  0  0  0
 10 11  1  0  0  0  0
 10 28  1  0  0  0  0
 10 29  1  0  0  0  0
 11 12  1  0  0  0  0
 11 30  1  0  0  0  0
 11 31  1  0  0  0  0
 12 13  1  0  0  0  0
 12 17  1  0  0  0  0
 13 14  1  0  0  0  0
 13 32  1  0  0  0  0
 13 33  1  0  0  0  0
 14 15  1  0  0  0  0
 14 16  2  0  0  0  0
 15 34  1  0  0  0  0
 15 35  1  0  0  0  0
 17 18  1  0  0  0  0
 17 36  1  0  0  0  0
 17 37  1  0  0  0  0
 18 38  1  0  0  0  0
 18 39  1  0  0  0  0
 19 20  1  0  0  0  0
M  END
> <s_m_source_file>
AV-unprocessed.smi

> <i_m_source_file_index>
1417

> <i_lp_mmshare_version>
43012

> <i_f3d_flags>
0

> <s_epik_input>
W0NIM11jMVtjSF1jKG5vMSlbTkhdQyg9TylbTkhdW0NIXTJbQ0gyXVtDSDJdTihbQ0gyXVtDSDJdMilbQ0gyXUMoPU8pW05IMl0=

> <s_epik_cmdline>
J2VwaWtfcHl0aG9uJywgJy1waCcsICc3LjAnLCAnLXRuJywgJzgnLCAnLW1hJywgJzIwMCcsICctbWV0YWxfYmluZGluZycsICctaW1hZScsICc8aW5maWxlLm1hZT4nLCAnLW9tYWUnLCAnPG91dGZpbGUubWFlPic=

> <r_epik_Ionization_Penalty>
0.155825

> <r_epik_Ionization_Penalty_Charging>
0

> <r_epik_Ionization_Penalty_Neutral>
0.155825

> <r_epik_State_Penalty>
0.145092

> <r_epik_Charging_Adjusted_Penalty>
0.145092

> <i_epik_Tot_Q>
0

> <i_epik_Tot_abs_Q>
0

> <r_epik_Metal_State_Penalty>
0.171119

> <b_epik_Metal_Only>
0

> <s_lp_Force_Field>
OPLS_2005

> <r_lp_Energy>
11.4398

> <b_lp_Chiralities_Consistent>
1

> <s_lp_Variant>
AV-unprocessed.smi:1417-1

> <Gold.Version>
5.8.1

> <Gold.Id.Protein>
6NUR|6NUR_protein|mol2

> <Gold.PLP.Fitness>
40.8924

> <Gold.PLP.PLP>
-25.9518

> <Gold.PLP.part.hbond>
-6.9835

> <Gold.PLP.part.metal>
0.0000

> <Gold.PLP.part.buried>
-3.4601

> <Gold.PLP.part.nonpolar>
-20.4277

> <Gold.PLP.part.repulsive>
5.1417

> <Gold.PLP.ligand.clash>
0.0000

> <Gold.PLP.ligand.torsion>
0.7475

> <Gold.PLP.Chemscore.Hbond>
5.4740

> <Gold.PLP.Chemscore.CHOScore>
0.0000

> <Gold.PLP.Chemscore.Metal>
0.0000

> <Gold.Chemscore.Hbonds>
donor molecule, donor type, donor heavy atom, donor atom, acceptor molecule, acceptor atom, score
      L1  H     5    25       P1  7948  0.91
      L1  H     8    26       P1  7948  1.00
      L1  H    15    34       P1 10195  1.00
      L1  H    15    35       P1 10952  1.00
      P1  H  6896  6909       L1    20  0.85
      P1  H  7918  7932       L1    16  0.67

> <Gold.PLP.Chemscore.Internal.Correction>
0.0136

> <Gold.Rescore>
     Score         DG    S(hbond)    S(metal)    S(lipo)     H(rot)  DE(clash)    DE(int)     intcor
     19.27     -23.19       5.08        0.00      50.71       2.02       1.86       2.06       ----

> <Gold.Chemscore.Fitness>
19.2700

> <Gold.Chemscore.DG>
-23.1925

> <Gold.Chemscore.ZeroCoef>
-5.4800

> <Gold.Chemscore.Hbond>
5.0763

> <Gold.Chemscore.Metal>
0.0000

> <Gold.Chemscore.Lipo>
50.7109

> <Gold.Chemscore.Internal_Hbond>
0.0000

> <Gold.Chemscore.DEClash>
1.8611

> <Gold.Chemscore.DEInternal>
2.0614

> <Gold.Chemscore.Rot>
2.0217

> <Gold.Chemscore.Internal.Correction>
   9.000000E+99

> <Gold.Chemscore.Hbonds>
donor molecule, donor type, donor heavy atom, donor atom, acceptor molecule, acceptor atom, score
      L1  H     5    25       P1  7948  0.77
      L1  H     8    26       P1  7948  0.99
      L1  H    15    34       P1 10195  0.89
      L1  H    15    35       P1 10952  1.00
      P1  H  6896  6909       L1    20  0.80
      P1  H  7918  7932       L1    16  0.65

> <Gold.Chemscore.Hbond.Weighted>
-16.9549

> <Gold.Chemscore.Metal.Weighted>
-0.0000

> <Gold.Chemscore.Lipo.Weighted>
-5.9332

> <Gold.Chemscore.Internal_Hbond.Weighted>
0.0000

> <Gold.Chemscore.DEClash.Weighted>
1.8611

> <Gold.Chemscore.DEInternal.Weighted>
2.0614

> <Gold.Chemscore.Rot.Weighted>
5.1755

> <Gold.Chemscore.Internal.Correction.Weighted>
   9.000000E+99

> <Gold.Protein.RotatedTorsions>
[ 6907 6896 6895 6894 ] final   54.71 input  -60.11 | X-H torsion
[ 7974 7965 7964 7962 ] final -166.76 input  175.53 | X-H torsion
[ 8008 7997 7996 7995 ] final   86.69 input   59.86 | X-H torsion
[ 10167 10162 10161 10158 ] final   -8.83 input  -65.29 | X-H torsion
[ 10718 10713 10712 10709 ] final -165.80 input   66.30 | X-H torsion
[ 10763 10752 10751 10750 ] final   54.42 input  -60.55 | X-H torsion
[ 11005 11000 10999 10996 ] final  -52.43 input  -57.11 | X-H torsion

> <Gold.Protein.ActiveResidues>
 VAL166  LYS551  ARG553  GLY616  TRP617  ASP618  TYR619  PRO620  LYS621  CYS622 
 ASP623  PHE694  ASN695  SER759  ASP760  ASP761  ALA762  ILE779  LEU786  VAL792 
 PHE793  MET794  SER795  GLU796  ALA797  LYS798  CYS799  TRP800  GLU811  SER814 

> <Gold.Protein.RotatedAtoms>
  152.3466  134.7063  160.0248 H   0  0  0  0  0  0  0  0  0  0  0  0  # atno 6907 bound_to 6896
  151.7431  133.3317  159.3379 H   0  0  0  0  0  0  0  0  0  0  0  0  # atno 6908 bound_to 6896
  150.7513  134.6193  159.6172 H   0  0  0  0  0  0  0  0  0  0  0  0  # atno 6909 bound_to 6896
  144.7238  140.2618  143.6263 H   0  0  0  0  0  0  0  0  0  0  0  0  # atno 7974 bound_to 7965
  155.9659  140.3389  155.6532 H   0  0  0  0  0  0  0  0  0  0  0  0  # atno 8008 bound_to 7997
  155.6737  140.0730  157.2528 H   0  0  0  0  0  0  0  0  0  0  0  0  # atno 8009 bound_to 7997
  154.4154  140.1687  156.1895 H   0  0  0  0  0  0  0  0  0  0  0  0  # atno 8010 bound_to 7997
  140.7070  143.5925  150.8879 H   0  0  0  0  0  0  0  0  0  0  0  0  # atno 10167 bound_to 10162
  156.6587  130.9037  151.3025 H   0  0  0  0  0  0  0  0  0  0  0  0  # atno 10718 bound_to 10713
  152.9804  135.5745  154.4901 H   0  0  0  0  0  0  0  0  0  0  0  0  # atno 10763 bound_to 10752
  154.4437  135.2776  155.1832 H   0  0  0  0  0  0  0  0  0  0  0  0  # atno 10764 bound_to 10752
  154.3489  135.6213  153.5686 H   0  0  0  0  0  0  0  0  0  0  0  0  # atno 10765 bound_to 10752
  141.0924  133.6630  156.4023 H   0  0  0  0  0  0  0  0  0  0  0  0  # atno 11005 bound_to 11000
  145.8128  139.2010  143.1983 LP  0  0  0  0  0  0  0  0  0  0  0  0  # atno 17320 bound_to 7965
  146.0581  140.7999  142.9748 LP  0  0  0  0  0  0  0  0  0  0  0  0  # atno 17321 bound_to 7965
  139.9651  143.6120  152.2991 LP  0  0  0  0  0  0  0  0  0  0  0  0  # atno 17342 bound_to 10162
  139.6687  144.7661  151.1825 LP  0  0  0  0  0  0  0  0  0  0  0  0  # atno 17343 bound_to 10162
  157.7117  130.9448  150.1112 LP  0  0  0  0  0  0  0  0  0  0  0  0  # atno 17370 bound_to 10713
  156.2028  130.3661  149.8767 LP  0  0  0  0  0  0  0  0  0  0  0  0  # atno 17371 bound_to 10713
  140.5221  134.6294  157.5321 LP  0  0  0  0  0  0  0  0  0  0  0  0  # atno 17394 bound_to 11000
  139.9752  134.7226  155.9963 LP  0  0  0  0  0  0  0  0  0  0  0  0  # atno 17395 bound_to 11000

$$$$
