AV-unprocessed.smi:2032|AV-procd|sdf|8256|dock9
  -GOLD-   2272010533D 1   1.00000     0.00000
 Structure written by MMmdl.
 42 43  0  0  0  0  0  0  0  0  3 V2000
  146.6284  138.2264  152.6240 C   0  0  0  0  0  0  0  0  0  0  0  0
  146.7955  138.3107  154.1517 C   0  0  1  0  0  0  0  0  0  0  0  0
  147.5772  137.1281  154.7524 C   0  0  0  0  0  0  0  0  0  0  0  0
  149.0267  137.2075  154.4279 N   0  3  2  0  0  0  0  0  0  0  0  0
  149.7790  135.9960  154.8876 C   0  0  2  0  0  0  0  0  0  0  0  0
  149.0041  134.6691  154.7003 C   0  0  0  0  0  0  0  0  0  0  0  0
  150.1960  136.1697  156.3716 C   0  0  0  0  0  0  0  0  0  0  0  0
  149.0601  136.3964  157.2593 N   0  0  0  0  0  0  0  0  0  0  0  0
  149.1066  136.4039  158.5987 C   0  0  0  0  0  0  0  0  0  0  0  0
  150.1820  136.2296  159.1767 O   0  0  0  0  0  0  0  0  0  0  0  0
  147.9040  136.6042  159.1823 N   0  5  0  0  0  0  0  0  0  0  0  0
  147.6549  136.0963  160.4002 C   0  0  0  0  0  0  0  0  0  0  0  0
  147.4692  136.8576  161.4846 N   0  0  0  0  0  0  0  0  0  0  0  0
  147.2157  136.1210  162.6434 C   0  0  0  0  0  0  0  0  0  0  0  0
  147.2010  134.7675  162.4349 C   0  0  0  0  0  0  0  0  0  0  0  0
  147.5056  134.3752  160.7668 S   0  0  0  0  0  0  0  0  0  0  0  0
  149.5598  138.5209  154.8786 C   0  0  0  0  0  0  0  0  0  0  0  0
  148.7597  139.6813  154.2572 C   0  0  2  0  0  0  0  0  0  0  0  0
  149.2255  141.0442  154.7820 C   0  0  0  0  0  0  0  0  0  0  0  0
  147.3782  139.5427  154.5714 O   0  0  0  0  0  0  0  0  0  0  0  0
  146.0639  137.3354  152.3473 H   0  0  0  0  0  0  0  0  0  0  0  0
  147.5842  138.1764  152.1032 H   0  0  0  0  0  0  0  0  0  0  0  0
  146.0841  139.0911  152.2441 H   0  0  0  0  0  0  0  0  0  0  0  0
  145.7919  138.2936  154.5777 H   0  0  0  0  0  0  0  0  0  0  0  0
  147.4582  137.1309  155.8373 H   0  0  0  0  0  0  0  0  0  0  0  0
  147.1391  136.1958  154.3999 H   0  0  0  0  0  0  0  0  0  0  0  0
  150.6773  135.9177  154.2731 H   0  0  0  0  0  0  0  0  0  0  0  0
  149.5772  133.8152  155.0614 H   0  0  0  0  0  0  0  0  0  0  0  0
  148.7974  134.4609  153.6505 H   0  0  0  0  0  0  0  0  0  0  0  0
  148.0580  134.6784  155.2425 H   0  0  0  0  0  0  0  0  0  0  0  0
  150.7528  135.3107  156.7444 H   0  0  0  0  0  0  0  0  0  0  0  0
  150.8669  137.0241  156.4671 H   0  0  0  0  0  0  0  0  0  0  0  0
  148.1609  136.5484  156.8257 H   0  0  0  0  0  0  0  0  0  0  0  0
  147.0565  136.6435  163.5748 H   0  0  0  0  0  0  0  0  0  0  0  0
  147.0294  133.9817  163.1549 H   0  0  0  0  0  0  0  0  0  0  0  0
  149.5290  138.5732  155.9683 H   0  0  0  0  0  0  0  0  0  0  0  0
  150.5984  138.6443  154.5732 H   0  0  0  0  0  0  0  0  0  0  0  0
  148.8918  139.6764  153.1751 H   0  0  0  0  0  0  0  0  0  0  0  0
  150.2789  141.2138  154.5572 H   0  0  0  0  0  0  0  0  0  0  0  0
  149.0981  141.1164  155.8624 H   0  0  0  0  0  0  0  0  0  0  0  0
  148.6549  141.8530  154.3248 H   0  0  0  0  0  0  0  0  0  0  0  0
  149.1030  137.2130  153.4209 H   0  0  0  0  0  0  0  0  0  0  0  0
  1  2  1  0  0  0  0
  1 21  1  0  0  0  0
  1 22  1  0  0  0  0
  1 23  1  0  0  0  0
  2 20  1  0  0  0  0
  2  3  1  0  0  0  0
  2 24  1  0  0  0  0
  3  4  1  0  0  0  0
  3 25  1  0  0  0  0
  3 26  1  0  0  0  0
  4  5  1  0  0  0  0
  4 17  1  0  0  0  0
  4 42  1  0  0  0  0
  5  6  1  0  0  0  0
  5  7  1  0  0  0  0
  5 27  1  0  0  0  0
  6 28  1  0  0  0  0
  6 29  1  0  0  0  0
  6 30  1  0  0  0  0
  7  8  1  0  0  0  0
  7 31  1  0  0  0  0
  7 32  1  0  0  0  0
  8  9  1  0  0  0  0
  8 33  1  0  0  0  0
  9 10  2  0  0  0  0
  9 11  1  0  0  0  0
 11 12  1  0  0  0  0
 12 16  1  0  0  0  0
 12 13  2  0  0  0  0
 13 14  1  0  0  0  0
 14 15  2  0  0  0  0
 14 34  1  0  0  0  0
 15 16  1  0  0  0  0
 15 35  1  0  0  0  0
 17 18  1  0  0  0  0
 17 36  1  0  0  0  0
 17 37  1  0  0  0  0
 18 19  1  0  0  0  0
 18 20  1  0  0  0  0
 18 38  1  0  0  0  0
 19 39  1  0  0  0  0
 19 40  1  0  0  0  0
 19 41  1  0  0  0  0
M  CHG  1   4   1
M  CHG  1  11  -1
M  END
> <s_m_source_file>
AV-unprocessed.smi

> <i_m_source_file_index>
2032

> <i_lp_mmshare_version>
43012

> <i_f3d_flags>
0

> <s_epik_input>
W0NIM11bQ0BASF0xW0NIMl1OKFtDSDJdW0NASF0oTzEpW0NIM10pW0NASF0oW0NIM10pW0NIMl1bTkhdQyg9TylbTkhdYzJuW2NIXVtjSF1zMg==

> <s_epik_cmdline>
J2VwaWtfcHl0aG9uJywgJy1waCcsICc3LjAnLCAnLXRuJywgJzgnLCAnLW1hJywgJzIwMCcsICctbWV0YWxfYmluZGluZycsICctaW1hZScsICc8aW5maWxlLm1hZT4nLCAnLW9tYWUnLCAnPG91dGZpbGUubWFlPic=

> <r_lp_tautomer_probability>
0.999

> <r_epik_Ionization_Penalty>
6.71699

> <r_epik_Ionization_Penalty_Charging>
5.88592

> <r_epik_Ionization_Penalty_Neutral>
0.831074

> <r_epik_State_Penalty>
6.08365

> <r_epik_Charging_Adjusted_Penalty>
11.9696

> <i_epik_Tot_Q>
0

> <i_epik_Tot_abs_Q>
2

> <r_epik_Metal_State_Penalty>
2.0947

> <b_epik_Metal_Only>
1

> <s_lp_Force_Field>
OPLS_2005

> <r_lp_Energy>
13.0478

> <b_lp_Chiralities_Consistent>
1

> <s_lp_Variant>
AV-unprocessed.smi:2032-26

> <Gold.Version>
5.8.1

> <Gold.Id.Protein>
6NUR|6NUR_protein|mol2

> <Gold.PLP.Fitness>
43.7519

> <Gold.PLP.PLP>
-31.8448

> <Gold.PLP.part.hbond>
-4.0000

> <Gold.PLP.part.metal>
0.0000

> <Gold.PLP.part.buried>
-2.2302

> <Gold.PLP.part.nonpolar>
-26.0508

> <Gold.PLP.part.repulsive>
0.1356

> <Gold.PLP.ligand.clash>
0.0000

> <Gold.PLP.ligand.torsion>
1.2487

> <Gold.PLP.Chemscore.Hbond>
4.7680

> <Gold.PLP.Chemscore.CHOScore>
0.0000

> <Gold.PLP.Chemscore.Metal>
0.0000

> <Gold.Chemscore.Hbonds>
donor molecule, donor type, donor heavy atom, donor atom, acceptor molecule, acceptor atom, score
      L1  H     4    42       P1  7948  1.89
      P1  H  6896  6908       L1    10  1.00
      P1  H  6931  6943       L1    13  0.75
      P1  H  6934  6947       L1    13  0.42

> <Gold.PLP.Chemscore.Internal.Correction>
0.1005

> <Gold.Rescore>
     Score         DG    S(hbond)    S(metal)    S(lipo)     H(rot)  DE(clash)    DE(int)     intcor
     17.89     -19.52       3.09        0.00      66.39       1.58       0.08       1.55       ----

> <Gold.Chemscore.Fitness>
17.8920

> <Gold.Chemscore.DG>
-19.5244

> <Gold.Chemscore.ZeroCoef>
-5.4800

> <Gold.Chemscore.Hbond>
3.0897

> <Gold.Chemscore.Metal>
0.0000

> <Gold.Chemscore.Lipo>
66.3871

> <Gold.Chemscore.Internal_Hbond>
0.0000

> <Gold.Chemscore.DEClash>
0.0792

> <Gold.Chemscore.DEInternal>
1.5533

> <Gold.Chemscore.Rot>
1.5791

> <Gold.Chemscore.Internal.Correction>
   9.000000E+99

> <Gold.Chemscore.Hbonds>
donor molecule, donor type, donor heavy atom, donor atom, acceptor molecule, acceptor atom, score
      L1  H     4    42       P1  7948  0.91
      P1  H  6896  6908       L1    10  0.98
      P1  H  6931  6943       L1    13  0.43
      P1  H  6934  6947       L1    13  0.34

> <Gold.Chemscore.Hbond.Weighted>
-10.3196

> <Gold.Chemscore.Metal.Weighted>
-0.0000

> <Gold.Chemscore.Lipo.Weighted>
-7.7673

> <Gold.Chemscore.Internal_Hbond.Weighted>
0.0000

> <Gold.Chemscore.DEClash.Weighted>
0.0792

> <Gold.Chemscore.DEInternal.Weighted>
1.5533

> <Gold.Chemscore.Rot.Weighted>
4.0425

> <Gold.Chemscore.Internal.Correction.Weighted>
   9.000000E+99

> <Gold.Protein.RotatedTorsions>
[ 6907 6896 6895 6894 ] final -147.06 input  -60.11 | X-H torsion
[ 7974 7965 7964 7962 ] final   -0.80 input  175.53 | X-H torsion
[ 8008 7997 7996 7995 ] final  102.21 input   59.86 | X-H torsion
[ 10167 10162 10161 10158 ] final -159.57 input  -65.29 | X-H torsion
[ 10718 10713 10712 10709 ] final -176.60 input   66.30 | X-H torsion
[ 10763 10752 10751 10750 ] final   13.22 input  -60.55 | X-H torsion
[ 11005 11000 10999 10996 ] final   -7.54 input  -57.11 | X-H torsion

> <Gold.Protein.ActiveResidues>
 VAL166  LYS551  ARG553  GLY616  TRP617  ASP618  TYR619  PRO620  LYS621  CYS622 
 ASP623  PHE694  ASN695  SER759  ASP760  ASP761  ALA762  ILE779  LEU786  VAL792 
 PHE793  MET794  SER795  GLU796  ALA797  LYS798  CYS799  TRP800  GLU811  SER814 

> <Gold.Protein.RotatedAtoms>
  151.1503  133.4912  159.2595 H   0  0  0  0  0  0  0  0  0  0  0  0  # atno 6907 bound_to 6896
  151.1561  135.0250  159.8700 H   0  0  0  0  0  0  0  0  0  0  0  0  # atno 6908 bound_to 6896
  152.5463  134.1382  159.8521 H   0  0  0  0  0  0  0  0  0  0  0  0  # atno 6909 bound_to 6896
  146.2424  140.1325  142.8337 H   0  0  0  0  0  0  0  0  0  0  0  0  # atno 7974 bound_to 7965
  156.1371  140.3185  155.8438 H   0  0  0  0  0  0  0  0  0  0  0  0  # atno 8008 bound_to 7997
  155.4223  140.0513  157.3042 H   0  0  0  0  0  0  0  0  0  0  0  0  # atno 8009 bound_to 7997
  154.4946  140.2105  155.9487 H   0  0  0  0  0  0  0  0  0  0  0  0  # atno 8010 bound_to 7997
  139.6605  143.9921  152.2222 H   0  0  0  0  0  0  0  0  0  0  0  0  # atno 10167 bound_to 10162
  156.8170  130.9606  151.3113 H   0  0  0  0  0  0  0  0  0  0  0  0  # atno 10718 bound_to 10713
  153.1743  135.6817  153.8564 H   0  0  0  0  0  0  0  0  0  0  0  0  # atno 10763 bound_to 10752
  153.7917  135.3168  155.3380 H   0  0  0  0  0  0  0  0  0  0  0  0  # atno 10764 bound_to 10752
  154.8019  135.4773  154.0389 H   0  0  0  0  0  0  0  0  0  0  0  0  # atno 10765 bound_to 10752
  140.7138  133.8886  155.8770 H   0  0  0  0  0  0  0  0  0  0  0  0  # atno 11005 bound_to 11000
  145.0314  140.8874  143.5107 LP  0  0  0  0  0  0  0  0  0  0  0  0  # atno 17320 bound_to 7965
  145.1390  139.2584  143.5500 LP  0  0  0  0  0  0  0  0  0  0  0  0  # atno 17321 bound_to 7965
  139.9659  144.6526  150.8035 LP  0  0  0  0  0  0  0  0  0  0  0  0  # atno 17342 bound_to 10162
  140.7578  143.3093  151.2883 LP  0  0  0  0  0  0  0  0  0  0  0  0  # atno 17343 bound_to 10162
  157.6476  130.8857  149.9570 LP  0  0  0  0  0  0  0  0  0  0  0  0  # atno 17370 bound_to 10713
  156.1011  130.3656  150.0217 LP  0  0  0  0  0  0  0  0  0  0  0  0  # atno 17371 bound_to 10713
  141.0062  134.1083  157.4268 LP  0  0  0  0  0  0  0  0  0  0  0  0  # atno 17394 bound_to 11000
  139.8865  135.0082  156.6501 LP  0  0  0  0  0  0  0  0  0  0  0  0  # atno 17395 bound_to 11000

$$$$
