AV-unprocessed.smi:281|AV-procd|sdf|2103|dock7
  -GOLD-   2262021393D 1   1.00000     0.00000
 Structure written by MMmdl.
 55 59  0  0  0  0  0  0  0  0  1 V2000
  152.8442  139.1655  159.7809 C   0  0  0  0  0  0  0  0  0  0  0  0
  151.5125  138.8649  159.0862 C   0  0  2  0  0  0  0  0  0  0  0  0
  150.9776  137.4705  159.4466 C   0  0  0  0  0  0  0  0  0  0  0  0
  149.7691  137.1933  158.6819 N   0  0  0  0  0  0  0  0  0  0  0  0
  149.0259  136.1529  159.1372 C   0  0  0  0  0  0  0  0  0  0  0  0
  149.0565  134.9590  158.4861 N   0  0  0  0  0  0  0  0  0  0  0  0
  148.3353  133.9268  158.9327 C   0  0  0  0  0  0  0  0  0  0  0  0
  147.5236  133.8720  159.9898 N   0  0  0  0  0  0  0  0  0  0  0  0
  147.4761  135.0698  160.6401 C   0  0  0  0  0  0  0  0  0  0  0  0
  148.1925  136.2487  160.2876 C   0  0  0  0  0  0  0  0  0  0  0  0
  147.8911  137.2690  161.1822 N   0  0  0  0  0  0  0  0  0  0  0  0
  147.0547  136.7215  162.0208 C   0  0  0  0  0  0  0  0  0  0  0  0
  146.7372  135.4074  161.7611 N   0  0  0  0  0  0  0  0  0  0  0  0
  145.8330  134.5601  162.5251 C   0  0  0  0  0  0  0  0  0  0  0  0
  144.4018  134.4621  161.9368 C   0  0  2  0  0  0  0  0  0  0  0  0
  144.4178  133.6148  160.8029 O   0  0  0  0  0  0  0  0  0  0  0  0
  143.7889  135.8092  161.5443 C   0  0  0  0  0  0  0  0  0  0  0  0
  142.8760  136.1285  162.7193 C   0  0  0  0  0  0  0  0  0  0  0  0
  142.3403  134.8573  163.0389 O   0  0  0  0  0  0  0  0  0  0  0  0
  143.4011  133.9125  162.9740 C   0  0  0  0  0  0  0  0  0  0  0  0
  149.9667  137.3177  157.2406 C   0  0  0  0  0  0  0  0  0  0  0  0
  150.5606  138.6974  156.8728 C   0  0  2  0  0  0  0  0  0  0  0  0
  149.5566  139.8522  157.0027 C   0  0  0  0  0  0  0  0  0  0  0  0
  149.2321  140.2368  155.5655 C   0  0  0  0  0  0  0  0  0  0  0  0
  150.4567  139.9934  154.8995 O   0  0  0  0  0  0  0  0  0  0  0  0
  150.9371  138.7436  155.3718 C   0  0  1  0  0  0  0  0  0  0  0  0
  152.4288  138.5810  155.0457 C   0  0  0  0  0  0  0  0  0  0  0  0
  151.7220  138.9438  157.6759 O   0  0  0  0  0  0  0  0  0  0  0  0
  152.7384  139.1281  160.8654 H   0  0  0  0  0  0  0  0  0  0  0  0
  153.2048  140.1599  159.5166 H   0  0  0  0  0  0  0  0  0  0  0  0
  153.6109  138.4457  159.4932 H   0  0  0  0  0  0  0  0  0  0  0  0
  150.7885  139.6193  159.3963 H   0  0  0  0  0  0  0  0  0  0  0  0
  151.7237  136.7091  159.2150 H   0  0  0  0  0  0  0  0  0  0  0  0
  150.7951  137.4171  160.5192 H   0  0  0  0  0  0  0  0  0  0  0  0
  148.4198  133.0151  158.3602 H   0  0  0  0  0  0  0  0  0  0  0  0
  146.6379  137.2687  162.8539 H   0  0  0  0  0  0  0  0  0  0  0  0
  146.2779  133.5663  162.5923 H   0  0  0  0  0  0  0  0  0  0  0  0
  145.7925  134.9432  163.5456 H   0  0  0  0  0  0  0  0  0  0  0  0
  145.3022  133.5726  160.4729 H   0  0  0  0  0  0  0  0  0  0  0  0
  144.5130  136.5995  161.3533 H   0  0  0  0  0  0  0  0  0  0  0  0
  143.1767  135.7089  160.6464 H   0  0  0  0  0  0  0  0  0  0  0  0
  143.4441  136.5173  163.5660 H   0  0  0  0  0  0  0  0  0  0  0  0
  142.0943  136.8445  162.4654 H   0  0  0  0  0  0  0  0  0  0  0  0
  143.0159  132.9232  162.7229 H   0  0  0  0  0  0  0  0  0  0  0  0
  143.8566  133.8416  163.9628 H   0  0  0  0  0  0  0  0  0  0  0  0
  150.6438  136.5278  156.9115 H   0  0  0  0  0  0  0  0  0  0  0  0
  149.0210  137.1696  156.7168 H   0  0  0  0  0  0  0  0  0  0  0  0
  148.6655  139.5959  157.5766 H   0  0  0  0  0  0  0  0  0  0  0  0
  150.0259  140.7088  157.4881 H   0  0  0  0  0  0  0  0  0  0  0  0
  148.4508  139.5963  155.1529 H   0  0  0  0  0  0  0  0  0  0  0  0
  148.9175  141.2758  155.4669 H   0  0  0  0  0  0  0  0  0  0  0  0
  150.3797  137.9743  154.8338 H   0  0  0  0  0  0  0  0  0  0  0  0
  152.8105  137.6323  155.4241 H   0  0  0  0  0  0  0  0  0  0  0  0
  153.0237  139.3834  155.4828 H   0  0  0  0  0  0  0  0  0  0  0  0
  152.5930  138.5992  153.9684 H   0  0  0  0  0  0  0  0  0  0  0  0
  1  2  1  0  0  0  0
  1 29  1  0  0  0  0
  1 30  1  0  0  0  0
  1 31  1  0  0  0  0
  2 28  1  0  0  0  0
  2  3  1  0  0  0  0
  2 32  1  0  0  0  0
  3  4  1  0  0  0  0
  3 33  1  0  0  0  0
  3 34  1  0  0  0  0
  4  5  1  0  0  0  0
  4 21  1  0  0  0  0
  5 10  1  0  0  0  0
  5  6  2  0  0  0  0
  6  7  1  0  0  0  0
  7  8  2  0  0  0  0
  7 35  1  0  0  0  0
  8  9  1  0  0  0  0
  9 13  1  0  0  0  0
  9 10  2  0  0  0  0
 10 11  1  0  0  0  0
 11 12  2  0  0  0  0
 12 13  1  0  0  0  0
 12 36  1  0  0  0  0
 13 14  1  0  0  0  0
 14 15  1  0  0  0  0
 14 37  1  0  0  0  0
 14 38  1  0  0  0  0
 15 20  1  0  0  0  0
 15 16  1  0  0  0  0
 15 17  1  0  0  0  0
 16 39  1  0  0  0  0
 17 18  1  0  0  0  0
 17 40  1  0  0  0  0
 17 41  1  0  0  0  0
 18 19  1  0  0  0  0
 18 42  1  0  0  0  0
 18 43  1  0  0  0  0
 19 20  1  0  0  0  0
 20 44  1  0  0  0  0
 20 45  1  0  0  0  0
 21 22  1  0  0  0  0
 21 46  1  0  0  0  0
 21 47  1  0  0  0  0
 22 26  1  0  0  0  0
 22 23  1  0  0  0  0
 22 28  1  0  0  0  0
 23 24  1  0  0  0  0
 23 48  1  0  0  0  0
 23 49  1  0  0  0  0
 24 25  1  0  0  0  0
 24 50  1  0  0  0  0
 24 51  1  0  0  0  0
 25 26  1  0  0  0  0
 26 27  1  0  0  0  0
 26 52  1  0  0  0  0
 27 53  1  0  0  0  0
 27 54  1  0  0  0  0
 27 55  1  0  0  0  0
M  END
> <s_m_source_file>
AV-unprocessed.smi

> <i_m_source_file_index>
281

> <i_lp_mmshare_version>
43012

> <i_f3d_flags>
0

> <s_epik_input>
W0NIM11bQ0BASF0xT1tDSDJdW0NIMl1bQ0BAXTEyW0NIMl1OKFtDSDJdW0NASF0oTzIpW0NIM10pYyhuW2NIXW4zKWMoYzM0KW5bY0hdbjRbQ0gyXVtDQEBdNShbT0hdKVtDSDJdW0NIMl1PW0NIMl01

> <s_epik_cmdline>
J2VwaWtfcHl0aG9uJywgJy1waCcsICc3LjAnLCAnLXRuJywgJzgnLCAnLW1hJywgJzIwMCcsICctbWV0YWxfYmluZGluZycsICctaW1hZScsICc8aW5maWxlLm1hZT4nLCAnLW9tYWUnLCAnPG91dGZpbGUubWFlPic=

> <r_lp_tautomer_probability>
1

> <r_epik_Ionization_Penalty>
0.00571331

> <r_epik_Ionization_Penalty_Charging>
0

> <r_epik_Ionization_Penalty_Neutral>
0.00571331

> <r_epik_State_Penalty>
0.00399586

> <r_epik_Charging_Adjusted_Penalty>
0.00399586

> <i_epik_Tot_Q>
0

> <i_epik_Tot_abs_Q>
0

> <r_epik_Metal_State_Penalty>
-0

> <b_epik_Metal_Only>
0

> <s_lp_Force_Field>
OPLS_2005

> <r_lp_Energy>
53.0608

> <b_lp_Chiralities_Consistent>
1

> <s_lp_Variant>
AV-unprocessed.smi:281-3

> <Gold.Version>
5.8.1

> <Gold.Id.Protein>
6NUR|6NUR_protein|mol2

> <Gold.PLP.Fitness>
45.3270

> <Gold.PLP.PLP>
-38.0371

> <Gold.PLP.part.hbond>
-3.6585

> <Gold.PLP.part.metal>
0.0000

> <Gold.PLP.part.buried>
-4.8631

> <Gold.PLP.part.nonpolar>
-30.3631

> <Gold.PLP.part.repulsive>
0.1705

> <Gold.PLP.ligand.clash>
0.0000

> <Gold.PLP.ligand.torsion>
1.0636

> <Gold.PLP.Chemscore.Hbond>
3.0390

> <Gold.PLP.Chemscore.CHOScore>
0.0000

> <Gold.PLP.Chemscore.Metal>
0.0000

> <Gold.Chemscore.Hbonds>
donor molecule, donor type, donor heavy atom, donor atom, acceptor molecule, acceptor atom, score
      P1  H  6896  6908       L1     6  0.36
      P1  H  6931  6943       L1    11  0.94
      P1  H  6934  6947       L1    11  0.74
      P1  H  7989  7998       L1    25  1.00

> <Gold.PLP.Chemscore.Internal.Correction>
0.3001

> <Gold.Rescore>
     Score         DG    S(hbond)    S(metal)    S(lipo)     H(rot)  DE(clash)    DE(int)     intcor
     15.08     -15.99       2.12        0.00      75.18       2.09       0.05       0.86       ----

> <Gold.Chemscore.Fitness>
15.0847

> <Gold.Chemscore.DG>
-15.9945

> <Gold.Chemscore.ZeroCoef>
-5.4800

> <Gold.Chemscore.Hbond>
2.1185

> <Gold.Chemscore.Metal>
0.0000

> <Gold.Chemscore.Lipo>
75.1813

> <Gold.Chemscore.Internal_Hbond>
0.0000

> <Gold.Chemscore.DEClash>
0.0517

> <Gold.Chemscore.DEInternal>
0.8581

> <Gold.Chemscore.Rot>
2.0927

> <Gold.Chemscore.Internal.Correction>
   9.000000E+99

> <Gold.Chemscore.Hbonds>
donor molecule, donor type, donor heavy atom, donor atom, acceptor molecule, acceptor atom, score
      P1  H  6931  6943       L1    11  0.81
      P1  H  6934  6947       L1    11  0.33
      P1  H  7989  7998       L1    25  0.85

> <Gold.Chemscore.Hbond.Weighted>
-7.0757

> <Gold.Chemscore.Metal.Weighted>
-0.0000

> <Gold.Chemscore.Lipo.Weighted>
-8.7962

> <Gold.Chemscore.Internal_Hbond.Weighted>
0.0000

> <Gold.Chemscore.DEClash.Weighted>
0.0517

> <Gold.Chemscore.DEInternal.Weighted>
0.8581

> <Gold.Chemscore.Rot.Weighted>
5.3573

> <Gold.Chemscore.Internal.Correction.Weighted>
   9.000000E+99

> <Gold.Protein.RotatedTorsions>
[ 6907 6896 6895 6894 ] final  156.97 input  -60.11 | X-H torsion
[ 7974 7965 7964 7962 ] final -125.73 input  175.53 | X-H torsion
[ 8008 7997 7996 7995 ] final  -63.98 input   59.86 | X-H torsion
[ 10167 10162 10161 10158 ] final  -50.24 input  -65.29 | X-H torsion
[ 10718 10713 10712 10709 ] final  127.96 input   66.30 | X-H torsion
[ 10763 10752 10751 10750 ] final   -8.31 input  -60.55 | X-H torsion
[ 11005 11000 10999 10996 ] final -152.22 input  -57.11 | X-H torsion

> <Gold.Protein.ActiveResidues>
 VAL166  LYS551  ARG553  GLY616  TRP617  ASP618  TYR619  PRO620  LYS621  CYS622 
 ASP623  PHE694  ASN695  SER759  ASP760  ASP761  ALA762  ILE779  LEU786  VAL792 
 PHE793  MET794  SER795  GLU796  ALA797  LYS798  CYS799  TRP800  GLU811  SER814 

> <Gold.Protein.RotatedAtoms>
  152.0219  133.3902  159.4261 H   0  0  0  0  0  0  0  0  0  0  0  0  # atno 6907 bound_to 6896
  150.6889  134.3616  159.4962 H   0  0  0  0  0  0  0  0  0  0  0  0  # atno 6908 bound_to 6896
  152.1391  134.9076  160.0605 H   0  0  0  0  0  0  0  0  0  0  0  0  # atno 6909 bound_to 6896
  144.9946  140.7764  143.4533 H   0  0  0  0  0  0  0  0  0  0  0  0  # atno 7974 bound_to 7965
  154.4585  140.0963  156.6826 H   0  0  0  0  0  0  0  0  0  0  0  0  # atno 8008 bound_to 7997
  155.5066  140.3475  155.4362 H   0  0  0  0  0  0  0  0  0  0  0  0  # atno 8009 bound_to 7997
  156.0824  140.1376  156.9684 H   0  0  0  0  0  0  0  0  0  0  0  0  # atno 8010 bound_to 7997
  140.6647  143.2665  151.4330 H   0  0  0  0  0  0  0  0  0  0  0  0  # atno 10167 bound_to 10162
  157.5287  131.1098  150.9043 H   0  0  0  0  0  0  0  0  0  0  0  0  # atno 10718 bound_to 10713
  153.4386  135.7013  153.6183 H   0  0  0  0  0  0  0  0  0  0  0  0  # atno 10763 bound_to 10752
  153.4568  135.3745  155.2315 H   0  0  0  0  0  0  0  0  0  0  0  0  # atno 10764 bound_to 10752
  154.8727  135.4010  154.3781 H   0  0  0  0  0  0  0  0  0  0  0  0  # atno 10765 bound_to 10752
  140.7212  134.3725  157.5183 H   0  0  0  0  0  0  0  0  0  0  0  0  # atno 11005 bound_to 11000
  145.2238  139.2146  143.5079 LP  0  0  0  0  0  0  0  0  0  0  0  0  # atno 17320 bound_to 7965
  146.3439  140.2101  142.8590 LP  0  0  0  0  0  0  0  0  0  0  0  0  # atno 17321 bound_to 7965
  139.5892  144.1537  152.2067 LP  0  0  0  0  0  0  0  0  0  0  0  0  # atno 17342 bound_to 10162
  140.0886  144.5640  150.7071 LP  0  0  0  0  0  0  0  0  0  0  0  0  # atno 17343 bound_to 10162
  156.9631  130.5463  149.5287 LP  0  0  0  0  0  0  0  0  0  0  0  0  # atno 17370 bound_to 10713
  156.0406  130.5489  150.8761 LP  0  0  0  0  0  0  0  0  0  0  0  0  # atno 17371 bound_to 10713
  139.8848  134.8956  156.2683 LP  0  0  0  0  0  0  0  0  0  0  0  0  # atno 17394 bound_to 11000
  141.0002  133.7156  156.0948 LP  0  0  0  0  0  0  0  0  0  0  0  0  # atno 17395 bound_to 11000

$$$$
