AV-unprocessed.smi:2771|AV-procd|sdf|10662|dock3
  -GOLD-   2272015103D 1   1.00000     0.00000
 Structure written by MMmdl.
 43 44  0  0  0  0  0  0  0  0  1 V2000
  153.9650  141.2752  160.2658 C   0  0  0  0  0  0  0  0  0  0  0  0
  153.0399  142.4052  159.8660 C   0  0  0  0  0  0  0  0  0  0  0  0
  152.9104  143.5551  160.6691 C   0  0  0  0  0  0  0  0  0  0  0  0
  152.0336  144.5677  160.2401 C   0  0  0  0  0  0  0  0  0  0  0  0
  151.3271  144.3896  159.0347 C   0  0  0  0  0  0  0  0  0  0  0  0
  151.5131  143.2040  158.2886 C   0  0  0  0  0  0  0  0  0  0  0  0
  150.7557  143.1203  157.0899 N   0  0  0  0  0  0  0  0  0  0  0  0
  150.4695  142.0255  156.3634 C   0  0  0  0  0  0  0  0  0  0  0  0
  150.8255  140.8780  156.6331 O   0  0  0  0  0  0  0  0  0  0  0  0
  149.7278  142.3354  155.2904 N   0  0  0  0  0  0  0  0  0  0  0  0
  149.2357  141.3809  154.3014 C   0  0  0  0  0  0  0  0  0  0  0  0
  147.8323  141.7738  153.7824 C   0  0  2  0  0  0  0  0  0  0  0  0
  147.1768  142.4153  154.8606 O   0  0  0  0  0  0  0  0  0  0  0  0
  146.9468  140.5778  153.3318 C   0  0  0  0  0  0  0  0  0  0  0  0
  146.7394  139.5273  154.4521 C   0  0  0  0  0  0  0  0  0  0  0  0
  145.8877  138.3344  153.9869 C   0  0  0  0  0  0  0  0  0  0  0  0
  146.4918  137.6621  152.7481 C   0  0  0  0  0  0  0  0  0  0  0  0
  146.6843  138.6830  151.6203 C   0  0  0  0  0  0  0  0  0  0  0  0
  147.5412  139.8704  152.0865 C   0  0  0  0  0  0  0  0  0  0  0  0
  152.3611  142.2336  158.7114 N   0  0  0  0  0  0  0  0  0  0  0  0
  154.6337  141.5793  161.0714 H   0  0  0  0  0  0  0  0  0  0  0  0
  154.5762  140.9629  159.4184 H   0  0  0  0  0  0  0  0  0  0  0  0
  153.3860  140.4167  160.6067 H   0  0  0  0  0  0  0  0  0  0  0  0
  153.4665  143.6608  161.5890 H   0  0  0  0  0  0  0  0  0  0  0  0
  151.9039  145.4662  160.8250 H   0  0  0  0  0  0  0  0  0  0  0  0
  150.6497  145.1580  158.6913 H   0  0  0  0  0  0  0  0  0  0  0  0
  150.3874  143.9952  156.7472 H   0  0  0  0  0  0  0  0  0  0  0  0
  149.4800  143.3034  155.1471 H   0  0  0  0  0  0  0  0  0  0  0  0
  149.9717  141.4109  153.5018 H   0  0  0  0  0  0  0  0  0  0  0  0
  149.2505  140.3570  154.6802 H   0  0  0  0  0  0  0  0  0  0  0  0
  147.9252  142.4805  152.9563 H   0  0  0  0  0  0  0  0  0  0  0  0
  147.7484  143.0861  155.2032 H   0  0  0  0  0  0  0  0  0  0  0  0
  145.9660  140.9703  153.0579 H   0  0  0  0  0  0  0  0  0  0  0  0
  147.7079  139.1687  154.8034 H   0  0  0  0  0  0  0  0  0  0  0  0
  146.2422  139.9666  155.3147 H   0  0  0  0  0  0  0  0  0  0  0  0
  145.7951  137.6076  154.7945 H   0  0  0  0  0  0  0  0  0  0  0  0
  144.8764  138.6749  153.7608 H   0  0  0  0  0  0  0  0  0  0  0  0
  147.4514  137.2115  153.0052 H   0  0  0  0  0  0  0  0  0  0  0  0
  145.8466  136.8504  152.4110 H   0  0  0  0  0  0  0  0  0  0  0  0
  147.1525  138.2023  150.7607 H   0  0  0  0  0  0  0  0  0  0  0  0
  145.7126  139.0440  151.2811 H   0  0  0  0  0  0  0  0  0  0  0  0
  147.6384  140.5681  151.2546 H   0  0  0  0  0  0  0  0  0  0  0  0
  148.5504  139.5218  152.3108 H   0  0  0  0  0  0  0  0  0  0  0  0
  1  2  1  0  0  0  0
  1 21  1  0  0  0  0
  1 22  1  0  0  0  0
  1 23  1  0  0  0  0
  2 20  1  0  0  0  0
  2  3  2  0  0  0  0
  3  4  1  0  0  0  0
  3 24  1  0  0  0  0
  4  5  2  0  0  0  0
  4 25  1  0  0  0  0
  5  6  1  0  0  0  0
  5 26  1  0  0  0  0
  6  7  1  0  0  0  0
  6 20  2  0  0  0  0
  7  8  1  0  0  0  0
  7 27  1  0  0  0  0
  8  9  2  0  0  0  0
  8 10  1  0  0  0  0
 10 11  1  0  0  0  0
 10 28  1  0  0  0  0
 11 12  1  0  0  0  0
 11 29  1  0  0  0  0
 11 30  1  0  0  0  0
 12 13  1  0  0  0  0
 12 14  1  0  0  0  0
 12 31  1  0  0  0  0
 13 32  1  0  0  0  0
 14 19  1  0  0  0  0
 14 15  1  0  0  0  0
 14 33  1  0  0  0  0
 15 16  1  0  0  0  0
 15 34  1  0  0  0  0
 15 35  1  0  0  0  0
 16 17  1  0  0  0  0
 16 36  1  0  0  0  0
 16 37  1  0  0  0  0
 17 18  1  0  0  0  0
 17 38  1  0  0  0  0
 17 39  1  0  0  0  0
 18 19  1  0  0  0  0
 18 40  1  0  0  0  0
 18 41  1  0  0  0  0
 19 42  1  0  0  0  0
 19 43  1  0  0  0  0
M  END
> <s_m_source_file>
AV-unprocessed.smi

> <i_m_source_file_index>
2771

> <i_lp_mmshare_version>
43012

> <i_f3d_flags>
0

> <s_epik_input>
W0NIM11jMVtjSF1bY0hdW2NIXWMobjEpW05IXUMoPU8pW05IXVtDSDJdW0NASF0oW09IXSlbQ0hdMltDSDJdW0NIMl1bQ0gyXVtDSDJdW0NIMl0y

> <s_epik_cmdline>
J2VwaWtfcHl0aG9uJywgJy1waCcsICc3LjAnLCAnLXRuJywgJzgnLCAnLW1hJywgJzIwMCcsICctbWV0YWxfYmluZGluZycsICctaW1hZScsICc8aW5maWxlLm1hZT4nLCAnLW9tYWUnLCAnPG91dGZpbGUubWFlPic=

> <r_lp_tautomer_probability>
1

> <r_epik_Ionization_Penalty>
8.92802e-05

> <r_epik_Ionization_Penalty_Charging>
0

> <r_epik_Ionization_Penalty_Neutral>
8.92802e-05

> <r_epik_State_Penalty>
-0

> <r_epik_Charging_Adjusted_Penalty>
0

> <i_epik_Tot_Q>
0

> <i_epik_Tot_abs_Q>
0

> <r_epik_Metal_State_Penalty>
-0

> <b_epik_Metal_Only>
0

> <s_lp_Force_Field>
OPLS_2005

> <r_lp_Energy>
16.1378

> <b_lp_Chiralities_Consistent>
1

> <s_lp_Variant>
AV-unprocessed.smi:2771-1

> <Gold.Version>
5.8.1

> <Gold.Id.Protein>
6NUR|6NUR_protein|mol2

> <Gold.PLP.Fitness>
49.4430

> <Gold.PLP.PLP>
-42.1086

> <Gold.PLP.part.hbond>
-3.0000

> <Gold.PLP.part.metal>
0.0000

> <Gold.PLP.part.buried>
-0.2201

> <Gold.PLP.part.nonpolar>
-39.0673

> <Gold.PLP.part.repulsive>
0.2387

> <Gold.PLP.ligand.clash>
0.0000

> <Gold.PLP.ligand.torsion>
0.6056

> <Gold.PLP.Chemscore.Hbond>
2.8400

> <Gold.PLP.Chemscore.CHOScore>
0.0000

> <Gold.PLP.Chemscore.Metal>
0.0000

> <Gold.Chemscore.Hbonds>
donor molecule, donor type, donor heavy atom, donor atom, acceptor molecule, acceptor atom, score
      L1  H     7    27       P1  8028  0.85
      L1  H    10    28       P1  8028  1.00
      L1  H    13    32       P1  8028  1.00

> <Gold.PLP.Chemscore.Internal.Correction>
0.0257

> <Gold.Rescore>
     Score         DG    S(hbond)    S(metal)    S(lipo)     H(rot)  DE(clash)    DE(int)     intcor
     18.02     -21.59       2.56        0.00     107.26       1.95       1.65       1.92       ----

> <Gold.Chemscore.Fitness>
18.0222

> <Gold.Chemscore.DG>
-21.5918

> <Gold.Chemscore.ZeroCoef>
-5.4800

> <Gold.Chemscore.Hbond>
2.5640

> <Gold.Chemscore.Metal>
0.0000

> <Gold.Chemscore.Lipo>
107.2595

> <Gold.Chemscore.Internal_Hbond>
0.0000

> <Gold.Chemscore.DEClash>
1.6510

> <Gold.Chemscore.DEInternal>
1.9187

> <Gold.Chemscore.Rot>
1.9536

> <Gold.Chemscore.Internal.Correction>
   9.000000E+99

> <Gold.Chemscore.Hbonds>
donor molecule, donor type, donor heavy atom, donor atom, acceptor molecule, acceptor atom, score
      L1  H     7    27       P1  8028  0.82
      L1  H    10    28       P1  8028  0.96
      L1  H    13    32       P1  8028  0.58

> <Gold.Chemscore.Hbond.Weighted>
-8.5638

> <Gold.Chemscore.Metal.Weighted>
-0.0000

> <Gold.Chemscore.Lipo.Weighted>
-12.5494

> <Gold.Chemscore.Internal_Hbond.Weighted>
0.0000

> <Gold.Chemscore.DEClash.Weighted>
1.6510

> <Gold.Chemscore.DEInternal.Weighted>
1.9187

> <Gold.Chemscore.Rot.Weighted>
5.0013

> <Gold.Chemscore.Internal.Correction.Weighted>
   9.000000E+99

> <Gold.Protein.RotatedTorsions>
[ 6907 6896 6895 6894 ] final   93.13 input  -60.11 | X-H torsion
[ 7974 7965 7964 7962 ] final  104.92 input  175.53 | X-H torsion
[ 8008 7997 7996 7995 ] final   95.25 input   59.86 | X-H torsion
[ 10167 10162 10161 10158 ] final   96.72 input  -65.29 | X-H torsion
[ 10718 10713 10712 10709 ] final   48.67 input   66.30 | X-H torsion
[ 10763 10752 10751 10750 ] final -114.75 input  -60.55 | X-H torsion
[ 11005 11000 10999 10996 ] final   -6.79 input  -57.11 | X-H torsion

> <Gold.Protein.ActiveResidues>
 VAL166  LYS551  ARG553  GLY616  TRP617  ASP618  TYR619  PRO620  LYS621  CYS622 
 ASP623  PHE694  ASN695  SER759  ASP760  ASP761  ALA762  ILE779  LEU786  VAL792 
 PHE793  MET794  SER795  GLU796  ALA797  LYS798  CYS799  TRP800  GLU811  SER814 

> <Gold.Protein.RotatedAtoms>
  152.5453  134.1395  159.8472 H   0  0  0  0  0  0  0  0  0  0  0  0  # atno 6907 bound_to 6896
  151.1432  133.4950  159.2604 H   0  0  0  0  0  0  0  0  0  0  0  0  # atno 6908 bound_to 6896
  151.1551  135.0256  159.8740 H   0  0  0  0  0  0  0  0  0  0  0  0  # atno 6909 bound_to 6896
  145.3265  139.2498  143.3684 H   0  0  0  0  0  0  0  0  0  0  0  0  # atno 7974 bound_to 7965
  156.0668  140.3289  155.7528 H   0  0  0  0  0  0  0  0  0  0  0  0  # atno 8008 bound_to 7997
  155.5368  140.0598  157.2895 H   0  0  0  0  0  0  0  0  0  0  0  0  # atno 8009 bound_to 7997
  154.4509  140.1918  156.0539 H   0  0  0  0  0  0  0  0  0  0  0  0  # atno 8010 bound_to 7997
  139.7868  144.6867  150.9947 H   0  0  0  0  0  0  0  0  0  0  0  0  # atno 10167 bound_to 10162
  157.4710  130.8255  149.7988 H   0  0  0  0  0  0  0  0  0  0  0  0  # atno 10718 bound_to 10713
  154.8453  135.4406  154.1555 H   0  0  0  0  0  0  0  0  0  0  0  0  # atno 10763 bound_to 10752
  153.2705  135.6944  153.7492 H   0  0  0  0  0  0  0  0  0  0  0  0  # atno 10764 bound_to 10752
  153.6734  135.3415  155.3134 H   0  0  0  0  0  0  0  0  0  0  0  0  # atno 10765 bound_to 10752
  140.7058  133.8950  155.8715 H   0  0  0  0  0  0  0  0  0  0  0  0  # atno 11005 bound_to 11000
  146.3062  140.3833  142.8686 LP  0  0  0  0  0  0  0  0  0  0  0  0  # atno 17320 bound_to 7965
  144.8898  140.7509  143.5934 LP  0  0  0  0  0  0  0  0  0  0  0  0  # atno 17321 bound_to 7965
  140.7820  143.4424  151.0532 LP  0  0  0  0  0  0  0  0  0  0  0  0  # atno 17342 bound_to 10162
  139.8102  143.7961  152.3170 LP  0  0  0  0  0  0  0  0  0  0  0  0  # atno 17343 bound_to 10162
  156.0073  130.3849  150.2385 LP  0  0  0  0  0  0  0  0  0  0  0  0  # atno 17370 bound_to 10713
  157.0568  131.0078  151.3236 LP  0  0  0  0  0  0  0  0  0  0  0  0  # atno 17371 bound_to 10713
  141.0126  134.1000  157.4206 LP  0  0  0  0  0  0  0  0  0  0  0  0  # atno 17394 bound_to 11000
  139.8884  135.0098  156.6621 LP  0  0  0  0  0  0  0  0  0  0  0  0  # atno 17395 bound_to 11000

$$$$
