AV-unprocessed.smi:1399|AV-procd|sdf|5684|dock3
  -GOLD-   22720 5313D 1   1.00000     0.00000
 Structure written by MMmdl.
 37 38  0  0  0  0  0  0  0  0  3 V2000
  142.8387  132.1309  149.1469 N   0  5  0  0  0  0  0  0  0  0  0  0
  144.0030  132.3751  149.7779 C   0  0  0  0  0  0  0  0  0  0  0  0
  145.1436  132.2118  149.3493 O   0  0  0  0  0  0  0  0  0  0  0  0
  143.7984  132.9446  151.1857 C   0  0  0  0  0  0  0  0  0  0  0  0
  144.7614  134.0455  151.4370 N   0  3  2  0  0  0  0  0  0  0  0  0
  144.6982  134.5423  152.8350 C   0  0  0  0  0  0  0  0  0  0  0  0
  145.8011  135.5792  153.1077 C   0  0  0  0  0  0  0  0  0  0  0  0
  145.7191  136.7509  152.1164 C   0  0  1  0  0  0  0  0  0  0  0  0
  146.8256  137.6759  152.3443 N   0  0  0  0  0  0  0  0  0  0  0  0
  146.9149  138.5310  153.3735 C   0  0  0  0  0  0  0  0  0  0  0  0
  146.0619  138.6239  154.2560 O   0  0  0  0  0  0  0  0  0  0  0  0
  148.0389  139.2627  153.3055 N   0  0  0  0  0  0  0  0  0  0  0  0
  148.4682  140.2596  154.2172 C   0  0  0  0  0  0  0  0  0  0  0  0
  149.5192  140.2105  155.1799 C   0  0  0  0  0  0  0  0  0  0  0  0
  149.6130  141.3527  155.8459 N   0  0  0  0  0  0  0  0  0  0  0  0
  148.6376  142.1273  155.3202 N   0  0  0  0  0  0  0  0  0  0  0  0
  147.9184  141.5020  154.3256 C   0  0  0  0  0  0  0  0  0  0  0  0
  145.7488  136.2083  150.6763 C   0  0  0  0  0  0  0  0  0  0  0  0
  144.6484  135.1577  150.4551 C   0  0  0  0  0  0  0  0  0  0  0  0
  148.4770  143.0693  155.6478 H   0  0  0  0  0  0  0  0  0  0  0  0
  142.0399  132.7504  149.3290 H   0  0  0  0  0  0  0  0  0  0  0  0
  142.7748  133.2831  151.3615 H   0  0  0  0  0  0  0  0  0  0  0  0
  143.9769  132.1260  151.8841 H   0  0  0  0  0  0  0  0  0  0  0  0
  143.7153  134.9774  153.0228 H   0  0  0  0  0  0  0  0  0  0  0  0
  144.8144  133.7080  153.5278 H   0  0  0  0  0  0  0  0  0  0  0  0
  145.7144  135.9476  154.1305 H   0  0  0  0  0  0  0  0  0  0  0  0
  146.7769  135.0962  153.0341 H   0  0  0  0  0  0  0  0  0  0  0  0
  144.7742  137.2726  152.2817 H   0  0  0  0  0  0  0  0  0  0  0  0
  147.5738  137.6683  151.6665 H   0  0  0  0  0  0  0  0  0  0  0  0
  148.6477  139.0946  152.5181 H   0  0  0  0  0  0  0  0  0  0  0  0
  150.2052  139.4116  155.4182 H   0  0  0  0  0  0  0  0  0  0  0  0
  147.1045  141.9811  153.8018 H   0  0  0  0  0  0  0  0  0  0  0  0
  145.6234  137.0236  149.9627 H   0  0  0  0  0  0  0  0  0  0  0  0
  146.7221  135.7617  150.4668 H   0  0  0  0  0  0  0  0  0  0  0  0
  144.7256  134.7731  149.4379 H   0  0  0  0  0  0  0  0  0  0  0  0
  143.6647  135.6220  150.5414 H   0  0  0  0  0  0  0  0  0  0  0  0
  145.6785  133.6389  151.3185 H   0  0  0  0  0  0  0  0  0  0  0  0
  1  2  1  0  0  0  0
  1 21  1  0  0  0  0
  2  3  2  0  0  0  0
  2  4  1  0  0  0  0
  4  5  1  0  0  0  0
  4 22  1  0  0  0  0
  4 23  1  0  0  0  0
  5 19  1  0  0  0  0
  5  6  1  0  0  0  0
  5 37  1  0  0  0  0
  6  7  1  0  0  0  0
  6 24  1  0  0  0  0
  6 25  1  0  0  0  0
  7  8  1  0  0  0  0
  7 26  1  0  0  0  0
  7 27  1  0  0  0  0
  8  9  1  0  0  0  0
  8 18  1  0  0  0  0
  8 28  1  0  0  0  0
  9 10  1  0  0  0  0
  9 29  1  0  0  0  0
 10 11  2  0  0  0  0
 10 12  1  0  0  0  0
 12 13  1  0  0  0  0
 12 30  1  0  0  0  0
 13 17  2  0  0  0  0
 13 14  1  0  0  0  0
 14 15  2  0  0  0  0
 14 31  1  0  0  0  0
 15 16  1  0  0  0  0
 16 20  1  0  0  0  0
 16 17  1  0  0  0  0
 17 32  1  0  0  0  0
 18 19  1  0  0  0  0
 18 33  1  0  0  0  0
 18 34  1  0  0  0  0
 19 35  1  0  0  0  0
 19 36  1  0  0  0  0
M  CHG  1   1  -1
M  CHG  1   5   1
M  END
> <s_m_source_file>
AV-unprocessed.smi

> <i_m_source_file_index>
1399

> <i_lp_mmshare_version>
43012

> <i_f3d_flags>
0

> <s_epik_input>
W05IMl1DKD1PKVtDSDJdTjFbQ0gyXVtDSDJdW0NIXShbQ0gyXVtDSDJdMSlbTkhdQyg9TylbTkhdYzJbY0hdbltuSF1bY0hdMg==

> <s_epik_cmdline>
J2VwaWtfcHl0aG9uJywgJy1waCcsICc3LjAnLCAnLXRuJywgJzgnLCAnLW1hJywgJzIwMCcsICctbWV0YWxfYmluZGluZycsICctaW1hZScsICc8aW5maWxlLm1hZT4nLCAnLW9tYWUnLCAnPG91dGZpbGUubWFlPic=

> <r_lp_tautomer_probability>
0.5

> <r_epik_Ionization_Penalty>
5.72885

> <r_epik_Ionization_Penalty_Charging>
5.7288

> <r_epik_Ionization_Penalty_Neutral>
4.21226e-05

> <r_epik_State_Penalty>
6.54882

> <r_epik_Charging_Adjusted_Penalty>
12.2776

> <i_epik_Tot_Q>
0

> <i_epik_Tot_abs_Q>
2

> <r_epik_Metal_State_Penalty>
2.51297

> <b_epik_Metal_Only>
1

> <s_lp_Force_Field>
OPLS_2005

> <r_lp_Energy>
11.0753

> <b_lp_Chiralities_Consistent>
1

> <s_lp_Variant>
AV-unprocessed.smi:1399-4

> <Gold.Version>
5.8.1

> <Gold.Id.Protein>
6NUR|6NUR_protein|mol2

> <Gold.PLP.Fitness>
44.5906

> <Gold.PLP.PLP>
-34.2500

> <Gold.PLP.part.hbond>
-5.8796

> <Gold.PLP.part.metal>
0.0000

> <Gold.PLP.part.buried>
-6.3297

> <Gold.PLP.part.nonpolar>
-23.6351

> <Gold.PLP.part.repulsive>
0.7053

> <Gold.PLP.ligand.clash>
0.0000

> <Gold.PLP.ligand.torsion>
1.1330

> <Gold.PLP.Chemscore.Hbond>
4.1912

> <Gold.PLP.Chemscore.CHOScore>
0.0000

> <Gold.PLP.Chemscore.Metal>
0.0000

> <Gold.Chemscore.Hbonds>
donor molecule, donor type, donor heavy atom, donor atom, acceptor molecule, acceptor atom, score
      L1  H     1    21       P1 10186  1.00
      L1  H     9    29       P1  7948  0.37
      L1  H    12    30       P1  7957  0.83
      L1  H    16    20       P1  8028  1.00
      P1  H 10785 10796       L1     1  0.79

> <Gold.PLP.Chemscore.Internal.Correction>
0.0330

> <Gold.Rescore>
     Score         DG    S(hbond)    S(metal)    S(lipo)     H(rot)  DE(clash)    DE(int)     intcor
     16.78     -17.96       3.37        0.00      55.54       2.06       0.06       1.12       ----

> <Gold.Chemscore.Fitness>
16.7803

> <Gold.Chemscore.DG>
-17.9587

> <Gold.Chemscore.ZeroCoef>
-5.4800

> <Gold.Chemscore.Hbond>
3.3681

> <Gold.Chemscore.Metal>
0.0000

> <Gold.Chemscore.Lipo>
55.5437

> <Gold.Chemscore.Internal_Hbond>
0.0000

> <Gold.Chemscore.DEClash>
0.0551

> <Gold.Chemscore.DEInternal>
1.1233

> <Gold.Chemscore.Rot>
2.0584

> <Gold.Chemscore.Internal.Correction>
   9.000000E+99

> <Gold.Chemscore.Hbonds>
donor molecule, donor type, donor heavy atom, donor atom, acceptor molecule, acceptor atom, score
      L1  H     1    21       P1 10186  0.98
      L1  H     9    29       P1  7948  0.35
      L1  H    12    30       P1  7957  0.83
      L1  H    16    20       P1  8028  0.95
      P1  H 10785 10796       L1     1  0.13

> <Gold.Chemscore.Hbond.Weighted>
-11.2496

> <Gold.Chemscore.Metal.Weighted>
-0.0000

> <Gold.Chemscore.Lipo.Weighted>
-6.4986

> <Gold.Chemscore.Internal_Hbond.Weighted>
0.0000

> <Gold.Chemscore.DEClash.Weighted>
0.0551

> <Gold.Chemscore.DEInternal.Weighted>
1.1233

> <Gold.Chemscore.Rot.Weighted>
5.2695

> <Gold.Chemscore.Internal.Correction.Weighted>
   9.000000E+99

> <Gold.Protein.RotatedTorsions>
[ 6907 6896 6895 6894 ] final  123.42 input  -60.11 | X-H torsion
[ 7974 7965 7964 7962 ] final  -82.00 input  175.53 | X-H torsion
[ 8008 7997 7996 7995 ] final   42.85 input   59.86 | X-H torsion
[ 10167 10162 10161 10158 ] final   87.50 input  -65.29 | X-H torsion
[ 10718 10713 10712 10709 ] final  -98.78 input   66.30 | X-H torsion
[ 10763 10752 10751 10750 ] final  -31.92 input  -60.55 | X-H torsion
[ 11005 11000 10999 10996 ] final -119.77 input  -57.11 | X-H torsion

> <Gold.Protein.ActiveResidues>
 VAL166  LYS551  ARG553  GLY616  TRP617  ASP618  TYR619  PRO620  LYS621  CYS622 
 ASP623  PHE694  ASN695  SER759  ASP760  ASP761  ALA762  ILE779  LEU786  VAL792 
 PHE793  MET794  SER795  GLU796  ALA797  LYS798  CYS799  TRP800  GLU811  SER814 

> <Gold.Protein.RotatedAtoms>
  152.4163  133.7044  159.6442 H   0  0  0  0  0  0  0  0  0  0  0  0  # atno 6907 bound_to 6896
  150.8040  133.8533  159.3220 H   0  0  0  0  0  0  0  0  0  0  0  0  # atno 6908 bound_to 6896
  151.6262  135.1029  160.0163 H   0  0  0  0  0  0  0  0  0  0  0  0  # atno 6909 bound_to 6896
  145.5392  140.9512  143.1560 H   0  0  0  0  0  0  0  0  0  0  0  0  # atno 7974 bound_to 7965
  155.2930  140.3380  155.4251 H   0  0  0  0  0  0  0  0  0  0  0  0  # atno 8008 bound_to 7997
  156.2037  140.1742  156.7885 H   0  0  0  0  0  0  0  0  0  0  0  0  # atno 8009 bound_to 7997
  154.5592  140.0690  156.8776 H   0  0  0  0  0  0  0  0  0  0  0  0  # atno 8010 bound_to 7997
  139.8767  144.6463  150.8889 H   0  0  0  0  0  0  0  0  0  0  0  0  # atno 10167 bound_to 10162
  156.0116  130.5253  150.6573 H   0  0  0  0  0  0  0  0  0  0  0  0  # atno 10718 bound_to 10713
  153.8053  135.6887  153.4849 H   0  0  0  0  0  0  0  0  0  0  0  0  # atno 10763 bound_to 10752
  153.1662  135.4560  154.9839 H   0  0  0  0  0  0  0  0  0  0  0  0  # atno 10764 bound_to 10752
  154.7990  135.3330  154.7538 H   0  0  0  0  0  0  0  0  0  0  0  0  # atno 10765 bound_to 10752
  141.0192  134.0150  157.3307 H   0  0  0  0  0  0  0  0  0  0  0  0  # atno 11005 bound_to 11000
  144.7586  139.7013  143.7244 LP  0  0  0  0  0  0  0  0  0  0  0  0  # atno 17320 bound_to 7965
  146.1992  139.5277  142.9754 LP  0  0  0  0  0  0  0  0  0  0  0  0  # atno 17321 bound_to 7965
  140.7751  143.3619  151.1812 LP  0  0  0  0  0  0  0  0  0  0  0  0  # atno 17342 bound_to 10162
  139.7234  143.9187  152.2993 LP  0  0  0  0  0  0  0  0  0  0  0  0  # atno 17343 bound_to 10162
  157.4323  131.0851  151.1027 LP  0  0  0  0  0  0  0  0  0  0  0  0  # atno 17370 bound_to 10713
  157.1596  130.6219  149.5606 LP  0  0  0  0  0  0  0  0  0  0  0  0  # atno 17371 bound_to 10713
  139.9135  135.0194  156.7789 LP  0  0  0  0  0  0  0  0  0  0  0  0  # atno 17394 bound_to 11000
  140.6603  133.9651  155.7801 LP  0  0  0  0  0  0  0  0  0  0  0  0  # atno 17395 bound_to 11000

$$$$
