AV-unprocessed.smi:1380|AV-procd|sdf|5600|dock8
  -GOLD-   22720 5203D 1   1.00000     0.00000
 Structure written by MMmdl.
 33 34  0  0  0  0  0  0  0  0  1 V2000
  148.7107  135.0730  156.2365 O   0  0  0  0  0  0  0  0  0  0  0  0
  148.7854  135.3648  155.0427 C   0  0  0  0  0  0  0  0  0  0  0  0
  148.4395  134.5390  154.0460 N   0  0  0  0  0  0  0  0  0  0  0  0
  147.9678  133.1691  154.2238 C   0  0  0  0  0  0  0  0  0  0  0  0
  147.7108  132.4504  152.8846 C   0  0  0  0  0  0  0  0  0  0  0  0
  146.4366  132.9025  152.1924 C   0  0  0  0  0  0  0  0  0  0  0  0
  145.4112  131.9816  151.8954 C   0  0  0  0  0  0  0  0  0  0  0  0
  144.2437  132.4478  151.2611 C   0  0  0  0  0  0  0  0  0  0  0  0
  144.1518  133.8190  150.9494 C   0  0  0  0  0  0  0  0  0  0  0  0
  145.1271  134.7104  151.2291 N   0  0  0  0  0  0  0  0  0  0  0  0
  146.2441  134.2549  151.8359 C   0  0  0  0  0  0  0  0  0  0  0  0
  149.2382  136.5385  154.5818 N   0  0  0  0  0  0  0  0  0  0  0  0
  149.7396  137.6209  155.4177 C   0  0  0  0  0  0  0  0  0  0  0  0
  150.3786  138.7674  154.6572 C   0  0  0  0  0  0  0  0  0  0  0  0
  151.4439  139.6311  155.2930 C   0  0  0  0  0  0  0  0  0  0  0  0
  150.0701  140.1983  155.0312 C   0  0  0  0  0  0  0  0  0  0  0  0
  148.5376  134.8681  153.0967 H   0  0  0  0  0  0  0  0  0  0  0  0
  148.6755  132.6021  154.8304 H   0  0  0  0  0  0  0  0  0  0  0  0
  147.0406  133.2148  154.7954 H   0  0  0  0  0  0  0  0  0  0  0  0
  148.5543  132.6093  152.2114 H   0  0  0  0  0  0  0  0  0  0  0  0
  147.6594  131.3738  153.0504 H   0  0  0  0  0  0  0  0  0  0  0  0
  145.5153  130.9376  152.1515 H   0  0  0  0  0  0  0  0  0  0  0  0
  143.4377  131.7709  151.0194 H   0  0  0  0  0  0  0  0  0  0  0  0
  143.2704  134.2104  150.4633 H   0  0  0  0  0  0  0  0  0  0  0  0
  147.0025  134.9937  152.0504 H   0  0  0  0  0  0  0  0  0  0  0  0
  149.2625  136.6833  153.5829 H   0  0  0  0  0  0  0  0  0  0  0  0
  148.8960  138.0173  155.9827 H   0  0  0  0  0  0  0  0  0  0  0  0
  150.4434  137.2292  156.1543 H   0  0  0  0  0  0  0  0  0  0  0  0
  150.4866  138.5781  153.5907 H   0  0  0  0  0  0  0  0  0  0  0  0
  151.7140  139.4250  156.3268 H   0  0  0  0  0  0  0  0  0  0  0  0
  152.2594  139.9698  154.6574 H   0  0  0  0  0  0  0  0  0  0  0  0
  149.9693  140.9185  154.2218 H   0  0  0  0  0  0  0  0  0  0  0  0
  149.4283  140.3718  155.8926 H   0  0  0  0  0  0  0  0  0  0  0  0
  1  2  2  0  0  0  0
  2  3  1  0  0  0  0
  2 12  1  0  0  0  0
  3  4  1  0  0  0  0
  3 17  1  0  0  0  0
  4  5  1  0  0  0  0
  4 18  1  0  0  0  0
  4 19  1  0  0  0  0
  5  6  1  0  0  0  0
  5 20  1  0  0  0  0
  5 21  1  0  0  0  0
  6 11  1  0  0  0  0
  6  7  2  0  0  0  0
  7  8  1  0  0  0  0
  7 22  1  0  0  0  0
  8  9  2  0  0  0  0
  8 23  1  0  0  0  0
  9 10  1  0  0  0  0
  9 24  1  0  0  0  0
 10 11  2  0  0  0  0
 11 25  1  0  0  0  0
 12 13  1  0  0  0  0
 12 26  1  0  0  0  0
 13 14  1  0  0  0  0
 13 27  1  0  0  0  0
 13 28  1  0  0  0  0
 14 16  1  0  0  0  0
 14 15  1  0  0  0  0
 14 29  1  0  0  0  0
 15 16  1  0  0  0  0
 15 30  1  0  0  0  0
 15 31  1  0  0  0  0
 16 32  1  0  0  0  0
 16 33  1  0  0  0  0
M  END
> <s_m_source_file>
AV-unprocessed.smi

> <i_m_source_file_index>
1380

> <i_lp_mmshare_version>
43012

> <i_f3d_flags>
0

> <s_epik_input>
W0NIMl0xW0NIMl1bQ0hdMVtDSDJdW05IXUMoPU8pW05IXVtDSDJdW0NIMl1jMltjSF1bY0hdW2NIXW5bY0hdMg==

> <s_epik_cmdline>
J2VwaWtfcHl0aG9uJywgJy1waCcsICc3LjAnLCAnLXRuJywgJzgnLCAnLW1hJywgJzIwMCcsICctbWV0YWxfYmluZGluZycsICctaW1hZScsICc8aW5maWxlLm1hZT4nLCAnLW9tYWUnLCAnPG91dGZpbGUubWFlPic=

> <r_epik_Ionization_Penalty>
0.0144004

> <r_epik_Ionization_Penalty_Charging>
0

> <r_epik_Ionization_Penalty_Neutral>
0.0144004

> <r_epik_State_Penalty>
0.0112076

> <r_epik_Charging_Adjusted_Penalty>
0.0112076

> <i_epik_Tot_Q>
0

> <i_epik_Tot_abs_Q>
0

> <r_epik_Metal_State_Penalty>
0.0109423

> <b_epik_Metal_Only>
0

> <s_lp_Force_Field>
OPLS_2005

> <r_lp_Energy>
8.98924

> <b_lp_Chiralities_Consistent>
1

> <s_lp_Variant>
AV-unprocessed.smi:1380-1

> <Gold.Version>
5.8.1

> <Gold.Id.Protein>
6NUR|6NUR_protein|mol2

> <Gold.PLP.Fitness>
38.9362

> <Gold.PLP.PLP>
-27.5018

> <Gold.PLP.part.hbond>
-2.0000

> <Gold.PLP.part.metal>
0.0000

> <Gold.PLP.part.buried>
-1.8349

> <Gold.PLP.part.nonpolar>
-23.2111

> <Gold.PLP.part.repulsive>
0.2151

> <Gold.PLP.ligand.clash>
0.0000

> <Gold.PLP.ligand.torsion>
0.5672

> <Gold.PLP.Chemscore.Hbond>
2.0000

> <Gold.PLP.Chemscore.CHOScore>
1.9998

> <Gold.PLP.Chemscore.Metal>
0.0000

> <Gold.Chemscore.Hbonds>
donor molecule, donor type, donor heavy atom, donor atom, acceptor molecule, acceptor atom, score
      L1  H     3    17       P1  7948  1.00
      L1  H    12    26       P1  7948  1.00
      L1  C     9    24       P1 10186  1.00
      L1  C    11    25       P1  7948  1.00

> <Gold.PLP.Chemscore.Internal.Correction>
0.5692

> <Gold.Rescore>
     Score         DG    S(hbond)    S(metal)    S(lipo)     H(rot)  DE(clash)    DE(int)     intcor
     14.34     -14.95       1.76        0.00      67.90       1.70       0.04       0.57       ----

> <Gold.Chemscore.Fitness>
14.3442

> <Gold.Chemscore.DG>
-14.9532

> <Gold.Chemscore.ZeroCoef>
-5.4800

> <Gold.Chemscore.Hbond>
1.7610

> <Gold.Chemscore.Metal>
0.0000

> <Gold.Chemscore.Lipo>
67.9044

> <Gold.Chemscore.Internal_Hbond>
0.0000

> <Gold.Chemscore.DEClash>
0.0383

> <Gold.Chemscore.DEInternal>
0.5707

> <Gold.Chemscore.Rot>
1.7006

> <Gold.Chemscore.Internal.Correction>
   9.000000E+99

> <Gold.Chemscore.Hbonds>
donor molecule, donor type, donor heavy atom, donor atom, acceptor molecule, acceptor atom, score
      L1  H     3    17       P1  7948  0.53
      L1  H    12    26       P1  7948  0.94

> <Gold.Chemscore.Hbond.Weighted>
-5.8818

> <Gold.Chemscore.Metal.Weighted>
-0.0000

> <Gold.Chemscore.Lipo.Weighted>
-7.9448

> <Gold.Chemscore.Internal_Hbond.Weighted>
0.0000

> <Gold.Chemscore.DEClash.Weighted>
0.0383

> <Gold.Chemscore.DEInternal.Weighted>
0.5707

> <Gold.Chemscore.Rot.Weighted>
4.3534

> <Gold.Chemscore.Internal.Correction.Weighted>
   9.000000E+99

> <Gold.Protein.RotatedTorsions>
[ 6907 6896 6895 6894 ] final  135.99 input  -60.11 | X-H torsion
[ 7974 7965 7964 7962 ] final  142.02 input  175.53 | X-H torsion
[ 8008 7997 7996 7995 ] final -138.41 input   59.86 | X-H torsion
[ 10167 10162 10161 10158 ] final -169.36 input  -65.29 | X-H torsion
[ 10718 10713 10712 10709 ] final  -97.78 input   66.30 | X-H torsion
[ 10763 10752 10751 10750 ] final   20.59 input  -60.55 | X-H torsion
[ 11005 11000 10999 10996 ] final   76.11 input  -57.11 | X-H torsion

> <Gold.Protein.ActiveResidues>
 VAL166  LYS551  ARG553  GLY616  TRP617  ASP618  TYR619  PRO620  LYS621  CYS622 
 ASP623  PHE694  ASN695  SER759  ASP760  ASP761  ALA762  ILE779  LEU786  VAL792 
 PHE793  MET794  SER795  GLU796  ALA797  LYS798  CYS799  TRP800  GLU811  SER814 

> <Gold.Protein.RotatedAtoms>
  152.2943  133.5592  159.5576 H   0  0  0  0  0  0  0  0  0  0  0  0  # atno 6907 bound_to 6896
  150.7249  134.0384  159.3766 H   0  0  0  0  0  0  0  0  0  0  0  0  # atno 6908 bound_to 6896
  151.8288  135.0628  160.0485 H   0  0  0  0  0  0  0  0  0  0  0  0  # atno 6909 bound_to 6896
  144.9044  139.5378  143.5738 H   0  0  0  0  0  0  0  0  0  0  0  0  # atno 7974 bound_to 7965
  155.4279  140.0523  157.3021 H   0  0  0  0  0  0  0  0  0  0  0  0  # atno 8008 bound_to 7997
  154.4873  140.2106  155.9585 H   0  0  0  0  0  0  0  0  0  0  0  0  # atno 8009 bound_to 7997
  156.1293  140.3174  155.8329 H   0  0  0  0  0  0  0  0  0  0  0  0  # atno 8010 bound_to 7997
  139.5928  144.1177  152.1654 H   0  0  0  0  0  0  0  0  0  0  0  0  # atno 10167 bound_to 10162
  156.0091  130.5209  150.6425 H   0  0  0  0  0  0  0  0  0  0  0  0  # atno 10718 bound_to 10713
  153.1065  135.6686  153.9578 H   0  0  0  0  0  0  0  0  0  0  0  0  # atno 10763 bound_to 10752
  153.9133  135.3022  155.3450 H   0  0  0  0  0  0  0  0  0  0  0  0  # atno 10764 bound_to 10752
  154.7486  135.5046  153.9324 H   0  0  0  0  0  0  0  0  0  0  0  0  # atno 10765 bound_to 10752
  139.9313  134.7573  156.1354 H   0  0  0  0  0  0  0  0  0  0  0  0  # atno 11005 bound_to 11000
  146.3126  139.7800  142.9008 LP  0  0  0  0  0  0  0  0  0  0  0  0  # atno 17320 bound_to 7965
  145.3561  141.0317  143.3311 LP  0  0  0  0  0  0  0  0  0  0  0  0  # atno 17321 bound_to 7965
  140.0755  144.5744  150.7160 LP  0  0  0  0  0  0  0  0  0  0  0  0  # atno 17342 bound_to 10162
  140.7187  143.2568  151.4350 LP  0  0  0  0  0  0  0  0  0  0  0  0  # atno 17343 bound_to 10162
  157.4202  131.0836  151.1138 LP  0  0  0  0  0  0  0  0  0  0  0  0  # atno 17370 bound_to 10713
  157.1742  130.6281  149.5650 LP  0  0  0  0  0  0  0  0  0  0  0  0  # atno 17371 bound_to 10713
  141.0903  133.6717  156.2526 LP  0  0  0  0  0  0  0  0  0  0  0  0  # atno 17394 bound_to 11000
  140.6195  134.5376  157.5545 LP  0  0  0  0  0  0  0  0  0  0  0  0  # atno 17395 bound_to 11000

$$$$
