AV-unprocessed.smi:516|AV-procd|sdf|2784|dock8
  -GOLD-   2262023253D 1   1.00000     0.00000
 Structure written by MMmdl.
 44 46  0  0  0  0  0  0  0  0  1 V2000
  151.0065  137.1335  154.7235 C   0  0  0  0  0  0  0  0  0  0  0  0
  151.9427  137.1834  155.7855 O   0  0  0  0  0  0  0  0  0  0  0  0
  151.7049  138.2657  156.6687 C   0  0  0  0  0  0  0  0  0  0  0  0
  151.9058  139.5795  155.9043 C   0  0  0  0  0  0  0  0  0  0  0  0
  151.5628  140.7366  156.7213 N   0  0  0  0  0  0  0  0  0  0  0  0
  150.6797  141.7268  156.4303 C   0  0  0  0  0  0  0  0  0  0  0  0
  149.8978  141.7715  155.1518 C   0  0  0  0  0  0  0  0  0  0  0  0
  148.8686  140.7386  155.0500 N   0  0  0  0  0  0  0  0  0  0  0  0
  147.9835  140.7094  156.2124 C   0  0  0  0  0  0  0  0  0  0  0  0
  146.8959  139.6294  156.0755 C   0  0  0  0  0  0  0  0  0  0  0  0
  146.1602  139.8390  154.8744 O   0  0  0  0  0  0  0  0  0  0  0  0
  146.9859  139.8275  153.7144 C   0  0  0  0  0  0  0  0  0  0  0  0
  148.0690  140.9119  153.8435 C   0  0  0  0  0  0  0  0  0  0  0  0
  150.5729  142.6649  157.3776 N   0  0  0  0  0  0  0  0  0  0  0  0
  151.4651  142.2338  158.3484 C   0  0  0  0  0  0  0  0  0  0  0  0
  152.0741  141.0832  157.9700 C   0  0  0  0  0  0  0  0  0  0  0  0
  153.0809  140.4124  158.8005 C   0  0  0  0  0  0  0  0  0  0  0  0
  153.6521  139.3761  158.4681 O   0  0  0  0  0  0  0  0  0  0  0  0
  153.3182  141.0584  159.9682 N   0  0  0  0  0  0  0  0  0  0  0  0
  152.7373  142.2151  160.4135 C   0  0  0  0  0  0  0  0  0  0  0  0
  153.0618  142.6780  161.5066 O   0  0  0  0  0  0  0  0  0  0  0  0
  151.8038  142.8129  159.6025 N   0  0  0  0  0  0  0  0  0  0  0  0
  151.1230  144.0514  159.9851 C   0  0  0  0  0  0  0  0  0  0  0  0
  154.0036  140.6393  160.5795 H   0  0  0  0  0  0  0  0  0  0  0  0
  151.2321  136.2865  154.0757 H   0  0  0  0  0  0  0  0  0  0  0  0
  151.0480  138.0403  154.1186 H   0  0  0  0  0  0  0  0  0  0  0  0
  149.9902  137.0090  155.0993 H   0  0  0  0  0  0  0  0  0  0  0  0
  150.6892  138.2099  157.0636 H   0  0  0  0  0  0  0  0  0  0  0  0
  152.3918  138.2142  157.5150 H   0  0  0  0  0  0  0  0  0  0  0  0
  152.9397  139.6629  155.5713 H   0  0  0  0  0  0  0  0  0  0  0  0
  151.3029  139.5923  154.9967 H   0  0  0  0  0  0  0  0  0  0  0  0
  149.4476  142.7600  155.0472 H   0  0  0  0  0  0  0  0  0  0  0  0
  150.6033  141.6715  154.3262 H   0  0  0  0  0  0  0  0  0  0  0  0
  148.5569  140.5192  157.1200 H   0  0  0  0  0  0  0  0  0  0  0  0
  147.5098  141.6838  156.3411 H   0  0  0  0  0  0  0  0  0  0  0  0
  147.3406  138.6330  156.0679 H   0  0  0  0  0  0  0  0  0  0  0  0
  146.2124  139.6694  156.9237 H   0  0  0  0  0  0  0  0  0  0  0  0
  147.4385  138.8425  153.5904 H   0  0  0  0  0  0  0  0  0  0  0  0
  146.3685  140.0103  152.8349 H   0  0  0  0  0  0  0  0  0  0  0  0
  147.5963  141.8954  153.8510 H   0  0  0  0  0  0  0  0  0  0  0  0
  148.7140  140.8823  152.9647 H   0  0  0  0  0  0  0  0  0  0  0  0
  151.4269  144.4448  160.9557 H   0  0  0  0  0  0  0  0  0  0  0  0
  150.0458  143.8862  160.0235 H   0  0  0  0  0  0  0  0  0  0  0  0
  151.3172  144.8268  159.2434 H   0  0  0  0  0  0  0  0  0  0  0  0
  1  2  1  0  0  0  0
  1 25  1  0  0  0  0
  1 26  1  0  0  0  0
  1 27  1  0  0  0  0
  2  3  1  0  0  0  0
  3  4  1  0  0  0  0
  3 28  1  0  0  0  0
  3 29  1  0  0  0  0
  4  5  1  0  0  0  0
  4 30  1  0  0  0  0
  4 31  1  0  0  0  0
  5 16  1  0  0  0  0
  5  6  1  0  0  0  0
  6  7  1  0  0  0  0
  6 14  2  0  0  0  0
  7  8  1  0  0  0  0
  7 32  1  0  0  0  0
  7 33  1  0  0  0  0
  8 13  1  0  0  0  0
  8  9  1  0  0  0  0
  9 10  1  0  0  0  0
  9 34  1  0  0  0  0
  9 35  1  0  0  0  0
 10 11  1  0  0  0  0
 10 36  1  0  0  0  0
 10 37  1  0  0  0  0
 11 12  1  0  0  0  0
 12 13  1  0  0  0  0
 12 38  1  0  0  0  0
 12 39  1  0  0  0  0
 13 40  1  0  0  0  0
 13 41  1  0  0  0  0
 14 15  1  0  0  0  0
 15 22  1  0  0  0  0
 15 16  2  0  0  0  0
 16 17  1  0  0  0  0
 17 18  2  0  0  0  0
 17 19  1  0  0  0  0
 19 24  1  0  0  0  0
 19 20  1  0  0  0  0
 20 21  2  0  0  0  0
 20 22  1  0  0  0  0
 22 23  1  0  0  0  0
 23 42  1  0  0  0  0
 23 43  1  0  0  0  0
 23 44  1  0  0  0  0
M  END
> <s_m_source_file>
AV-unprocessed.smi

> <i_m_source_file_index>
516

> <i_lp_mmshare_version>
43012

> <i_f3d_flags>
0

> <s_epik_input>
W0NIM11uMWMoPU8pW25IXWMoPU8pYyhjMTIpbihbQ0gyXVtDSDJdT1tDSDNdKWMobjIpW0NIMl1OM1tDSDJdW0NIMl1PW0NIMl1bQ0gyXTM=

> <s_epik_cmdline>
J2VwaWtfcHl0aG9uJywgJy1waCcsICc3LjAnLCAnLXRuJywgJzgnLCAnLW1hJywgJzIwMCcsICctbWV0YWxfYmluZGluZycsICctaW1hZScsICc8aW5maWxlLm1hZT4nLCAnLW9tYWUnLCAnPG91dGZpbGUubWFlPic=

> <r_epik_Ionization_Penalty>
0.0972048

> <r_epik_Ionization_Penalty_Charging>
0.000199653

> <r_epik_Ionization_Penalty_Neutral>
0.0970052

> <r_epik_State_Penalty>
0.0871068

> <r_epik_Charging_Adjusted_Penalty>
0.0873064

> <i_epik_Tot_Q>
0

> <i_epik_Tot_abs_Q>
0

> <r_epik_Metal_State_Penalty>
0.236525

> <b_epik_Metal_Only>
0

> <s_lp_Force_Field>
OPLS_2005

> <r_lp_Energy>
41.4517

> <b_lp_Chiralities_Consistent>
1

> <s_lp_Variant>
AV-unprocessed.smi:516-1

> <Gold.Version>
5.8.1

> <Gold.Id.Protein>
6NUR|6NUR_protein|mol2

> <Gold.PLP.Fitness>
38.3719

> <Gold.PLP.PLP>
-34.4358

> <Gold.PLP.part.hbond>
-1.7770

> <Gold.PLP.part.metal>
0.0000

> <Gold.PLP.part.buried>
-4.5255

> <Gold.PLP.part.nonpolar>
-28.7407

> <Gold.PLP.part.repulsive>
0.4664

> <Gold.PLP.ligand.clash>
0.0000

> <Gold.PLP.ligand.torsion>
0.1425

> <Gold.PLP.Chemscore.Hbond>
1.4031

> <Gold.PLP.Chemscore.CHOScore>
0.0000

> <Gold.PLP.Chemscore.Metal>
0.0000

> <Gold.Chemscore.Hbonds>
donor molecule, donor type, donor heavy atom, donor atom, acceptor molecule, acceptor atom, score
      P1  H  7997  8008       L1    18  0.95
      P1  H 10752 10765       L1     2  0.38

> <Gold.PLP.Chemscore.Internal.Correction>
0.0117

> <Gold.Rescore>
     Score         DG    S(hbond)    S(metal)    S(lipo)     H(rot)  DE(clash)    DE(int)     intcor
      8.53     -10.08       0.92        0.00      57.74       2.04       0.14       1.41       ----

> <Gold.Chemscore.Fitness>
8.5297

> <Gold.Chemscore.DG>
-10.0827

> <Gold.Chemscore.ZeroCoef>
-5.4800

> <Gold.Chemscore.Hbond>
0.9218

> <Gold.Chemscore.Metal>
0.0000

> <Gold.Chemscore.Lipo>
57.7399

> <Gold.Chemscore.Internal_Hbond>
0.0000

> <Gold.Chemscore.DEClash>
0.1439

> <Gold.Chemscore.DEInternal>
1.4091

> <Gold.Chemscore.Rot>
2.0437

> <Gold.Chemscore.Internal.Correction>
   9.000000E+99

> <Gold.Chemscore.Hbonds>
donor molecule, donor type, donor heavy atom, donor atom, acceptor molecule, acceptor atom, score
      P1  H  7997  8008       L1    18  0.22
      P1  H 10752 10765       L1     2  0.04

> <Gold.Chemscore.Hbond.Weighted>
-3.0790

> <Gold.Chemscore.Metal.Weighted>
-0.0000

> <Gold.Chemscore.Lipo.Weighted>
-6.7556

> <Gold.Chemscore.Internal_Hbond.Weighted>
0.0000

> <Gold.Chemscore.DEClash.Weighted>
0.1439

> <Gold.Chemscore.DEInternal.Weighted>
1.4091

> <Gold.Chemscore.Rot.Weighted>
5.2319

> <Gold.Chemscore.Internal.Correction.Weighted>
   9.000000E+99

> <Gold.Protein.RotatedTorsions>
[ 6907 6896 6895 6894 ] final -171.20 input  -60.11 | X-H torsion
[ 7974 7965 7964 7962 ] final  -68.42 input  175.53 | X-H torsion
[ 8008 7997 7996 7995 ] final  -90.30 input   59.86 | X-H torsion
[ 10167 10162 10161 10158 ] final -157.03 input  -65.29 | X-H torsion
[ 10718 10713 10712 10709 ] final  153.90 input   66.30 | X-H torsion
[ 10763 10752 10751 10750 ] final -151.79 input  -60.55 | X-H torsion
[ 11005 11000 10999 10996 ] final   12.52 input  -57.11 | X-H torsion

> <Gold.Protein.ActiveResidues>
 VAL166  LYS551  ARG553  GLY616  TRP617  ASP618  TYR619  PRO620  LYS621  CYS622 
 ASP623  PHE694  ASN695  SER759  ASP760  ASP761  ALA762  ILE779  LEU786  VAL792 
 PHE793  MET794  SER795  GLU796  ALA797  LYS798  CYS799  TRP800  GLU811  SER814 

> <Gold.Protein.RotatedAtoms>
  151.5200  133.3468  159.2899 H   0  0  0  0  0  0  0  0  0  0  0  0  # atno 6907 bound_to 6896
  150.8658  134.8024  159.7129 H   0  0  0  0  0  0  0  0  0  0  0  0  # atno 6908 bound_to 6896
  152.4663  134.5076  159.9796 H   0  0  0  0  0  0  0  0  0  0  0  0  # atno 6909 bound_to 6896
  145.7167  140.9056  143.0652 H   0  0  0  0  0  0  0  0  0  0  0  0  # atno 7974 bound_to 7965
  154.6969  140.0532  157.0419 H   0  0  0  0  0  0  0  0  0  0  0  0  # atno 8008 bound_to 7997
  155.0739  140.3202  155.4603 H   0  0  0  0  0  0  0  0  0  0  0  0  # atno 8009 bound_to 7997
  156.2747  140.2077  156.5866 H   0  0  0  0  0  0  0  0  0  0  0  0  # atno 8010 bound_to 7997
  139.6803  143.9593  152.2333 H   0  0  0  0  0  0  0  0  0  0  0  0  # atno 10167 bound_to 10162
  157.2387  131.0754  151.1806 H   0  0  0  0  0  0  0  0  0  0  0  0  # atno 10718 bound_to 10713
  154.8035  135.3251  154.7490 H   0  0  0  0  0  0  0  0  0  0  0  0  # atno 10763 bound_to 10752
  153.8153  135.6892  153.4839 H   0  0  0  0  0  0  0  0  0  0  0  0  # atno 10764 bound_to 10752
  153.1766  135.4602  154.9917 H   0  0  0  0  0  0  0  0  0  0  0  0  # atno 10765 bound_to 10752
  140.4910  134.0840  155.7771 H   0  0  0  0  0  0  0  0  0  0  0  0  # atno 11005 bound_to 11000
  144.6927  139.9147  143.7465 LP  0  0  0  0  0  0  0  0  0  0  0  0  # atno 17320 bound_to 7965
  146.0663  139.3654  143.0550 LP  0  0  0  0  0  0  0  0  0  0  0  0  # atno 17321 bound_to 7965
  139.9381  144.6699  150.8294 LP  0  0  0  0  0  0  0  0  0  0  0  0  # atno 17342 bound_to 10162
  140.7650  143.3263  151.2509 LP  0  0  0  0  0  0  0  0  0  0  0  0  # atno 17343 bound_to 10162
  157.3401  130.7029  149.6376 LP  0  0  0  0  0  0  0  0  0  0  0  0  # atno 17370 bound_to 10713
  155.9671  130.4282  150.4778 LP  0  0  0  0  0  0  0  0  0  0  0  0  # atno 17371 bound_to 10713
  141.1484  133.9014  157.2159 LP  0  0  0  0  0  0  0  0  0  0  0  0  # atno 17394 bound_to 11000
  139.9769  135.0111  156.9653 LP  0  0  0  0  0  0  0  0  0  0  0  0  # atno 17395 bound_to 11000

$$$$
