AV-unprocessed.smi:1889|AV-procd|sdf|7662|dock3
  -GOLD-   22720 9393D 1   1.00000     0.00000
 Structure written by MMmdl.
 35 36  0  0  0  0  0  0  0  0  2 V2000
  146.9292  135.6681  161.9727 C   0  0  0  0  0  0  0  0  0  0  0  0
  147.9316  135.6717  160.8135 C   0  0  0  0  0  0  0  0  0  0  0  0
  147.8088  136.9227  159.9323 C   0  0  0  0  0  0  0  0  0  0  0  0
  149.0066  137.1335  159.0677 C   0  0  0  0  0  0  0  0  0  0  0  0
  150.0538  136.3046  159.0661 N   0  0  0  0  0  0  0  0  0  0  0  0
  151.0536  136.7273  158.2026 N   0  0  0  0  0  0  0  0  0  0  0  0
  150.7610  137.8792  157.5825 C   0  0  0  0  0  0  0  0  0  0  0  0
  151.5987  138.4561  156.7050 N   0  5  0  0  0  0  0  0  0  0  0  0
  151.4334  139.7550  156.3663 C   0  0  0  0  0  0  0  0  0  0  0  0
  151.3203  140.2045  155.2233 O   0  0  0  0  0  0  0  0  0  0  0  0
  151.3978  140.5864  157.4160 N   0  0  0  0  0  0  0  0  0  0  0  0
  151.2270  142.0320  157.3371 C   0  0  0  0  0  0  0  0  0  0  0  0
  152.1867  142.7561  158.2960 C   0  0  1  0  0  0  0  0  0  0  0  0
  152.0123  144.2703  158.3197 C   0  0  0  0  0  0  0  0  0  0  0  0
  152.2079  144.6546  159.7904 C   0  0  0  0  0  0  0  0  0  0  0  0
  152.6299  143.4649  160.4417 O   0  0  0  0  0  0  0  0  0  0  0  0
  152.0229  142.3762  159.7671 C   0  0  0  0  0  0  0  0  0  0  0  0
  149.1803  138.5292  158.0173 S   0  0  0  0  0  0  0  0  0  0  0  0
  147.0374  134.7669  162.5764 H   0  0  0  0  0  0  0  0  0  0  0  0
  145.9032  135.7022  161.6058 H   0  0  0  0  0  0  0  0  0  0  0  0
  147.0810  136.5271  162.6267 H   0  0  0  0  0  0  0  0  0  0  0  0
  148.9440  135.6043  161.2138 H   0  0  0  0  0  0  0  0  0  0  0  0
  147.7804  134.7796  160.2045 H   0  0  0  0  0  0  0  0  0  0  0  0
  146.9257  136.8493  159.2963 H   0  0  0  0  0  0  0  0  0  0  0  0
  147.6719  137.8074  160.5550 H   0  0  0  0  0  0  0  0  0  0  0  0
  151.4938  140.1824  158.3360 H   0  0  0  0  0  0  0  0  0  0  0  0
  151.4115  142.3555  156.3118 H   0  0  0  0  0  0  0  0  0  0  0  0
  150.1936  142.2904  157.5743 H   0  0  0  0  0  0  0  0  0  0  0  0
  153.2160  142.5403  158.0048 H   0  0  0  0  0  0  0  0  0  0  0  0
  152.7417  144.7574  157.6721 H   0  0  0  0  0  0  0  0  0  0  0  0
  151.0186  144.5704  157.9840 H   0  0  0  0  0  0  0  0  0  0  0  0
  152.9415  145.4505  159.9209 H   0  0  0  0  0  0  0  0  0  0  0  0
  151.2649  144.9870  160.2266 H   0  0  0  0  0  0  0  0  0  0  0  0
  150.9701  142.3104  160.0473 H   0  0  0  0  0  0  0  0  0  0  0  0
  152.5069  141.4314  160.0158 H   0  0  0  0  0  0  0  0  0  0  0  0
  1  2  1  0  0  0  0
  1 19  1  0  0  0  0
  1 20  1  0  0  0  0
  1 21  1  0  0  0  0
  2  3  1  0  0  0  0
  2 22  1  0  0  0  0
  2 23  1  0  0  0  0
  3  4  1  0  0  0  0
  3 24  1  0  0  0  0
  3 25  1  0  0  0  0
  4 18  1  0  0  0  0
  4  5  2  0  0  0  0
  5  6  1  0  0  0  0
  6  7  2  0  0  0  0
  7  8  1  0  0  0  0
  7 18  1  0  0  0  0
  8  9  1  0  0  0  0
  9 10  2  0  0  0  0
  9 11  1  0  0  0  0
 11 12  1  0  0  0  0
 11 26  1  0  0  0  0
 12 13  1  0  0  0  0
 12 27  1  0  0  0  0
 12 28  1  0  0  0  0
 13 17  1  0  0  0  0
 13 14  1  0  0  0  0
 13 29  1  0  0  0  0
 14 15  1  0  0  0  0
 14 30  1  0  0  0  0
 14 31  1  0  0  0  0
 15 16  1  0  0  0  0
 15 32  1  0  0  0  0
 15 33  1  0  0  0  0
 16 17  1  0  0  0  0
 17 34  1  0  0  0  0
 17 35  1  0  0  0  0
M  CHG  1   8  -1
M  END
> <s_m_source_file>
AV-unprocessed.smi

> <i_m_source_file_index>
1889

> <i_lp_mmshare_version>
43012

> <i_f3d_flags>
0

> <s_epik_input>
W0NIM11bQ0gyXVtDSDJdYzFubmMoczEpW05IXUMoPU8pW05IXVtDSDJdW0NAQEhdMltDSDJdW0NIMl1PW0NIMl0y

> <s_epik_cmdline>
J2VwaWtfcHl0aG9uJywgJy1waCcsICc3LjAnLCAnLXRuJywgJzgnLCAnLW1hJywgJzIwMCcsICctbWV0YWxfYmluZGluZycsICctaW1hZScsICc8aW5maWxlLm1hZT4nLCAnLW9tYWUnLCAnPG91dGZpbGUubWFlPic=

> <r_lp_tautomer_probability>
1

> <r_epik_Ionization_Penalty>
4.29669

> <r_epik_Ionization_Penalty_Charging>
4.28522

> <r_epik_Ionization_Penalty_Neutral>
0.0114689

> <r_epik_State_Penalty>
4.28479

> <r_epik_Charging_Adjusted_Penalty>
8.57002

> <i_epik_Tot_Q>
-1

> <i_epik_Tot_abs_Q>
1

> <r_epik_Metal_State_Penalty>
0.72177

> <b_epik_Metal_Only>
1

> <s_lp_Force_Field>
OPLS_2005

> <r_lp_Energy>
12.2609

> <b_lp_Chiralities_Consistent>
1

> <s_lp_Variant>
AV-unprocessed.smi:1889-4

> <Gold.Version>
5.8.1

> <Gold.Id.Protein>
6NUR|6NUR_protein|mol2

> <Gold.PLP.Fitness>
38.3621

> <Gold.PLP.PLP>
-33.6954

> <Gold.PLP.part.hbond>
-2.8269

> <Gold.PLP.part.metal>
0.0000

> <Gold.PLP.part.buried>
-6.0223

> <Gold.PLP.part.nonpolar>
-25.1482

> <Gold.PLP.part.repulsive>
0.1207

> <Gold.PLP.ligand.clash>
0.0000

> <Gold.PLP.ligand.torsion>
0.7489

> <Gold.PLP.Chemscore.Hbond>
2.0000

> <Gold.PLP.Chemscore.CHOScore>
0.0000

> <Gold.PLP.Chemscore.Metal>
0.0000

> <Gold.Chemscore.Hbonds>
donor molecule, donor type, donor heavy atom, donor atom, acceptor molecule, acceptor atom, score
      P1  H  6896  6907       L1     5  1.00
      P1  H  7989  7998       L1    10  1.00

> <Gold.PLP.Chemscore.Internal.Correction>
0.1645

> <Gold.Rescore>
     Score         DG    S(hbond)    S(metal)    S(lipo)     H(rot)  DE(clash)    DE(int)     intcor
     15.92     -16.62       1.78        0.00      79.17       1.59       0.01       0.69       ----

> <Gold.Chemscore.Fitness>
15.9183

> <Gold.Chemscore.DG>
-16.6189

> <Gold.Chemscore.ZeroCoef>
-5.4800

> <Gold.Chemscore.Hbond>
1.7821

> <Gold.Chemscore.Metal>
0.0000

> <Gold.Chemscore.Lipo>
79.1692

> <Gold.Chemscore.Internal_Hbond>
0.0000

> <Gold.Chemscore.DEClash>
0.0077

> <Gold.Chemscore.DEInternal>
0.6929

> <Gold.Chemscore.Rot>
1.5922

> <Gold.Chemscore.Internal.Correction>
   9.000000E+99

> <Gold.Chemscore.Hbonds>
donor molecule, donor type, donor heavy atom, donor atom, acceptor molecule, acceptor atom, score
      P1  H  6896  6907       L1     5  0.25
      P1  H  7989  7998       L1    10  0.97

> <Gold.Chemscore.Hbond.Weighted>
-5.9522

> <Gold.Chemscore.Metal.Weighted>
-0.0000

> <Gold.Chemscore.Lipo.Weighted>
-9.2628

> <Gold.Chemscore.Internal_Hbond.Weighted>
0.0000

> <Gold.Chemscore.DEClash.Weighted>
0.0077

> <Gold.Chemscore.DEInternal.Weighted>
0.6929

> <Gold.Chemscore.Rot.Weighted>
4.0761

> <Gold.Chemscore.Internal.Correction.Weighted>
   9.000000E+99

> <Gold.Protein.RotatedTorsions>
[ 6907 6896 6895 6894 ] final  -56.29 input  -60.11 | X-H torsion
[ 7974 7965 7964 7962 ] final  -83.94 input  175.53 | X-H torsion
[ 8008 7997 7996 7995 ] final  176.32 input   59.86 | X-H torsion
[ 10167 10162 10161 10158 ] final  128.50 input  -65.29 | X-H torsion
[ 10718 10713 10712 10709 ] final  -46.00 input   66.30 | X-H torsion
[ 10763 10752 10751 10750 ] final  145.85 input  -60.55 | X-H torsion
[ 11005 11000 10999 10996 ] final  112.15 input  -57.11 | X-H torsion

> <Gold.Protein.ActiveResidues>
 VAL166  LYS551  ARG553  GLY616  TRP617  ASP618  TYR619  PRO620  LYS621  CYS622 
 ASP623  PHE694  ASN695  SER759  ASP760  ASP761  ALA762  ILE779  LEU786  VAL792 
 PHE793  MET794  SER795  GLU796  ALA797  LYS798  CYS799  TRP800  GLU811  SER814 

> <Gold.Protein.RotatedAtoms>
  150.8179  134.7372  159.6746 H   0  0  0  0  0  0  0  0  0  0  0  0  # atno 6907 bound_to 6896
  152.4297  134.5798  159.9954 H   0  0  0  0  0  0  0  0  0  0  0  0  # atno 6908 bound_to 6896
  151.5990  133.3321  159.3079 H   0  0  0  0  0  0  0  0  0  0  0  0  # atno 6909 bound_to 6896
  145.5133  140.9538  143.1695 H   0  0  0  0  0  0  0  0  0  0  0  0  # atno 7974 bound_to 7965
  156.0777  140.1386  156.9751 H   0  0  0  0  0  0  0  0  0  0  0  0  # atno 8008 bound_to 7997
  154.4567  140.0958  156.6827 H   0  0  0  0  0  0  0  0  0  0  0  0  # atno 8009 bound_to 7997
  155.5126  140.3454  155.4393 H   0  0  0  0  0  0  0  0  0  0  0  0  # atno 8010 bound_to 7997
  139.5524  144.6823  151.4283 H   0  0  0  0  0  0  0  0  0  0  0  0  # atno 10167 bound_to 10162
  156.2227  130.4167  149.8973 H   0  0  0  0  0  0  0  0  0  0  0  0  # atno 10718 bound_to 10713
  154.0122  135.2913  155.3391 H   0  0  0  0  0  0  0  0  0  0  0  0  # atno 10763 bound_to 10752
  154.7096  135.5155  153.8650 H   0  0  0  0  0  0  0  0  0  0  0  0  # atno 10764 bound_to 10752
  153.0718  135.6650  154.0353 H   0  0  0  0  0  0  0  0  0  0  0  0  # atno 10765 bound_to 10752
  139.8920  134.9523  156.6541 H   0  0  0  0  0  0  0  0  0  0  0  0  # atno 11005 bound_to 11000
  144.7715  139.6724  143.7192 LP  0  0  0  0  0  0  0  0  0  0  0  0  # atno 17320 bound_to 7965
  146.2152  139.5537  142.9654 LP  0  0  0  0  0  0  0  0  0  0  0  0  # atno 17321 bound_to 7965
  140.6790  143.8125  150.7096 LP  0  0  0  0  0  0  0  0  0  0  0  0  # atno 17342 bound_to 10162
  140.1573  143.4306  152.2091 LP  0  0  0  0  0  0  0  0  0  0  0  0  # atno 17343 bound_to 10162
  156.6614  130.8783  151.3548 LP  0  0  0  0  0  0  0  0  0  0  0  0  # atno 17370 bound_to 10713
  157.7095  130.9424  150.1042 LP  0  0  0  0  0  0  0  0  0  0  0  0  # atno 17371 bound_to 10713
  140.7498  133.8907  155.8338 LP  0  0  0  0  0  0  0  0  0  0  0  0  # atno 17394 bound_to 11000
  141.0010  134.1150  157.4317 LP  0  0  0  0  0  0  0  0  0  0  0  0  # atno 17395 bound_to 11000

$$$$
