AV-unprocessed.smi:1841|AV-procd|sdf|7497|dock5
  -GOLD-   22720 9203D 1   1.00000     0.00000
 Structure written by MMmdl.
 40 41  0  0  0  0  0  0  0  0  1 V2000
  145.1740  135.9327  151.4560 C   0  0  0  0  0  0  0  0  0  0  0  0
  145.5380  137.1386  152.1045 O   0  0  0  0  0  0  0  0  0  0  0  0
  146.2873  138.0022  151.2659 C   0  0  0  0  0  0  0  0  0  0  0  0
  146.7962  139.1865  152.0931 C   0  0  0  0  0  0  0  0  0  0  0  0
  147.6098  138.6890  153.1511 O   0  0  0  0  0  0  0  0  0  0  0  0
  148.3020  139.5914  153.9319 C   0  0  0  0  0  0  0  0  0  0  0  0
  149.5164  139.1818  154.5171 C   0  0  0  0  0  0  0  0  0  0  0  0
  150.2272  140.0929  155.3212 C   0  0  0  0  0  0  0  0  0  0  0  0
  149.6937  141.3883  155.5225 C   0  0  0  0  0  0  0  0  0  0  0  0
  150.3198  142.4000  156.2997 N   0  0  0  0  0  0  0  0  0  0  0  0
  151.2288  142.2604  157.2826 C   0  0  0  0  0  0  0  0  0  0  0  0
  151.6662  141.1808  157.6810 O   0  0  0  0  0  0  0  0  0  0  0  0
  151.7093  143.5638  157.9417 C   0  0  1  0  0  0  0  0  0  0  0  0
  150.5294  144.3695  158.5237 C   0  0  0  0  0  0  0  0  0  0  0  0
  150.7438  144.3040  160.0266 C   0  0  0  0  0  0  0  0  0  0  0  0
  149.9352  144.7541  160.8370 O   0  0  0  0  0  0  0  0  0  0  0  0
  151.8961  143.6947  160.3190 N   0  0  0  0  0  0  0  0  0  0  0  0
  152.4059  143.4305  161.6577 C   0  0  0  0  0  0  0  0  0  0  0  0
  152.6505  143.3065  159.1397 C   0  0  0  0  0  0  0  0  0  0  0  0
  148.4804  141.7053  154.8770 C   0  0  0  0  0  0  0  0  0  0  0  0
  147.7939  140.8366  154.1052 N   0  0  0  0  0  0  0  0  0  0  0  0
  144.5970  135.3094  152.1390 H   0  0  0  0  0  0  0  0  0  0  0  0
  146.0561  135.3688  151.1497 H   0  0  0  0  0  0  0  0  0  0  0  0
  144.5592  136.1274  150.5764 H   0  0  0  0  0  0  0  0  0  0  0  0
  147.1218  137.4734  150.8028 H   0  0  0  0  0  0  0  0  0  0  0  0
  145.6447  138.3680  150.4639 H   0  0  0  0  0  0  0  0  0  0  0  0
  147.3934  139.8399  151.4549 H   0  0  0  0  0  0  0  0  0  0  0  0
  145.9545  139.7668  152.4751 H   0  0  0  0  0  0  0  0  0  0  0  0
  149.8974  138.1849  154.3504 H   0  0  0  0  0  0  0  0  0  0  0  0
  151.1663  139.7846  155.7536 H   0  0  0  0  0  0  0  0  0  0  0  0
  149.9879  143.3393  156.1349 H   0  0  0  0  0  0  0  0  0  0  0  0
  152.2316  144.1679  157.1976 H   0  0  0  0  0  0  0  0  0  0  0  0
  150.5630  145.4090  158.1964 H   0  0  0  0  0  0  0  0  0  0  0  0
  149.5499  143.9659  158.2612 H   0  0  0  0  0  0  0  0  0  0  0  0
  152.3368  144.3211  162.2840 H   0  0  0  0  0  0  0  0  0  0  0  0
  153.4515  143.1230  161.6243 H   0  0  0  0  0  0  0  0  0  0  0  0
  151.8316  142.6329  162.1297 H   0  0  0  0  0  0  0  0  0  0  0  0
  152.9717  142.2660  159.2172 H   0  0  0  0  0  0  0  0  0  0  0  0
  153.5477  143.9228  159.0664 H   0  0  0  0  0  0  0  0  0  0  0  0
  148.0407  142.6859  154.9876 H   0  0  0  0  0  0  0  0  0  0  0  0
  1  2  1  0  0  0  0
  1 22  1  0  0  0  0
  1 23  1  0  0  0  0
  1 24  1  0  0  0  0
  2  3  1  0  0  0  0
  3  4  1  0  0  0  0
  3 25  1  0  0  0  0
  3 26  1  0  0  0  0
  4  5  1  0  0  0  0
  4 27  1  0  0  0  0
  4 28  1  0  0  0  0
  5  6  1  0  0  0  0
  6 21  1  0  0  0  0
  6  7  2  0  0  0  0
  7  8  1  0  0  0  0
  7 29  1  0  0  0  0
  8  9  2  0  0  0  0
  8 30  1  0  0  0  0
  9 10  1  0  0  0  0
  9 20  1  0  0  0  0
 10 11  1  0  0  0  0
 10 31  1  0  0  0  0
 11 12  2  0  0  0  0
 11 13  1  0  0  0  0
 13 19  1  0  0  0  0
 13 14  1  0  0  0  0
 13 32  1  0  0  0  0
 14 15  1  0  0  0  0
 14 33  1  0  0  0  0
 14 34  1  0  0  0  0
 15 16  2  0  0  0  0
 15 17  1  0  0  0  0
 17 18  1  0  0  0  0
 17 19  1  0  0  0  0
 18 35  1  0  0  0  0
 18 36  1  0  0  0  0
 18 37  1  0  0  0  0
 19 38  1  0  0  0  0
 19 39  1  0  0  0  0
 20 21  2  0  0  0  0
 20 40  1  0  0  0  0
M  END
> <s_m_source_file>
AV-unprocessed.smi

> <i_m_source_file_index>
1841

> <i_lp_mmshare_version>
43012

> <i_f3d_flags>
0

> <s_epik_input>
W0NIM11PW0NIMl1bQ0gyXU9jMVtjSF1bY0hdYyhbY0hdbjEpW05IXUMoPU8pW0NAQEhdMltDSDJdQyg9TylOKFtDSDNdKVtDSDJdMg==

> <s_epik_cmdline>
J2VwaWtfcHl0aG9uJywgJy1waCcsICc3LjAnLCAnLXRuJywgJzgnLCAnLW1hJywgJzIwMCcsICctbWV0YWxfYmluZGluZycsICctaW1hZScsICc8aW5maWxlLm1hZT4nLCAnLW9tYWUnLCAnPG91dGZpbGUubWFlPic=

> <r_lp_tautomer_probability>
1

> <r_epik_Ionization_Penalty>
1.70347e-05

> <r_epik_Ionization_Penalty_Charging>
0

> <r_epik_Ionization_Penalty_Neutral>
1.70347e-05

> <r_epik_State_Penalty>
-0

> <r_epik_Charging_Adjusted_Penalty>
0

> <i_epik_Tot_Q>
0

> <i_epik_Tot_abs_Q>
0

> <r_epik_Metal_State_Penalty>
-0

> <b_epik_Metal_Only>
0

> <s_lp_Force_Field>
OPLS_2005

> <r_lp_Energy>
17.1342

> <b_lp_Chiralities_Consistent>
1

> <s_lp_Variant>
AV-unprocessed.smi:1841-2

> <Gold.Version>
5.8.1

> <Gold.Id.Protein>
6NUR|6NUR_protein|mol2

> <Gold.PLP.Fitness>
46.8142

> <Gold.PLP.PLP>
-41.8483

> <Gold.PLP.part.hbond>
-1.2377

> <Gold.PLP.part.metal>
0.0000

> <Gold.PLP.part.buried>
-1.0485

> <Gold.PLP.part.nonpolar>
-42.6023

> <Gold.PLP.part.repulsive>
2.0779

> <Gold.PLP.ligand.clash>
0.0000

> <Gold.PLP.ligand.torsion>
0.5345

> <Gold.PLP.Chemscore.Hbond>
1.0000

> <Gold.PLP.Chemscore.CHOScore>
1.0000

> <Gold.PLP.Chemscore.Metal>
0.0000

> <Gold.Chemscore.Hbonds>
donor molecule, donor type, donor heavy atom, donor atom, acceptor molecule, acceptor atom, score
      L1  H    10    31       P1  8028  1.00
      L1  C    20    40       P1  8028  1.00

> <Gold.PLP.Chemscore.Internal.Correction>
0.0350

> <Gold.Rescore>
     Score         DG    S(hbond)    S(metal)    S(lipo)     H(rot)  DE(clash)    DE(int)     intcor
     12.70     -14.77       1.00        0.00      93.50       1.95       0.25       1.82       ----

> <Gold.Chemscore.Fitness>
12.7003

> <Gold.Chemscore.DG>
-14.7680

> <Gold.Chemscore.ZeroCoef>
-5.4800

> <Gold.Chemscore.Hbond>
0.9978

> <Gold.Chemscore.Metal>
0.0000

> <Gold.Chemscore.Lipo>
93.4989

> <Gold.Chemscore.Internal_Hbond>
0.0000

> <Gold.Chemscore.DEClash>
0.2499

> <Gold.Chemscore.DEInternal>
1.8178

> <Gold.Chemscore.Rot>
1.9468

> <Gold.Chemscore.Internal.Correction>
   9.000000E+99

> <Gold.Chemscore.Hbonds>
donor molecule, donor type, donor heavy atom, donor atom, acceptor molecule, acceptor atom, score
      L1  H    10    31       P1  8028  1.00

> <Gold.Chemscore.Hbond.Weighted>
-3.3325

> <Gold.Chemscore.Metal.Weighted>
-0.0000

> <Gold.Chemscore.Lipo.Weighted>
-10.9394

> <Gold.Chemscore.Internal_Hbond.Weighted>
0.0000

> <Gold.Chemscore.DEClash.Weighted>
0.2499

> <Gold.Chemscore.DEInternal.Weighted>
1.8178

> <Gold.Chemscore.Rot.Weighted>
4.9839

> <Gold.Chemscore.Internal.Correction.Weighted>
   9.000000E+99

> <Gold.Protein.RotatedTorsions>
[ 6907 6896 6895 6894 ] final -118.58 input  -60.11 | X-H torsion
[ 7974 7965 7964 7962 ] final -131.84 input  175.53 | X-H torsion
[ 8008 7997 7996 7995 ] final -161.08 input   59.86 | X-H torsion
[ 10167 10162 10161 10158 ] final  -23.89 input  -65.29 | X-H torsion
[ 10718 10713 10712 10709 ] final  -65.75 input   66.30 | X-H torsion
[ 10763 10752 10751 10750 ] final   35.19 input  -60.55 | X-H torsion
[ 11005 11000 10999 10996 ] final   59.24 input  -57.11 | X-H torsion

> <Gold.Protein.ActiveResidues>
 VAL166  LYS551  ARG553  GLY616  TRP617  ASP618  TYR619  PRO620  LYS621  CYS622 
 ASP623  PHE694  ASN695  SER759  ASP760  ASP761  ALA762  ILE779  LEU786  VAL792 
 PHE793  MET794  SER795  GLU796  ALA797  LYS798  CYS799  TRP800  GLU811  SER814 

> <Gold.Protein.RotatedAtoms>
  150.8232  133.8217  159.3129 H   0  0  0  0  0  0  0  0  0  0  0  0  # atno 6907 bound_to 6896
  151.5969  135.1048  160.0061 H   0  0  0  0  0  0  0  0  0  0  0  0  # atno 6908 bound_to 6896
  152.4319  133.7252  159.6612 H   0  0  0  0  0  0  0  0  0  0  0  0  # atno 6909 bound_to 6896
  144.9341  140.7163  143.4887 H   0  0  0  0  0  0  0  0  0  0  0  0  # atno 7974 bound_to 7965
  155.7870  140.0873  157.2029 H   0  0  0  0  0  0  0  0  0  0  0  0  # atno 8008 bound_to 7997
  154.3987  140.1497  156.3176 H   0  0  0  0  0  0  0  0  0  0  0  0  # atno 8009 bound_to 7997
  155.8597  140.3431  155.5751 H   0  0  0  0  0  0  0  0  0  0  0  0  # atno 8010 bound_to 7997
  140.7288  143.4402  151.0668 H   0  0  0  0  0  0  0  0  0  0  0  0  # atno 10167 bound_to 10162
  156.0651  130.4252  150.1610 H   0  0  0  0  0  0  0  0  0  0  0  0  # atno 10718 bound_to 10713
  153.0130  135.6340  154.1788 H   0  0  0  0  0  0  0  0  0  0  0  0  # atno 10763 bound_to 10752
  154.1529  135.2828  155.3132 H   0  0  0  0  0  0  0  0  0  0  0  0  # atno 10764 bound_to 10752
  154.6040  135.5578  153.7464 H   0  0  0  0  0  0  0  0  0  0  0  0  # atno 10765 bound_to 10752
  140.0319  134.6000  155.9496 H   0  0  0  0  0  0  0  0  0  0  0  0  # atno 11005 bound_to 11000
  145.3095  139.1823  143.4646 LP  0  0  0  0  0  0  0  0  0  0  0  0  # atno 17320 bound_to 7965
  146.3259  140.3097  142.8626 LP  0  0  0  0  0  0  0  0  0  0  0  0  # atno 17321 bound_to 7965
  139.8069  143.8006  152.3168 LP  0  0  0  0  0  0  0  0  0  0  0  0  # atno 17342 bound_to 10162
  139.8042  144.7362  150.9784 LP  0  0  0  0  0  0  0  0  0  0  0  0  # atno 17343 bound_to 10162
  156.9671  130.9823  151.3467 LP  0  0  0  0  0  0  0  0  0  0  0  0  # atno 17370 bound_to 10713
  157.5687  130.8296  149.8363 LP  0  0  0  0  0  0  0  0  0  0  0  0  # atno 17371 bound_to 10713
  141.1835  133.6551  156.5121 LP  0  0  0  0  0  0  0  0  0  0  0  0  # atno 17394 bound_to 11000
  140.4212  134.7185  157.4891 LP  0  0  0  0  0  0  0  0  0  0  0  0  # atno 17395 bound_to 11000

$$$$
