AV-unprocessed.smi:1717|AV-procd|sdf|6917|dock1
  -GOLD-   22720 8123D 1   1.00000     0.00000
 Structure written by MMmdl.
 40 41  0  0  0  0  0  0  0  0  1 V2000
  150.7060  141.5592  157.7677 C   0  0  0  0  0  0  0  0  0  0  0  0
  149.5233  141.4747  156.9255 N   0  0  0  0  0  0  0  0  0  0  0  0
  149.4581  140.7769  155.7823 C   0  0  0  0  0  0  0  0  0  0  0  0
  150.4045  140.1377  155.3236 O   0  0  0  0  0  0  0  0  0  0  0  0
  148.1193  140.8092  155.0363 C   0  0  0  0  0  0  0  0  0  0  0  0
  147.8483  139.6171  154.1997 N   0  0  0  0  0  0  0  0  0  0  0  0
  146.9790  139.9205  153.0529 C   0  0  0  0  0  0  0  0  0  0  0  0
  146.7875  138.6719  152.1737 C   0  0  0  0  0  0  0  0  0  0  0  0
  146.2004  137.5034  152.9824 C   0  0  0  0  0  0  0  0  0  0  0  0
  146.1482  136.2857  152.1786 N   0  0  0  0  0  0  0  0  0  0  0  0
  145.0319  135.6079  151.8754 C   0  0  0  0  0  0  0  0  0  0  0  0
  143.9072  135.9476  152.2443 O   0  0  0  0  0  0  0  0  0  0  0  0
  145.3055  134.5271  151.1266 N   0  0  0  0  0  0  0  0  0  0  0  0
  144.3855  133.5708  150.6274 C   0  0  0  0  0  0  0  0  0  0  0  0
  144.4520  132.9805  149.3363 C   0  0  0  0  0  0  0  0  0  0  0  0
  143.4619  132.1204  149.1457 N   0  0  0  0  0  0  0  0  0  0  0  0
  142.7633  132.1567  150.3027 N   0  0  0  0  0  0  0  0  0  0  0  0
  143.2884  133.0258  151.2334 C   0  0  0  0  0  0  0  0  0  0  0  0
  147.0695  137.2722  154.2262 C   0  0  0  0  0  0  0  0  0  0  0  0
  147.2420  138.5721  155.0312 C   0  0  0  0  0  0  0  0  0  0  0  0
  141.9399  131.5880  150.4411 H   0  0  0  0  0  0  0  0  0  0  0  0
  150.5195  142.2329  158.6039 H   0  0  0  0  0  0  0  0  0  0  0  0
  151.5593  141.9416  157.2058 H   0  0  0  0  0  0  0  0  0  0  0  0
  150.9642  140.5791  158.1703 H   0  0  0  0  0  0  0  0  0  0  0  0
  148.6979  141.9690  157.2328 H   0  0  0  0  0  0  0  0  0  0  0  0
  147.3346  140.9127  155.7874 H   0  0  0  0  0  0  0  0  0  0  0  0
  148.0771  141.7091  154.4198 H   0  0  0  0  0  0  0  0  0  0  0  0
  146.0128  140.2901  153.4007 H   0  0  0  0  0  0  0  0  0  0  0  0
  147.4108  140.7056  152.4321 H   0  0  0  0  0  0  0  0  0  0  0  0
  146.1345  138.9134  151.3342 H   0  0  0  0  0  0  0  0  0  0  0  0
  147.7478  138.3826  151.7438 H   0  0  0  0  0  0  0  0  0  0  0  0
  145.1922  137.7643  153.3103 H   0  0  0  0  0  0  0  0  0  0  0  0
  147.0278  135.9336  151.8302 H   0  0  0  0  0  0  0  0  0  0  0  0
  146.2749  134.3669  150.8946 H   0  0  0  0  0  0  0  0  0  0  0  0
  145.1723  133.1428  148.5480 H   0  0  0  0  0  0  0  0  0  0  0  0
  142.8445  133.1674  152.2076 H   0  0  0  0  0  0  0  0  0  0  0  0
  146.6205  136.5051  154.8581 H   0  0  0  0  0  0  0  0  0  0  0  0
  148.0509  136.8963  153.9325 H   0  0  0  0  0  0  0  0  0  0  0  0
  147.8794  138.3688  155.8928 H   0  0  0  0  0  0  0  0  0  0  0  0
  146.2788  138.9067  155.4214 H   0  0  0  0  0  0  0  0  0  0  0  0
  1  2  1  0  0  0  0
  1 22  1  0  0  0  0
  1 23  1  0  0  0  0
  1 24  1  0  0  0  0
  2  3  1  0  0  0  0
  2 25  1  0  0  0  0
  3  4  2  0  0  0  0
  3  5  1  0  0  0  0
  5  6  1  0  0  0  0
  5 26  1  0  0  0  0
  5 27  1  0  0  0  0
  6 20  1  0  0  0  0
  6  7  1  0  0  0  0
  7  8  1  0  0  0  0
  7 28  1  0  0  0  0
  7 29  1  0  0  0  0
  8  9  1  0  0  0  0
  8 30  1  0  0  0  0
  8 31  1  0  0  0  0
  9 10  1  0  0  0  0
  9 19  1  0  0  0  0
  9 32  1  0  0  0  0
 10 11  1  0  0  0  0
 10 33  1  0  0  0  0
 11 12  2  0  0  0  0
 11 13  1  0  0  0  0
 13 14  1  0  0  0  0
 13 34  1  0  0  0  0
 14 18  2  0  0  0  0
 14 15  1  0  0  0  0
 15 16  2  0  0  0  0
 15 35  1  0  0  0  0
 16 17  1  0  0  0  0
 17 21  1  0  0  0  0
 17 18  1  0  0  0  0
 18 36  1  0  0  0  0
 19 20  1  0  0  0  0
 19 37  1  0  0  0  0
 19 38  1  0  0  0  0
 20 39  1  0  0  0  0
 20 40  1  0  0  0  0
M  END
> <s_m_source_file>
AV-unprocessed.smi

> <i_m_source_file_index>
1717

> <i_lp_mmshare_version>
43012

> <i_f3d_flags>
0

> <s_epik_input>
W0NIM11bTkhdQyg9TylbQ0gyXU4xW0NIMl1bQ0gyXVtDSF0oW0NIMl1bQ0gyXTEpW05IXUMoPU8pW05IXWMyW2NIXW5bbkhdW2NIXTI=

> <s_epik_cmdline>
J2VwaWtfcHl0aG9uJywgJy1waCcsICc3LjAnLCAnLXRuJywgJzgnLCAnLW1hJywgJzIwMCcsICctbWV0YWxfYmluZGluZycsICctaW1hZScsICc8aW5maWxlLm1hZT4nLCAnLW9tYWUnLCAnPG91dGZpbGUubWFlPic=

> <r_lp_tautomer_probability>
0.5

> <r_epik_Ionization_Penalty>
0.164786

> <r_epik_Ionization_Penalty_Charging>
0

> <r_epik_Ionization_Penalty_Neutral>
0.164786

> <r_epik_State_Penalty>
0.154069

> <r_epik_Charging_Adjusted_Penalty>
0.154069

> <i_epik_Tot_Q>
0

> <i_epik_Tot_abs_Q>
0

> <r_epik_Metal_State_Penalty>
0.158586

> <b_epik_Metal_Only>
0

> <s_lp_Force_Field>
OPLS_2005

> <r_lp_Energy>
16.0226

> <b_lp_Chiralities_Consistent>
1

> <s_lp_Variant>
AV-unprocessed.smi:1717-1

> <Gold.Version>
5.8.1

> <Gold.Id.Protein>
6NUR|6NUR_protein|mol2

> <Gold.PLP.Fitness>
42.3706

> <Gold.PLP.PLP>
-29.6051

> <Gold.PLP.part.hbond>
-5.1419

> <Gold.PLP.part.metal>
0.0000

> <Gold.PLP.part.buried>
-4.5573

> <Gold.PLP.part.nonpolar>
-22.8879

> <Gold.PLP.part.repulsive>
0.8293

> <Gold.PLP.ligand.clash>
0.0000

> <Gold.PLP.ligand.torsion>
0.9848

> <Gold.PLP.Chemscore.Hbond>
3.5187

> <Gold.PLP.Chemscore.CHOScore>
1.3873

> <Gold.PLP.Chemscore.Metal>
0.0000

> <Gold.Chemscore.Hbonds>
donor molecule, donor type, donor heavy atom, donor atom, acceptor molecule, acceptor atom, score
      L1  H    10    33       P1  7948  0.90
      L1  H    17    21       P1 10952  0.86
      P1  H  7989  7998       L1     4  0.28
      P1  H 10785 10796       L1    16  0.86
      L1  C    15    35       P1  7921  1.00
      L1  C    18    36       P1 10957  0.03

> <Gold.PLP.Chemscore.Internal.Correction>
0.0174

> <Gold.Rescore>
     Score         DG    S(hbond)    S(metal)    S(lipo)     H(rot)  DE(clash)    DE(int)     intcor
     15.93     -16.96       2.63        0.00      61.98       1.79       0.44       0.59       ----

> <Gold.Chemscore.Fitness>
15.9277

> <Gold.Chemscore.DG>
-16.9609

> <Gold.Chemscore.ZeroCoef>
-5.4800

> <Gold.Chemscore.Hbond>
2.6347

> <Gold.Chemscore.Metal>
0.0000

> <Gold.Chemscore.Lipo>
61.9786

> <Gold.Chemscore.Internal_Hbond>
0.0000

> <Gold.Chemscore.DEClash>
0.4434

> <Gold.Chemscore.DEInternal>
0.5898

> <Gold.Chemscore.Rot>
1.7854

> <Gold.Chemscore.Internal.Correction>
   9.000000E+99

> <Gold.Chemscore.Hbonds>
donor molecule, donor type, donor heavy atom, donor atom, acceptor molecule, acceptor atom, score
      L1  H    10    33       P1  7948  0.88
      L1  H    17    21       P1 10952  0.25
      P1  H  7989  7998       L1     4  0.28
      P1  H 10785 10796       L1    16  0.15

> <Gold.Chemscore.Hbond.Weighted>
-8.7999

> <Gold.Chemscore.Metal.Weighted>
-0.0000

> <Gold.Chemscore.Lipo.Weighted>
-7.2515

> <Gold.Chemscore.Internal_Hbond.Weighted>
0.0000

> <Gold.Chemscore.DEClash.Weighted>
0.4434

> <Gold.Chemscore.DEInternal.Weighted>
0.5898

> <Gold.Chemscore.Rot.Weighted>
4.5706

> <Gold.Chemscore.Internal.Correction.Weighted>
   9.000000E+99

> <Gold.Protein.RotatedTorsions>
[ 6907 6896 6895 6894 ] final   27.10 input  -60.11 | X-H torsion
[ 7974 7965 7964 7962 ] final  -67.05 input  175.53 | X-H torsion
[ 8008 7997 7996 7995 ] final  -55.28 input   59.86 | X-H torsion
[ 10167 10162 10161 10158 ] final  -58.55 input  -65.29 | X-H torsion
[ 10718 10713 10712 10709 ] final  -56.23 input   66.30 | X-H torsion
[ 10763 10752 10751 10750 ] final -106.16 input  -60.55 | X-H torsion
[ 11005 11000 10999 10996 ] final  -14.57 input  -57.11 | X-H torsion

> <Gold.Protein.ActiveResidues>
 VAL166  LYS551  ARG553  GLY616  TRP617  ASP618  TYR619  PRO620  LYS621  CYS622 
 ASP623  PHE694  ASN695  SER759  ASP760  ASP761  ALA762  ILE779  LEU786  VAL792 
 PHE793  MET794  SER795  GLU796  ALA797  LYS798  CYS799  TRP800  GLU811  SER814 

> <Gold.Protein.RotatedAtoms>
  151.9973  134.9947  160.0563 H   0  0  0  0  0  0  0  0  0  0  0  0  # atno 6907 bound_to 6896
  152.1552  133.4542  159.4842 H   0  0  0  0  0  0  0  0  0  0  0  0  # atno 6908 bound_to 6896
  150.6880  134.2057  159.4382 H   0  0  0  0  0  0  0  0  0  0  0  0  # atno 6909 bound_to 6896
  145.7340  140.8984  143.0565 H   0  0  0  0  0  0  0  0  0  0  0  0  # atno 7974 bound_to 7965
  154.4190  140.1156  156.5452 H   0  0  0  0  0  0  0  0  0  0  0  0  # atno 8008 bound_to 7997
  155.6467  140.3496  155.4714 H   0  0  0  0  0  0  0  0  0  0  0  0  # atno 8009 bound_to 7997
  155.9826  140.1163  157.0702 H   0  0  0  0  0  0  0  0  0  0  0  0  # atno 8010 bound_to 7997
  140.6190  143.2413  151.5526 H   0  0  0  0  0  0  0  0  0  0  0  0  # atno 10167 bound_to 10162
  156.1305  130.4160  150.0277 H   0  0  0  0  0  0  0  0  0  0  0  0  # atno 10718 bound_to 10713
  154.7994  135.4722  154.0238 H   0  0  0  0  0  0  0  0  0  0  0  0  # atno 10763 bound_to 10752
  153.1756  135.6832  153.8555 H   0  0  0  0  0  0  0  0  0  0  0  0  # atno 10764 bound_to 10752
  153.8122  135.3215  155.3379 H   0  0  0  0  0  0  0  0  0  0  0  0  # atno 10765 bound_to 10752
  140.7878  133.8312  155.9351 H   0  0  0  0  0  0  0  0  0  0  0  0  # atno 11005 bound_to 11000
  144.6886  139.9370  143.7474 LP  0  0  0  0  0  0  0  0  0  0  0  0  # atno 17320 bound_to 7965
  146.0510  139.3511  143.0639 LP  0  0  0  0  0  0  0  0  0  0  0  0  # atno 17321 bound_to 7965
  139.5423  144.2615  152.1374 LP  0  0  0  0  0  0  0  0  0  0  0  0  # atno 17342 bound_to 10162
  140.1831  144.4825  150.6518 LP  0  0  0  0  0  0  0  0  0  0  0  0  # atno 17343 bound_to 10162
  156.8190  130.9352  151.3642 LP  0  0  0  0  0  0  0  0  0  0  0  0  # atno 17370 bound_to 10713
  157.6483  130.8863  149.9583 LP  0  0  0  0  0  0  0  0  0  0  0  0  # atno 17371 bound_to 10713
  140.9420  134.1889  157.4791 LP  0  0  0  0  0  0  0  0  0  0  0  0  # atno 17394 bound_to 11000
  139.8735  134.9875  156.5372 LP  0  0  0  0  0  0  0  0  0  0  0  0  # atno 17395 bound_to 11000

$$$$
