AV-unprocessed.smi:1599|AV-procd|sdf|6424|dock5
  -GOLD-   22720 7 63D 1   1.00000     0.00000
 Structure written by MMmdl.
 39 40  0  0  0  0  0  0  0  0  1 V2000
  147.7070  141.7046  154.1259 C   0  0  0  0  0  0  0  0  0  0  0  0
  148.2324  140.2740  154.3166 C   0  0  1  0  0  0  0  0  0  0  0  0
  147.7432  139.4287  153.2294 N   0  0  0  0  0  0  0  0  0  0  0  0
  146.8075  138.4751  153.3388 C   0  0  0  0  0  0  0  0  0  0  0  0
  146.2238  138.2054  154.3882 O   0  0  0  0  0  0  0  0  0  0  0  0
  146.6015  137.8619  152.1624 N   0  0  0  0  0  0  0  0  0  0  0  0
  145.7115  136.7913  151.8988 C   0  0  0  0  0  0  0  0  0  0  0  0
  144.6213  136.3119  152.6786 C   0  0  0  0  0  0  0  0  0  0  0  0
  144.0323  135.2827  152.0887 N   0  0  0  0  0  0  0  0  0  0  0  0
  144.7218  135.0919  150.9362 N   0  0  0  0  0  0  0  0  0  0  0  0
  144.3355  134.0197  150.0351 C   0  0  0  0  0  0  0  0  0  0  0  0
  143.8150  132.8007  150.8019 C   0  0  0  0  0  0  0  0  0  0  0  0
  142.5276  132.4843  150.6402 N   0  0  0  0  0  0  0  0  0  0  0  0
  144.5618  132.1515  151.5317 O   0  0  0  0  0  0  0  0  0  0  0  0
  145.7559  135.9971  150.7929 C   0  0  0  0  0  0  0  0  0  0  0  0
  149.7711  140.2218  154.3636 C   0  0  2  0  0  0  0  0  0  0  0  0
  150.3626  138.8130  154.3216 C   0  0  0  0  0  0  0  0  0  0  0  0
  151.7436  139.0080  154.9200 C   0  0  0  0  0  0  0  0  0  0  0  0
  151.6029  140.2792  155.7632 C   0  0  0  0  0  0  0  0  0  0  0  0
  150.2536  140.7038  155.6082 O   0  0  0  0  0  0  0  0  0  0  0  0
  148.0397  142.3570  154.9336 H   0  0  0  0  0  0  0  0  0  0  0  0
  146.6166  141.7245  154.1180 H   0  0  0  0  0  0  0  0  0  0  0  0
  148.0554  142.1352  153.1865 H   0  0  0  0  0  0  0  0  0  0  0  0
  147.8586  139.9021  155.2724 H   0  0  0  0  0  0  0  0  0  0  0  0
  148.1624  139.5758  152.3231 H   0  0  0  0  0  0  0  0  0  0  0  0
  147.1477  138.1856  151.3777 H   0  0  0  0  0  0  0  0  0  0  0  0
  144.2413  136.6571  153.6284 H   0  0  0  0  0  0  0  0  0  0  0  0
  143.5747  134.4011  149.3523 H   0  0  0  0  0  0  0  0  0  0  0  0
  145.1925  133.7248  149.4277 H   0  0  0  0  0  0  0  0  0  0  0  0
  142.1365  131.6909  151.1270 H   0  0  0  0  0  0  0  0  0  0  0  0
  141.9483  133.0445  150.0317 H   0  0  0  0  0  0  0  0  0  0  0  0
  146.4150  135.9946  149.9372 H   0  0  0  0  0  0  0  0  0  0  0  0
  150.1999  140.8251  153.5607 H   0  0  0  0  0  0  0  0  0  0  0  0
  149.7790  138.1412  154.9531 H   0  0  0  0  0  0  0  0  0  0  0  0
  150.3918  138.3915  153.3164 H   0  0  0  0  0  0  0  0  0  0  0  0
  152.0537  138.1471  155.5128 H   0  0  0  0  0  0  0  0  0  0  0  0
  152.4844  139.1595  154.1342 H   0  0  0  0  0  0  0  0  0  0  0  0
  151.8242  140.1030  156.8162 H   0  0  0  0  0  0  0  0  0  0  0  0
  152.2748  141.0580  155.4007 H   0  0  0  0  0  0  0  0  0  0  0  0
  1  2  1  0  0  0  0
  1 21  1  0  0  0  0
  1 22  1  0  0  0  0
  1 23  1  0  0  0  0
  2  3  1  0  0  0  0
  2 16  1  0  0  0  0
  2 24  1  0  0  0  0
  3  4  1  0  0  0  0
  3 25  1  0  0  0  0
  4  5  2  0  0  0  0
  4  6  1  0  0  0  0
  6  7  1  0  0  0  0
  6 26  1  0  0  0  0
  7 15  2  0  0  0  0
  7  8  1  0  0  0  0
  8  9  2  0  0  0  0
  8 27  1  0  0  0  0
  9 10  1  0  0  0  0
 10 11  1  0  0  0  0
 10 15  1  0  0  0  0
 11 12  1  0  0  0  0
 11 28  1  0  0  0  0
 11 29  1  0  0  0  0
 12 13  1  0  0  0  0
 12 14  2  0  0  0  0
 13 30  1  0  0  0  0
 13 31  1  0  0  0  0
 15 32  1  0  0  0  0
 16 20  1  0  0  0  0
 16 17  1  0  0  0  0
 16 33  1  0  0  0  0
 17 18  1  0  0  0  0
 17 34  1  0  0  0  0
 17 35  1  0  0  0  0
 18 19  1  0  0  0  0
 18 36  1  0  0  0  0
 18 37  1  0  0  0  0
 19 20  1  0  0  0  0
 19 38  1  0  0  0  0
 19 39  1  0  0  0  0
M  END
> <s_m_source_file>
AV-unprocessed.smi

> <i_m_source_file_index>
1599

> <i_lp_mmshare_version>
43012

> <i_f3d_flags>
0

> <s_epik_input>
TzFbQ0gyXVtDSDJdW0NIMl1bQ0BIXTFbQ0BIXShbQ0gzXSlbTkhdQyg9TylbTkhdYzJbY0hdbm4oW2NIXTIpW0NIMl1DKD1PKVtOSDJd

> <s_epik_cmdline>
J2VwaWtfcHl0aG9uJywgJy1waCcsICc3LjAnLCAnLXRuJywgJzgnLCAnLW1hJywgJzIwMCcsICctbWV0YWxfYmluZGluZycsICctaW1hZScsICc8aW5maWxlLm1hZT4nLCAnLW9tYWUnLCAnPG91dGZpbGUubWFlPic=

> <r_lp_tautomer_probability>
1

> <r_epik_Ionization_Penalty>
4.15391e-05

> <r_epik_Ionization_Penalty_Charging>
0

> <r_epik_Ionization_Penalty_Neutral>
4.15391e-05

> <r_epik_State_Penalty>
-0

> <r_epik_Charging_Adjusted_Penalty>
0

> <i_epik_Tot_Q>
0

> <i_epik_Tot_abs_Q>
0

> <r_epik_Metal_State_Penalty>
-0

> <b_epik_Metal_Only>
0

> <s_lp_Force_Field>
OPLS_2005

> <r_lp_Energy>
20.7391

> <b_lp_Chiralities_Consistent>
1

> <s_lp_Variant>
AV-unprocessed.smi:1599-2

> <Gold.Version>
5.8.1

> <Gold.Id.Protein>
6NUR|6NUR_protein|mol2

> <Gold.PLP.Fitness>
45.7800

> <Gold.PLP.PLP>
-38.1820

> <Gold.PLP.part.hbond>
-4.0000

> <Gold.PLP.part.metal>
0.0000

> <Gold.PLP.part.buried>
-4.7449

> <Gold.PLP.part.nonpolar>
-31.0910

> <Gold.PLP.part.repulsive>
0.6455

> <Gold.PLP.ligand.clash>
0.0000

> <Gold.PLP.ligand.torsion>
0.7182

> <Gold.PLP.Chemscore.Hbond>
2.0399

> <Gold.PLP.Chemscore.CHOScore>
0.9520

> <Gold.PLP.Chemscore.Metal>
0.0000

> <Gold.Chemscore.Hbonds>
donor molecule, donor type, donor heavy atom, donor atom, acceptor molecule, acceptor atom, score
      L1  H     3    25       P1  7957  1.00
      L1  H    13    31       P1 10186  1.00
      L1  C    15    32       P1  7921  0.88

> <Gold.PLP.Chemscore.Internal.Correction>
0.0586

> <Gold.Rescore>
     Score         DG    S(hbond)    S(metal)    S(lipo)     H(rot)  DE(clash)    DE(int)     intcor
     12.58     -14.42       1.97        0.00      70.24       2.28       0.10       1.73       ----

> <Gold.Chemscore.Fitness>
12.5848

> <Gold.Chemscore.DG>
-14.4218

> <Gold.Chemscore.ZeroCoef>
-5.4800

> <Gold.Chemscore.Hbond>
1.9659

> <Gold.Chemscore.Metal>
0.0000

> <Gold.Chemscore.Lipo>
70.2425

> <Gold.Chemscore.Internal_Hbond>
0.0000

> <Gold.Chemscore.DEClash>
0.1049

> <Gold.Chemscore.DEInternal>
1.7321

> <Gold.Chemscore.Rot>
2.2823

> <Gold.Chemscore.Internal.Correction>
   9.000000E+99

> <Gold.Chemscore.Hbonds>
donor molecule, donor type, donor heavy atom, donor atom, acceptor molecule, acceptor atom, score
      L1  H     3    25       P1  7957  0.98
      L1  H    13    31       P1 10186  0.99

> <Gold.Chemscore.Hbond.Weighted>
-6.5661

> <Gold.Chemscore.Metal.Weighted>
-0.0000

> <Gold.Chemscore.Lipo.Weighted>
-8.2184

> <Gold.Chemscore.Internal_Hbond.Weighted>
0.0000

> <Gold.Chemscore.DEClash.Weighted>
0.1049

> <Gold.Chemscore.DEInternal.Weighted>
1.7321

> <Gold.Chemscore.Rot.Weighted>
5.8427

> <Gold.Chemscore.Internal.Correction.Weighted>
   9.000000E+99

> <Gold.Protein.RotatedTorsions>
[ 6907 6896 6895 6894 ] final  -29.78 input  -60.11 | X-H torsion
[ 7974 7965 7964 7962 ] final -132.05 input  175.53 | X-H torsion
[ 8008 7997 7996 7995 ] final  131.57 input   59.86 | X-H torsion
[ 10167 10162 10161 10158 ] final  -69.54 input  -65.29 | X-H torsion
[ 10718 10713 10712 10709 ] final -122.43 input   66.30 | X-H torsion
[ 10763 10752 10751 10750 ] final -161.34 input  -60.55 | X-H torsion
[ 11005 11000 10999 10996 ] final -138.95 input  -57.11 | X-H torsion

> <Gold.Protein.ActiveResidues>
 VAL166  LYS551  ARG553  GLY616  TRP617  ASP618  TYR619  PRO620  LYS621  CYS622 
 ASP623  PHE694  ASN695  SER759  ASP760  ASP761  ALA762  ILE779  LEU786  VAL792 
 PHE793  MET794  SER795  GLU796  ALA797  LYS798  CYS799  TRP800  GLU811  SER814 

> <Gold.Protein.RotatedAtoms>
  151.1145  135.0045  159.8509 H   0  0  0  0  0  0  0  0  0  0  0  0  # atno 6907 bound_to 6896
  152.5445  134.1796  159.8640 H   0  0  0  0  0  0  0  0  0  0  0  0  # atno 6908 bound_to 6896
  151.1849  133.4658  159.2627 H   0  0  0  0  0  0  0  0  0  0  0  0  # atno 6909 bound_to 6896
  144.9321  140.7141  143.4899 H   0  0  0  0  0  0  0  0  0  0  0  0  # atno 7974 bound_to 7965
  156.2972  140.2568  156.2948 H   0  0  0  0  0  0  0  0  0  0  0  0  # atno 8008 bound_to 7997
  154.9475  140.0395  157.2146 H   0  0  0  0  0  0  0  0  0  0  0  0  # atno 8009 bound_to 7997
  154.8068  140.2837  155.5886 H   0  0  0  0  0  0  0  0  0  0  0  0  # atno 8010 bound_to 7997
  140.5423  143.2314  151.7066 H   0  0  0  0  0  0  0  0  0  0  0  0  # atno 10167 bound_to 10162
  156.1418  130.6471  150.9782 H   0  0  0  0  0  0  0  0  0  0  0  0  # atno 10718 bound_to 10713
  154.7312  135.3047  154.8888 H   0  0  0  0  0  0  0  0  0  0  0  0  # atno 10763 bound_to 10752
  153.9730  135.6739  153.4752 H   0  0  0  0  0  0  0  0  0  0  0  0  # atno 10764 bound_to 10752
  153.0920  135.4954  154.8629 H   0  0  0  0  0  0  0  0  0  0  0  0  # atno 10765 bound_to 10752
  140.8566  134.2220  157.4731 H   0  0  0  0  0  0  0  0  0  0  0  0  # atno 11005 bound_to 11000
  145.3125  139.1814  143.4631 LP  0  0  0  0  0  0  0  0  0  0  0  0  # atno 17320 bound_to 7965
  146.3251  140.3131  142.8628 LP  0  0  0  0  0  0  0  0  0  0  0  0  # atno 17321 bound_to 7965
  139.4993  144.3949  152.0241 LP  0  0  0  0  0  0  0  0  0  0  0  0  # atno 17342 bound_to 10162
  140.3059  144.3593  150.6047 LP  0  0  0  0  0  0  0  0  0  0  0  0  # atno 17343 bound_to 10162
  157.6582  131.0885  150.7899 LP  0  0  0  0  0  0  0  0  0  0  0  0  # atno 17370 bound_to 10713
  156.7974  130.4910  149.5375 LP  0  0  0  0  0  0  0  0  0  0  0  0  # atno 17371 bound_to 10713
  139.8705  134.9709  156.4719 LP  0  0  0  0  0  0  0  0  0  0  0  0  # atno 17394 bound_to 11000
  140.8730  133.7974  155.9384 LP  0  0  0  0  0  0  0  0  0  0  0  0  # atno 17395 bound_to 11000

$$$$
