AV-unprocessed.smi:1971|AV-procd|sdf|7973|dock4
  -GOLD-   2272010143D 1   1.00000     0.00000
 Structure written by MMmdl.
 42 43  0  0  0  0  0  0  0  0  2 V2000
  151.0552  145.2902  159.1254 C   0  0  0  0  0  0  0  0  0  0  0  0
  152.1886  144.3039  159.4414 C   0  0  0  0  0  0  0  0  0  0  0  0
  151.8495  142.8955  159.2481 N   0  0  0  0  0  0  0  0  0  0  0  0
  152.8796  141.9949  159.7637 C   0  0  0  0  0  0  0  0  0  0  0  0
  152.5046  140.5168  159.5472 C   0  0  0  0  0  0  0  0  0  0  0  0
  152.2966  140.1881  158.1282 N   0  0  0  0  0  0  0  0  0  0  0  0
  151.9269  138.7680  157.9165 C   0  0  1  0  0  0  0  0  0  0  0  0
  152.5660  137.8227  158.9658 C   0  0  0  0  0  0  0  0  0  0  0  0
  150.3896  138.5309  157.8861 C   0  0  0  0  0  0  0  0  0  0  0  0
  150.0257  137.1247  158.0541 N   0  0  0  0  0  0  0  0  0  0  0  0
  149.0985  136.6314  158.8883 C   0  0  0  0  0  0  0  0  0  0  0  0
  148.4460  137.3909  159.6079 O   0  0  0  0  0  0  0  0  0  0  0  0
  148.9938  135.2835  158.8447 N   0  5  0  0  0  0  0  0  0  0  0  0
  148.3141  134.6303  159.8010 C   0  0  0  0  0  0  0  0  0  0  0  0
  148.0016  133.3322  159.7161 N   0  0  0  0  0  0  0  0  0  0  0  0
  147.3004  132.8566  160.8257 C   0  0  0  0  0  0  0  0  0  0  0  0
  147.0818  133.8126  161.7820 C   0  0  0  0  0  0  0  0  0  0  0  0
  147.7556  135.3478  161.3154 S   0  0  0  0  0  0  0  0  0  0  0  0
  151.2805  141.1181  157.6109 C   0  0  0  0  0  0  0  0  0  0  0  0
  151.6641  142.5923  157.8324 C   0  0  0  0  0  0  0  0  0  0  0  0
  151.4144  146.3176  159.1874 H   0  0  0  0  0  0  0  0  0  0  0  0
  150.2251  145.1954  159.8248 H   0  0  0  0  0  0  0  0  0  0  0  0
  150.6691  145.1354  158.1176 H   0  0  0  0  0  0  0  0  0  0  0  0
  153.0286  144.5547  158.7923 H   0  0  0  0  0  0  0  0  0  0  0  0
  152.5397  144.4657  160.4615 H   0  0  0  0  0  0  0  0  0  0  0  0
  153.8364  142.2040  159.2828 H   0  0  0  0  0  0  0  0  0  0  0  0
  153.0241  142.1601  160.8308 H   0  0  0  0  0  0  0  0  0  0  0  0
  153.3182  139.9261  159.9627 H   0  0  0  0  0  0  0  0  0  0  0  0
  151.6098  140.2751  160.1231 H   0  0  0  0  0  0  0  0  0  0  0  0
  152.3120  138.4641  156.9419 H   0  0  0  0  0  0  0  0  0  0  0  0
  152.2774  136.7833  158.8174 H   0  0  0  0  0  0  0  0  0  0  0  0
  152.2738  138.1025  159.9784 H   0  0  0  0  0  0  0  0  0  0  0  0
  153.6533  137.8174  158.9156 H   0  0  0  0  0  0  0  0  0  0  0  0
  149.8959  139.1672  158.6223 H   0  0  0  0  0  0  0  0  0  0  0  0
  149.9690  138.8017  156.9199 H   0  0  0  0  0  0  0  0  0  0  0  0
  150.5313  136.4587  157.4889 H   0  0  0  0  0  0  0  0  0  0  0  0
  146.9957  131.8210  160.8514 H   0  0  0  0  0  0  0  0  0  0  0  0
  146.5706  133.7086  162.7269 H   0  0  0  0  0  0  0  0  0  0  0  0
  151.1501  140.9868  156.5386 H   0  0  0  0  0  0  0  0  0  0  0  0
  150.3145  140.9144  158.0757 H   0  0  0  0  0  0  0  0  0  0  0  0
  150.8805  143.2288  157.4198 H   0  0  0  0  0  0  0  0  0  0  0  0
  152.5751  142.8211  157.2766 H   0  0  0  0  0  0  0  0  0  0  0  0
  1  2  1  0  0  0  0
  1 21  1  0  0  0  0
  1 22  1  0  0  0  0
  1 23  1  0  0  0  0
  2  3  1  0  0  0  0
  2 24  1  0  0  0  0
  2 25  1  0  0  0  0
  3 20  1  0  0  0  0
  3  4  1  0  0  0  0
  4  5  1  0  0  0  0
  4 26  1  0  0  0  0
  4 27  1  0  0  0  0
  5  6  1  0  0  0  0
  5 28  1  0  0  0  0
  5 29  1  0  0  0  0
  6  7  1  0  0  0  0
  6 19  1  0  0  0  0
  7  8  1  0  0  0  0
  7  9  1  0  0  0  0
  7 30  1  0  0  0  0
  8 31  1  0  0  0  0
  8 32  1  0  0  0  0
  8 33  1  0  0  0  0
  9 10  1  0  0  0  0
  9 34  1  0  0  0  0
  9 35  1  0  0  0  0
 10 11  1  0  0  0  0
 10 36  1  0  0  0  0
 11 12  2  0  0  0  0
 11 13  1  0  0  0  0
 13 14  1  0  0  0  0
 14 18  1  0  0  0  0
 14 15  2  0  0  0  0
 15 16  1  0  0  0  0
 16 17  2  0  0  0  0
 16 37  1  0  0  0  0
 17 18  1  0  0  0  0
 17 38  1  0  0  0  0
 19 20  1  0  0  0  0
 19 39  1  0  0  0  0
 19 40  1  0  0  0  0
 20 41  1  0  0  0  0
 20 42  1  0  0  0  0
M  CHG  1  13  -1
M  END
> <s_m_source_file>
AV-unprocessed.smi

> <i_m_source_file_index>
1971

> <i_lp_mmshare_version>
43012

> <i_f3d_flags>
0

> <s_epik_input>
W0NIM11bQ0gyXU4xW0NIMl1bQ0gyXU4oW0NIMl1bQ0gyXTEpW0NASF0oW0NIM10pW0NIMl1bTkhdQyg9TylbTkhdYzJuW2NIXVtjSF1zMg==

> <s_epik_cmdline>
J2VwaWtfcHl0aG9uJywgJy1waCcsICc3LjAnLCAnLXRuJywgJzgnLCAnLW1hJywgJzIwMCcsICctbWV0YWxfYmluZGluZycsICctaW1hZScsICc8aW5maWxlLm1hZT4nLCAnLW9tYWUnLCAnPG91dGZpbGUubWFlPic=

> <r_lp_tautomer_probability>
0.999

> <r_epik_Ionization_Penalty>
9.52272

> <r_epik_Ionization_Penalty_Charging>
5.92713

> <r_epik_Ionization_Penalty_Neutral>
3.59559

> <r_epik_State_Penalty>
7.69531

> <r_epik_Charging_Adjusted_Penalty>
13.6224

> <i_epik_Tot_Q>
-1

> <i_epik_Tot_abs_Q>
1

> <r_epik_Metal_State_Penalty>
3.66212

> <b_epik_Metal_Only>
1

> <s_lp_Force_Field>
OPLS_2005

> <r_lp_Energy>
38.2579

> <b_lp_Chiralities_Consistent>
1

> <s_lp_Variant>
AV-unprocessed.smi:1971-12

> <Gold.Version>
5.8.1

> <Gold.Id.Protein>
6NUR|6NUR_protein|mol2

> <Gold.PLP.Fitness>
44.8547

> <Gold.PLP.PLP>
-38.5336

> <Gold.PLP.part.hbond>
-3.0000

> <Gold.PLP.part.metal>
0.0000

> <Gold.PLP.part.buried>
-5.1843

> <Gold.PLP.part.nonpolar>
-29.9837

> <Gold.PLP.part.repulsive>
0.1399

> <Gold.PLP.ligand.clash>
0.0000

> <Gold.PLP.ligand.torsion>
1.0909

> <Gold.PLP.Chemscore.Hbond>
2.8112

> <Gold.PLP.Chemscore.CHOScore>
0.0000

> <Gold.PLP.Chemscore.Metal>
0.0000

> <Gold.Chemscore.Hbonds>
donor molecule, donor type, donor heavy atom, donor atom, acceptor molecule, acceptor atom, score
      P1  H  6896  6908       L1    13  0.80

> <Gold.PLP.Chemscore.Internal.Correction>
0.0693

> <Gold.Rescore>
     Score         DG    S(hbond)    S(metal)    S(lipo)     H(rot)  DE(clash)    DE(int)     intcor
     14.16     -17.01       1.38        0.00      96.49       1.70       0.29       2.56       ----

> <Gold.Chemscore.Fitness>
14.1649

> <Gold.Chemscore.DG>
-17.0124

> <Gold.Chemscore.ZeroCoef>
-5.4800

> <Gold.Chemscore.Hbond>
1.3786

> <Gold.Chemscore.Metal>
0.0000

> <Gold.Chemscore.Lipo>
96.4902

> <Gold.Chemscore.Internal_Hbond>
0.0000

> <Gold.Chemscore.DEClash>
0.2865

> <Gold.Chemscore.DEInternal>
2.5609

> <Gold.Chemscore.Rot>
1.7037

> <Gold.Chemscore.Internal.Correction>
   9.000000E+99

> <Gold.Chemscore.Hbonds>
donor molecule, donor type, donor heavy atom, donor atom, acceptor molecule, acceptor atom, score
      P1  H  6896  6908       L1    13  0.01
      P1  H  6931  6943       L1    12  0.01
      P1  H  6934  6947       L1    12  0.03

> <Gold.Chemscore.Hbond.Weighted>
-4.6044

> <Gold.Chemscore.Metal.Weighted>
-0.0000

> <Gold.Chemscore.Lipo.Weighted>
-11.2894

> <Gold.Chemscore.Internal_Hbond.Weighted>
0.0000

> <Gold.Chemscore.DEClash.Weighted>
0.2865

> <Gold.Chemscore.DEInternal.Weighted>
2.5609

> <Gold.Chemscore.Rot.Weighted>
4.3614

> <Gold.Chemscore.Internal.Correction.Weighted>
   9.000000E+99

> <Gold.Protein.RotatedTorsions>
[ 6907 6896 6895 6894 ] final  155.25 input  -60.11 | X-H torsion
[ 7974 7965 7964 7962 ] final  140.81 input  175.53 | X-H torsion
[ 8008 7997 7996 7995 ] final   65.64 input   59.86 | X-H torsion
[ 10167 10162 10161 10158 ] final  150.36 input  -65.29 | X-H torsion
[ 10718 10713 10712 10709 ] final  142.64 input   66.30 | X-H torsion
[ 10763 10752 10751 10750 ] final  -19.57 input  -60.55 | X-H torsion
[ 11005 11000 10999 10996 ] final  122.08 input  -57.11 | X-H torsion

> <Gold.Protein.ActiveResidues>
 VAL166  LYS551  ARG553  GLY616  TRP617  ASP618  TYR619  PRO620  LYS621  CYS622 
 ASP623  PHE694  ASN695  SER759  ASP760  ASP761  ALA762  ILE779  LEU786  VAL792 
 PHE793  MET794  SER795  GLU796  ALA797  LYS798  CYS799  TRP800  GLU811  SER814 

> <Gold.Protein.RotatedAtoms>
  152.0468  133.4001  159.4359 H   0  0  0  0  0  0  0  0  0  0  0  0  # atno 6907 bound_to 6896
  150.6872  134.3353  159.4853 H   0  0  0  0  0  0  0  0  0  0  0  0  # atno 6908 bound_to 6896
  152.1158  134.9241  160.0615 H   0  0  0  0  0  0  0  0  0  0  0  0  # atno 6909 bound_to 6896
  144.9153  139.5239  143.5689 H   0  0  0  0  0  0  0  0  0  0  0  0  # atno 7974 bound_to 7965
  155.6649  140.3497  155.4796 H   0  0  0  0  0  0  0  0  0  0  0  0  # atno 8008 bound_to 7997
  155.9737  140.1161  157.0812 H   0  0  0  0  0  0  0  0  0  0  0  0  # atno 8009 bound_to 7997
  154.4173  140.1152  156.5328 H   0  0  0  0  0  0  0  0  0  0  0  0  # atno 8010 bound_to 7997
  139.4851  144.5529  151.7370 H   0  0  0  0  0  0  0  0  0  0  0  0  # atno 10167 bound_to 10162
  157.3782  131.0988  151.0764 H   0  0  0  0  0  0  0  0  0  0  0  0  # atno 10718 bound_to 10713
  153.6069  135.6997  153.5362 H   0  0  0  0  0  0  0  0  0  0  0  0  # atno 10763 bound_to 10752
  153.3049  135.4118  155.1285 H   0  0  0  0  0  0  0  0  0  0  0  0  # atno 10764 bound_to 10752
  154.8571  135.3658  154.5607 H   0  0  0  0  0  0  0  0  0  0  0  0  # atno 10765 bound_to 10752
  139.9253  134.9640  156.8054 H   0  0  0  0  0  0  0  0  0  0  0  0  # atno 11005 bound_to 11000
  146.3178  139.7990  142.8969 LP  0  0  0  0  0  0  0  0  0  0  0  0  # atno 17320 bound_to 7965
  145.3386  141.0283  143.3405 LP  0  0  0  0  0  0  0  0  0  0  0  0  # atno 17321 bound_to 7965
  140.5085  144.1061  150.5989 LP  0  0  0  0  0  0  0  0  0  0  0  0  # atno 17342 bound_to 10162
  140.3978  143.2719  151.9983 LP  0  0  0  0  0  0  0  0  0  0  0  0  # atno 17343 bound_to 10162
  157.1843  130.6323  149.5682 LP  0  0  0  0  0  0  0  0  0  0  0  0  # atno 17370 bound_to 10713
  155.9770  130.4743  150.6563 LP  0  0  0  0  0  0  0  0  0  0  0  0  # atno 17371 bound_to 10713
  140.6355  133.9866  155.7682 LP  0  0  0  0  0  0  0  0  0  0  0  0  # atno 17394 bound_to 11000
  141.0805  134.0069  157.3393 LP  0  0  0  0  0  0  0  0  0  0  0  0  # atno 17395 bound_to 11000

$$$$
