AV-unprocessed.smi:213|AV-procd|sdf|1644|dock2
  -GOLD-   2262020 13D 1   1.00000     0.00000
 Structure written by MMmdl.
 58 61  0  0  0  0  0  0  0  0  1 V2000
  145.2393  136.0486  154.7529 C   0  0  0  0  0  0  0  0  0  0  0  0
  146.2265  136.2973  153.5947 C   0  0  1  0  0  0  0  0  0  0  0  0
  145.5666  136.1352  152.2037 C   0  0  0  0  0  0  0  0  0  0  0  0
  145.2942  134.7603  151.7806 N   0  0  0  0  0  0  0  0  0  0  0  0
  146.5349  134.0020  151.6594 C   0  0  0  0  0  0  0  0  0  0  0  0
  146.2834  132.5456  151.2344 C   0  0  0  0  0  0  0  0  0  0  0  0
  145.5635  132.5288  150.0067 O   0  0  0  0  0  0  0  0  0  0  0  0
  144.3184  133.2131  150.0952 C   0  0  0  0  0  0  0  0  0  0  0  0
  144.5526  134.6719  150.5262 C   0  0  0  0  0  0  0  0  0  0  0  0
  146.8281  137.6264  153.7348 N   0  0  0  0  0  0  0  0  0  0  0  0
  146.7414  138.6104  152.6578 C   0  0  0  0  0  0  0  0  0  0  0  0
  147.6266  137.9206  154.7952 C   0  0  0  0  0  0  0  0  0  0  0  0
  147.5569  137.1083  155.8831 N   0  0  0  0  0  0  0  0  0  0  0  0
  148.3238  137.3361  156.9527 C   0  0  0  0  0  0  0  0  0  0  0  0
  149.2134  138.3098  157.1484 N   0  0  0  0  0  0  0  0  0  0  0  0
  149.2796  139.1407  156.0701 C   0  0  0  0  0  0  0  0  0  0  0  0
  148.5310  139.0235  154.8631 C   0  0  0  0  0  0  0  0  0  0  0  0
  148.8638  140.0708  154.0099 N   0  0  0  0  0  0  0  0  0  0  0  0
  149.7585  140.7561  154.6654 C   0  0  0  0  0  0  0  0  0  0  0  0
  150.0629  140.2707  155.9155 N   0  0  0  0  0  0  0  0  0  0  0  0
  151.0061  140.8367  156.8628 C   0  0  0  0  0  0  0  0  0  0  0  0
  150.6680  142.2886  157.2639 C   0  0  1  0  0  0  0  0  0  0  0  0
  149.2752  142.4580  157.0913 O   0  0  0  0  0  0  0  0  0  0  0  0
  151.0450  142.6566  158.7165 C   0  0  2  0  0  0  0  0  0  0  0  0
  151.0748  144.1603  159.0009 C   0  0  0  0  0  0  0  0  0  0  0  0
  152.0256  144.2904  160.1806 C   0  0  0  0  0  0  0  0  0  0  0  0
  152.7555  142.9461  160.2177 C   0  0  0  0  0  0  0  0  0  0  0  0
  152.3870  142.2977  159.0101 O   0  0  0  0  0  0  0  0  0  0  0  0
  144.8358  135.0380  154.7407 H   0  0  0  0  0  0  0  0  0  0  0  0
  144.3908  136.7321  154.7173 H   0  0  0  0  0  0  0  0  0  0  0  0
  145.7318  136.1842  155.7165 H   0  0  0  0  0  0  0  0  0  0  0  0
  147.0149  135.5527  153.7020 H   0  0  0  0  0  0  0  0  0  0  0  0
  144.6560  136.7338  152.1502 H   0  0  0  0  0  0  0  0  0  0  0  0
  146.2396  136.5735  151.4649 H   0  0  0  0  0  0  0  0  0  0  0  0
  147.1903  134.4807  150.9303 H   0  0  0  0  0  0  0  0  0  0  0  0
  147.0683  134.0103  152.6105 H   0  0  0  0  0  0  0  0  0  0  0  0
  147.2294  132.0207  151.1011 H   0  0  0  0  0  0  0  0  0  0  0  0
  145.7237  132.0094  152.0024 H   0  0  0  0  0  0  0  0  0  0  0  0
  143.8224  133.1796  149.1251 H   0  0  0  0  0  0  0  0  0  0  0  0
  143.6663  132.7022  150.8054 H   0  0  0  0  0  0  0  0  0  0  0  0
  143.5803  135.1496  150.6338 H   0  0  0  0  0  0  0  0  0  0  0  0
  145.0876  135.2044  149.7387 H   0  0  0  0  0  0  0  0  0  0  0  0
  147.7044  139.0951  152.4921 H   0  0  0  0  0  0  0  0  0  0  0  0
  146.0061  139.3769  152.9033 H   0  0  0  0  0  0  0  0  0  0  0  0
  146.4443  138.1433  151.7189 H   0  0  0  0  0  0  0  0  0  0  0  0
  148.2078  136.6378  157.7684 H   0  0  0  0  0  0  0  0  0  0  0  0
  150.2136  141.6462  154.2559 H   0  0  0  0  0  0  0  0  0  0  0  0
  151.0239  140.1955  157.7452 H   0  0  0  0  0  0  0  0  0  0  0  0
  152.0038  140.7898  156.4234 H   0  0  0  0  0  0  0  0  0  0  0  0
  151.1655  142.9781  156.5810 H   0  0  0  0  0  0  0  0  0  0  0  0
  149.1322  143.1664  156.4828 H   0  0  0  0  0  0  0  0  0  0  0  0
  150.3781  142.1576  159.4223 H   0  0  0  0  0  0  0  0  0  0  0  0
  151.4847  144.6959  158.1434 H   0  0  0  0  0  0  0  0  0  0  0  0
  150.0856  144.5691  159.2092 H   0  0  0  0  0  0  0  0  0  0  0  0
  152.7157  145.1219  160.0341 H   0  0  0  0  0  0  0  0  0  0  0  0
  151.4861  144.4606  161.1127 H   0  0  0  0  0  0  0  0  0  0  0  0
  153.8377  143.0569  160.2884 H   0  0  0  0  0  0  0  0  0  0  0  0
  152.4173  142.3472  161.0647 H   0  0  0  0  0  0  0  0  0  0  0  0
  1  2  1  0  0  0  0
  1 29  1  0  0  0  0
  1 30  1  0  0  0  0
  1 31  1  0  0  0  0
  2  3  1  0  0  0  0
  2 10  1  0  0  0  0
  2 32  1  0  0  0  0
  3  4  1  0  0  0  0
  3 33  1  0  0  0  0
  3 34  1  0  0  0  0
  4  9  1  0  0  0  0
  4  5  1  0  0  0  0
  5  6  1  0  0  0  0
  5 35  1  0  0  0  0
  5 36  1  0  0  0  0
  6  7  1  0  0  0  0
  6 37  1  0  0  0  0
  6 38  1  0  0  0  0
  7  8  1  0  0  0  0
  8  9  1  0  0  0  0
  8 39  1  0  0  0  0
  8 40  1  0  0  0  0
  9 41  1  0  0  0  0
  9 42  1  0  0  0  0
 10 11  1  0  0  0  0
 10 12  1  0  0  0  0
 11 43  1  0  0  0  0
 11 44  1  0  0  0  0
 11 45  1  0  0  0  0
 12 17  1  0  0  0  0
 12 13  2  0  0  0  0
 13 14  1  0  0  0  0
 14 15  2  0  0  0  0
 14 46  1  0  0  0  0
 15 16  1  0  0  0  0
 16 20  1  0  0  0  0
 16 17  2  0  0  0  0
 17 18  1  0  0  0  0
 18 19  2  0  0  0  0
 19 20  1  0  0  0  0
 19 47  1  0  0  0  0
 20 21  1  0  0  0  0
 21 22  1  0  0  0  0
 21 48  1  0  0  0  0
 21 49  1  0  0  0  0
 22 23  1  0  0  0  0
 22 24  1  0  0  0  0
 22 50  1  0  0  0  0
 23 51  1  0  0  0  0
 24 28  1  0  0  0  0
 24 25  1  0  0  0  0
 24 52  1  0  0  0  0
 25 26  1  0  0  0  0
 25 53  1  0  0  0  0
 25 54  1  0  0  0  0
 26 27  1  0  0  0  0
 26 55  1  0  0  0  0
 26 56  1  0  0  0  0
 27 28  1  0  0  0  0
 27 57  1  0  0  0  0
 27 58  1  0  0  0  0
M  END
> <s_m_source_file>
AV-unprocessed.smi

> <i_m_source_file_index>
213

> <i_lp_mmshare_version>
43012

> <i_f3d_flags>
0

> <s_epik_input>
W0NIMl0xW0NIMl1PW0NIMl1bQ0gyXU4xW0NIMl1bQ0BASF0oW0NIM10pTihbQ0gzXSljKG5bY0hdbjIpYyhjMjMpbltjSF1uM1tDSDJdW0NASF0oW09IXSlbQ0BASF00W0NIMl1bQ0gyXVtDSDJdTzQ=

> <s_epik_cmdline>
J2VwaWtfcHl0aG9uJywgJy1waCcsICc3LjAnLCAnLXRuJywgJzgnLCAnLW1hJywgJzIwMCcsICctbWV0YWxfYmluZGluZycsICctaW1hZScsICc8aW5maWxlLm1hZT4nLCAnLW9tYWUnLCAnPG91dGZpbGUubWFlPic=

> <r_lp_tautomer_probability>
1

> <r_epik_Ionization_Penalty>
0.423322

> <r_epik_Ionization_Penalty_Charging>
0

> <r_epik_Ionization_Penalty_Neutral>
0.423322

> <r_epik_State_Penalty>
0.569486

> <r_epik_Charging_Adjusted_Penalty>
0.569486

> <i_epik_Tot_Q>
0

> <i_epik_Tot_abs_Q>
0

> <r_epik_Metal_State_Penalty>
0.568671

> <b_epik_Metal_Only>
0

> <s_lp_Force_Field>
OPLS_2005

> <r_lp_Energy>
52.699

> <b_lp_Chiralities_Consistent>
1

> <s_lp_Variant>
AV-unprocessed.smi:213-12

> <Gold.Version>
5.8.1

> <Gold.Id.Protein>
6NUR|6NUR_protein|mol2

> <Gold.PLP.Fitness>
41.5259

> <Gold.PLP.PLP>
-40.0837

> <Gold.PLP.part.hbond>
-0.8751

> <Gold.PLP.part.metal>
0.0000

> <Gold.PLP.part.buried>
-5.2255

> <Gold.PLP.part.nonpolar>
-37.0852

> <Gold.PLP.part.repulsive>
2.6726

> <Gold.PLP.ligand.clash>
0.0000

> <Gold.PLP.ligand.torsion>
0.9065

> <Gold.PLP.Chemscore.Hbond>
1.0000

> <Gold.PLP.Chemscore.CHOScore>
0.0000

> <Gold.PLP.Chemscore.Metal>
0.0000

> <Gold.Chemscore.Hbonds>
donor molecule, donor type, donor heavy atom, donor atom, acceptor molecule, acceptor atom, score
      L1  H    23    51       P1  8028  1.00

> <Gold.PLP.Chemscore.Internal.Correction>
0.2553

> <Gold.Rescore>
     Score         DG    S(hbond)    S(metal)    S(lipo)     H(rot)  DE(clash)    DE(int)     intcor
      8.03     -14.49       1.00        0.00     108.36       2.74       2.94       3.52       ----

> <Gold.Chemscore.Fitness>
8.0259

> <Gold.Chemscore.DG>
-14.4893

> <Gold.Chemscore.ZeroCoef>
-5.4800

> <Gold.Chemscore.Hbond>
1.0000

> <Gold.Chemscore.Metal>
0.0000

> <Gold.Chemscore.Lipo>
108.3589

> <Gold.Chemscore.Internal_Hbond>
0.0000

> <Gold.Chemscore.DEClash>
2.9402

> <Gold.Chemscore.DEInternal>
3.5232

> <Gold.Chemscore.Rot>
2.7378

> <Gold.Chemscore.Internal.Correction>
   9.000000E+99

> <Gold.Chemscore.Hbonds>
donor molecule, donor type, donor heavy atom, donor atom, acceptor molecule, acceptor atom, score
      L1  H    23    51       P1  8028  1.00

> <Gold.Chemscore.Hbond.Weighted>
-3.3399

> <Gold.Chemscore.Metal.Weighted>
-0.0000

> <Gold.Chemscore.Lipo.Weighted>
-12.6780

> <Gold.Chemscore.Internal_Hbond.Weighted>
0.0000

> <Gold.Chemscore.DEClash.Weighted>
2.9402

> <Gold.Chemscore.DEInternal.Weighted>
3.5232

> <Gold.Chemscore.Rot.Weighted>
7.0087

> <Gold.Chemscore.Internal.Correction.Weighted>
   9.000000E+99

> <Gold.Protein.RotatedTorsions>
[ 6907 6896 6895 6894 ] final -102.93 input  -60.11 | X-H torsion
[ 7974 7965 7964 7962 ] final   66.15 input  175.53 | X-H torsion
[ 8008 7997 7996 7995 ] final -135.36 input   59.86 | X-H torsion
[ 10167 10162 10161 10158 ] final   79.85 input  -65.29 | X-H torsion
[ 10718 10713 10712 10709 ] final   -6.04 input   66.30 | X-H torsion
[ 10763 10752 10751 10750 ] final   54.60 input  -60.55 | X-H torsion
[ 11005 11000 10999 10996 ] final   -5.00 input  -57.11 | X-H torsion

> <Gold.Protein.ActiveResidues>
 VAL166  LYS551  ARG553  GLY616  TRP617  ASP618  TYR619  PRO620  LYS621  CYS622 
 ASP623  PHE694  ASN695  SER759  ASP760  ASP761  ALA762  ILE779  LEU786  VAL792 
 PHE793  MET794  SER795  GLU796  ALA797  LYS798  CYS799  TRP800  GLU811  SER814 

> <Gold.Protein.RotatedAtoms>
  150.7218  134.0506  159.3796 H   0  0  0  0  0  0  0  0  0  0  0  0  # atno 6907 bound_to 6896
  151.8483  135.0564  160.0465 H   0  0  0  0  0  0  0  0  0  0  0  0  # atno 6908 bound_to 6896
  152.2810  133.5434  159.5534 H   0  0  0  0  0  0  0  0  0  0  0  0  # atno 6909 bound_to 6896
  145.8301  139.3134  143.0992 H   0  0  0  0  0  0  0  0  0  0  0  0  # atno 7974 bound_to 7965
  155.3774  140.0492  157.3044 H   0  0  0  0  0  0  0  0  0  0  0  0  # atno 8008 bound_to 7997
  154.5099  140.2188  155.9138 H   0  0  0  0  0  0  0  0  0  0  0  0  # atno 8009 bound_to 7997
  156.1571  140.3124  155.8749 H   0  0  0  0  0  0  0  0  0  0  0  0  # atno 8010 bound_to 7997
  139.9560  144.5994  150.8116 H   0  0  0  0  0  0  0  0  0  0  0  0  # atno 10167 bound_to 10162
  156.7378  130.5200  149.5831 H   0  0  0  0  0  0  0  0  0  0  0  0  # atno 10718 bound_to 10713
  152.9806  135.5739  154.4930 H   0  0  0  0  0  0  0  0  0  0  0  0  # atno 10763 bound_to 10752
  154.4462  135.2777  155.1815 H   0  0  0  0  0  0  0  0  0  0  0  0  # atno 10764 bound_to 10752
  154.3463  135.6219  153.5674 H   0  0  0  0  0  0  0  0  0  0  0  0  # atno 10765 bound_to 10752
  140.6864  133.9109  155.8589 H   0  0  0  0  0  0  0  0  0  0  0  0  # atno 11005 bound_to 11000
  145.9580  140.8857  143.0225 LP  0  0  0  0  0  0  0  0  0  0  0  0  # atno 17320 bound_to 7965
  144.6740  140.1773  143.7409 LP  0  0  0  0  0  0  0  0  0  0  0  0  # atno 17321 bound_to 7965
  140.7568  143.3074  151.2929 LP  0  0  0  0  0  0  0  0  0  0  0  0  # atno 17342 bound_to 10162
  139.6591  144.0221  152.2680 LP  0  0  0  0  0  0  0  0  0  0  0  0  # atno 17343 bound_to 10162
  156.1485  130.6294  151.0564 LP  0  0  0  0  0  0  0  0  0  0  0  0  # atno 17370 bound_to 10713
  157.6831  131.0832  150.7315 LP  0  0  0  0  0  0  0  0  0  0  0  0  # atno 17371 bound_to 10713
  141.0277  134.0801  157.4050 LP  0  0  0  0  0  0  0  0  0  0  0  0  # atno 17394 bound_to 11000
  139.8936  135.0131  156.6909 LP  0  0  0  0  0  0  0  0  0  0  0  0  # atno 17395 bound_to 11000

$$$$
