AV-unprocessed.smi:2442|AV-procd|sdf|9627|dock9
  -GOLD-   2272013263D 1   1.00000     0.00000
 Structure written by MMmdl.
 47 48  0  0  0  0  0  0  0  0  2 V2000
  145.2100  135.6429  151.0608 C   0  0  0  0  0  0  0  0  0  0  0  0
  145.3949  134.8969  152.2533 O   0  0  0  0  0  0  0  0  0  0  0  0
  146.1449  133.6988  152.0860 C   0  0  2  0  0  0  0  0  0  0  0  0
  145.1863  132.5114  151.8534 C   0  0  0  0  0  0  0  0  0  0  0  0
  145.9378  131.1726  151.8135 C   0  0  0  0  0  0  0  0  0  0  0  0
  146.7557  130.9628  153.0949 C   0  0  0  0  0  0  0  0  0  0  0  0
  147.7277  132.1294  153.3230 C   0  0  0  0  0  0  0  0  0  0  0  0
  146.9943  133.4845  153.3605 C   0  0  1  0  0  0  0  0  0  0  0  0
  147.9847  134.5512  153.4887 N   0  0  0  0  0  0  0  0  0  0  0  0
  148.2741  135.2139  154.6171 C   0  0  0  0  0  0  0  0  0  0  0  0
  147.7499  134.9905  155.7087 O   0  0  0  0  0  0  0  0  0  0  0  0
  149.2021  136.1591  154.4131 N   0  0  0  0  0  0  0  0  0  0  0  0
  149.7241  137.0446  155.4471 C   0  0  0  0  0  0  0  0  0  0  0  0
  150.7635  138.0286  154.8821 C   0  0  0  0  0  0  0  0  0  0  0  0
  150.3414  139.4777  155.0672 C   0  0  0  0  0  0  0  0  0  0  0  0
  149.2473  139.9770  154.3254 C   0  0  0  0  0  0  0  0  0  0  0  0
  148.8530  141.3199  154.4877 C   0  0  0  0  0  0  0  0  0  0  0  0
  149.5223  142.1161  155.3476 N   0  3  0  0  0  0  0  0  0  0  0  0
  150.5736  141.6842  156.0764 C   0  0  0  0  0  0  0  0  0  0  0  0
  151.0195  140.3493  155.9596 C   0  0  0  0  0  0  0  0  0  0  0  0
  152.2035  139.8856  156.7901 C   0  0  0  0  0  0  0  0  0  0  0  0
  144.6459  136.5481  151.2843 H   0  0  0  0  0  0  0  0  0  0  0  0
  144.6524  135.0823  150.3108 H   0  0  0  0  0  0  0  0  0  0  0  0
  146.1671  135.9443  150.6332 H   0  0  0  0  0  0  0  0  0  0  0  0
  146.8196  133.7934  151.2327 H   0  0  0  0  0  0  0  0  0  0  0  0
  144.4412  132.4838  152.6497 H   0  0  0  0  0  0  0  0  0  0  0  0
  144.6361  132.6385  150.9215 H   0  0  0  0  0  0  0  0  0  0  0  0
  145.2302  130.3531  151.6858 H   0  0  0  0  0  0  0  0  0  0  0  0
  146.5999  131.1489  150.9469 H   0  0  0  0  0  0  0  0  0  0  0  0
  146.0833  130.8730  153.9490 H   0  0  0  0  0  0  0  0  0  0  0  0
  147.3084  130.0248  153.0349 H   0  0  0  0  0  0  0  0  0  0  0  0
  148.2723  131.9741  154.2553 H   0  0  0  0  0  0  0  0  0  0  0  0
  148.4743  132.1341  152.5272 H   0  0  0  0  0  0  0  0  0  0  0  0
  146.3315  133.4801  154.2282 H   0  0  0  0  0  0  0  0  0  0  0  0
  148.4742  134.8149  152.6464 H   0  0  0  0  0  0  0  0  0  0  0  0
  149.5754  136.2697  153.4815 H   0  0  0  0  0  0  0  0  0  0  0  0
  148.8993  137.5807  155.9186 H   0  0  0  0  0  0  0  0  0  0  0  0
  150.1775  136.4306  156.2259 H   0  0  0  0  0  0  0  0  0  0  0  0
  151.7220  137.8730  155.3792 H   0  0  0  0  0  0  0  0  0  0  0  0
  150.9481  137.8328  153.8257 H   0  0  0  0  0  0  0  0  0  0  0  0
  148.7138  139.3382  153.6365 H   0  0  0  0  0  0  0  0  0  0  0  0
  148.0291  141.7772  153.9597 H   0  0  0  0  0  0  0  0  0  0  0  0
  151.0246  142.4184  156.7282 H   0  0  0  0  0  0  0  0  0  0  0  0
  152.6671  140.7212  157.3156 H   0  0  0  0  0  0  0  0  0  0  0  0
  152.9657  139.4257  156.1613 H   0  0  0  0  0  0  0  0  0  0  0  0
  151.8834  139.1568  157.5352 H   0  0  0  0  0  0  0  0  0  0  0  0
  149.2211  143.0856  155.4514 H   0  0  0  0  0  0  0  0  0  0  0  0
  1  2  1  0  0  0  0
  1 22  1  0  0  0  0
  1 23  1  0  0  0  0
  1 24  1  0  0  0  0
  2  3  1  0  0  0  0
  3  8  1  0  0  0  0
  3  4  1  0  0  0  0
  3 25  1  0  0  0  0
  4  5  1  0  0  0  0
  4 26  1  0  0  0  0
  4 27  1  0  0  0  0
  5  6  1  0  0  0  0
  5 28  1  0  0  0  0
  5 29  1  0  0  0  0
  6  7  1  0  0  0  0
  6 30  1  0  0  0  0
  6 31  1  0  0  0  0
  7  8  1  0  0  0  0
  7 32  1  0  0  0  0
  7 33  1  0  0  0  0
  8  9  1  0  0  0  0
  8 34  1  0  0  0  0
  9 10  1  0  0  0  0
  9 35  1  0  0  0  0
 10 11  2  0  0  0  0
 10 12  1  0  0  0  0
 12 13  1  0  0  0  0
 12 36  1  0  0  0  0
 13 14  1  0  0  0  0
 13 37  1  0  0  0  0
 13 38  1  0  0  0  0
 14 15  1  0  0  0  0
 14 39  1  0  0  0  0
 14 40  1  0  0  0  0
 15 20  1  0  0  0  0
 15 16  2  0  0  0  0
 16 17  1  0  0  0  0
 16 41  1  0  0  0  0
 17 18  2  0  0  0  0
 17 42  1  0  0  0  0
 18 19  1  0  0  0  0
 18 47  1  0  0  0  0
 19 20  2  0  0  0  0
 19 43  1  0  0  0  0
 20 21  1  0  0  0  0
 21 44  1  0  0  0  0
 21 45  1  0  0  0  0
 21 46  1  0  0  0  0
M  CHG  1  18   1
M  END
> <s_m_source_file>
AV-unprocessed.smi

> <i_m_source_file_index>
2442

> <i_lp_mmshare_version>
43012

> <i_f3d_flags>
0

> <s_epik_input>
W0NIM11PW0NAQEhdMVtDSDJdW0NIMl1bQ0gyXVtDSDJdW0NASF0xW05IXUMoPU8pW05IXVtDSDJdW0NIMl1jMltjSF1bY0hdbltjSF1jMltDSDNd

> <s_epik_cmdline>
J2VwaWtfcHl0aG9uJywgJy1waCcsICc3LjAnLCAnLXRuJywgJzgnLCAnLW1hJywgJzIwMCcsICctbWV0YWxfYmluZGluZycsICctaW1hZScsICc8aW5maWxlLm1hZT4nLCAnLW9tYWUnLCAnPG91dGZpbGUubWFlPic=

> <r_epik_Ionization_Penalty>
1.07145

> <r_epik_Ionization_Penalty_Charging>
1.0714

> <r_epik_Ionization_Penalty_Neutral>
4.9109e-05

> <r_epik_State_Penalty>
1.12601

> <r_epik_Charging_Adjusted_Penalty>
2.19741

> <i_epik_Tot_Q>
1

> <i_epik_Tot_abs_Q>
1

> <r_epik_Metal_State_Penalty>
1.2173

> <b_epik_Metal_Only>
0

> <s_lp_Force_Field>
OPLS_2005

> <r_lp_Energy>
14.7728

> <b_lp_Chiralities_Consistent>
1

> <s_lp_Variant>
AV-unprocessed.smi:2442-5

> <Gold.Version>
5.8.1

> <Gold.Id.Protein>
6NUR|6NUR_protein|mol2

> <Gold.PLP.Fitness>
43.9773

> <Gold.PLP.PLP>
-35.3655

> <Gold.PLP.part.hbond>
-2.9826

> <Gold.PLP.part.metal>
0.0000

> <Gold.PLP.part.buried>
-2.1695

> <Gold.PLP.part.nonpolar>
-30.2555

> <Gold.PLP.part.repulsive>
0.3382

> <Gold.PLP.ligand.clash>
0.0000

> <Gold.PLP.ligand.torsion>
1.1298

> <Gold.PLP.Chemscore.Hbond>
3.6160

> <Gold.PLP.Chemscore.CHOScore>
0.0000

> <Gold.PLP.Chemscore.Metal>
0.0000

> <Gold.Chemscore.Hbonds>
donor molecule, donor type, donor heavy atom, donor atom, acceptor molecule, acceptor atom, score
      L1  H     9    35       P1  7948  0.80
      L1  H    12    36       P1  7948  0.77
      L1  H    18    47       P1  8028  2.00

> <Gold.PLP.Chemscore.Internal.Correction>
0.0233

> <Gold.Rescore>
     Score         DG    S(hbond)    S(metal)    S(lipo)     H(rot)  DE(clash)    DE(int)     intcor
     17.72     -19.02       2.39        0.00      85.15       1.72       0.00       1.30       ----

> <Gold.Chemscore.Fitness>
17.7237

> <Gold.Chemscore.DG>
-19.0208

> <Gold.Chemscore.ZeroCoef>
-5.4800

> <Gold.Chemscore.Hbond>
2.3929

> <Gold.Chemscore.Metal>
0.0000

> <Gold.Chemscore.Lipo>
85.1544

> <Gold.Chemscore.Internal_Hbond>
0.0000

> <Gold.Chemscore.DEClash>
0.0015

> <Gold.Chemscore.DEInternal>
1.2956

> <Gold.Chemscore.Rot>
1.7244

> <Gold.Chemscore.Internal.Correction>
   9.000000E+99

> <Gold.Chemscore.Hbonds>
donor molecule, donor type, donor heavy atom, donor atom, acceptor molecule, acceptor atom, score
      L1  H     9    35       P1  7948  0.24
      L1  H    12    36       P1  7948  0.34
      L1  H    18    47       P1  8028  1.00

> <Gold.Chemscore.Hbond.Weighted>
-7.9922

> <Gold.Chemscore.Metal.Weighted>
-0.0000

> <Gold.Chemscore.Lipo.Weighted>
-9.9631

> <Gold.Chemscore.Internal_Hbond.Weighted>
0.0000

> <Gold.Chemscore.DEClash.Weighted>
0.0015

> <Gold.Chemscore.DEInternal.Weighted>
1.2956

> <Gold.Chemscore.Rot.Weighted>
4.4145

> <Gold.Chemscore.Internal.Correction.Weighted>
   9.000000E+99

> <Gold.Protein.RotatedTorsions>
[ 6907 6896 6895 6894 ] final   10.79 input  -60.11 | X-H torsion
[ 7974 7965 7964 7962 ] final  162.37 input  175.53 | X-H torsion
[ 8008 7997 7996 7995 ] final  -19.21 input   59.86 | X-H torsion
[ 10167 10162 10161 10158 ] final   34.35 input  -65.29 | X-H torsion
[ 10718 10713 10712 10709 ] final  -61.96 input   66.30 | X-H torsion
[ 10763 10752 10751 10750 ] final  -50.78 input  -60.55 | X-H torsion
[ 11005 11000 10999 10996 ] final  -45.79 input  -57.11 | X-H torsion

> <Gold.Protein.ActiveResidues>
 VAL166  LYS551  ARG553  GLY616  TRP617  ASP618  TYR619  PRO620  LYS621  CYS622 
 ASP623  PHE694  ASN695  SER759  ASP760  ASP761  ALA762  ILE779  LEU786  VAL792 
 PHE793  MET794  SER795  GLU796  ALA797  LYS798  CYS799  TRP800  GLU811  SER814 

> <Gold.Protein.RotatedAtoms>
  151.7439  135.0848  160.0319 H   0  0  0  0  0  0  0  0  0  0  0  0  # atno 6907 bound_to 6896
  152.3461  133.6120  159.5919 H   0  0  0  0  0  0  0  0  0  0  0  0  # atno 6908 bound_to 6896
  150.7510  133.9563  159.3543 H   0  0  0  0  0  0  0  0  0  0  0  0  # atno 6909 bound_to 6896
  144.7640  139.8030  143.6322 H   0  0  0  0  0  0  0  0  0  0  0  0  # atno 7974 bound_to 7965
  154.4852  140.2095  155.9671 H   0  0  0  0  0  0  0  0  0  0  0  0  # atno 8008 bound_to 7997
  156.1226  140.3211  155.8199 H   0  0  0  0  0  0  0  0  0  0  0  0  # atno 8009 bound_to 7997
  155.4441  140.0512  157.2998 H   0  0  0  0  0  0  0  0  0  0  0  0  # atno 8010 bound_to 7997
  140.4323  144.1306  150.6161 H   0  0  0  0  0  0  0  0  0  0  0  0  # atno 10167 bound_to 10162
  156.0887  130.4204  150.1067 H   0  0  0  0  0  0  0  0  0  0  0  0  # atno 10718 bound_to 10713
  154.1160  135.6542  153.4894 H   0  0  0  0  0  0  0  0  0  0  0  0  # atno 10763 bound_to 10752
  153.0241  135.5259  154.7144 H   0  0  0  0  0  0  0  0  0  0  0  0  # atno 10764 bound_to 10752
  154.6338  135.2979  155.0155 H   0  0  0  0  0  0  0  0  0  0  0  0  # atno 10765 bound_to 10752
  141.0538  133.6733  156.3063 H   0  0  0  0  0  0  0  0  0  0  0  0  # atno 11005 bound_to 11000
  146.1730  139.4889  142.9915 LP  0  0  0  0  0  0  0  0  0  0  0  0  # atno 17320 bound_to 7965
  145.6528  141.0259  143.1751 LP  0  0  0  0  0  0  0  0  0  0  0  0  # atno 17321 bound_to 7965
  140.4413  143.2525  151.9470 LP  0  0  0  0  0  0  0  0  0  0  0  0  # atno 17342 bound_to 10162
  139.4785  144.5652  151.8176 LP  0  0  0  0  0  0  0  0  0  0  0  0  # atno 17343 bound_to 10162
  156.9083  130.9643  151.3567 LP  0  0  0  0  0  0  0  0  0  0  0  0  # atno 17370 bound_to 10713
  157.6029  130.8526  149.8830 LP  0  0  0  0  0  0  0  0  0  0  0  0  # atno 17371 bound_to 10713
  140.6004  134.5561  157.5516 LP  0  0  0  0  0  0  0  0  0  0  0  0  # atno 17394 bound_to 11000
  139.9372  134.7852  156.0771 LP  0  0  0  0  0  0  0  0  0  0  0  0  # atno 17395 bound_to 11000

$$$$
