AV-unprocessed.smi:837|AV-procd|sdf|3904|dock1
  -GOLD-   22720 1363D 1   1.00000     0.00000
 Structure written by MMmdl.
 49 51  0  0  0  0  0  0  0  0  3 V2000
  150.4354  142.2572  157.7280 C   0  0  0  0  0  0  0  0  0  0  0  0
  151.3202  141.4473  158.7008 C   0  0  2  0  0  0  0  0  0  0  0  0
  152.5239  142.2894  159.1773 C   0  0  0  0  0  0  0  0  0  0  0  0
  153.3595  141.5470  160.2311 C   0  0  0  0  0  0  0  0  0  0  0  0
  153.8394  140.1893  159.7016 C   0  0  0  0  0  0  0  0  0  0  0  0
  152.6547  139.3291  159.2299 C   0  0  0  0  0  0  0  0  0  0  0  0
  151.7758  140.0477  158.1733 C   0  0  2  0  0  0  0  0  0  0  0  0
  152.4895  140.1525  156.9096 N   0  5  0  0  0  0  0  0  0  0  0  0
  151.8251  139.4416  155.9703 C   0  0  0  0  0  0  0  0  0  0  0  0
  152.1515  139.2979  154.7922 O   0  0  0  0  0  0  0  0  0  0  0  0
  150.7244  138.8634  156.4880 N   0  0  0  0  0  0  0  0  0  0  0  0
  149.8211  137.9736  155.7491 C   0  0  0  0  0  0  0  0  0  0  0  0
  150.5008  136.6329  155.4587 C   0  0  0  0  0  0  0  0  0  0  0  0
  151.5666  136.5967  154.8445 O   0  0  0  0  0  0  0  0  0  0  0  0
  149.8576  135.5394  155.8934 N   0  0  0  0  0  0  0  0  0  0  0  0
  150.2611  134.1596  155.6422 C   0  0  0  0  0  0  0  0  0  0  0  0
  149.3879  133.4457  154.5851 C   0  0  0  0  0  0  0  0  0  0  0  0
  149.5019  131.9278  154.5910 C   0  0  0  0  0  0  0  0  0  0  0  0
  148.6615  131.1423  153.7697 C   0  0  0  0  0  0  0  0  0  0  0  0
  148.7794  129.7375  153.7995 C   0  0  0  0  0  0  0  0  0  0  0  0
  149.7251  129.1460  154.6601 C   0  0  0  0  0  0  0  0  0  0  0  0
  150.5121  129.9274  155.4312 N   0  3  0  0  0  0  0  0  0  0  0  0
  150.4389  131.2765  155.4230 C   0  0  0  0  0  0  0  0  0  0  0  0
  150.6040  139.1560  157.7874 C   0  0  0  0  0  0  0  0  0  0  0  0
  149.7246  138.7797  158.5633 O   0  0  0  0  0  0  0  0  0  0  0  0
  150.9684  142.5027  156.8092 H   0  0  0  0  0  0  0  0  0  0  0  0
  150.1202  143.1965  158.1826 H   0  0  0  0  0  0  0  0  0  0  0  0
  149.5300  141.7160  157.4539 H   0  0  0  0  0  0  0  0  0  0  0  0
  150.7056  141.2667  159.5845 H   0  0  0  0  0  0  0  0  0  0  0  0
  153.1554  142.5499  158.3270 H   0  0  0  0  0  0  0  0  0  0  0  0
  152.1741  143.2329  159.5970 H   0  0  0  0  0  0  0  0  0  0  0  0
  154.2156  142.1558  160.5232 H   0  0  0  0  0  0  0  0  0  0  0  0
  152.7629  141.3983  161.1321 H   0  0  0  0  0  0  0  0  0  0  0  0
  154.5383  140.3426  158.8784 H   0  0  0  0  0  0  0  0  0  0  0  0
  154.3924  139.6629  160.4798 H   0  0  0  0  0  0  0  0  0  0  0  0
  153.0219  138.3766  158.8453 H   0  0  0  0  0  0  0  0  0  0  0  0
  152.0451  139.0798  160.1000 H   0  0  0  0  0  0  0  0  0  0  0  0
  148.9092  137.7911  156.3199 H   0  0  0  0  0  0  0  0  0  0  0  0
  149.4988  138.4468  154.8197 H   0  0  0  0  0  0  0  0  0  0  0  0
  148.9904  135.6757  156.3929 H   0  0  0  0  0  0  0  0  0  0  0  0
  151.3146  134.1177  155.3625 H   0  0  0  0  0  0  0  0  0  0  0  0
  150.1751  133.6319  156.5922 H   0  0  0  0  0  0  0  0  0  0  0  0
  148.3437  133.7189  154.7421 H   0  0  0  0  0  0  0  0  0  0  0  0
  149.6438  133.8117  153.5905 H   0  0  0  0  0  0  0  0  0  0  0  0
  147.9263  131.6062  153.1285 H   0  0  0  0  0  0  0  0  0  0  0  0
  148.1386  129.1206  153.1867 H   0  0  0  0  0  0  0  0  0  0  0  0
  149.8680  128.0801  154.7595 H   0  0  0  0  0  0  0  0  0  0  0  0
  151.1174  131.7890  156.0887 H   0  0  0  0  0  0  0  0  0  0  0  0
  151.1859  129.4783  156.0517 H   0  0  0  0  0  0  0  0  0  0  0  0
  1  2  1  0  0  0  0
  1 26  1  0  0  0  0
  1 27  1  0  0  0  0
  1 28  1  0  0  0  0
  2  7  1  0  0  0  0
  2  3  1  0  0  0  0
  2 29  1  0  0  0  0
  3  4  1  0  0  0  0
  3 30  1  0  0  0  0
  3 31  1  0  0  0  0
  4  5  1  0  0  0  0
  4 32  1  0  0  0  0
  4 33  1  0  0  0  0
  5  6  1  0  0  0  0
  5 34  1  0  0  0  0
  5 35  1  0  0  0  0
  6  7  1  0  0  0  0
  6 36  1  0  0  0  0
  6 37  1  0  0  0  0
  7 24  1  0  0  0  0
  7  8  1  0  0  0  0
  8  9  1  0  0  0  0
  9 10  2  0  0  0  0
  9 11  1  0  0  0  0
 11 12  1  0  0  0  0
 11 24  1  0  0  0  0
 12 13  1  0  0  0  0
 12 38  1  0  0  0  0
 12 39  1  0  0  0  0
 13 14  2  0  0  0  0
 13 15  1  0  0  0  0
 15 16  1  0  0  0  0
 15 40  1  0  0  0  0
 16 17  1  0  0  0  0
 16 41  1  0  0  0  0
 16 42  1  0  0  0  0
 17 18  1  0  0  0  0
 17 43  1  0  0  0  0
 17 44  1  0  0  0  0
 18 23  1  0  0  0  0
 18 19  2  0  0  0  0
 19 20  1  0  0  0  0
 19 45  1  0  0  0  0
 20 21  2  0  0  0  0
 20 46  1  0  0  0  0
 21 22  1  0  0  0  0
 21 47  1  0  0  0  0
 22 23  2  0  0  0  0
 22 49  1  0  0  0  0
 23 48  1  0  0  0  0
 24 25  2  0  0  0  0
M  CHG  1   8  -1
M  CHG  1  22   1
M  END
> <s_m_source_file>
AV-unprocessed.smi

> <i_m_source_file_index>
837

> <i_lp_mmshare_version>
43012

> <i_f3d_flags>
0

> <s_epik_input>
W0NIMl0xW0NIMl1bQ0gyXVtDSDJdW0NAQEhdKFtDSDNdKVtDQEBdMTJbTkhdQyg9TylOKEMyPU8pW0NIMl1DKD1PKVtOSF1bQ0gyXVtDSDJdYzNbY0hdW2NIXVtjSF1uW2NIXTM=

> <s_epik_cmdline>
J2VwaWtfcHl0aG9uJywgJy1waCcsICc3LjAnLCAnLXRuJywgJzgnLCAnLW1hJywgJzIwMCcsICctbWV0YWxfYmluZGluZycsICctaW1hZScsICc8aW5maWxlLm1hZT4nLCAnLW9tYWUnLCAnPG91dGZpbGUubWFlPic=

> <r_lp_tautomer_probability>
1

> <r_epik_Ionization_Penalty>
8.27169

> <r_epik_Ionization_Penalty_Charging>
8.27169

> <r_epik_Ionization_Penalty_Neutral>
1.56557e-07

> <r_epik_State_Penalty>
8.42098

> <r_epik_Charging_Adjusted_Penalty>
16.6927

> <i_epik_Tot_Q>
0

> <i_epik_Tot_abs_Q>
2

> <r_epik_Metal_State_Penalty>
4.38565

> <b_epik_Metal_Only>
1

> <s_lp_Force_Field>
OPLS_2005

> <r_lp_Energy>
17.0357

> <b_lp_Chiralities_Consistent>
1

> <s_lp_Variant>
AV-unprocessed.smi:837-13

> <Gold.Version>
5.8.1

> <Gold.Id.Protein>
6NUR|6NUR_protein|mol2

> <Gold.PLP.Fitness>
53.1724

> <Gold.PLP.PLP>
-42.3108

> <Gold.PLP.part.hbond>
-3.0000

> <Gold.PLP.part.metal>
0.0000

> <Gold.PLP.part.buried>
-4.7748

> <Gold.PLP.part.nonpolar>
-33.7664

> <Gold.PLP.part.repulsive>
0.2639

> <Gold.PLP.ligand.clash>
0.0000

> <Gold.PLP.ligand.torsion>
0.3404

> <Gold.PLP.Chemscore.Hbond>
3.8320

> <Gold.PLP.Chemscore.CHOScore>
0.0000

> <Gold.PLP.Chemscore.Metal>
0.0000

> <Gold.Chemscore.Hbonds>
donor molecule, donor type, donor heavy atom, donor atom, acceptor molecule, acceptor atom, score
      P1  H  7989  7998       L1    10  0.74
      P1  H  7997  8008       L1     8  2.00
      P1  H 10752 10765       L1    14  1.00

> <Gold.PLP.Chemscore.Internal.Correction>
0.0464

> <Gold.Rescore>
     Score         DG    S(hbond)    S(metal)    S(lipo)     H(rot)  DE(clash)    DE(int)     intcor
     18.90     -20.69       2.85        0.00      90.55       1.92       0.06       1.72       ----

> <Gold.Chemscore.Fitness>
18.9008

> <Gold.Chemscore.DG>
-20.6864

> <Gold.Chemscore.ZeroCoef>
-5.4800

> <Gold.Chemscore.Hbond>
2.8505

> <Gold.Chemscore.Metal>
0.0000

> <Gold.Chemscore.Lipo>
90.5515

> <Gold.Chemscore.Internal_Hbond>
0.0000

> <Gold.Chemscore.DEClash>
0.0611

> <Gold.Chemscore.DEInternal>
1.7246

> <Gold.Chemscore.Rot>
1.9175

> <Gold.Chemscore.Internal.Correction>
   9.000000E+99

> <Gold.Chemscore.Hbonds>
donor molecule, donor type, donor heavy atom, donor atom, acceptor molecule, acceptor atom, score
      P1  H  7989  7998       L1    10  0.69
      P1  H  7997  8008       L1     8  0.58
      P1  H 10752 10765       L1    14  1.00

> <Gold.Chemscore.Hbond.Weighted>
-9.5206

> <Gold.Chemscore.Metal.Weighted>
-0.0000

> <Gold.Chemscore.Lipo.Weighted>
-10.5945

> <Gold.Chemscore.Internal_Hbond.Weighted>
0.0000

> <Gold.Chemscore.DEClash.Weighted>
0.0611

> <Gold.Chemscore.DEInternal.Weighted>
1.7246

> <Gold.Chemscore.Rot.Weighted>
4.9087

> <Gold.Chemscore.Internal.Correction.Weighted>
   9.000000E+99

> <Gold.Protein.RotatedTorsions>
[ 6907 6896 6895 6894 ] final  -21.78 input  -60.11 | X-H torsion
[ 7974 7965 7964 7962 ] final  132.64 input  175.53 | X-H torsion
[ 8008 7997 7996 7995 ] final  -45.48 input   59.86 | X-H torsion
[ 10167 10162 10161 10158 ] final -116.25 input  -65.29 | X-H torsion
[ 10718 10713 10712 10709 ] final  168.90 input   66.30 | X-H torsion
[ 10763 10752 10751 10750 ] final -178.45 input  -60.55 | X-H torsion
[ 11005 11000 10999 10996 ] final  -90.87 input  -57.11 | X-H torsion

> <Gold.Protein.ActiveResidues>
 VAL166  LYS551  ARG553  GLY616  TRP617  ASP618  TYR619  PRO620  LYS621  CYS622 
 ASP623  PHE694  ASN695  SER759  ASP760  ASP761  ALA762  ILE779  LEU786  VAL792 
 PHE793  MET794  SER795  GLU796  ALA797  LYS798  CYS799  TRP800  GLU811  SER814 

> <Gold.Protein.RotatedAtoms>
  151.2283  135.0544  159.8976 H   0  0  0  0  0  0  0  0  0  0  0  0  # atno 6907 bound_to 6896
  152.5408  134.0565  159.8143 H   0  0  0  0  0  0  0  0  0  0  0  0  # atno 6908 bound_to 6896
  151.0741  133.5394  159.2656 H   0  0  0  0  0  0  0  0  0  0  0  0  # atno 6909 bound_to 6896
  144.9947  139.4371  143.5322 H   0  0  0  0  0  0  0  0  0  0  0  0  # atno 7974 bound_to 7965
  154.4001  140.1395  156.3854 H   0  0  0  0  0  0  0  0  0  0  0  0  # atno 8008 bound_to 7997
  155.7964  140.3477  155.5357 H   0  0  0  0  0  0  0  0  0  0  0  0  # atno 8009 bound_to 7997
  155.8527  140.0944  157.1654 H   0  0  0  0  0  0  0  0  0  0  0  0  # atno 8010 bound_to 7997
  140.0813  143.4785  152.1924 H   0  0  0  0  0  0  0  0  0  0  0  0  # atno 10167 bound_to 10162
  157.0305  131.0258  151.2746 H   0  0  0  0  0  0  0  0  0  0  0  0  # atno 10718 bound_to 10713
  154.5475  135.2810  155.1039 H   0  0  0  0  0  0  0  0  0  0  0  0  # atno 10763 bound_to 10752
  154.2497  135.6341  153.5239 H   0  0  0  0  0  0  0  0  0  0  0  0  # atno 10764 bound_to 10752
  152.9994  135.5580  154.6032 H   0  0  0  0  0  0  0  0  0  0  0  0  # atno 10765 bound_to 10752
  141.1557  133.7719  156.9799 H   0  0  0  0  0  0  0  0  0  0  0  0  # atno 11005 bound_to 11000
  146.3439  139.9300  142.8755 LP  0  0  0  0  0  0  0  0  0  0  0  0  # atno 17320 bound_to 7965
  145.2236  140.9945  143.4031 LP  0  0  0  0  0  0  0  0  0  0  0  0  # atno 17321 bound_to 7965
  139.5778  144.7496  151.3719 LP  0  0  0  0  0  0  0  0  0  0  0  0  # atno 17342 bound_to 10162
  140.7076  143.7473  150.7510 LP  0  0  0  0  0  0  0  0  0  0  0  0  # atno 17343 bound_to 10162
  157.5181  130.7981  149.7779 LP  0  0  0  0  0  0  0  0  0  0  0  0  # atno 17370 bound_to 10713
  156.0071  130.3850  150.2392 LP  0  0  0  0  0  0  0  0  0  0  0  0  # atno 17371 bound_to 10713
  140.1073  134.9499  157.2013 LP  0  0  0  0  0  0  0  0  0  0  0  0  # atno 17394 bound_to 11000
  140.3240  134.2884  155.7240 LP  0  0  0  0  0  0  0  0  0  0  0  0  # atno 17395 bound_to 11000

$$$$
