AV-unprocessed.smi:282|AV-procd|sdf|2122|dock9
  -GOLD-   2262021423D 1   1.00000     0.00000
 Structure written by MMmdl.
 65 69  0  0  0  0  0  0  0  0  2 V2000
  147.1504  129.7481  155.6728 C   0  0  0  0  0  0  0  0  0  0  0  0
  147.2888  131.2606  155.4485 C   0  0  0  0  0  0  0  0  0  0  0  0
  147.5336  131.6636  153.9693 C   0  0  1  0  0  0  0  0  0  0  0  0
  146.4391  131.0570  153.0593 C   0  0  0  0  0  0  0  0  0  0  0  0
  146.5618  131.5018  151.6474 N   0  3  1  0  0  0  0  0  0  0  0  0
  145.5605  130.8808  150.7404 C   0  0  0  0  0  0  0  0  0  0  0  0
  144.1588  131.4999  150.9094 C   0  0  0  0  0  0  0  0  0  0  0  0
  144.2034  133.0256  150.7454 C   0  0  0  0  0  0  0  0  0  0  0  0
  145.2444  133.6373  151.6940 C   0  0  0  0  0  0  0  0  0  0  0  0
  146.6273  132.9807  151.4910 C   0  0  1  0  0  0  0  0  0  0  0  0
  147.7102  133.5771  152.4038 C   0  0  0  0  0  0  0  0  0  0  0  0
  147.5792  133.1222  153.7853 N   0  0  0  0  0  0  0  0  0  0  0  0
  148.4237  133.8290  154.5732 C   0  0  0  0  0  0  0  0  0  0  0  0
  149.5000  133.2232  155.1410 N   0  0  0  0  0  0  0  0  0  0  0  0
  150.3394  133.9329  155.9013 C   0  0  0  0  0  0  0  0  0  0  0  0
  150.2913  135.2307  156.2098 N   0  0  0  0  0  0  0  0  0  0  0  0
  149.2173  135.8418  155.6328 C   0  0  0  0  0  0  0  0  0  0  0  0
  148.2478  135.2193  154.7987 C   0  0  0  0  0  0  0  0  0  0  0  0
  147.3102  136.1513  154.3751 N   0  0  0  0  0  0  0  0  0  0  0  0
  147.7042  137.2657  154.9287 C   0  0  0  0  0  0  0  0  0  0  0  0
  148.8288  137.1683  155.7196 N   0  0  0  0  0  0  0  0  0  0  0  0
  149.4777  138.2506  156.4481 C   0  0  0  0  0  0  0  0  0  0  0  0
  150.1090  139.3698  155.5593 C   0  0  0  0  0  0  0  0  0  0  0  0
  148.9806  140.0463  154.7305 C   0  0  0  0  0  0  0  0  0  0  0  0
  149.4594  140.7920  153.6285 O   0  0  0  0  0  0  0  0  0  0  0  0
  150.8441  140.4366  156.4116 C   0  0  0  0  0  0  0  0  0  0  0  0
  152.1329  139.8931  157.0560 C   0  0  0  0  0  0  0  0  0  0  0  0
  152.9975  139.3764  156.0523 O   0  0  0  0  0  0  0  0  0  0  0  0
  152.4314  138.2785  155.3476 C   0  0  0  0  0  0  0  0  0  0  0  0
  151.1556  138.7281  154.6110 C   0  0  0  0  0  0  0  0  0  0  0  0
  147.0947  129.5223  156.7380 H   0  0  0  0  0  0  0  0  0  0  0  0
  148.0067  129.2095  155.2660 H   0  0  0  0  0  0  0  0  0  0  0  0
  146.2474  129.3486  155.2119 H   0  0  0  0  0  0  0  0  0  0  0  0
  146.4011  131.7675  155.8288 H   0  0  0  0  0  0  0  0  0  0  0  0
  148.1120  131.5951  156.0788 H   0  0  0  0  0  0  0  0  0  0  0  0
  148.4978  131.2622  153.6531 H   0  0  0  0  0  0  0  0  0  0  0  0
  146.4991  129.9690  153.0762 H   0  0  0  0  0  0  0  0  0  0  0  0
  145.4554  131.3221  153.4473 H   0  0  0  0  0  0  0  0  0  0  0  0
  145.8965  131.0221  149.7123 H   0  0  0  0  0  0  0  0  0  0  0  0
  145.5246  129.8030  150.9044 H   0  0  0  0  0  0  0  0  0  0  0  0
  143.4754  131.0704  150.1766 H   0  0  0  0  0  0  0  0  0  0  0  0
  143.7499  131.2469  151.8881 H   0  0  0  0  0  0  0  0  0  0  0  0
  144.4561  133.2757  149.7142 H   0  0  0  0  0  0  0  0  0  0  0  0
  143.2196  133.4550  150.9379 H   0  0  0  0  0  0  0  0  0  0  0  0
  145.3135  134.7108  151.5151 H   0  0  0  0  0  0  0  0  0  0  0  0
  144.9148  133.5230  152.7272 H   0  0  0  0  0  0  0  0  0  0  0  0
  146.9315  133.1803  150.4624 H   0  0  0  0  0  0  0  0  0  0  0  0
  148.6943  133.2827  152.0354 H   0  0  0  0  0  0  0  0  0  0  0  0
  147.6732  134.6668  152.3532 H   0  0  0  0  0  0  0  0  0  0  0  0
  151.1689  133.3835  156.3219 H   0  0  0  0  0  0  0  0  0  0  0  0
  147.1749  138.1964  154.7824 H   0  0  0  0  0  0  0  0  0  0  0  0
  148.7478  138.6588  157.1453 H   0  0  0  0  0  0  0  0  0  0  0  0
  150.2518  137.8032  157.0733 H   0  0  0  0  0  0  0  0  0  0  0  0
  148.2859  139.2958  154.3519 H   0  0  0  0  0  0  0  0  0  0  0  0
  148.4017  140.7319  155.3487 H   0  0  0  0  0  0  0  0  0  0  0  0
  149.3612  140.2695  152.8471 H   0  0  0  0  0  0  0  0  0  0  0  0
  151.1284  141.2807  155.7828 H   0  0  0  0  0  0  0  0  0  0  0  0
  150.1854  140.8511  157.1741 H   0  0  0  0  0  0  0  0  0  0  0  0
  152.6504  140.6968  157.5798 H   0  0  0  0  0  0  0  0  0  0  0  0
  151.9227  139.1241  157.7987 H   0  0  0  0  0  0  0  0  0  0  0  0
  153.1643  137.9166  154.6264 H   0  0  0  0  0  0  0  0  0  0  0  0
  152.2363  137.4509  156.0299 H   0  0  0  0  0  0  0  0  0  0  0  0
  150.7183  137.8854  154.0743 H   0  0  0  0  0  0  0  0  0  0  0  0
  151.4616  139.4418  153.8459 H   0  0  0  0  0  0  0  0  0  0  0  0
  147.4608  131.1555  151.3442 H   0  0  0  0  0  0  0  0  0  0  0  0
  1  2  1  0  0  0  0
  1 31  1  0  0  0  0
  1 32  1  0  0  0  0
  1 33  1  0  0  0  0
  2  3  1  0  0  0  0
  2 34  1  0  0  0  0
  2 35  1  0  0  0  0
  3 12  1  0  0  0  0
  3  4  1  0  0  0  0
  3 36  1  0  0  0  0
  4  5  1  0  0  0  0
  4 37  1  0  0  0  0
  4 38  1  0  0  0  0
  5 10  1  0  0  0  0
  5  6  1  0  0  0  0
  5 65  1  0  0  0  0
  6  7  1  0  0  0  0
  6 39  1  0  0  0  0
  6 40  1  0  0  0  0
  7  8  1  0  0  0  0
  7 41  1  0  0  0  0
  7 42  1  0  0  0  0
  8  9  1  0  0  0  0
  8 43  1  0  0  0  0
  8 44  1  0  0  0  0
  9 10  1  0  0  0  0
  9 45  1  0  0  0  0
  9 46  1  0  0  0  0
 10 11  1  0  0  0  0
 10 47  1  0  0  0  0
 11 12  1  0  0  0  0
 11 48  1  0  0  0  0
 11 49  1  0  0  0  0
 12 13  1  0  0  0  0
 13 18  1  0  0  0  0
 13 14  2  0  0  0  0
 14 15  1  0  0  0  0
 15 16  2  0  0  0  0
 15 50  1  0  0  0  0
 16 17  1  0  0  0  0
 17 21  1  0  0  0  0
 17 18  2  0  0  0  0
 18 19  1  0  0  0  0
 19 20  2  0  0  0  0
 20 21  1  0  0  0  0
 20 51  1  0  0  0  0
 21 22  1  0  0  0  0
 22 23  1  0  0  0  0
 22 52  1  0  0  0  0
 22 53  1  0  0  0  0
 23 30  1  0  0  0  0
 23 24  1  0  0  0  0
 23 26  1  0  0  0  0
 24 25  1  0  0  0  0
 24 54  1  0  0  0  0
 24 55  1  0  0  0  0
 25 56  1  0  0  0  0
 26 27  1  0  0  0  0
 26 57  1  0  0  0  0
 26 58  1  0  0  0  0
 27 28  1  0  0  0  0
 27 59  1  0  0  0  0
 27 60  1  0  0  0  0
 28 29  1  0  0  0  0
 29 30  1  0  0  0  0
 29 61  1  0  0  0  0
 29 62  1  0  0  0  0
 30 63  1  0  0  0  0
 30 64  1  0  0  0  0
M  CHG  1   5   1
M  END
> <s_m_source_file>
AV-unprocessed.smi

> <i_m_source_file_index>
282

> <i_lp_mmshare_version>
43012

> <i_f3d_flags>
0

> <s_epik_input>
W0NIMl0xW0NIMl1bQ0gyXVtDSDJdW0NAQEhdKE4xMilbQ0gyXU4oW0NAQEhdKFtDSDJdMilbQ0gyXVtDSDNdKWMobltjSF1uMyljKGMzNCluW2NIXW40W0NIMl1DNShbQ0gyXVtPSF0pW0NIMl1bQ0gyXU9bQ0gyXVtDSDJdNQ==

> <s_epik_cmdline>
J2VwaWtfcHl0aG9uJywgJy1waCcsICc3LjAnLCAnLXRuJywgJzgnLCAnLW1hJywgJzIwMCcsICctbWV0YWxfYmluZGluZycsICctaW1hZScsICc8aW5maWxlLm1hZT4nLCAnLW9tYWUnLCAnPG91dGZpbGUubWFlPic=

> <r_lp_tautomer_probability>
1

> <r_epik_Ionization_Penalty>
0.00308583

> <r_epik_Ionization_Penalty_Charging>
0.00300384

> <r_epik_Ionization_Penalty_Neutral>
8.19894e-05

> <r_epik_State_Penalty>
-0

> <r_epik_Charging_Adjusted_Penalty>
0.00300384

> <i_epik_Tot_Q>
1

> <i_epik_Tot_abs_Q>
1

> <r_epik_Metal_State_Penalty>
-0

> <b_epik_Metal_Only>
0

> <s_lp_Force_Field>
OPLS_2005

> <r_lp_Energy>
60.0912

> <b_lp_Chiralities_Consistent>
1

> <s_lp_Variant>
AV-unprocessed.smi:282-6

> <Gold.Version>
5.8.1

> <Gold.Id.Protein>
6NUR|6NUR_protein|mol2

> <Gold.PLP.Fitness>
50.8353

> <Gold.PLP.PLP>
-40.1235

> <Gold.PLP.part.hbond>
-4.5450

> <Gold.PLP.part.metal>
0.0000

> <Gold.PLP.part.buried>
-5.6505

> <Gold.PLP.part.nonpolar>
-31.6496

> <Gold.PLP.part.repulsive>
1.5316

> <Gold.PLP.ligand.clash>
0.0000

> <Gold.PLP.ligand.torsion>
0.6170

> <Gold.PLP.Chemscore.Hbond>
3.8944

> <Gold.PLP.Chemscore.CHOScore>
0.0000

> <Gold.PLP.Chemscore.Metal>
0.0000

> <Gold.Chemscore.Hbonds>
donor molecule, donor type, donor heavy atom, donor atom, acceptor molecule, acceptor atom, score
      L1  H     5    65       P1 10747  1.00
      L1  H    25    56       P1  7957  1.00
      P1  H  7989  7998       L1    25  0.19
      P1  H  7997  8009       L1    28  1.00
      P1  H  8011  8017       L1    25  0.25

> <Gold.PLP.Chemscore.Internal.Correction>
0.2626

> <Gold.Rescore>
     Score         DG    S(hbond)    S(metal)    S(lipo)     H(rot)  DE(clash)    DE(int)     intcor
     17.79     -20.60       2.98        0.00      98.06       2.46       1.12       1.70       ----

> <Gold.Chemscore.Fitness>
17.7882

> <Gold.Chemscore.DG>
-20.6031

> <Gold.Chemscore.ZeroCoef>
-5.4800

> <Gold.Chemscore.Hbond>
2.9765

> <Gold.Chemscore.Metal>
0.0000

> <Gold.Chemscore.Lipo>
98.0615

> <Gold.Chemscore.Internal_Hbond>
0.0000

> <Gold.Chemscore.DEClash>
1.1195

> <Gold.Chemscore.DEInternal>
1.6954

> <Gold.Chemscore.Rot>
2.4576

> <Gold.Chemscore.Internal.Correction>
   9.000000E+99

> <Gold.Chemscore.Hbonds>
donor molecule, donor type, donor heavy atom, donor atom, acceptor molecule, acceptor atom, score
      L1  H     5    65       P1 10747  1.00
      L1  H    25    56       P1  7957  0.94
      P1  H  7989  7998       L1    25  0.02
      P1  H  7997  8009       L1    28  0.48

> <Gold.Chemscore.Hbond.Weighted>
-9.9414

> <Gold.Chemscore.Metal.Weighted>
-0.0000

> <Gold.Chemscore.Lipo.Weighted>
-11.4732

> <Gold.Chemscore.Internal_Hbond.Weighted>
0.0000

> <Gold.Chemscore.DEClash.Weighted>
1.1195

> <Gold.Chemscore.DEInternal.Weighted>
1.6954

> <Gold.Chemscore.Rot.Weighted>
6.2915

> <Gold.Chemscore.Internal.Correction.Weighted>
   9.000000E+99

> <Gold.Protein.RotatedTorsions>
[ 6907 6896 6895 6894 ] final  111.25 input  -60.11 | X-H torsion
[ 7974 7965 7964 7962 ] final   -4.78 input  175.53 | X-H torsion
[ 8008 7997 7996 7995 ] final -158.74 input   59.86 | X-H torsion
[ 10167 10162 10161 10158 ] final  179.07 input  -65.29 | X-H torsion
[ 10718 10713 10712 10709 ] final  -88.83 input   66.30 | X-H torsion
[ 10763 10752 10751 10750 ] final   20.13 input  -60.55 | X-H torsion
[ 11005 11000 10999 10996 ] final  111.28 input  -57.11 | X-H torsion

> <Gold.Protein.ActiveResidues>
 VAL166  LYS551  ARG553  GLY616  TRP617  ASP618  TYR619  PRO620  LYS621  CYS622 
 ASP623  PHE694  ASN695  SER759  ASP760  ASP761  ALA762  ILE779  LEU786  VAL792 
 PHE793  MET794  SER795  GLU796  ALA797  LYS798  CYS799  TRP800  GLU811  SER814 

> <Gold.Protein.RotatedAtoms>
  152.4979  133.8684  159.7285 H   0  0  0  0  0  0  0  0  0  0  0  0  # atno 6907 bound_to 6896
  150.9177  133.6910  159.2846 H   0  0  0  0  0  0  0  0  0  0  0  0  # atno 6908 bound_to 6896
  151.4297  135.1012  159.9691 H   0  0  0  0  0  0  0  0  0  0  0  0  # atno 6909 bound_to 6896
  146.2366  140.1922  142.8333 H   0  0  0  0  0  0  0  0  0  0  0  0  # atno 7974 bound_to 7965
  155.7522  140.0828  157.2196 H   0  0  0  0  0  0  0  0  0  0  0  0  # atno 8008 bound_to 7997
  154.4011  140.1558  156.2792 H   0  0  0  0  0  0  0  0  0  0  0  0  # atno 8009 bound_to 7997
  155.8920  140.3415  155.5966 H   0  0  0  0  0  0  0  0  0  0  0  0  # atno 8010 bound_to 7997
  139.5320  144.2605  152.0711 H   0  0  0  0  0  0  0  0  0  0  0  0  # atno 10167 bound_to 10162
  155.9983  130.4850  150.5079 H   0  0  0  0  0  0  0  0  0  0  0  0  # atno 10718 bound_to 10713
  153.1103  135.6695  153.9512 H   0  0  0  0  0  0  0  0  0  0  0  0  # atno 10763 bound_to 10752
  153.9057  135.3031  155.3450 H   0  0  0  0  0  0  0  0  0  0  0  0  # atno 10764 bound_to 10752
  154.7523  135.5029  153.9388 H   0  0  0  0  0  0  0  0  0  0  0  0  # atno 10765 bound_to 10752
  139.8900  134.9504  156.6408 H   0  0  0  0  0  0  0  0  0  0  0  0  # atno 11005 bound_to 11000
  144.9848  140.8493  143.5375 LP  0  0  0  0  0  0  0  0  0  0  0  0  # atno 17320 bound_to 7965
  145.1921  139.2296  143.5237 LP  0  0  0  0  0  0  0  0  0  0  0  0  # atno 17321 bound_to 7965
  140.2070  144.4601  150.6404 LP  0  0  0  0  0  0  0  0  0  0  0  0  # atno 17342 bound_to 10162
  140.6505  143.2224  151.6089 LP  0  0  0  0  0  0  0  0  0  0  0  0  # atno 17343 bound_to 10162
  157.3056  131.0654  151.2037 LP  0  0  0  0  0  0  0  0  0  0  0  0  # atno 17370 bound_to 10713
  157.3002  130.6839  149.6160 LP  0  0  0  0  0  0  0  0  0  0  0  0  # atno 17371 bound_to 10713
  140.7595  133.8830  155.8407 LP  0  0  0  0  0  0  0  0  0  0  0  0  # atno 17394 bound_to 11000
  140.9934  134.1248  157.4386 LP  0  0  0  0  0  0  0  0  0  0  0  0  # atno 17395 bound_to 11000

$$$$
