AV-unprocessed.smi:1626|AV-procd|sdf|6509|dock3
  -GOLD-   22720 7173D 1   1.00000     0.00000
 Structure written by MMmdl.
 48 50  0  0  0  0  0  0  0  0  2 V2000
  152.0615  144.1558  159.3359 C   0  0  0  0  0  0  0  0  0  0  0  0
  151.9085  142.9001  158.4959 C   0  0  0  0  0  0  0  0  0  0  0  0
  151.0333  142.9182  157.3866 C   0  0  0  0  0  0  0  0  0  0  0  0
  150.8648  141.7727  156.5786 C   0  0  0  0  0  0  0  0  0  0  0  0
  150.0742  141.5691  155.4605 N   0  0  0  0  0  0  0  0  0  0  0  0
  150.3546  140.3046  155.1600 C   0  0  0  0  0  0  0  0  0  0  0  0
  151.2289  139.6610  155.9577 N   0  0  0  0  0  0  0  0  0  0  0  0
  151.6839  138.2878  155.8340 C   0  0  0  0  0  0  0  0  0  0  0  0
  150.8363  137.4734  154.8374 C   0  0  1  0  0  0  0  0  0  0  0  0
  151.6948  136.7611  153.9667 O   0  0  0  0  0  0  0  0  0  0  0  0
  149.9209  136.4656  155.5601 C   0  0  0  0  0  0  0  0  0  0  0  0
  149.2849  135.5001  154.6268 N   0  3  2  0  0  0  0  0  0  0  0  0
  147.8358  135.2932  154.8893 C   0  0  0  0  0  0  0  0  0  0  0  0
  147.1948  134.4008  153.8102 C   0  0  0  0  0  0  0  0  0  0  0  0
  147.9295  133.0579  153.6624 C   0  0  2  0  0  0  0  0  0  0  0  0
  147.7017  132.2491  154.7992 O   0  0  0  0  0  0  0  0  0  0  0  0
  149.4377  133.2909  153.4751 C   0  0  0  0  0  0  0  0  0  0  0  0
  150.0175  134.2093  154.5656 C   0  0  0  0  0  0  0  0  0  0  0  0
  151.6001  140.5985  156.9149 C   0  0  0  0  0  0  0  0  0  0  0  0
  152.4728  140.5672  158.0167 C   0  0  0  0  0  0  0  0  0  0  0  0
  152.6304  141.7212  158.8126 C   0  0  0  0  0  0  0  0  0  0  0  0
  153.5765  141.6794  159.9996 C   0  0  0  0  0  0  0  0  0  0  0  0
  151.4485  144.9708  158.9500 H   0  0  0  0  0  0  0  0  0  0  0  0
  153.0992  144.4905  159.3375 H   0  0  0  0  0  0  0  0  0  0  0  0
  151.7564  143.9661  160.3652 H   0  0  0  0  0  0  0  0  0  0  0  0
  150.4831  143.8160  157.1452 H   0  0  0  0  0  0  0  0  0  0  0  0
  149.8938  139.8159  154.3138 H   0  0  0  0  0  0  0  0  0  0  0  0
  152.7321  138.2938  155.5311 H   0  0  0  0  0  0  0  0  0  0  0  0
  151.6482  137.8283  156.8227 H   0  0  0  0  0  0  0  0  0  0  0  0
  150.2441  138.1654  154.2392 H   0  0  0  0  0  0  0  0  0  0  0  0
  151.2555  136.6503  153.1365 H   0  0  0  0  0  0  0  0  0  0  0  0
  150.5203  135.9267  156.2961 H   0  0  0  0  0  0  0  0  0  0  0  0
  149.1455  136.9857  156.1248 H   0  0  0  0  0  0  0  0  0  0  0  0
  147.7044  134.8453  155.8755 H   0  0  0  0  0  0  0  0  0  0  0  0
  147.3129  136.2485  154.9093 H   0  0  0  0  0  0  0  0  0  0  0  0
  146.1410  134.2335  154.0369 H   0  0  0  0  0  0  0  0  0  0  0  0
  147.2191  134.9276  152.8552 H   0  0  0  0  0  0  0  0  0  0  0  0
  147.5363  132.5199  152.7990 H   0  0  0  0  0  0  0  0  0  0  0  0
  148.1619  132.6248  155.5347 H   0  0  0  0  0  0  0  0  0  0  0  0
  149.9698  132.3388  153.4626 H   0  0  0  0  0  0  0  0  0  0  0  0
  149.6102  133.7470  152.4993 H   0  0  0  0  0  0  0  0  0  0  0  0
  151.0707  134.3923  154.3488 H   0  0  0  0  0  0  0  0  0  0  0  0
  149.9763  133.7184  155.5393 H   0  0  0  0  0  0  0  0  0  0  0  0
  153.0172  139.6634  158.2464 H   0  0  0  0  0  0  0  0  0  0  0  0
  154.0420  140.6989  160.1042 H   0  0  0  0  0  0  0  0  0  0  0  0
  153.0399  141.8951  160.9236 H   0  0  0  0  0  0  0  0  0  0  0  0
  154.3717  142.4158  159.8804 H   0  0  0  0  0  0  0  0  0  0  0  0
  149.3654  135.9105  153.7071 H   0  0  0  0  0  0  0  0  0  0  0  0
  1  2  1  0  0  0  0
  1 23  1  0  0  0  0
  1 24  1  0  0  0  0
  1 25  1  0  0  0  0
  2 21  1  0  0  0  0
  2  3  2  0  0  0  0
  3  4  1  0  0  0  0
  3 26  1  0  0  0  0
  4 19  2  0  0  0  0
  4  5  1  0  0  0  0
  5  6  2  0  0  0  0
  6  7  1  0  0  0  0
  6 27  1  0  0  0  0
  7  8  1  0  0  0  0
  7 19  1  0  0  0  0
  8  9  1  0  0  0  0
  8 28  1  0  0  0  0
  8 29  1  0  0  0  0
  9 10  1  0  0  0  0
  9 11  1  0  0  0  0
  9 30  1  0  0  0  0
 10 31  1  0  0  0  0
 11 12  1  0  0  0  0
 11 32  1  0  0  0  0
 11 33  1  0  0  0  0
 12 18  1  0  0  0  0
 12 13  1  0  0  0  0
 12 48  1  0  0  0  0
 13 14  1  0  0  0  0
 13 34  1  0  0  0  0
 13 35  1  0  0  0  0
 14 15  1  0  0  0  0
 14 36  1  0  0  0  0
 14 37  1  0  0  0  0
 15 16  1  0  0  0  0
 15 17  1  0  0  0  0
 15 38  1  0  0  0  0
 16 39  1  0  0  0  0
 17 18  1  0  0  0  0
 17 40  1  0  0  0  0
 17 41  1  0  0  0  0
 18 42  1  0  0  0  0
 18 43  1  0  0  0  0
 19 20  1  0  0  0  0
 20 21  2  0  0  0  0
 20 44  1  0  0  0  0
 21 22  1  0  0  0  0
 22 45  1  0  0  0  0
 22 46  1  0  0  0  0
 22 47  1  0  0  0  0
M  CHG  1  12   1
M  END
> <s_m_source_file>
AV-unprocessed.smi

> <i_m_source_file_index>
1626

> <i_lp_mmshare_version>
43012

> <i_f3d_flags>
0

> <s_epik_input>
W0NIM11jKFtjSF0xKWMoW0NIM10pW2NIXWMoYzEyKW4oW2NIXW4yKVtDSDJdW0NASF0oW09IXSlbQ0gyXU4zW0NIMl1bQ0gyXVtDSF0oW09IXSlbQ0gyXVtDSDJdMw==

> <s_epik_cmdline>
J2VwaWtfcHl0aG9uJywgJy1waCcsICc3LjAnLCAnLXRuJywgJzgnLCAnLW1hJywgJzIwMCcsICctbWV0YWxfYmluZGluZycsICctaW1hZScsICc8aW5maWxlLm1hZT4nLCAnLW9tYWUnLCAnPG91dGZpbGUubWFlPic=

> <r_epik_Ionization_Penalty>
0.106584

> <r_epik_Ionization_Penalty_Charging>
0.0185694

> <r_epik_Ionization_Penalty_Neutral>
0.0880147

> <r_epik_State_Penalty>
0.0908428

> <r_epik_Charging_Adjusted_Penalty>
0.109412

> <i_epik_Tot_Q>
1

> <i_epik_Tot_abs_Q>
1

> <r_epik_Metal_State_Penalty>
0.0153739

> <b_epik_Metal_Only>
0

> <s_lp_Force_Field>
OPLS_2005

> <r_lp_Energy>
22.63

> <b_lp_Chiralities_Consistent>
1

> <s_lp_Variant>
AV-unprocessed.smi:1626-4

> <Gold.Version>
5.8.1

> <Gold.Id.Protein>
6NUR|6NUR_protein|mol2

> <Gold.PLP.Fitness>
51.7245

> <Gold.PLP.PLP>
-42.5381

> <Gold.PLP.part.hbond>
-3.3876

> <Gold.PLP.part.metal>
0.0000

> <Gold.PLP.part.buried>
-3.3319

> <Gold.PLP.part.nonpolar>
-36.4578

> <Gold.PLP.part.repulsive>
0.1246

> <Gold.PLP.ligand.clash>
0.0000

> <Gold.PLP.ligand.torsion>
1.4349

> <Gold.PLP.Chemscore.Hbond>
4.0000

> <Gold.PLP.Chemscore.CHOScore>
0.0000

> <Gold.PLP.Chemscore.Metal>
0.0000

> <Gold.Chemscore.Hbonds>
donor molecule, donor type, donor heavy atom, donor atom, acceptor molecule, acceptor atom, score
      L1  H    10    31       P1  7949  1.00
      L1  H    12    48       P1  7948  2.00
      P1  H 10752 10763       L1    10  1.00

> <Gold.PLP.Chemscore.Internal.Correction>
0.0563

> <Gold.Rescore>
     Score         DG    S(hbond)    S(metal)    S(lipo)     H(rot)  DE(clash)    DE(int)     intcor
     17.54     -19.14       2.26        0.00     110.60       2.67       0.16       1.43       ----

> <Gold.Chemscore.Fitness>
17.5449

> <Gold.Chemscore.DG>
-19.1373

> <Gold.Chemscore.ZeroCoef>
-5.4800

> <Gold.Chemscore.Hbond>
2.2620

> <Gold.Chemscore.Metal>
0.0000

> <Gold.Chemscore.Lipo>
110.6044

> <Gold.Chemscore.Internal_Hbond>
0.0000

> <Gold.Chemscore.DEClash>
0.1642

> <Gold.Chemscore.DEInternal>
1.4282

> <Gold.Chemscore.Rot>
2.6712

> <Gold.Chemscore.Internal.Correction>
   9.000000E+99

> <Gold.Chemscore.Hbonds>
donor molecule, donor type, donor heavy atom, donor atom, acceptor molecule, acceptor atom, score
      L1  H    10    31       P1  7949  0.62
      L1  H    12    48       P1  7948  0.60
      P1  H 10752 10763       L1    10  0.54

> <Gold.Chemscore.Hbond.Weighted>
-7.5549

> <Gold.Chemscore.Metal.Weighted>
-0.0000

> <Gold.Chemscore.Lipo.Weighted>
-12.9407

> <Gold.Chemscore.Internal_Hbond.Weighted>
0.0000

> <Gold.Chemscore.DEClash.Weighted>
0.1642

> <Gold.Chemscore.DEInternal.Weighted>
1.4282

> <Gold.Chemscore.Rot.Weighted>
6.8383

> <Gold.Chemscore.Internal.Correction.Weighted>
   9.000000E+99

> <Gold.Protein.RotatedTorsions>
[ 6907 6896 6895 6894 ] final  -11.11 input  -60.11 | X-H torsion
[ 7974 7965 7964 7962 ] final -169.84 input  175.53 | X-H torsion
[ 8008 7997 7996 7995 ] final  -29.29 input   59.86 | X-H torsion
[ 10167 10162 10161 10158 ] final -134.65 input  -65.29 | X-H torsion
[ 10718 10713 10712 10709 ] final -106.12 input   66.30 | X-H torsion
[ 10763 10752 10751 10750 ] final   18.15 input  -60.55 | X-H torsion
[ 11005 11000 10999 10996 ] final   86.37 input  -57.11 | X-H torsion

> <Gold.Protein.ActiveResidues>
 VAL166  LYS551  ARG553  GLY616  TRP617  ASP618  TYR619  PRO620  LYS621  CYS622 
 ASP623  PHE694  ASN695  SER759  ASP760  ASP761  ALA762  ILE779  LEU786  VAL792 
 PHE793  MET794  SER795  GLU796  ALA797  LYS798  CYS799  TRP800  GLU811  SER814 

> <Gold.Protein.RotatedAtoms>
  151.3914  135.0956  159.9526 H   0  0  0  0  0  0  0  0  0  0  0  0  # atno 6907 bound_to 6896
  152.5078  133.8976  159.7435 H   0  0  0  0  0  0  0  0  0  0  0  0  # atno 6908 bound_to 6896
  150.9431  133.6578  159.2815 H   0  0  0  0  0  0  0  0  0  0  0  0  # atno 6909 bound_to 6896
  144.7179  140.2162  143.6321 H   0  0  0  0  0  0  0  0  0  0  0  0  # atno 7974 bound_to 7965
  154.4296  140.1822  156.1224 H   0  0  0  0  0  0  0  0  0  0  0  0  # atno 8008 bound_to 7997
  156.0132  140.3348  155.6937 H   0  0  0  0  0  0  0  0  0  0  0  0  # atno 8009 bound_to 7997
  155.6081  140.0647  157.2705 H   0  0  0  0  0  0  0  0  0  0  0  0  # atno 8010 bound_to 7997
  139.8859  143.6782  152.2620 H   0  0  0  0  0  0  0  0  0  0  0  0  # atno 10167 bound_to 10162
  156.0376  130.5597  150.7635 H   0  0  0  0  0  0  0  0  0  0  0  0  # atno 10718 bound_to 10713
  153.1275  135.6733  153.9233 H   0  0  0  0  0  0  0  0  0  0  0  0  # atno 10763 bound_to 10752
  153.8729  135.3067  155.3444 H   0  0  0  0  0  0  0  0  0  0  0  0  # atno 10764 bound_to 10752
  154.7678  135.4955  153.9669 H   0  0  0  0  0  0  0  0  0  0  0  0  # atno 10765 bound_to 10752
  139.8946  134.8351  156.2712 H   0  0  0  0  0  0  0  0  0  0  0  0  # atno 11005 bound_to 11000
  145.8544  139.2191  143.1753 LP  0  0  0  0  0  0  0  0  0  0  0  0  # atno 17320 bound_to 7965
  146.0231  140.8329  142.9913 LP  0  0  0  0  0  0  0  0  0  0  0  0  # atno 17321 bound_to 7965
  139.7153  144.7613  151.1044 LP  0  0  0  0  0  0  0  0  0  0  0  0  # atno 17342 bound_to 10162
  140.7736  143.5277  150.9460 LP  0  0  0  0  0  0  0  0  0  0  0  0  # atno 17343 bound_to 10162
  157.5148  131.0928  151.0153 LP  0  0  0  0  0  0  0  0  0  0  0  0  # atno 17370 bound_to 10713
  157.0498  130.5783  149.5368 LP  0  0  0  0  0  0  0  0  0  0  0  0  # atno 17371 bound_to 10713
  141.0100  133.7101  156.1096 LP  0  0  0  0  0  0  0  0  0  0  0  0  # atno 17394 bound_to 11000
  140.7381  134.4181  157.5558 LP  0  0  0  0  0  0  0  0  0  0  0  0  # atno 17395 bound_to 11000

$$$$
