AV-unprocessed.smi:2215|AV-procd|sdf|8963|dock5
  -GOLD-   2272012183D 1   1.00000     0.00000
 Structure written by MMmdl.
 40 41  0  0  0  0  0  0  0  0  1 V2000
  150.8672  142.2470  156.6196 C   0  0  0  0  0  0  0  0  0  0  0  0
  150.1887  141.2263  155.7306 C   0  0  0  0  0  0  0  0  0  0  0  0
  150.8686  140.0712  155.3007 C   0  0  0  0  0  0  0  0  0  0  0  0
  150.1893  139.1496  154.4812 C   0  0  0  0  0  0  0  0  0  0  0  0
  148.8485  139.4015  154.1130 C   0  0  0  0  0  0  0  0  0  0  0  0
  148.2525  138.4048  153.2952 N   0  0  0  0  0  0  0  0  0  0  0  0
  146.9454  138.1346  153.1321 C   0  0  0  0  0  0  0  0  0  0  0  0
  146.0178  138.7592  153.6478 O   0  0  0  0  0  0  0  0  0  0  0  0
  146.7660  137.0822  152.3211 N   0  0  0  0  0  0  0  0  0  0  0  0
  145.4700  136.5285  151.9405 C   0  0  0  0  0  0  0  0  0  0  0  0
  145.5845  135.1269  151.2938 C   0  0  1  0  0  0  0  0  0  0  0  0
  145.8777  134.0399  152.3551 C   0  0  0  0  0  0  0  0  0  0  0  0
  145.9541  132.6332  151.7422 C   0  0  0  0  0  0  0  0  0  0  0  0
  144.6684  132.2929  150.9774 C   0  0  0  0  0  0  0  0  0  0  0  0
  144.3865  133.3451  149.8970 C   0  0  0  0  0  0  0  0  0  0  0  0
  144.3073  134.7615  150.4965 C   0  0  2  0  0  0  0  0  0  0  0  0
  144.1176  135.6681  149.4285 O   0  0  0  0  0  0  0  0  0  0  0  0
  148.2022  140.5183  154.5315 N   0  0  0  0  0  0  0  0  0  0  0  0
  148.8541  141.4017  155.3164 C   0  0  0  0  0  0  0  0  0  0  0  0
  151.9514  142.1984  156.5132 H   0  0  0  0  0  0  0  0  0  0  0  0
  150.6152  142.0615  157.6638 H   0  0  0  0  0  0  0  0  0  0  0  0
  150.5463  143.2567  156.3616 H   0  0  0  0  0  0  0  0  0  0  0  0
  151.8924  139.8901  155.5937 H   0  0  0  0  0  0  0  0  0  0  0  0
  150.6962  138.2571  154.1442 H   0  0  0  0  0  0  0  0  0  0  0  0
  148.8981  137.8145  152.7919 H   0  0  0  0  0  0  0  0  0  0  0  0
  147.5836  136.6291  151.9401 H   0  0  0  0  0  0  0  0  0  0  0  0
  144.8526  136.4736  152.8375 H   0  0  0  0  0  0  0  0  0  0  0  0
  144.9675  137.2272  151.2699 H   0  0  0  0  0  0  0  0  0  0  0  0
  146.4217  135.1408  150.5935 H   0  0  0  0  0  0  0  0  0  0  0  0
  146.8168  134.2506  152.8674 H   0  0  0  0  0  0  0  0  0  0  0  0
  145.1003  134.0569  153.1200 H   0  0  0  0  0  0  0  0  0  0  0  0
  146.8096  132.5731  151.0679 H   0  0  0  0  0  0  0  0  0  0  0  0
  146.1258  131.8955  152.5265 H   0  0  0  0  0  0  0  0  0  0  0  0
  144.7545  131.3056  150.5227 H   0  0  0  0  0  0  0  0  0  0  0  0
  143.8284  132.2434  151.6716 H   0  0  0  0  0  0  0  0  0  0  0  0
  145.1749  133.3055  149.1436 H   0  0  0  0  0  0  0  0  0  0  0  0
  143.4556  133.1031  149.3827 H   0  0  0  0  0  0  0  0  0  0  0  0
  143.4383  134.8246  151.1529 H   0  0  0  0  0  0  0  0  0  0  0  0
  144.7492  135.4742  148.7527 H   0  0  0  0  0  0  0  0  0  0  0  0
  148.2918  142.2712  155.6240 H   0  0  0  0  0  0  0  0  0  0  0  0
  1  2  1  0  0  0  0
  1 20  1  0  0  0  0
  1 21  1  0  0  0  0
  1 22  1  0  0  0  0
  2 19  1  0  0  0  0
  2  3  2  0  0  0  0
  3  4  1  0  0  0  0
  3 23  1  0  0  0  0
  4  5  2  0  0  0  0
  4 24  1  0  0  0  0
  5  6  1  0  0  0  0
  5 18  1  0  0  0  0
  6  7  1  0  0  0  0
  6 25  1  0  0  0  0
  7  8  2  0  0  0  0
  7  9  1  0  0  0  0
  9 10  1  0  0  0  0
  9 26  1  0  0  0  0
 10 11  1  0  0  0  0
 10 27  1  0  0  0  0
 10 28  1  0  0  0  0
 11 16  1  0  0  0  0
 11 12  1  0  0  0  0
 11 29  1  0  0  0  0
 12 13  1  0  0  0  0
 12 30  1  0  0  0  0
 12 31  1  0  0  0  0
 13 14  1  0  0  0  0
 13 32  1  0  0  0  0
 13 33  1  0  0  0  0
 14 15  1  0  0  0  0
 14 34  1  0  0  0  0
 14 35  1  0  0  0  0
 15 16  1  0  0  0  0
 15 36  1  0  0  0  0
 15 37  1  0  0  0  0
 16 17  1  0  0  0  0
 16 38  1  0  0  0  0
 17 39  1  0  0  0  0
 18 19  2  0  0  0  0
 19 40  1  0  0  0  0
M  END
> <s_m_source_file>
AV-unprocessed.smi

> <i_m_source_file_index>
2215

> <i_lp_mmshare_version>
43012

> <i_f3d_flags>
0

> <s_epik_input>
W0NIM11jMVtjSF1bY0hdYyhuW2NIXTEpW05IXUMoPU8pW05IXVtDSDJdW0NAQEhdMltDSDJdW0NIMl1bQ0gyXVtDSDJdW0NASF0yW09IXQ==

> <s_epik_cmdline>
J2VwaWtfcHl0aG9uJywgJy1waCcsICc3LjAnLCAnLXRuJywgJzgnLCAnLW1hJywgJzIwMCcsICctbWV0YWxfYmluZGluZycsICctaW1hZScsICc8aW5maWxlLm1hZT4nLCAnLW9tYWUnLCAnPG91dGZpbGUubWFlPic=

> <r_lp_tautomer_probability>
1

> <r_epik_Ionization_Penalty>
6.08491e-05

> <r_epik_Ionization_Penalty_Charging>
0

> <r_epik_Ionization_Penalty_Neutral>
6.08491e-05

> <r_epik_State_Penalty>
-0

> <r_epik_Charging_Adjusted_Penalty>
0

> <i_epik_Tot_Q>
0

> <i_epik_Tot_abs_Q>
0

> <r_epik_Metal_State_Penalty>
-0

> <b_epik_Metal_Only>
0

> <s_lp_Force_Field>
OPLS_2005

> <r_lp_Energy>
14.1492

> <b_lp_Chiralities_Consistent>
1

> <s_lp_Variant>
AV-unprocessed.smi:2215-4

> <Gold.Version>
5.8.1

> <Gold.Id.Protein>
6NUR|6NUR_protein|mol2

> <Gold.PLP.Fitness>
44.5643

> <Gold.PLP.PLP>
-34.5862

> <Gold.PLP.part.hbond>
-4.4814

> <Gold.PLP.part.metal>
0.0000

> <Gold.PLP.part.buried>
-0.9051

> <Gold.PLP.part.nonpolar>
-30.6452

> <Gold.PLP.part.repulsive>
0.4901

> <Gold.PLP.ligand.clash>
0.0000

> <Gold.PLP.ligand.torsion>
0.3330

> <Gold.PLP.Chemscore.Hbond>
2.5468

> <Gold.PLP.Chemscore.CHOScore>
1.0000

> <Gold.PLP.Chemscore.Metal>
0.0000

> <Gold.Chemscore.Hbonds>
donor molecule, donor type, donor heavy atom, donor atom, acceptor molecule, acceptor atom, score
      L1  H     6    25       P1  7948  0.85
      L1  H     9    26       P1  7948  0.70
      L1  H    17    39       P1  7921  1.00
      L1  C    19    40       P1  8028  1.00

> <Gold.PLP.Chemscore.Internal.Correction>
0.0038

> <Gold.Rescore>
     Score         DG    S(hbond)    S(metal)    S(lipo)     H(rot)  DE(clash)    DE(int)     intcor
     17.35     -19.21       2.73        0.00      77.24       1.73       0.33       1.52       ----

> <Gold.Chemscore.Fitness>
17.3536

> <Gold.Chemscore.DG>
-19.2070

> <Gold.Chemscore.ZeroCoef>
-5.4800

> <Gold.Chemscore.Hbond>
2.7330

> <Gold.Chemscore.Metal>
0.0000

> <Gold.Chemscore.Lipo>
77.2439

> <Gold.Chemscore.Internal_Hbond>
0.0000

> <Gold.Chemscore.DEClash>
0.3305

> <Gold.Chemscore.DEInternal>
1.5230

> <Gold.Chemscore.Rot>
1.7339

> <Gold.Chemscore.Internal.Correction>
   9.000000E+99

> <Gold.Chemscore.Hbonds>
donor molecule, donor type, donor heavy atom, donor atom, acceptor molecule, acceptor atom, score
      L1  H     6    25       P1  7948  0.83
      L1  H     9    26       P1  7948  0.68
      L1  H    17    39       P1  7921  1.00

> <Gold.Chemscore.Hbond.Weighted>
-9.1282

> <Gold.Chemscore.Metal.Weighted>
-0.0000

> <Gold.Chemscore.Lipo.Weighted>
-9.0375

> <Gold.Chemscore.Internal_Hbond.Weighted>
0.0000

> <Gold.Chemscore.DEClash.Weighted>
0.3305

> <Gold.Chemscore.DEInternal.Weighted>
1.5230

> <Gold.Chemscore.Rot.Weighted>
4.4387

> <Gold.Chemscore.Internal.Correction.Weighted>
   9.000000E+99

> <Gold.Protein.RotatedTorsions>
[ 6907 6896 6895 6894 ] final  -42.75 input  -60.11 | X-H torsion
[ 7974 7965 7964 7962 ] final   33.53 input  175.53 | X-H torsion
[ 8008 7997 7996 7995 ] final  144.88 input   59.86 | X-H torsion
[ 10167 10162 10161 10158 ] final   68.51 input  -65.29 | X-H torsion
[ 10718 10713 10712 10709 ] final   86.14 input   66.30 | X-H torsion
[ 10763 10752 10751 10750 ] final   99.09 input  -60.55 | X-H torsion
[ 11005 11000 10999 10996 ] final  151.39 input  -57.11 | X-H torsion

> <Gold.Protein.ActiveResidues>
 VAL166  LYS551  ARG553  GLY616  TRP617  ASP618  TYR619  PRO620  LYS621  CYS622 
 ASP623  PHE694  ASN695  SER759  ASP760  ASP761  ALA762  ILE779  LEU786  VAL792 
 PHE793  MET794  SER795  GLU796  ALA797  LYS798  CYS799  TRP800  GLU811  SER814 

> <Gold.Protein.RotatedAtoms>
  150.9517  134.8916  159.7675 H   0  0  0  0  0  0  0  0  0  0  0  0  # atno 6907 bound_to 6896
  152.5122  134.3798  159.9357 H   0  0  0  0  0  0  0  0  0  0  0  0  # atno 6908 bound_to 6896
  151.3813  133.3780  159.2745 H   0  0  0  0  0  0  0  0  0  0  0  0  # atno 6909 bound_to 6896
  146.1415  139.6385  142.9160 H   0  0  0  0  0  0  0  0  0  0  0  0  # atno 7974 bound_to 7965
  156.2897  140.2224  156.5124 H   0  0  0  0  0  0  0  0  0  0  0  0  # atno 8008 bound_to 7997
  154.7597  140.0474  157.0985 H   0  0  0  0  0  0  0  0  0  0  0  0  # atno 8009 bound_to 7997
  155.0006  140.3101  155.4872 H   0  0  0  0  0  0  0  0  0  0  0  0  # atno 8010 bound_to 7997
  140.0779  144.5096  150.7182 H   0  0  0  0  0  0  0  0  0  0  0  0  # atno 10167 bound_to 10162
  157.6925  131.0203  150.2928 H   0  0  0  0  0  0  0  0  0  0  0  0  # atno 10718 bound_to 10713
  153.2970  135.4126  155.1219 H   0  0  0  0  0  0  0  0  0  0  0  0  # atno 10763 bound_to 10752
  154.8538  135.3532  154.5903 H   0  0  0  0  0  0  0  0  0  0  0  0  # atno 10764 bound_to 10752
  153.6327  135.7060  153.5328 H   0  0  0  0  0  0  0  0  0  0  0  0  # atno 10765 bound_to 10752
  140.1215  134.8861  157.2078 H   0  0  0  0  0  0  0  0  0  0  0  0  # atno 11005 bound_to 11000
  145.5037  141.0437  143.2526 LP  0  0  0  0  0  0  0  0  0  0  0  0  # atno 17320 bound_to 7965
  144.7797  139.6552  143.7159 LP  0  0  0  0  0  0  0  0  0  0  0  0  # atno 17321 bound_to 7965
  140.7093  143.2492  151.4632 LP  0  0  0  0  0  0  0  0  0  0  0  0  # atno 17342 bound_to 10162
  139.5797  144.1738  152.1951 LP  0  0  0  0  0  0  0  0  0  0  0  0  # atno 17343 bound_to 10162
  156.3456  130.3822  149.7372 LP  0  0  0  0  0  0  0  0  0  0  0  0  # atno 17370 bound_to 10713
  156.4866  130.8066  151.3077 LP  0  0  0  0  0  0  0  0  0  0  0  0  # atno 17371 bound_to 10713
  140.2960  134.3186  155.7302 LP  0  0  0  0  0  0  0  0  0  0  0  0  # atno 17394 bound_to 11000
  141.2152  133.7563  156.9571 LP  0  0  0  0  0  0  0  0  0  0  0  0  # atno 17395 bound_to 11000

$$$$
