AV-unprocessed.smi:2886|AV-procd|sdf|11092|dock5
  -GOLD-   2272015563D 1   1.00000     0.00000
 Structure written by MMmdl.
 28 30  0  0  0  0  0  0  0  0  3 V2000
  152.8416  143.9638  160.0728 O   0  0  0  0  0  0  0  0  0  0  0  0
  152.1904  143.4699  159.1543 C   0  0  0  0  0  0  0  0  0  0  0  0
  151.3653  144.1987  158.3450 N   0  5  0  0  0  0  0  0  0  0  0  0
  150.6817  143.6439  157.3689 N   0  3  0  0  0  0  0  0  0  0  0  0
  150.7282  142.3468  157.0817 C   0  0  0  0  0  0  0  0  0  0  0  0
  151.5445  141.4733  157.8534 C   0  0  0  0  0  0  0  0  0  0  0  0
  151.6301  140.1108  157.5955 N   0  0  0  0  0  0  0  0  0  0  0  0
  150.9649  139.3217  156.5664 C   0  0  1  0  0  0  0  0  0  0  0  0
  151.0389  139.9515  155.1750 C   0  0  0  0  0  0  0  0  0  0  0  0
  151.6327  138.8030  154.3467 C   0  0  1  0  0  0  0  0  0  0  0  0
  153.1319  138.6286  154.6214 C   0  0  0  0  0  0  0  0  0  0  0  0
  153.1219  138.0195  156.0221 C   0  0  0  0  0  0  0  0  0  0  0  0
  151.6158  137.9483  156.3291 C   0  0  2  0  0  0  0  0  0  0  0  0
  151.1129  137.6746  155.0318 O   0  0  0  0  0  0  0  0  0  0  0  0
  152.2680  142.0251  158.8702 C   0  0  0  0  0  0  0  0  0  0  0  0
  153.2964  141.0436  159.8617 Cl  0  0  0  0  0  0  0  0  0  0  0  0
  150.0670  144.2156  156.7683 H   0  0  0  0  0  0  0  0  0  0  0  0
  150.1270  142.0084  156.2478 H   0  0  0  0  0  0  0  0  0  0  0  0
  152.1416  139.5621  158.2726 H   0  0  0  0  0  0  0  0  0  0  0  0
  149.9206  139.1543  156.8272 H   0  0  0  0  0  0  0  0  0  0  0  0
  150.0395  140.2121  154.8249 H   0  0  0  0  0  0  0  0  0  0  0  0
  151.6576  140.8491  155.1325 H   0  0  0  0  0  0  0  0  0  0  0  0
  151.3797  138.8438  153.2869 H   0  0  0  0  0  0  0  0  0  0  0  0
  153.5806  137.9373  153.9071 H   0  0  0  0  0  0  0  0  0  0  0  0
  153.6768  139.5721  154.5726 H   0  0  0  0  0  0  0  0  0  0  0  0
  153.5552  137.0190  156.0015 H   0  0  0  0  0  0  0  0  0  0  0  0
  153.6807  138.6107  156.7478 H   0  0  0  0  0  0  0  0  0  0  0  0
  151.3529  137.2008  157.0781 H   0  0  0  0  0  0  0  0  0  0  0  0
  1  2  2  0  0  0  0
  2  3  1  0  0  0  0
  2 15  1  0  0  0  0
  3  4  1  0  0  0  0
  4  5  2  0  0  0  0
  4 17  1  0  0  0  0
  5  6  1  0  0  0  0
  5 18  1  0  0  0  0
  6 15  2  0  0  0  0
  6  7  1  0  0  0  0
  7  8  1  0  0  0  0
  7 19  1  0  0  0  0
  8 13  1  0  0  0  0
  8  9  1  0  0  0  0
  8 20  1  0  0  0  0
  9 10  1  0  0  0  0
  9 21  1  0  0  0  0
  9 22  1  0  0  0  0
 10 14  1  0  0  0  0
 10 11  1  0  0  0  0
 10 23  1  0  0  0  0
 11 12  1  0  0  0  0
 11 24  1  0  0  0  0
 11 25  1  0  0  0  0
 12 13  1  0  0  0  0
 12 26  1  0  0  0  0
 12 27  1  0  0  0  0
 13 14  1  0  0  0  0
 13 28  1  0  0  0  0
 15 16  1  0  0  0  0
M  CHG  1   3  -1
M  CHG  1   4   1
M  END
> <s_m_source_file>
AV-unprocessed.smi

> <i_m_source_file_index>
2886

> <i_lp_mmshare_version>
43012

> <i_f3d_flags>
0

> <s_epik_input>
Tz1jMVtuSF1uW2NIXWMoYzFDbClbTkhdW0NASF0oW0NIMl1bQ0BASF0yMylbQ0BASF0oTzMpW0NIMl1bQ0gyXTI=

> <s_epik_cmdline>
J2VwaWtfcHl0aG9uJywgJy1waCcsICc3LjAnLCAnLXRuJywgJzgnLCAnLW1hJywgJzIwMCcsICctbWV0YWxfYmluZGluZycsICctaW1hZScsICc8aW5maWxlLm1hZT4nLCAnLW9tYWUnLCAnPG91dGZpbGUubWFlPic=

> <r_lp_tautomer_probability>
0.0138196

> <r_epik_Ionization_Penalty>
2.43027

> <r_epik_Ionization_Penalty_Charging>
2.43027

> <r_epik_Ionization_Penalty_Neutral>
1.33267e-06

> <r_epik_State_Penalty>
2.7044

> <r_epik_Charging_Adjusted_Penalty>
5.13467

> <i_epik_Tot_Q>
0

> <i_epik_Tot_abs_Q>
2

> <r_epik_Metal_State_Penalty>
2.98589

> <b_epik_Metal_Only>
0

> <s_lp_Force_Field>
OPLS_2005

> <r_lp_Energy>
57.8077

> <b_lp_Chiralities_Consistent>
1

> <s_lp_Variant>
AV-unprocessed.smi:2886-6

> <Gold.Version>
5.8.1

> <Gold.Id.Protein>
6NUR|6NUR_protein|mol2

> <Gold.PLP.Fitness>
33.1897

> <Gold.PLP.PLP>
-27.5562

> <Gold.PLP.part.hbond>
-1.0000

> <Gold.PLP.part.metal>
0.0000

> <Gold.PLP.part.buried>
-1.7945

> <Gold.PLP.part.nonpolar>
-23.8718

> <Gold.PLP.part.repulsive>
0.3045

> <Gold.PLP.ligand.clash>
0.0000

> <Gold.PLP.ligand.torsion>
0.1879

> <Gold.PLP.Chemscore.Hbond>
2.0000

> <Gold.PLP.Chemscore.CHOScore>
0.0000

> <Gold.PLP.Chemscore.Metal>
0.0000

> <Gold.Chemscore.Hbonds>
donor molecule, donor type, donor heavy atom, donor atom, acceptor molecule, acceptor atom, score
      L1  H     4    17       P1  8028  2.00

> <Gold.PLP.Chemscore.Internal.Correction>
0.0093

> <Gold.Rescore>
     Score         DG    S(hbond)    S(metal)    S(lipo)     H(rot)  DE(clash)    DE(int)     intcor
     13.26     -14.57       0.98        0.00      71.60       1.00       0.05       1.26       ----

> <Gold.Chemscore.Fitness>
13.2625

> <Gold.Chemscore.DG>
-14.5690

> <Gold.Chemscore.ZeroCoef>
-5.4800

> <Gold.Chemscore.Hbond>
0.9796

> <Gold.Chemscore.Metal>
0.0000

> <Gold.Chemscore.Lipo>
71.6006

> <Gold.Chemscore.Internal_Hbond>
0.0000

> <Gold.Chemscore.DEClash>
0.0456

> <Gold.Chemscore.DEInternal>
1.2608

> <Gold.Chemscore.Rot>
1.0000

> <Gold.Chemscore.Internal.Correction>
   9.000000E+99

> <Gold.Chemscore.Hbonds>
donor molecule, donor type, donor heavy atom, donor atom, acceptor molecule, acceptor atom, score
      L1  H     4    17       P1  8028  0.96

> <Gold.Chemscore.Hbond.Weighted>
-3.2717

> <Gold.Chemscore.Metal.Weighted>
-0.0000

> <Gold.Chemscore.Lipo.Weighted>
-8.3773

> <Gold.Chemscore.Internal_Hbond.Weighted>
0.0000

> <Gold.Chemscore.DEClash.Weighted>
0.0456

> <Gold.Chemscore.DEInternal.Weighted>
1.2608

> <Gold.Chemscore.Rot.Weighted>
2.5600

> <Gold.Chemscore.Internal.Correction.Weighted>
   9.000000E+99

> <Gold.Protein.RotatedTorsions>
[ 6907 6896 6895 6894 ] final  -79.21 input  -60.11 | X-H torsion
[ 7974 7965 7964 7962 ] final -178.11 input  175.53 | X-H torsion
[ 8008 7997 7996 7995 ] final  -50.13 input   59.86 | X-H torsion
[ 10167 10162 10161 10158 ] final   18.88 input  -65.29 | X-H torsion
[ 10718 10713 10712 10709 ] final -121.17 input   66.30 | X-H torsion
[ 10763 10752 10751 10750 ] final  171.14 input  -60.55 | X-H torsion
[ 11005 11000 10999 10996 ] final -172.72 input  -57.11 | X-H torsion

> <Gold.Protein.ActiveResidues>
 VAL166  LYS551  ARG553  GLY616  TRP617  ASP618  TYR619  PRO620  LYS621  CYS622 
 ASP623  PHE694  ASN695  SER759  ASP760  ASP761  ALA762  ILE779  LEU786  VAL792 
 PHE793  MET794  SER795  GLU796  ALA797  LYS798  CYS799  TRP800  GLU811  SER814 

> <Gold.Protein.RotatedAtoms>
  150.6955  134.4156  159.5181 H   0  0  0  0  0  0  0  0  0  0  0  0  # atno 6907 bound_to 6896
  152.1907  134.8671  160.0527 H   0  0  0  0  0  0  0  0  0  0  0  0  # atno 6908 bound_to 6896
  151.9628  133.3666  159.4078 H   0  0  0  0  0  0  0  0  0  0  0  0  # atno 6909 bound_to 6896
  144.7130  140.0917  143.6421 H   0  0  0  0  0  0  0  0  0  0  0  0  # atno 7974 bound_to 7965
  154.4056  140.1279  156.4616 H   0  0  0  0  0  0  0  0  0  0  0  0  # atno 8008 bound_to 7997
  155.7267  140.3492  155.5021 H   0  0  0  0  0  0  0  0  0  0  0  0  # atno 8009 bound_to 7997
  155.9165  140.1045  157.1230 H   0  0  0  0  0  0  0  0  0  0  0  0  # atno 8010 bound_to 7997
  140.5620  143.9319  150.6649 H   0  0  0  0  0  0  0  0  0  0  0  0  # atno 10167 bound_to 10162
  156.1316  130.6399  150.9630 H   0  0  0  0  0  0  0  0  0  0  0  0  # atno 10718 bound_to 10713
  154.4076  135.2756  155.2057 H   0  0  0  0  0  0  0  0  0  0  0  0  # atno 10763 bound_to 10752
  154.4057  135.6034  153.5926 H   0  0  0  0  0  0  0  0  0  0  0  0  # atno 10764 bound_to 10752
  152.9831  135.5937  154.4353 H   0  0  0  0  0  0  0  0  0  0  0  0  # atno 10765 bound_to 10752
  140.4938  134.5959  157.4964 H   0  0  0  0  0  0  0  0  0  0  0  0  # atno 11005 bound_to 11000
  145.9614  139.2803  143.1153 LP  0  0  0  0  0  0  0  0  0  0  0  0  # atno 17320 bound_to 7965
  145.9216  140.9111  143.0402 LP  0  0  0  0  0  0  0  0  0  0  0  0  # atno 17321 bound_to 7965
  140.2772  143.3414  152.1184 LP  0  0  0  0  0  0  0  0  0  0  0  0  # atno 17342 bound_to 10162
  139.5075  144.6833  151.5953 LP  0  0  0  0  0  0  0  0  0  0  0  0  # atno 17343 bound_to 10162
  157.6493  131.0899  150.8085 LP  0  0  0  0  0  0  0  0  0  0  0  0  # atno 17370 bound_to 10713
  156.8170  130.4971  149.5348 LP  0  0  0  0  0  0  0  0  0  0  0  0  # atno 17371 bound_to 10713
  139.9753  134.7225  155.9961 LP  0  0  0  0  0  0  0  0  0  0  0  0  # atno 17394 bound_to 11000
  141.1470  133.6554  156.3899 LP  0  0  0  0  0  0  0  0  0  0  0  0  # atno 17395 bound_to 11000

$$$$
