AV-unprocessed.smi:1060|AV-procd|sdf|4657|dock6
  -GOLD-   22720 3163D 1   1.00000     0.00000
 Structure written by MMmdl.
 37 38  0  0  0  0  0  0  0  0  1 V2000
  151.9619  137.1401  160.0063 O   0  0  0  0  0  0  0  0  0  0  0  0
  151.4862  137.8814  159.1472 C   0  0  0  0  0  0  0  0  0  0  0  0
  152.3582  138.9867  158.5529 C   0  0  0  0  0  0  0  0  0  0  0  0
  152.1595  140.1828  159.2906 O   0  0  0  0  0  0  0  0  0  0  0  0
  151.8316  141.2876  158.4655 C   0  0  0  0  0  0  0  0  0  0  0  0
  152.2920  142.5771  159.1560 C   0  0  1  0  0  0  0  0  0  0  0  0
  151.9739  143.8437  158.3638 C   0  0  0  0  0  0  0  0  0  0  0  0
  151.9553  144.8880  159.4565 C   0  0  0  0  0  0  0  0  0  0  0  0
  151.2991  144.1268  160.6049 C   0  0  0  0  0  0  0  0  0  0  0  0
  151.6084  142.7507  160.3951 O   0  0  0  0  0  0  0  0  0  0  0  0
  150.2192  137.8314  158.6895 N   0  0  0  0  0  0  0  0  0  0  0  0
  149.1875  136.9328  159.0093 C   0  0  0  0  0  0  0  0  0  0  0  0
  148.7149  136.7061  160.2630 C   0  0  0  0  0  0  0  0  0  0  0  0
  147.6510  135.7512  160.5256 C   0  0  0  0  0  0  0  0  0  0  0  0
  147.1694  135.4648  161.9398 C   0  0  0  0  0  0  0  0  0  0  0  0
  147.7611  136.2679  162.8250 F   0  0  0  0  0  0  0  0  0  0  0  0
  145.8505  135.6328  162.0391 F   0  0  0  0  0  0  0  0  0  0  0  0
  147.4525  134.2049  162.2682 F   0  0  0  0  0  0  0  0  0  0  0  0
  147.1751  135.0762  159.4629 C   0  0  0  0  0  0  0  0  0  0  0  0
  147.6551  135.3034  158.1712 N   0  0  0  0  0  0  0  0  0  0  0  0
  148.6337  136.1854  157.8681 C   0  0  0  0  0  0  0  0  0  0  0  0
  149.0063  136.3234  156.7035 O   0  0  0  0  0  0  0  0  0  0  0  0
  147.2406  134.7628  157.4258 H   0  0  0  0  0  0  0  0  0  0  0  0
  153.4040  138.6783  158.5956 H   0  0  0  0  0  0  0  0  0  0  0  0
  152.0962  139.1404  157.5046 H   0  0  0  0  0  0  0  0  0  0  0  0
  152.3428  141.1807  157.5074 H   0  0  0  0  0  0  0  0  0  0  0  0
  150.7594  141.3216  158.2657 H   0  0  0  0  0  0  0  0  0  0  0  0
  153.3647  142.5417  159.3531 H   0  0  0  0  0  0  0  0  0  0  0  0
  152.7059  144.0530  157.5833 H   0  0  0  0  0  0  0  0  0  0  0  0
  150.9889  143.7716  157.9006 H   0  0  0  0  0  0  0  0  0  0  0  0
  152.9755  145.1676  159.7237 H   0  0  0  0  0  0  0  0  0  0  0  0
  151.4137  145.7928  159.1790 H   0  0  0  0  0  0  0  0  0  0  0  0
  151.6467  144.4685  161.5801 H   0  0  0  0  0  0  0  0  0  0  0  0
  150.2155  144.2452  160.5715 H   0  0  0  0  0  0  0  0  0  0  0  0
  149.9564  138.5568  158.0374 H   0  0  0  0  0  0  0  0  0  0  0  0
  149.1282  137.2219  161.1140 H   0  0  0  0  0  0  0  0  0  0  0  0
  146.4066  134.3192  159.5170 H   0  0  0  0  0  0  0  0  0  0  0  0
  1  2  2  0  0  0  0
  2  3  1  0  0  0  0
  2 11  1  0  0  0  0
  3  4  1  0  0  0  0
  3 24  1  0  0  0  0
  3 25  1  0  0  0  0
  4  5  1  0  0  0  0
  5  6  1  0  0  0  0
  5 26  1  0  0  0  0
  5 27  1  0  0  0  0
  6 10  1  0  0  0  0
  6  7  1  0  0  0  0
  6 28  1  0  0  0  0
  7  8  1  0  0  0  0
  7 29  1  0  0  0  0
  7 30  1  0  0  0  0
  8  9  1  0  0  0  0
  8 31  1  0  0  0  0
  8 32  1  0  0  0  0
  9 10  1  0  0  0  0
  9 33  1  0  0  0  0
  9 34  1  0  0  0  0
 11 12  1  0  0  0  0
 11 35  1  0  0  0  0
 12 21  1  0  0  0  0
 12 13  2  0  0  0  0
 13 14  1  0  0  0  0
 13 36  1  0  0  0  0
 14 15  1  0  0  0  0
 14 19  2  0  0  0  0
 15 16  1  0  0  0  0
 15 17  1  0  0  0  0
 15 18  1  0  0  0  0
 19 20  1  0  0  0  0
 19 37  1  0  0  0  0
 20 23  1  0  0  0  0
 20 21  1  0  0  0  0
 21 22  2  0  0  0  0
M  END
> <s_m_source_file>
AV-unprocessed.smi

> <i_m_source_file_index>
1060

> <i_lp_mmshare_version>
43012

> <i_f3d_flags>
0

> <s_epik_input>
Tz1jMVtuSF1bY0hdYyhDKEYpKEYpRilbY0hdYzFbTkhdQyg9TylbQ0gyXU9bQ0gyXVtDQEBIXTJbQ0gyXVtDSDJdW0NIMl1PMg==

> <s_epik_cmdline>
J2VwaWtfcHl0aG9uJywgJy1waCcsICc3LjAnLCAnLXRuJywgJzgnLCAnLW1hJywgJzIwMCcsICctbWV0YWxfYmluZGluZycsICctaW1hZScsICc8aW5maWxlLm1hZT4nLCAnLW9tYWUnLCAnPG91dGZpbGUubWFlPic=

> <r_lp_tautomer_probability>
0.999

> <r_epik_Ionization_Penalty>
0.00950091

> <r_epik_Ionization_Penalty_Charging>
0.00950081

> <r_epik_Ionization_Penalty_Neutral>
1.00143e-07

> <r_epik_State_Penalty>
0.00721819

> <r_epik_Charging_Adjusted_Penalty>
0.016719

> <i_epik_Tot_Q>
0

> <i_epik_Tot_abs_Q>
0

> <r_epik_Metal_State_Penalty>
0.323303

> <b_epik_Metal_Only>
0

> <s_lp_Force_Field>
OPLS_2005

> <r_lp_Energy>
32.1884

> <b_lp_Chiralities_Consistent>
1

> <s_lp_Variant>
AV-unprocessed.smi:1060-2

> <Gold.Version>
5.8.1

> <Gold.Id.Protein>
6NUR|6NUR_protein|mol2

> <Gold.PLP.Fitness>
43.3883

> <Gold.PLP.PLP>
-43.2482

> <Gold.PLP.part.hbond>
-1.3212

> <Gold.PLP.part.metal>
0.0000

> <Gold.PLP.part.buried>
-4.6515

> <Gold.PLP.part.nonpolar>
-37.4278

> <Gold.PLP.part.repulsive>
0.2337

> <Gold.PLP.ligand.clash>
0.0000

> <Gold.PLP.ligand.torsion>
1.4687

> <Gold.PLP.Chemscore.Hbond>
0.9913

> <Gold.PLP.Chemscore.CHOScore>
0.0000

> <Gold.PLP.Chemscore.Metal>
0.0000

> <Gold.Chemscore.Hbonds>
donor molecule, donor type, donor heavy atom, donor atom, acceptor molecule, acceptor atom, score
      P1  H  6896  6907       L1     1  1.00

> <Gold.PLP.Chemscore.Internal.Correction>
0.1039

> <Gold.Rescore>
     Score         DG    S(hbond)    S(metal)    S(lipo)     H(rot)  DE(clash)    DE(int)     intcor
     12.57     -13.98       1.00        0.00      86.82       1.95       0.02       1.40       ----

> <Gold.Chemscore.Fitness>
12.5653

> <Gold.Chemscore.DG>
-13.9781

> <Gold.Chemscore.ZeroCoef>
-5.4800

> <Gold.Chemscore.Hbond>
0.9999

> <Gold.Chemscore.Metal>
0.0000

> <Gold.Chemscore.Lipo>
86.8151

> <Gold.Chemscore.Internal_Hbond>
0.0000

> <Gold.Chemscore.DEClash>
0.0162

> <Gold.Chemscore.DEInternal>
1.3966

> <Gold.Chemscore.Rot>
1.9527

> <Gold.Chemscore.Internal.Correction>
   9.000000E+99

> <Gold.Chemscore.Hbonds>
donor molecule, donor type, donor heavy atom, donor atom, acceptor molecule, acceptor atom, score
      P1  H  6896  6907       L1     1  0.96

> <Gold.Chemscore.Hbond.Weighted>
-3.3397

> <Gold.Chemscore.Metal.Weighted>
-0.0000

> <Gold.Chemscore.Lipo.Weighted>
-10.1574

> <Gold.Chemscore.Internal_Hbond.Weighted>
0.0000

> <Gold.Chemscore.DEClash.Weighted>
0.0162

> <Gold.Chemscore.DEInternal.Weighted>
1.3966

> <Gold.Chemscore.Rot.Weighted>
4.9990

> <Gold.Chemscore.Internal.Correction.Weighted>
   9.000000E+99

> <Gold.Protein.RotatedTorsions>
[ 6907 6896 6895 6894 ] final    7.64 input  -60.11 | X-H torsion
[ 7974 7965 7964 7962 ] final   17.39 input  175.53 | X-H torsion
[ 8008 7997 7996 7995 ] final   -0.22 input   59.86 | X-H torsion
[ 10167 10162 10161 10158 ] final -147.48 input  -65.29 | X-H torsion
[ 10718 10713 10712 10709 ] final  -79.66 input   66.30 | X-H torsion
[ 10763 10752 10751 10750 ] final  -27.31 input  -60.55 | X-H torsion
[ 11005 11000 10999 10996 ] final    8.71 input  -57.11 | X-H torsion

> <Gold.Protein.ActiveResidues>
 VAL166  LYS551  ARG553  GLY616  TRP617  ASP618  TYR619  PRO620  LYS621  CYS622 
 ASP623  PHE694  ASN695  SER759  ASP760  ASP761  ALA762  ILE779  LEU786  VAL792 
 PHE793  MET794  SER795  GLU796  ALA797  LYS798  CYS799  TRP800  GLU811  SER814 

> <Gold.Protein.RotatedAtoms>
  151.6932  135.0943  160.0237 H   0  0  0  0  0  0  0  0  0  0  0  0  # atno 6907 bound_to 6896
  152.3766  133.6485  159.6136 H   0  0  0  0  0  0  0  0  0  0  0  0  # atno 6908 bound_to 6896
  150.7714  133.9100  159.3408 H   0  0  0  0  0  0  0  0  0  0  0  0  # atno 6909 bound_to 6896
  146.2220  139.8609  142.8605 H   0  0  0  0  0  0  0  0  0  0  0  0  # atno 7974 bound_to 7965
  154.6605  140.2589  155.7113 H   0  0  0  0  0  0  0  0  0  0  0  0  # atno 8008 bound_to 7997
  156.2616  140.2849  156.0997 H   0  0  0  0  0  0  0  0  0  0  0  0  # atno 8009 bound_to 7997
  155.1315  140.0378  157.2766 H   0  0  0  0  0  0  0  0  0  0  0  0  # atno 8010 bound_to 7997
  139.7618  143.8366  152.2608 H   0  0  0  0  0  0  0  0  0  0  0  0  # atno 10167 bound_to 10162
  156.0087  130.4552  150.3682 H   0  0  0  0  0  0  0  0  0  0  0  0  # atno 10718 bound_to 10713
  153.7300  135.6939  153.4992 H   0  0  0  0  0  0  0  0  0  0  0  0  # atno 10763 bound_to 10752
  153.2143  135.4392  155.0415 H   0  0  0  0  0  0  0  0  0  0  0  0  # atno 10764 bound_to 10752
  154.8256  135.3444  154.6830 H   0  0  0  0  0  0  0  0  0  0  0  0  # atno 10765 bound_to 10752
  140.5339  134.0439  155.7882 H   0  0  0  0  0  0  0  0  0  0  0  0  # atno 11005 bound_to 11000
  145.2705  141.0107  143.3775 LP  0  0  0  0  0  0  0  0  0  0  0  0  # atno 17320 bound_to 7965
  144.9227  139.4392  143.6533 LP  0  0  0  0  0  0  0  0  0  0  0  0  # atno 17321 bound_to 7965
  139.8374  144.7226  150.9373 LP  0  0  0  0  0  0  0  0  0  0  0  0  # atno 17342 bound_to 10162
  140.7807  143.4014  151.1143 LP  0  0  0  0  0  0  0  0  0  0  0  0  # atno 17343 bound_to 10162
  157.1768  131.0382  151.2768 LP  0  0  0  0  0  0  0  0  0  0  0  0  # atno 17370 bound_to 10713
  157.4181  130.7422  149.6891 LP  0  0  0  0  0  0  0  0  0  0  0  0  # atno 17371 bound_to 10713
  141.1265  133.9373  157.2623 LP  0  0  0  0  0  0  0  0  0  0  0  0  # atno 17394 bound_to 11000
  139.9539  135.0169  156.9073 LP  0  0  0  0  0  0  0  0  0  0  0  0  # atno 17395 bound_to 11000

$$$$
