AV-unprocessed.smi:107|AV-procd|sdf|1013|dock1
  -GOLD-   2262018 13D 1   1.00000     0.00000
 Structure written by MMmdl.
 31 32  0  0  0  0  0  0  0  0  1 V2000
  153.0908  142.2283  159.8475 C   0  0  0  0  0  0  0  0  0  0  0  0
  152.2792  141.9451  158.5944 C   0  0  0  0  0  0  0  0  0  0  0  0
  152.2472  140.7204  158.0096 C   0  0  0  0  0  0  0  0  0  0  0  0
  151.5159  140.4299  156.8664 N   0  0  0  0  0  0  0  0  0  0  0  0
  151.5267  139.0428  156.2645 C   0  0  2  0  0  0  0  0  0  0  0  0
  151.6761  139.1086  154.7409 C   0  0  0  0  0  0  0  0  0  0  0  0
  150.7355  138.0133  154.2788 C   0  0  1  0  0  0  0  0  0  0  0  0
  151.4028  136.7655  154.2427 O   0  0  0  0  0  0  0  0  0  0  0  0
  149.6372  138.0584  155.3509 C   0  0  1  0  0  0  0  0  0  0  0  0
  148.7983  136.7831  155.5433 C   0  0  0  0  0  0  0  0  0  0  0  0
  147.9676  136.5687  154.4220 O   0  0  0  0  0  0  0  0  0  0  0  0
  150.3132  138.4117  156.5555 O   0  0  0  0  0  0  0  0  0  0  0  0
  150.7361  141.4428  156.2699 C   0  0  0  0  0  0  0  0  0  0  0  0
  150.0392  141.2561  155.2733 O   0  0  0  0  0  0  0  0  0  0  0  0
  150.7713  142.7017  156.8673 N   0  0  0  0  0  0  0  0  0  0  0  0
  151.5031  143.0410  158.0080 C   0  0  0  0  0  0  0  0  0  0  0  0
  151.4549  144.1913  158.4408 O   0  0  0  0  0  0  0  0  0  0  0  0
  150.2172  143.4306  156.4415 H   0  0  0  0  0  0  0  0  0  0  0  0
  153.6263  141.3428  160.1911 H   0  0  0  0  0  0  0  0  0  0  0  0
  152.4389  142.5598  160.6565 H   0  0  0  0  0  0  0  0  0  0  0  0
  153.8263  143.0107  159.6570 H   0  0  0  0  0  0  0  0  0  0  0  0
  152.8214  139.9284  158.4658 H   0  0  0  0  0  0  0  0  0  0  0  0
  152.3157  138.4667  156.7498 H   0  0  0  0  0  0  0  0  0  0  0  0
  151.3251  140.0759  154.3782 H   0  0  0  0  0  0  0  0  0  0  0  0
  152.7143  138.9748  154.4346 H   0  0  0  0  0  0  0  0  0  0  0  0
  150.3362  138.2163  153.2847 H   0  0  0  0  0  0  0  0  0  0  0  0
  151.0391  136.2522  153.5370 H   0  0  0  0  0  0  0  0  0  0  0  0
  148.9665  138.8858  155.1146 H   0  0  0  0  0  0  0  0  0  0  0  0
  149.4278  135.9088  155.7095 H   0  0  0  0  0  0  0  0  0  0  0  0
  148.1631  136.8873  156.4232 H   0  0  0  0  0  0  0  0  0  0  0  0
  148.5115  136.3297  153.6868 H   0  0  0  0  0  0  0  0  0  0  0  0
  1  2  1  0  0  0  0
  1 19  1  0  0  0  0
  1 20  1  0  0  0  0
  1 21  1  0  0  0  0
  2 16  1  0  0  0  0
  2  3  2  0  0  0  0
  3  4  1  0  0  0  0
  3 22  1  0  0  0  0
  4  5  1  0  0  0  0
  4 13  1  0  0  0  0
  5 12  1  0  0  0  0
  5  6  1  0  0  0  0
  5 23  1  0  0  0  0
  6  7  1  0  0  0  0
  6 24  1  0  0  0  0
  6 25  1  0  0  0  0
  7  8  1  0  0  0  0
  7  9  1  0  0  0  0
  7 26  1  0  0  0  0
  8 27  1  0  0  0  0
  9 10  1  0  0  0  0
  9 12  1  0  0  0  0
  9 28  1  0  0  0  0
 10 11  1  0  0  0  0
 10 29  1  0  0  0  0
 10 30  1  0  0  0  0
 11 31  1  0  0  0  0
 13 14  2  0  0  0  0
 13 15  1  0  0  0  0
 15 18  1  0  0  0  0
 15 16  1  0  0  0  0
 16 17  2  0  0  0  0
M  END
> <s_m_source_file>
AV-unprocessed.smi

> <i_m_source_file_index>
107

> <i_lp_mmshare_version>
43012

> <i_f3d_flags>
0

> <s_epik_input>
Tz1jMVtuSF1jKD1PKW4oW2NIXWMxW0NIM10pW0NAQEhdMltDSDJdW0NAQEhdKFtPSF0pW0NASF0oTzIpW0NIMl1bT0hd

> <s_epik_cmdline>
J2VwaWtfcHl0aG9uJywgJy1waCcsICc3LjAnLCAnLXRuJywgJzgnLCAnLW1hJywgJzIwMCcsICctbWV0YWxfYmluZGluZycsICctaW1hZScsICc8aW5maWxlLm1hZT4nLCAnLW9tYWUnLCAnPG91dGZpbGUubWFlPic=

> <r_lp_tautomer_probability>
0.999537

> <r_epik_Ionization_Penalty>
0.00121888

> <r_epik_Ionization_Penalty_Charging>
0.00121876

> <r_epik_Ionization_Penalty_Neutral>
1.19946e-07

> <r_epik_State_Penalty>
0.000805124

> <r_epik_Charging_Adjusted_Penalty>
0.00202389

> <i_epik_Tot_Q>
0

> <i_epik_Tot_abs_Q>
0

> <r_epik_Metal_State_Penalty>
0.662472

> <b_epik_Metal_Only>
0

> <s_epik_Chemistry_Notes>
This compound contains an acetal/aminal-like group ( X-CH(R)-Y where X, Y are N, S, or O) that may be acid/base labile, releasing an aldehyde.

> <s_lp_Force_Field>
OPLS_2005

> <r_lp_Energy>
27.6975

> <b_lp_Chiralities_Consistent>
1

> <s_lp_Variant>
AV-unprocessed.smi:107-1

> <Gold.Version>
5.8.1

> <Gold.Id.Protein>
6NUR|6NUR_protein|mol2

> <Gold.PLP.Fitness>
40.4447

> <Gold.PLP.PLP>
-30.0627

> <Gold.PLP.part.hbond>
-4.8492

> <Gold.PLP.part.metal>
0.0000

> <Gold.PLP.part.buried>
-3.5698

> <Gold.PLP.part.nonpolar>
-21.7327

> <Gold.PLP.part.repulsive>
0.2630

> <Gold.PLP.ligand.clash>
0.0000

> <Gold.PLP.ligand.torsion>
0.4131

> <Gold.PLP.Chemscore.Hbond>
3.7353

> <Gold.PLP.Chemscore.CHOScore>
0.0000

> <Gold.PLP.Chemscore.Metal>
0.0000

> <Gold.Chemscore.Hbonds>
donor molecule, donor type, donor heavy atom, donor atom, acceptor molecule, acceptor atom, score
      L1  H     8    27       P1  7949  0.79
      L1  H    11    31       P1  7948  1.00
      L1  H    15    18       P1  8028  1.00
      P1  H  7989  7998       L1    14  0.05
      P1  H 10752 10764       L1     8  0.45

> <Gold.PLP.Chemscore.Internal.Correction>
0.0021

> <Gold.Rescore>
     Score         DG    S(hbond)    S(metal)    S(lipo)     H(rot)  DE(clash)    DE(int)     intcor
     11.85     -14.01       2.91        0.00      49.48       2.73       0.31       1.84       ----

> <Gold.Chemscore.Fitness>
11.8497

> <Gold.Chemscore.DG>
-14.0060

> <Gold.Chemscore.ZeroCoef>
-5.4800

> <Gold.Chemscore.Hbond>
2.9083

> <Gold.Chemscore.Metal>
0.0000

> <Gold.Chemscore.Lipo>
49.4807

> <Gold.Chemscore.Internal_Hbond>
0.0000

> <Gold.Chemscore.DEClash>
0.3145

> <Gold.Chemscore.DEInternal>
1.8418

> <Gold.Chemscore.Rot>
2.7253

> <Gold.Chemscore.Internal.Correction>
   9.000000E+99

> <Gold.Chemscore.Hbonds>
donor molecule, donor type, donor heavy atom, donor atom, acceptor molecule, acceptor atom, score
      L1  H     8    27       P1  7949  0.19
      L1  H    11    31       P1  7948  0.98
      L1  H    15    18       P1  8028  0.96
      P1  H  7989  7998       L1    14  0.03
      P1  H 10752 10764       L1     8  0.02

> <Gold.Chemscore.Hbond.Weighted>
-9.7137

> <Gold.Chemscore.Metal.Weighted>
-0.0000

> <Gold.Chemscore.Lipo.Weighted>
-5.7892

> <Gold.Chemscore.Internal_Hbond.Weighted>
0.0000

> <Gold.Chemscore.DEClash.Weighted>
0.3145

> <Gold.Chemscore.DEInternal.Weighted>
1.8418

> <Gold.Chemscore.Rot.Weighted>
6.9769

> <Gold.Chemscore.Internal.Correction.Weighted>
   9.000000E+99

> <Gold.Protein.RotatedTorsions>
[ 6907 6896 6895 6894 ] final   92.28 input  -60.11 | X-H torsion
[ 7974 7965 7964 7962 ] final -107.16 input  175.53 | X-H torsion
[ 8008 7997 7996 7995 ] final -107.68 input   59.86 | X-H torsion
[ 10167 10162 10161 10158 ] final -148.09 input  -65.29 | X-H torsion
[ 10718 10713 10712 10709 ] final   72.77 input   66.30 | X-H torsion
[ 10763 10752 10751 10750 ] final  -81.74 input  -60.55 | X-H torsion
[ 11005 11000 10999 10996 ] final  173.46 input  -57.11 | X-H torsion

> <Gold.Protein.ActiveResidues>
 VAL166  LYS551  ARG553  GLY616  TRP617  ASP618  TYR619  PRO620  LYS621  CYS622 
 ASP623  PHE694  ASN695  SER759  ASP760  ASP761  ALA762  ILE779  LEU786  VAL792 
 PHE793  MET794  SER795  GLU796  ALA797  LYS798  CYS799  TRP800  GLU811  SER814 

> <Gold.Protein.RotatedAtoms>
  152.5452  134.1526  159.8524 H   0  0  0  0  0  0  0  0  0  0  0  0  # atno 6907 bound_to 6896
  151.1551  133.4874  159.2602 H   0  0  0  0  0  0  0  0  0  0  0  0  # atno 6908 bound_to 6896
  151.1431  135.0200  159.8689 H   0  0  0  0  0  0  0  0  0  0  0  0  # atno 6909 bound_to 6896
  145.2088  140.9087  143.3326 H   0  0  0  0  0  0  0  0  0  0  0  0  # atno 7974 bound_to 7965
  154.9330  140.0404  157.2058 H   0  0  0  0  0  0  0  0  0  0  0  0  # atno 8008 bound_to 7997
  154.8142  140.2873  155.5810 H   0  0  0  0  0  0  0  0  0  0  0  0  # atno 8009 bound_to 7997
  156.2974  140.2531  156.3037 H   0  0  0  0  0  0  0  0  0  0  0  0  # atno 8010 bound_to 7997
  139.7563  143.8443  152.2598 H   0  0  0  0  0  0  0  0  0  0  0  0  # atno 10167 bound_to 10162
  157.6517  130.9595  150.0976 H   0  0  0  0  0  0  0  0  0  0  0  0  # atno 10718 bound_to 10713
  154.5672  135.5616  153.7061 H   0  0  0  0  0  0  0  0  0  0  0  0  # atno 10763 bound_to 10752
  153.0037  135.6288  154.2164 H   0  0  0  0  0  0  0  0  0  0  0  0  # atno 10764 bound_to 10752
  154.2103  135.2874  155.2940 H   0  0  0  0  0  0  0  0  0  0  0  0  # atno 10765 bound_to 10752
  140.3407  134.7279  157.4200 H   0  0  0  0  0  0  0  0  0  0  0  0  # atno 11005 bound_to 11000
  144.9876  139.3721  143.6231 LP  0  0  0  0  0  0  0  0  0  0  0  0  # atno 17320 bound_to 7965
  146.3402  139.9045  142.8789 LP  0  0  0  0  0  0  0  0  0  0  0  0  # atno 17321 bound_to 7965
  139.8436  144.7198  150.9301 LP  0  0  0  0  0  0  0  0  0  0  0  0  # atno 17342 bound_to 10162
  140.7803  143.3961  151.1227 LP  0  0  0  0  0  0  0  0  0  0  0  0  # atno 17343 bound_to 10162
  156.1907  130.3654  149.8913 LP  0  0  0  0  0  0  0  0  0  0  0  0  # atno 17370 bound_to 10713
  156.6842  130.8870  151.3580 LP  0  0  0  0  0  0  0  0  0  0  0  0  # atno 17371 bound_to 10713
  140.0783  134.5766  155.8567 LP  0  0  0  0  0  0  0  0  0  0  0  0  # atno 17394 bound_to 11000
  141.2039  133.6635  156.6090 LP  0  0  0  0  0  0  0  0  0  0  0  0  # atno 17395 bound_to 11000

$$$$
