AV-unprocessed.smi:2237|AV-procd|sdf|9052|dock9
  -GOLD-   2272012253D 1   1.00000     0.00000
 Structure written by MMmdl.
 54 56  0  0  0  0  0  0  0  0  2 V2000
  153.1685  141.3646  160.2903 C   0  0  0  0  0  0  0  0  0  0  0  0
  152.5276  142.3753  159.3624 C   0  0  0  0  0  0  0  0  0  0  0  0
  152.9440  143.7211  159.3584 C   0  0  0  0  0  0  0  0  0  0  0  0
  152.3084  144.6088  158.4720 C   0  0  0  0  0  0  0  0  0  0  0  0
  151.2895  144.1181  157.6328 C   0  0  0  0  0  0  0  0  0  0  0  0
  150.9300  142.7532  157.7010 C   0  0  0  0  0  0  0  0  0  0  0  0
  149.8943  142.3580  156.8131 N   0  0  0  0  0  0  0  0  0  0  0  0
  149.5981  141.1193  156.3811 C   0  0  0  0  0  0  0  0  0  0  0  0
  150.1833  140.0879  156.7130 O   0  0  0  0  0  0  0  0  0  0  0  0
  148.5628  141.1372  155.5285 N   0  0  0  0  0  0  0  0  0  0  0  0
  147.9958  139.9627  154.8721 C   0  0  2  0  0  0  0  0  0  0  0  0
  147.8146  140.2384  153.3742 C   0  0  0  0  0  0  0  0  0  0  0  0
  147.1374  139.0567  152.6585 C   0  0  0  0  0  0  0  0  0  0  0  0
  145.8242  138.7114  153.2780 N   0  3  1  0  0  0  0  0  0  0  0  0
  145.0436  137.6431  152.5720 C   0  0  0  0  0  0  0  0  0  0  0  0
  143.7261  137.2436  153.2803 C   0  0  0  0  0  0  0  0  0  0  0  0
  143.0233  136.0750  152.5678 C   0  0  0  0  0  0  0  0  0  0  0  0
  143.9051  134.9113  152.5215 N   0  0  0  0  0  0  0  0  0  0  0  0
  143.2010  133.7965  151.9036 C   0  0  0  0  0  0  0  0  0  0  0  0
  145.0948  135.2280  151.7353 C   0  0  0  0  0  0  0  0  0  0  0  0
  145.8891  136.3587  152.4113 C   0  0  0  0  0  0  0  0  0  0  0  0
  145.9925  138.4189  154.7309 C   0  0  0  0  0  0  0  0  0  0  0  0
  146.6343  139.5960  155.4822 C   0  0  0  0  0  0  0  0  0  0  0  0
  151.5490  141.9049  158.5593 N   0  0  0  0  0  0  0  0  0  0  0  0
  154.0813  141.7614  160.7353 H   0  0  0  0  0  0  0  0  0  0  0  0
  153.4249  140.4544  159.7469 H   0  0  0  0  0  0  0  0  0  0  0  0
  152.4808  141.1027  161.0947 H   0  0  0  0  0  0  0  0  0  0  0  0
  153.7286  144.0663  160.0156 H   0  0  0  0  0  0  0  0  0  0  0  0
  152.5966  145.6490  158.4354 H   0  0  0  0  0  0  0  0  0  0  0  0
  150.7922  144.7875  156.9459 H   0  0  0  0  0  0  0  0  0  0  0  0
  149.3169  143.1072  156.4613 H   0  0  0  0  0  0  0  0  0  0  0  0
  148.1401  142.0287  155.3140 H   0  0  0  0  0  0  0  0  0  0  0  0
  148.6807  139.1199  154.9872 H   0  0  0  0  0  0  0  0  0  0  0  0
  147.2119  141.1371  153.2330 H   0  0  0  0  0  0  0  0  0  0  0  0
  148.7820  140.4407  152.9127 H   0  0  0  0  0  0  0  0  0  0  0  0
  147.0116  139.3542  151.6185 H   0  0  0  0  0  0  0  0  0  0  0  0
  147.7892  138.1816  152.6693 H   0  0  0  0  0  0  0  0  0  0  0  0
  144.7782  138.0179  151.5818 H   0  0  0  0  0  0  0  0  0  0  0  0
  143.9235  136.9674  154.3173 H   0  0  0  0  0  0  0  0  0  0  0  0
  143.0291  138.0816  153.3007 H   0  0  0  0  0  0  0  0  0  0  0  0
  142.1107  135.8181  153.1077 H   0  0  0  0  0  0  0  0  0  0  0  0
  142.7268  136.3671  151.5588 H   0  0  0  0  0  0  0  0  0  0  0  0
  143.8393  132.9130  151.8685 H   0  0  0  0  0  0  0  0  0  0  0  0
  142.8912  134.0345  150.8849 H   0  0  0  0  0  0  0  0  0  0  0  0
  142.3115  133.5389  152.4799 H   0  0  0  0  0  0  0  0  0  0  0  0
  145.7244  134.3407  151.6561 H   0  0  0  0  0  0  0  0  0  0  0  0
  144.8147  135.5142  150.7199 H   0  0  0  0  0  0  0  0  0  0  0  0
  146.7811  136.5425  151.8150 H   0  0  0  0  0  0  0  0  0  0  0  0
  146.2389  136.0215  153.3885 H   0  0  0  0  0  0  0  0  0  0  0  0
  145.0352  138.2025  155.2007 H   0  0  0  0  0  0  0  0  0  0  0  0
  146.6060  137.5244  154.8518 H   0  0  0  0  0  0  0  0  0  0  0  0
  146.7519  139.3350  156.5348 H   0  0  0  0  0  0  0  0  0  0  0  0
  145.9652  140.4573  155.4501 H   0  0  0  0  0  0  0  0  0  0  0  0
  145.2651  139.5502  153.2126 H   0  0  0  0  0  0  0  0  0  0  0  0
  1  2  1  0  0  0  0
  1 25  1  0  0  0  0
  1 26  1  0  0  0  0
  1 27  1  0  0  0  0
  2 24  1  0  0  0  0
  2  3  2  0  0  0  0
  3  4  1  0  0  0  0
  3 28  1  0  0  0  0
  4  5  2  0  0  0  0
  4 29  1  0  0  0  0
  5  6  1  0  0  0  0
  5 30  1  0  0  0  0
  6  7  1  0  0  0  0
  6 24  2  0  0  0  0
  7  8  1  0  0  0  0
  7 31  1  0  0  0  0
  8  9  2  0  0  0  0
  8 10  1  0  0  0  0
 10 11  1  0  0  0  0
 10 32  1  0  0  0  0
 11 23  1  0  0  0  0
 11 12  1  0  0  0  0
 11 33  1  0  0  0  0
 12 13  1  0  0  0  0
 12 34  1  0  0  0  0
 12 35  1  0  0  0  0
 13 14  1  0  0  0  0
 13 36  1  0  0  0  0
 13 37  1  0  0  0  0
 14 15  1  0  0  0  0
 14 22  1  0  0  0  0
 14 54  1  0  0  0  0
 15 21  1  0  0  0  0
 15 16  1  0  0  0  0
 15 38  1  0  0  0  0
 16 17  1  0  0  0  0
 16 39  1  0  0  0  0
 16 40  1  0  0  0  0
 17 18  1  0  0  0  0
 17 41  1  0  0  0  0
 17 42  1  0  0  0  0
 18 19  1  0  0  0  0
 18 20  1  0  0  0  0
 19 43  1  0  0  0  0
 19 44  1  0  0  0  0
 19 45  1  0  0  0  0
 20 21  1  0  0  0  0
 20 46  1  0  0  0  0
 20 47  1  0  0  0  0
 21 48  1  0  0  0  0
 21 49  1  0  0  0  0
 22 23  1  0  0  0  0
 22 50  1  0  0  0  0
 22 51  1  0  0  0  0
 23 52  1  0  0  0  0
 23 53  1  0  0  0  0
M  CHG  1  14   1
M  END
> <s_m_source_file>
AV-unprocessed.smi

> <i_m_source_file_index>
2237

> <i_lp_mmshare_version>
43012

> <i_f3d_flags>
0

> <s_epik_input>
W0NIM11jMVtjSF1bY0hdW2NIXWMobjEpW05IXUMoPU8pW05IXVtDSF0yW0NIMl1bQ0gyXU4oW0NIMl1bQ0gyXTIpW0NIXTNbQ0gyXVtDSDJdTihbQ0gzXSlbQ0gyXVtDSDJdMw==

> <s_epik_cmdline>
J2VwaWtfcHl0aG9uJywgJy1waCcsICc3LjAnLCAnLXRuJywgJzgnLCAnLW1hJywgJzIwMCcsICctbWV0YWxfYmluZGluZycsICctaW1hZScsICc8aW5maWxlLm1hZT4nLCAnLW9tYWUnLCAnPG91dGZpbGUubWFlPic=

> <r_epik_Ionization_Penalty>
1.37251

> <r_epik_Ionization_Penalty_Charging>
0.00081195

> <r_epik_Ionization_Penalty_Neutral>
1.3717

> <r_epik_State_Penalty>
1.55149

> <r_epik_Charging_Adjusted_Penalty>
1.5523

> <i_epik_Tot_Q>
1

> <i_epik_Tot_abs_Q>
1

> <r_epik_Metal_State_Penalty>
1.55149

> <b_epik_Metal_Only>
0

> <s_lp_Force_Field>
OPLS_2005

> <r_lp_Energy>
32.6589

> <b_lp_Chiralities_Consistent>
1

> <s_lp_Variant>
AV-unprocessed.smi:2237-7

> <Gold.Version>
5.8.1

> <Gold.Id.Protein>
6NUR|6NUR_protein|mol2

> <Gold.PLP.Fitness>
47.9736

> <Gold.PLP.PLP>
-39.8039

> <Gold.PLP.part.hbond>
-2.0000

> <Gold.PLP.part.metal>
0.0000

> <Gold.PLP.part.buried>
1.0459

> <Gold.PLP.part.nonpolar>
-39.1887

> <Gold.PLP.part.repulsive>
0.2160

> <Gold.PLP.ligand.clash>
0.0000

> <Gold.PLP.ligand.torsion>
0.3111

> <Gold.PLP.Chemscore.Hbond>
2.9200

> <Gold.PLP.Chemscore.CHOScore>
0.0000

> <Gold.PLP.Chemscore.Metal>
0.0000

> <Gold.Chemscore.Hbonds>
donor molecule, donor type, donor heavy atom, donor atom, acceptor molecule, acceptor atom, score
      L1  H     7    31       P1  8028  1.00
      L1  H    14    54       P1 10175  1.95

> <Gold.PLP.Chemscore.Internal.Correction>
0.0320

> <Gold.Rescore>
     Score         DG    S(hbond)    S(metal)    S(lipo)     H(rot)  DE(clash)    DE(int)     intcor
     19.16     -21.68       1.88        0.00     111.22       1.21       0.95       1.57       ----

> <Gold.Chemscore.Fitness>
19.1628

> <Gold.Chemscore.DG>
-21.6805

> <Gold.Chemscore.ZeroCoef>
-5.4800

> <Gold.Chemscore.Hbond>
1.8827

> <Gold.Chemscore.Metal>
0.0000

> <Gold.Chemscore.Lipo>
111.2222

> <Gold.Chemscore.Internal_Hbond>
0.0000

> <Gold.Chemscore.DEClash>
0.9497

> <Gold.Chemscore.DEInternal>
1.5680

> <Gold.Chemscore.Rot>
1.2113

> <Gold.Chemscore.Internal.Correction>
   9.000000E+99

> <Gold.Chemscore.Hbonds>
donor molecule, donor type, donor heavy atom, donor atom, acceptor molecule, acceptor atom, score
      L1  H     7    31       P1  8028  0.99
      L1  H    14    54       P1 10175  0.91

> <Gold.Chemscore.Hbond.Weighted>
-6.2884

> <Gold.Chemscore.Metal.Weighted>
-0.0000

> <Gold.Chemscore.Lipo.Weighted>
-13.0130

> <Gold.Chemscore.Internal_Hbond.Weighted>
0.0000

> <Gold.Chemscore.DEClash.Weighted>
0.9497

> <Gold.Chemscore.DEInternal.Weighted>
1.5680

> <Gold.Chemscore.Rot.Weighted>
3.1009

> <Gold.Chemscore.Internal.Correction.Weighted>
   9.000000E+99

> <Gold.Protein.RotatedTorsions>
[ 6907 6896 6895 6894 ] final   96.43 input  -60.11 | X-H torsion
[ 7974 7965 7964 7962 ] final  -95.29 input  175.53 | X-H torsion
[ 8008 7997 7996 7995 ] final  154.44 input   59.86 | X-H torsion
[ 10167 10162 10161 10158 ] final  -60.11 input  -65.29 | X-H torsion
[ 10718 10713 10712 10709 ] final -175.99 input   66.30 | X-H torsion
[ 10763 10752 10751 10750 ] final  114.57 input  -60.55 | X-H torsion
[ 11005 11000 10999 10996 ] final   75.50 input  -57.11 | X-H torsion

> <Gold.Protein.ActiveResidues>
 VAL166  LYS551  ARG553  GLY616  TRP617  ASP618  TYR619  PRO620  LYS621  CYS622 
 ASP623  PHE694  ASN695  SER759  ASP760  ASP761  ALA762  ILE779  LEU786  VAL792 
 PHE793  MET794  SER795  GLU796  ALA797  LYS798  CYS799  TRP800  GLU811  SER814 

> <Gold.Protein.RotatedAtoms>
  152.5435  134.0887  159.8267 H   0  0  0  0  0  0  0  0  0  0  0  0  # atno 6907 bound_to 6896
  151.0980  133.5258  159.2619 H   0  0  0  0  0  0  0  0  0  0  0  0  # atno 6908 bound_to 6896
  151.2024  135.0457  159.8932 H   0  0  0  0  0  0  0  0  0  0  0  0  # atno 6909 bound_to 6896
  145.3620  140.9493  143.2495 H   0  0  0  0  0  0  0  0  0  0  0  0  # atno 7974 bound_to 7965
  156.2531  140.1966  156.6646 H   0  0  0  0  0  0  0  0  0  0  0  0  # atno 8008 bound_to 7997
  154.6438  140.0580  156.9902 H   0  0  0  0  0  0  0  0  0  0  0  0  # atno 8009 bound_to 7997
  155.1521  140.3252  155.4431 H   0  0  0  0  0  0  0  0  0  0  0  0  # atno 8010 bound_to 7997
  140.6092  143.2382  151.5749 H   0  0  0  0  0  0  0  0  0  0  0  0  # atno 10167 bound_to 10162
  156.8081  130.9576  151.3117 H   0  0  0  0  0  0  0  0  0  0  0  0  # atno 10718 bound_to 10713
  153.5093  135.3621  155.2579 H   0  0  0  0  0  0  0  0  0  0  0  0  # atno 10763 bound_to 10752
  154.8743  135.4019  154.3387 H   0  0  0  0  0  0  0  0  0  0  0  0  # atno 10764 bound_to 10752
  153.4037  135.7076  153.6474 H   0  0  0  0  0  0  0  0  0  0  0  0  # atno 10765 bound_to 10752
  139.9341  134.7522  156.1278 H   0  0  0  0  0  0  0  0  0  0  0  0  # atno 11005 bound_to 11000
  144.8639  139.5136  143.6799 LP  0  0  0  0  0  0  0  0  0  0  0  0  # atno 17320 bound_to 7965
  146.2923  139.7176  142.9152 LP  0  0  0  0  0  0  0  0  0  0  0  0  # atno 17321 bound_to 7965
  139.5348  144.2812  152.1228 LP  0  0  0  0  0  0  0  0  0  0  0  0  # atno 17342 bound_to 10162
  140.2008  144.4660  150.6432 LP  0  0  0  0  0  0  0  0  0  0  0  0  # atno 17343 bound_to 10162
  157.6520  130.8892  149.9652 LP  0  0  0  0  0  0  0  0  0  0  0  0  # atno 17370 bound_to 10713
  156.1061  130.3652  150.0131 LP  0  0  0  0  0  0  0  0  0  0  0  0  # atno 17371 bound_to 10713
  141.0946  133.6701  156.2615 LP  0  0  0  0  0  0  0  0  0  0  0  0  # atno 17394 bound_to 11000
  140.6123  134.5446  157.5535 LP  0  0  0  0  0  0  0  0  0  0  0  0  # atno 17395 bound_to 11000

$$$$
