AV-unprocessed.smi:2097|AV-procd|sdf|8564|dock6
  -GOLD-   2272011293D 1   1.00000     0.00000
 Structure written by MMmdl.
 41 42  0  0  0  0  0  0  0  0  1 V2000
  153.7291  140.9046  160.6515 C   0  0  0  0  0  0  0  0  0  0  0  0
  152.4639  140.8040  159.7870 C   0  0  1  0  0  0  0  0  0  0  0  0
  152.3506  142.0206  159.0525 O   0  0  0  0  0  0  0  0  0  0  0  0
  152.2561  143.2045  159.8384 C   0  0  0  0  0  0  0  0  0  0  0  0
  151.5554  144.2994  159.0253 C   0  0  0  0  0  0  0  0  0  0  0  0
  152.3254  144.6389  157.9921 F   0  0  0  0  0  0  0  0  0  0  0  0
  150.3883  143.8542  158.5610 F   0  0  0  0  0  0  0  0  0  0  0  0
  151.3549  145.3779  159.7819 F   0  0  0  0  0  0  0  0  0  0  0  0
  152.5401  139.6053  158.8274 C   0  0  0  0  0  0  0  0  0  0  0  0
  153.4516  139.5456  158.0031 O   0  0  0  0  0  0  0  0  0  0  0  0
  151.5494  138.7012  158.9434 N   0  0  0  0  0  0  0  0  0  0  0  0
  151.3334  137.5086  158.1999 C   0  0  0  0  0  0  0  0  0  0  0  0
  150.2892  136.5850  158.4466 C   0  0  0  0  0  0  0  0  0  0  0  0
  150.1826  135.4436  157.6286 C   0  0  0  0  0  0  0  0  0  0  0  0
  151.1144  135.2625  156.5865 C   0  0  0  0  0  0  0  0  0  0  0  0
  151.0182  134.1201  155.7794 N   0  0  0  0  0  0  0  0  0  0  0  0
  149.8566  134.1303  154.8989 C   0  0  0  0  0  0  0  0  0  0  0  0
  149.8957  132.9112  153.9615 C   0  0  0  0  0  0  0  0  0  0  0  0
  149.9796  131.7171  154.7344 O   0  0  0  0  0  0  0  0  0  0  0  0
  151.1554  131.6814  155.5386 C   0  0  0  0  0  0  0  0  0  0  0  0
  151.1482  132.8693  156.5167 C   0  0  0  0  0  0  0  0  0  0  0  0
  152.1060  136.1493  156.3344 N   0  0  0  0  0  0  0  0  0  0  0  0
  152.2026  137.2410  157.1219 C   0  0  0  0  0  0  0  0  0  0  0  0
  153.8817  139.9977  161.2379 H   0  0  0  0  0  0  0  0  0  0  0  0
  153.6530  141.7384  161.3497 H   0  0  0  0  0  0  0  0  0  0  0  0
  154.6202  141.0656  160.0434 H   0  0  0  0  0  0  0  0  0  0  0  0
  151.6027  140.6994  160.4500 H   0  0  0  0  0  0  0  0  0  0  0  0
  151.6962  143.0229  160.7565 H   0  0  0  0  0  0  0  0  0  0  0  0
  153.2541  143.5386  160.1257 H   0  0  0  0  0  0  0  0  0  0  0  0
  150.8311  138.9232  159.6175 H   0  0  0  0  0  0  0  0  0  0  0  0
  149.5647  136.7278  159.2326 H   0  0  0  0  0  0  0  0  0  0  0  0
  149.3978  134.7212  157.7997 H   0  0  0  0  0  0  0  0  0  0  0  0
  148.9423  134.1096  155.4936 H   0  0  0  0  0  0  0  0  0  0  0  0
  149.8429  135.0520  154.3157 H   0  0  0  0  0  0  0  0  0  0  0  0
  148.9931  132.8775  153.3512 H   0  0  0  0  0  0  0  0  0  0  0  0
  150.7429  132.9741  153.2766 H   0  0  0  0  0  0  0  0  0  0  0  0
  151.1814  130.7408  156.0886 H   0  0  0  0  0  0  0  0  0  0  0  0
  152.0427  131.7053  154.9039 H   0  0  0  0  0  0  0  0  0  0  0  0
  152.0684  132.8786  157.1021 H   0  0  0  0  0  0  0  0  0  0  0  0
  150.3189  132.7654  157.2178 H   0  0  0  0  0  0  0  0  0  0  0  0
  153.0076  137.9216  156.8853 H   0  0  0  0  0  0  0  0  0  0  0  0
  1  2  1  0  0  0  0
  1 24  1  0  0  0  0
  1 25  1  0  0  0  0
  1 26  1  0  0  0  0
  2  3  1  0  0  0  0
  2  9  1  0  0  0  0
  2 27  1  0  0  0  0
  3  4  1  0  0  0  0
  4  5  1  0  0  0  0
  4 28  1  0  0  0  0
  4 29  1  0  0  0  0
  5  6  1  0  0  0  0
  5  7  1  0  0  0  0
  5  8  1  0  0  0  0
  9 10  2  0  0  0  0
  9 11  1  0  0  0  0
 11 12  1  0  0  0  0
 11 30  1  0  0  0  0
 12 23  1  0  0  0  0
 12 13  2  0  0  0  0
 13 14  1  0  0  0  0
 13 31  1  0  0  0  0
 14 15  2  0  0  0  0
 14 32  1  0  0  0  0
 15 16  1  0  0  0  0
 15 22  1  0  0  0  0
 16 21  1  0  0  0  0
 16 17  1  0  0  0  0
 17 18  1  0  0  0  0
 17 33  1  0  0  0  0
 17 34  1  0  0  0  0
 18 19  1  0  0  0  0
 18 35  1  0  0  0  0
 18 36  1  0  0  0  0
 19 20  1  0  0  0  0
 20 21  1  0  0  0  0
 20 37  1  0  0  0  0
 20 38  1  0  0  0  0
 21 39  1  0  0  0  0
 21 40  1  0  0  0  0
 22 23  2  0  0  0  0
 23 41  1  0  0  0  0
M  END
> <s_m_source_file>
AV-unprocessed.smi

> <i_m_source_file_index>
2097

> <i_lp_mmshare_version>
43012

> <i_f3d_flags>
0

> <s_epik_input>
RkMoRikoRilbQ0gyXU9bQ0BASF0oW0NIM10pQyg9TylbTkhdYzFbY0hdW2NIXWMobltjSF0xKU4yW0NIMl1bQ0gyXU9bQ0gyXVtDSDJdMg==

> <s_epik_cmdline>
J2VwaWtfcHl0aG9uJywgJy1waCcsICc3LjAnLCAnLXRuJywgJzgnLCAnLW1hJywgJzIwMCcsICctbWV0YWxfYmluZGluZycsICctaW1hZScsICc8aW5maWxlLm1hZT4nLCAnLW9tYWUnLCAnPG91dGZpbGUubWFlPic=

> <r_lp_tautomer_probability>
1

> <r_epik_Ionization_Penalty>
0.000443452

> <r_epik_Ionization_Penalty_Charging>
0

> <r_epik_Ionization_Penalty_Neutral>
0.000443452

> <r_epik_State_Penalty>
0.00027288

> <r_epik_Charging_Adjusted_Penalty>
0.00027288

> <i_epik_Tot_Q>
0

> <i_epik_Tot_abs_Q>
0

> <r_epik_Metal_State_Penalty>
-0

> <b_epik_Metal_Only>
0

> <s_lp_Force_Field>
OPLS_2005

> <r_lp_Energy>
27.3588

> <b_lp_Chiralities_Consistent>
1

> <s_lp_Variant>
AV-unprocessed.smi:2097-2

> <Gold.Version>
5.8.1

> <Gold.Id.Protein>
6NUR|6NUR_protein|mol2

> <Gold.PLP.Fitness>
51.0512

> <Gold.PLP.PLP>
-45.4267

> <Gold.PLP.part.hbond>
-2.0000

> <Gold.PLP.part.metal>
0.0000

> <Gold.PLP.part.buried>
-6.8077

> <Gold.PLP.part.nonpolar>
-36.9114

> <Gold.PLP.part.repulsive>
0.2164

> <Gold.PLP.ligand.clash>
0.0000

> <Gold.PLP.ligand.torsion>
0.2583

> <Gold.PLP.Chemscore.Hbond>
2.0000

> <Gold.PLP.Chemscore.CHOScore>
0.0000

> <Gold.PLP.Chemscore.Metal>
0.0000

> <Gold.Chemscore.Hbonds>
donor molecule, donor type, donor heavy atom, donor atom, acceptor molecule, acceptor atom, score
      P1  H  7997  8010       L1    10  1.00
      P1  H 10752 10765       L1    22  1.00

> <Gold.PLP.Chemscore.Internal.Correction>
0.1411

> <Gold.Rescore>
     Score         DG    S(hbond)    S(metal)    S(lipo)     H(rot)  DE(clash)    DE(int)     intcor
     14.04     -16.15       1.96        0.00      77.74       1.95       0.01       2.09       ----

> <Gold.Chemscore.Fitness>
14.0446

> <Gold.Chemscore.DG>
-16.1464

> <Gold.Chemscore.ZeroCoef>
-5.4800

> <Gold.Chemscore.Hbond>
1.9643

> <Gold.Chemscore.Metal>
0.0000

> <Gold.Chemscore.Lipo>
77.7382

> <Gold.Chemscore.Internal_Hbond>
0.0000

> <Gold.Chemscore.DEClash>
0.0092

> <Gold.Chemscore.DEInternal>
2.0925

> <Gold.Chemscore.Rot>
1.9491

> <Gold.Chemscore.Internal.Correction>
   9.000000E+99

> <Gold.Chemscore.Hbonds>
donor molecule, donor type, donor heavy atom, donor atom, acceptor molecule, acceptor atom, score
      P1  H  7997  8010       L1    10  0.97
      P1  H 10752 10765       L1    22  0.70

> <Gold.Chemscore.Hbond.Weighted>
-6.5607

> <Gold.Chemscore.Metal.Weighted>
-0.0000

> <Gold.Chemscore.Lipo.Weighted>
-9.0954

> <Gold.Chemscore.Internal_Hbond.Weighted>
0.0000

> <Gold.Chemscore.DEClash.Weighted>
0.0092

> <Gold.Chemscore.DEInternal.Weighted>
2.0925

> <Gold.Chemscore.Rot.Weighted>
4.9897

> <Gold.Chemscore.Internal.Correction.Weighted>
   9.000000E+99

> <Gold.Protein.RotatedTorsions>
[ 6907 6896 6895 6894 ] final  140.74 input  -60.11 | X-H torsion
[ 7974 7965 7964 7962 ] final  -89.77 input  175.53 | X-H torsion
[ 8008 7997 7996 7995 ] final   17.58 input   59.86 | X-H torsion
[ 10167 10162 10161 10158 ] final -100.74 input  -65.29 | X-H torsion
[ 10718 10713 10712 10709 ] final  134.29 input   66.30 | X-H torsion
[ 10763 10752 10751 10750 ] final -144.24 input  -60.55 | X-H torsion
[ 11005 11000 10999 10996 ] final -115.88 input  -57.11 | X-H torsion

> <Gold.Protein.ActiveResidues>
 VAL166  LYS551  ARG553  GLY616  TRP617  ASP618  TYR619  PRO620  LYS621  CYS622 
 ASP623  PHE694  ASN695  SER759  ASP760  ASP761  ALA762  ILE779  LEU786  VAL792 
 PHE793  MET794  SER795  GLU796  ALA797  LYS798  CYS799  TRP800  GLU811  SER814 

> <Gold.Protein.RotatedAtoms>
  152.2393  133.5122  159.5260 H   0  0  0  0  0  0  0  0  0  0  0  0  # atno 6907 bound_to 6896
  150.7060  134.1110  159.4009 H   0  0  0  0  0  0  0  0  0  0  0  0  # atno 6908 bound_to 6896
  151.9031  135.0370  160.0559 H   0  0  0  0  0  0  0  0  0  0  0  0  # atno 6909 bound_to 6896
  145.4353  140.9557  143.2105 H   0  0  0  0  0  0  0  0  0  0  0  0  # atno 7974 bound_to 7965
  154.8935  140.2990  155.5357 H   0  0  0  0  0  0  0  0  0  0  0  0  # atno 8008 bound_to 7997
  156.3020  140.2420  156.3889 H   0  0  0  0  0  0  0  0  0  0  0  0  # atno 8009 bound_to 7997
  154.8594  140.0406  157.1644 H   0  0  0  0  0  0  0  0  0  0  0  0  # atno 8010 bound_to 7997
  140.2487  143.3488  152.0735 H   0  0  0  0  0  0  0  0  0  0  0  0  # atno 10167 bound_to 10162
  157.4688  131.1078  150.9829 H   0  0  0  0  0  0  0  0  0  0  0  0  # atno 10718 bound_to 10713
  154.8436  135.3445  154.6315 H   0  0  0  0  0  0  0  0  0  0  0  0  # atno 10763 bound_to 10752
  153.6925  135.6974  153.5090 H   0  0  0  0  0  0  0  0  0  0  0  0  # atno 10764 bound_to 10752
  153.2584  135.4331  155.0824 H   0  0  0  0  0  0  0  0  0  0  0  0  # atno 10765 bound_to 10752
  141.0459  133.9764  157.2919 H   0  0  0  0  0  0  0  0  0  0  0  0  # atno 11005 bound_to 11000
  144.8156  139.5883  143.7010 LP  0  0  0  0  0  0  0  0  0  0  0  0  # atno 17320 bound_to 7965
  146.2585  139.6356  142.9378 LP  0  0  0  0  0  0  0  0  0  0  0  0  # atno 17321 bound_to 7965
  139.5053  144.6793  151.6050 LP  0  0  0  0  0  0  0  0  0  0  0  0  # atno 17342 bound_to 10162
  140.6057  143.9528  150.6417 LP  0  0  0  0  0  0  0  0  0  0  0  0  # atno 17343 bound_to 10162
  157.0601  130.5822  149.5384 LP  0  0  0  0  0  0  0  0  0  0  0  0  # atno 17370 bound_to 10713
  156.0063  130.5150  150.7841 LP  0  0  0  0  0  0  0  0  0  0  0  0  # atno 17371 bound_to 10713
  139.9311  135.0200  156.8403 LP  0  0  0  0  0  0  0  0  0  0  0  0  # atno 17394 bound_to 11000
  140.6148  134.0049  155.7592 LP  0  0  0  0  0  0  0  0  0  0  0  0  # atno 17395 bound_to 11000

$$$$
