AV-unprocessed.smi:2339|AV-procd|sdf|9341|dock8
  -GOLD-   2272012563D 1   1.00000     0.00000
 Structure written by MMmdl.
 49 52  0  0  0  0  0  0  0  0  1 V2000
  147.4383  131.1301  160.6151 C   0  0  0  0  0  0  0  0  0  0  0  0
  146.7217  132.1118  159.6814 C   0  0  0  0  0  0  0  0  0  0  0  0
  146.7938  133.4785  160.1778 N   0  0  0  0  0  0  0  0  0  0  0  0
  146.2606  133.8280  161.4142 C   0  0  0  0  0  0  0  0  0  0  0  0
  146.2581  135.0812  161.9082 C   0  0  0  0  0  0  0  0  0  0  0  0
  146.8463  136.1749  161.1091 C   0  0  0  0  0  0  0  0  0  0  0  0
  146.8721  137.3302  161.5341 O   0  0  0  0  0  0  0  0  0  0  0  0
  147.4012  135.8040  159.7809 C   0  0  0  0  0  0  0  0  0  0  0  0
  147.9608  136.8512  159.0328 N   0  0  0  0  0  0  0  0  0  0  0  0
  149.2541  137.1845  158.8464 C   0  0  0  0  0  0  0  0  0  0  0  0
  150.2213  136.5638  159.2815 O   0  0  0  0  0  0  0  0  0  0  0  0
  149.4192  138.3013  158.1164 N   0  0  0  0  0  0  0  0  0  0  0  0
  150.6911  138.9356  157.7316 C   0  0  1  0  0  0  0  0  0  0  0  0
  151.0836  138.7240  156.2640 C   0  0  1  0  0  0  0  0  0  0  0  0
  150.7307  137.7495  155.1979 C   0  0  0  0  0  0  0  0  0  0  0  0
  150.5952  138.7678  154.0359 C   0  0  0  0  0  0  0  0  0  0  0  0
  150.6448  140.0810  154.6491 O   0  0  0  0  0  0  0  0  0  0  0  0
  150.1468  139.8731  155.9572 C   0  0  2  0  0  0  0  0  0  0  0  0
  150.5656  140.4556  157.3283 C   0  0  0  0  0  0  0  0  0  0  0  0
  151.8428  141.3206  157.3552 C   0  0  0  0  0  0  0  0  0  0  0  0
  151.5481  142.5954  158.1476 C   0  0  0  0  0  0  0  0  0  0  0  0
  150.0360  142.7475  158.0764 C   0  0  0  0  0  0  0  0  0  0  0  0
  149.5289  141.3085  158.0695 C   0  0  0  0  0  0  0  0  0  0  0  0
  147.3422  134.5007  159.4059 C   0  0  0  0  0  0  0  0  0  0  0  0
  147.3781  130.1132  160.2274 H   0  0  0  0  0  0  0  0  0  0  0  0
  146.9914  131.1347  161.6096 H   0  0  0  0  0  0  0  0  0  0  0  0
  148.4935  131.3845  160.7199 H   0  0  0  0  0  0  0  0  0  0  0  0
  147.1613  132.0636  158.6844 H   0  0  0  0  0  0  0  0  0  0  0  0
  145.6769  131.8199  159.5684 H   0  0  0  0  0  0  0  0  0  0  0  0
  145.8422  133.0004  161.9687 H   0  0  0  0  0  0  0  0  0  0  0  0
  145.8350  135.3054  162.8763 H   0  0  0  0  0  0  0  0  0  0  0  0
  147.2824  137.4466  158.5800 H   0  0  0  0  0  0  0  0  0  0  0  0
  148.5802  138.7609  157.7930 H   0  0  0  0  0  0  0  0  0  0  0  0
  151.5042  138.7480  158.4348 H   0  0  0  0  0  0  0  0  0  0  0  0
  152.1356  139.0059  156.1512 H   0  0  0  0  0  0  0  0  0  0  0  0
  151.5126  137.0102  155.0226 H   0  0  0  0  0  0  0  0  0  0  0  0
  149.7898  137.2362  155.3991 H   0  0  0  0  0  0  0  0  0  0  0  0
  151.4047  138.6705  153.3120 H   0  0  0  0  0  0  0  0  0  0  0  0
  149.6505  138.6300  153.5087 H   0  0  0  0  0  0  0  0  0  0  0  0
  149.0885  139.5950  155.9223 H   0  0  0  0  0  0  0  0  0  0  0  0
  152.6915  140.7905  157.7888 H   0  0  0  0  0  0  0  0  0  0  0  0
  152.1338  141.5935  156.3401 H   0  0  0  0  0  0  0  0  0  0  0  0
  151.8517  142.4585  159.1864 H   0  0  0  0  0  0  0  0  0  0  0  0
  152.0775  143.4655  157.7583 H   0  0  0  0  0  0  0  0  0  0  0  0
  149.6307  143.3354  158.9005 H   0  0  0  0  0  0  0  0  0  0  0  0
  149.7586  143.2394  157.1433 H   0  0  0  0  0  0  0  0  0  0  0  0
  148.5372  141.2442  157.6206 H   0  0  0  0  0  0  0  0  0  0  0  0
  149.4308  140.9632  159.0996 H   0  0  0  0  0  0  0  0  0  0  0  0
  147.7359  134.1395  158.4694 H   0  0  0  0  0  0  0  0  0  0  0  0
  1  2  1  0  0  0  0
  1 25  1  0  0  0  0
  1 26  1  0  0  0  0
  1 27  1  0  0  0  0
  2  3  1  0  0  0  0
  2 28  1  0  0  0  0
  2 29  1  0  0  0  0
  3 24  1  0  0  0  0
  3  4  1  0  0  0  0
  4  5  2  0  0  0  0
  4 30  1  0  0  0  0
  5  6  1  0  0  0  0
  5 31  1  0  0  0  0
  6  7  2  0  0  0  0
  6  8  1  0  0  0  0
  8  9  1  0  0  0  0
  8 24  2  0  0  0  0
  9 10  1  0  0  0  0
  9 32  1  0  0  0  0
 10 11  2  0  0  0  0
 10 12  1  0  0  0  0
 12 13  1  0  0  0  0
 12 33  1  0  0  0  0
 13 19  1  0  0  0  0
 13 14  1  0  0  0  0
 13 34  1  0  0  0  0
 14 18  1  0  0  0  0
 14 15  1  0  0  0  0
 14 35  1  0  0  0  0
 15 16  1  0  0  0  0
 15 36  1  0  0  0  0
 15 37  1  0  0  0  0
 16 17  1  0  0  0  0
 16 38  1  0  0  0  0
 16 39  1  0  0  0  0
 17 18  1  0  0  0  0
 18 19  1  0  0  0  0
 18 40  1  0  0  0  0
 19 23  1  0  0  0  0
 19 20  1  0  0  0  0
 20 21  1  0  0  0  0
 20 41  1  0  0  0  0
 20 42  1  0  0  0  0
 21 22  1  0  0  0  0
 21 43  1  0  0  0  0
 21 44  1  0  0  0  0
 22 23  1  0  0  0  0
 22 45  1  0  0  0  0
 22 46  1  0  0  0  0
 23 47  1  0  0  0  0
 23 48  1  0  0  0  0
 24 49  1  0  0  0  0
M  END
> <s_m_source_file>
AV-unprocessed.smi

> <i_m_source_file_index>
2339

> <i_lp_mmshare_version>
43012

> <i_f3d_flags>
0

> <s_epik_input>
W0NIM11bQ0gyXW4xW2NIXVtjSF1jKD1PKWMoW2NIXTEpW05IXUMoPU8pW05IXVtDQEBIXTJbQ0BASF0oW0NIMl1bQ0gyXU8zKVtDQEBIXTNDMjRbQ0gyXVtDSDJdW0NIMl1bQ0gyXTQ=

> <s_epik_cmdline>
J2VwaWtfcHl0aG9uJywgJy1waCcsICc3LjAnLCAnLXRuJywgJzgnLCAnLW1hJywgJzIwMCcsICctbWV0YWxfYmluZGluZycsICctaW1hZScsICc8aW5maWxlLm1hZT4nLCAnLW9tYWUnLCAnPG91dGZpbGUubWFlPic=

> <r_lp_tautomer_probability>
1

> <r_epik_Ionization_Penalty>
0.00145966

> <r_epik_Ionization_Penalty_Charging>
0.00143969

> <r_epik_Ionization_Penalty_Neutral>
1.99697e-05

> <r_epik_State_Penalty>
0.000961843

> <r_epik_Charging_Adjusted_Penalty>
0.00240153

> <i_epik_Tot_Q>
0

> <i_epik_Tot_abs_Q>
0

> <r_epik_Metal_State_Penalty>
-0

> <b_epik_Metal_Only>
0

> <s_lp_Force_Field>
OPLS_2005

> <r_lp_Energy>
82.1358

> <b_lp_Chiralities_Consistent>
1

> <s_lp_Variant>
AV-unprocessed.smi:2339-6

> <Gold.Version>
5.8.1

> <Gold.Id.Protein>
6NUR|6NUR_protein|mol2

> <Gold.PLP.Fitness>
48.2115

> <Gold.PLP.PLP>
-39.4369

> <Gold.PLP.part.hbond>
-4.0000

> <Gold.PLP.part.metal>
0.0000

> <Gold.PLP.part.buried>
-5.6442

> <Gold.PLP.part.nonpolar>
-29.5739

> <Gold.PLP.part.repulsive>
0.4157

> <Gold.PLP.ligand.clash>
0.0000

> <Gold.PLP.ligand.torsion>
0.9592

> <Gold.PLP.Chemscore.Hbond>
3.4720

> <Gold.PLP.Chemscore.CHOScore>
0.0000

> <Gold.PLP.Chemscore.Metal>
0.0000

> <Gold.Chemscore.Hbonds>
donor molecule, donor type, donor heavy atom, donor atom, acceptor molecule, acceptor atom, score
      P1  H  6896  6908       L1    11  1.00
      P1  H  6931  6943       L1     7  0.11
      P1  H  6934  6947       L1     7  1.00
      P1  H  7989  7998       L1    17  0.95

> <Gold.PLP.Chemscore.Internal.Correction>
0.2770

> <Gold.Rescore>
     Score         DG    S(hbond)    S(metal)    S(lipo)     H(rot)  DE(clash)    DE(int)     intcor
     22.43     -23.89       3.15        0.00      93.07       1.17       0.49       0.97       ----

> <Gold.Chemscore.Fitness>
22.4264

> <Gold.Chemscore.DG>
-23.8902

> <Gold.Chemscore.ZeroCoef>
-5.4800

> <Gold.Chemscore.Hbond>
3.1462

> <Gold.Chemscore.Metal>
0.0000

> <Gold.Chemscore.Lipo>
93.0707

> <Gold.Chemscore.Internal_Hbond>
0.0000

> <Gold.Chemscore.DEClash>
0.4908

> <Gold.Chemscore.DEInternal>
0.9730

> <Gold.Chemscore.Rot>
1.1670

> <Gold.Chemscore.Internal.Correction>
   9.000000E+99

> <Gold.Chemscore.Hbonds>
donor molecule, donor type, donor heavy atom, donor atom, acceptor molecule, acceptor atom, score
      P1  H  6896  6908       L1    11  1.00
      P1  H  6931  6943       L1     7  0.12
      P1  H  6934  6947       L1     7  0.96
      P1  H  7989  7998       L1    17  0.22

> <Gold.Chemscore.Hbond.Weighted>
-10.5084

> <Gold.Chemscore.Metal.Weighted>
-0.0000

> <Gold.Chemscore.Lipo.Weighted>
-10.8893

> <Gold.Chemscore.Internal_Hbond.Weighted>
0.0000

> <Gold.Chemscore.DEClash.Weighted>
0.4908

> <Gold.Chemscore.DEInternal.Weighted>
0.9730

> <Gold.Chemscore.Rot.Weighted>
2.9874

> <Gold.Chemscore.Internal.Correction.Weighted>
   9.000000E+99

> <Gold.Protein.RotatedTorsions>
[ 6907 6896 6895 6894 ] final -156.21 input  -60.11 | X-H torsion
[ 7974 7965 7964 7962 ] final   -9.28 input  175.53 | X-H torsion
[ 8008 7997 7996 7995 ] final -101.74 input   59.86 | X-H torsion
[ 10167 10162 10161 10158 ] final   36.20 input  -65.29 | X-H torsion
[ 10718 10713 10712 10709 ] final -164.65 input   66.30 | X-H torsion
[ 10763 10752 10751 10750 ] final  143.60 input  -60.55 | X-H torsion
[ 11005 11000 10999 10996 ] final   90.05 input  -57.11 | X-H torsion

> <Gold.Protein.ActiveResidues>
 VAL166  LYS551  ARG553  GLY616  TRP617  ASP618  TYR619  PRO620  LYS621  CYS622 
 ASP623  PHE694  ASN695  SER759  ASP760  ASP761  ALA762  ILE779  LEU786  VAL792 
 PHE793  MET794  SER795  GLU796  ALA797  LYS798  CYS799  TRP800  GLU811  SER814 

> <Gold.Protein.RotatedAtoms>
  151.2842  133.4195  159.2628 H   0  0  0  0  0  0  0  0  0  0  0  0  # atno 6907 bound_to 6896
  151.0334  134.9556  159.8133 H   0  0  0  0  0  0  0  0  0  0  0  0  # atno 6908 bound_to 6896
  152.5350  134.2803  159.9057 H   0  0  0  0  0  0  0  0  0  0  0  0  # atno 6909 bound_to 6896
  146.2256  140.2593  142.8351 H   0  0  0  0  0  0  0  0  0  0  0  0  # atno 7974 bound_to 7965
  154.8468  140.0432  157.1578 H   0  0  0  0  0  0  0  0  0  0  0  0  # atno 8008 bound_to 7997
  154.8987  140.2997  155.5309 H   0  0  0  0  0  0  0  0  0  0  0  0  # atno 8009 bound_to 7997
  156.2994  140.2380  156.4012 H   0  0  0  0  0  0  0  0  0  0  0  0  # atno 8010 bound_to 7997
  140.4150  144.1539  150.6142 H   0  0  0  0  0  0  0  0  0  0  0  0  # atno 10167 bound_to 10162
  156.6421  130.8973  151.2998 H   0  0  0  0  0  0  0  0  0  0  0  0  # atno 10718 bound_to 10713
  153.9751  135.2947  155.3424 H   0  0  0  0  0  0  0  0  0  0  0  0  # atno 10763 bound_to 10752
  154.7301  135.5071  153.8952 H   0  0  0  0  0  0  0  0  0  0  0  0  # atno 10764 bound_to 10752
  153.0881  135.6699  154.0021 H   0  0  0  0  0  0  0  0  0  0  0  0  # atno 10765 bound_to 10752
  139.8863  134.8590  156.3230 H   0  0  0  0  0  0  0  0  0  0  0  0  # atno 11005 bound_to 11000
  144.9352  140.8018  143.5665 LP  0  0  0  0  0  0  0  0  0  0  0  0  # atno 17320 bound_to 7965
  145.2540  139.2020  143.4927 LP  0  0  0  0  0  0  0  0  0  0  0  0  # atno 17321 bound_to 7965
  140.4596  143.2454  151.9238 LP  0  0  0  0  0  0  0  0  0  0  0  0  # atno 17342 bound_to 10162
  139.4782  144.5481  151.8428 LP  0  0  0  0  0  0  0  0  0  0  0  0  # atno 17343 bound_to 10162
  157.7168  130.9507  150.1285 LP  0  0  0  0  0  0  0  0  0  0  0  0  # atno 17370 bound_to 10713
  156.2151  130.3669  149.8623 LP  0  0  0  0  0  0  0  0  0  0  0  0  # atno 17371 bound_to 10713
  140.9774  133.7289  156.0622 LP  0  0  0  0  0  0  0  0  0  0  0  0  # atno 17394 bound_to 11000
  140.7793  134.3743  157.5491 LP  0  0  0  0  0  0  0  0  0  0  0  0  # atno 17395 bound_to 11000

$$$$
