AV-unprocessed.smi:1107|AV-procd|sdf|4786|dock1
  -GOLD-   22720 3333D 1   1.00000     0.00000
 Structure written by MMmdl.
 48 49  0  0  0  0  0  0  0  0  3 V2000
  153.6391  139.6411  159.4827 C   0  0  0  0  0  0  0  0  0  0  0  0
  152.7044  140.2771  158.4767 C   0  0  0  0  0  0  0  0  0  0  0  0
  151.9777  141.2651  158.8362 N   0  0  0  0  0  0  0  0  0  0  0  0
  151.0958  141.8491  157.9108 C   0  0  0  0  0  0  0  0  0  0  0  0
  150.2543  142.9995  158.4338 C   0  0  0  0  0  0  0  0  0  0  0  0
  151.0079  141.3853  156.6313 C   0  0  0  0  0  0  0  0  0  0  0  0
  150.0439  141.9569  155.5926 C   0  0  0  0  0  0  0  0  0  0  0  0
  148.8718  141.0354  155.2617 C   0  0  0  0  0  0  0  0  0  0  0  0
  147.8475  141.0609  155.9424 O   0  0  0  0  0  0  0  0  0  0  0  0
  149.0687  140.1917  154.2376 N   0  0  0  0  0  0  0  0  0  0  0  0
  148.2100  139.0698  153.8689 C   0  0  1  0  0  0  0  0  0  0  0  0
  148.2073  138.0241  154.9921 C   0  0  0  0  0  0  0  0  0  0  0  0
  146.7854  139.5751  153.5449 C   0  0  0  0  0  0  0  0  0  0  0  0
  145.9927  138.6481  152.6911 N   0  3  0  0  0  0  0  0  0  0  0  0
  145.4945  137.4770  153.4591 C   0  0  0  0  0  0  0  0  0  0  0  0
  144.5737  136.5899  152.6048 C   0  0  0  0  0  0  0  0  0  0  0  0
  145.2683  136.1494  151.3105 C   0  0  0  0  0  0  0  0  0  0  0  0
  145.7943  137.3752  150.5544 C   0  0  0  0  0  0  0  0  0  0  0  0
  146.7026  138.2300  151.4526 C   0  0  0  0  0  0  0  0  0  0  0  0
  151.8589  140.2406  156.2594 C   0  0  0  0  0  0  0  0  0  0  0  0
  151.7942  139.7613  155.1279 O   0  0  0  0  0  0  0  0  0  0  0  0
  152.6863  139.7302  157.2133 N   0  5  0  0  0  0  0  0  0  0  0  0
  153.7492  140.2696  160.3676 H   0  0  0  0  0  0  0  0  0  0  0  0
  154.6277  139.4936  159.0463 H   0  0  0  0  0  0  0  0  0  0  0  0
  153.2502  138.6718  159.7956 H   0  0  0  0  0  0  0  0  0  0  0  0
  149.1931  142.7929  158.2973 H   0  0  0  0  0  0  0  0  0  0  0  0
  150.5006  143.9224  157.9088 H   0  0  0  0  0  0  0  0  0  0  0  0
  150.4275  143.1631  159.4981 H   0  0  0  0  0  0  0  0  0  0  0  0
  149.6464  142.9082  155.9464 H   0  0  0  0  0  0  0  0  0  0  0  0
  150.5791  142.2048  154.6748 H   0  0  0  0  0  0  0  0  0  0  0  0
  149.9409  140.2760  153.7341 H   0  0  0  0  0  0  0  0  0  0  0  0
  148.6044  138.5790  152.9784 H   0  0  0  0  0  0  0  0  0  0  0  0
  147.5839  137.1691  154.7292 H   0  0  0  0  0  0  0  0  0  0  0  0
  147.8251  138.4411  155.9246 H   0  0  0  0  0  0  0  0  0  0  0  0
  149.2142  137.6511  155.1828 H   0  0  0  0  0  0  0  0  0  0  0  0
  146.2393  139.7891  154.4649 H   0  0  0  0  0  0  0  0  0  0  0  0
  146.8774  140.5251  153.0161 H   0  0  0  0  0  0  0  0  0  0  0  0
  146.3421  136.8948  153.8243 H   0  0  0  0  0  0  0  0  0  0  0  0
  144.9432  137.8203  154.3355 H   0  0  0  0  0  0  0  0  0  0  0  0
  144.2627  135.7152  153.1765 H   0  0  0  0  0  0  0  0  0  0  0  0
  143.6630  137.1358  152.3632 H   0  0  0  0  0  0  0  0  0  0  0  0
  146.0949  135.4775  151.5449 H   0  0  0  0  0  0  0  0  0  0  0  0
  144.5745  135.5886  150.6834 H   0  0  0  0  0  0  0  0  0  0  0  0
  146.3389  137.0592  149.6643 H   0  0  0  0  0  0  0  0  0  0  0  0
  144.9563  137.9783  150.2051 H   0  0  0  0  0  0  0  0  0  0  0  0
  147.0250  139.1022  150.8855 H   0  0  0  0  0  0  0  0  0  0  0  0
  147.6030  137.6738  151.7172 H   0  0  0  0  0  0  0  0  0  0  0  0
  145.1729  139.1607  152.3970 H   0  0  0  0  0  0  0  0  0  0  0  0
  1  2  1  0  0  0  0
  1 23  1  0  0  0  0
  1 24  1  0  0  0  0
  1 25  1  0  0  0  0
  2 22  1  0  0  0  0
  2  3  2  0  0  0  0
  3  4  1  0  0  0  0
  4  5  1  0  0  0  0
  4  6  2  0  0  0  0
  5 26  1  0  0  0  0
  5 27  1  0  0  0  0
  5 28  1  0  0  0  0
  6  7  1  0  0  0  0
  6 20  1  0  0  0  0
  7  8  1  0  0  0  0
  7 29  1  0  0  0  0
  7 30  1  0  0  0  0
  8  9  2  0  0  0  0
  8 10  1  0  0  0  0
 10 11  1  0  0  0  0
 10 31  1  0  0  0  0
 11 12  1  0  0  0  0
 11 13  1  0  0  0  0
 11 32  1  0  0  0  0
 12 33  1  0  0  0  0
 12 34  1  0  0  0  0
 12 35  1  0  0  0  0
 13 14  1  0  0  0  0
 13 36  1  0  0  0  0
 13 37  1  0  0  0  0
 14 19  1  0  0  0  0
 14 15  1  0  0  0  0
 14 48  1  0  0  0  0
 15 16  1  0  0  0  0
 15 38  1  0  0  0  0
 15 39  1  0  0  0  0
 16 17  1  0  0  0  0
 16 40  1  0  0  0  0
 16 41  1  0  0  0  0
 17 18  1  0  0  0  0
 17 42  1  0  0  0  0
 17 43  1  0  0  0  0
 18 19  1  0  0  0  0
 18 44  1  0  0  0  0
 18 45  1  0  0  0  0
 19 46  1  0  0  0  0
 19 47  1  0  0  0  0
 20 21  2  0  0  0  0
 20 22  1  0  0  0  0
M  CHG  1  14   1
M  CHG  1  22  -1
M  END
> <s_m_source_file>
AV-unprocessed.smi

> <i_m_source_file_index>
1107

> <i_lp_mmshare_version>
43012

> <i_f3d_flags>
0

> <s_epik_input>
W0NIM11jMW5jKFtDSDNdKWMoYyg9TylbbkhdMSlbQ0gyXUMoPU8pW05IXVtDQEhdKFtDSDNdKVtDSDJdTjJbQ0gyXVtDSDJdW0NIMl1bQ0gyXVtDSDJdMg==

> <s_epik_cmdline>
J2VwaWtfcHl0aG9uJywgJy1waCcsICc3LjAnLCAnLXRuJywgJzgnLCAnLW1hJywgJzIwMCcsICctbWV0YWxfYmluZGluZycsICctaW1hZScsICc8aW5maWxlLm1hZT4nLCAnLW9tYWUnLCAnPG91dGZpbGUubWFlPic=

> <r_lp_tautomer_probability>
0.839158

> <r_epik_Ionization_Penalty>
6.34615

> <r_epik_Ionization_Penalty_Charging>
0.00266072

> <r_epik_Ionization_Penalty_Neutral>
6.34348

> <r_epik_State_Penalty>
4.30851

> <r_epik_Charging_Adjusted_Penalty>
4.31117

> <i_epik_Tot_Q>
0

> <i_epik_Tot_abs_Q>
2

> <r_epik_Metal_State_Penalty>
0.75957

> <b_epik_Metal_Only>
1

> <s_lp_Force_Field>
OPLS_2005

> <r_lp_Energy>
17.1347

> <b_lp_Chiralities_Consistent>
1

> <s_lp_Variant>
AV-unprocessed.smi:1107-6

> <Gold.Version>
5.8.1

> <Gold.Id.Protein>
6NUR|6NUR_protein|mol2

> <Gold.PLP.Fitness>
44.5155

> <Gold.PLP.PLP>
-30.9736

> <Gold.PLP.part.hbond>
-3.9397

> <Gold.PLP.part.metal>
0.0000

> <Gold.PLP.part.buried>
5.2950

> <Gold.PLP.part.nonpolar>
-32.6475

> <Gold.PLP.part.repulsive>
0.2494

> <Gold.PLP.ligand.clash>
0.0000

> <Gold.PLP.ligand.torsion>
0.7646

> <Gold.PLP.Chemscore.Hbond>
5.0000

> <Gold.PLP.Chemscore.CHOScore>
0.0000

> <Gold.PLP.Chemscore.Metal>
0.0000

> <Gold.Chemscore.Hbonds>
donor molecule, donor type, donor heavy atom, donor atom, acceptor molecule, acceptor atom, score
      L1  H    14    48       P1 10175  2.00
      P1  H  7989  7998       L1    21  0.99
      P1  H  7997  8010       L1    22  2.00

> <Gold.PLP.Chemscore.Internal.Correction>
0.0712

> <Gold.Rescore>
     Score         DG    S(hbond)    S(metal)    S(lipo)     H(rot)  DE(clash)    DE(int)     intcor
     12.16     -17.06       2.15        0.00      79.81       1.92       1.96       2.94       ----

> <Gold.Chemscore.Fitness>
12.1596

> <Gold.Chemscore.DG>
-17.0639

> <Gold.Chemscore.ZeroCoef>
-5.4800

> <Gold.Chemscore.Hbond>
2.1466

> <Gold.Chemscore.Metal>
0.0000

> <Gold.Chemscore.Lipo>
79.8127

> <Gold.Chemscore.Internal_Hbond>
0.0000

> <Gold.Chemscore.DEClash>
1.9624

> <Gold.Chemscore.DEInternal>
2.9419

> <Gold.Chemscore.Rot>
1.9233

> <Gold.Chemscore.Internal.Correction>
   9.000000E+99

> <Gold.Chemscore.Hbonds>
donor molecule, donor type, donor heavy atom, donor atom, acceptor molecule, acceptor atom, score
      L1  H    14    48       P1 10175  0.97
      P1  H  7989  7998       L1    21  0.92
      P1  H  7997  8010       L1    22  0.15

> <Gold.Chemscore.Hbond.Weighted>
-7.1695

> <Gold.Chemscore.Metal.Weighted>
-0.0000

> <Gold.Chemscore.Lipo.Weighted>
-9.3381

> <Gold.Chemscore.Internal_Hbond.Weighted>
0.0000

> <Gold.Chemscore.DEClash.Weighted>
1.9624

> <Gold.Chemscore.DEInternal.Weighted>
2.9419

> <Gold.Chemscore.Rot.Weighted>
4.9237

> <Gold.Chemscore.Internal.Correction.Weighted>
   9.000000E+99

> <Gold.Protein.RotatedTorsions>
[ 6907 6896 6895 6894 ] final    8.71 input  -60.11 | X-H torsion
[ 7974 7965 7964 7962 ] final  -29.97 input  175.53 | X-H torsion
[ 8008 7997 7996 7995 ] final   56.87 input   59.86 | X-H torsion
[ 10167 10162 10161 10158 ] final   44.08 input  -65.29 | X-H torsion
[ 10718 10713 10712 10709 ] final -122.00 input   66.30 | X-H torsion
[ 10763 10752 10751 10750 ] final    5.85 input  -60.55 | X-H torsion
[ 11005 11000 10999 10996 ] final  -98.09 input  -57.11 | X-H torsion

> <Gold.Protein.ActiveResidues>
 VAL166  LYS551  ARG553  GLY616  TRP617  ASP618  TYR619  PRO620  LYS621  CYS622 
 ASP623  PHE694  ASN695  SER759  ASP760  ASP761  ALA762  ILE779  LEU786  VAL792 
 PHE793  MET794  SER795  GLU796  ALA797  LYS798  CYS799  TRP800  GLU811  SER814 

> <Gold.Protein.RotatedAtoms>
  151.7103  135.0914  160.0266 H   0  0  0  0  0  0  0  0  0  0  0  0  # atno 6907 bound_to 6896
  152.3665  133.6360  159.6063 H   0  0  0  0  0  0  0  0  0  0  0  0  # atno 6908 bound_to 6896
  150.7642  133.9255  159.3452 H   0  0  0  0  0  0  0  0  0  0  0  0  # atno 6909 bound_to 6896
  146.1177  140.5481  142.8749 H   0  0  0  0  0  0  0  0  0  0  0  0  # atno 7974 bound_to 7965
  155.5244  140.3480  155.4413 H   0  0  0  0  0  0  0  0  0  0  0  0  # atno 8008 bound_to 7997
  156.0762  140.1375  156.9796 H   0  0  0  0  0  0  0  0  0  0  0  0  # atno 8009 bound_to 7997
  154.4554  140.0955  156.6718 H   0  0  0  0  0  0  0  0  0  0  0  0  # atno 8010 bound_to 7997
  140.3379  144.2507  150.6159 H   0  0  0  0  0  0  0  0  0  0  0  0  # atno 10167 bound_to 10162
  156.1383  130.6447  150.9731 H   0  0  0  0  0  0  0  0  0  0  0  0  # atno 10718 bound_to 10713
  153.2545  135.6917  153.7643 H   0  0  0  0  0  0  0  0  0  0  0  0  # atno 10763 bound_to 10752
  153.6725  135.3342  155.3158 H   0  0  0  0  0  0  0  0  0  0  0  0  # atno 10764 bound_to 10752
  154.8407  135.4503  154.1514 H   0  0  0  0  0  0  0  0  0  0  0  0  # atno 10765 bound_to 10752
  141.1357  133.8219  157.0793 H   0  0  0  0  0  0  0  0  0  0  0  0  # atno 11005 bound_to 11000
  144.7568  140.5327  143.6763 LP  0  0  0  0  0  0  0  0  0  0  0  0  # atno 17320 bound_to 7965
  145.5532  139.1477  143.3383 LP  0  0  0  0  0  0  0  0  0  0  0  0  # atno 17321 bound_to 7965
  140.5336  143.2238  151.8198 LP  0  0  0  0  0  0  0  0  0  0  0  0  # atno 17342 bound_to 10162
  139.4845  144.4689  151.9450 LP  0  0  0  0  0  0  0  0  0  0  0  0  # atno 17343 bound_to 10162
  157.6552  131.0890  150.7962 LP  0  0  0  0  0  0  0  0  0  0  0  0  # atno 17370 bound_to 10713
  156.8040  130.4930  149.5365 LP  0  0  0  0  0  0  0  0  0  0  0  0  # atno 17371 bound_to 10713
  140.0462  134.9829  157.1052 LP  0  0  0  0  0  0  0  0  0  0  0  0  # atno 17394 bound_to 11000
  140.4060  134.2032  155.7163 LP  0  0  0  0  0  0  0  0  0  0  0  0  # atno 17395 bound_to 11000

$$$$
