AV-unprocessed.smi:3252|AV-procd|sdf|12441|dock8
  -GOLD-   2272018333D 1   1.00000     0.00000
 Structure written by MMmdl.
 37 38  0  0  0  0  0  0  0  0  2 V2000
  143.8497  132.6899  148.6006 C   0  0  0  0  0  0  0  0  0  0  0  0
  143.9861  133.6640  149.7791 C   0  0  0  0  0  0  0  0  0  0  0  0
  145.4056  133.9262  150.1361 N   0  3  1  0  0  0  0  0  0  0  0  0
  145.5871  135.1118  151.0082 C   0  0  0  0  0  0  0  0  0  0  0  0
  145.2311  134.7850  152.4687 C   0  0  0  0  0  0  0  0  0  0  0  0
  146.0232  133.6899  152.9078 O   0  0  0  0  0  0  0  0  0  0  0  0
  145.7733  132.4977  152.1696 C   0  0  2  0  0  0  0  0  0  0  0  0
  146.6202  131.3568  152.7610 C   0  0  0  0  0  0  0  0  0  0  0  0
  148.0518  131.5689  152.5778 N   0  0  0  0  0  0  0  0  0  0  0  0
  148.9161  131.7611  153.6657 C   0  0  0  0  0  0  0  0  0  0  0  0
  149.1096  133.0730  154.1474 C   0  0  0  0  0  0  0  0  0  0  0  0
  149.9756  133.2762  155.2399 C   0  0  0  0  0  0  0  0  0  0  0  0
  150.6176  132.1606  155.8126 C   0  0  0  0  0  0  0  0  0  0  0  0
  151.5214  132.3175  156.9391 C   0  0  0  0  0  0  0  0  0  0  0  0
  152.2410  132.4424  157.8364 N   0  0  0  0  0  0  0  0  0  0  0  0
  150.3605  130.8877  155.2649 C   0  0  0  0  0  0  0  0  0  0  0  0
  149.5301  130.6878  154.2187 N   0  0  0  0  0  0  0  0  0  0  0  0
  146.1373  132.7573  150.6904 C   0  0  0  0  0  0  0  0  0  0  0  0
  142.8057  132.5964  148.3005 H   0  0  0  0  0  0  0  0  0  0  0  0
  144.2036  131.6905  148.8512 H   0  0  0  0  0  0  0  0  0  0  0  0
  144.4112  133.0397  147.7336 H   0  0  0  0  0  0  0  0  0  0  0  0
  143.5159  134.6029  149.4843 H   0  0  0  0  0  0  0  0  0  0  0  0
  143.4258  133.3007  150.6403 H   0  0  0  0  0  0  0  0  0  0  0  0
  146.6319  135.4201  150.9543 H   0  0  0  0  0  0  0  0  0  0  0  0
  145.0005  135.9557  150.6436 H   0  0  0  0  0  0  0  0  0  0  0  0
  145.4380  135.6451  153.1058 H   0  0  0  0  0  0  0  0  0  0  0  0
  144.1702  134.5562  152.5801 H   0  0  0  0  0  0  0  0  0  0  0  0
  144.7191  132.2288  152.2522 H   0  0  0  0  0  0  0  0  0  0  0  0
  146.4480  131.3064  153.8363 H   0  0  0  0  0  0  0  0  0  0  0  0
  146.3081  130.3910  152.3626 H   0  0  0  0  0  0  0  0  0  0  0  0
  148.4433  131.4351  151.6566 H   0  0  0  0  0  0  0  0  0  0  0  0
  148.6062  133.9127  153.6905 H   0  0  0  0  0  0  0  0  0  0  0  0
  150.1405  134.2718  155.6261 H   0  0  0  0  0  0  0  0  0  0  0  0
  150.8301  130.0035  155.6717 H   0  0  0  0  0  0  0  0  0  0  0  0
  145.9627  131.8665  150.0884 H   0  0  0  0  0  0  0  0  0  0  0  0
  147.2056  132.9656  150.6154 H   0  0  0  0  0  0  0  0  0  0  0  0
  145.8557  134.1585  149.2621 H   0  0  0  0  0  0  0  0  0  0  0  0
  1  2  1  0  0  0  0
  1 19  1  0  0  0  0
  1 20  1  0  0  0  0
  1 21  1  0  0  0  0
  2  3  1  0  0  0  0
  2 22  1  0  0  0  0
  2 23  1  0  0  0  0
  3 18  1  0  0  0  0
  3  4  1  0  0  0  0
  3 37  1  0  0  0  0
  4  5  1  0  0  0  0
  4 24  1  0  0  0  0
  4 25  1  0  0  0  0
  5  6  1  0  0  0  0
  5 26  1  0  0  0  0
  5 27  1  0  0  0  0
  6  7  1  0  0  0  0
  7  8  1  0  0  0  0
  7 18  1  0  0  0  0
  7 28  1  0  0  0  0
  8  9  1  0  0  0  0
  8 29  1  0  0  0  0
  8 30  1  0  0  0  0
  9 10  1  0  0  0  0
  9 31  1  0  0  0  0
 10 17  1  0  0  0  0
 10 11  2  0  0  0  0
 11 12  1  0  0  0  0
 11 32  1  0  0  0  0
 12 13  2  0  0  0  0
 12 33  1  0  0  0  0
 13 14  1  0  0  0  0
 13 16  1  0  0  0  0
 14 15  3  0  0  0  0
 16 17  2  0  0  0  0
 16 34  1  0  0  0  0
 18 35  1  0  0  0  0
 18 36  1  0  0  0  0
M  CHG  1   3   1
M  END
> <s_m_source_file>
AV-unprocessed.smi

> <i_m_source_file_index>
3252

> <i_lp_mmshare_version>
43012

> <i_f3d_flags>
0

> <s_epik_input>
W0NIM11bQ0gyXU4xW0NIMl1bQ0gyXU9bQ0BIXShbQ0gyXTEpW0NIMl1bTkhdYzJbY0hdW2NIXWMoQyNOKVtjSF1uMg==

> <s_epik_cmdline>
J2VwaWtfcHl0aG9uJywgJy1waCcsICc3LjAnLCAnLXRuJywgJzgnLCAnLW1hJywgJzIwMCcsICctbWV0YWxfYmluZGluZycsICctaW1hZScsICc8aW5maWxlLm1hZT4nLCAnLW9tYWUnLCAnPG91dGZpbGUubWFlPic=

> <r_epik_Ionization_Penalty>
0.178512

> <r_epik_Ionization_Penalty_Charging>
0.178504

> <r_epik_Ionization_Penalty_Neutral>
8.15545e-06

> <r_epik_State_Penalty>
0.167974

> <r_epik_Charging_Adjusted_Penalty>
0.346478

> <i_epik_Tot_Q>
1

> <i_epik_Tot_abs_Q>
1

> <r_epik_Metal_State_Penalty>
0.167974

> <b_epik_Metal_Only>
0

> <s_lp_Force_Field>
OPLS_2005

> <r_lp_Energy>
19.5584

> <b_lp_Chiralities_Consistent>
1

> <s_lp_Variant>
AV-unprocessed.smi:3252-3

> <Gold.Version>
5.8.1

> <Gold.Id.Protein>
6NUR|6NUR_protein|mol2

> <Gold.PLP.Fitness>
40.8358

> <Gold.PLP.PLP>
-33.5171

> <Gold.PLP.part.hbond>
-2.9848

> <Gold.PLP.part.metal>
0.0000

> <Gold.PLP.part.buried>
-4.0284

> <Gold.PLP.part.nonpolar>
-27.2756

> <Gold.PLP.part.repulsive>
0.2808

> <Gold.PLP.ligand.clash>
0.0000

> <Gold.PLP.ligand.torsion>
0.8513

> <Gold.PLP.Chemscore.Hbond>
3.0000

> <Gold.PLP.Chemscore.CHOScore>
0.0000

> <Gold.PLP.Chemscore.Metal>
0.0000

> <Gold.Chemscore.Hbonds>
donor molecule, donor type, donor heavy atom, donor atom, acceptor molecule, acceptor atom, score
      L1  H     3    37       P1  7921  1.00
      L1  H     9    31       P1 10747  1.00
      P1  H  6896  6909       L1    15  1.00

> <Gold.PLP.Chemscore.Internal.Correction>
0.0214

> <Gold.Rescore>
     Score         DG    S(hbond)    S(metal)    S(lipo)     H(rot)  DE(clash)    DE(int)     intcor
     18.01     -19.12       2.65        0.00      73.19       1.47       0.33       0.78       ----

> <Gold.Chemscore.Fitness>
18.0133

> <Gold.Chemscore.DG>
-19.1225

> <Gold.Chemscore.ZeroCoef>
-5.4800

> <Gold.Chemscore.Hbond>
2.6459

> <Gold.Chemscore.Metal>
0.0000

> <Gold.Chemscore.Lipo>
73.1943

> <Gold.Chemscore.Internal_Hbond>
0.0000

> <Gold.Chemscore.DEClash>
0.3266

> <Gold.Chemscore.DEInternal>
0.7825

> <Gold.Chemscore.Rot>
1.4681

> <Gold.Chemscore.Internal.Correction>
   9.000000E+99

> <Gold.Chemscore.Hbonds>
donor molecule, donor type, donor heavy atom, donor atom, acceptor molecule, acceptor atom, score
      L1  H     3    37       P1  7921  0.45
      L1  H     9    31       P1 10747  0.97
      P1  H  6896  6909       L1    15  0.95

> <Gold.Chemscore.Hbond.Weighted>
-8.8372

> <Gold.Chemscore.Metal.Weighted>
-0.0000

> <Gold.Chemscore.Lipo.Weighted>
-8.5637

> <Gold.Chemscore.Internal_Hbond.Weighted>
0.0000

> <Gold.Chemscore.DEClash.Weighted>
0.3266

> <Gold.Chemscore.DEInternal.Weighted>
0.7825

> <Gold.Chemscore.Rot.Weighted>
3.7584

> <Gold.Chemscore.Internal.Correction.Weighted>
   9.000000E+99

> <Gold.Protein.RotatedTorsions>
[ 6907 6896 6895 6894 ] final  -81.76 input  -60.11 | X-H torsion
[ 7974 7965 7964 7962 ] final   63.19 input  175.53 | X-H torsion
[ 8008 7997 7996 7995 ] final  105.17 input   59.86 | X-H torsion
[ 10167 10162 10161 10158 ] final  -57.35 input  -65.29 | X-H torsion
[ 10718 10713 10712 10709 ] final  115.56 input   66.30 | X-H torsion
[ 10763 10752 10751 10750 ] final -139.87 input  -60.55 | X-H torsion
[ 11005 11000 10999 10996 ] final -164.37 input  -57.11 | X-H torsion

> <Gold.Protein.ActiveResidues>
 VAL166  LYS551  ARG553  GLY616  TRP617  ASP618  TYR619  PRO620  LYS621  CYS622 
 ASP623  PHE694  ASN695  SER759  ASP760  ASP761  ALA762  ILE779  LEU786  VAL792 
 PHE793  MET794  SER795  GLU796  ALA797  LYS798  CYS799  TRP800  GLU811  SER814 

> <Gold.Protein.RotatedAtoms>
  150.6907  134.3769  159.5016 H   0  0  0  0  0  0  0  0  0  0  0  0  # atno 6907 bound_to 6896
  152.1577  134.8935  160.0553 H   0  0  0  0  0  0  0  0  0  0  0  0  # atno 6908 bound_to 6896
  152.0009  133.3790  159.4218 H   0  0  0  0  0  0  0  0  0  0  0  0  # atno 6909 bound_to 6896
  145.8647  139.3338  143.0798 H   0  0  0  0  0  0  0  0  0  0  0  0  # atno 7974 bound_to 7965
  156.1636  140.3135  155.8850 H   0  0  0  0  0  0  0  0  0  0  0  0  # atno 8008 bound_to 7997
  155.3731  140.0483  157.3062 H   0  0  0  0  0  0  0  0  0  0  0  0  # atno 8009 bound_to 7997
  154.5171  140.2185  155.9056 H   0  0  0  0  0  0  0  0  0  0  0  0  # atno 8010 bound_to 7997
  140.6263  143.2440  151.5354 H   0  0  0  0  0  0  0  0  0  0  0  0  # atno 10167 bound_to 10162
  157.6214  131.1014  150.7347 H   0  0  0  0  0  0  0  0  0  0  0  0  # atno 10718 bound_to 10713
  154.8596  135.3570  154.5615 H   0  0  0  0  0  0  0  0  0  0  0  0  # atno 10763 bound_to 10752
  153.6230  135.7005  153.5308 H   0  0  0  0  0  0  0  0  0  0  0  0  # atno 10764 bound_to 10752
  153.3113  135.4178  155.1298 H   0  0  0  0  0  0  0  0  0  0  0  0  # atno 10765 bound_to 10752
  140.5876  134.5077  157.5188 H   0  0  0  0  0  0  0  0  0  0  0  0  # atno 11005 bound_to 11000
  145.9207  140.9117  143.0407 LP  0  0  0  0  0  0  0  0  0  0  0  0  # atno 17320 bound_to 7965
  144.6726  140.1284  143.7445 LP  0  0  0  0  0  0  0  0  0  0  0  0  # atno 17321 bound_to 7965
  139.5483  144.2462  152.1484 LP  0  0  0  0  0  0  0  0  0  0  0  0  # atno 17342 bound_to 10162
  140.1694  144.4950  150.6588 LP  0  0  0  0  0  0  0  0  0  0  0  0  # atno 17343 bound_to 10162
  156.7704  130.4827  149.5419 LP  0  0  0  0  0  0  0  0  0  0  0  0  # atno 17370 bound_to 10713
  156.1362  130.6213  151.0404 LP  0  0  0  0  0  0  0  0  0  0  0  0  # atno 17371 bound_to 10713
  139.9288  134.8003  156.0989 LP  0  0  0  0  0  0  0  0  0  0  0  0  # atno 17394 bound_to 11000
  141.0956  133.6697  156.2637 LP  0  0  0  0  0  0  0  0  0  0  0  0  # atno 17395 bound_to 11000

$$$$
