AV-unprocessed.smi:1379|AV-procd|sdf|5598|dock4
  -GOLD-   22720 5203D 1   1.00000     0.00000
 Structure written by MMmdl.
 34 35  0  0  0  0  0  0  0  0  1 V2000
  154.3171  136.3448  163.2814 C   0  0  0  0  0  0  0  0  0  0  0  0
  155.3639  136.0669  162.3686 O   0  0  0  0  0  0  0  0  0  0  0  0
  154.8944  135.8889  161.0407 C   0  0  0  0  0  0  0  0  0  0  0  0
  154.0005  137.0664  160.6456 C   0  0  0  0  0  0  0  0  0  0  0  0
  152.8771  136.8633  160.1848 O   0  0  0  0  0  0  0  0  0  0  0  0
  154.5467  138.2834  160.8230 N   0  0  0  0  0  0  0  0  0  0  0  0
  153.9824  139.5601  160.5537 C   0  0  0  0  0  0  0  0  0  0  0  0
  154.4967  140.7821  161.0489 C   0  0  0  0  0  0  0  0  0  0  0  0
  153.8540  141.9841  160.6957 C   0  0  0  0  0  0  0  0  0  0  0  0
  152.7261  141.9327  159.8515 C   0  0  0  0  0  0  0  0  0  0  0  0
  152.0866  143.1330  159.5061 N   0  0  0  0  0  0  0  0  0  0  0  0
  151.6465  143.9578  160.6195 C   0  0  0  0  0  0  0  0  0  0  0  0
  151.3464  145.3307  160.0129 C   0  0  0  0  0  0  0  0  0  0  0  0
  152.1626  145.3730  158.7152 C   0  0  0  0  0  0  0  0  0  0  0  0
  152.8584  144.0108  158.6426 C   0  0  0  0  0  0  0  0  0  0  0  0
  152.2368  140.7678  159.3633 N   0  0  0  0  0  0  0  0  0  0  0  0
  152.8565  139.6188  159.7066 C   0  0  0  0  0  0  0  0  0  0  0  0
  154.7289  136.4782  164.2815 H   0  0  0  0  0  0  0  0  0  0  0  0
  153.5995  135.5242  163.3194 H   0  0  0  0  0  0  0  0  0  0  0  0
  153.7892  137.2598  163.0098 H   0  0  0  0  0  0  0  0  0  0  0  0
  155.7349  135.8261  160.3474 H   0  0  0  0  0  0  0  0  0  0  0  0
  154.3223  134.9628  160.9633 H   0  0  0  0  0  0  0  0  0  0  0  0
  155.5066  138.2930  161.1365 H   0  0  0  0  0  0  0  0  0  0  0  0
  155.3722  140.8260  161.6774 H   0  0  0  0  0  0  0  0  0  0  0  0
  154.2265  142.9290  161.0636 H   0  0  0  0  0  0  0  0  0  0  0  0
  150.7666  143.5306  161.1013 H   0  0  0  0  0  0  0  0  0  0  0  0
  152.4333  144.0450  161.3701 H   0  0  0  0  0  0  0  0  0  0  0  0
  150.2836  145.4191  159.7842 H   0  0  0  0  0  0  0  0  0  0  0  0
  151.6082  146.1389  160.6965 H   0  0  0  0  0  0  0  0  0  0  0  0
  151.4968  145.5066  157.8617 H   0  0  0  0  0  0  0  0  0  0  0  0
  152.8839  146.1906  158.7055 H   0  0  0  0  0  0  0  0  0  0  0  0
  153.8850  144.0937  159.0025 H   0  0  0  0  0  0  0  0  0  0  0  0
  152.8901  143.6294  157.6216 H   0  0  0  0  0  0  0  0  0  0  0  0
  152.4338  138.7145  159.2935 H   0  0  0  0  0  0  0  0  0  0  0  0
  1  2  1  0  0  0  0
  1 18  1  0  0  0  0
  1 19  1  0  0  0  0
  1 20  1  0  0  0  0
  2  3  1  0  0  0  0
  3  4  1  0  0  0  0
  3 21  1  0  0  0  0
  3 22  1  0  0  0  0
  4  5  2  0  0  0  0
  4  6  1  0  0  0  0
  6  7  1  0  0  0  0
  6 23  1  0  0  0  0
  7 17  1  0  0  0  0
  7  8  2  0  0  0  0
  8  9  1  0  0  0  0
  8 24  1  0  0  0  0
  9 10  2  0  0  0  0
  9 25  1  0  0  0  0
 10 11  1  0  0  0  0
 10 16  1  0  0  0  0
 11 15  1  0  0  0  0
 11 12  1  0  0  0  0
 12 13  1  0  0  0  0
 12 26  1  0  0  0  0
 12 27  1  0  0  0  0
 13 14  1  0  0  0  0
 13 28  1  0  0  0  0
 13 29  1  0  0  0  0
 14 15  1  0  0  0  0
 14 30  1  0  0  0  0
 14 31  1  0  0  0  0
 15 32  1  0  0  0  0
 15 33  1  0  0  0  0
 16 17  2  0  0  0  0
 17 34  1  0  0  0  0
M  END
> <s_m_source_file>
AV-unprocessed.smi

> <i_m_source_file_index>
1379

> <i_lp_mmshare_version>
43012

> <i_f3d_flags>
0

> <s_epik_input>
W0NIM11PW0NIMl1DKD1PKVtOSF1jMVtjSF1bY0hdYyhuW2NIXTEpTjJbQ0gyXVtDSDJdW0NIMl1bQ0gyXTI=

> <s_epik_cmdline>
J2VwaWtfcHl0aG9uJywgJy1waCcsICc3LjAnLCAnLXRuJywgJzgnLCAnLW1hJywgJzIwMCcsICctbWV0YWxfYmluZGluZycsICctaW1hZScsICc8aW5maWxlLm1hZT4nLCAnLW9tYWUnLCAnPG91dGZpbGUubWFlPic=

> <r_lp_tautomer_probability>
1

> <r_epik_Ionization_Penalty>
0.0264378

> <r_epik_Ionization_Penalty_Charging>
0

> <r_epik_Ionization_Penalty_Neutral>
0.0264378

> <r_epik_State_Penalty>
0.0211097

> <r_epik_Charging_Adjusted_Penalty>
0.0211097

> <i_epik_Tot_Q>
0

> <i_epik_Tot_abs_Q>
0

> <r_epik_Metal_State_Penalty>
0.0201313

> <b_epik_Metal_Only>
0

> <s_lp_Force_Field>
OPLS_2005

> <r_lp_Energy>
37.8316

> <b_lp_Chiralities_Consistent>
1

> <s_lp_Variant>
AV-unprocessed.smi:1379-1

> <Gold.Version>
5.8.1

> <Gold.Id.Protein>
6NUR|6NUR_protein|mol2

> <Gold.PLP.Fitness>
40.3811

> <Gold.PLP.PLP>
-37.7933

> <Gold.PLP.part.hbond>
-1.0000

> <Gold.PLP.part.metal>
0.0000

> <Gold.PLP.part.buried>
-5.3994

> <Gold.PLP.part.nonpolar>
-30.9154

> <Gold.PLP.part.repulsive>
0.0035

> <Gold.PLP.ligand.clash>
0.0000

> <Gold.PLP.ligand.torsion>
0.2185

> <Gold.PLP.Chemscore.Hbond>
1.0000

> <Gold.PLP.Chemscore.CHOScore>
0.0000

> <Gold.PLP.Chemscore.Metal>
0.0000

> <Gold.Chemscore.Hbonds>
donor molecule, donor type, donor heavy atom, donor atom, acceptor molecule, acceptor atom, score
      P1  H  6896  6907       L1     5  1.00

> <Gold.PLP.Chemscore.Internal.Correction>
0.0249

> <Gold.Rescore>
     Score         DG    S(hbond)    S(metal)    S(lipo)     H(rot)  DE(clash)    DE(int)     intcor
     15.16     -16.67       0.99        0.00      98.31       1.42       0.00       1.50       ----

> <Gold.Chemscore.Fitness>
15.1620

> <Gold.Chemscore.DG>
-16.6686

> <Gold.Chemscore.ZeroCoef>
-5.4800

> <Gold.Chemscore.Hbond>
0.9910

> <Gold.Chemscore.Metal>
0.0000

> <Gold.Chemscore.Lipo>
98.3061

> <Gold.Chemscore.Internal_Hbond>
0.0000

> <Gold.Chemscore.DEClash>
0.0038

> <Gold.Chemscore.DEInternal>
1.5028

> <Gold.Chemscore.Rot>
1.4153

> <Gold.Chemscore.Internal.Correction>
   9.000000E+99

> <Gold.Chemscore.Hbonds>
donor molecule, donor type, donor heavy atom, donor atom, acceptor molecule, acceptor atom, score
      P1  H  6896  6907       L1     5  0.91

> <Gold.Chemscore.Hbond.Weighted>
-3.3099

> <Gold.Chemscore.Metal.Weighted>
-0.0000

> <Gold.Chemscore.Lipo.Weighted>
-11.5018

> <Gold.Chemscore.Internal_Hbond.Weighted>
0.0000

> <Gold.Chemscore.DEClash.Weighted>
0.0038

> <Gold.Chemscore.DEInternal.Weighted>
1.5028

> <Gold.Chemscore.Rot.Weighted>
3.6231

> <Gold.Chemscore.Internal.Correction.Weighted>
   9.000000E+99

> <Gold.Protein.RotatedTorsions>
[ 6907 6896 6895 6894 ] final   36.99 input  -60.11 | X-H torsion
[ 7974 7965 7964 7962 ] final -169.89 input  175.53 | X-H torsion
[ 8008 7997 7996 7995 ] final  -26.69 input   59.86 | X-H torsion
[ 10167 10162 10161 10158 ] final -172.21 input  -65.29 | X-H torsion
[ 10718 10713 10712 10709 ] final  164.99 input   66.30 | X-H torsion
[ 10763 10752 10751 10750 ] final  141.41 input  -60.55 | X-H torsion
[ 11005 11000 10999 10996 ] final  -88.53 input  -57.11 | X-H torsion

> <Gold.Protein.ActiveResidues>
 VAL166  LYS551  ARG553  GLY616  TRP617  ASP618  TYR619  PRO620  LYS621  CYS622 
 ASP623  PHE694  ASN695  SER759  ASP760  ASP761  ALA762  ILE779  LEU786  VAL792 
 PHE793  MET794  SER795  GLU796  ALA797  LYS798  CYS799  TRP800  GLU811  SER814 

> <Gold.Protein.RotatedAtoms>
  152.1371  134.9091  160.0555 H   0  0  0  0  0  0  0  0  0  0  0  0  # atno 6907 bound_to 6896
  152.0173  133.3879  159.4252 H   0  0  0  0  0  0  0  0  0  0  0  0  # atno 6908 bound_to 6896
  150.6861  134.3587  159.4984 H   0  0  0  0  0  0  0  0  0  0  0  0  # atno 6909 bound_to 6896
  144.7178  140.2153  143.6322 H   0  0  0  0  0  0  0  0  0  0  0  0  # atno 7974 bound_to 7965
  154.4413  140.1892  156.0815 H   0  0  0  0  0  0  0  0  0  0  0  0  # atno 8008 bound_to 7997
  156.0435  140.3317  155.7244 H   0  0  0  0  0  0  0  0  0  0  0  0  # atno 8009 bound_to 7997
  155.5664  140.0608  157.2808 H   0  0  0  0  0  0  0  0  0  0  0  0  # atno 8010 bound_to 7997
  139.5758  144.1537  152.1448 H   0  0  0  0  0  0  0  0  0  0  0  0  # atno 10167 bound_to 10162
  157.0866  131.0406  151.2554 H   0  0  0  0  0  0  0  0  0  0  0  0  # atno 10718 bound_to 10713
  153.9388  135.2982  155.3443 H   0  0  0  0  0  0  0  0  0  0  0  0  # atno 10763 bound_to 10752
  154.7488  135.4990  153.9255 H   0  0  0  0  0  0  0  0  0  0  0  0  # atno 10764 bound_to 10752
  153.1053  135.6745  153.9704 H   0  0  0  0  0  0  0  0  0  0  0  0  # atno 10765 bound_to 10752
  141.1600  133.7576  156.9465 H   0  0  0  0  0  0  0  0  0  0  0  0  # atno 11005 bound_to 11000
  145.8552  139.2195  143.1749 LP  0  0  0  0  0  0  0  0  0  0  0  0  # atno 17320 bound_to 7965
  146.0224  140.8335  142.9917 LP  0  0  0  0  0  0  0  0  0  0  0  0  # atno 17321 bound_to 7965
  140.1079  144.5483  150.6944 LP  0  0  0  0  0  0  0  0  0  0  0  0  # atno 17342 bound_to 10162
  140.7040  143.2455  151.4780 LP  0  0  0  0  0  0  0  0  0  0  0  0  # atno 17343 bound_to 10162
  157.4756  130.7735  149.7365 LP  0  0  0  0  0  0  0  0  0  0  0  0  # atno 17370 bound_to 10713
  155.9909  130.3941  150.3007 LP  0  0  0  0  0  0  0  0  0  0  0  0  # atno 17371 bound_to 10713
  140.1286  134.9370  157.2305 LP  0  0  0  0  0  0  0  0  0  0  0  0  # atno 17394 bound_to 11000
  140.2981  134.3163  155.7297 LP  0  0  0  0  0  0  0  0  0  0  0  0  # atno 17395 bound_to 11000

$$$$
