AV-unprocessed.smi:1701|AV-procd|sdf|6834|dock2
  -GOLD-   22720 8 13D 1   1.00000     0.00000
 Structure written by MMmdl.
 54 56  0  0  0  0  0  0  0  0  2 V2000
  152.4760  139.9321  158.4473 C   0  0  0  0  0  0  0  0  0  0  0  0
  151.5635  141.1600  158.3465 C   0  0  0  0  0  0  0  0  0  0  0  0
  151.1530  141.4200  156.9684 N   0  0  0  0  0  0  0  0  0  0  0  0
  151.0119  142.8139  156.5450 C   0  0  0  0  0  0  0  0  0  0  0  0
  151.6087  143.8077  157.5533 C   0  0  0  0  0  0  0  0  0  0  0  0
  150.4026  140.4112  156.3250 C   0  0  0  0  0  0  0  0  0  0  0  0
  149.4177  139.6891  157.0391 C   0  0  0  0  0  0  0  0  0  0  0  0
  148.6765  138.6916  156.3768 C   0  0  0  0  0  0  0  0  0  0  0  0
  148.9416  138.4352  155.0107 C   0  0  0  0  0  0  0  0  0  0  0  0
  148.2656  137.4725  154.2120 N   0  0  0  0  0  0  0  0  0  0  0  0
  147.0506  136.9136  154.3798 C   0  0  0  0  0  0  0  0  0  0  0  0
  146.2997  137.1261  155.3281 O   0  0  0  0  0  0  0  0  0  0  0  0
  146.7044  136.0559  153.4033 N   0  0  0  0  0  0  0  0  0  0  0  0
  145.4660  135.2856  153.2800 C   0  0  1  0  0  0  0  0  0  0  0  0
  144.2229  136.1413  152.9644 C   0  0  0  0  0  0  0  0  0  0  0  0
  143.3973  135.3111  151.9615 C   0  0  0  0  0  0  0  0  0  0  0  0
  144.1042  134.0212  151.8502 N   0  3  1  0  0  0  0  0  0  0  0  0
  143.8885  133.2357  150.6156 C   0  0  0  0  0  0  0  0  0  0  0  0
  144.6443  131.8962  150.7286 C   0  0  0  0  0  0  0  0  0  0  0  0
  146.1333  132.1047  151.0750 C   0  0  0  0  0  0  0  0  0  0  0  0
  146.2960  133.0082  152.3128 C   0  0  0  0  0  0  0  0  0  0  0  0
  145.5230  134.3194  152.0973 C   0  0  2  0  0  0  0  0  0  0  0  0
  149.9409  139.2079  154.3862 C   0  0  0  0  0  0  0  0  0  0  0  0
  150.6527  140.1642  155.0167 N   0  0  0  0  0  0  0  0  0  0  0  0
  152.7806  139.7624  159.4800 H   0  0  0  0  0  0  0  0  0  0  0  0
  153.3803  140.0571  157.8512 H   0  0  0  0  0  0  0  0  0  0  0  0
  151.9657  139.0341  158.0984 H   0  0  0  0  0  0  0  0  0  0  0  0
  150.7046  141.0372  159.0065 H   0  0  0  0  0  0  0  0  0  0  0  0
  152.0953  142.0357  158.7197 H   0  0  0  0  0  0  0  0  0  0  0  0
  151.4699  142.9491  155.5646 H   0  0  0  0  0  0  0  0  0  0  0  0
  149.9532  143.0403  156.4145 H   0  0  0  0  0  0  0  0  0  0  0  0
  151.4427  144.8335  157.2246 H   0  0  0  0  0  0  0  0  0  0  0  0
  152.6834  143.6739  157.6748 H   0  0  0  0  0  0  0  0  0  0  0  0
  151.1453  143.6960  158.5337 H   0  0  0  0  0  0  0  0  0  0  0  0
  149.2300  139.8857  158.0847 H   0  0  0  0  0  0  0  0  0  0  0  0
  147.9237  138.1577  156.9340 H   0  0  0  0  0  0  0  0  0  0  0  0
  148.7801  137.1576  153.4030 H   0  0  0  0  0  0  0  0  0  0  0  0
  147.3847  135.9179  152.6694 H   0  0  0  0  0  0  0  0  0  0  0  0
  145.2870  134.7083  154.1896 H   0  0  0  0  0  0  0  0  0  0  0  0
  143.6581  136.3581  153.8718 H   0  0  0  0  0  0  0  0  0  0  0  0
  144.4984  137.0968  152.5153 H   0  0  0  0  0  0  0  0  0  0  0  0
  142.3683  135.1629  152.2895 H   0  0  0  0  0  0  0  0  0  0  0  0
  143.3758  135.8107  150.9916 H   0  0  0  0  0  0  0  0  0  0  0  0
  142.8220  133.0559  150.4768 H   0  0  0  0  0  0  0  0  0  0  0  0
  144.2370  133.7998  149.7491 H   0  0  0  0  0  0  0  0  0  0  0  0
  144.1789  131.2852  151.5034 H   0  0  0  0  0  0  0  0  0  0  0  0
  144.5515  131.3347  149.7985 H   0  0  0  0  0  0  0  0  0  0  0  0
  146.6170  131.1427  151.2466 H   0  0  0  0  0  0  0  0  0  0  0  0
  146.6428  132.5597  150.2245 H   0  0  0  0  0  0  0  0  0  0  0  0
  145.9237  132.4924  153.1991 H   0  0  0  0  0  0  0  0  0  0  0  0
  147.3519  133.2150  152.4904 H   0  0  0  0  0  0  0  0  0  0  0  0
  145.9249  134.8408  151.2252 H   0  0  0  0  0  0  0  0  0  0  0  0
  150.1794  139.0554  153.3436 H   0  0  0  0  0  0  0  0  0  0  0  0
  143.7916  133.4544  152.6257 H   0  0  0  0  0  0  0  0  0  0  0  0
  1  2  1  0  0  0  0
  1 25  1  0  0  0  0
  1 26  1  0  0  0  0
  1 27  1  0  0  0  0
  2  3  1  0  0  0  0
  2 28  1  0  0  0  0
  2 29  1  0  0  0  0
  3  4  1  0  0  0  0
  3  6  1  0  0  0  0
  4  5  1  0  0  0  0
  4 30  1  0  0  0  0
  4 31  1  0  0  0  0
  5 32  1  0  0  0  0
  5 33  1  0  0  0  0
  5 34  1  0  0  0  0
  6 24  1  0  0  0  0
  6  7  2  0  0  0  0
  7  8  1  0  0  0  0
  7 35  1  0  0  0  0
  8  9  2  0  0  0  0
  8 36  1  0  0  0  0
  9 10  1  0  0  0  0
  9 23  1  0  0  0  0
 10 11  1  0  0  0  0
 10 37  1  0  0  0  0
 11 12  2  0  0  0  0
 11 13  1  0  0  0  0
 13 14  1  0  0  0  0
 13 38  1  0  0  0  0
 14 22  1  0  0  0  0
 14 15  1  0  0  0  0
 14 39  1  0  0  0  0
 15 16  1  0  0  0  0
 15 40  1  0  0  0  0
 15 41  1  0  0  0  0
 16 17  1  0  0  0  0
 16 42  1  0  0  0  0
 16 43  1  0  0  0  0
 17 22  1  0  0  0  0
 17 18  1  0  0  0  0
 17 54  1  0  0  0  0
 18 19  1  0  0  0  0
 18 44  1  0  0  0  0
 18 45  1  0  0  0  0
 19 20  1  0  0  0  0
 19 46  1  0  0  0  0
 19 47  1  0  0  0  0
 20 21  1  0  0  0  0
 20 48  1  0  0  0  0
 20 49  1  0  0  0  0
 21 22  1  0  0  0  0
 21 50  1  0  0  0  0
 21 51  1  0  0  0  0
 22 52  1  0  0  0  0
 23 24  2  0  0  0  0
 23 53  1  0  0  0  0
M  CHG  1  17   1
M  END
> <s_m_source_file>
AV-unprocessed.smi

> <i_m_source_file_index>
1701

> <i_lp_mmshare_version>
43012

> <i_f3d_flags>
0

> <s_epik_input>
W0NIM11bQ0gyXU4oW0NIMl1bQ0gzXSljMVtjSF1bY0hdYyhbY0hdbjEpW05IXUMoPU8pW05IXVtDQEhdKFtDSDJdW0NIMl0yKVtDQEBIXShOMjMpW0NIMl1bQ0gyXVtDSDJdW0NIMl0z

> <s_epik_cmdline>
J2VwaWtfcHl0aG9uJywgJy1waCcsICc3LjAnLCAnLXRuJywgJzgnLCAnLW1hJywgJzIwMCcsICctbWV0YWxfYmluZGluZycsICctaW1hZScsICc8aW5maWxlLm1hZT4nLCAnLW9tYWUnLCAnPG91dGZpbGUubWFlPic=

> <r_lp_tautomer_probability>
1

> <r_epik_Ionization_Penalty>
0.56662

> <r_epik_Ionization_Penalty_Charging>
0.000974069

> <r_epik_Ionization_Penalty_Neutral>
0.565646

> <r_epik_State_Penalty>
2.0247

> <r_epik_Charging_Adjusted_Penalty>
2.02568

> <i_epik_Tot_Q>
1

> <i_epik_Tot_abs_Q>
1

> <r_epik_Metal_State_Penalty>
1.51504

> <b_epik_Metal_Only>
0

> <s_lp_Force_Field>
OPLS_2005

> <r_lp_Energy>
54.5744

> <b_lp_Chiralities_Consistent>
1

> <s_lp_Variant>
AV-unprocessed.smi:1701-14

> <Gold.Version>
5.8.1

> <Gold.Id.Protein>
6NUR|6NUR_protein|mol2

> <Gold.PLP.Fitness>
45.0440

> <Gold.PLP.PLP>
-35.0290

> <Gold.PLP.part.hbond>
-3.0000

> <Gold.PLP.part.metal>
0.0000

> <Gold.PLP.part.buried>
-4.4231

> <Gold.PLP.part.nonpolar>
-28.1721

> <Gold.PLP.part.repulsive>
0.0783

> <Gold.PLP.ligand.clash>
0.0000

> <Gold.PLP.ligand.torsion>
1.4114

> <Gold.PLP.Chemscore.Hbond>
3.0000

> <Gold.PLP.Chemscore.CHOScore>
1.0000

> <Gold.PLP.Chemscore.Metal>
0.0000

> <Gold.Chemscore.Hbonds>
donor molecule, donor type, donor heavy atom, donor atom, acceptor molecule, acceptor atom, score
      L1  H    10    37       P1  7948  1.00
      L1  H    13    38       P1  7948  1.00
      P1  H  7989  7998       L1    24  0.95
      L1  C    23    53       P1  7957  1.00

> <Gold.PLP.Chemscore.Internal.Correction>
0.8378

> <Gold.Rescore>
     Score         DG    S(hbond)    S(metal)    S(lipo)     H(rot)  DE(clash)    DE(int)     intcor
     19.32     -21.85       2.58        0.00      94.41       1.28       0.30       2.24       ----

> <Gold.Chemscore.Fitness>
19.3216

> <Gold.Chemscore.DG>
-21.8542

> <Gold.Chemscore.ZeroCoef>
-5.4800

> <Gold.Chemscore.Hbond>
2.5792

> <Gold.Chemscore.Metal>
0.0000

> <Gold.Chemscore.Lipo>
94.4117

> <Gold.Chemscore.Internal_Hbond>
0.0000

> <Gold.Chemscore.DEClash>
0.2956

> <Gold.Chemscore.DEInternal>
2.2371

> <Gold.Chemscore.Rot>
1.2838

> <Gold.Chemscore.Internal.Correction>
   9.000000E+99

> <Gold.Chemscore.Hbonds>
donor molecule, donor type, donor heavy atom, donor atom, acceptor molecule, acceptor atom, score
      L1  H    10    37       P1  7948  0.98
      L1  H    13    38       P1  7948  0.98
      P1  H  7989  7998       L1    24  0.21

> <Gold.Chemscore.Hbond.Weighted>
-8.6146

> <Gold.Chemscore.Metal.Weighted>
-0.0000

> <Gold.Chemscore.Lipo.Weighted>
-11.0462

> <Gold.Chemscore.Internal_Hbond.Weighted>
0.0000

> <Gold.Chemscore.DEClash.Weighted>
0.2956

> <Gold.Chemscore.DEInternal.Weighted>
2.2371

> <Gold.Chemscore.Rot.Weighted>
3.2865

> <Gold.Chemscore.Internal.Correction.Weighted>
   9.000000E+99

> <Gold.Protein.RotatedTorsions>
[ 6907 6896 6895 6894 ] final  176.90 input  -60.11 | X-H torsion
[ 7974 7965 7964 7962 ] final -145.82 input  175.53 | X-H torsion
[ 8008 7997 7996 7995 ] final -158.99 input   59.86 | X-H torsion
[ 10167 10162 10161 10158 ] final  159.99 input  -65.29 | X-H torsion
[ 10718 10713 10712 10709 ] final   79.06 input   66.30 | X-H torsion
[ 10763 10752 10751 10750 ] final   61.85 input  -60.55 | X-H torsion
[ 11005 11000 10999 10996 ] final  159.55 input  -57.11 | X-H torsion

> <Gold.Protein.ActiveResidues>
 VAL166  LYS551  ARG553  GLY616  TRP617  ASP618  TYR619  PRO620  LYS621  CYS622 
 ASP623  PHE694  ASN695  SER759  ASP760  ASP761  ALA762  ILE779  LEU786  VAL792 
 PHE793  MET794  SER795  GLU796  ALA797  LYS798  CYS799  TRP800  GLU811  SER814 

> <Gold.Protein.RotatedAtoms>
  151.7127  133.3312  159.3294 H   0  0  0  0  0  0  0  0  0  0  0  0  # atno 6907 bound_to 6896
  150.7687  134.6518  159.6302 H   0  0  0  0  0  0  0  0  0  0  0  0  # atno 6908 bound_to 6896
  152.3701  134.6748  160.0230 H   0  0  0  0  0  0  0  0  0  0  0  0  # atno 6909 bound_to 6896
  144.8201  140.5535  143.5584 H   0  0  0  0  0  0  0  0  0  0  0  0  # atno 7974 bound_to 7965
  155.7558  140.0832  157.2179 H   0  0  0  0  0  0  0  0  0  0  0  0  # atno 8008 bound_to 7997
  154.4008  140.1552  156.2832 H   0  0  0  0  0  0  0  0  0  0  0  0  # atno 8009 bound_to 7997
  155.8887  140.3416  155.5943 H   0  0  0  0  0  0  0  0  0  0  0  0  # atno 8010 bound_to 7997
  139.4836  144.4677  151.8619 H   0  0  0  0  0  0  0  0  0  0  0  0  # atno 10167 bound_to 10162
  157.6765  130.9897  150.1878 H   0  0  0  0  0  0  0  0  0  0  0  0  # atno 10718 bound_to 10713
  152.9963  135.5486  154.6099 H   0  0  0  0  0  0  0  0  0  0  0  0  # atno 10763 bound_to 10752
  154.5422  135.2820  155.1087 H   0  0  0  0  0  0  0  0  0  0  0  0  # atno 10764 bound_to 10752
  154.2360  135.6425  153.5244 H   0  0  0  0  0  0  0  0  0  0  0  0  # atno 10765 bound_to 10752
  140.1973  134.8364  157.2979 H   0  0  0  0  0  0  0  0  0  0  0  0  # atno 11005 bound_to 11000
  145.5124  139.1479  143.3597 LP  0  0  0  0  0  0  0  0  0  0  0  0  # atno 17320 bound_to 7965
  146.2506  140.5265  142.8895 LP  0  0  0  0  0  0  0  0  0  0  0  0  # atno 17321 bound_to 7965
  140.4143  144.2327  150.5888 LP  0  0  0  0  0  0  0  0  0  0  0  0  # atno 17342 bound_to 10162
  140.4936  143.2340  151.8783 LP  0  0  0  0  0  0  0  0  0  0  0  0  # atno 17343 bound_to 10162
  156.2596  130.3709  149.8145 LP  0  0  0  0  0  0  0  0  0  0  0  0  # atno 17370 bound_to 10713
  156.5894  130.8499  151.3404 LP  0  0  0  0  0  0  0  0  0  0  0  0  # atno 17371 bound_to 10713
  140.2093  134.4158  155.7621 LP  0  0  0  0  0  0  0  0  0  0  0  0  # atno 17394 bound_to 11000
  141.2227  133.7110  156.8312 LP  0  0  0  0  0  0  0  0  0  0  0  0  # atno 17395 bound_to 11000

$$$$
