AV-unprocessed.smi:1691|AV-procd|sdf|6775|dock5
  -GOLD-   22720 7533D 1   1.00000     0.00000
 Structure written by MMmdl.
 44 45  0  0  0  0  0  0  0  0  2 V2000
  149.3079  141.3764  154.8295 C   0  0  0  0  0  0  0  0  0  0  0  0
  148.5096  140.1348  154.3831 C   0  0  0  0  0  0  0  0  0  0  0  0
  149.4940  139.0810  153.8400 C   0  0  0  0  0  0  0  0  0  0  0  0
  147.3860  140.4996  153.3683 C   0  0  1  0  0  0  0  0  0  0  0  0
  146.9915  139.3025  152.4568 C   0  0  0  0  0  0  0  0  0  0  0  0
  145.6210  138.8441  152.6665 N   0  0  0  0  0  0  0  0  0  0  0  0
  145.2589  137.6049  153.0275 C   0  0  0  0  0  0  0  0  0  0  0  0
  146.0591  136.6911  153.2259 O   0  0  0  0  0  0  0  0  0  0  0  0
  143.9261  137.5042  153.1532 N   0  0  0  0  0  0  0  0  0  0  0  0
  143.1871  136.3587  153.5406 C   0  0  0  0  0  0  0  0  0  0  0  0
  141.9032  136.2786  154.1556 C   0  0  0  0  0  0  0  0  0  0  0  0
  141.5485  135.0185  154.3621 N   0  0  0  0  0  0  0  0  0  0  0  0
  142.5888  134.2964  153.8890 N   0  0  0  0  0  0  0  0  0  0  0  0
  143.6073  135.0720  153.3807 C   0  0  0  0  0  0  0  0  0  0  0  0
  146.2318  141.1213  154.0923 N   0  3  0  0  0  0  0  0  0  0  0  0
  145.8493  140.4690  155.3688 C   0  0  0  0  0  0  0  0  0  0  0  0
  144.5113  141.0408  155.8661 C   0  0  0  0  0  0  0  0  0  0  0  0
  144.6164  142.4532  156.0042 O   0  0  0  0  0  0  0  0  0  0  0  0
  144.9009  143.0946  154.7660 C   0  0  0  0  0  0  0  0  0  0  0  0
  146.2529  142.5996  154.2268 C   0  0  0  0  0  0  0  0  0  0  0  0
  142.5887  133.2866  153.9205 H   0  0  0  0  0  0  0  0  0  0  0  0
  149.7652  141.8802  153.9773 H   0  0  0  0  0  0  0  0  0  0  0  0
  150.1080  141.1025  155.5180 H   0  0  0  0  0  0  0  0  0  0  0  0
  148.6819  142.1009  155.3502 H   0  0  0  0  0  0  0  0  0  0  0  0
  148.0485  139.7073  155.2741 H   0  0  0  0  0  0  0  0  0  0  0  0
  149.9223  139.3909  152.8862 H   0  0  0  0  0  0  0  0  0  0  0  0
  149.0185  138.1109  153.6991 H   0  0  0  0  0  0  0  0  0  0  0  0
  150.3196  138.9200  154.5341 H   0  0  0  0  0  0  0  0  0  0  0  0
  147.8069  141.2689  152.7186 H   0  0  0  0  0  0  0  0  0  0  0  0
  147.0387  139.5951  151.4089 H   0  0  0  0  0  0  0  0  0  0  0  0
  147.7120  138.4911  152.5716 H   0  0  0  0  0  0  0  0  0  0  0  0
  144.8895  139.5243  152.5188 H   0  0  0  0  0  0  0  0  0  0  0  0
  143.3834  138.3330  152.9596 H   0  0  0  0  0  0  0  0  0  0  0  0
  141.2266  137.0651  154.4552 H   0  0  0  0  0  0  0  0  0  0  0  0
  144.5106  134.6520  152.9634 H   0  0  0  0  0  0  0  0  0  0  0  0
  145.7551  139.3920  155.2264 H   0  0  0  0  0  0  0  0  0  0  0  0
  146.6118  140.6287  156.1296 H   0  0  0  0  0  0  0  0  0  0  0  0
  143.7009  140.7900  155.1797 H   0  0  0  0  0  0  0  0  0  0  0  0
  144.2543  140.6085  156.8335 H   0  0  0  0  0  0  0  0  0  0  0  0
  144.1009  142.9009  154.0494 H   0  0  0  0  0  0  0  0  0  0  0  0
  144.9321  144.1725  154.9254 H   0  0  0  0  0  0  0  0  0  0  0  0
  147.0431  142.9107  154.9080 H   0  0  0  0  0  0  0  0  0  0  0  0
  146.4565  143.0661  153.2632 H   0  0  0  0  0  0  0  0  0  0  0  0
  145.4468  140.9314  153.4858 H   0  0  0  0  0  0  0  0  0  0  0  0
  1  2  1  0  0  0  0
  1 22  1  0  0  0  0
  1 23  1  0  0  0  0
  1 24  1  0  0  0  0
  2  3  1  0  0  0  0
  2  4  1  0  0  0  0
  2 25  1  0  0  0  0
  3 26  1  0  0  0  0
  3 27  1  0  0  0  0
  3 28  1  0  0  0  0
  4  5  1  0  0  0  0
  4 15  1  0  0  0  0
  4 29  1  0  0  0  0
  5  6  1  0  0  0  0
  5 30  1  0  0  0  0
  5 31  1  0  0  0  0
  6  7  1  0  0  0  0
  6 32  1  0  0  0  0
  7  8  2  0  0  0  0
  7  9  1  0  0  0  0
  9 10  1  0  0  0  0
  9 33  1  0  0  0  0
 10 14  2  0  0  0  0
 10 11  1  0  0  0  0
 11 12  2  0  0  0  0
 11 34  1  0  0  0  0
 12 13  1  0  0  0  0
 13 21  1  0  0  0  0
 13 14  1  0  0  0  0
 14 35  1  0  0  0  0
 15 20  1  0  0  0  0
 15 16  1  0  0  0  0
 15 44  1  0  0  0  0
 16 17  1  0  0  0  0
 16 36  1  0  0  0  0
 16 37  1  0  0  0  0
 17 18  1  0  0  0  0
 17 38  1  0  0  0  0
 17 39  1  0  0  0  0
 18 19  1  0  0  0  0
 19 20  1  0  0  0  0
 19 40  1  0  0  0  0
 19 41  1  0  0  0  0
 20 42  1  0  0  0  0
 20 43  1  0  0  0  0
M  CHG  1  15   1
M  END
> <s_m_source_file>
AV-unprocessed.smi

> <i_m_source_file_index>
1691

> <i_lp_mmshare_version>
43012

> <i_f3d_flags>
0

> <s_epik_input>
W0NIMl0xW0NIMl1PW0NIMl1bQ0gyXU4xW0NASF0oW0NIXShbQ0gzXSlbQ0gzXSlbQ0gyXVtOSF1DKD1PKVtOSF1jMltjSF1uW25IXVtjSF0y

> <s_epik_cmdline>
J2VwaWtfcHl0aG9uJywgJy1waCcsICc3LjAnLCAnLXRuJywgJzgnLCAnLW1hJywgJzIwMCcsICctbWV0YWxfYmluZGluZycsICctaW1hZScsICc8aW5maWxlLm1hZT4nLCAnLW9tYWUnLCAnPG91dGZpbGUubWFlPic=

> <r_lp_tautomer_probability>
0.5

> <r_epik_Ionization_Penalty>
0.363378

> <r_epik_Ionization_Penalty_Charging>
0.363339

> <r_epik_Ionization_Penalty_Neutral>
3.97246e-05

> <r_epik_State_Penalty>
0.36031

> <r_epik_Charging_Adjusted_Penalty>
0.723649

> <i_epik_Tot_Q>
1

> <i_epik_Tot_abs_Q>
1

> <r_epik_Metal_State_Penalty>
0.360311

> <b_epik_Metal_Only>
0

> <s_lp_Force_Field>
OPLS_2005

> <r_lp_Energy>
33.682

> <b_lp_Chiralities_Consistent>
1

> <s_lp_Variant>
AV-unprocessed.smi:1691-2

> <Gold.Version>
5.8.1

> <Gold.Id.Protein>
6NUR|6NUR_protein|mol2

> <Gold.PLP.Fitness>
44.1011

> <Gold.PLP.PLP>
-30.6498

> <Gold.PLP.part.hbond>
-5.1651

> <Gold.PLP.part.metal>
0.0000

> <Gold.PLP.part.buried>
-0.8678

> <Gold.PLP.part.nonpolar>
-25.8410

> <Gold.PLP.part.repulsive>
0.4591

> <Gold.PLP.ligand.clash>
0.0000

> <Gold.PLP.ligand.torsion>
1.9870

> <Gold.PLP.Chemscore.Hbond>
5.7120

> <Gold.PLP.Chemscore.CHOScore>
0.0000

> <Gold.PLP.Chemscore.Metal>
0.0000

> <Gold.Chemscore.Hbonds>
donor molecule, donor type, donor heavy atom, donor atom, acceptor molecule, acceptor atom, score
      L1  H     6    32       P1 10175  0.99
      L1  H     9    33       P1 10175  0.54
      L1  H    13    21       P1 10957  1.00
      L1  H    15    44       P1 10175  1.79
      P1  H 11000 11005       L1    12  0.80

> <Gold.PLP.Chemscore.Internal.Correction>
0.2893

> <Gold.Rescore>
     Score         DG    S(hbond)    S(metal)    S(lipo)     H(rot)  DE(clash)    DE(int)     intcor
     16.40     -19.89       3.50        0.00      63.69       1.84       0.12       3.38       ----

> <Gold.Chemscore.Fitness>
16.3977

> <Gold.Chemscore.DG>
-19.8947

> <Gold.Chemscore.ZeroCoef>
-5.4800

> <Gold.Chemscore.Hbond>
3.4969

> <Gold.Chemscore.Metal>
0.0000

> <Gold.Chemscore.Lipo>
63.6897

> <Gold.Chemscore.Internal_Hbond>
0.0000

> <Gold.Chemscore.DEClash>
0.1209

> <Gold.Chemscore.DEInternal>
3.3761

> <Gold.Chemscore.Rot>
1.8425

> <Gold.Chemscore.Internal.Correction>
   9.000000E+99

> <Gold.Chemscore.Hbonds>
donor molecule, donor type, donor heavy atom, donor atom, acceptor molecule, acceptor atom, score
      L1  H     6    32       P1 10175  0.93
      L1  H     9    33       P1 10175  0.53
      L1  H    13    21       P1 10957  0.97
      L1  H    15    44       P1 10175  0.60
      P1  H 11000 11005       L1    12  0.77

> <Gold.Chemscore.Hbond.Weighted>
-11.6798

> <Gold.Chemscore.Metal.Weighted>
-0.0000

> <Gold.Chemscore.Lipo.Weighted>
-7.4517

> <Gold.Chemscore.Internal_Hbond.Weighted>
0.0000

> <Gold.Chemscore.DEClash.Weighted>
0.1209

> <Gold.Chemscore.DEInternal.Weighted>
3.3761

> <Gold.Chemscore.Rot.Weighted>
4.7168

> <Gold.Chemscore.Internal.Correction.Weighted>
   9.000000E+99

> <Gold.Protein.RotatedTorsions>
[ 6907 6896 6895 6894 ] final  -47.02 input  -60.11 | X-H torsion
[ 7974 7965 7964 7962 ] final   38.66 input  175.53 | X-H torsion
[ 8008 7997 7996 7995 ] final  172.51 input   59.86 | X-H torsion
[ 10167 10162 10161 10158 ] final  -33.19 input  -65.29 | X-H torsion
[ 10718 10713 10712 10709 ] final -116.36 input   66.30 | X-H torsion
[ 10763 10752 10751 10750 ] final  -16.00 input  -60.55 | X-H torsion
[ 11005 11000 10999 10996 ] final   26.31 input  -57.11 | X-H torsion

> <Gold.Protein.ActiveResidues>
 VAL166  LYS551  ARG553  GLY616  TRP617  ASP618  TYR619  PRO620  LYS621  CYS622 
 ASP623  PHE694  ASN695  SER759  ASP760  ASP761  ALA762  ILE779  LEU786  VAL792 
 PHE793  MET794  SER795  GLU796  ALA797  LYS798  CYS799  TRP800  GLU811  SER814 

> <Gold.Protein.RotatedAtoms>
  150.9051  134.8466  159.7386 H   0  0  0  0  0  0  0  0  0  0  0  0  # atno 6907 bound_to 6896
  152.4914  134.4443  159.9563 H   0  0  0  0  0  0  0  0  0  0  0  0  # atno 6908 bound_to 6896
  151.4491  133.3583  159.2828 H   0  0  0  0  0  0  0  0  0  0  0  0  # atno 6909 bound_to 6896
  146.1044  139.5745  142.9393 H   0  0  0  0  0  0  0  0  0  0  0  0  # atno 7974 bound_to 7965
  156.1167  140.1484  156.9262 H   0  0  0  0  0  0  0  0  0  0  0  0  # atno 8008 bound_to 7997
  154.4806  140.0881  156.7409 H   0  0  0  0  0  0  0  0  0  0  0  0  # atno 8009 bound_to 7997
  155.4501  140.3434  155.4302 H   0  0  0  0  0  0  0  0  0  0  0  0  # atno 8010 bound_to 7997
  140.7208  143.3638  151.1910 H   0  0  0  0  0  0  0  0  0  0  0  0  # atno 10167 bound_to 10162
  156.0959  130.6131  150.9026 H   0  0  0  0  0  0  0  0  0  0  0  0  # atno 10718 bound_to 10713
  153.5519  135.7011  153.5587 H   0  0  0  0  0  0  0  0  0  0  0  0  # atno 10763 bound_to 10752
  153.3508  135.3996  155.1644 H   0  0  0  0  0  0  0  0  0  0  0  0  # atno 10764 bound_to 10752
  154.8660  135.3765  154.5030 H   0  0  0  0  0  0  0  0  0  0  0  0  # atno 10765 bound_to 10752
  140.3384  134.2360  155.7693 H   0  0  0  0  0  0  0  0  0  0  0  0  # atno 11005 bound_to 11000
  145.5789  141.0385  143.2133 LP  0  0  0  0  0  0  0  0  0  0  0  0  # atno 17320 bound_to 7965
  144.7459  139.7322  143.7292 LP  0  0  0  0  0  0  0  0  0  0  0  0  # atno 17321 bound_to 7965
  139.7196  143.9245  152.2980 LP  0  0  0  0  0  0  0  0  0  0  0  0  # atno 17342 bound_to 10162
  139.8997  144.6918  150.8678 LP  0  0  0  0  0  0  0  0  0  0  0  0  # atno 17343 bound_to 10162
  157.6119  131.0936  150.8779 LP  0  0  0  0  0  0  0  0  0  0  0  0  # atno 17370 bound_to 10713
  156.8918  130.5215  149.5286 LP  0  0  0  0  0  0  0  0  0  0  0  0  # atno 17371 bound_to 10713
  141.2045  133.7885  157.0284 LP  0  0  0  0  0  0  0  0  0  0  0  0  # atno 17394 bound_to 11000
  140.0801  134.9653  157.1610 LP  0  0  0  0  0  0  0  0  0  0  0  0  # atno 17395 bound_to 11000

$$$$
