AV-unprocessed.smi:995|AV-procd|sdf|4345|dock7
  -GOLD-   22720 2243D 1   1.00000     0.00000
 Structure written by MMmdl.
 37 38  0  0  0  0  0  0  0  0  1 V2000
  145.4061  133.0495  153.1983 O   0  0  0  0  0  0  0  0  0  0  0  0
  146.2584  133.7393  152.6394 C   0  0  0  0  0  0  0  0  0  0  0  0
  147.2777  134.3541  153.2686 N   0  0  0  0  0  0  0  0  0  0  0  0
  147.6155  134.3550  154.6499 C   0  0  0  0  0  0  0  0  0  0  0  0
  146.8807  133.6916  155.6622 C   0  0  0  0  0  0  0  0  0  0  0  0
  147.3261  133.7798  156.9951 C   0  0  0  0  0  0  0  0  0  0  0  0
  148.4826  134.5320  157.2802 C   0  0  0  0  0  0  0  0  0  0  0  0
  148.9159  134.6070  158.5880 O   0  0  0  0  0  0  0  0  0  0  0  0
  148.1734  133.9187  159.5913 C   0  0  0  0  0  0  0  0  0  0  0  0
  147.3999  134.9396  160.4389 C   0  0  0  0  0  0  0  0  0  0  0  0
  148.2193  135.9305  160.7930 F   0  0  0  0  0  0  0  0  0  0  0  0
  146.4054  135.4272  159.6960 F   0  0  0  0  0  0  0  0  0  0  0  0
  146.7920  134.3113  161.7035 C   0  0  0  0  0  0  0  0  0  0  0  0
  147.6996  133.5982  162.3709 F   0  0  0  0  0  0  0  0  0  0  0  0
  146.2911  135.2521  162.5041 F   0  0  0  0  0  0  0  0  0  0  0  0
  149.1819  135.1832  156.3187 N   0  0  0  0  0  0  0  0  0  0  0  0
  148.7510  135.0930  155.0434 C   0  0  0  0  0  0  0  0  0  0  0  0
  146.2120  133.9478  151.1133 C   0  0  2  0  0  0  0  0  0  0  0  0
  144.8904  134.5545  150.5848 C   0  0  0  0  0  0  0  0  0  0  0  0
  143.8374  133.6014  150.6710 O   0  0  0  0  0  0  0  0  0  0  0  0
  144.1321  132.4322  149.9201 C   0  0  0  0  0  0  0  0  0  0  0  0
  145.4064  131.7833  150.4831 C   0  0  0  0  0  0  0  0  0  0  0  0
  146.4758  132.7246  150.4204 O   0  0  0  0  0  0  0  0  0  0  0  0
  147.9276  134.8400  152.6674 H   0  0  0  0  0  0  0  0  0  0  0  0
  145.9857  133.1277  155.4538 H   0  0  0  0  0  0  0  0  0  0  0  0
  146.7879  133.2793  157.7866 H   0  0  0  0  0  0  0  0  0  0  0  0
  147.4702  133.2218  159.1319 H   0  0  0  0  0  0  0  0  0  0  0  0
  148.8506  133.3434  160.2251 H   0  0  0  0  0  0  0  0  0  0  0  0
  145.9753  133.6332  161.4543 H   0  0  0  0  0  0  0  0  0  0  0  0
  149.3383  135.6271  154.3106 H   0  0  0  0  0  0  0  0  0  0  0  0
  147.0229  134.6362  150.8730 H   0  0  0  0  0  0  0  0  0  0  0  0
  144.6145  135.4467  151.1482 H   0  0  0  0  0  0  0  0  0  0  0  0
  145.0106  134.8724  149.5480 H   0  0  0  0  0  0  0  0  0  0  0  0
  143.2921  131.7412  149.9928 H   0  0  0  0  0  0  0  0  0  0  0  0
  144.2540  132.6807  148.8647 H   0  0  0  0  0  0  0  0  0  0  0  0
  145.2464  131.4368  151.5048 H   0  0  0  0  0  0  0  0  0  0  0  0
  145.6743  130.9067  149.8934 H   0  0  0  0  0  0  0  0  0  0  0  0
  1  2  2  0  0  0  0
  2  3  1  0  0  0  0
  2 18  1  0  0  0  0
  3  4  1  0  0  0  0
  3 24  1  0  0  0  0
  4 17  1  0  0  0  0
  4  5  2  0  0  0  0
  5  6  1  0  0  0  0
  5 25  1  0  0  0  0
  6  7  2  0  0  0  0
  6 26  1  0  0  0  0
  7  8  1  0  0  0  0
  7 16  1  0  0  0  0
  8  9  1  0  0  0  0
  9 10  1  0  0  0  0
  9 27  1  0  0  0  0
  9 28  1  0  0  0  0
 10 11  1  0  0  0  0
 10 12  1  0  0  0  0
 10 13  1  0  0  0  0
 13 14  1  0  0  0  0
 13 15  1  0  0  0  0
 13 29  1  0  0  0  0
 16 17  2  0  0  0  0
 17 30  1  0  0  0  0
 18 23  1  0  0  0  0
 18 19  1  0  0  0  0
 18 31  1  0  0  0  0
 19 20  1  0  0  0  0
 19 32  1  0  0  0  0
 19 33  1  0  0  0  0
 20 21  1  0  0  0  0
 21 22  1  0  0  0  0
 21 34  1  0  0  0  0
 21 35  1  0  0  0  0
 22 23  1  0  0  0  0
 22 36  1  0  0  0  0
 22 37  1  0  0  0  0
M  END
> <s_m_source_file>
AV-unprocessed.smi

> <i_m_source_file_index>
995

> <i_lp_mmshare_version>
43012

> <i_f3d_flags>
0

> <s_epik_input>
TzFbQ0gyXVtDSDJdT1tDSDJdW0NASF0xQyg9TylbTkhdYzJbY0hdW2NIXWMobltjSF0yKU9bQ0gyXUMoRikoRilbQ0hdKEYpRg==

> <s_epik_cmdline>
J2VwaWtfcHl0aG9uJywgJy1waCcsICc3LjAnLCAnLXRuJywgJzgnLCAnLW1hJywgJzIwMCcsICctbWV0YWxfYmluZGluZycsICctaW1hZScsICc8aW5maWxlLm1hZT4nLCAnLW9tYWUnLCAnPG91dGZpbGUubWFlPic=

> <r_lp_tautomer_probability>
1

> <r_epik_Ionization_Penalty>
2.54436e-06

> <r_epik_Ionization_Penalty_Charging>
0

> <r_epik_Ionization_Penalty_Neutral>
2.54436e-06

> <r_epik_State_Penalty>
-0

> <r_epik_Charging_Adjusted_Penalty>
0

> <i_epik_Tot_Q>
0

> <i_epik_Tot_abs_Q>
0

> <r_epik_Metal_State_Penalty>
-0

> <b_epik_Metal_Only>
0

> <s_lp_Force_Field>
OPLS_2005

> <r_lp_Energy>
9.34037

> <b_lp_Chiralities_Consistent>
1

> <s_lp_Variant>
AV-unprocessed.smi:995-1

> <Gold.Version>
5.8.1

> <Gold.Id.Protein>
6NUR|6NUR_protein|mol2

> <Gold.PLP.Fitness>
38.2624

> <Gold.PLP.PLP>
-31.4894

> <Gold.PLP.part.hbond>
-2.0000

> <Gold.PLP.part.metal>
0.0000

> <Gold.PLP.part.buried>
-5.7961

> <Gold.PLP.part.nonpolar>
-25.1423

> <Gold.PLP.part.repulsive>
0.5556

> <Gold.PLP.ligand.clash>
0.5629

> <Gold.PLP.ligand.torsion>
0.6590

> <Gold.PLP.Chemscore.Hbond>
1.8500

> <Gold.PLP.Chemscore.CHOScore>
1.0000

> <Gold.PLP.Chemscore.Metal>
0.0000

> <Gold.Chemscore.Hbonds>
donor molecule, donor type, donor heavy atom, donor atom, acceptor molecule, acceptor atom, score
      L1  H     3    24       P1  7948  1.00
      P1  H  6896  6908       L1     8  0.80
      L1  C    17    30       P1  7948  1.00

> <Gold.PLP.Chemscore.Internal.Correction>
0.1038

> <Gold.Rescore>
     Score         DG    S(hbond)    S(metal)    S(lipo)     H(rot)  DE(clash)    DE(int)     intcor
      7.90     -11.87       1.63        0.00      54.40       2.12       0.12       3.85       ----

> <Gold.Chemscore.Fitness>
7.8990

> <Gold.Chemscore.DG>
-11.8729

> <Gold.Chemscore.ZeroCoef>
-5.4800

> <Gold.Chemscore.Hbond>
1.6313

> <Gold.Chemscore.Metal>
0.0000

> <Gold.Chemscore.Lipo>
54.3957

> <Gold.Chemscore.Internal_Hbond>
0.0000

> <Gold.Chemscore.DEClash>
0.1193

> <Gold.Chemscore.DEInternal>
3.8547

> <Gold.Chemscore.Rot>
2.1172

> <Gold.Chemscore.Internal.Correction>
   9.000000E+99

> <Gold.Chemscore.Hbonds>
donor molecule, donor type, donor heavy atom, donor atom, acceptor molecule, acceptor atom, score
      L1  H     3    24       P1  7948  0.85
      P1  H  6896  6908       L1     8  0.11

> <Gold.Chemscore.Hbond.Weighted>
-5.4487

> <Gold.Chemscore.Metal.Weighted>
-0.0000

> <Gold.Chemscore.Lipo.Weighted>
-6.3643

> <Gold.Chemscore.Internal_Hbond.Weighted>
0.0000

> <Gold.Chemscore.DEClash.Weighted>
0.1193

> <Gold.Chemscore.DEInternal.Weighted>
3.8547

> <Gold.Chemscore.Rot.Weighted>
5.4200

> <Gold.Chemscore.Internal.Correction.Weighted>
   9.000000E+99

> <Gold.Protein.RotatedTorsions>
[ 6907 6896 6895 6894 ] final  169.64 input  -60.11 | X-H torsion
[ 7974 7965 7964 7962 ] final -108.01 input  175.53 | X-H torsion
[ 8008 7997 7996 7995 ] final   22.05 input   59.86 | X-H torsion
[ 10167 10162 10161 10158 ] final  -31.28 input  -65.29 | X-H torsion
[ 10718 10713 10712 10709 ] final -154.87 input   66.30 | X-H torsion
[ 10763 10752 10751 10750 ] final  114.89 input  -60.55 | X-H torsion
[ 11005 11000 10999 10996 ] final  -53.66 input  -57.11 | X-H torsion

> <Gold.Protein.ActiveResidues>
 VAL166  LYS551  ARG553  GLY616  TRP617  ASP618  TYR619  PRO620  LYS621  CYS622 
 ASP623  PHE694  ASN695  SER759  ASP760  ASP761  ALA762  ILE779  LEU786  VAL792 
 PHE793  MET794  SER795  GLU796  ALA797  LYS798  CYS799  TRP800  GLU811  SER814 

> <Gold.Protein.RotatedAtoms>
  151.8288  133.3405  159.3606 H   0  0  0  0  0  0  0  0  0  0  0  0  # atno 6907 bound_to 6896
  150.7271  134.5503  159.5800 H   0  0  0  0  0  0  0  0  0  0  0  0  # atno 6908 bound_to 6896
  152.2951  134.7677  160.0421 H   0  0  0  0  0  0  0  0  0  0  0  0  # atno 6909 bound_to 6896
  145.1982  140.9044  143.3385 H   0  0  0  0  0  0  0  0  0  0  0  0  # atno 7974 bound_to 7965
  154.9598  140.3076  155.5036 H   0  0  0  0  0  0  0  0  0  0  0  0  # atno 8008 bound_to 7997
  156.2978  140.2303  156.4621 H   0  0  0  0  0  0  0  0  0  0  0  0  # atno 8009 bound_to 7997
  154.7976  140.0436  157.1236 H   0  0  0  0  0  0  0  0  0  0  0  0  # atno 8010 bound_to 7997
  140.7238  143.3783  151.1649 H   0  0  0  0  0  0  0  0  0  0  0  0  # atno 10167 bound_to 10162
  156.5051  130.8409  151.2624 H   0  0  0  0  0  0  0  0  0  0  0  0  # atno 10718 bound_to 10713
  153.5141  135.3612  155.2600 H   0  0  0  0  0  0  0  0  0  0  0  0  # atno 10763 bound_to 10752
  154.8740  135.4029  154.3335 H   0  0  0  0  0  0  0  0  0  0  0  0  # atno 10764 bound_to 10752
  153.3994  135.7074  153.6504 H   0  0  0  0  0  0  0  0  0  0  0  0  # atno 10765 bound_to 10752
  141.0987  133.6621  156.4204 H   0  0  0  0  0  0  0  0  0  0  0  0  # atno 11005 bound_to 11000
  144.9974  139.3631  143.6184 LP  0  0  0  0  0  0  0  0  0  0  0  0  # atno 17320 bound_to 7965
  146.3423  139.9183  142.8770 LP  0  0  0  0  0  0  0  0  0  0  0  0  # atno 17321 bound_to 7965
  139.7367  143.8988  152.3037 LP  0  0  0  0  0  0  0  0  0  0  0  0  # atno 17342 bound_to 10162
  139.8795  144.7025  150.8894 LP  0  0  0  0  0  0  0  0  0  0  0  0  # atno 17343 bound_to 10162
  157.7458  130.9968  150.2795 LP  0  0  0  0  0  0  0  0  0  0  0  0  # atno 17370 bound_to 10713
  156.3295  130.3798  149.7504 LP  0  0  0  0  0  0  0  0  0  0  0  0  # atno 17371 bound_to 10713
  140.5076  134.6426  157.5272 LP  0  0  0  0  0  0  0  0  0  0  0  0  # atno 17394 bound_to 11000
  139.9831  134.7105  155.9823 LP  0  0  0  0  0  0  0  0  0  0  0  0  # atno 17395 bound_to 11000

$$$$
