AV-unprocessed.smi:1401|AV-procd|sdf|5694|dock5
  -GOLD-   22720 5323D 1   1.00000     0.00000
 Structure written by MMmdl.
 48 50  0  0  0  0  0  0  0  0  1 V2000
  150.8470  142.1542  157.4995 C   0  0  0  0  0  0  0  0  0  0  0  0
  151.5755  141.1305  158.3273 C   0  0  0  0  0  0  0  0  0  0  0  0
  151.2859  139.8913  158.1036 N   0  0  0  0  0  0  0  0  0  0  0  0
  151.9138  138.8682  158.7891 N   0  0  0  0  0  0  0  0  0  0  0  0
  151.5341  137.5242  158.3197 C   0  0  0  0  0  0  0  0  0  0  0  0
  150.0175  137.2630  158.3439 C   0  0  0  0  0  0  0  0  0  0  0  0
  149.3157  137.6879  157.4271 O   0  0  0  0  0  0  0  0  0  0  0  0
  149.5297  136.5335  159.3609 N   0  0  0  0  0  0  0  0  0  0  0  0
  148.1765  136.0054  159.4809 C   0  0  2  0  0  0  0  0  0  0  0  0
  147.1508  137.1516  159.4667 C   0  0  0  0  0  0  0  0  0  0  0  0
  148.0811  135.1583  160.7723 C   0  0  1  0  0  0  0  0  0  0  0  0
  148.0106  135.9769  162.0803 C   0  0  0  0  0  0  0  0  0  0  0  0
  146.8016  135.3591  162.8090 C   0  0  1  0  0  0  0  0  0  0  0  0
  145.5057  135.8125  162.1111 C   0  0  0  0  0  0  0  0  0  0  0  0
  145.5265  135.0051  160.8003 C   0  0  0  0  0  0  0  0  0  0  0  0
  146.8511  134.2224  160.9049 C   0  0  2  0  0  0  0  0  0  0  0  0
  146.8863  133.8949  162.3935 C   0  0  0  0  0  0  0  0  0  0  0  0
  152.8586  139.0492  159.7564 C   0  0  0  0  0  0  0  0  0  0  0  0
  153.4071  138.1085  160.3318 O   0  0  0  0  0  0  0  0  0  0  0  0
  153.1703  140.4566  160.0160 C   0  0  0  0  0  0  0  0  0  0  0  0
  154.1583  140.6906  161.0193 C   0  0  0  0  0  0  0  0  0  0  0  0
  154.9628  140.8987  161.8254 N   0  0  0  0  0  0  0  0  0  0  0  0
  152.5712  141.4679  159.3387 C   0  0  0  0  0  0  0  0  0  0  0  0
  152.8718  142.9440  159.5583 C   0  0  0  0  0  0  0  0  0  0  0  0
  150.2728  142.8290  158.1345 H   0  0  0  0  0  0  0  0  0  0  0  0
  150.1517  141.6902  156.7981 H   0  0  0  0  0  0  0  0  0  0  0  0
  151.5499  142.7504  156.9172 H   0  0  0  0  0  0  0  0  0  0  0  0
  151.9034  137.3352  157.3105 H   0  0  0  0  0  0  0  0  0  0  0  0
  152.0202  136.7753  158.9475 H   0  0  0  0  0  0  0  0  0  0  0  0
  150.1830  136.2447  160.0745 H   0  0  0  0  0  0  0  0  0  0  0  0
  147.9809  135.3614  158.6219 H   0  0  0  0  0  0  0  0  0  0  0  0
  146.1330  136.7703  159.5505 H   0  0  0  0  0  0  0  0  0  0  0  0
  147.2075  137.7237  158.5402 H   0  0  0  0  0  0  0  0  0  0  0  0
  147.3155  137.8427  160.2940 H   0  0  0  0  0  0  0  0  0  0  0  0
  148.9679  134.5230  160.8170 H   0  0  0  0  0  0  0  0  0  0  0  0
  148.9253  135.8486  162.6603 H   0  0  0  0  0  0  0  0  0  0  0  0
  147.8756  137.0458  161.9099 H   0  0  0  0  0  0  0  0  0  0  0  0
  146.8026  135.5353  163.8848 H   0  0  0  0  0  0  0  0  0  0  0  0
  144.6301  135.5527  162.7071 H   0  0  0  0  0  0  0  0  0  0  0  0
  145.4844  136.8888  161.9366 H   0  0  0  0  0  0  0  0  0  0  0  0
  144.6808  134.3169  160.7653 H   0  0  0  0  0  0  0  0  0  0  0  0
  145.4659  135.6357  159.9140 H   0  0  0  0  0  0  0  0  0  0  0  0
  146.8933  133.3488  160.2539 H   0  0  0  0  0  0  0  0  0  0  0  0
  147.8101  133.4071  162.7099 H   0  0  0  0  0  0  0  0  0  0  0  0
  146.0347  133.2991  162.7270 H   0  0  0  0  0  0  0  0  0  0  0  0
  153.6170  143.1022  160.3374 H   0  0  0  0  0  0  0  0  0  0  0  0
  151.9693  143.4794  159.8552 H   0  0  0  0  0  0  0  0  0  0  0  0
  153.2546  143.3960  158.6422 H   0  0  0  0  0  0  0  0  0  0  0  0
  1  2  1  0  0  0  0
  1 25  1  0  0  0  0
  1 26  1  0  0  0  0
  1 27  1  0  0  0  0
  2 23  1  0  0  0  0
  2  3  2  0  0  0  0
  3  4  1  0  0  0  0
  4  5  1  0  0  0  0
  4 18  1  0  0  0  0
  5  6  1  0  0  0  0
  5 28  1  0  0  0  0
  5 29  1  0  0  0  0
  6  7  2  0  0  0  0
  6  8  1  0  0  0  0
  8  9  1  0  0  0  0
  8 30  1  0  0  0  0
  9 10  1  0  0  0  0
  9 11  1  0  0  0  0
  9 31  1  0  0  0  0
 10 32  1  0  0  0  0
 10 33  1  0  0  0  0
 10 34  1  0  0  0  0
 11 16  1  0  0  0  0
 11 12  1  0  0  0  0
 11 35  1  0  0  0  0
 12 13  1  0  0  0  0
 12 36  1  0  0  0  0
 12 37  1  0  0  0  0
 13 17  1  0  0  0  0
 13 14  1  0  0  0  0
 13 38  1  0  0  0  0
 14 15  1  0  0  0  0
 14 39  1  0  0  0  0
 14 40  1  0  0  0  0
 15 16  1  0  0  0  0
 15 41  1  0  0  0  0
 15 42  1  0  0  0  0
 16 17  1  0  0  0  0
 16 43  1  0  0  0  0
 17 44  1  0  0  0  0
 17 45  1  0  0  0  0
 18 19  2  0  0  0  0
 18 20  1  0  0  0  0
 20 21  1  0  0  0  0
 20 23  2  0  0  0  0
 21 22  3  0  0  0  0
 23 24  1  0  0  0  0
 24 46  1  0  0  0  0
 24 47  1  0  0  0  0
 24 48  1  0  0  0  0
M  END
> <s_m_source_file>
AV-unprocessed.smi

> <i_m_source_file_index>
1401

> <i_lp_mmshare_version>
43012

> <i_f3d_flags>
0

> <s_epik_input>
TiNDYyhjMVtDSDNdKWMoPU8pbihuYzFbQ0gzXSlbQ0gyXUMoPU8pW05IXVtDQEhdKFtDSDNdKVtDQEhdKFtDSDJdW0NASF0yMylbQ0BIXShbQ0gyXTMpW0NIMl1bQ0gyXTI=

> <s_epik_cmdline>
J2VwaWtfcHl0aG9uJywgJy1waCcsICc3LjAnLCAnLXRuJywgJzgnLCAnLW1hJywgJzIwMCcsICctbWV0YWxfYmluZGluZycsICctaW1hZScsICc8aW5maWxlLm1hZT4nLCAnLW9tYWUnLCAnPG91dGZpbGUubWFlPic=

> <r_lp_tautomer_probability>
1

> <r_epik_Ionization_Penalty>
2.16501e-08

> <r_epik_Ionization_Penalty_Charging>
2.29436e-11

> <r_epik_Ionization_Penalty_Neutral>
2.16271e-08

> <r_epik_State_Penalty>
-0

> <r_epik_Charging_Adjusted_Penalty>
2.29436e-11

> <i_epik_Tot_Q>
0

> <i_epik_Tot_abs_Q>
0

> <r_epik_Metal_State_Penalty>
-0

> <b_epik_Metal_Only>
0

> <s_lp_Force_Field>
OPLS_2005

> <r_lp_Energy>
65.485

> <b_lp_Chiralities_Consistent>
1

> <s_lp_Variant>
AV-unprocessed.smi:1401-7

> <Gold.Version>
5.8.1

> <Gold.Id.Protein>
6NUR|6NUR_protein|mol2

> <Gold.PLP.Fitness>
40.6066

> <Gold.PLP.PLP>
-41.6049

> <Gold.PLP.part.hbond>
-1.0000

> <Gold.PLP.part.metal>
0.0000

> <Gold.PLP.part.buried>
-6.0955

> <Gold.PLP.part.nonpolar>
-35.0456

> <Gold.PLP.part.repulsive>
0.1990

> <Gold.PLP.ligand.clash>
0.0000

> <Gold.PLP.ligand.torsion>
0.5183

> <Gold.PLP.Chemscore.Hbond>
0.0000

> <Gold.PLP.Chemscore.CHOScore>
0.0000

> <Gold.PLP.Chemscore.Metal>
0.0000

> <Gold.PLP.Chemscore.Internal.Correction>
0.0383

> <Gold.Rescore>
     Score         DG    S(hbond)    S(metal)    S(lipo)     H(rot)  DE(clash)    DE(int)     intcor
     12.84     -13.75       0.00        0.00     106.32       1.63       0.09       0.83       ----

> <Gold.Chemscore.Fitness>
12.8355

> <Gold.Chemscore.DG>
-13.7517

> <Gold.Chemscore.ZeroCoef>
-5.4800

> <Gold.Chemscore.Hbond>
0.0000

> <Gold.Chemscore.Metal>
0.0000

> <Gold.Chemscore.Lipo>
106.3209

> <Gold.Chemscore.Internal_Hbond>
0.0000

> <Gold.Chemscore.DEClash>
0.0890

> <Gold.Chemscore.DEInternal>
0.8272

> <Gold.Chemscore.Rot>
1.6281

> <Gold.Chemscore.Internal.Correction>
   9.000000E+99

> <Gold.Chemscore.Hbond.Weighted>
-0.0000

> <Gold.Chemscore.Metal.Weighted>
-0.0000

> <Gold.Chemscore.Lipo.Weighted>
-12.4395

> <Gold.Chemscore.Internal_Hbond.Weighted>
0.0000

> <Gold.Chemscore.DEClash.Weighted>
0.0890

> <Gold.Chemscore.DEInternal.Weighted>
0.8272

> <Gold.Chemscore.Rot.Weighted>
4.1678

> <Gold.Chemscore.Internal.Correction.Weighted>
   9.000000E+99

> <Gold.Protein.RotatedTorsions>
[ 6907 6896 6895 6894 ] final  -37.96 input  -60.11 | X-H torsion
[ 7974 7965 7964 7962 ] final -131.21 input  175.53 | X-H torsion
[ 8008 7997 7996 7995 ] final -146.33 input   59.86 | X-H torsion
[ 10167 10162 10161 10158 ] final  140.18 input  -65.29 | X-H torsion
[ 10718 10713 10712 10709 ] final -162.91 input   66.30 | X-H torsion
[ 10763 10752 10751 10750 ] final   79.84 input  -60.55 | X-H torsion
[ 11005 11000 10999 10996 ] final   92.57 input  -57.11 | X-H torsion

> <Gold.Protein.ActiveResidues>
 VAL166  LYS551  ARG553  GLY616  TRP617  ASP618  TYR619  PRO620  LYS621  CYS622 
 ASP623  PHE694  ASN695  SER759  ASP760  ASP761  ALA762  ILE779  LEU786  VAL792 
 PHE793  MET794  SER795  GLU796  ALA797  LYS798  CYS799  TRP800  GLU811  SER814 

> <Gold.Protein.RotatedAtoms>
  151.0083  134.9376  159.7992 H   0  0  0  0  0  0  0  0  0  0  0  0  # atno 6907 bound_to 6896
  152.5296  134.3062  159.9107 H   0  0  0  0  0  0  0  0  0  0  0  0  # atno 6908 bound_to 6896
  151.3068  133.4056  159.2678 H   0  0  0  0  0  0  0  0  0  0  0  0  # atno 6909 bound_to 6896
  144.9401  140.7228  143.4852 H   0  0  0  0  0  0  0  0  0  0  0  0  # atno 7974 bound_to 7965
  155.5577  140.0622  157.2836 H   0  0  0  0  0  0  0  0  0  0  0  0  # atno 8008 bound_to 7997
  154.4400  140.1891  156.0795 H   0  0  0  0  0  0  0  0  0  0  0  0  # atno 8009 bound_to 7997
  156.0470  140.3289  155.7311 H   0  0  0  0  0  0  0  0  0  0  0  0  # atno 8010 bound_to 7997
  139.5056  144.6249  151.5960 H   0  0  0  0  0  0  0  0  0  0  0  0  # atno 10167 bound_to 10162
  156.6172  130.8875  151.2949 H   0  0  0  0  0  0  0  0  0  0  0  0  # atno 10718 bound_to 10713
  153.0985  135.4825  154.8823 H   0  0  0  0  0  0  0  0  0  0  0  0  # atno 10763 bound_to 10752
  154.7352  135.3069  154.8826 H   0  0  0  0  0  0  0  0  0  0  0  0  # atno 10764 bound_to 10752
  153.9450  135.6830  153.4797 H   0  0  0  0  0  0  0  0  0  0  0  0  # atno 10765 bound_to 10752
  139.8821  134.8740  156.3592 H   0  0  0  0  0  0  0  0  0  0  0  0  # atno 11005 bound_to 11000
  145.3005  139.1852  143.4692 LP  0  0  0  0  0  0  0  0  0  0  0  0  # atno 17320 bound_to 7965
  146.3282  140.2995  142.8620 LP  0  0  0  0  0  0  0  0  0  0  0  0  # atno 17321 bound_to 7965
  140.5963  143.9689  150.6357 LP  0  0  0  0  0  0  0  0  0  0  0  0  # atno 17342 bound_to 10162
  140.2886  143.3339  152.1083 LP  0  0  0  0  0  0  0  0  0  0  0  0  # atno 17343 bound_to 10162
  157.7238  130.9594  150.1547 LP  0  0  0  0  0  0  0  0  0  0  0  0  # atno 17370 bound_to 10713
  156.2341  130.3685  149.8411 LP  0  0  0  0  0  0  0  0  0  0  0  0  # atno 17371 bound_to 10713
  140.9541  133.7431  156.0312 LP  0  0  0  0  0  0  0  0  0  0  0  0  # atno 17394 bound_to 11000
  140.8070  134.3443  157.5423 LP  0  0  0  0  0  0  0  0  0  0  0  0  # atno 17395 bound_to 11000

$$$$
