AV-unprocessed.smi:1301|AV-procd|sdf|5423|dock4
  -GOLD-   22720 4583D 1   1.00000     0.00000
 Structure written by MMmdl.
 44 45  0  0  0  0  0  0  0  0  3 V2000
  155.3253  132.3213  157.5922 C   0  0  0  0  0  0  0  0  0  0  0  0
  154.0798  131.5198  157.4233 C   0  0  0  0  0  0  0  0  0  0  0  0
  153.7307  130.5213  156.5590 C   0  0  0  0  0  0  0  0  0  0  0  0
  152.4029  130.2004  156.9526 C   0  0  0  0  0  0  0  0  0  0  0  0
  151.6162  129.2733  156.3847 N   0  5  0  0  0  0  0  0  0  0  0  0
  150.3201  129.5517  156.1174 C   0  0  0  0  0  0  0  0  0  0  0  0
  149.5395  130.1731  156.8422 O   0  0  0  0  0  0  0  0  0  0  0  0
  149.9026  129.0801  154.9338 N   0  0  0  0  0  0  0  0  0  0  0  0
  148.5609  129.2252  154.3778 C   0  0  2  0  0  0  0  0  0  0  0  0
  148.5147  128.6134  152.9693 C   0  0  0  0  0  0  0  0  0  0  0  0
  147.1424  128.8330  152.3129 C   0  0  0  0  0  0  0  0  0  0  0  0
  146.7951  130.2767  152.2625 N   0  3  1  0  0  0  0  0  0  0  0  0
  145.5429  130.5263  151.5027 C   0  0  0  0  0  0  0  0  0  0  0  0
  145.4014  131.9881  151.0243 C   0  0  0  0  0  0  0  0  0  0  0  0
  143.9481  132.2861  150.6269 C   0  0  0  0  0  0  0  0  0  0  0  0
  146.3515  132.3058  149.8572 C   0  0  0  0  0  0  0  0  0  0  0  0
  146.7921  130.8811  153.6212 C   0  0  0  0  0  0  0  0  0  0  0  0
  148.1563  130.7087  154.3078 C   0  0  0  0  0  0  0  0  0  0  0  0
  151.9778  130.9492  157.9566 N   0  0  0  0  0  0  0  0  0  0  0  0
  153.0501  131.7934  158.2693 O   0  0  0  0  0  0  0  0  0  0  0  0
  155.6044  132.8016  156.6545 H   0  0  0  0  0  0  0  0  0  0  0  0
  156.1528  131.6847  157.9054 H   0  0  0  0  0  0  0  0  0  0  0  0
  155.1946  133.0998  158.3443 H   0  0  0  0  0  0  0  0  0  0  0  0
  154.3292  130.0867  155.7724 H   0  0  0  0  0  0  0  0  0  0  0  0
  150.5773  128.5775  154.3760 H   0  0  0  0  0  0  0  0  0  0  0  0
  147.8490  128.6882  155.0079 H   0  0  0  0  0  0  0  0  0  0  0  0
  149.2899  129.0598  152.3442 H   0  0  0  0  0  0  0  0  0  0  0  0
  148.7336  127.5460  153.0181 H   0  0  0  0  0  0  0  0  0  0  0  0
  147.1637  128.4226  151.3027 H   0  0  0  0  0  0  0  0  0  0  0  0
  146.3704  128.2900  152.8607 H   0  0  0  0  0  0  0  0  0  0  0  0
  145.5147  129.8795  150.6245 H   0  0  0  0  0  0  0  0  0  0  0  0
  144.6889  130.2375  152.1175 H   0  0  0  0  0  0  0  0  0  0  0  0
  145.6437  132.6609  151.8459 H   0  0  0  0  0  0  0  0  0  0  0  0
  143.6273  131.6607  149.7930 H   0  0  0  0  0  0  0  0  0  0  0  0
  143.8278  133.3275  150.3266 H   0  0  0  0  0  0  0  0  0  0  0  0
  143.2673  132.1055  151.4595 H   0  0  0  0  0  0  0  0  0  0  0  0
  146.1592  131.6589  149.0005 H   0  0  0  0  0  0  0  0  0  0  0  0
  147.3953  132.1772  150.1446 H   0  0  0  0  0  0  0  0  0  0  0  0
  146.2322  133.3378  149.5255 H   0  0  0  0  0  0  0  0  0  0  0  0
  146.5608  131.9439  153.5664 H   0  0  0  0  0  0  0  0  0  0  0  0
  146.0095  130.4197  154.2257 H   0  0  0  0  0  0  0  0  0  0  0  0
  148.1177  131.1371  155.3101 H   0  0  0  0  0  0  0  0  0  0  0  0
  148.9124  131.2738  153.7602 H   0  0  0  0  0  0  0  0  0  0  0  0
  147.5371  130.7237  151.7430 H   0  0  0  0  0  0  0  0  0  0  0  0
  1  2  1  0  0  0  0
  1 21  1  0  0  0  0
  1 22  1  0  0  0  0
  1 23  1  0  0  0  0
  2 20  1  0  0  0  0
  2  3  2  0  0  0  0
  3  4  1  0  0  0  0
  3 24  1  0  0  0  0
  4  5  1  0  0  0  0
  4 19  2  0  0  0  0
  5  6  1  0  0  0  0
  6  7  2  0  0  0  0
  6  8  1  0  0  0  0
  8  9  1  0  0  0  0
  8 25  1  0  0  0  0
  9 18  1  0  0  0  0
  9 10  1  0  0  0  0
  9 26  1  0  0  0  0
 10 11  1  0  0  0  0
 10 27  1  0  0  0  0
 10 28  1  0  0  0  0
 11 12  1  0  0  0  0
 11 29  1  0  0  0  0
 11 30  1  0  0  0  0
 12 13  1  0  0  0  0
 12 17  1  0  0  0  0
 12 44  1  0  0  0  0
 13 14  1  0  0  0  0
 13 31  1  0  0  0  0
 13 32  1  0  0  0  0
 14 15  1  0  0  0  0
 14 16  1  0  0  0  0
 14 33  1  0  0  0  0
 15 34  1  0  0  0  0
 15 35  1  0  0  0  0
 15 36  1  0  0  0  0
 16 37  1  0  0  0  0
 16 38  1  0  0  0  0
 16 39  1  0  0  0  0
 17 18  1  0  0  0  0
 17 40  1  0  0  0  0
 17 41  1  0  0  0  0
 18 42  1  0  0  0  0
 18 43  1  0  0  0  0
 19 20  1  0  0  0  0
M  CHG  1   5  -1
M  CHG  1  12   1
M  END
> <s_m_source_file>
AV-unprocessed.smi

> <i_m_source_file_index>
1301

> <i_lp_mmshare_version>
43012

> <i_f3d_flags>
0

> <s_epik_input>
W0NIM11jMVtjSF1jKG5vMSlbTkhdQyg9TylbTkhdW0NIXTJbQ0gyXVtDSDJdTihbQ0gyXVtDSDJdMilbQ0gyXVtDSF0oW0NIM10pW0NIM10=

> <s_epik_cmdline>
J2VwaWtfcHl0aG9uJywgJy1waCcsICc3LjAnLCAnLXRuJywgJzgnLCAnLW1hJywgJzIwMCcsICctbWV0YWxfYmluZGluZycsICctaW1hZScsICc8aW5maWxlLm1hZT4nLCAnLW9tYWUnLCAnPG91dGZpbGUubWFlPic=

> <r_epik_Ionization_Penalty>
6.28597

> <r_epik_Ionization_Penalty_Charging>
6.28587

> <r_epik_Ionization_Penalty_Neutral>
9.69304e-05

> <r_epik_State_Penalty>
6.28524

> <r_epik_Charging_Adjusted_Penalty>
12.5711

> <i_epik_Tot_Q>
0

> <i_epik_Tot_abs_Q>
2

> <r_epik_Metal_State_Penalty>
2.21973

> <b_epik_Metal_Only>
1

> <s_lp_Force_Field>
OPLS_2005

> <r_lp_Energy>
7.73982

> <b_lp_Chiralities_Consistent>
1

> <s_lp_Variant>
AV-unprocessed.smi:1301-3

> <Gold.Version>
5.8.1

> <Gold.Id.Protein>
6NUR|6NUR_protein|mol2

> <Gold.PLP.Fitness>
43.1801

> <Gold.PLP.PLP>
-38.9885

> <Gold.PLP.part.hbond>
-2.0000

> <Gold.PLP.part.metal>
0.0000

> <Gold.PLP.part.buried>
-6.0541

> <Gold.PLP.part.nonpolar>
-31.7400

> <Gold.PLP.part.repulsive>
0.1861

> <Gold.PLP.ligand.clash>
0.0000

> <Gold.PLP.ligand.torsion>
0.9299

> <Gold.PLP.Chemscore.Hbond>
2.0000

> <Gold.PLP.Chemscore.CHOScore>
0.0000

> <Gold.PLP.Chemscore.Metal>
0.0000

> <Gold.Chemscore.Hbonds>
donor molecule, donor type, donor heavy atom, donor atom, acceptor molecule, acceptor atom, score
      L1  H    12    44       P1 10747  0.94

> <Gold.PLP.Chemscore.Internal.Correction>
0.0515

> <Gold.Rescore>
     Score         DG    S(hbond)    S(metal)    S(lipo)     H(rot)  DE(clash)    DE(int)     intcor
     17.84     -19.36       1.96        0.00      93.48       1.41       0.28       1.24       ----

> <Gold.Chemscore.Fitness>
17.8368

> <Gold.Chemscore.DG>
-19.3591

> <Gold.Chemscore.ZeroCoef>
-5.4800

> <Gold.Chemscore.Hbond>
1.9587

> <Gold.Chemscore.Metal>
0.0000

> <Gold.Chemscore.Lipo>
93.4807

> <Gold.Chemscore.Internal_Hbond>
0.0000

> <Gold.Chemscore.DEClash>
0.2808

> <Gold.Chemscore.DEInternal>
1.2415

> <Gold.Chemscore.Rot>
1.4063

> <Gold.Chemscore.Internal.Correction>
   9.000000E+99

> <Gold.Chemscore.Hbonds>
donor molecule, donor type, donor heavy atom, donor atom, acceptor molecule, acceptor atom, score
      L1  H    12    44       P1 10747  0.88

> <Gold.Chemscore.Hbond.Weighted>
-6.5421

> <Gold.Chemscore.Metal.Weighted>
-0.0000

> <Gold.Chemscore.Lipo.Weighted>
-10.9372

> <Gold.Chemscore.Internal_Hbond.Weighted>
0.0000

> <Gold.Chemscore.DEClash.Weighted>
0.2808

> <Gold.Chemscore.DEInternal.Weighted>
1.2415

> <Gold.Chemscore.Rot.Weighted>
3.6002

> <Gold.Chemscore.Internal.Correction.Weighted>
   9.000000E+99

> <Gold.Protein.RotatedTorsions>
[ 6907 6896 6895 6894 ] final  103.99 input  -60.11 | X-H torsion
[ 7974 7965 7964 7962 ] final  138.69 input  175.53 | X-H torsion
[ 8008 7997 7996 7995 ] final  -75.93 input   59.86 | X-H torsion
[ 10167 10162 10161 10158 ] final -147.27 input  -65.29 | X-H torsion
[ 10718 10713 10712 10709 ] final  -67.90 input   66.30 | X-H torsion
[ 10763 10752 10751 10750 ] final   40.91 input  -60.55 | X-H torsion
[ 11005 11000 10999 10996 ] final   53.03 input  -57.11 | X-H torsion

> <Gold.Protein.ActiveResidues>
 VAL166  LYS551  ARG553  GLY616  TRP617  ASP618  TYR619  PRO620  LYS621  CYS622 
 ASP623  PHE694  ASN695  SER759  ASP760  ASP761  ALA762  ILE779  LEU786  VAL792 
 PHE793  MET794  SER795  GLU796  ALA797  LYS798  CYS799  TRP800  GLU811  SER814 

> <Gold.Protein.RotatedAtoms>
  152.5278  133.9743  159.7776 H   0  0  0  0  0  0  0  0  0  0  0  0  # atno 6907 bound_to 6896
  151.0009  133.6049  159.2702 H   0  0  0  0  0  0  0  0  0  0  0  0  # atno 6908 bound_to 6896
  151.3158  135.0812  159.9342 H   0  0  0  0  0  0  0  0  0  0  0  0  # atno 6909 bound_to 6896
  144.9349  139.5001  143.5600 H   0  0  0  0  0  0  0  0  0  0  0  0  # atno 7974 bound_to 7965
  154.5460  140.0736  156.8589 H   0  0  0  0  0  0  0  0  0  0  0  0  # atno 8008 bound_to 7997
  155.3087  140.3389  155.4226 H   0  0  0  0  0  0  0  0  0  0  0  0  # atno 8009 bound_to 7997
  156.1918  140.1689  156.8063 H   0  0  0  0  0  0  0  0  0  0  0  0  # atno 8010 bound_to 7997
  139.7638  143.8338  152.2612 H   0  0  0  0  0  0  0  0  0  0  0  0  # atno 10167 bound_to 10162
  156.0533  130.4285  150.1922 H   0  0  0  0  0  0  0  0  0  0  0  0  # atno 10718 bound_to 10713
  152.9923  135.6177  154.2703 H   0  0  0  0  0  0  0  0  0  0  0  0  # atno 10763 bound_to 10752
  154.2436  135.2788  155.2846 H   0  0  0  0  0  0  0  0  0  0  0  0  # atno 10764 bound_to 10752
  154.5348  135.5778  153.6847 H   0  0  0  0  0  0  0  0  0  0  0  0  # atno 10765 bound_to 10752
  140.0800  134.5351  155.8956 H   0  0  0  0  0  0  0  0  0  0  0  0  # atno 11005 bound_to 11000
  146.3262  139.8326  142.8905 LP  0  0  0  0  0  0  0  0  0  0  0  0  # atno 17320 bound_to 7965
  145.3083  141.0213  143.3569 LP  0  0  0  0  0  0  0  0  0  0  0  0  # atno 17321 bound_to 7965
  139.8352  144.7235  150.9400 LP  0  0  0  0  0  0  0  0  0  0  0  0  # atno 17342 bound_to 10162
  140.7809  143.4033  151.1113 LP  0  0  0  0  0  0  0  0  0  0  0  0  # atno 17343 bound_to 10162
  157.0002  130.9920  151.3393 LP  0  0  0  0  0  0  0  0  0  0  0  0  # atno 17370 bound_to 10713
  157.5480  130.8163  149.8110 LP  0  0  0  0  0  0  0  0  0  0  0  0  # atno 17371 bound_to 10713
  141.2043  133.6638  156.6114 LP  0  0  0  0  0  0  0  0  0  0  0  0  # atno 17394 bound_to 11000
  140.3501  134.7775  157.4461 LP  0  0  0  0  0  0  0  0  0  0  0  0  # atno 17395 bound_to 11000

$$$$
