AV-unprocessed.smi:1123|AV-procd|sdf|4832|dock2
  -GOLD-   22720 3393D 1   1.00000     0.00000
 Structure written by MMmdl.
 38 39  0  0  0  0  0  0  0  0  2 V2000
  150.4858  136.4993  154.7235 C   0  0  0  0  0  0  0  0  0  0  0  0
  150.2235  137.9742  154.3567 C   0  0  1  0  0  0  0  0  0  0  0  0
  148.7408  138.3617  154.4768 C   0  0  0  0  0  0  0  0  0  0  0  0
  148.3026  138.8653  155.5119 O   0  0  0  0  0  0  0  0  0  0  0  0
  147.9720  138.1201  153.4025 N   0  0  0  0  0  0  0  0  0  0  0  0
  146.5526  138.4387  153.3055 C   0  0  0  0  0  0  0  0  0  0  0  0
  145.9174  137.8193  152.0458 C   0  0  0  0  0  0  0  0  0  0  0  0
  146.0120  136.3383  152.0362 N   0  3  0  0  0  0  0  0  0  0  0  0
  145.7393  135.7458  153.3676 C   0  0  0  0  0  0  0  0  0  0  0  0
  145.8948  134.2163  153.3201 C   0  0  0  0  0  0  0  0  0  0  0  0
  145.0261  133.6791  152.3310 O   0  0  0  0  0  0  0  0  0  0  0  0
  145.3321  134.1700  151.0319 C   0  0  0  0  0  0  0  0  0  0  0  0
  145.1605  135.6983  151.0023 C   0  0  0  0  0  0  0  0  0  0  0  0
  151.0490  138.8890  155.1356 N   0  0  0  0  0  0  0  0  0  0  0  0
  152.0316  138.6319  156.0018 C   0  0  0  0  0  0  0  0  0  0  0  0
  152.6076  139.7163  156.5013 N   0  0  0  0  0  0  0  0  0  0  0  0
  151.8884  140.6771  155.8491 C   0  0  0  0  0  0  0  0  0  0  0  0
  150.9500  140.2364  155.0115 N   0  0  0  0  0  0  0  0  0  0  0  0
  149.8984  135.8279  154.0962 H   0  0  0  0  0  0  0  0  0  0  0  0
  150.2352  136.2834  155.7629 H   0  0  0  0  0  0  0  0  0  0  0  0
  151.5360  136.2445  154.5790 H   0  0  0  0  0  0  0  0  0  0  0  0
  150.5070  138.0997  153.3103 H   0  0  0  0  0  0  0  0  0  0  0  0
  148.4058  137.7048  152.5907 H   0  0  0  0  0  0  0  0  0  0  0  0
  146.0496  138.1047  154.2135 H   0  0  0  0  0  0  0  0  0  0  0  0
  146.4508  139.5240  153.2770 H   0  0  0  0  0  0  0  0  0  0  0  0
  144.8664  138.1114  152.0194 H   0  0  0  0  0  0  0  0  0  0  0  0
  146.3698  138.2193  151.1369 H   0  0  0  0  0  0  0  0  0  0  0  0
  146.4270  136.1596  154.1059 H   0  0  0  0  0  0  0  0  0  0  0  0
  144.7292  136.0092  153.6858 H   0  0  0  0  0  0  0  0  0  0  0  0
  146.9273  133.9351  153.1068 H   0  0  0  0  0  0  0  0  0  0  0  0
  145.6400  133.7823  154.2870 H   0  0  0  0  0  0  0  0  0  0  0  0
  146.3478  133.8855  150.7520 H   0  0  0  0  0  0  0  0  0  0  0  0
  144.6609  133.7027  150.3112 H   0  0  0  0  0  0  0  0  0  0  0  0
  144.1150  135.9569  151.1777 H   0  0  0  0  0  0  0  0  0  0  0  0
  145.4177  136.0690  150.0109 H   0  0  0  0  0  0  0  0  0  0  0  0
  152.3351  137.6306  156.2699 H   0  0  0  0  0  0  0  0  0  0  0  0
  152.0665  141.7330  155.9905 H   0  0  0  0  0  0  0  0  0  0  0  0
  146.9708  136.1094  151.8161 H   0  0  0  0  0  0  0  0  0  0  0  0
  1  2  1  0  0  0  0
  1 19  1  0  0  0  0
  1 20  1  0  0  0  0
  1 21  1  0  0  0  0
  2  3  1  0  0  0  0
  2 14  1  0  0  0  0
  2 22  1  0  0  0  0
  3  4  2  0  0  0  0
  3  5  1  0  0  0  0
  5  6  1  0  0  0  0
  5 23  1  0  0  0  0
  6  7  1  0  0  0  0
  6 24  1  0  0  0  0
  6 25  1  0  0  0  0
  7  8  1  0  0  0  0
  7 26  1  0  0  0  0
  7 27  1  0  0  0  0
  8 13  1  0  0  0  0
  8  9  1  0  0  0  0
  8 38  1  0  0  0  0
  9 10  1  0  0  0  0
  9 28  1  0  0  0  0
  9 29  1  0  0  0  0
 10 11  1  0  0  0  0
 10 30  1  0  0  0  0
 10 31  1  0  0  0  0
 11 12  1  0  0  0  0
 12 13  1  0  0  0  0
 12 32  1  0  0  0  0
 12 33  1  0  0  0  0
 13 34  1  0  0  0  0
 13 35  1  0  0  0  0
 14 18  1  0  0  0  0
 14 15  1  0  0  0  0
 15 16  2  0  0  0  0
 15 36  1  0  0  0  0
 16 17  1  0  0  0  0
 17 18  2  0  0  0  0
 17 37  1  0  0  0  0
M  CHG  1   8   1
M  END
> <s_m_source_file>
AV-unprocessed.smi

> <i_m_source_file_index>
1123

> <i_lp_mmshare_version>
43012

> <i_f3d_flags>
0

> <s_epik_input>
bjFbY0hdbltjSF1uMVtDQEhdKFtDSDNdKUMoPU8pW05IXVtDSDJdW0NIMl1OMltDSDJdW0NIMl1PW0NIMl1bQ0gyXTI=

> <s_epik_cmdline>
J2VwaWtfcHl0aG9uJywgJy1waCcsICc3LjAnLCAnLXRuJywgJzgnLCAnLW1hJywgJzIwMCcsICctbWV0YWxfYmluZGluZycsICctaW1hZScsICc8aW5maWxlLm1hZT4nLCAnLW9tYWUnLCAnPG91dGZpbGUubWFlPic=

> <r_lp_tautomer_probability>
1

> <r_epik_Ionization_Penalty>
0.71326

> <r_epik_Ionization_Penalty_Charging>
0.713252

> <r_epik_Ionization_Penalty_Neutral>
7.98515e-06

> <r_epik_State_Penalty>
0.737017

> <r_epik_Charging_Adjusted_Penalty>
1.45027

> <i_epik_Tot_Q>
1

> <i_epik_Tot_abs_Q>
1

> <r_epik_Metal_State_Penalty>
0.73702

> <b_epik_Metal_Only>
0

> <s_lp_Force_Field>
OPLS_2005

> <r_lp_Energy>
21.0283

> <b_lp_Chiralities_Consistent>
1

> <s_lp_Variant>
AV-unprocessed.smi:1123-4

> <Gold.Version>
5.8.1

> <Gold.Id.Protein>
6NUR|6NUR_protein|mol2

> <Gold.PLP.Fitness>
39.6191

> <Gold.PLP.PLP>
-27.1922

> <Gold.PLP.part.hbond>
-4.1160

> <Gold.PLP.part.metal>
0.0000

> <Gold.PLP.part.buried>
-3.5548

> <Gold.PLP.part.nonpolar>
-20.8036

> <Gold.PLP.part.repulsive>
0.2494

> <Gold.PLP.ligand.clash>
0.0000

> <Gold.PLP.ligand.torsion>
1.0249

> <Gold.PLP.Chemscore.Hbond>
4.7840

> <Gold.PLP.Chemscore.CHOScore>
0.0000

> <Gold.PLP.Chemscore.Metal>
0.0000

> <Gold.Chemscore.Hbonds>
donor molecule, donor type, donor heavy atom, donor atom, acceptor molecule, acceptor atom, score
      L1  H     5    23       P1  7948  0.94
      L1  H     8    38       P1  7948  2.00
      P1  H  7989  7998       L1    18  0.90
      P1  H  7997  8008       L1    16  1.00

> <Gold.PLP.Chemscore.Internal.Correction>
0.1246

> <Gold.Rescore>
     Score         DG    S(hbond)    S(metal)    S(lipo)     H(rot)  DE(clash)    DE(int)     intcor
     12.24     -14.03       3.06        0.00      44.56       2.69       0.92       0.88       ----

> <Gold.Chemscore.Fitness>
12.2352

> <Gold.Chemscore.DG>
-14.0323

> <Gold.Chemscore.ZeroCoef>
-5.4800

> <Gold.Chemscore.Hbond>
3.0627

> <Gold.Chemscore.Metal>
0.0000

> <Gold.Chemscore.Lipo>
44.5608

> <Gold.Chemscore.Internal_Hbond>
0.0000

> <Gold.Chemscore.DEClash>
0.9180

> <Gold.Chemscore.DEInternal>
0.8791

> <Gold.Chemscore.Rot>
2.6916

> <Gold.Chemscore.Internal.Correction>
   9.000000E+99

> <Gold.Chemscore.Hbonds>
donor molecule, donor type, donor heavy atom, donor atom, acceptor molecule, acceptor atom, score
      L1  H     5    23       P1  7948  0.91
      L1  H     8    38       P1  7948  0.98
      P1  H  7989  7998       L1    18  0.16
      P1  H  7997  8008       L1    16  0.88

> <Gold.Chemscore.Hbond.Weighted>
-10.2293

> <Gold.Chemscore.Metal.Weighted>
-0.0000

> <Gold.Chemscore.Lipo.Weighted>
-5.2136

> <Gold.Chemscore.Internal_Hbond.Weighted>
0.0000

> <Gold.Chemscore.DEClash.Weighted>
0.9180

> <Gold.Chemscore.DEInternal.Weighted>
0.8791

> <Gold.Chemscore.Rot.Weighted>
6.8906

> <Gold.Chemscore.Internal.Correction.Weighted>
   9.000000E+99

> <Gold.Protein.RotatedTorsions>
[ 6907 6896 6895 6894 ] final   12.87 input  -60.11 | X-H torsion
[ 7974 7965 7964 7962 ] final   70.27 input  175.53 | X-H torsion
[ 8008 7997 7996 7995 ] final  -66.75 input   59.86 | X-H torsion
[ 10167 10162 10161 10158 ] final  -49.42 input  -65.29 | X-H torsion
[ 10718 10713 10712 10709 ] final   41.38 input   66.30 | X-H torsion
[ 10763 10752 10751 10750 ] final -159.50 input  -60.55 | X-H torsion
[ 11005 11000 10999 10996 ] final -151.11 input  -57.11 | X-H torsion

> <Gold.Protein.ActiveResidues>
 VAL166  LYS551  ARG553  GLY616  TRP617  ASP618  TYR619  PRO620  LYS621  CYS622 
 ASP623  PHE694  ASN695  SER759  ASP760  ASP761  ALA762  ILE779  LEU786  VAL792 
 PHE793  MET794  SER795  GLU796  ALA797  LYS798  CYS799  TRP800  GLU811  SER814 

> <Gold.Protein.RotatedAtoms>
  151.7773  135.0771  160.0368 H   0  0  0  0  0  0  0  0  0  0  0  0  # atno 6907 bound_to 6896
  152.3247  133.5888  159.5777 H   0  0  0  0  0  0  0  0  0  0  0  0  # atno 6908 bound_to 6896
  150.7389  133.9874  159.3638 H   0  0  0  0  0  0  0  0  0  0  0  0  # atno 6909 bound_to 6896
  145.7803  139.2884  143.1270 H   0  0  0  0  0  0  0  0  0  0  0  0  # atno 7974 bound_to 7965
  154.4755  140.0906  156.7250 H   0  0  0  0  0  0  0  0  0  0  0  0  # atno 8008 bound_to 7997
  155.4609  140.3461  155.4294 H   0  0  0  0  0  0  0  0  0  0  0  0  # atno 8009 bound_to 7997
  156.1108  140.1447  156.9329 H   0  0  0  0  0  0  0  0  0  0  0  0  # atno 8010 bound_to 7997
  140.6686  143.2698  151.4213 H   0  0  0  0  0  0  0  0  0  0  0  0  # atno 10167 bound_to 10162
  157.3929  130.7816  149.7284 H   0  0  0  0  0  0  0  0  0  0  0  0  # atno 10718 bound_to 10713
  154.7469  135.3082  154.8628 H   0  0  0  0  0  0  0  0  0  0  0  0  # atno 10763 bound_to 10752
  153.9427  135.6773  153.4748 H   0  0  0  0  0  0  0  0  0  0  0  0  # atno 10764 bound_to 10752
  153.1065  135.4886  154.8887 H   0  0  0  0  0  0  0  0  0  0  0  0  # atno 10765 bound_to 10752
  140.7330  134.3599  157.5163 H   0  0  0  0  0  0  0  0  0  0  0  0  # atno 11005 bound_to 11000
  146.0081  140.8460  142.9985 LP  0  0  0  0  0  0  0  0  0  0  0  0  # atno 17320 bound_to 7965
  144.6797  140.2450  143.7339 LP  0  0  0  0  0  0  0  0  0  0  0  0  # atno 17321 bound_to 7965
  139.5944  144.1429  152.2127 LP  0  0  0  0  0  0  0  0  0  0  0  0  # atno 17342 bound_to 10162
  140.0793  144.5714  150.7134 LP  0  0  0  0  0  0  0  0  0  0  0  0  # atno 17343 bound_to 10162
  155.9803  130.4031  150.3537 LP  0  0  0  0  0  0  0  0  0  0  0  0  # atno 17370 bound_to 10713
  157.1656  131.0356  151.2820 LP  0  0  0  0  0  0  0  0  0  0  0  0  # atno 17371 bound_to 10713
  139.8822  134.9031  156.2847 LP  0  0  0  0  0  0  0  0  0  0  0  0  # atno 17394 bound_to 11000
  140.9904  133.7212  156.0805 LP  0  0  0  0  0  0  0  0  0  0  0  0  # atno 17395 bound_to 11000

$$$$
