AV-unprocessed.smi:299|AV-procd|sdf|2267|dock5
  -GOLD-   2262022153D 1   1.00000     0.00000
 Structure written by MMmdl.
 42 43  0  0  0  0  0  0  0  0  2 V2000
  143.7352  135.5673  151.5795 C   0  0  0  0  0  0  0  0  0  0  0  0
  145.2545  135.6156  151.3060 C   0  0  2  0  0  0  0  0  0  0  0  0
  145.7686  134.3297  150.6246 C   0  0  0  0  0  0  0  0  0  0  0  0
  145.8190  133.1414  151.5962 C   0  0  0  0  0  0  0  0  0  0  0  0
  146.6396  133.5127  152.8371 C   0  0  0  0  0  0  0  0  0  0  0  0
  146.1049  134.7954  153.4948 C   0  0  0  0  0  0  0  0  0  0  0  0
  146.0678  135.9217  152.5217 N   0  3  2  0  0  0  0  0  0  0  0  0
  145.7458  137.2347  153.1395 C   0  0  0  0  0  0  0  0  0  0  0  0
  146.3424  138.4148  152.3540 C   0  0  0  0  0  0  0  0  0  0  0  0
  147.4492  139.1375  153.1403 C   0  0  0  0  0  0  0  0  0  0  0  0
  148.7273  138.4450  153.0307 N   0  0  0  0  0  0  0  0  0  0  0  0
  149.7661  138.6014  153.8666 C   0  0  0  0  0  0  0  0  0  0  0  0
  149.7449  139.3533  154.8407 O   0  0  0  0  0  0  0  0  0  0  0  0
  151.0238  137.7899  153.5534 C   0  0  0  0  0  0  0  0  0  0  0  0
  151.9799  137.8721  154.6415 N   0  0  0  0  0  0  0  0  0  0  0  0
  152.5252  138.9262  155.2519 C   0  0  0  0  0  0  0  0  0  0  0  0
  153.3775  138.5570  156.1960 N   0  0  0  0  0  0  0  0  0  0  0  0
  153.3297  137.1741  156.1403 N   0  0  0  0  0  0  0  0  0  0  0  0
  152.5026  136.7617  155.2195 N   0  0  0  0  0  0  0  0  0  0  0  0
  143.1862  135.3642  150.6595 H   0  0  0  0  0  0  0  0  0  0  0  0
  143.3631  136.5159  151.9661 H   0  0  0  0  0  0  0  0  0  0  0  0
  143.4654  134.7903  152.2939 H   0  0  0  0  0  0  0  0  0  0  0  0
  145.4219  136.4294  150.5988 H   0  0  0  0  0  0  0  0  0  0  0  0
  145.1475  134.0827  149.7629 H   0  0  0  0  0  0  0  0  0  0  0  0
  146.7707  134.5088  150.2319 H   0  0  0  0  0  0  0  0  0  0  0  0
  144.8098  132.8518  151.8906 H   0  0  0  0  0  0  0  0  0  0  0  0
  146.2575  132.2730  151.1033 H   0  0  0  0  0  0  0  0  0  0  0  0
  146.6234  132.6915  153.5543 H   0  0  0  0  0  0  0  0  0  0  0  0
  147.6838  133.6560  152.5550 H   0  0  0  0  0  0  0  0  0  0  0  0
  145.1115  134.6236  153.9104 H   0  0  0  0  0  0  0  0  0  0  0  0
  146.7496  135.0453  154.3363 H   0  0  0  0  0  0  0  0  0  0  0  0
  144.6625  137.3611  153.1620 H   0  0  0  0  0  0  0  0  0  0  0  0
  146.0826  137.2533  154.1770 H   0  0  0  0  0  0  0  0  0  0  0  0
  146.7526  138.0717  151.4046 H   0  0  0  0  0  0  0  0  0  0  0  0
  145.5469  139.1202  152.1098 H   0  0  0  0  0  0  0  0  0  0  0  0
  147.5545  140.1689  152.7992 H   0  0  0  0  0  0  0  0  0  0  0  0
  147.1833  139.1850  154.1968 H   0  0  0  0  0  0  0  0  0  0  0  0
  148.8350  137.8046  152.2567 H   0  0  0  0  0  0  0  0  0  0  0  0
  150.7646  136.7423  153.3943 H   0  0  0  0  0  0  0  0  0  0  0  0
  151.4858  138.1517  152.6334 H   0  0  0  0  0  0  0  0  0  0  0  0
  152.3044  139.9536  155.0029 H   0  0  0  0  0  0  0  0  0  0  0  0
  147.0133  136.0157  152.1790 H   0  0  0  0  0  0  0  0  0  0  0  0
  1  2  1  0  0  0  0
  1 20  1  0  0  0  0
  1 21  1  0  0  0  0
  1 22  1  0  0  0  0
  2  7  1  0  0  0  0
  2  3  1  0  0  0  0
  2 23  1  0  0  0  0
  3  4  1  0  0  0  0
  3 24  1  0  0  0  0
  3 25  1  0  0  0  0
  4  5  1  0  0  0  0
  4 26  1  0  0  0  0
  4 27  1  0  0  0  0
  5  6  1  0  0  0  0
  5 28  1  0  0  0  0
  5 29  1  0  0  0  0
  6  7  1  0  0  0  0
  6 30  1  0  0  0  0
  6 31  1  0  0  0  0
  7  8  1  0  0  0  0
  7 42  1  0  0  0  0
  8  9  1  0  0  0  0
  8 32  1  0  0  0  0
  8 33  1  0  0  0  0
  9 10  1  0  0  0  0
  9 34  1  0  0  0  0
  9 35  1  0  0  0  0
 10 11  1  0  0  0  0
 10 36  1  0  0  0  0
 10 37  1  0  0  0  0
 11 12  1  0  0  0  0
 11 38  1  0  0  0  0
 12 13  2  0  0  0  0
 12 14  1  0  0  0  0
 14 15  1  0  0  0  0
 14 39  1  0  0  0  0
 14 40  1  0  0  0  0
 15 19  1  0  0  0  0
 15 16  1  0  0  0  0
 16 17  2  0  0  0  0
 16 41  1  0  0  0  0
 17 18  1  0  0  0  0
 18 19  2  0  0  0  0
M  CHG  1   7   1
M  END
> <s_m_source_file>
AV-unprocessed.smi

> <i_m_source_file_index>
299

> <i_lp_mmshare_version>
43012

> <i_f3d_flags>
0

> <s_epik_input>
W0NIM11bQ0BASF0xW0NIMl1bQ0gyXVtDSDJdW0NIMl1OMVtDSDJdW0NIMl1bQ0gyXVtOSF1DKD1PKVtDSDJdbjJbY0hdbm5uMg==

> <s_epik_cmdline>
J2VwaWtfcHl0aG9uJywgJy1waCcsICc3LjAnLCAnLXRuJywgJzgnLCAnLW1hJywgJzIwMCcsICctbWV0YWxfYmluZGluZycsICctaW1hZScsICc8aW5maWxlLm1hZT4nLCAnLW9tYWUnLCAnPG91dGZpbGUubWFlPic=

> <r_lp_tautomer_probability>
1

> <r_epik_Ionization_Penalty>
0.000544863

> <r_epik_Ionization_Penalty_Charging>
0.000543475

> <r_epik_Ionization_Penalty_Neutral>
1.38784e-06

> <r_epik_State_Penalty>
0.000340025

> <r_epik_Charging_Adjusted_Penalty>
0.0008835

> <i_epik_Tot_Q>
1

> <i_epik_Tot_abs_Q>
1

> <r_epik_Metal_State_Penalty>
-0

> <b_epik_Metal_Only>
0

> <s_lp_Force_Field>
OPLS_2005

> <r_lp_Energy>
22.352

> <b_lp_Chiralities_Consistent>
1

> <s_lp_Variant>
AV-unprocessed.smi:299-3

> <Gold.Version>
5.8.1

> <Gold.Id.Protein>
6NUR|6NUR_protein|mol2

> <Gold.PLP.Fitness>
46.0042

> <Gold.PLP.PLP>
-33.4118

> <Gold.PLP.part.hbond>
-5.0000

> <Gold.PLP.part.metal>
0.0000

> <Gold.PLP.part.buried>
-3.0448

> <Gold.PLP.part.nonpolar>
-24.8174

> <Gold.PLP.part.repulsive>
0.1681

> <Gold.PLP.ligand.clash>
0.0000

> <Gold.PLP.ligand.torsion>
0.9544

> <Gold.PLP.Chemscore.Hbond>
4.8000

> <Gold.PLP.Chemscore.CHOScore>
0.0000

> <Gold.PLP.Chemscore.Metal>
0.0000

> <Gold.Chemscore.Hbonds>
donor molecule, donor type, donor heavy atom, donor atom, acceptor molecule, acceptor atom, score
      L1  H     7    42       P1  7948  2.00
      L1  H    11    38       P1  7948  0.91
      P1  H  7997  8010       L1    17  0.91
      P1  H 10752 10765       L1    19  0.41

> <Gold.PLP.Chemscore.Internal.Correction>
0.1012

> <Gold.Rescore>
     Score         DG    S(hbond)    S(metal)    S(lipo)     H(rot)  DE(clash)    DE(int)     intcor
     13.69     -15.94       3.52        0.00      53.81       2.97       0.00       2.25       ----

> <Gold.Chemscore.Fitness>
13.6900

> <Gold.Chemscore.DG>
-15.9412

> <Gold.Chemscore.ZeroCoef>
-5.4800

> <Gold.Chemscore.Hbond>
3.5219

> <Gold.Chemscore.Metal>
0.0000

> <Gold.Chemscore.Lipo>
53.8116

> <Gold.Chemscore.Internal_Hbond>
0.0000

> <Gold.Chemscore.DEClash>
0.0000

> <Gold.Chemscore.DEInternal>
2.2512

> <Gold.Chemscore.Rot>
2.9680

> <Gold.Chemscore.Internal.Correction>
   9.000000E+99

> <Gold.Chemscore.Hbonds>
donor molecule, donor type, donor heavy atom, donor atom, acceptor molecule, acceptor atom, score
      L1  H     7    42       P1  7948  0.99
      L1  H    11    38       P1  7948  0.87
      P1  H  7997  8010       L1    17  0.23
      P1  H 10752 10765       L1    19  0.08

> <Gold.Chemscore.Hbond.Weighted>
-11.7632

> <Gold.Chemscore.Metal.Weighted>
-0.0000

> <Gold.Chemscore.Lipo.Weighted>
-6.2960

> <Gold.Chemscore.Internal_Hbond.Weighted>
0.0000

> <Gold.Chemscore.DEClash.Weighted>
0.0000

> <Gold.Chemscore.DEInternal.Weighted>
2.2512

> <Gold.Chemscore.Rot.Weighted>
7.5980

> <Gold.Chemscore.Internal.Correction.Weighted>
   9.000000E+99

> <Gold.Protein.RotatedTorsions>
[ 6907 6896 6895 6894 ] final  151.41 input  -60.11 | X-H torsion
[ 7974 7965 7964 7962 ] final   51.05 input  175.53 | X-H torsion
[ 8008 7997 7996 7995 ] final   76.44 input   59.86 | X-H torsion
[ 10167 10162 10161 10158 ] final  -47.71 input  -65.29 | X-H torsion
[ 10718 10713 10712 10709 ] final  -11.36 input   66.30 | X-H torsion
[ 10763 10752 10751 10750 ] final -156.65 input  -60.55 | X-H torsion
[ 11005 11000 10999 10996 ] final -152.86 input  -57.11 | X-H torsion

> <Gold.Protein.ActiveResidues>
 VAL166  LYS551  ARG553  GLY616  TRP617  ASP618  TYR619  PRO620  LYS621  CYS622 
 ASP623  PHE694  ASN695  SER759  ASP760  ASP761  ALA762  ILE779  LEU786  VAL792 
 PHE793  MET794  SER795  GLU796  ALA797  LYS798  CYS799  TRP800  GLU811  SER814 

> <Gold.Protein.RotatedAtoms>
  152.1010  133.4250  159.4586 H   0  0  0  0  0  0  0  0  0  0  0  0  # atno 6907 bound_to 6896
  150.6864  134.2760  159.4617 H   0  0  0  0  0  0  0  0  0  0  0  0  # atno 6908 bound_to 6896
  152.0620  134.9587  160.0625 H   0  0  0  0  0  0  0  0  0  0  0  0  # atno 6909 bound_to 6896
  145.9952  139.4380  143.0049 H   0  0  0  0  0  0  0  0  0  0  0  0  # atno 7974 bound_to 7965
  155.8274  140.3467  155.5551 H   0  0  0  0  0  0  0  0  0  0  0  0  # atno 8008 bound_to 7997
  155.8278  140.0922  157.1830 H   0  0  0  0  0  0  0  0  0  0  0  0  # atno 8009 bound_to 7997
  154.4004  140.1418  156.3565 H   0  0  0  0  0  0  0  0  0  0  0  0  # atno 8010 bound_to 7997
  140.6763  143.2772  151.3966 H   0  0  0  0  0  0  0  0  0  0  0  0  # atno 10167 bound_to 10162
  156.6602  130.4979  149.6033 H   0  0  0  0  0  0  0  0  0  0  0  0  # atno 10718 bound_to 10713
  154.7696  135.3141  154.8216 H   0  0  0  0  0  0  0  0  0  0  0  0  # atno 10763 bound_to 10752
  153.8955  135.6821  153.4762 H   0  0  0  0  0  0  0  0  0  0  0  0  # atno 10764 bound_to 10752
  153.1308  135.4781  154.9279 H   0  0  0  0  0  0  0  0  0  0  0  0  # atno 10765 bound_to 10752
  140.7143  134.3798  157.5193 H   0  0  0  0  0  0  0  0  0  0  0  0  # atno 11005 bound_to 11000
  145.7571  140.9950  143.1220 LP  0  0  0  0  0  0  0  0  0  0  0  0  # atno 17320 bound_to 7965
  144.6901  139.9285  143.7471 LP  0  0  0  0  0  0  0  0  0  0  0  0  # atno 17321 bound_to 7965
  139.6058  144.1201  152.2247 LP  0  0  0  0  0  0  0  0  0  0  0  0  # atno 17342 bound_to 10162
  140.0599  144.5864  150.7270 LP  0  0  0  0  0  0  0  0  0  0  0  0  # atno 17343 bound_to 10162
  156.2017  130.6624  151.1174 LP  0  0  0  0  0  0  0  0  0  0  0  0  # atno 17370 bound_to 10713
  157.7112  131.0733  150.6493 LP  0  0  0  0  0  0  0  0  0  0  0  0  # atno 17371 bound_to 10713
  139.8864  134.8911  156.2589 LP  0  0  0  0  0  0  0  0  0  0  0  0  # atno 17394 bound_to 11000
  141.0058  133.7124  156.1032 LP  0  0  0  0  0  0  0  0  0  0  0  0  # atno 17395 bound_to 11000

$$$$
