AV-unprocessed.smi:1033|AV-procd|sdf|4508|dock2
  -GOLD-   22720 2513D 1   1.00000     0.00000
 Structure written by MMmdl.
 57 59  0  0  0  0  0  0  0  0  3 V2000
  153.1407  142.8659  160.7402 C   0  0  0  0  0  0  0  0  0  0  0  0
  152.2891  142.5477  159.5237 C   0  0  0  0  0  0  0  0  0  0  0  0
  152.6699  141.4814  158.6781 C   0  0  0  0  0  0  0  0  0  0  0  0
  151.9060  141.1543  157.5366 C   0  0  0  0  0  0  0  0  0  0  0  0
  152.0898  140.1670  156.5838 N   0  0  0  0  0  0  0  0  0  0  0  0
  151.0522  140.3739  155.7785 C   0  0  0  0  0  0  0  0  0  0  0  0
  150.2108  141.3751  156.1022 N   0  0  0  0  0  0  0  0  0  0  0  0
  149.0198  141.7892  155.3820 C   0  0  0  0  0  0  0  0  0  0  0  0
  148.6077  140.7801  154.2927 C   0  0  2  0  0  0  0  0  0  0  0  0
  149.4965  140.8844  153.1972 O   0  0  0  0  0  0  0  0  0  0  0  0
  147.1739  141.0394  153.7903 C   0  0  0  0  0  0  0  0  0  0  0  0
  146.4846  139.7970  153.3556 N   0  3  2  0  0  0  0  0  0  0  0  0
  146.5739  138.7181  154.3704 C   0  0  0  0  0  0  0  0  0  0  0  0
  145.7728  137.4770  153.9389 C   0  0  0  0  0  0  0  0  0  0  0  0
  146.2171  136.9886  152.6085 N   0  3  1  0  0  0  0  0  0  0  0  0
  145.5343  135.7411  152.1768 C   0  0  0  0  0  0  0  0  0  0  0  0
  145.9223  135.3214  150.7452 C   0  0  1  0  0  0  0  0  0  0  0  0
  145.9015  133.7983  150.5626 C   0  0  0  0  0  0  0  0  0  0  0  0
  145.0033  135.8880  149.8330 O   0  0  0  0  0  0  0  0  0  0  0  0
  146.1264  138.0659  151.5922 C   0  0  0  0  0  0  0  0  0  0  0  0
  146.9248  139.3095  152.0231 C   0  0  0  0  0  0  0  0  0  0  0  0
  150.7409  141.9287  157.2626 C   0  0  0  0  0  0  0  0  0  0  0  0
  150.3525  142.9930  158.0952 C   0  0  0  0  0  0  0  0  0  0  0  0
  151.1274  143.3065  159.2315 C   0  0  0  0  0  0  0  0  0  0  0  0
  150.7013  144.4583  160.1247 C   0  0  0  0  0  0  0  0  0  0  0  0
  153.9742  142.1697  160.8368 H   0  0  0  0  0  0  0  0  0  0  0  0
  152.5457  142.8023  161.6514 H   0  0  0  0  0  0  0  0  0  0  0  0
  153.5520  143.8727  160.6641 H   0  0  0  0  0  0  0  0  0  0  0  0
  153.5561  140.9047  158.8990 H   0  0  0  0  0  0  0  0  0  0  0  0
  150.8924  139.7592  154.9045 H   0  0  0  0  0  0  0  0  0  0  0  0
  148.2136  141.9114  156.1066 H   0  0  0  0  0  0  0  0  0  0  0  0
  149.1984  142.7731  154.9452 H   0  0  0  0  0  0  0  0  0  0  0  0
  148.6911  139.7743  154.7025 H   0  0  0  0  0  0  0  0  0  0  0  0
  149.2584  140.2331  152.5539 H   0  0  0  0  0  0  0  0  0  0  0  0
  146.5796  141.5294  154.5632 H   0  0  0  0  0  0  0  0  0  0  0  0
  147.2253  141.7427  152.9572 H   0  0  0  0  0  0  0  0  0  0  0  0
  147.6206  138.4527  154.5288 H   0  0  0  0  0  0  0  0  0  0  0  0
  146.1895  139.0778  155.3258 H   0  0  0  0  0  0  0  0  0  0  0  0
  145.8940  136.6987  154.6913 H   0  0  0  0  0  0  0  0  0  0  0  0
  144.7085  137.7159  153.9025 H   0  0  0  0  0  0  0  0  0  0  0  0
  145.7611  134.9433  152.8860 H   0  0  0  0  0  0  0  0  0  0  0  0
  144.4524  135.8797  152.2138 H   0  0  0  0  0  0  0  0  0  0  0  0
  146.9189  135.6823  150.4937 H   0  0  0  0  0  0  0  0  0  0  0  0
  146.6123  133.3138  151.2326 H   0  0  0  0  0  0  0  0  0  0  0  0
  146.1719  133.5209  149.5430 H   0  0  0  0  0  0  0  0  0  0  0  0
  144.9145  133.3832  150.7698 H   0  0  0  0  0  0  0  0  0  0  0  0
  145.3095  135.7267  148.9529 H   0  0  0  0  0  0  0  0  0  0  0  0
  146.5122  137.7053  150.6377 H   0  0  0  0  0  0  0  0  0  0  0  0
  145.0791  138.3282  151.4327 H   0  0  0  0  0  0  0  0  0  0  0  0
  146.7987  140.0878  151.2715 H   0  0  0  0  0  0  0  0  0  0  0  0
  147.9897  139.0734  152.0565 H   0  0  0  0  0  0  0  0  0  0  0  0
  149.4672  143.5645  157.8603 H   0  0  0  0  0  0  0  0  0  0  0  0
  149.8075  144.9511  159.7410 H   0  0  0  0  0  0  0  0  0  0  0  0
  151.4932  145.2050  160.1890 H   0  0  0  0  0  0  0  0  0  0  0  0
  150.4809  144.0997  161.1305 H   0  0  0  0  0  0  0  0  0  0  0  0
  147.1975  136.7558  152.6883 H   0  0  0  0  0  0  0  0  0  0  0  0
  145.5052  140.0347  153.2798 H   0  0  0  0  0  0  0  0  0  0  0  0
  1  2  1  0  0  0  0
  1 26  1  0  0  0  0
  1 27  1  0  0  0  0
  1 28  1  0  0  0  0
  2 24  1  0  0  0  0
  2  3  2  0  0  0  0
  3  4  1  0  0  0  0
  3 29  1  0  0  0  0
  4 22  2  0  0  0  0
  4  5  1  0  0  0  0
  5  6  2  0  0  0  0
  6  7  1  0  0  0  0
  6 30  1  0  0  0  0
  7  8  1  0  0  0  0
  7 22  1  0  0  0  0
  8  9  1  0  0  0  0
  8 31  1  0  0  0  0
  8 32  1  0  0  0  0
  9 10  1  0  0  0  0
  9 11  1  0  0  0  0
  9 33  1  0  0  0  0
 10 34  1  0  0  0  0
 11 12  1  0  0  0  0
 11 35  1  0  0  0  0
 11 36  1  0  0  0  0
 12 21  1  0  0  0  0
 12 13  1  0  0  0  0
 12 57  1  0  0  0  0
 13 14  1  0  0  0  0
 13 37  1  0  0  0  0
 13 38  1  0  0  0  0
 14 15  1  0  0  0  0
 14 39  1  0  0  0  0
 14 40  1  0  0  0  0
 15 16  1  0  0  0  0
 15 20  1  0  0  0  0
 15 56  1  0  0  0  0
 16 17  1  0  0  0  0
 16 41  1  0  0  0  0
 16 42  1  0  0  0  0
 17 18  1  0  0  0  0
 17 19  1  0  0  0  0
 17 43  1  0  0  0  0
 18 44  1  0  0  0  0
 18 45  1  0  0  0  0
 18 46  1  0  0  0  0
 19 47  1  0  0  0  0
 20 21  1  0  0  0  0
 20 48  1  0  0  0  0
 20 49  1  0  0  0  0
 21 50  1  0  0  0  0
 21 51  1  0  0  0  0
 22 23  1  0  0  0  0
 23 24  2  0  0  0  0
 23 52  1  0  0  0  0
 24 25  1  0  0  0  0
 25 53  1  0  0  0  0
 25 54  1  0  0  0  0
 25 55  1  0  0  0  0
M  CHG  1  12   1
M  CHG  1  15   1
M  END
> <s_m_source_file>
AV-unprocessed.smi

> <i_m_source_file_index>
1033

> <i_lp_mmshare_version>
43012

> <i_f3d_flags>
0

> <s_epik_input>
W0NIM11jKFtjSF0xKWMoW0NIM10pW2NIXWMoYzEyKW4oW2NIXW4yKVtDSDJdW0NASF0oW09IXSlbQ0gyXU4zW0NIMl1bQ0gyXU4oW0NIMl1bQ0gyXTMpW0NIMl1bQ0BIXShbQ0gzXSlbT0hd

> <s_epik_cmdline>
J2VwaWtfcHl0aG9uJywgJy1waCcsICc3LjAnLCAnLXRuJywgJzgnLCAnLW1hJywgJzIwMCcsICctbWV0YWxfYmluZGluZycsICctaW1hZScsICc8aW5maWxlLm1hZT4nLCAnLW9tYWUnLCAnPG91dGZpbGUubWFlPic=

> <r_epik_Ionization_Penalty>
3.16016

> <r_epik_Ionization_Penalty_Charging>
3.07679

> <r_epik_Ionization_Penalty_Neutral>
0.083365

> <r_epik_State_Penalty>
2.09701

> <r_epik_Charging_Adjusted_Penalty>
5.1738

> <i_epik_Tot_Q>
2

> <i_epik_Tot_abs_Q>
2

> <r_epik_Metal_State_Penalty>
2.02534

> <b_epik_Metal_Only>
0

> <s_lp_Force_Field>
OPLS_2005

> <r_lp_Energy>
26.7324

> <b_lp_Chiralities_Consistent>
1

> <s_lp_Variant>
AV-unprocessed.smi:1033-19

> <Gold.Version>
5.8.1

> <Gold.Id.Protein>
6NUR|6NUR_protein|mol2

> <Gold.PLP.Fitness>
68.7436

> <Gold.PLP.PLP>
-49.4420

> <Gold.PLP.part.hbond>
-6.1531

> <Gold.PLP.part.metal>
0.0000

> <Gold.PLP.part.buried>
-0.3348

> <Gold.PLP.part.nonpolar>
-41.5212

> <Gold.PLP.part.repulsive>
0.0247

> <Gold.PLP.ligand.clash>
0.0000

> <Gold.PLP.ligand.torsion>
1.1376

> <Gold.PLP.Chemscore.Hbond>
7.0780

> <Gold.PLP.Chemscore.CHOScore>
0.0000

> <Gold.PLP.Chemscore.Metal>
0.0000

> <Gold.Chemscore.Hbonds>
donor molecule, donor type, donor heavy atom, donor atom, acceptor molecule, acceptor atom, score
      L1  H    10    34       P1  7957  0.52
      L1  H    12    57       P1 10175  1.95
      L1  H    15    56       P1  7948  2.00
      L1  H    19    47       P1  7921  1.00
      P1  H  7989  7998       L1    10  0.15
      P1  H  7997  8009       L1     5  0.46
      P1  H  8011  8017       L1    10  1.00

> <Gold.PLP.Chemscore.Internal.Correction>
0.3428

> <Gold.Rescore>
     Score         DG    S(hbond)    S(metal)    S(lipo)     H(rot)  DE(clash)    DE(int)     intcor
     23.14     -26.44       4.05        0.00     132.17       3.14       1.22       2.08       ----

> <Gold.Chemscore.Fitness>
23.1356

> <Gold.Chemscore.DG>
-26.4370

> <Gold.Chemscore.ZeroCoef>
-5.4800

> <Gold.Chemscore.Hbond>
4.0500

> <Gold.Chemscore.Metal>
0.0000

> <Gold.Chemscore.Lipo>
132.1655

> <Gold.Chemscore.Internal_Hbond>
0.0000

> <Gold.Chemscore.DEClash>
1.2230

> <Gold.Chemscore.DEInternal>
2.0785

> <Gold.Chemscore.Rot>
3.1380

> <Gold.Chemscore.Internal.Correction>
   9.000000E+99

> <Gold.Chemscore.Hbonds>
donor molecule, donor type, donor heavy atom, donor atom, acceptor molecule, acceptor atom, score
      L1  H    10    34       P1  7957  0.52
      L1  H    12    57       P1 10175  0.91
      L1  H    15    56       P1  7948  0.91
      L1  H    19    47       P1  7921  0.99
      P1  H  7989  7998       L1    10  0.12
      P1  H  7997  8009       L1     5  0.16
      P1  H  8011  8017       L1    10  0.60

> <Gold.Chemscore.Hbond.Weighted>
-13.5269

> <Gold.Chemscore.Metal.Weighted>
-0.0000

> <Gold.Chemscore.Lipo.Weighted>
-15.4634

> <Gold.Chemscore.Internal_Hbond.Weighted>
0.0000

> <Gold.Chemscore.DEClash.Weighted>
1.2230

> <Gold.Chemscore.DEInternal.Weighted>
2.0785

> <Gold.Chemscore.Rot.Weighted>
8.0332

> <Gold.Chemscore.Internal.Correction.Weighted>
   9.000000E+99

> <Gold.Protein.RotatedTorsions>
[ 6907 6896 6895 6894 ] final -144.46 input  -60.11 | X-H torsion
[ 7974 7965 7964 7962 ] final   76.32 input  175.53 | X-H torsion
[ 8008 7997 7996 7995 ] final -164.51 input   59.86 | X-H torsion
[ 10167 10162 10161 10158 ] final -141.55 input  -65.29 | X-H torsion
[ 10718 10713 10712 10709 ] final  132.30 input   66.30 | X-H torsion
[ 10763 10752 10751 10750 ] final   85.88 input  -60.55 | X-H torsion
[ 11005 11000 10999 10996 ] final  129.27 input  -57.11 | X-H torsion

> <Gold.Protein.ActiveResidues>
 VAL166  LYS551  ARG553  GLY616  TRP617  ASP618  TYR619  PRO620  LYS621  CYS622 
 ASP623  PHE694  ASN695  SER759  ASP760  ASP761  ALA762  ILE779  LEU786  VAL792 
 PHE793  MET794  SER795  GLU796  ALA797  LYS798  CYS799  TRP800  GLU811  SER814 

> <Gold.Protein.RotatedAtoms>
  151.1144  133.5149  159.2604 H   0  0  0  0  0  0  0  0  0  0  0  0  # atno 6907 bound_to 6896
  151.1931  135.0410  159.8851 H   0  0  0  0  0  0  0  0  0  0  0  0  # atno 6908 bound_to 6896
  152.5452  134.0982  159.8360 H   0  0  0  0  0  0  0  0  0  0  0  0  # atno 6909 bound_to 6896
  145.7043  139.2593  143.1687 H   0  0  0  0  0  0  0  0  0  0  0  0  # atno 7974 bound_to 7965
  155.8366  140.0942  157.1760 H   0  0  0  0  0  0  0  0  0  0  0  0  # atno 8008 bound_to 7997
  154.3981  140.1409  156.3739 H   0  0  0  0  0  0  0  0  0  0  0  0  # atno 8009 bound_to 7997
  155.8109  140.3449  155.5459 H   0  0  0  0  0  0  0  0  0  0  0  0  # atno 8010 bound_to 7997
  139.8174  143.7620  152.2665 H   0  0  0  0  0  0  0  0  0  0  0  0  # atno 10167 bound_to 10162
  157.4885  131.1089  150.9588 H   0  0  0  0  0  0  0  0  0  0  0  0  # atno 10718 bound_to 10713
  153.1517  135.4601  154.9646 H   0  0  0  0  0  0  0  0  0  0  0  0  # atno 10763 bound_to 10752
  154.7830  135.3194  154.7951 H   0  0  0  0  0  0  0  0  0  0  0  0  # atno 10764 bound_to 10752
  153.8455  135.6926  153.4852 H   0  0  0  0  0  0  0  0  0  0  0  0  # atno 10765 bound_to 10752
  139.9606  134.9603  156.9123 H   0  0  0  0  0  0  0  0  0  0  0  0  # atno 11005 bound_to 11000
  146.0769  140.7807  142.9660 LP  0  0  0  0  0  0  0  0  0  0  0  0  # atno 17320 bound_to 7965
  144.6959  140.3429  143.7196 LP  0  0  0  0  0  0  0  0  0  0  0  0  # atno 17321 bound_to 7965
  139.7788  144.7452  151.0119 LP  0  0  0  0  0  0  0  0  0  0  0  0  # atno 17342 bound_to 10162
  140.7815  143.4565  151.0338 LP  0  0  0  0  0  0  0  0  0  0  0  0  # atno 17343 bound_to 10162
  157.0298  130.5707  149.5341 LP  0  0  0  0  0  0  0  0  0  0  0  0  # atno 17370 bound_to 10713
  156.0160  130.5254  150.8135 LP  0  0  0  0  0  0  0  0  0  0  0  0  # atno 17371 bound_to 10713
  140.5509  134.0628  155.7369 LP  0  0  0  0  0  0  0  0  0  0  0  0  # atno 17394 bound_to 11000
  141.1282  133.9346  157.2590 LP  0  0  0  0  0  0  0  0  0  0  0  0  # atno 17395 bound_to 11000

$$$$
