AV-unprocessed.smi:3125|AV-procd|sdf|11909|dock10
  -GOLD-   2272017293D 1   1.00000     0.00000
 Structure written by MMmdl.
 28 29  0  0  0  0  0  0  0  0  2 V2000
  154.0597  140.8323  160.7232 C   0  0  0  0  0  0  0  0  0  0  0  0
  153.3554  142.0549  161.0596 N   0  0  0  0  0  0  0  0  0  0  0  0
  153.3847  142.6893  162.2947 C   0  0  0  0  0  0  0  0  0  0  0  0
  152.5846  143.8002  162.1881 C   0  0  0  0  0  0  0  0  0  0  0  0
  152.0576  143.8646  160.9036 N   0  0  0  0  0  0  0  0  0  0  0  0
  152.5545  142.8031  160.2732 C   0  0  0  0  0  0  0  0  0  0  0  0
  152.2378  142.4681  158.8419 C   0  0  1  0  0  0  0  0  0  0  0  0
  151.5473  141.0965  158.7128 C   0  0  0  0  0  0  0  0  0  0  0  0
  151.2135  140.7958  157.2435 C   0  0  0  0  0  0  0  0  0  0  0  0
  150.3867  141.9348  156.6245 C   0  0  0  0  0  0  0  0  0  0  0  0
  151.0938  143.2267  156.7617 N   0  3  0  0  0  0  0  0  0  0  0  0
  151.3965  143.5722  158.1683 C   0  0  0  0  0  0  0  0  0  0  0  0
  154.5996  140.4568  161.5931 H   0  0  0  0  0  0  0  0  0  0  0  0
  154.7744  141.0261  159.9230 H   0  0  0  0  0  0  0  0  0  0  0  0
  153.3481  140.0729  160.3979 H   0  0  0  0  0  0  0  0  0  0  0  0
  153.9565  142.3070  163.1278 H   0  0  0  0  0  0  0  0  0  0  0  0
  152.3495  144.5500  162.9290 H   0  0  0  0  0  0  0  0  0  0  0  0
  153.1746  142.4062  158.2884 H   0  0  0  0  0  0  0  0  0  0  0  0
  152.1881  140.3121  159.1169 H   0  0  0  0  0  0  0  0  0  0  0  0
  150.6291  141.0834  159.3020 H   0  0  0  0  0  0  0  0  0  0  0  0
  152.1361  140.6617  156.6771 H   0  0  0  0  0  0  0  0  0  0  0  0
  150.6665  139.8553  157.1703 H   0  0  0  0  0  0  0  0  0  0  0  0
  150.2033  141.7386  155.5679 H   0  0  0  0  0  0  0  0  0  0  0  0
  149.4121  142.0047  157.1102 H   0  0  0  0  0  0  0  0  0  0  0  0
  151.9626  143.1735  156.2492 H   0  0  0  0  0  0  0  0  0  0  0  0
  150.4576  143.7226  158.7035 H   0  0  0  0  0  0  0  0  0  0  0  0
  151.9310  144.5223  158.1901 H   0  0  0  0  0  0  0  0  0  0  0  0
  150.5232  143.9572  156.3604 H   0  0  0  0  0  0  0  0  0  0  0  0
  1  2  1  0  0  0  0
  1 13  1  0  0  0  0
  1 14  1  0  0  0  0
  1 15  1  0  0  0  0
  2  6  1  0  0  0  0
  2  3  1  0  0  0  0
  3  4  2  0  0  0  0
  3 16  1  0  0  0  0
  4  5  1  0  0  0  0
  4 17  1  0  0  0  0
  5  6  2  0  0  0  0
  6  7  1  0  0  0  0
  7 12  1  0  0  0  0
  7  8  1  0  0  0  0
  7 18  1  0  0  0  0
  8  9  1  0  0  0  0
  8 19  1  0  0  0  0
  8 20  1  0  0  0  0
  9 10  1  0  0  0  0
  9 21  1  0  0  0  0
  9 22  1  0  0  0  0
 10 11  1  0  0  0  0
 10 23  1  0  0  0  0
 10 24  1  0  0  0  0
 11 12  1  0  0  0  0
 11 25  1  0  0  0  0
 11 28  1  0  0  0  0
 12 26  1  0  0  0  0
 12 27  1  0  0  0  0
M  CHG  1  11   1
M  END
> <s_m_source_file>
AV-unprocessed.smi

> <i_m_source_file_index>
3125

> <i_lp_mmshare_version>
43012

> <i_f3d_flags>
0

> <s_epik_input>
W0NIM11uMVtjSF1bY0hdbmMxW0NAQEhdMltDSDJdW0NIMl1bQ0gyXVtOSF1bQ0gyXTI=

> <s_epik_cmdline>
J2VwaWtfcHl0aG9uJywgJy1waCcsICc3LjAnLCAnLXRuJywgJzgnLCAnLW1hJywgJzIwMCcsICctbWV0YWxfYmluZGluZycsICctaW1hZScsICc8aW5maWxlLm1hZT4nLCAnLW9tYWUnLCAnPG91dGZpbGUubWFlPic=

> <r_lp_tautomer_probability>
1

> <r_epik_Ionization_Penalty>
0.177191

> <r_epik_Ionization_Penalty_Charging>
0.177191

> <r_epik_Ionization_Penalty_Neutral>
7.05152e-14

> <r_epik_State_Penalty>
0.46716

> <r_epik_Charging_Adjusted_Penalty>
0.644351

> <i_epik_Tot_Q>
1

> <i_epik_Tot_abs_Q>
1

> <r_epik_Metal_State_Penalty>
0.000708398

> <b_epik_Metal_Only>
0

> <s_lp_Force_Field>
OPLS_2005

> <r_lp_Energy>
12.4076

> <b_lp_Chiralities_Consistent>
1

> <s_lp_Variant>
AV-unprocessed.smi:3125-4

> <Gold.Version>
5.8.1

> <Gold.Id.Protein>
6NUR|6NUR_protein|mol2

> <Gold.PLP.Fitness>
38.5620

> <Gold.PLP.PLP>
-32.5956

> <Gold.PLP.part.hbond>
-1.0000

> <Gold.PLP.part.metal>
0.0000

> <Gold.PLP.part.buried>
-3.8692

> <Gold.PLP.part.nonpolar>
-28.2594

> <Gold.PLP.part.repulsive>
0.1572

> <Gold.PLP.ligand.clash>
0.0000

> <Gold.PLP.ligand.torsion>
0.0299

> <Gold.PLP.Chemscore.Hbond>
2.0000

> <Gold.PLP.Chemscore.CHOScore>
0.0000

> <Gold.PLP.Chemscore.Metal>
0.0000

> <Gold.Chemscore.Hbonds>
donor molecule, donor type, donor heavy atom, donor atom, acceptor molecule, acceptor atom, score
      L1  H    11    28       P1  8028  2.00

> <Gold.PLP.Chemscore.Internal.Correction>
0.0262

> <Gold.Rescore>
     Score         DG    S(hbond)    S(metal)    S(lipo)     H(rot)  DE(clash)    DE(int)     intcor
     14.56     -14.61       1.00        0.00      71.46       1.00       0.01       0.04       ----

> <Gold.Chemscore.Fitness>
14.5585

> <Gold.Chemscore.DG>
-14.6123

> <Gold.Chemscore.ZeroCoef>
-5.4800

> <Gold.Chemscore.Hbond>
0.9975

> <Gold.Chemscore.Metal>
0.0000

> <Gold.Chemscore.Lipo>
71.4593

> <Gold.Chemscore.Internal_Hbond>
0.0000

> <Gold.Chemscore.DEClash>
0.0121

> <Gold.Chemscore.DEInternal>
0.0416

> <Gold.Chemscore.Rot>
1.0000

> <Gold.Chemscore.Internal.Correction>
   9.000000E+99

> <Gold.Chemscore.Hbonds>
donor molecule, donor type, donor heavy atom, donor atom, acceptor molecule, acceptor atom, score
      L1  H    11    28       P1  8028  0.98

> <Gold.Chemscore.Hbond.Weighted>
-3.3316

> <Gold.Chemscore.Metal.Weighted>
-0.0000

> <Gold.Chemscore.Lipo.Weighted>
-8.3607

> <Gold.Chemscore.Internal_Hbond.Weighted>
0.0000

> <Gold.Chemscore.DEClash.Weighted>
0.0121

> <Gold.Chemscore.DEInternal.Weighted>
0.0416

> <Gold.Chemscore.Rot.Weighted>
2.5600

> <Gold.Chemscore.Internal.Correction.Weighted>
   9.000000E+99

> <Gold.Protein.RotatedTorsions>
[ 6907 6896 6895 6894 ] final  124.02 input  -60.11 | X-H torsion
[ 7974 7965 7964 7962 ] final  163.26 input  175.53 | X-H torsion
[ 8008 7997 7996 7995 ] final  -98.30 input   59.86 | X-H torsion
[ 10167 10162 10161 10158 ] final  -15.79 input  -65.29 | X-H torsion
[ 10718 10713 10712 10709 ] final  154.73 input   66.30 | X-H torsion
[ 10763 10752 10751 10750 ] final   81.72 input  -60.55 | X-H torsion
[ 11005 11000 10999 10996 ] final   99.22 input  -57.11 | X-H torsion

> <Gold.Protein.ActiveResidues>
 VAL166  LYS551  ARG553  GLY616  TRP617  ASP618  TYR619  PRO620  LYS621  CYS622 
 ASP623  PHE694  ASN695  SER759  ASP760  ASP761  ALA762  ILE779  LEU786  VAL792 
 PHE793  MET794  SER795  GLU796  ALA797  LYS798  CYS799  TRP800  GLU811  SER814 

> <Gold.Protein.RotatedAtoms>
  152.4113  133.6968  159.6399 H   0  0  0  0  0  0  0  0  0  0  0  0  # atno 6907 bound_to 6896
  150.7993  133.8619  159.3243 H   0  0  0  0  0  0  0  0  0  0  0  0  # atno 6908 bound_to 6896
  151.6361  135.1019  160.0183 H   0  0  0  0  0  0  0  0  0  0  0  0  # atno 6909 bound_to 6896
  144.7598  139.8157  143.6337 H   0  0  0  0  0  0  0  0  0  0  0  0  # atno 7974 bound_to 7965
  154.7994  140.0456  157.1261 H   0  0  0  0  0  0  0  0  0  0  0  0  # atno 8008 bound_to 7997
  154.9497  140.3063  155.5061 H   0  0  0  0  0  0  0  0  0  0  0  0  # atno 8009 bound_to 7997
  156.2960  140.2290  156.4573 H   0  0  0  0  0  0  0  0  0  0  0  0  # atno 8010 bound_to 7997
  140.7224  143.5182  150.9666 H   0  0  0  0  0  0  0  0  0  0  0  0  # atno 10167 bound_to 10162
  157.2277  131.0732  151.1872 H   0  0  0  0  0  0  0  0  0  0  0  0  # atno 10718 bound_to 10713
  153.1140  135.4755  154.9084 H   0  0  0  0  0  0  0  0  0  0  0  0  # atno 10763 bound_to 10752
  154.7510  135.3106  154.8560 H   0  0  0  0  0  0  0  0  0  0  0  0  # atno 10764 bound_to 10752
  153.9141  135.6862  153.4803 H   0  0  0  0  0  0  0  0  0  0  0  0  # atno 10765 bound_to 10752
  139.8771  134.9085  156.4573 H   0  0  0  0  0  0  0  0  0  0  0  0  # atno 11005 bound_to 11000
  146.1649  139.4776  142.9965 LP  0  0  0  0  0  0  0  0  0  0  0  0  # atno 17320 bound_to 7965
  145.6657  141.0229  143.1685 LP  0  0  0  0  0  0  0  0  0  0  0  0  # atno 17321 bound_to 7965
  139.8898  143.6967  152.3146 LP  0  0  0  0  0  0  0  0  0  0  0  0  # atno 17342 bound_to 10162
  139.7279  144.7589  151.0849 LP  0  0  0  0  0  0  0  0  0  0  0  0  # atno 17343 bound_to 10162
  157.3510  130.7082  149.6441 LP  0  0  0  0  0  0  0  0  0  0  0  0  # atno 17370 bound_to 10713
  155.9677  130.4252  150.4645 LP  0  0  0  0  0  0  0  0  0  0  0  0  # atno 17371 bound_to 10713
  140.8889  133.7863  155.9549 LP  0  0  0  0  0  0  0  0  0  0  0  0  # atno 17394 bound_to 11000
  140.8775  134.2652  157.5161 LP  0  0  0  0  0  0  0  0  0  0  0  0  # atno 17395 bound_to 11000

$$$$
