AV-unprocessed.smi:53|AV-procd|sdf|520|dock2
  -GOLD-   2262016393D 1   1.00000     0.00000
 Structure written by MMmdl.
 30 31  0  0  0  0  0  0  0  0  1 V2000
  152.1964  139.0342  158.8612 N   0  0  0  0  0  0  0  0  0  0  0  0
  151.4700  139.4767  157.8251 C   0  0  0  0  0  0  0  0  0  0  0  0
  150.2890  140.2790  158.0510 C   0  0  0  0  0  0  0  0  0  0  0  0
  149.6080  140.6836  156.9565 C   0  0  0  0  0  0  0  0  0  0  0  0
  150.0042  140.3425  155.6705 N   0  0  0  0  0  0  0  0  0  0  0  0
  149.2300  140.8184  154.4616 C   0  0  1  0  0  0  0  0  0  0  0  0
  148.7258  139.7044  153.7841 O   0  0  0  0  0  0  0  0  0  0  0  0
  147.3434  139.8884  153.4951 C   0  0  1  0  0  0  0  0  0  0  0  0
  146.6446  138.5233  153.3998 C   0  0  0  0  0  0  0  0  0  0  0  0
  146.8955  137.9370  152.1404 O   0  0  0  0  0  0  0  0  0  0  0  0
  146.8670  140.7402  154.6726 C   0  0  2  0  0  0  0  0  0  0  0  0
  145.6479  141.4117  154.4157 O   0  0  0  0  0  0  0  0  0  0  0  0
  148.0397  141.6876  154.8995 C   0  0  2  0  0  0  0  0  0  0  0  0
  147.9495  142.8630  154.1142 O   0  0  0  0  0  0  0  0  0  0  0  0
  151.1780  139.5747  155.4802 C   0  0  0  0  0  0  0  0  0  0  0  0
  151.5902  139.2836  154.3581 O   0  0  0  0  0  0  0  0  0  0  0  0
  151.8538  139.1713  156.6007 N   0  0  0  0  0  0  0  0  0  0  0  0
  149.9418  141.3276  153.8088 H   0  0  0  0  0  0  0  0  0  0  0  0
  147.2406  140.4547  152.5671 H   0  0  0  0  0  0  0  0  0  0  0  0
  146.7440  140.1093  155.5540 H   0  0  0  0  0  0  0  0  0  0  0  0
  148.1280  141.9803  155.9469 H   0  0  0  0  0  0  0  0  0  0  0  0
  153.0228  138.4767  158.7002 H   0  0  0  0  0  0  0  0  0  0  0  0
  151.9168  139.2644  159.8038 H   0  0  0  0  0  0  0  0  0  0  0  0
  149.9404  140.5603  159.0345 H   0  0  0  0  0  0  0  0  0  0  0  0
  148.7294  141.2930  157.1089 H   0  0  0  0  0  0  0  0  0  0  0  0
  146.9637  137.8562  154.2013 H   0  0  0  0  0  0  0  0  0  0  0  0
  145.5652  138.6471  153.4920 H   0  0  0  0  0  0  0  0  0  0  0  0
  147.7615  137.5589  152.1516 H   0  0  0  0  0  0  0  0  0  0  0  0
  145.1281  140.8775  153.8345 H   0  0  0  0  0  0  0  0  0  0  0  0
  147.9720  143.6109  154.6914 H   0  0  0  0  0  0  0  0  0  0  0  0
  1  2  1  0  0  0  0
  1 22  1  0  0  0  0
  1 23  1  0  0  0  0
  2 17  2  0  0  0  0
  2  3  1  0  0  0  0
  3  4  2  0  0  0  0
  3 24  1  0  0  0  0
  4  5  1  0  0  0  0
  4 25  1  0  0  0  0
  5  6  1  0  0  0  0
  5 15  1  0  0  0  0
  6 18  1  0  0  0  0
  6 13  1  0  0  0  0
  6  7  1  0  0  0  0
  7  8  1  0  0  0  0
  8 19  1  0  0  0  0
  8  9  1  0  0  0  0
  8 11  1  0  0  0  0
  9 10  1  0  0  0  0
  9 26  1  0  0  0  0
  9 27  1  0  0  0  0
 10 28  1  0  0  0  0
 11 20  1  0  0  0  0
 11 12  1  0  0  0  0
 11 13  1  0  0  0  0
 12 29  1  0  0  0  0
 13 21  1  0  0  0  0
 13 14  1  0  0  0  0
 14 30  1  0  0  0  0
 15 16  2  0  0  0  0
 15 17  1  0  0  0  0
M  END
> <s_m_source_file>
AV-unprocessed.smi

> <i_m_source_file_index>
53

> <i_lp_mmshare_version>
43012

> <i_f3d_flags>
0

> <s_epik_input>
W05IMl1jMVtjSF1bY0hdbihjKD1PKW4xKVtDQEBIXTJPW0NASF0oW0NIMl1bT0hdKVtDQEBIXShbT0hdKVtDQEBIXTJbT0hd

> <s_epik_cmdline>
J2VwaWtfcHl0aG9uJywgJy1waCcsICc3LjAnLCAnLXRuJywgJzgnLCAnLW1hJywgJzIwMCcsICctbWV0YWxfYmluZGluZycsICctaW1hZScsICc8aW5maWxlLm1hZT4nLCAnLW9tYWUnLCAnPG91dGZpbGUubWFlPic=

> <r_lp_tautomer_probability>
0.99996

> <r_epik_Ionization_Penalty>
0.00069087

> <r_epik_Ionization_Penalty_Charging>
2.61959e-08

> <r_epik_Ionization_Penalty_Neutral>
0.000690844

> <r_epik_State_Penalty>
1.15523e-05

> <r_epik_Charging_Adjusted_Penalty>
1.15785e-05

> <i_epik_Tot_Q>
0

> <i_epik_Tot_abs_Q>
0

> <r_epik_Metal_State_Penalty>
-0

> <b_epik_Metal_Only>
0

> <s_epik_Chemistry_Notes>
This compound contains an acetal/aminal-like group ( X-CH(R)-Y where X, Y are N, S, or O) that may be acid/base labile, releasing an aldehyde.

> <s_lp_Force_Field>
OPLS_2005

> <r_lp_Energy>
33.3856

> <b_lp_Chiralities_Consistent>
1

> <s_lp_Variant>
AV-unprocessed.smi:53-8

> <Gold.Version>
5.8.1

> <Gold.Id.Protein>
6NUR|6NUR_protein|mol2

> <Gold.PLP.Fitness>
35.5760

> <Gold.PLP.PLP>
-23.8665

> <Gold.PLP.part.hbond>
-6.0000

> <Gold.PLP.part.metal>
0.0000

> <Gold.PLP.part.buried>
-2.9716

> <Gold.PLP.part.nonpolar>
-16.5799

> <Gold.PLP.part.repulsive>
2.4439

> <Gold.PLP.ligand.clash>
0.0000

> <Gold.PLP.ligand.torsion>
0.1535

> <Gold.PLP.Chemscore.Hbond>
4.0000

> <Gold.PLP.Chemscore.CHOScore>
0.0000

> <Gold.PLP.Chemscore.Metal>
0.0000

> <Gold.Chemscore.Hbonds>
donor molecule, donor type, donor heavy atom, donor atom, acceptor molecule, acceptor atom, score
      L1  H    10    28       P1  7948  1.00
      L1  H    12    29       P1 10175  1.00
      L1  H    14    30       P1  8028  1.00
      P1  H  7989  7998       L1    16  1.00

> <Gold.PLP.Chemscore.Internal.Correction>
0.0166

> <Gold.Rescore>
     Score         DG    S(hbond)    S(metal)    S(lipo)     H(rot)  DE(clash)    DE(int)     intcor
     10.90     -11.70       3.79        0.00      26.24       3.71       0.24       0.56       ----

> <Gold.Chemscore.Fitness>
10.9012

> <Gold.Chemscore.DG>
-11.7044

> <Gold.Chemscore.ZeroCoef>
-5.4800

> <Gold.Chemscore.Hbond>
3.7875

> <Gold.Chemscore.Metal>
0.0000

> <Gold.Chemscore.Lipo>
26.2443

> <Gold.Chemscore.Internal_Hbond>
0.0000

> <Gold.Chemscore.DEClash>
0.2386

> <Gold.Chemscore.DEInternal>
0.5646

> <Gold.Chemscore.Rot>
3.7095

> <Gold.Chemscore.Internal.Correction>
   9.000000E+99

> <Gold.Chemscore.Hbonds>
donor molecule, donor type, donor heavy atom, donor atom, acceptor molecule, acceptor atom, score
      L1  H    10    28       P1  7948  0.98
      L1  H    12    29       P1 10175  0.85
      L1  H    14    30       P1  8028  0.62
      P1  H  7989  7998       L1    16  0.49

> <Gold.Chemscore.Hbond.Weighted>
-12.6502

> <Gold.Chemscore.Metal.Weighted>
-0.0000

> <Gold.Chemscore.Lipo.Weighted>
-3.0706

> <Gold.Chemscore.Internal_Hbond.Weighted>
0.0000

> <Gold.Chemscore.DEClash.Weighted>
0.2386

> <Gold.Chemscore.DEInternal.Weighted>
0.5646

> <Gold.Chemscore.Rot.Weighted>
9.4964

> <Gold.Chemscore.Internal.Correction.Weighted>
   9.000000E+99

> <Gold.Protein.RotatedTorsions>
[ 6907 6896 6895 6894 ] final   88.09 input  -60.11 | X-H torsion
[ 7974 7965 7964 7962 ] final    3.47 input  175.53 | X-H torsion
[ 8008 7997 7996 7995 ] final -175.16 input   59.86 | X-H torsion
[ 10167 10162 10161 10158 ] final  -51.51 input  -65.29 | X-H torsion
[ 10718 10713 10712 10709 ] final   70.61 input   66.30 | X-H torsion
[ 10763 10752 10751 10750 ] final -110.63 input  -60.55 | X-H torsion
[ 11005 11000 10999 10996 ] final   11.16 input  -57.11 | X-H torsion

> <Gold.Protein.ActiveResidues>
 VAL166  LYS551  ARG553  GLY616  TRP617  ASP618  TYR619  PRO620  LYS621  CYS622 
 ASP623  PHE694  ASN695  SER759  ASP760  ASP761  ALA762  ILE779  LEU786  VAL792 
 PHE793  MET794  SER795  GLU796  ALA797  LYS798  CYS799  TRP800  GLU811  SER814 

> <Gold.Protein.RotatedAtoms>
  152.5420  134.2175  159.8774 H   0  0  0  0  0  0  0  0  0  0  0  0  # atno 6907 bound_to 6896
  151.2154  133.4525  159.2607 H   0  0  0  0  0  0  0  0  0  0  0  0  # atno 6908 bound_to 6896
  151.0857  134.9898  159.8433 H   0  0  0  0  0  0  0  0  0  0  0  0  # atno 6909 bound_to 6896
  146.2445  140.0680  142.8364 H   0  0  0  0  0  0  0  0  0  0  0  0  # atno 7974 bound_to 7965
  155.9791  140.1178  157.0743 H   0  0  0  0  0  0  0  0  0  0  0  0  # atno 8008 bound_to 7997
  154.4177  140.1148  156.5478 H   0  0  0  0  0  0  0  0  0  0  0  0  # atno 8009 bound_to 7997
  155.6495  140.3473  155.4745 H   0  0  0  0  0  0  0  0  0  0  0  0  # atno 8010 bound_to 7997
  140.6584  143.2617  151.4514 H   0  0  0  0  0  0  0  0  0  0  0  0  # atno 10167 bound_to 10162
  157.6409  130.9486  150.0675 H   0  0  0  0  0  0  0  0  0  0  0  0  # atno 10718 bound_to 10713
  154.8258  135.4557  154.0914 H   0  0  0  0  0  0  0  0  0  0  0  0  # atno 10763 bound_to 10752
  153.2230  135.6896  153.7984 H   0  0  0  0  0  0  0  0  0  0  0  0  # atno 10764 bound_to 10752
  153.7395  135.3314  155.3278 H   0  0  0  0  0  0  0  0  0  0  0  0  # atno 10765 bound_to 10752
  140.5063  134.0696  155.7806 H   0  0  0  0  0  0  0  0  0  0  0  0  # atno 11005 bound_to 11000
  145.0841  140.9241  143.4807 LP  0  0  0  0  0  0  0  0  0  0  0  0  # atno 17320 bound_to 7965
  145.0839  139.2939  143.5769 LP  0  0  0  0  0  0  0  0  0  0  0  0  # atno 17321 bound_to 7965
  139.5812  144.1705  152.1971 LP  0  0  0  0  0  0  0  0  0  0  0  0  # atno 17342 bound_to 10162
  140.1031  144.5522  150.6976 LP  0  0  0  0  0  0  0  0  0  0  0  0  # atno 17343 bound_to 10162
  156.1689  130.3646  149.9193 LP  0  0  0  0  0  0  0  0  0  0  0  0  # atno 17370 bound_to 10713
  156.7174  130.8993  151.3615 LP  0  0  0  0  0  0  0  0  0  0  0  0  # atno 17371 bound_to 10713
  141.1409  133.9140  157.2328 LP  0  0  0  0  0  0  0  0  0  0  0  0  # atno 17394 bound_to 11000
  139.9684  135.0135  156.9448 LP  0  0  0  0  0  0  0  0  0  0  0  0  # atno 17395 bound_to 11000

$$$$
