AV-unprocessed.smi:2916|AV-procd|sdf|11188|dock8
  -GOLD-   2272016 83D 1   1.00000     0.00000
 Structure written by MMmdl.
 38 39  0  0  0  0  0  0  0  0  2 V2000
  148.8611  141.0165  153.5178 N   0  0  0  0  0  0  0  0  0  0  0  0
  149.4285  140.7712  154.7039 C   0  0  0  0  0  0  0  0  0  0  0  0
  150.5701  140.3204  154.7770 O   0  0  0  0  0  0  0  0  0  0  0  0
  148.6197  141.1163  155.9830 C   0  0  0  0  0  0  0  0  0  0  0  0
  149.3570  142.1798  156.7193 N   0  3  0  0  0  0  0  0  0  0  0  0
  150.8017  141.9736  156.9895 C   0  0  0  0  0  0  0  0  0  0  0  0
  151.4635  143.2763  157.4705 C   0  0  0  0  0  0  0  0  0  0  0  0
  151.4504  143.4144  158.9170 N   0  0  0  0  0  0  0  0  0  0  0  0
  151.0092  144.4821  159.6702 C   0  0  0  0  0  0  0  0  0  0  0  0
  151.2085  144.1639  160.9829 C   0  0  0  0  0  0  0  0  0  0  0  0
  151.7975  142.8697  160.9320 C   0  0  0  0  0  0  0  0  0  0  0  0
  151.9450  142.4264  159.6942 N   0  0  0  0  0  0  0  0  0  0  0  0
  147.2219  141.6943  155.6193 C   0  0  0  0  0  0  0  0  0  0  0  0
  146.2706  140.6599  154.9908 C   0  0  0  0  0  0  0  0  0  0  0  0
  146.0741  139.4614  155.9277 C   0  0  0  0  0  0  0  0  0  0  0  0
  147.4215  138.8311  156.3033 C   0  0  0  0  0  0  0  0  0  0  0  0
  148.3903  139.8737  156.8984 C   0  0  0  0  0  0  0  0  0  0  0  0
  149.3572  140.7775  152.6707 H   0  0  0  0  0  0  0  0  0  0  0  0
  147.9346  141.4142  153.4661 H   0  0  0  0  0  0  0  0  0  0  0  0
  149.2572  143.0394  156.1993 H   0  0  0  0  0  0  0  0  0  0  0  0
  150.9437  141.1980  157.7415 H   0  0  0  0  0  0  0  0  0  0  0  0
  151.3078  141.6332  156.0861 H   0  0  0  0  0  0  0  0  0  0  0  0
  152.5006  143.3153  157.1350 H   0  0  0  0  0  0  0  0  0  0  0  0
  150.9595  144.1385  157.0317 H   0  0  0  0  0  0  0  0  0  0  0  0
  150.5924  145.3690  159.2158 H   0  0  0  0  0  0  0  0  0  0  0  0
  150.9744  144.7664  161.8481 H   0  0  0  0  0  0  0  0  0  0  0  0
  152.1213  142.2448  161.7513 H   0  0  0  0  0  0  0  0  0  0  0  0
  146.7512  142.0831  156.5238 H   0  0  0  0  0  0  0  0  0  0  0  0
  147.3110  142.5546  154.9546 H   0  0  0  0  0  0  0  0  0  0  0  0
  145.3064  141.1246  154.7829 H   0  0  0  0  0  0  0  0  0  0  0  0
  146.6593  140.3206  154.0300 H   0  0  0  0  0  0  0  0  0  0  0  0
  145.5574  139.7854  156.8323 H   0  0  0  0  0  0  0  0  0  0  0  0
  145.4322  138.7176  155.4545 H   0  0  0  0  0  0  0  0  0  0  0  0
  147.2617  138.0267  157.0218 H   0  0  0  0  0  0  0  0  0  0  0  0
  147.8617  138.3634  155.4226 H   0  0  0  0  0  0  0  0  0  0  0  0
  149.3315  139.3723  157.1259 H   0  0  0  0  0  0  0  0  0  0  0  0
  147.9931  140.2051  157.8592 H   0  0  0  0  0  0  0  0  0  0  0  0
  148.9029  142.2977  157.6140 H   0  0  0  0  0  0  0  0  0  0  0  0
  1  2  1  0  0  0  0
  1 18  1  0  0  0  0
  1 19  1  0  0  0  0
  2  3  2  0  0  0  0
  2  4  1  0  0  0  0
  4 17  1  0  0  0  0
  4  5  1  0  0  0  0
  4 13  1  0  0  0  0
  5  6  1  0  0  0  0
  5 20  1  0  0  0  0
  5 38  1  0  0  0  0
  6  7  1  0  0  0  0
  6 21  1  0  0  0  0
  6 22  1  0  0  0  0
  7  8  1  0  0  0  0
  7 23  1  0  0  0  0
  7 24  1  0  0  0  0
  8 12  1  0  0  0  0
  8  9  1  0  0  0  0
  9 10  2  0  0  0  0
  9 25  1  0  0  0  0
 10 11  1  0  0  0  0
 10 26  1  0  0  0  0
 11 12  2  0  0  0  0
 11 27  1  0  0  0  0
 13 14  1  0  0  0  0
 13 28  1  0  0  0  0
 13 29  1  0  0  0  0
 14 15  1  0  0  0  0
 14 30  1  0  0  0  0
 14 31  1  0  0  0  0
 15 16  1  0  0  0  0
 15 32  1  0  0  0  0
 15 33  1  0  0  0  0
 16 17  1  0  0  0  0
 16 34  1  0  0  0  0
 16 35  1  0  0  0  0
 17 36  1  0  0  0  0
 17 37  1  0  0  0  0
M  CHG  1   5   1
M  END
> <s_m_source_file>
AV-unprocessed.smi

> <i_m_source_file_index>
2916

> <i_lp_mmshare_version>
43012

> <i_f3d_flags>
0

> <s_epik_input>
W0NIMl0xW0NIMl1bQ0gyXVtDSDJdW0NIMl1DMShDKD1PKVtOSDJdKVtOSF1bQ0gyXVtDSDJdbjJbY0hdW2NIXVtjSF1uMg==

> <s_epik_cmdline>
J2VwaWtfcHl0aG9uJywgJy1waCcsICc3LjAnLCAnLXRuJywgJzgnLCAnLW1hJywgJzIwMCcsICctbWV0YWxfYmluZGluZycsICctaW1hZScsICc8aW5maWxlLm1hZT4nLCAnLW9tYWUnLCAnPG91dGZpbGUubWFlPic=

> <r_lp_tautomer_probability>
1

> <r_epik_Ionization_Penalty>
0.147888

> <r_epik_Ionization_Penalty_Charging>
0.147883

> <r_epik_Ionization_Penalty_Neutral>
4.65475e-06

> <r_epik_State_Penalty>
0.137176

> <r_epik_Charging_Adjusted_Penalty>
0.285059

> <i_epik_Tot_Q>
1

> <i_epik_Tot_abs_Q>
1

> <r_epik_Metal_State_Penalty>
0.137393

> <b_epik_Metal_Only>
0

> <s_lp_Force_Field>
OPLS_2005

> <r_lp_Energy>
14.4928

> <b_lp_Chiralities_Consistent>
1

> <s_lp_Variant>
AV-unprocessed.smi:2916-1

> <Gold.Version>
5.8.1

> <Gold.Id.Protein>
6NUR|6NUR_protein|mol2

> <Gold.PLP.Fitness>
43.5574

> <Gold.PLP.PLP>
-32.3125

> <Gold.PLP.part.hbond>
-3.0000

> <Gold.PLP.part.metal>
0.0000

> <Gold.PLP.part.buried>
-6.5240

> <Gold.PLP.part.nonpolar>
-23.9879

> <Gold.PLP.part.repulsive>
0.2856

> <Gold.PLP.ligand.clash>
0.0004

> <Gold.PLP.ligand.torsion>
0.3944

> <Gold.PLP.Chemscore.Hbond>
4.0000

> <Gold.PLP.Chemscore.CHOScore>
0.0000

> <Gold.PLP.Chemscore.Metal>
0.0000

> <Gold.Chemscore.Hbonds>
donor molecule, donor type, donor heavy atom, donor atom, acceptor molecule, acceptor atom, score
      L1  H     1    18       P1  7957  1.00
      L1  H     5    20       P1  8028  2.00
      P1  H  7989  7998       L1     3  1.00

> <Gold.PLP.Chemscore.Internal.Correction>
0.0340

> <Gold.Rescore>
     Score         DG    S(hbond)    S(metal)    S(lipo)     H(rot)  DE(clash)    DE(int)     intcor
     15.25     -17.32       2.96        0.00      66.12       2.26       0.03       2.03       ----

> <Gold.Chemscore.Fitness>
15.2545

> <Gold.Chemscore.DG>
-17.3183

> <Gold.Chemscore.ZeroCoef>
-5.4800

> <Gold.Chemscore.Hbond>
2.9619

> <Gold.Chemscore.Metal>
0.0000

> <Gold.Chemscore.Lipo>
66.1194

> <Gold.Chemscore.Internal_Hbond>
0.0000

> <Gold.Chemscore.DEClash>
0.0291

> <Gold.Chemscore.DEInternal>
2.0347

> <Gold.Chemscore.Rot>
2.2619

> <Gold.Chemscore.Internal.Correction>
   9.000000E+99

> <Gold.Chemscore.Hbonds>
donor molecule, donor type, donor heavy atom, donor atom, acceptor molecule, acceptor atom, score
      L1  H     1    18       P1  7957  0.99
      L1  H     5    20       P1  8028  1.00
      P1  H  7989  7998       L1     3  0.84

> <Gold.Chemscore.Hbond.Weighted>
-9.8928

> <Gold.Chemscore.Metal.Weighted>
-0.0000

> <Gold.Chemscore.Lipo.Weighted>
-7.7360

> <Gold.Chemscore.Internal_Hbond.Weighted>
0.0000

> <Gold.Chemscore.DEClash.Weighted>
0.0291

> <Gold.Chemscore.DEInternal.Weighted>
2.0347

> <Gold.Chemscore.Rot.Weighted>
5.7904

> <Gold.Chemscore.Internal.Correction.Weighted>
   9.000000E+99

> <Gold.Protein.RotatedTorsions>
[ 6907 6896 6895 6894 ] final -171.31 input  -60.11 | X-H torsion
[ 7974 7965 7964 7962 ] final    1.79 input  175.53 | X-H torsion
[ 8008 7997 7996 7995 ] final -120.27 input   59.86 | X-H torsion
[ 10167 10162 10161 10158 ] final -169.56 input  -65.29 | X-H torsion
[ 10718 10713 10712 10709 ] final -150.61 input   66.30 | X-H torsion
[ 10763 10752 10751 10750 ] final  174.50 input  -60.55 | X-H torsion
[ 11005 11000 10999 10996 ] final   17.77 input  -57.11 | X-H torsion

> <Gold.Protein.ActiveResidues>
 VAL166  LYS551  ARG553  GLY616  TRP617  ASP618  TYR619  PRO620  LYS621  CYS622 
 ASP623  PHE694  ASN695  SER759  ASP760  ASP761  ALA762  ILE779  LEU786  VAL792 
 PHE793  MET794  SER795  GLU796  ALA797  LYS798  CYS799  TRP800  GLU811  SER814 

> <Gold.Protein.RotatedAtoms>
  151.5217  133.3465  159.2902 H   0  0  0  0  0  0  0  0  0  0  0  0  # atno 6907 bound_to 6896
  150.8648  134.8011  159.7121 H   0  0  0  0  0  0  0  0  0  0  0  0  # atno 6908 bound_to 6896
  152.4656  134.5092  159.9800 H   0  0  0  0  0  0  0  0  0  0  0  0  # atno 6909 bound_to 6896
  146.2442  140.0934  142.8351 H   0  0  0  0  0  0  0  0  0  0  0  0  # atno 7974 bound_to 7965
  155.1291  140.0400  157.2770 H   0  0  0  0  0  0  0  0  0  0  0  0  # atno 8008 bound_to 7997
  154.6556  140.2579  155.7139 H   0  0  0  0  0  0  0  0  0  0  0  0  # atno 8009 bound_to 7997
  156.2597  140.2827  156.1008 H   0  0  0  0  0  0  0  0  0  0  0  0  # atno 8010 bound_to 7997
  139.5915  144.1203  152.1639 H   0  0  0  0  0  0  0  0  0  0  0  0  # atno 10167 bound_to 10162
  156.4484  130.8156  151.2386 H   0  0  0  0  0  0  0  0  0  0  0  0  # atno 10718 bound_to 10713
  154.4548  135.2766  155.1755 H   0  0  0  0  0  0  0  0  0  0  0  0  # atno 10763 bound_to 10752
  154.3567  135.6138  153.5674 H   0  0  0  0  0  0  0  0  0  0  0  0  # atno 10764 bound_to 10752
  152.9850  135.5824  154.4899 H   0  0  0  0  0  0  0  0  0  0  0  0  # atno 10765 bound_to 10752
  140.4322  134.1408  155.7682 H   0  0  0  0  0  0  0  0  0  0  0  0  # atno 11005 bound_to 11000
  145.0631  140.9102  143.4927 LP  0  0  0  0  0  0  0  0  0  0  0  0  # atno 17320 bound_to 7965
  145.1053  139.2794  143.5665 LP  0  0  0  0  0  0  0  0  0  0  0  0  # atno 17321 bound_to 7965
  140.0779  144.5725  150.7144 LP  0  0  0  0  0  0  0  0  0  0  0  0  # atno 17342 bound_to 10162
  140.7177  143.2559  151.4382 LP  0  0  0  0  0  0  0  0  0  0  0  0  # atno 17343 bound_to 10162
  157.7504  131.0146  150.3469 LP  0  0  0  0  0  0  0  0  0  0  0  0  # atno 17370 bound_to 10713
  156.3842  130.3886  149.7078 LP  0  0  0  0  0  0  0  0  0  0  0  0  # atno 17371 bound_to 10713
  141.1741  133.8550  157.1479 LP  0  0  0  0  0  0  0  0  0  0  0  0  # atno 17394 bound_to 11000
  140.0126  134.9981  157.0427 LP  0  0  0  0  0  0  0  0  0  0  0  0  # atno 17395 bound_to 11000

$$$$
