AV-unprocessed.smi:709|AV-procd|sdf|3459|dock2
  -GOLD-   22720 0443D 1   1.00000     0.00000
 Structure written by MMmdl.
 48 50  0  0  0  0  0  0  0  0  1 V2000
  144.6777  133.8310  145.3413 C   0  0  0  0  0  0  0  0  0  0  0  0
  145.7636  134.6330  146.0617 C   0  0  0  0  0  0  0  0  0  0  0  0
  145.1478  135.4726  147.0232 O   0  0  0  0  0  0  0  0  0  0  0  0
  145.7843  136.7344  147.1438 C   0  0  1  0  0  0  0  0  0  0  0  0
  145.4996  137.4685  148.4587 C   0  0  0  0  0  0  0  0  0  0  0  0
  146.9552  137.9311  148.3814 C   0  0  1  0  0  0  0  0  0  0  0  0
  147.5952  138.0120  149.6898 N   0  0  0  0  0  0  0  0  0  0  0  0
  147.6731  139.1288  150.4251 C   0  0  0  0  0  0  0  0  0  0  0  0
  147.1745  140.1994  150.0787 O   0  0  0  0  0  0  0  0  0  0  0  0
  148.3524  138.9075  151.5651 N   0  0  0  0  0  0  0  0  0  0  0  0
  148.7024  139.8141  152.5807 C   0  0  0  0  0  0  0  0  0  0  0  0
  149.9615  139.9882  153.0559 C   0  0  0  0  0  0  0  0  0  0  0  0
  150.2321  140.9346  154.1112 C   0  0  0  0  0  0  0  0  0  0  0  0
  149.2066  141.6304  154.6213 C   0  0  0  0  0  0  0  0  0  0  0  0
  147.8925  141.4568  154.1540 N   0  0  0  0  0  0  0  0  0  0  0  0
  146.8393  142.2623  154.7774 C   0  0  0  0  0  0  0  0  0  0  0  0
  147.5783  140.5790  153.1550 C   0  0  0  0  0  0  0  0  0  0  0  0
  146.4153  140.4456  152.7656 O   0  0  0  0  0  0  0  0  0  0  0  0
  147.2680  136.6403  147.5750 C   0  0  0  0  0  0  0  0  0  0  0  0
  148.3332  136.7386  146.4876 C   0  0  0  0  0  0  0  0  0  0  0  0
  149.6415  136.1924  147.0700 C   0  0  0  0  0  0  0  0  0  0  0  0
  149.2462  135.3391  148.2787 C   0  0  0  0  0  0  0  0  0  0  0  0
  147.7175  135.3836  148.3362 C   0  0  0  0  0  0  0  0  0  0  0  0
  145.1139  133.1657  144.5963 H   0  0  0  0  0  0  0  0  0  0  0  0
  143.9774  134.4926  144.8311 H   0  0  0  0  0  0  0  0  0  0  0  0
  144.1106  133.2206  146.0445 H   0  0  0  0  0  0  0  0  0  0  0  0
  146.4653  133.9548  146.5495 H   0  0  0  0  0  0  0  0  0  0  0  0
  146.3258  135.2286  145.3411 H   0  0  0  0  0  0  0  0  0  0  0  0
  145.6526  137.3696  146.2643 H   0  0  0  0  0  0  0  0  0  0  0  0
  144.7604  138.2666  148.3856 H   0  0  0  0  0  0  0  0  0  0  0  0
  145.2913  136.7938  149.2914 H   0  0  0  0  0  0  0  0  0  0  0  0
  147.0514  138.8397  147.7813 H   0  0  0  0  0  0  0  0  0  0  0  0
  148.0238  137.1700  150.0451 H   0  0  0  0  0  0  0  0  0  0  0  0
  148.6338  137.9538  151.7409 H   0  0  0  0  0  0  0  0  0  0  0  0
  150.7957  139.4190  152.6787 H   0  0  0  0  0  0  0  0  0  0  0  0
  151.2371  141.0794  154.4796 H   0  0  0  0  0  0  0  0  0  0  0  0
  149.3275  142.3574  155.4112 H   0  0  0  0  0  0  0  0  0  0  0  0
  146.0772  141.6207  155.2226 H   0  0  0  0  0  0  0  0  0  0  0  0
  146.3564  142.9003  154.0357 H   0  0  0  0  0  0  0  0  0  0  0  0
  147.2174  142.9120  155.5676 H   0  0  0  0  0  0  0  0  0  0  0  0
  148.0397  136.1335  145.6288 H   0  0  0  0  0  0  0  0  0  0  0  0
  148.4609  137.7583  146.1230 H   0  0  0  0  0  0  0  0  0  0  0  0
  150.1931  135.6146  146.3278 H   0  0  0  0  0  0  0  0  0  0  0  0
  150.2864  137.0116  147.3898 H   0  0  0  0  0  0  0  0  0  0  0  0
  149.6138  134.3158  148.1955 H   0  0  0  0  0  0  0  0  0  0  0  0
  149.6715  135.7646  149.1881 H   0  0  0  0  0  0  0  0  0  0  0  0
  147.3544  135.3492  149.3635 H   0  0  0  0  0  0  0  0  0  0  0  0
  147.3296  134.4905  147.8451 H   0  0  0  0  0  0  0  0  0  0  0  0
  1  2  1  0  0  0  0
  1 24  1  0  0  0  0
  1 25  1  0  0  0  0
  1 26  1  0  0  0  0
  2  3  1  0  0  0  0
  2 27  1  0  0  0  0
  2 28  1  0  0  0  0
  3  4  1  0  0  0  0
  4 19  1  0  0  0  0
  4  5  1  0  0  0  0
  4 29  1  0  0  0  0
  5  6  1  0  0  0  0
  5 30  1  0  0  0  0
  5 31  1  0  0  0  0
  6  7  1  0  0  0  0
  6 19  1  0  0  0  0
  6 32  1  0  0  0  0
  7  8  1  0  0  0  0
  7 33  1  0  0  0  0
  8  9  2  0  0  0  0
  8 10  1  0  0  0  0
 10 11  1  0  0  0  0
 10 34  1  0  0  0  0
 11 17  1  0  0  0  0
 11 12  2  0  0  0  0
 12 13  1  0  0  0  0
 12 35  1  0  0  0  0
 13 14  2  0  0  0  0
 13 36  1  0  0  0  0
 14 15  1  0  0  0  0
 14 37  1  0  0  0  0
 15 16  1  0  0  0  0
 15 17  1  0  0  0  0
 16 38  1  0  0  0  0
 16 39  1  0  0  0  0
 16 40  1  0  0  0  0
 17 18  2  0  0  0  0
 19 23  1  0  0  0  0
 19 20  1  0  0  0  0
 20 21  1  0  0  0  0
 20 41  1  0  0  0  0
 20 42  1  0  0  0  0
 21 22  1  0  0  0  0
 21 43  1  0  0  0  0
 21 44  1  0  0  0  0
 22 23  1  0  0  0  0
 22 45  1  0  0  0  0
 22 46  1  0  0  0  0
 23 47  1  0  0  0  0
 23 48  1  0  0  0  0
M  END
> <s_m_source_file>
AV-unprocessed.smi

> <i_m_source_file_index>
709

> <i_lp_mmshare_version>
43012

> <i_f3d_flags>
0

> <s_epik_input>
W0NIMl0xW0NIMl1bQ0gyXVtDSDJdQzEyW0NASF0oT1tDSDJdW0NIM10pW0NIMl1bQ0BIXTJbTkhdQyg9TylbTkhdYzNbY0hdW2NIXVtjSF1uKFtDSDNdKWMzPU8=

> <s_epik_cmdline>
J2VwaWtfcHl0aG9uJywgJy1waCcsICc3LjAnLCAnLXRuJywgJzgnLCAnLW1hJywgJzIwMCcsICctbWV0YWxfYmluZGluZycsICctaW1hZScsICc8aW5maWxlLm1hZT4nLCAnLW9tYWUnLCAnPG91dGZpbGUubWFlPic=

> <r_lp_tautomer_probability>
1

> <r_epik_Ionization_Penalty>
2.50859e-05

> <r_epik_Ionization_Penalty_Charging>
5.10493e-06

> <r_epik_Ionization_Penalty_Neutral>
1.9981e-05

> <r_epik_State_Penalty>
-0

> <r_epik_Charging_Adjusted_Penalty>
5.10493e-06

> <i_epik_Tot_Q>
0

> <i_epik_Tot_abs_Q>
0

> <r_epik_Metal_State_Penalty>
-0

> <b_epik_Metal_Only>
0

> <s_lp_Force_Field>
OPLS_2005

> <r_lp_Energy>
49.4881

> <b_lp_Chiralities_Consistent>
1

> <s_lp_Variant>
AV-unprocessed.smi:709-2

> <Gold.Version>
5.8.1

> <Gold.Id.Protein>
6NUR|6NUR_protein|mol2

> <Gold.PLP.Fitness>
43.6570

> <Gold.PLP.PLP>
-36.6069

> <Gold.PLP.part.hbond>
-2.0000

> <Gold.PLP.part.metal>
0.0000

> <Gold.PLP.part.buried>
0.1702

> <Gold.PLP.part.nonpolar>
-34.0618

> <Gold.PLP.part.repulsive>
0.0707

> <Gold.PLP.ligand.clash>
0.0000

> <Gold.PLP.ligand.torsion>
1.0923

> <Gold.PLP.Chemscore.Hbond>
1.9600

> <Gold.PLP.Chemscore.CHOScore>
1.0000

> <Gold.PLP.Chemscore.Metal>
0.0000

> <Gold.Chemscore.Hbonds>
donor molecule, donor type, donor heavy atom, donor atom, acceptor molecule, acceptor atom, score
      L1  H     7    33       P1  7948  0.46
      L1  H    10    34       P1  7948  1.00
      L1  C    14    37       P1  8028  1.00

> <Gold.PLP.Chemscore.Internal.Correction>
0.3546

> <Gold.Rescore>
     Score         DG    S(hbond)    S(metal)    S(lipo)     H(rot)  DE(clash)    DE(int)     intcor
     14.23     -17.60       1.83        0.00      81.03       1.36       0.02       3.35       ----

> <Gold.Chemscore.Fitness>
14.2340

> <Gold.Chemscore.DG>
-17.6003

> <Gold.Chemscore.ZeroCoef>
-5.4800

> <Gold.Chemscore.Hbond>
1.8326

> <Gold.Chemscore.Metal>
0.0000

> <Gold.Chemscore.Lipo>
81.0312

> <Gold.Chemscore.Internal_Hbond>
0.0000

> <Gold.Chemscore.DEClash>
0.0159

> <Gold.Chemscore.DEInternal>
3.3503

> <Gold.Chemscore.Rot>
1.3599

> <Gold.Chemscore.Internal.Correction>
   9.000000E+99

> <Gold.Chemscore.Hbonds>
donor molecule, donor type, donor heavy atom, donor atom, acceptor molecule, acceptor atom, score
      L1  H     7    33       P1  7948  0.06
      L1  H    10    34       P1  7948  0.98

> <Gold.Chemscore.Hbond.Weighted>
-6.1209

> <Gold.Chemscore.Metal.Weighted>
-0.0000

> <Gold.Chemscore.Lipo.Weighted>
-9.4807

> <Gold.Chemscore.Internal_Hbond.Weighted>
0.0000

> <Gold.Chemscore.DEClash.Weighted>
0.0159

> <Gold.Chemscore.DEInternal.Weighted>
3.3503

> <Gold.Chemscore.Rot.Weighted>
3.4813

> <Gold.Chemscore.Internal.Correction.Weighted>
   9.000000E+99

> <Gold.Protein.RotatedTorsions>
[ 6907 6896 6895 6894 ] final  127.68 input  -60.11 | X-H torsion
[ 7974 7965 7964 7962 ] final   44.28 input  175.53 | X-H torsion
[ 8008 7997 7996 7995 ] final   -8.74 input   59.86 | X-H torsion
[ 10167 10162 10161 10158 ] final   46.01 input  -65.29 | X-H torsion
[ 10718 10713 10712 10709 ] final -116.66 input   66.30 | X-H torsion
[ 10763 10752 10751 10750 ] final   82.01 input  -60.55 | X-H torsion
[ 11005 11000 10999 10996 ] final  -53.35 input  -57.11 | X-H torsion

> <Gold.Protein.ActiveResidues>
 VAL166  LYS551  ARG553  GLY616  TRP617  ASP618  TYR619  PRO620  LYS621  CYS622 
 ASP623  PHE694  ASN695  SER759  ASP760  ASP761  ALA762  ILE779  LEU786  VAL792 
 PHE793  MET794  SER795  GLU796  ALA797  LYS798  CYS799  TRP800  GLU811  SER814 

> <Gold.Protein.RotatedAtoms>
  152.3790  133.6520  159.6145 H   0  0  0  0  0  0  0  0  0  0  0  0  # atno 6907 bound_to 6896
  150.7726  133.9146  159.3388 H   0  0  0  0  0  0  0  0  0  0  0  0  # atno 6908 bound_to 6896
  151.6955  135.0940  160.0293 H   0  0  0  0  0  0  0  0  0  0  0  0  # atno 6909 bound_to 6896
  146.0582  139.5092  142.9675 H   0  0  0  0  0  0  0  0  0  0  0  0  # atno 7974 bound_to 7965
  154.5712  140.2373  155.8189 H   0  0  0  0  0  0  0  0  0  0  0  0  # atno 8008 bound_to 7997
  156.2108  140.3026  155.9686 H   0  0  0  0  0  0  0  0  0  0  0  0  # atno 8009 bound_to 7997
  155.2709  140.0418  157.2997 H   0  0  0  0  0  0  0  0  0  0  0  0  # atno 8010 bound_to 7997
  140.3183  144.2736  150.6187 H   0  0  0  0  0  0  0  0  0  0  0  0  # atno 10167 bound_to 10162
  156.0979  130.6147  150.9064 H   0  0  0  0  0  0  0  0  0  0  0  0  # atno 10718 bound_to 10713
  153.1166  135.4744  154.9125 H   0  0  0  0  0  0  0  0  0  0  0  0  # atno 10763 bound_to 10752
  154.7534  135.3112  154.8517 H   0  0  0  0  0  0  0  0  0  0  0  0  # atno 10764 bound_to 10752
  153.9092  135.6867  153.4805 H   0  0  0  0  0  0  0  0  0  0  0  0  # atno 10765 bound_to 10752
  141.0971  133.6623  156.4159 H   0  0  0  0  0  0  0  0  0  0  0  0  # atno 11005 bound_to 11000
  145.6606  141.0241  143.1711 LP  0  0  0  0  0  0  0  0  0  0  0  0  # atno 17320 bound_to 7965
  144.7160  139.8197  143.7398 LP  0  0  0  0  0  0  0  0  0  0  0  0  # atno 17321 bound_to 7965
  140.5506  143.2207  151.7933 LP  0  0  0  0  0  0  0  0  0  0  0  0  # atno 17342 bound_to 10162
  139.4879  144.4481  151.9686 LP  0  0  0  0  0  0  0  0  0  0  0  0  # atno 17343 bound_to 10162
  157.6143  131.0934  150.8738 LP  0  0  0  0  0  0  0  0  0  0  0  0  # atno 17370 bound_to 10713
  156.8872  130.5200  149.5288 LP  0  0  0  0  0  0  0  0  0  0  0  0  # atno 17371 bound_to 10713
  140.5112  134.6393  157.5285 LP  0  0  0  0  0  0  0  0  0  0  0  0  # atno 17394 bound_to 11000
  139.9811  134.7135  155.9857 LP  0  0  0  0  0  0  0  0  0  0  0  0  # atno 17395 bound_to 11000

$$$$
