AV-unprocessed.smi:881|AV-procd|sdf|4036|dock1
  -GOLD-   22720 1523D 1   1.00000     0.00000
 Structure written by MMmdl.
 31 32  0  0  0  0  0  0  0  0  2 V2000
  152.6391  139.5915  156.3224 O   0  0  0  0  0  0  0  0  0  0  0  0
  151.4359  139.8444  156.4177 C   0  0  0  0  0  0  0  0  0  0  0  0
  150.4235  139.1426  155.8584 N   0  5  0  0  0  0  0  0  0  0  0  0
  149.5615  139.7526  155.0284 C   0  0  0  0  0  0  0  0  0  0  0  0
  149.7988  140.9702  154.5145 N   0  0  0  0  0  0  0  0  0  0  0  0
  148.7849  141.4169  153.6780 N   0  0  0  0  0  0  0  0  0  0  0  0
  147.8080  140.5161  153.5748 C   0  0  0  0  0  0  0  0  0  0  0  0
  148.0391  139.0396  154.4870 S   0  0  0  0  0  0  0  0  0  0  0  0
  151.0267  140.9039  157.1314 N   0  0  0  0  0  0  0  0  0  0  0  0
  151.8801  141.8524  157.8458 C   0  0  0  0  0  0  0  0  0  0  0  0
  152.1165  141.3423  159.2827 C   0  0  0  0  0  0  0  0  0  0  0  0
  152.9641  142.2641  160.1764 C   0  0  0  0  0  0  0  0  0  0  0  0
  152.1927  143.5059  160.6512 C   0  0  0  0  0  0  0  0  0  0  0  0
  152.2198  144.7073  159.6903 C   0  0  0  0  0  0  0  0  0  0  0  0
  152.1852  144.3853  158.1859 C   0  0  0  0  0  0  0  0  0  0  0  0
  151.2328  143.2511  157.7708 C   0  0  0  0  0  0  0  0  0  0  0  0
  146.9477  140.7209  152.9553 H   0  0  0  0  0  0  0  0  0  0  0  0
  150.0318  141.0662  157.1805 H   0  0  0  0  0  0  0  0  0  0  0  0
  152.8412  141.9026  157.3307 H   0  0  0  0  0  0  0  0  0  0  0  0
  151.1597  141.1438  159.7679 H   0  0  0  0  0  0  0  0  0  0  0  0
  152.6193  140.3759  159.2267 H   0  0  0  0  0  0  0  0  0  0  0  0
  153.2513  141.6916  161.0588 H   0  0  0  0  0  0  0  0  0  0  0  0
  153.8978  142.5415  159.6857 H   0  0  0  0  0  0  0  0  0  0  0  0
  151.1585  143.2300  160.8607 H   0  0  0  0  0  0  0  0  0  0  0  0
  152.6000  143.8329  161.6084 H   0  0  0  0  0  0  0  0  0  0  0  0
  151.3804  145.3584  159.9369 H   0  0  0  0  0  0  0  0  0  0  0  0
  153.1147  145.2990  159.8866 H   0  0  0  0  0  0  0  0  0  0  0  0
  151.8992  145.2959  157.6581 H   0  0  0  0  0  0  0  0  0  0  0  0
  153.1932  144.1590  157.8361 H   0  0  0  0  0  0  0  0  0  0  0  0
  150.9436  143.4331  156.7345 H   0  0  0  0  0  0  0  0  0  0  0  0
  150.3080  143.2892  158.3479 H   0  0  0  0  0  0  0  0  0  0  0  0
  1  2  2  0  0  0  0
  2  3  1  0  0  0  0
  2  9  1  0  0  0  0
  3  4  1  0  0  0  0
  4  8  1  0  0  0  0
  4  5  2  0  0  0  0
  5  6  1  0  0  0  0
  6  7  2  0  0  0  0
  7  8  1  0  0  0  0
  7 17  1  0  0  0  0
  9 10  1  0  0  0  0
  9 18  1  0  0  0  0
 10 16  1  0  0  0  0
 10 11  1  0  0  0  0
 10 19  1  0  0  0  0
 11 12  1  0  0  0  0
 11 20  1  0  0  0  0
 11 21  1  0  0  0  0
 12 13  1  0  0  0  0
 12 22  1  0  0  0  0
 12 23  1  0  0  0  0
 13 14  1  0  0  0  0
 13 24  1  0  0  0  0
 13 25  1  0  0  0  0
 14 15  1  0  0  0  0
 14 26  1  0  0  0  0
 14 27  1  0  0  0  0
 15 16  1  0  0  0  0
 15 28  1  0  0  0  0
 15 29  1  0  0  0  0
 16 30  1  0  0  0  0
 16 31  1  0  0  0  0
M  CHG  1   3  -1
M  END
> <s_m_source_file>
AV-unprocessed.smi

> <i_m_source_file_index>
881

> <i_lp_mmshare_version>
43012

> <i_f3d_flags>
0

> <s_epik_input>
czFbY0hdbm5jMVtOSF1DKD1PKVtOSF1bQ0hdMltDSDJdW0NIMl1bQ0gyXVtDSDJdW0NIMl1bQ0gyXTI=

> <s_epik_cmdline>
J2VwaWtfcHl0aG9uJywgJy1waCcsICc3LjAnLCAnLXRuJywgJzgnLCAnLW1hJywgJzIwMCcsICctbWV0YWxfYmluZGluZycsICctaW1hZScsICc8aW5maWxlLm1hZT4nLCAnLW9tYWUnLCAnPG91dGZpbGUubWFlPic=

> <r_lp_tautomer_probability>
1

> <r_epik_Ionization_Penalty>
4.55263

> <r_epik_Ionization_Penalty_Charging>
4.50588

> <r_epik_Ionization_Penalty_Neutral>
0.0467569

> <r_epik_State_Penalty>
4.50558

> <r_epik_Charging_Adjusted_Penalty>
9.01146

> <i_epik_Tot_Q>
-1

> <i_epik_Tot_abs_Q>
1

> <r_epik_Metal_State_Penalty>
0.822218

> <b_epik_Metal_Only>
1

> <s_lp_Force_Field>
OPLS_2005

> <r_lp_Energy>
12.3928

> <b_lp_Chiralities_Consistent>
1

> <s_lp_Variant>
AV-unprocessed.smi:881-2

> <Gold.Version>
5.8.1

> <Gold.Id.Protein>
6NUR|6NUR_protein|mol2

> <Gold.PLP.Fitness>
38.8898

> <Gold.PLP.PLP>
-33.6789

> <Gold.PLP.part.hbond>
-3.0615

> <Gold.PLP.part.metal>
0.0000

> <Gold.PLP.part.buried>
-3.8716

> <Gold.PLP.part.nonpolar>
-27.7044

> <Gold.PLP.part.repulsive>
1.4158

> <Gold.PLP.ligand.clash>
0.0000

> <Gold.PLP.ligand.torsion>
0.9338

> <Gold.PLP.Chemscore.Hbond>
2.3516

> <Gold.PLP.Chemscore.CHOScore>
0.0000

> <Gold.PLP.Chemscore.Metal>
0.0000

> <Gold.Chemscore.Hbonds>
donor molecule, donor type, donor heavy atom, donor atom, acceptor molecule, acceptor atom, score
      P1  H  7989  7998       L1     5  0.53
      P1  H  7997  8009       L1     1  1.00
      P1  H  8011  8017       L1     6  0.78

> <Gold.PLP.Chemscore.Internal.Correction>
0.0236

> <Gold.Rescore>
     Score         DG    S(hbond)    S(metal)    S(lipo)     H(rot)  DE(clash)    DE(int)     intcor
     18.13     -19.80       1.88        0.00      90.55       1.00       0.76       0.92       ----

> <Gold.Chemscore.Fitness>
18.1252

> <Gold.Chemscore.DG>
-19.8023

> <Gold.Chemscore.ZeroCoef>
-5.4800

> <Gold.Chemscore.Hbond>
1.8827

> <Gold.Chemscore.Metal>
0.0000

> <Gold.Chemscore.Lipo>
90.5474

> <Gold.Chemscore.Internal_Hbond>
0.0000

> <Gold.Chemscore.DEClash>
0.7576

> <Gold.Chemscore.DEInternal>
0.9196

> <Gold.Chemscore.Rot>
1.0000

> <Gold.Chemscore.Internal.Correction>
   9.000000E+99

> <Gold.Chemscore.Hbonds>
donor molecule, donor type, donor heavy atom, donor atom, acceptor molecule, acceptor atom, score
      P1  H  7989  7998       L1     5  0.25
      P1  H  7997  8009       L1     1  0.98
      P1  H  8011  8017       L1     6  0.27

> <Gold.Chemscore.Hbond.Weighted>
-6.2883

> <Gold.Chemscore.Metal.Weighted>
-0.0000

> <Gold.Chemscore.Lipo.Weighted>
-10.5940

> <Gold.Chemscore.Internal_Hbond.Weighted>
0.0000

> <Gold.Chemscore.DEClash.Weighted>
0.7576

> <Gold.Chemscore.DEInternal.Weighted>
0.9196

> <Gold.Chemscore.Rot.Weighted>
2.5600

> <Gold.Chemscore.Internal.Correction.Weighted>
   9.000000E+99

> <Gold.Protein.RotatedTorsions>
[ 6907 6896 6895 6894 ] final -115.54 input  -60.11 | X-H torsion
[ 7974 7965 7964 7962 ] final   -8.58 input  175.53 | X-H torsion
[ 8008 7997 7996 7995 ] final -147.82 input   59.86 | X-H torsion
[ 10167 10162 10161 10158 ] final   14.63 input  -65.29 | X-H torsion
[ 10718 10713 10712 10709 ] final  130.34 input   66.30 | X-H torsion
[ 10763 10752 10751 10750 ] final  -60.92 input  -60.55 | X-H torsion
[ 11005 11000 10999 10996 ] final -109.24 input  -57.11 | X-H torsion

> <Gold.Protein.ActiveResidues>
 VAL166  LYS551  ARG553  GLY616  TRP617  ASP618  TYR619  PRO620  LYS621  CYS622 
 ASP623  PHE694  ASN695  SER759  ASP760  ASP761  ALA762  ILE779  LEU786  VAL792 
 PHE793  MET794  SER795  GLU796  ALA797  LYS798  CYS799  TRP800  GLU811  SER814 

> <Gold.Protein.RotatedAtoms>
  150.7985  133.8644  159.3240 H   0  0  0  0  0  0  0  0  0  0  0  0  # atno 6907 bound_to 6896
  151.6463  135.1005  160.0161 H   0  0  0  0  0  0  0  0  0  0  0  0  # atno 6908 bound_to 6896
  152.4070  133.6865  159.6400 H   0  0  0  0  0  0  0  0  0  0  0  0  # atno 6909 bound_to 6896
  146.2276  140.2489  142.8346 H   0  0  0  0  0  0  0  0  0  0  0  0  # atno 7974 bound_to 7965
  155.5816  140.0644  157.2781 H   0  0  0  0  0  0  0  0  0  0  0  0  # atno 8008 bound_to 7997
  154.4331  140.1851  156.1029 H   0  0  0  0  0  0  0  0  0  0  0  0  # atno 8009 bound_to 7997
  156.0300  140.3307  155.7133 H   0  0  0  0  0  0  0  0  0  0  0  0  # atno 8010 bound_to 7997
  140.5923  143.8771  150.6885 H   0  0  0  0  0  0  0  0  0  0  0  0  # atno 10167 bound_to 10162
  157.5071  131.1096  150.9345 H   0  0  0  0  0  0  0  0  0  0  0  0  # atno 10718 bound_to 10713
  154.2766  135.6280  153.5330 H   0  0  0  0  0  0  0  0  0  0  0  0  # atno 10763 bound_to 10752
  152.9872  135.5623  154.5542 H   0  0  0  0  0  0  0  0  0  0  0  0  # atno 10764 bound_to 10752
  154.5123  135.2877  155.1308 H   0  0  0  0  0  0  0  0  0  0  0  0  # atno 10765 bound_to 10752
  141.0858  133.9141  157.2188 H   0  0  0  0  0  0  0  0  0  0  0  0  # atno 11005 bound_to 11000
  144.9427  140.8095  143.5620 LP  0  0  0  0  0  0  0  0  0  0  0  0  # atno 17320 bound_to 7965
  145.2442  139.2059  143.4977 LP  0  0  0  0  0  0  0  0  0  0  0  0  # atno 17321 bound_to 7965
  140.2297  143.3745  152.1575 LP  0  0  0  0  0  0  0  0  0  0  0  0  # atno 17342 bound_to 10162
  139.5235  144.7072  151.5317 LP  0  0  0  0  0  0  0  0  0  0  0  0  # atno 17343 bound_to 10162
  156.9997  130.5595  149.5310 LP  0  0  0  0  0  0  0  0  0  0  0  0  # atno 17370 bound_to 10713
  156.0265  130.5359  150.8421 LP  0  0  0  0  0  0  0  0  0  0  0  0  # atno 17371 bound_to 10713
  139.9677  135.0137  156.9429 LP  0  0  0  0  0  0  0  0  0  0  0  0  # atno 17394 bound_to 11000
  140.5365  134.0762  155.7330 LP  0  0  0  0  0  0  0  0  0  0  0  0  # atno 17395 bound_to 11000

$$$$
