AV-unprocessed.smi:1012|AV-procd|sdf|4422|dock5
  -GOLD-   22720 2373D 1   1.00000     0.00000
 Structure written by MMmdl.
 43 45  0  0  0  0  0  0  0  0  1 V2000
  150.8603  145.3444  159.9687 C   0  0  0  0  0  0  0  0  0  0  0  0
  150.7829  144.3371  158.9706 O   0  0  0  0  0  0  0  0  0  0  0  0
  151.4504  143.1472  159.1815 C   0  0  0  0  0  0  0  0  0  0  0  0
  152.2162  142.8823  160.3466 C   0  0  0  0  0  0  0  0  0  0  0  0
  152.8762  141.6496  160.5092 C   0  0  0  0  0  0  0  0  0  0  0  0
  152.7814  140.6628  159.5131 C   0  0  0  0  0  0  0  0  0  0  0  0
  152.0258  140.9119  158.3539 C   0  0  0  0  0  0  0  0  0  0  0  0
  151.3639  142.1460  158.1812 C   0  0  0  0  0  0  0  0  0  0  0  0
  150.5530  142.3564  156.9127 C   0  0  0  0  0  0  0  0  0  0  0  0
  150.4550  141.1592  156.1592 O   0  0  0  0  0  0  0  0  0  0  0  0
  149.1164  140.8132  155.8440 C   0  0  0  0  0  0  0  0  0  0  0  0
  149.0962  140.0662  154.5029 C   0  0  2  0  0  0  0  0  0  0  0  0
  149.7431  140.8643  153.5314 O   0  0  0  0  0  0  0  0  0  0  0  0
  147.6667  139.7305  154.0350 C   0  0  0  0  0  0  0  0  0  0  0  0
  146.6634  140.1185  155.0093 N   0  0  0  0  0  0  0  0  0  0  0  0
  146.4226  139.5481  156.2055 C   0  0  0  0  0  0  0  0  0  0  0  0
  145.4489  140.0719  156.9450 N   0  0  0  0  0  0  0  0  0  0  0  0
  145.0061  141.1031  156.1343 C   0  0  0  0  0  0  0  0  0  0  0  0
  143.9813  142.0548  156.3372 C   0  0  0  0  0  0  0  0  0  0  0  0
  143.7039  143.0274  155.3541 C   0  0  0  0  0  0  0  0  0  0  0  0
  142.7185  143.9321  155.5647 F   0  0  0  0  0  0  0  0  0  0  0  0
  144.4459  143.0631  154.1545 C   0  0  0  0  0  0  0  0  0  0  0  0
  144.1723  143.9999  153.2158 F   0  0  0  0  0  0  0  0  0  0  0  0
  145.4723  142.1256  153.9305 C   0  0  0  0  0  0  0  0  0  0  0  0
  145.7450  141.1576  154.9144 C   0  0  0  0  0  0  0  0  0  0  0  0
  150.2909  146.2154  159.6442 H   0  0  0  0  0  0  0  0  0  0  0  0
  151.8895  145.6672  160.1315 H   0  0  0  0  0  0  0  0  0  0  0  0
  150.4325  145.0047  160.9128 H   0  0  0  0  0  0  0  0  0  0  0  0
  152.3146  143.6107  161.1368 H   0  0  0  0  0  0  0  0  0  0  0  0
  153.4558  141.4616  161.4010 H   0  0  0  0  0  0  0  0  0  0  0  0
  153.2862  139.7162  159.6380 H   0  0  0  0  0  0  0  0  0  0  0  0
  151.9541  140.1499  157.5915 H   0  0  0  0  0  0  0  0  0  0  0  0
  149.5553  142.6904  157.2016 H   0  0  0  0  0  0  0  0  0  0  0  0
  150.9810  143.1429  156.2910 H   0  0  0  0  0  0  0  0  0  0  0  0
  148.6834  140.1966  156.6337 H   0  0  0  0  0  0  0  0  0  0  0  0
  148.5180  141.7232  155.7721 H   0  0  0  0  0  0  0  0  0  0  0  0
  149.6725  139.1456  154.6050 H   0  0  0  0  0  0  0  0  0  0  0  0
  149.8119  140.3669  152.7310 H   0  0  0  0  0  0  0  0  0  0  0  0
  147.4445  140.2451  153.0992 H   0  0  0  0  0  0  0  0  0  0  0  0
  147.5682  138.6628  153.8338 H   0  0  0  0  0  0  0  0  0  0  0  0
  146.9967  138.7022  156.5548 H   0  0  0  0  0  0  0  0  0  0  0  0
  143.4070  142.0373  157.2515 H   0  0  0  0  0  0  0  0  0  0  0  0
  146.0436  142.1503  153.0144 H   0  0  0  0  0  0  0  0  0  0  0  0
  1  2  1  0  0  0  0
  1 26  1  0  0  0  0
  1 27  1  0  0  0  0
  1 28  1  0  0  0  0
  2  3  1  0  0  0  0
  3  8  1  0  0  0  0
  3  4  2  0  0  0  0
  4  5  1  0  0  0  0
  4 29  1  0  0  0  0
  5  6  2  0  0  0  0
  5 30  1  0  0  0  0
  6  7  1  0  0  0  0
  6 31  1  0  0  0  0
  7  8  2  0  0  0  0
  7 32  1  0  0  0  0
  8  9  1  0  0  0  0
  9 10  1  0  0  0  0
  9 33  1  0  0  0  0
  9 34  1  0  0  0  0
 10 11  1  0  0  0  0
 11 12  1  0  0  0  0
 11 35  1  0  0  0  0
 11 36  1  0  0  0  0
 12 13  1  0  0  0  0
 12 14  1  0  0  0  0
 12 37  1  0  0  0  0
 13 38  1  0  0  0  0
 14 15  1  0  0  0  0
 14 39  1  0  0  0  0
 14 40  1  0  0  0  0
 15 25  1  0  0  0  0
 15 16  1  0  0  0  0
 16 17  2  0  0  0  0
 16 41  1  0  0  0  0
 17 18  1  0  0  0  0
 18 25  2  0  0  0  0
 18 19  1  0  0  0  0
 19 20  2  0  0  0  0
 19 42  1  0  0  0  0
 20 21  1  0  0  0  0
 20 22  1  0  0  0  0
 22 23  1  0  0  0  0
 22 24  2  0  0  0  0
 24 25  1  0  0  0  0
 24 43  1  0  0  0  0
M  END
> <s_m_source_file>
AV-unprocessed.smi

> <i_m_source_file_index>
1012

> <i_lp_mmshare_version>
43012

> <i_f3d_flags>
0

> <s_epik_input>
W0NIM11PYzFbY0hdW2NIXVtjSF1bY0hdYzFbQ0gyXU9bQ0gyXVtDQEhdKFtPSF0pW0NIMl1uKFtjSF1uMiljKGMyMylbY0hdYyhGKWMoRilbY0hdMw==

> <s_epik_cmdline>
J2VwaWtfcHl0aG9uJywgJy1waCcsICc3LjAnLCAnLXRuJywgJzgnLCAnLW1hJywgJzIwMCcsICctbWV0YWxfYmluZGluZycsICctaW1hZScsICc8aW5maWxlLm1hZT4nLCAnLW9tYWUnLCAnPG91dGZpbGUubWFlPic=

> <r_lp_tautomer_probability>
1

> <r_epik_Ionization_Penalty>
0.0160257

> <r_epik_Ionization_Penalty_Charging>
0

> <r_epik_Ionization_Penalty_Neutral>
0.0160257

> <r_epik_State_Penalty>
0.0126263

> <r_epik_Charging_Adjusted_Penalty>
0.0126263

> <i_epik_Tot_Q>
0

> <i_epik_Tot_abs_Q>
0

> <r_epik_Metal_State_Penalty>
1.27616e-05

> <b_epik_Metal_Only>
0

> <s_lp_Force_Field>
OPLS_2005

> <r_lp_Energy>
17.5186

> <b_lp_Chiralities_Consistent>
1

> <s_lp_Variant>
AV-unprocessed.smi:1012-1

> <Gold.Version>
5.8.1

> <Gold.Id.Protein>
6NUR|6NUR_protein|mol2

> <Gold.PLP.Fitness>
57.5140

> <Gold.PLP.PLP>
-54.7775

> <Gold.PLP.part.hbond>
-2.2636

> <Gold.PLP.part.metal>
0.0000

> <Gold.PLP.part.buried>
-8.4187

> <Gold.PLP.part.nonpolar>
-44.4682

> <Gold.PLP.part.repulsive>
0.1577

> <Gold.PLP.ligand.clash>
0.0682

> <Gold.PLP.ligand.torsion>
1.4832

> <Gold.PLP.Chemscore.Hbond>
1.8780

> <Gold.PLP.Chemscore.CHOScore>
0.0000

> <Gold.PLP.Chemscore.Metal>
0.0000

> <Gold.Chemscore.Hbonds>
donor molecule, donor type, donor heavy atom, donor atom, acceptor molecule, acceptor atom, score
      L1  H    13    38       P1  7957  1.00
      P1  H  7989  7998       L1    13  0.07
      P1  H  8011  8017       L1    13  0.20

> <Gold.PLP.Chemscore.Internal.Correction>
0.1373

> <Gold.Rescore>
     Score         DG    S(hbond)    S(metal)    S(lipo)     H(rot)  DE(clash)    DE(int)     intcor
     13.25     -16.07       1.08        0.00     123.88       2.93       0.02       2.80       ----

> <Gold.Chemscore.Fitness>
13.2518

> <Gold.Chemscore.DG>
-16.0710

> <Gold.Chemscore.ZeroCoef>
-5.4800

> <Gold.Chemscore.Hbond>
1.0799

> <Gold.Chemscore.Metal>
0.0000

> <Gold.Chemscore.Lipo>
123.8775

> <Gold.Chemscore.Internal_Hbond>
0.0000

> <Gold.Chemscore.DEClash>
0.0218

> <Gold.Chemscore.DEInternal>
2.7974

> <Gold.Chemscore.Rot>
2.9335

> <Gold.Chemscore.Internal.Correction>
   9.000000E+99

> <Gold.Chemscore.Hbonds>
donor molecule, donor type, donor heavy atom, donor atom, acceptor molecule, acceptor atom, score
      L1  H    13    38       P1  7957  0.98

> <Gold.Chemscore.Hbond.Weighted>
-3.6070

> <Gold.Chemscore.Metal.Weighted>
-0.0000

> <Gold.Chemscore.Lipo.Weighted>
-14.4937

> <Gold.Chemscore.Internal_Hbond.Weighted>
0.0000

> <Gold.Chemscore.DEClash.Weighted>
0.0218

> <Gold.Chemscore.DEInternal.Weighted>
2.7974

> <Gold.Chemscore.Rot.Weighted>
7.5097

> <Gold.Chemscore.Internal.Correction.Weighted>
   9.000000E+99

> <Gold.Protein.RotatedTorsions>
[ 6907 6896 6895 6894 ] final -109.26 input  -60.11 | X-H torsion
[ 7974 7965 7964 7962 ] final  100.03 input  175.53 | X-H torsion
[ 8008 7997 7996 7995 ] final   61.11 input   59.86 | X-H torsion
[ 10167 10162 10161 10158 ] final    3.70 input  -65.29 | X-H torsion
[ 10718 10713 10712 10709 ] final  -85.73 input   66.30 | X-H torsion
[ 10763 10752 10751 10750 ] final  145.33 input  -60.55 | X-H torsion
[ 11005 11000 10999 10996 ] final  115.66 input  -57.11 | X-H torsion

> <Gold.Protein.ActiveResidues>
 VAL166  LYS551  ARG553  GLY616  TRP617  ASP618  TYR619  PRO620  LYS621  CYS622 
 ASP623  PHE694  ASN695  SER759  ASP760  ASP761  ALA762  ILE779  LEU786  VAL792 
 PHE793  MET794  SER795  GLU796  ALA797  LYS798  CYS799  TRP800  GLU811  SER814 

> <Gold.Protein.RotatedAtoms>
  150.7551  133.9555  159.3498 H   0  0  0  0  0  0  0  0  0  0  0  0  # atno 6907 bound_to 6896
  151.7476  135.0838  160.0335 H   0  0  0  0  0  0  0  0  0  0  0  0  # atno 6908 bound_to 6896
  152.3487  133.6116  159.5965 H   0  0  0  0  0  0  0  0  0  0  0  0  # atno 6909 bound_to 6896
  145.3910  139.2363  143.3352 H   0  0  0  0  0  0  0  0  0  0  0  0  # atno 7974 bound_to 7965
  155.5931  140.3493  155.4572 H   0  0  0  0  0  0  0  0  0  0  0  0  # atno 8008 bound_to 7997
  156.0286  140.1269  157.0307 H   0  0  0  0  0  0  0  0  0  0  0  0  # atno 8009 bound_to 7997
  154.4343  140.1048  156.6053 H   0  0  0  0  0  0  0  0  0  0  0  0  # atno 8010 bound_to 7997
  140.6572  143.7396  150.7675 H   0  0  0  0  0  0  0  0  0  0  0  0  # atno 10167 bound_to 10162
  155.9994  130.4741  150.4607 H   0  0  0  0  0  0  0  0  0  0  0  0  # atno 10718 bound_to 10713
  154.0037  135.2921  155.3400 H   0  0  0  0  0  0  0  0  0  0  0  0  # atno 10763 bound_to 10752
  154.7144  135.5135  153.8719 H   0  0  0  0  0  0  0  0  0  0  0  0  # atno 10764 bound_to 10752
  153.0754  135.6662  154.0275 H   0  0  0  0  0  0  0  0  0  0  0  0  # atno 10765 bound_to 10752
  139.9017  134.9587  156.7078 H   0  0  0  0  0  0  0  0  0  0  0  0  # atno 11005 bound_to 11000
  146.2798  140.4592  142.8781 LP  0  0  0  0  0  0  0  0  0  0  0  0  # atno 17320 bound_to 7965
  144.8440  140.6901  143.6211 LP  0  0  0  0  0  0  0  0  0  0  0  0  # atno 17321 bound_to 7965
  140.1058  143.4745  152.2399 LP  0  0  0  0  0  0  0  0  0  0  0  0  # atno 17342 bound_to 10162
  139.5798  144.7505  151.3670 LP  0  0  0  0  0  0  0  0  0  0  0  0  # atno 17343 bound_to 10162
  157.2632  131.0571  151.2307 LP  0  0  0  0  0  0  0  0  0  0  0  0  # atno 17370 bound_to 10713
  157.3414  130.7035  149.6384 LP  0  0  0  0  0  0  0  0  0  0  0  0  # atno 17371 bound_to 10713
  140.7099  133.9232  155.8078 LP  0  0  0  0  0  0  0  0  0  0  0  0  # atno 17394 bound_to 11000
  141.0308  134.0759  157.4016 LP  0  0  0  0  0  0  0  0  0  0  0  0  # atno 17395 bound_to 11000

$$$$
