AV-unprocessed.smi:2143|AV-procd|sdf|8729|dock2
  -GOLD-   2272011493D 1   1.00000     0.00000
 Structure written by MMmdl.
 44 45  0  0  0  0  0  0  0  0  1 V2000
  153.0769  142.6337  162.7899 C   0  0  0  0  0  0  0  0  0  0  0  0
  152.4917  142.9933  161.4123 C   0  0  1  0  0  0  0  0  0  0  0  0
  152.0907  144.4828  161.3899 C   0  0  0  0  0  0  0  0  0  0  0  0
  151.4865  144.8996  160.0425 C   0  0  0  0  0  0  0  0  0  0  0  0
  152.4533  144.5932  158.8903 C   0  0  0  0  0  0  0  0  0  0  0  0
  152.8721  143.1098  158.8740 C   0  0  2  0  0  0  0  0  0  0  0  0
  151.7490  142.2582  158.4795 N   0  0  0  0  0  0  0  0  0  0  0  0
  150.9881  142.4238  157.3876 C   0  0  0  0  0  0  0  0  0  0  0  0
  151.1399  143.3494  156.5897 O   0  0  0  0  0  0  0  0  0  0  0  0
  149.8691  141.3947  157.1844 C   0  0  0  0  0  0  0  0  0  0  0  0
  150.3204  140.2070  156.4489 N   0  0  0  0  0  0  0  0  0  0  0  0
  151.6032  140.1633  155.9345 C   0  0  0  0  0  0  0  0  0  0  0  0
  152.1003  139.1022  155.2622 C   0  0  0  0  0  0  0  0  0  0  0  0
  151.2884  137.9130  155.0332 C   0  0  0  0  0  0  0  0  0  0  0  0
  151.7088  136.9194  154.4393 O   0  0  0  0  0  0  0  0  0  0  0  0
  149.9762  137.9889  155.5600 N   0  0  0  0  0  0  0  0  0  0  0  0
  149.0906  136.8545  155.3990 C   0  0  0  0  0  0  0  0  0  0  0  0
  149.4678  139.0959  156.2748 C   0  0  0  0  0  0  0  0  0  0  0  0
  148.3247  139.1010  156.7394 O   0  0  0  0  0  0  0  0  0  0  0  0
  153.4587  142.6665  160.2396 C   0  0  2  0  0  0  0  0  0  0  0  0
  153.8911  141.1861  160.2061 C   0  0  0  0  0  0  0  0  0  0  0  0
  154.0302  143.1353  162.9595 H   0  0  0  0  0  0  0  0  0  0  0  0
  153.2378  141.5610  162.8943 H   0  0  0  0  0  0  0  0  0  0  0  0
  152.4000  142.9308  163.5913 H   0  0  0  0  0  0  0  0  0  0  0  0
  151.5834  142.4034  161.2823 H   0  0  0  0  0  0  0  0  0  0  0  0
  151.3732  144.6876  162.1852 H   0  0  0  0  0  0  0  0  0  0  0  0
  152.9643  145.1016  161.5993 H   0  0  0  0  0  0  0  0  0  0  0  0
  150.5417  144.3779  159.8851 H   0  0  0  0  0  0  0  0  0  0  0  0
  151.2514  145.9643  160.0546 H   0  0  0  0  0  0  0  0  0  0  0  0
  152.0019  144.8732  157.9378 H   0  0  0  0  0  0  0  0  0  0  0  0
  153.3430  145.2150  158.9960 H   0  0  0  0  0  0  0  0  0  0  0  0
  153.6622  142.9958  158.1292 H   0  0  0  0  0  0  0  0  0  0  0  0
  151.5458  141.4731  159.0807 H   0  0  0  0  0  0  0  0  0  0  0  0
  149.4496  141.1008  158.1486 H   0  0  0  0  0  0  0  0  0  0  0  0
  149.0546  141.8807  156.6453 H   0  0  0  0  0  0  0  0  0  0  0  0
  152.2465  141.0187  156.0820 H   0  0  0  0  0  0  0  0  0  0  0  0
  153.1143  139.1321  154.8910 H   0  0  0  0  0  0  0  0  0  0  0  0
  148.1168  137.2278  155.0764 H   0  0  0  0  0  0  0  0  0  0  0  0
  149.0272  136.3611  156.3699 H   0  0  0  0  0  0  0  0  0  0  0  0
  149.4678  136.1706  154.6389 H   0  0  0  0  0  0  0  0  0  0  0  0
  154.3659  143.2529  160.3953 H   0  0  0  0  0  0  0  0  0  0  0  0
  153.0322  140.5147  160.1847 H   0  0  0  0  0  0  0  0  0  0  0  0
  154.4960  140.9244  161.0740 H   0  0  0  0  0  0  0  0  0  0  0  0
  154.4971  140.9766  159.3240 H   0  0  0  0  0  0  0  0  0  0  0  0
  1  2  1  0  0  0  0
  1 22  1  0  0  0  0
  1 23  1  0  0  0  0
  1 24  1  0  0  0  0
  2 20  1  0  0  0  0
  2  3  1  0  0  0  0
  2 25  1  0  0  0  0
  3  4  1  0  0  0  0
  3 26  1  0  0  0  0
  3 27  1  0  0  0  0
  4  5  1  0  0  0  0
  4 28  1  0  0  0  0
  4 29  1  0  0  0  0
  5  6  1  0  0  0  0
  5 30  1  0  0  0  0
  5 31  1  0  0  0  0
  6  7  1  0  0  0  0
  6 20  1  0  0  0  0
  6 32  1  0  0  0  0
  7  8  1  0  0  0  0
  7 33  1  0  0  0  0
  8  9  2  0  0  0  0
  8 10  1  0  0  0  0
 10 11  1  0  0  0  0
 10 34  1  0  0  0  0
 10 35  1  0  0  0  0
 11 18  1  0  0  0  0
 11 12  1  0  0  0  0
 12 13  2  0  0  0  0
 12 36  1  0  0  0  0
 13 14  1  0  0  0  0
 13 37  1  0  0  0  0
 14 15  2  0  0  0  0
 14 16  1  0  0  0  0
 16 17  1  0  0  0  0
 16 18  1  0  0  0  0
 17 38  1  0  0  0  0
 17 39  1  0  0  0  0
 17 40  1  0  0  0  0
 18 19  2  0  0  0  0
 20 21  1  0  0  0  0
 20 41  1  0  0  0  0
 21 42  1  0  0  0  0
 21 43  1  0  0  0  0
 21 44  1  0  0  0  0
M  END
> <s_m_source_file>
AV-unprocessed.smi

> <i_m_source_file_index>
2143

> <i_lp_mmshare_version>
43012

> <i_f3d_flags>
0

> <s_epik_input>
W0NIM11bQ0BASF0xW0NIMl1bQ0gyXVtDSDJdW0NASF0oW0NASF0xW0NIM10pW05IXUMoPU8pW0NIMl1uMltjSF1bY0hdYyg9TyluKFtDSDNdKWMyPU8=

> <s_epik_cmdline>
J2VwaWtfcHl0aG9uJywgJy1waCcsICc3LjAnLCAnLXRuJywgJzgnLCAnLW1hJywgJzIwMCcsICctbWV0YWxfYmluZGluZycsICctaW1hZScsICc8aW5maWxlLm1hZT4nLCAnLW9tYWUnLCAnPG91dGZpbGUubWFlPic=

> <r_lp_tautomer_probability>
1

> <r_epik_Ionization_Penalty>
3.18445e-08

> <r_epik_Ionization_Penalty_Charging>
1.27977e-08

> <r_epik_Ionization_Penalty_Neutral>
1.90469e-08

> <r_epik_State_Penalty>
-0

> <r_epik_Charging_Adjusted_Penalty>
1.27977e-08

> <i_epik_Tot_Q>
0

> <i_epik_Tot_abs_Q>
0

> <r_epik_Metal_State_Penalty>
-0

> <b_epik_Metal_Only>
0

> <s_lp_Force_Field>
OPLS_2005

> <r_lp_Energy>
18.9337

> <b_lp_Chiralities_Consistent>
1

> <s_lp_Variant>
AV-unprocessed.smi:2143-8

> <Gold.Version>
5.8.1

> <Gold.Id.Protein>
6NUR|6NUR_protein|mol2

> <Gold.PLP.Fitness>
48.4352

> <Gold.PLP.PLP>
-46.2914

> <Gold.PLP.part.hbond>
-1.0000

> <Gold.PLP.part.metal>
0.0000

> <Gold.PLP.part.buried>
-6.1141

> <Gold.PLP.part.nonpolar>
-42.8730

> <Gold.PLP.part.repulsive>
2.7825

> <Gold.PLP.ligand.clash>
0.0000

> <Gold.PLP.ligand.torsion>
0.4371

> <Gold.PLP.Chemscore.Hbond>
1.0000

> <Gold.PLP.Chemscore.CHOScore>
0.0000

> <Gold.PLP.Chemscore.Metal>
0.0000

> <Gold.Chemscore.Hbonds>
donor molecule, donor type, donor heavy atom, donor atom, acceptor molecule, acceptor atom, score
      P1  H 10752 10764       L1    15  1.00

> <Gold.PLP.Chemscore.Internal.Correction>
0.0180

> <Gold.Rescore>
     Score         DG    S(hbond)    S(metal)    S(lipo)     H(rot)  DE(clash)    DE(int)     intcor
     15.68     -18.61       0.99        0.00     117.15       1.51       1.35       1.58       ----

> <Gold.Chemscore.Fitness>
15.6796

> <Gold.Chemscore.DG>
-18.6145

> <Gold.Chemscore.ZeroCoef>
-5.4800

> <Gold.Chemscore.Hbond>
0.9886

> <Gold.Chemscore.Metal>
0.0000

> <Gold.Chemscore.Lipo>
117.1455

> <Gold.Chemscore.Internal_Hbond>
0.0000

> <Gold.Chemscore.DEClash>
1.3526

> <Gold.Chemscore.DEInternal>
1.5823

> <Gold.Chemscore.Rot>
1.5131

> <Gold.Chemscore.Internal.Correction>
   9.000000E+99

> <Gold.Chemscore.Hbonds>
donor molecule, donor type, donor heavy atom, donor atom, acceptor molecule, acceptor atom, score
      P1  H 10752 10764       L1    15  0.99

> <Gold.Chemscore.Hbond.Weighted>
-3.3019

> <Gold.Chemscore.Metal.Weighted>
-0.0000

> <Gold.Chemscore.Lipo.Weighted>
-13.7060

> <Gold.Chemscore.Internal_Hbond.Weighted>
0.0000

> <Gold.Chemscore.DEClash.Weighted>
1.3526

> <Gold.Chemscore.DEInternal.Weighted>
1.5823

> <Gold.Chemscore.Rot.Weighted>
3.8734

> <Gold.Chemscore.Internal.Correction.Weighted>
   9.000000E+99

> <Gold.Protein.RotatedTorsions>
[ 6907 6896 6895 6894 ] final  -92.60 input  -60.11 | X-H torsion
[ 7974 7965 7964 7962 ] final   77.50 input  175.53 | X-H torsion
[ 8008 7997 7996 7995 ] final  166.48 input   59.86 | X-H torsion
[ 10167 10162 10161 10158 ] final  135.02 input  -65.29 | X-H torsion
[ 10718 10713 10712 10709 ] final  120.64 input   66.30 | X-H torsion
[ 10763 10752 10751 10750 ] final  -84.35 input  -60.55 | X-H torsion
[ 11005 11000 10999 10996 ] final  109.36 input  -57.11 | X-H torsion

> <Gold.Protein.ActiveResidues>
 VAL166  LYS551  ARG553  GLY616  TRP617  ASP618  TYR619  PRO620  LYS621  CYS622 
 ASP623  PHE694  ASN695  SER759  ASP760  ASP761  ALA762  ILE779  LEU786  VAL792 
 PHE793  MET794  SER795  GLU796  ALA797  LYS798  CYS799  TRP800  GLU811  SER814 

> <Gold.Protein.RotatedAtoms>
  150.6908  134.2098  159.4354 H   0  0  0  0  0  0  0  0  0  0  0  0  # atno 6907 bound_to 6896
  152.0060  134.9900  160.0576 H   0  0  0  0  0  0  0  0  0  0  0  0  # atno 6908 bound_to 6896
  152.1534  133.4501  159.4861 H   0  0  0  0  0  0  0  0  0  0  0  0  # atno 6909 bound_to 6896
  145.6893  139.2547  143.1769 H   0  0  0  0  0  0  0  0  0  0  0  0  # atno 7974 bound_to 7965
  156.1715  140.1642  156.8439 H   0  0  0  0  0  0  0  0  0  0  0  0  # atno 8008 bound_to 7997
  154.5261  140.0767  156.8296 H   0  0  0  0  0  0  0  0  0  0  0  0  # atno 8009 bound_to 7997
  155.3503  140.3389  155.4241 H   0  0  0  0  0  0  0  0  0  0  0  0  # atno 8010 bound_to 7997
  139.5233  144.6538  151.5224 H   0  0  0  0  0  0  0  0  0  0  0  0  # atno 10167 bound_to 10162
  157.5876  131.1068  150.8064 H   0  0  0  0  0  0  0  0  0  0  0  0  # atno 10718 bound_to 10713
  154.5985  135.5523  153.7350 H   0  0  0  0  0  0  0  0  0  0  0  0  # atno 10763 bound_to 10752
  153.0145  135.6360  154.1748 H   0  0  0  0  0  0  0  0  0  0  0  0  # atno 10764 bound_to 10752
  154.1688  135.2893  155.3067 H   0  0  0  0  0  0  0  0  0  0  0  0  # atno 10765 bound_to 10752
  139.8860  134.9456  156.6113 H   0  0  0  0  0  0  0  0  0  0  0  0  # atno 11005 bound_to 11000
  146.0896  140.7671  142.9602 LP  0  0  0  0  0  0  0  0  0  0  0  0  # atno 17320 bound_to 7965
  144.7001  140.3616  143.7162 LP  0  0  0  0  0  0  0  0  0  0  0  0  # atno 17321 bound_to 7965
  140.6354  143.8994  150.6643 LP  0  0  0  0  0  0  0  0  0  0  0  0  # atno 17342 bound_to 10162
  140.2311  143.3735  152.1564 LP  0  0  0  0  0  0  0  0  0  0  0  0  # atno 17343 bound_to 10162
  156.8494  130.5075  149.5313 LP  0  0  0  0  0  0  0  0  0  0  0  0  # atno 17370 bound_to 10713
  156.0927  130.5908  150.9760 LP  0  0  0  0  0  0  0  0  0  0  0  0  # atno 17371 bound_to 10713
  140.7809  133.8661  155.8567 LP  0  0  0  0  0  0  0  0  0  0  0  0  # atno 17394 bound_to 11000
  140.9761  134.1467  157.4535 LP  0  0  0  0  0  0  0  0  0  0  0  0  # atno 17395 bound_to 11000

$$$$
