AV-unprocessed.smi:1825|AV-procd|sdf|7414|dock10
  -GOLD-   22720 9 93D 1   1.00000     0.00000
 Structure written by MMmdl.
 33 34  0  0  0  0  0  0  0  0  2 V2000
  144.3983  136.2234  151.6873 O   0  0  0  0  0  0  0  0  0  0  0  0
  145.5974  135.9454  151.7640 C   0  0  0  0  0  0  0  0  0  0  0  0
  146.5058  136.9213  151.9122 N   0  0  0  0  0  0  0  0  0  0  0  0
  146.2375  138.3566  152.0040 C   0  0  0  0  0  0  0  0  0  0  0  0
  147.0901  139.0751  153.0814 C   0  0  0  0  0  0  0  0  0  0  0  0
  148.4209  138.6149  152.9233 O   0  0  0  0  0  0  0  0  0  0  0  0
  147.0949  140.5984  152.8040 C   0  0  0  0  0  0  0  0  0  0  0  0
  147.8570  141.4078  153.8688 C   0  0  0  0  0  0  0  0  0  0  0  0
  147.3216  141.1178  155.2772 C   0  0  0  0  0  0  0  0  0  0  0  0
  147.3816  139.6161  155.5860 C   0  0  0  0  0  0  0  0  0  0  0  0
  146.6203  138.7923  154.5320 C   0  0  0  0  0  0  0  0  0  0  0  0
  146.1347  134.7048  151.7243 N   0  5  0  0  0  0  0  0  0  0  0  0
  145.3725  133.6532  151.3828 C   0  0  0  0  0  0  0  0  0  0  0  0
  144.1017  133.7724  150.9817 N   0  0  0  0  0  0  0  0  0  0  0  0
  143.5016  132.5513  150.6685 C   0  0  0  0  0  0  0  0  0  0  0  0
  144.3377  131.4780  150.8266 C   0  0  0  0  0  0  0  0  0  0  0  0
  145.9128  131.9717  151.3784 S   0  0  0  0  0  0  0  0  0  0  0  0
  147.4731  136.6406  151.9792 H   0  0  0  0  0  0  0  0  0  0  0  0
  146.4173  138.7991  151.0234 H   0  0  0  0  0  0  0  0  0  0  0  0
  145.1774  138.5202  152.2038 H   0  0  0  0  0  0  0  0  0  0  0  0
  148.3925  137.7430  152.5608 H   0  0  0  0  0  0  0  0  0  0  0  0
  147.5156  140.8023  151.8182 H   0  0  0  0  0  0  0  0  0  0  0  0
  146.0660  140.9594  152.7708 H   0  0  0  0  0  0  0  0  0  0  0  0
  148.9210  141.1718  153.8244 H   0  0  0  0  0  0  0  0  0  0  0  0
  147.7710  142.4732  153.6537 H   0  0  0  0  0  0  0  0  0  0  0  0
  147.8985  141.6734  156.0171 H   0  0  0  0  0  0  0  0  0  0  0  0
  146.2918  141.4683  155.3583 H   0  0  0  0  0  0  0  0  0  0  0  0
  148.4218  139.2913  155.6269 H   0  0  0  0  0  0  0  0  0  0  0  0
  146.9627  139.4247  156.5743 H   0  0  0  0  0  0  0  0  0  0  0  0
  145.5563  139.0186  154.6124 H   0  0  0  0  0  0  0  0  0  0  0  0
  146.7243  137.7335  154.7716 H   0  0  0  0  0  0  0  0  0  0  0  0
  142.4737  132.5399  150.3382 H   0  0  0  0  0  0  0  0  0  0  0  0
  144.1262  130.4339  150.6526 H   0  0  0  0  0  0  0  0  0  0  0  0
  1  2  2  0  0  0  0
  2  3  1  0  0  0  0
  2 12  1  0  0  0  0
  3  4  1  0  0  0  0
  3 18  1  0  0  0  0
  4  5  1  0  0  0  0
  4 19  1  0  0  0  0
  4 20  1  0  0  0  0
  5 11  1  0  0  0  0
  5  6  1  0  0  0  0
  5  7  1  0  0  0  0
  6 21  1  0  0  0  0
  7  8  1  0  0  0  0
  7 22  1  0  0  0  0
  7 23  1  0  0  0  0
  8  9  1  0  0  0  0
  8 24  1  0  0  0  0
  8 25  1  0  0  0  0
  9 10  1  0  0  0  0
  9 26  1  0  0  0  0
  9 27  1  0  0  0  0
 10 11  1  0  0  0  0
 10 28  1  0  0  0  0
 10 29  1  0  0  0  0
 11 30  1  0  0  0  0
 11 31  1  0  0  0  0
 12 13  1  0  0  0  0
 13 17  1  0  0  0  0
 13 14  2  0  0  0  0
 14 15  1  0  0  0  0
 15 16  2  0  0  0  0
 15 32  1  0  0  0  0
 16 17  1  0  0  0  0
 16 33  1  0  0  0  0
M  CHG  1  12  -1
M  END
> <s_m_source_file>
AV-unprocessed.smi

> <i_m_source_file_index>
1825

> <i_lp_mmshare_version>
43012

> <i_f3d_flags>
0

> <s_epik_input>
czFbY0hdW2NIXW5jMVtOSF1DKD1PKVtOSF1bQ0gyXUMyKFtPSF0pW0NIMl1bQ0gyXVtDSDJdW0NIMl1bQ0gyXTI=

> <s_epik_cmdline>
J2VwaWtfcHl0aG9uJywgJy1waCcsICc3LjAnLCAnLXRuJywgJzgnLCAnLW1hJywgJzIwMCcsICctbWV0YWxfYmluZGluZycsICctaW1hZScsICc8aW5maWxlLm1hZT4nLCAnLW9tYWUnLCAnPG91dGZpbGUubWFlPic=

> <r_lp_tautomer_probability>
0.999

> <r_epik_Ionization_Penalty>
8.3436

> <r_epik_Ionization_Penalty_Charging>
6.70408

> <r_epik_Ionization_Penalty_Neutral>
1.63952

> <r_epik_State_Penalty>
6.70425

> <r_epik_Charging_Adjusted_Penalty>
13.4083

> <i_epik_Tot_Q>
-1

> <i_epik_Tot_abs_Q>
1

> <r_epik_Metal_State_Penalty>
2.62591

> <b_epik_Metal_Only>
1

> <s_lp_Force_Field>
OPLS_2005

> <r_lp_Energy>
9.48325

> <b_lp_Chiralities_Consistent>
1

> <s_lp_Variant>
AV-unprocessed.smi:1825-2

> <Gold.Version>
5.8.1

> <Gold.Id.Protein>
6NUR|6NUR_protein|mol2

> <Gold.PLP.Fitness>
38.7894

> <Gold.PLP.PLP>
-29.7700

> <Gold.PLP.part.hbond>
-2.9737

> <Gold.PLP.part.metal>
0.0000

> <Gold.PLP.part.buried>
-4.9026

> <Gold.PLP.part.nonpolar>
-23.6220

> <Gold.PLP.part.repulsive>
0.9955

> <Gold.PLP.ligand.clash>
0.0000

> <Gold.PLP.ligand.torsion>
0.3332

> <Gold.PLP.Chemscore.Hbond>
1.9913

> <Gold.PLP.Chemscore.CHOScore>
1.2299

> <Gold.PLP.Chemscore.Metal>
0.0000

> <Gold.Chemscore.Hbonds>
donor molecule, donor type, donor heavy atom, donor atom, acceptor molecule, acceptor atom, score
      L1  H     3    18       P1  7948  0.98
      L1  H     6    21       P1  7948  1.00
      L1  C    15    32       P1 10186  1.00
      L1  C    15    32       P1 10952  0.23

> <Gold.PLP.Chemscore.Internal.Correction>
0.0225

> <Gold.Rescore>
     Score         DG    S(hbond)    S(metal)    S(lipo)     H(rot)  DE(clash)    DE(int)     intcor
     13.17     -15.37       1.95        0.00      68.72       1.83       0.24       1.96       ----

> <Gold.Chemscore.Fitness>
13.1685

> <Gold.Chemscore.DG>
-15.3669

> <Gold.Chemscore.ZeroCoef>
-5.4800

> <Gold.Chemscore.Hbond>
1.9536

> <Gold.Chemscore.Metal>
0.0000

> <Gold.Chemscore.Lipo>
68.7168

> <Gold.Chemscore.Internal_Hbond>
0.0000

> <Gold.Chemscore.DEClash>
0.2416

> <Gold.Chemscore.DEInternal>
1.9569

> <Gold.Chemscore.Rot>
1.8274

> <Gold.Chemscore.Internal.Correction>
   9.000000E+99

> <Gold.Chemscore.Hbonds>
donor molecule, donor type, donor heavy atom, donor atom, acceptor molecule, acceptor atom, score
      L1  H     3    18       P1  7948  0.91
      L1  H     6    21       P1  7948  0.99

> <Gold.Chemscore.Hbond.Weighted>
-6.5252

> <Gold.Chemscore.Metal.Weighted>
-0.0000

> <Gold.Chemscore.Lipo.Weighted>
-8.0399

> <Gold.Chemscore.Internal_Hbond.Weighted>
0.0000

> <Gold.Chemscore.DEClash.Weighted>
0.2416

> <Gold.Chemscore.DEInternal.Weighted>
1.9569

> <Gold.Chemscore.Rot.Weighted>
4.6781

> <Gold.Chemscore.Internal.Correction.Weighted>
   9.000000E+99

> <Gold.Protein.RotatedTorsions>
[ 6907 6896 6895 6894 ] final -100.02 input  -60.11 | X-H torsion
[ 7974 7965 7964 7962 ] final -172.32 input  175.53 | X-H torsion
[ 8008 7997 7996 7995 ] final -108.45 input   59.86 | X-H torsion
[ 10167 10162 10161 10158 ] final   76.98 input  -65.29 | X-H torsion
[ 10718 10713 10712 10709 ] final -172.80 input   66.30 | X-H torsion
[ 10763 10752 10751 10750 ] final   -3.82 input  -60.55 | X-H torsion
[ 11005 11000 10999 10996 ] final  175.39 input  -57.11 | X-H torsion

> <Gold.Protein.ActiveResidues>
 VAL166  LYS551  ARG553  GLY616  TRP617  ASP618  TYR619  PRO620  LYS621  CYS622 
 ASP623  PHE694  ASN695  SER759  ASP760  ASP761  ALA762  ILE779  LEU786  VAL792 
 PHE793  MET794  SER795  GLU796  ALA797  LYS798  CYS799  TRP800  GLU811  SER814 

> <Gold.Protein.RotatedAtoms>
  150.7101  134.0951  159.3945 H   0  0  0  0  0  0  0  0  0  0  0  0  # atno 6907 bound_to 6896
  151.8937  135.0404  160.0509 H   0  0  0  0  0  0  0  0  0  0  0  0  # atno 6908 bound_to 6896
  152.2471  133.5148  159.5340 H   0  0  0  0  0  0  0  0  0  0  0  0  # atno 6909 bound_to 6896
  144.7147  140.1790  143.6360 H   0  0  0  0  0  0  0  0  0  0  0  0  # atno 7974 bound_to 7965
  154.9445  140.0402  157.2113 H   0  0  0  0  0  0  0  0  0  0  0  0  # atno 8008 bound_to 7997
  154.8037  140.2856  155.5881 H   0  0  0  0  0  0  0  0  0  0  0  0  # atno 8009 bound_to 7997
  156.2964  140.2550  156.2910 H   0  0  0  0  0  0  0  0  0  0  0  0  # atno 8010 bound_to 7997
  139.9865  144.5789  150.7855 H   0  0  0  0  0  0  0  0  0  0  0  0  # atno 10167 bound_to 10162
  156.7609  130.9413  151.3118 H   0  0  0  0  0  0  0  0  0  0  0  0  # atno 10718 bound_to 10713
  153.3766  135.6996  153.6597 H   0  0  0  0  0  0  0  0  0  0  0  0  # atno 10763 bound_to 10752
  153.5226  135.3609  155.2639 H   0  0  0  0  0  0  0  0  0  0  0  0  # atno 10764 bound_to 10752
  154.8688  135.4161  154.3055 H   0  0  0  0  0  0  0  0  0  0  0  0  # atno 10765 bound_to 10752
  140.3617  134.7107  157.4335 H   0  0  0  0  0  0  0  0  0  0  0  0  # atno 11005 bound_to 11000
  145.8874  139.2356  143.1569 LP  0  0  0  0  0  0  0  0  0  0  0  0  # atno 17320 bound_to 7965
  145.9936  140.8581  143.0054 LP  0  0  0  0  0  0  0  0  0  0  0  0  # atno 17321 bound_to 7965
  140.7470  143.2900  151.3357 LP  0  0  0  0  0  0  0  0  0  0  0  0  # atno 17342 bound_to 10162
  139.6371  144.0609  152.2525 LP  0  0  0  0  0  0  0  0  0  0  0  0  # atno 17343 bound_to 10162
  157.6735  130.9073  150.0095 LP  0  0  0  0  0  0  0  0  0  0  0  0  # atno 17370 bound_to 10713
  156.1340  130.3643  149.9687 LP  0  0  0  0  0  0  0  0  0  0  0  0  # atno 17371 bound_to 10713
  140.0622  134.5980  155.8736 LP  0  0  0  0  0  0  0  0  0  0  0  0  # atno 17394 bound_to 11000
  141.1982  133.6600  156.5780 LP  0  0  0  0  0  0  0  0  0  0  0  0  # atno 17395 bound_to 11000

$$$$
