AV-unprocessed.smi:1744|AV-procd|sdf|7025|dock1
  -GOLD-   22720 8243D 1   1.00000     0.00000
 Structure written by MMmdl.
 44 45  0  0  0  0  0  0  0  0  2 V2000
  151.3445  144.9837  159.1089 C   0  0  0  0  0  0  0  0  0  0  0  0
  152.3842  143.9204  158.7354 C   0  0  0  0  0  0  0  0  0  0  0  0
  151.7745  142.7837  158.0736 N   0  0  0  0  0  0  0  0  0  0  0  0
  151.0552  142.7678  156.8954 C   0  0  0  0  0  0  0  0  0  0  0  0
  150.7066  141.4669  156.6903 C   0  0  0  0  0  0  0  0  0  0  0  0
  149.9558  140.9965  155.5844 N   0  0  0  0  0  0  0  0  0  0  0  0
  148.8934  140.1760  155.6128 C   0  0  0  0  0  0  0  0  0  0  0  0
  148.3906  139.7009  156.6309 O   0  0  0  0  0  0  0  0  0  0  0  0
  148.4394  139.9254  154.3764 N   0  0  0  0  0  0  0  0  0  0  0  0
  147.3051  139.0650  154.0544 C   0  0  2  0  0  0  0  0  0  0  0  0
  147.5274  137.6398  154.5951 C   0  0  0  0  0  0  0  0  0  0  0  0
  146.3967  136.6928  154.1596 C   0  0  0  0  0  0  0  0  0  0  0  0
  146.2519  136.6765  152.6817 N   0  3  1  0  0  0  0  0  0  0  0  0
  145.2709  135.6622  152.2168 C   0  0  0  0  0  0  0  0  0  0  0  0
  145.5097  135.2182  150.7696 C   0  0  0  0  0  0  0  0  0  0  0  0
  145.2734  136.1213  149.8152 N   0  0  0  0  0  0  0  0  0  0  0  0
  145.8874  134.0765  150.5122 O   0  0  0  0  0  0  0  0  0  0  0  0
  145.9839  138.0383  152.1468 C   0  0  0  0  0  0  0  0  0  0  0  0
  147.1087  139.0134  152.5306 C   0  0  0  0  0  0  0  0  0  0  0  0
  151.2463  140.7416  157.7901 C   0  0  0  0  0  0  0  0  0  0  0  0
  151.8913  141.5480  158.6199 N   0  0  0  0  0  0  0  0  0  0  0  0
  151.8160  145.8251  159.6170 H   0  0  0  0  0  0  0  0  0  0  0  0
  150.5856  144.5745  159.7764 H   0  0  0  0  0  0  0  0  0  0  0  0
  150.8394  145.3707  158.2235 H   0  0  0  0  0  0  0  0  0  0  0  0
  153.1448  144.3453  158.0789 H   0  0  0  0  0  0  0  0  0  0  0  0
  152.8987  143.5676  159.6300 H   0  0  0  0  0  0  0  0  0  0  0  0
  150.8634  143.6616  156.3198 H   0  0  0  0  0  0  0  0  0  0  0  0
  150.2682  141.3083  154.6766 H   0  0  0  0  0  0  0  0  0  0  0  0
  148.9153  140.3622  153.6004 H   0  0  0  0  0  0  0  0  0  0  0  0
  146.4007  139.4811  154.5033 H   0  0  0  0  0  0  0  0  0  0  0  0
  148.4816  137.2517  154.2354 H   0  0  0  0  0  0  0  0  0  0  0  0
  147.5917  137.6541  155.6838 H   0  0  0  0  0  0  0  0  0  0  0  0
  146.6161  135.6871  154.5203 H   0  0  0  0  0  0  0  0  0  0  0  0
  145.4532  136.9956  154.6165 H   0  0  0  0  0  0  0  0  0  0  0  0
  145.3499  134.7662  152.8338 H   0  0  0  0  0  0  0  0  0  0  0  0
  144.2545  136.0396  152.3403 H   0  0  0  0  0  0  0  0  0  0  0  0
  145.4185  135.8859  148.8436 H   0  0  0  0  0  0  0  0  0  0  0  0
  144.9531  137.0450  150.0695 H   0  0  0  0  0  0  0  0  0  0  0  0
  145.8957  138.0066  151.0606 H   0  0  0  0  0  0  0  0  0  0  0  0
  145.0279  138.3998  152.5291 H   0  0  0  0  0  0  0  0  0  0  0  0
  146.8789  140.0092  152.1491 H   0  0  0  0  0  0  0  0  0  0  0  0
  148.0357  138.7028  152.0457 H   0  0  0  0  0  0  0  0  0  0  0  0
  151.1998  139.6870  158.0171 H   0  0  0  0  0  0  0  0  0  0  0  0
  147.1465  136.3861  152.3124 H   0  0  0  0  0  0  0  0  0  0  0  0
  1  2  1  0  0  0  0
  1 22  1  0  0  0  0
  1 23  1  0  0  0  0
  1 24  1  0  0  0  0
  2  3  1  0  0  0  0
  2 25  1  0  0  0  0
  2 26  1  0  0  0  0
  3 21  1  0  0  0  0
  3  4  1  0  0  0  0
  4  5  2  0  0  0  0
  4 27  1  0  0  0  0
  5  6  1  0  0  0  0
  5 20  1  0  0  0  0
  6  7  1  0  0  0  0
  6 28  1  0  0  0  0
  7  8  2  0  0  0  0
  7  9  1  0  0  0  0
  9 10  1  0  0  0  0
  9 29  1  0  0  0  0
 10 19  1  0  0  0  0
 10 11  1  0  0  0  0
 10 30  1  0  0  0  0
 11 12  1  0  0  0  0
 11 31  1  0  0  0  0
 11 32  1  0  0  0  0
 12 13  1  0  0  0  0
 12 33  1  0  0  0  0
 12 34  1  0  0  0  0
 13 14  1  0  0  0  0
 13 18  1  0  0  0  0
 13 44  1  0  0  0  0
 14 15  1  0  0  0  0
 14 35  1  0  0  0  0
 14 36  1  0  0  0  0
 15 16  1  0  0  0  0
 15 17  2  0  0  0  0
 16 37  1  0  0  0  0
 16 38  1  0  0  0  0
 18 19  1  0  0  0  0
 18 39  1  0  0  0  0
 18 40  1  0  0  0  0
 19 41  1  0  0  0  0
 19 42  1  0  0  0  0
 20 21  2  0  0  0  0
 20 43  1  0  0  0  0
M  CHG  1  13   1
M  END
> <s_m_source_file>
AV-unprocessed.smi

> <i_m_source_file_index>
1744

> <i_lp_mmshare_version>
43012

> <i_f3d_flags>
0

> <s_epik_input>
W0NIM11bQ0gyXW4xW2NIXWMoW2NIXW4xKVtOSF1DKD1PKVtOSF1bQ0hdMltDSDJdW0NIMl1OKFtDSDJdW0NIMl0yKVtDSDJdQyg9TylbTkgyXQ==

> <s_epik_cmdline>
J2VwaWtfcHl0aG9uJywgJy1waCcsICc3LjAnLCAnLXRuJywgJzgnLCAnLW1hJywgJzIwMCcsICctbWV0YWxfYmluZGluZycsICctaW1hZScsICc8aW5maWxlLm1hZT4nLCAnLW9tYWUnLCAnPG91dGZpbGUubWFlPic=

> <r_lp_tautomer_probability>
1

> <r_epik_Ionization_Penalty>
0.839033

> <r_epik_Ionization_Penalty_Charging>
0.838844

> <r_epik_Ionization_Penalty_Neutral>
0.000189439

> <r_epik_State_Penalty>
0.8734

> <r_epik_Charging_Adjusted_Penalty>
1.71224

> <i_epik_Tot_Q>
1

> <i_epik_Tot_abs_Q>
1

> <r_epik_Metal_State_Penalty>
0.89072

> <b_epik_Metal_Only>
0

> <s_lp_Force_Field>
OPLS_2005

> <r_lp_Energy>
16.914

> <b_lp_Chiralities_Consistent>
1

> <s_lp_Variant>
AV-unprocessed.smi:1744-2

> <Gold.Version>
5.8.1

> <Gold.Id.Protein>
6NUR|6NUR_protein|mol2

> <Gold.PLP.Fitness>
46.5357

> <Gold.PLP.PLP>
-32.8265

> <Gold.PLP.part.hbond>
-3.0000

> <Gold.PLP.part.metal>
0.0000

> <Gold.PLP.part.buried>
-3.3751

> <Gold.PLP.part.nonpolar>
-27.5898

> <Gold.PLP.part.repulsive>
1.1053

> <Gold.PLP.ligand.clash>
0.0000

> <Gold.PLP.ligand.torsion>
0.6759

> <Gold.PLP.Chemscore.Hbond>
4.0000

> <Gold.PLP.Chemscore.CHOScore>
1.0000

> <Gold.PLP.Chemscore.Metal>
0.0000

> <Gold.Chemscore.Hbonds>
donor molecule, donor type, donor heavy atom, donor atom, acceptor molecule, acceptor atom, score
      L1  H    13    44       P1  7948  2.00
      L1  H    16    37       P1  7921  1.00
      L1  H    16    38       P1 10171  1.00
      L1  C     4    27       P1  8028  1.00

> <Gold.PLP.Chemscore.Internal.Correction>
0.0609

> <Gold.Rescore>
     Score         DG    S(hbond)    S(metal)    S(lipo)     H(rot)  DE(clash)    DE(int)     intcor
     17.21     -18.09       2.90        0.00      73.65       2.22       0.15       0.72       ----

> <Gold.Chemscore.Fitness>
17.2118

> <Gold.Chemscore.DG>
-18.0890

> <Gold.Chemscore.ZeroCoef>
-5.4800

> <Gold.Chemscore.Hbond>
2.8977

> <Gold.Chemscore.Metal>
0.0000

> <Gold.Chemscore.Lipo>
73.6485

> <Gold.Chemscore.Internal_Hbond>
0.0000

> <Gold.Chemscore.DEClash>
0.1523

> <Gold.Chemscore.DEInternal>
0.7249

> <Gold.Chemscore.Rot>
2.2211

> <Gold.Chemscore.Internal.Correction>
   9.000000E+99

> <Gold.Chemscore.Hbonds>
donor molecule, donor type, donor heavy atom, donor atom, acceptor molecule, acceptor atom, score
      L1  H    13    44       P1  7948  1.00
      L1  H    16    37       P1  7921  0.94
      L1  H    16    38       P1 10171  0.95

> <Gold.Chemscore.Hbond.Weighted>
-9.6782

> <Gold.Chemscore.Metal.Weighted>
-0.0000

> <Gold.Chemscore.Lipo.Weighted>
-8.6169

> <Gold.Chemscore.Internal_Hbond.Weighted>
0.0000

> <Gold.Chemscore.DEClash.Weighted>
0.1523

> <Gold.Chemscore.DEInternal.Weighted>
0.7249

> <Gold.Chemscore.Rot.Weighted>
5.6860

> <Gold.Chemscore.Internal.Correction.Weighted>
   9.000000E+99

> <Gold.Protein.RotatedTorsions>
[ 6907 6896 6895 6894 ] final   58.74 input  -60.11 | X-H torsion
[ 7974 7965 7964 7962 ] final   34.01 input  175.53 | X-H torsion
[ 8008 7997 7996 7995 ] final -125.08 input   59.86 | X-H torsion
[ 10167 10162 10161 10158 ] final -153.59 input  -65.29 | X-H torsion
[ 10718 10713 10712 10709 ] final   88.37 input   66.30 | X-H torsion
[ 10763 10752 10751 10750 ] final -123.07 input  -60.55 | X-H torsion
[ 11005 11000 10999 10996 ] final  -89.14 input  -57.11 | X-H torsion

> <Gold.Protein.ActiveResidues>
 VAL166  LYS551  ARG553  GLY616  TRP617  ASP618  TYR619  PRO620  LYS621  CYS622 
 ASP623  PHE694  ASN695  SER759  ASP760  ASP761  ALA762  ILE779  LEU786  VAL792 
 PHE793  MET794  SER795  GLU796  ALA797  LYS798  CYS799  TRP800  GLU811  SER814 

> <Gold.Protein.RotatedAtoms>
  152.3851  134.6529  160.0128 H   0  0  0  0  0  0  0  0  0  0  0  0  # atno 6907 bound_to 6896
  151.6780  133.3307  159.3220 H   0  0  0  0  0  0  0  0  0  0  0  0  # atno 6908 bound_to 6896
  150.7779  134.6741  159.6452 H   0  0  0  0  0  0  0  0  0  0  0  0  # atno 6909 bound_to 6896
  146.1382  139.6323  142.9181 H   0  0  0  0  0  0  0  0  0  0  0  0  # atno 7974 bound_to 7965
  155.2074  140.0418  157.2928 H   0  0  0  0  0  0  0  0  0  0  0  0  # atno 8008 bound_to 7997
  154.6034  140.2458  155.7734 H   0  0  0  0  0  0  0  0  0  0  0  0  # atno 8009 bound_to 7997
  156.2335  140.2930  156.0260 H   0  0  0  0  0  0  0  0  0  0  0  0  # atno 8010 bound_to 7997
  139.7084  143.9149  152.2458 H   0  0  0  0  0  0  0  0  0  0  0  0  # atno 10167 bound_to 10162
  157.6948  131.0292  150.3264 H   0  0  0  0  0  0  0  0  0  0  0  0  # atno 10718 bound_to 10713
  154.8701  135.4111  154.2884 H   0  0  0  0  0  0  0  0  0  0  0  0  # atno 10763 bound_to 10752
  153.3765  135.7010  153.6603 H   0  0  0  0  0  0  0  0  0  0  0  0  # atno 10764 bound_to 10752
  153.5444  135.3641  155.2704 H   0  0  0  0  0  0  0  0  0  0  0  0  # atno 10765 bound_to 10752
  141.1590  133.7612  156.9552 H   0  0  0  0  0  0  0  0  0  0  0  0  # atno 11005 bound_to 11000
  145.5108  141.0435  143.2489 LP  0  0  0  0  0  0  0  0  0  0  0  0  # atno 17320 bound_to 7965
  144.7762  139.6624  143.7173 LP  0  0  0  0  0  0  0  0  0  0  0  0  # atno 17321 bound_to 7965
  139.9011  144.6911  150.8664 LP  0  0  0  0  0  0  0  0  0  0  0  0  # atno 17342 bound_to 10162
  140.7727  143.3513  151.2009 LP  0  0  0  0  0  0  0  0  0  0  0  0  # atno 17343 bound_to 10162
  156.3744  130.3869  149.7150 LP  0  0  0  0  0  0  0  0  0  0  0  0  # atno 17370 bound_to 10713
  156.4554  130.7926  151.2947 LP  0  0  0  0  0  0  0  0  0  0  0  0  # atno 17371 bound_to 10713
  140.1230  134.9404  157.2231 LP  0  0  0  0  0  0  0  0  0  0  0  0  # atno 17394 bound_to 11000
  140.3048  134.3091  155.7281 LP  0  0  0  0  0  0  0  0  0  0  0  0  # atno 17395 bound_to 11000

$$$$
