AV-unprocessed.smi:2181|AV-procd|sdf|8861|dock1
  -GOLD-   2272012 53D 1   1.00000     0.00000
 Structure written by MMmdl.
 38 39  0  0  0  0  0  0  0  0  1 V2000
  149.8751  135.0735  157.0864 C   0  0  0  0  0  0  0  0  0  0  0  0
  150.0948  133.6452  156.6767 C   0  0  0  0  0  0  0  0  0  0  0  0
  150.3910  132.7451  157.5990 N   0  0  0  0  0  0  0  0  0  0  0  0
  150.5204  131.5291  156.9210 O   0  0  0  0  0  0  0  0  0  0  0  0
  150.2928  131.7475  155.6009 C   0  0  0  0  0  0  0  0  0  0  0  0
  150.3750  130.5619  154.6998 C   0  0  0  0  0  0  0  0  0  0  0  0
  150.0180  133.0681  155.3755 C   0  0  0  0  0  0  0  0  0  0  0  0
  149.7017  133.7482  154.0684 C   0  0  0  0  0  0  0  0  0  0  0  0
  148.4389  133.1345  153.4652 C   0  0  0  0  0  0  0  0  0  0  0  0
  148.1063  131.9884  153.7665 O   0  0  0  0  0  0  0  0  0  0  0  0
  147.7446  133.9124  152.6204 N   0  0  0  0  0  0  0  0  0  0  0  0
  146.4884  133.5574  151.9622 C   0  0  2  0  0  0  0  0  0  0  0  0
  146.1819  134.5382  150.8009 C   0  0  0  0  0  0  0  0  0  0  0  0
  144.6960  134.6872  150.4124 C   0  0  0  0  0  0  0  0  0  0  0  0
  143.9561  133.3711  150.0970 C   0  0  0  0  0  0  0  0  0  0  0  0
  143.9926  132.2737  151.1878 C   0  0  0  0  0  0  0  0  0  0  0  0
  144.2161  132.7764  152.5429 N   0  0  0  0  0  0  0  0  0  0  0  0
  145.3470  133.3579  152.9788 C   0  0  0  0  0  0  0  0  0  0  0  0
  145.4649  133.7404  154.1425 O   0  0  0  0  0  0  0  0  0  0  0  0
  148.8352  135.2404  157.3674 H   0  0  0  0  0  0  0  0  0  0  0  0
  150.1124  135.7603  156.2741 H   0  0  0  0  0  0  0  0  0  0  0  0
  150.4983  135.3453  157.9389 H   0  0  0  0  0  0  0  0  0  0  0  0
  149.3823  130.2743  154.3529 H   0  0  0  0  0  0  0  0  0  0  0  0
  150.8159  129.7067  155.2128 H   0  0  0  0  0  0  0  0  0  0  0  0
  150.9878  130.7826  153.8257 H   0  0  0  0  0  0  0  0  0  0  0  0
  149.5609  134.8216  154.2001 H   0  0  0  0  0  0  0  0  0  0  0  0
  150.5191  133.6389  153.3549 H   0  0  0  0  0  0  0  0  0  0  0  0
  148.0955  134.8419  152.4396 H   0  0  0  0  0  0  0  0  0  0  0  0
  146.6508  132.5721  151.5230 H   0  0  0  0  0  0  0  0  0  0  0  0
  146.5517  135.5313  151.0601 H   0  0  0  0  0  0  0  0  0  0  0  0
  146.7532  134.2335  149.9231 H   0  0  0  0  0  0  0  0  0  0  0  0
  144.1659  135.2169  151.2052 H   0  0  0  0  0  0  0  0  0  0  0  0
  144.6275  135.3423  149.5433 H   0  0  0  0  0  0  0  0  0  0  0  0
  142.9135  133.6219  149.8981 H   0  0  0  0  0  0  0  0  0  0  0  0
  144.3367  132.9531  149.1644 H   0  0  0  0  0  0  0  0  0  0  0  0
  143.0531  131.7206  151.1779 H   0  0  0  0  0  0  0  0  0  0  0  0
  144.7603  131.5365  150.9504 H   0  0  0  0  0  0  0  0  0  0  0  0
  143.4615  132.6590  153.2038 H   0  0  0  0  0  0  0  0  0  0  0  0
  1  2  1  0  0  0  0
  1 20  1  0  0  0  0
  1 21  1  0  0  0  0
  1 22  1  0  0  0  0
  2  7  1  0  0  0  0
  2  3  2  0  0  0  0
  3  4  1  0  0  0  0
  4  5  1  0  0  0  0
  5  6  1  0  0  0  0
  5  7  2  0  0  0  0
  6 23  1  0  0  0  0
  6 24  1  0  0  0  0
  6 25  1  0  0  0  0
  7  8  1  0  0  0  0
  8  9  1  0  0  0  0
  8 26  1  0  0  0  0
  8 27  1  0  0  0  0
  9 10  2  0  0  0  0
  9 11  1  0  0  0  0
 11 12  1  0  0  0  0
 11 28  1  0  0  0  0
 12 18  1  0  0  0  0
 12 13  1  0  0  0  0
 12 29  1  0  0  0  0
 13 14  1  0  0  0  0
 13 30  1  0  0  0  0
 13 31  1  0  0  0  0
 14 15  1  0  0  0  0
 14 32  1  0  0  0  0
 14 33  1  0  0  0  0
 15 16  1  0  0  0  0
 15 34  1  0  0  0  0
 15 35  1  0  0  0  0
 16 17  1  0  0  0  0
 16 36  1  0  0  0  0
 16 37  1  0  0  0  0
 17 18  1  0  0  0  0
 17 38  1  0  0  0  0
 18 19  2  0  0  0  0
M  END
> <s_m_source_file>
AV-unprocessed.smi

> <i_m_source_file_index>
2181

> <i_lp_mmshare_version>
43012

> <i_f3d_flags>
0

> <s_epik_input>
W0NIM11jMW5vYyhbQ0gzXSljMVtDSDJdQyg9TylbTkhdW0NAQEhdMltDSDJdW0NIMl1bQ0gyXVtDSDJdW05IXUMyPU8=

> <s_epik_cmdline>
J2VwaWtfcHl0aG9uJywgJy1waCcsICc3LjAnLCAnLXRuJywgJzgnLCAnLW1hJywgJzIwMCcsICctbWV0YWxfYmluZGluZycsICctaW1hZScsICc8aW5maWxlLm1hZT4nLCAnLW9tYWUnLCAnPG91dGZpbGUubWFlPic=

> <r_lp_tautomer_probability>
1

> <r_epik_Ionization_Penalty>
5.91376e-08

> <r_epik_Ionization_Penalty_Charging>
0

> <r_epik_Ionization_Penalty_Neutral>
5.91376e-08

> <r_epik_State_Penalty>
-0

> <r_epik_Charging_Adjusted_Penalty>
0

> <i_epik_Tot_Q>
0

> <i_epik_Tot_abs_Q>
0

> <r_epik_Metal_State_Penalty>
-0

> <b_epik_Metal_Only>
0

> <s_lp_Force_Field>
OPLS_2005

> <r_lp_Energy>
8.47239

> <b_lp_Chiralities_Consistent>
1

> <s_lp_Variant>
AV-unprocessed.smi:2181-1

> <Gold.Version>
5.8.1

> <Gold.Id.Protein>
6NUR|6NUR_protein|mol2

> <Gold.PLP.Fitness>
36.2351

> <Gold.PLP.PLP>
-28.0566

> <Gold.PLP.part.hbond>
-3.0000

> <Gold.PLP.part.metal>
0.0000

> <Gold.PLP.part.buried>
-1.5377

> <Gold.PLP.part.nonpolar>
-22.7081

> <Gold.PLP.part.repulsive>
0.1890

> <Gold.PLP.ligand.clash>
0.0000

> <Gold.PLP.ligand.torsion>
0.4429

> <Gold.PLP.Chemscore.Hbond>
3.0000

> <Gold.PLP.Chemscore.CHOScore>
0.0000

> <Gold.PLP.Chemscore.Metal>
0.0000

> <Gold.Chemscore.Hbonds>
donor molecule, donor type, donor heavy atom, donor atom, acceptor molecule, acceptor atom, score
      L1  H    11    28       P1  7948  1.00
      L1  H    17    38       P1 10957  1.00
      P1  H  6896  6907       L1     3  1.00

> <Gold.PLP.Chemscore.Internal.Correction>
0.0642

> <Gold.Rescore>
     Score         DG    S(hbond)    S(metal)    S(lipo)     H(rot)  DE(clash)    DE(int)     intcor
     14.38     -17.23       2.53        0.00      61.01       1.49       0.05       2.80       ----

> <Gold.Chemscore.Fitness>
14.3833

> <Gold.Chemscore.DG>
-17.2337

> <Gold.Chemscore.ZeroCoef>
-5.4800

> <Gold.Chemscore.Hbond>
2.5276

> <Gold.Chemscore.Metal>
0.0000

> <Gold.Chemscore.Lipo>
61.0139

> <Gold.Chemscore.Internal_Hbond>
0.0000

> <Gold.Chemscore.DEClash>
0.0533

> <Gold.Chemscore.DEInternal>
2.7971

> <Gold.Chemscore.Rot>
1.4949

> <Gold.Chemscore.Internal.Correction>
   9.000000E+99

> <Gold.Chemscore.Hbonds>
donor molecule, donor type, donor heavy atom, donor atom, acceptor molecule, acceptor atom, score
      L1  H    11    28       P1  7948  0.60
      L1  H    17    38       P1 10957  0.28
      P1  H  6896  6907       L1     3  0.90

> <Gold.Chemscore.Hbond.Weighted>
-8.4420

> <Gold.Chemscore.Metal.Weighted>
-0.0000

> <Gold.Chemscore.Lipo.Weighted>
-7.1386

> <Gold.Chemscore.Internal_Hbond.Weighted>
0.0000

> <Gold.Chemscore.DEClash.Weighted>
0.0533

> <Gold.Chemscore.DEInternal.Weighted>
2.7971

> <Gold.Chemscore.Rot.Weighted>
3.8269

> <Gold.Chemscore.Internal.Correction.Weighted>
   9.000000E+99

> <Gold.Protein.RotatedTorsions>
[ 6907 6896 6895 6894 ] final -150.28 input  -60.11 | X-H torsion
[ 7974 7965 7964 7962 ] final   55.71 input  175.53 | X-H torsion
[ 8008 7997 7996 7995 ] final   66.37 input   59.86 | X-H torsion
[ 10167 10162 10161 10158 ] final  117.81 input  -65.29 | X-H torsion
[ 10718 10713 10712 10709 ] final -137.67 input   66.30 | X-H torsion
[ 10763 10752 10751 10750 ] final  153.09 input  -60.55 | X-H torsion
[ 11005 11000 10999 10996 ] final  -55.07 input  -57.11 | X-H torsion

> <Gold.Protein.ActiveResidues>
 VAL166  LYS551  ARG553  GLY616  TRP617  ASP618  TYR619  PRO620  LYS621  CYS622 
 ASP623  PHE694  ASN695  SER759  ASP760  ASP761  ALA762  ILE779  LEU786  VAL792 
 PHE793  MET794  SER795  GLU796  ALA797  LYS798  CYS799  TRP800  GLU811  SER814 

> <Gold.Protein.RotatedAtoms>
  151.1962  133.4638  159.2595 H   0  0  0  0  0  0  0  0  0  0  0  0  # atno 6907 bound_to 6896
  151.1114  135.0029  159.8506 H   0  0  0  0  0  0  0  0  0  0  0  0  # atno 6908 bound_to 6896
  152.5450  134.1881  159.8716 H   0  0  0  0  0  0  0  0  0  0  0  0  # atno 6909 bound_to 6896
  145.9476  139.3943  143.0326 H   0  0  0  0  0  0  0  0  0  0  0  0  # atno 7974 bound_to 7965
  155.6762  140.3497  155.4837 H   0  0  0  0  0  0  0  0  0  0  0  0  # atno 8008 bound_to 7997
  155.9646  140.1144  157.0889 H   0  0  0  0  0  0  0  0  0  0  0  0  # atno 8009 bound_to 7997
  154.4151  140.1169  156.5210 H   0  0  0  0  0  0  0  0  0  0  0  0  # atno 8010 bound_to 7997
  139.6154  144.7091  151.2752 H   0  0  0  0  0  0  0  0  0  0  0  0  # atno 10167 bound_to 10162
  156.2907  130.7373  151.1398 H   0  0  0  0  0  0  0  0  0  0  0  0  # atno 10718 bound_to 10713
  154.1306  135.2827  155.3186 H   0  0  0  0  0  0  0  0  0  0  0  0  # atno 10763 bound_to 10752
  154.6358  135.5419  153.7736 H   0  0  0  0  0  0  0  0  0  0  0  0  # atno 10764 bound_to 10752
  153.0282  135.6474  154.1456 H   0  0  0  0  0  0  0  0  0  0  0  0  # atno 10765 bound_to 10752
  141.1056  133.6613  156.4414 H   0  0  0  0  0  0  0  0  0  0  0  0  # atno 11005 bound_to 11000
  145.8215  140.9676  143.0896 LP  0  0  0  0  0  0  0  0  0  0  0  0  # atno 17320 bound_to 7965
  144.6790  140.0048  143.7484 LP  0  0  0  0  0  0  0  0  0  0  0  0  # atno 17321 bound_to 7965
  140.7347  143.6758  150.8043 LP  0  0  0  0  0  0  0  0  0  0  0  0  # atno 17342 bound_to 10162
  140.0360  143.5395  152.2739 LP  0  0  0  0  0  0  0  0  0  0  0  0  # atno 17343 bound_to 10162
  157.7341  131.0584  150.5540 LP  0  0  0  0  0  0  0  0  0  0  0  0  # atno 17370 bound_to 10713
  156.5656  130.4266  149.6043 LP  0  0  0  0  0  0  0  0  0  0  0  0  # atno 17371 bound_to 10713
  140.4910  134.6575  157.5211 LP  0  0  0  0  0  0  0  0  0  0  0  0  # atno 17394 bound_to 11000
  139.9925  134.6963  155.9665 LP  0  0  0  0  0  0  0  0  0  0  0  0  # atno 17395 bound_to 11000

$$$$
