AV-unprocessed.smi:1394|AV-procd|sdf|5665|dock6
  -GOLD-   22720 5283D 1   1.00000     0.00000
 Structure written by MMmdl.
 41 42  0  0  0  0  0  0  0  0  1 V2000
  147.1836  141.7838  157.7772 C   0  0  0  0  0  0  0  0  0  0  0  0
  147.5393  141.8135  156.2796 C   0  0  2  0  0  0  0  0  0  0  0  0
  146.5806  140.9100  155.4776 C   0  0  0  0  0  0  0  0  0  0  0  0
  146.9018  140.9243  153.9758 C   0  0  0  0  0  0  0  0  0  0  0  0
  148.3583  140.5140  153.7221 C   0  0  0  0  0  0  0  0  0  0  0  0
  149.3274  141.4158  154.5002 C   0  0  0  0  0  0  0  0  0  0  0  0
  149.0147  141.4228  156.0121 C   0  0  1  0  0  0  0  0  0  0  0  0
  149.9138  142.3475  156.6991 N   0  0  0  0  0  0  0  0  0  0  0  0
  150.9731  141.9986  157.4444 C   0  0  0  0  0  0  0  0  0  0  0  0
  151.3221  140.8298  157.6173 O   0  0  0  0  0  0  0  0  0  0  0  0
  151.7573  143.1609  158.0706 C   0  0  0  0  0  0  0  0  0  0  0  0
  152.3404  142.8415  159.3852 N   0  0  0  0  0  0  0  0  0  0  0  0
  151.9178  143.6245  160.4742 C   0  0  0  0  0  0  0  0  0  0  0  0
  152.3805  143.4167  161.7142 C   0  0  0  0  0  0  0  0  0  0  0  0
  153.3364  142.3555  161.9166 C   0  0  0  0  0  0  0  0  0  0  0  0
  153.7666  141.5894  160.8874 C   0  0  0  0  0  0  0  0  0  0  0  0
  154.7719  140.4572  161.0860 C   0  0  0  0  0  0  0  0  0  0  0  0
  154.2475  139.2903  160.7091 F   0  0  0  0  0  0  0  0  0  0  0  0
  155.8695  140.6744  160.3605 F   0  0  0  0  0  0  0  0  0  0  0  0
  155.1427  140.3426  162.3624 F   0  0  0  0  0  0  0  0  0  0  0  0
  153.2531  141.8301  159.5232 C   0  0  0  0  0  0  0  0  0  0  0  0
  153.6183  141.1631  158.5535 O   0  0  0  0  0  0  0  0  0  0  0  0
  147.3368  140.7904  158.1998 H   0  0  0  0  0  0  0  0  0  0  0  0
  146.1399  142.0549  157.9366 H   0  0  0  0  0  0  0  0  0  0  0  0
  147.7893  142.4859  158.3505 H   0  0  0  0  0  0  0  0  0  0  0  0
  147.3927  142.8372  155.9303 H   0  0  0  0  0  0  0  0  0  0  0  0
  146.6411  139.8867  155.8507 H   0  0  0  0  0  0  0  0  0  0  0  0
  145.5501  141.2323  155.6300 H   0  0  0  0  0  0  0  0  0  0  0  0
  146.2277  140.2518  153.4445 H   0  0  0  0  0  0  0  0  0  0  0  0
  146.7258  141.9220  153.5719 H   0  0  0  0  0  0  0  0  0  0  0  0
  148.5042  139.4752  154.0206 H   0  0  0  0  0  0  0  0  0  0  0  0
  148.5787  140.5641  152.6555 H   0  0  0  0  0  0  0  0  0  0  0  0
  150.3506  141.0792  154.3284 H   0  0  0  0  0  0  0  0  0  0  0  0
  149.2682  142.4316  154.1067 H   0  0  0  0  0  0  0  0  0  0  0  0
  149.1739  140.4164  156.4049 H   0  0  0  0  0  0  0  0  0  0  0  0
  149.7046  143.3312  156.6083 H   0  0  0  0  0  0  0  0  0  0  0  0
  152.5380  143.4589  157.3694 H   0  0  0  0  0  0  0  0  0  0  0  0
  151.1029  144.0310  158.1516 H   0  0  0  0  0  0  0  0  0  0  0  0
  151.2052  144.4010  160.2364 H   0  0  0  0  0  0  0  0  0  0  0  0
  152.0477  144.0284  162.5399 H   0  0  0  0  0  0  0  0  0  0  0  0
  153.7056  142.1822  162.9164 H   0  0  0  0  0  0  0  0  0  0  0  0
  1  2  1  0  0  0  0
  1 23  1  0  0  0  0
  1 24  1  0  0  0  0
  1 25  1  0  0  0  0
  2  7  1  0  0  0  0
  2  3  1  0  0  0  0
  2 26  1  0  0  0  0
  3  4  1  0  0  0  0
  3 27  1  0  0  0  0
  3 28  1  0  0  0  0
  4  5  1  0  0  0  0
  4 29  1  0  0  0  0
  4 30  1  0  0  0  0
  5  6  1  0  0  0  0
  5 31  1  0  0  0  0
  5 32  1  0  0  0  0
  6  7  1  0  0  0  0
  6 33  1  0  0  0  0
  6 34  1  0  0  0  0
  7  8  1  0  0  0  0
  7 35  1  0  0  0  0
  8  9  1  0  0  0  0
  8 36  1  0  0  0  0
  9 10  2  0  0  0  0
  9 11  1  0  0  0  0
 11 12  1  0  0  0  0
 11 37  1  0  0  0  0
 11 38  1  0  0  0  0
 12 21  1  0  0  0  0
 12 13  1  0  0  0  0
 13 14  2  0  0  0  0
 13 39  1  0  0  0  0
 14 15  1  0  0  0  0
 14 40  1  0  0  0  0
 15 16  2  0  0  0  0
 15 41  1  0  0  0  0
 16 17  1  0  0  0  0
 16 21  1  0  0  0  0
 17 18  1  0  0  0  0
 17 19  1  0  0  0  0
 17 20  1  0  0  0  0
 21 22  2  0  0  0  0
M  END
> <s_m_source_file>
AV-unprocessed.smi

> <i_m_source_file_index>
1394

> <i_lp_mmshare_version>
43012

> <i_f3d_flags>
0

> <s_epik_input>
W0NIM11bQ0BASF0xW0NIMl1bQ0gyXVtDSDJdW0NIMl1bQ0BIXTFbTkhdQyg9TylbQ0gyXW4yW2NIXVtjSF1bY0hdYyhDKEYpKEYpRiljMj1P

> <s_epik_cmdline>
J2VwaWtfcHl0aG9uJywgJy1waCcsICc3LjAnLCAnLXRuJywgJzgnLCAnLW1hJywgJzIwMCcsICctbWV0YWxfYmluZGluZycsICctaW1hZScsICc8aW5maWxlLm1hZT4nLCAnLW9tYWUnLCAnPG91dGZpbGUubWFlPic=

> <r_lp_tautomer_probability>
1

> <r_epik_Ionization_Penalty>
2.11487e-08

> <r_epik_Ionization_Penalty_Charging>
2.10183e-09

> <r_epik_Ionization_Penalty_Neutral>
1.90469e-08

> <r_epik_State_Penalty>
-0

> <r_epik_Charging_Adjusted_Penalty>
2.10183e-09

> <i_epik_Tot_Q>
0

> <i_epik_Tot_abs_Q>
0

> <r_epik_Metal_State_Penalty>
-0

> <b_epik_Metal_Only>
0

> <s_lp_Force_Field>
OPLS_2005

> <r_lp_Energy>
20.2228

> <b_lp_Chiralities_Consistent>
1

> <s_lp_Variant>
AV-unprocessed.smi:1394-1

> <Gold.Version>
5.8.1

> <Gold.Id.Protein>
6NUR|6NUR_protein|mol2

> <Gold.PLP.Fitness>
48.8251

> <Gold.PLP.PLP>
-45.7603

> <Gold.PLP.part.hbond>
-2.0000

> <Gold.PLP.part.metal>
0.0000

> <Gold.PLP.part.buried>
-1.2820

> <Gold.PLP.part.nonpolar>
-42.6108

> <Gold.PLP.part.repulsive>
0.0280

> <Gold.PLP.ligand.clash>
0.3264

> <Gold.PLP.ligand.torsion>
0.5413

> <Gold.PLP.Chemscore.Hbond>
1.3793

> <Gold.PLP.Chemscore.CHOScore>
0.0000

> <Gold.PLP.Chemscore.Metal>
0.0000

> <Gold.Chemscore.Hbonds>
donor molecule, donor type, donor heavy atom, donor atom, acceptor molecule, acceptor atom, score
      L1  H     8    36       P1  8028  0.99
      P1  H  7997  8009       L1    22  0.35

> <Gold.PLP.Chemscore.Internal.Correction>
0.3362

> <Gold.Rescore>
     Score         DG    S(hbond)    S(metal)    S(lipo)     H(rot)  DE(clash)    DE(int)     intcor
     10.93     -17.86       1.53        0.00      95.39       1.52       1.21       5.72       ----

> <Gold.Chemscore.Fitness>
10.9310

> <Gold.Chemscore.DG>
-17.8649

> <Gold.Chemscore.ZeroCoef>
-5.4800

> <Gold.Chemscore.Hbond>
1.5348

> <Gold.Chemscore.Metal>
0.0000

> <Gold.Chemscore.Lipo>
95.3902

> <Gold.Chemscore.Internal_Hbond>
0.0000

> <Gold.Chemscore.DEClash>
1.2145

> <Gold.Chemscore.DEInternal>
5.7194

> <Gold.Chemscore.Rot>
1.5242

> <Gold.Chemscore.Internal.Correction>
   9.000000E+99

> <Gold.Chemscore.Hbonds>
donor molecule, donor type, donor heavy atom, donor atom, acceptor molecule, acceptor atom, score
      L1  H     8    36       P1  8028  0.94
      P1  H  7997  8009       L1    22  0.35

> <Gold.Chemscore.Hbond.Weighted>
-5.1262

> <Gold.Chemscore.Metal.Weighted>
-0.0000

> <Gold.Chemscore.Lipo.Weighted>
-11.1607

> <Gold.Chemscore.Internal_Hbond.Weighted>
0.0000

> <Gold.Chemscore.DEClash.Weighted>
1.2145

> <Gold.Chemscore.DEInternal.Weighted>
5.7194

> <Gold.Chemscore.Rot.Weighted>
3.9019

> <Gold.Chemscore.Internal.Correction.Weighted>
   9.000000E+99

> <Gold.Protein.RotatedTorsions>
[ 6907 6896 6895 6894 ] final   71.75 input  -60.11 | X-H torsion
[ 7974 7965 7964 7962 ] final   98.84 input  175.53 | X-H torsion
[ 8008 7997 7996 7995 ] final  148.54 input   59.86 | X-H torsion
[ 10167 10162 10161 10158 ] final  -49.41 input  -65.29 | X-H torsion
[ 10718 10713 10712 10709 ] final  177.67 input   66.30 | X-H torsion
[ 10763 10752 10751 10750 ] final  148.40 input  -60.55 | X-H torsion
[ 11005 11000 10999 10996 ] final  156.27 input  -57.11 | X-H torsion

> <Gold.Protein.ActiveResidues>
 VAL166  LYS551  ARG553  GLY616  TRP617  ASP618  TYR619  PRO620  LYS621  CYS622 
 ASP623  PHE694  ASN695  SER759  ASP760  ASP761  ALA762  ILE779  LEU786  VAL792 
 PHE793  MET794  SER795  GLU796  ALA797  LYS798  CYS799  TRP800  GLU811  SER814 

> <Gold.Protein.RotatedAtoms>
  152.4828  134.4674  159.9624 H   0  0  0  0  0  0  0  0  0  0  0  0  # atno 6907 bound_to 6896
  151.4676  133.3571  159.2826 H   0  0  0  0  0  0  0  0  0  0  0  0  # atno 6908 bound_to 6896
  150.8914  134.8343  159.7356 H   0  0  0  0  0  0  0  0  0  0  0  0  # atno 6909 bound_to 6896
  145.4068  139.2339  143.3270 H   0  0  0  0  0  0  0  0  0  0  0  0  # atno 7974 bound_to 7965
  156.2787  140.2126  156.5714 H   0  0  0  0  0  0  0  0  0  0  0  0  # atno 8008 bound_to 7997
  154.7132  140.0510  157.0593 H   0  0  0  0  0  0  0  0  0  0  0  0  # atno 8009 bound_to 7997
  155.0577  140.3163  155.4674 H   0  0  0  0  0  0  0  0  0  0  0  0  # atno 8010 bound_to 7997
  140.6686  143.2699  151.4211 H   0  0  0  0  0  0  0  0  0  0  0  0  # atno 10167 bound_to 10162
  156.9020  130.9882  151.3034 H   0  0  0  0  0  0  0  0  0  0  0  0  # atno 10718 bound_to 10713
  154.0542  135.2879  155.3335 H   0  0  0  0  0  0  0  0  0  0  0  0  # atno 10763 bound_to 10752
  154.6850  135.5249  153.8317 H   0  0  0  0  0  0  0  0  0  0  0  0  # atno 10764 bound_to 10752
  153.0548  135.6591  154.0736 H   0  0  0  0  0  0  0  0  0  0  0  0  # atno 10765 bound_to 10752
  140.1659  134.8577  157.2631 H   0  0  0  0  0  0  0  0  0  0  0  0  # atno 11005 bound_to 11000
  146.2725  140.4773  142.8809 LP  0  0  0  0  0  0  0  0  0  0  0  0  # atno 17320 bound_to 7965
  144.8336  140.6747  143.6275 LP  0  0  0  0  0  0  0  0  0  0  0  0  # atno 17321 bound_to 7965
  139.5945  144.1427  152.2127 LP  0  0  0  0  0  0  0  0  0  0  0  0  # atno 17342 bound_to 10162
  140.0792  144.5715  150.7135 LP  0  0  0  0  0  0  0  0  0  0  0  0  # atno 17343 bound_to 10162
  157.6020  130.8520  149.8817 LP  0  0  0  0  0  0  0  0  0  0  0  0  # atno 17370 bound_to 10713
  156.0577  130.3705  150.1052 LP  0  0  0  0  0  0  0  0  0  0  0  0  # atno 17371 bound_to 10713
  140.2434  134.3768  155.7471 LP  0  0  0  0  0  0  0  0  0  0  0  0  # atno 17394 bound_to 11000
  141.2213  133.7278  156.8825 LP  0  0  0  0  0  0  0  0  0  0  0  0  # atno 17395 bound_to 11000

$$$$
