AV-unprocessed.smi:3303|AV-procd|sdf|12669|dock3
  -GOLD-   2272019 03D 1   1.00000     0.00000
 Structure written by MMmdl.
 45 46  0  0  0  0  0  0  0  0  3 V2000
  147.4362  140.9969  153.9849 C   0  0  0  0  0  0  0  0  0  0  0  0
  148.3607  139.7690  153.9249 C   0  0  2  0  0  0  0  0  0  0  0  0
  147.7648  138.5543  154.6650 C   0  0  0  0  0  0  0  0  0  0  0  0
  148.6237  137.3540  154.5001 N   0  3  2  0  0  0  0  0  0  0  0  0
  147.9826  136.1148  154.9967 C   0  0  0  0  0  0  0  0  0  0  0  0
  150.0226  137.5532  154.9765 C   0  0  2  0  0  0  0  0  0  0  0  0
  150.1570  137.5707  156.5153 C   0  0  0  0  0  0  0  0  0  0  0  0
  150.6556  138.7884  154.2940 C   0  0  0  0  0  0  0  0  0  0  0  0
  149.8010  140.0737  154.3961 C   0  0  2  0  0  0  0  0  0  0  0  0
  149.8188  140.6701  155.7546 N   0  3  0  0  0  0  0  0  0  0  0  0
  151.1573  140.9892  156.2929 C   0  0  0  0  0  0  0  0  0  0  0  0
  151.1464  140.9775  157.8271 C   0  0  0  0  0  0  0  0  0  0  0  0
  151.4539  142.3435  158.4098 C   0  0  0  0  0  0  0  0  0  0  0  0
  152.5511  142.5287  159.2777 C   0  0  0  0  0  0  0  0  0  0  0  0
  152.7857  143.8176  159.7954 C   0  0  0  0  0  0  0  0  0  0  0  0
  151.9182  144.8642  159.4275 C   0  0  0  0  0  0  0  0  0  0  0  0
  150.8498  144.5752  158.5552 C   0  0  0  0  0  0  0  0  0  0  0  0
  150.6154  143.3426  158.0541 N   0  0  0  0  0  0  0  0  0  0  0  0
  147.2551  141.3200  155.0104 H   0  0  0  0  0  0  0  0  0  0  0  0
  146.4671  140.7766  153.5363 H   0  0  0  0  0  0  0  0  0  0  0  0
  147.8646  141.8384  153.4394 H   0  0  0  0  0  0  0  0  0  0  0  0
  148.4271  139.4921  152.8713 H   0  0  0  0  0  0  0  0  0  0  0  0
  147.6199  138.7743  155.7232 H   0  0  0  0  0  0  0  0  0  0  0  0
  146.7762  138.3369  154.2576 H   0  0  0  0  0  0  0  0  0  0  0  0
  147.7561  136.1793  156.0613 H   0  0  0  0  0  0  0  0  0  0  0  0
  148.6277  135.2514  154.8315 H   0  0  0  0  0  0  0  0  0  0  0  0
  147.0472  135.9339  154.4663 H   0  0  0  0  0  0  0  0  0  0  0  0
  150.5920  136.6886  154.6318 H   0  0  0  0  0  0  0  0  0  0  0  0
  151.1835  137.7894  156.8114 H   0  0  0  0  0  0  0  0  0  0  0  0
  149.9063  136.6022  156.9483 H   0  0  0  0  0  0  0  0  0  0  0  0
  149.5153  138.3130  156.9871 H   0  0  0  0  0  0  0  0  0  0  0  0
  151.6684  138.9497  154.6617 H   0  0  0  0  0  0  0  0  0  0  0  0
  150.7773  138.5564  153.2349 H   0  0  0  0  0  0  0  0  0  0  0  0
  150.2196  140.8189  153.7179 H   0  0  0  0  0  0  0  0  0  0  0  0
  149.3018  141.5371  155.7136 H   0  0  0  0  0  0  0  0  0  0  0  0
  151.8855  140.2645  155.9293 H   0  0  0  0  0  0  0  0  0  0  0  0
  151.4686  141.9706  155.9323 H   0  0  0  0  0  0  0  0  0  0  0  0
  150.1751  140.6406  158.1926 H   0  0  0  0  0  0  0  0  0  0  0  0
  151.8807  140.2623  158.2018 H   0  0  0  0  0  0  0  0  0  0  0  0
  153.1995  141.7064  159.5430 H   0  0  0  0  0  0  0  0  0  0  0  0
  153.6155  143.9995  160.4623 H   0  0  0  0  0  0  0  0  0  0  0  0
  152.0677  145.8652  159.8048 H   0  0  0  0  0  0  0  0  0  0  0  0
  150.1649  145.3533  158.2528 H   0  0  0  0  0  0  0  0  0  0  0  0
  149.3471  140.0477  156.3950 H   0  0  0  0  0  0  0  0  0  0  0  0
  148.7039  137.2222  153.5016 H   0  0  0  0  0  0  0  0  0  0  0  0
  1  2  1  0  0  0  0
  1 19  1  0  0  0  0
  1 20  1  0  0  0  0
  1 21  1  0  0  0  0
  2  9  1  0  0  0  0
  2  3  1  0  0  0  0
  2 22  1  0  0  0  0
  3  4  1  0  0  0  0
  3 23  1  0  0  0  0
  3 24  1  0  0  0  0
  4  5  1  0  0  0  0
  4  6  1  0  0  0  0
  4 45  1  0  0  0  0
  5 25  1  0  0  0  0
  5 26  1  0  0  0  0
  5 27  1  0  0  0  0
  6  7  1  0  0  0  0
  6  8  1  0  0  0  0
  6 28  1  0  0  0  0
  7 29  1  0  0  0  0
  7 30  1  0  0  0  0
  7 31  1  0  0  0  0
  8  9  1  0  0  0  0
  8 32  1  0  0  0  0
  8 33  1  0  0  0  0
  9 10  1  0  0  0  0
  9 34  1  0  0  0  0
 10 11  1  0  0  0  0
 10 35  1  0  0  0  0
 10 44  1  0  0  0  0
 11 12  1  0  0  0  0
 11 36  1  0  0  0  0
 11 37  1  0  0  0  0
 12 13  1  0  0  0  0
 12 38  1  0  0  0  0
 12 39  1  0  0  0  0
 13 18  1  0  0  0  0
 13 14  2  0  0  0  0
 14 15  1  0  0  0  0
 14 40  1  0  0  0  0
 15 16  2  0  0  0  0
 15 41  1  0  0  0  0
 16 17  1  0  0  0  0
 16 42  1  0  0  0  0
 17 18  2  0  0  0  0
 17 43  1  0  0  0  0
M  CHG  1   4   1
M  CHG  1  10   1
M  END
> <s_m_source_file>
AV-unprocessed.smi

> <i_m_source_file_index>
3303

> <i_lp_mmshare_version>
43012

> <i_f3d_flags>
0

> <s_epik_input>
W0NIM11bQ0BASF0xW0NIMl1OKFtDSDNdKVtDQEBIXShbQ0gzXSlbQ0gyXVtDQEhdMVtOSF1bQ0gyXVtDSDJdYzJbY0hdW2NIXVtjSF1bY0hdbjI=

> <s_epik_cmdline>
J2VwaWtfcHl0aG9uJywgJy1waCcsICc3LjAnLCAnLXRuJywgJzgnLCAnLW1hJywgJzIwMCcsICctbWV0YWxfYmluZGluZycsICctaW1hZScsICc8aW5maWxlLm1hZT4nLCAnLW9tYWUnLCAnPG91dGZpbGUubWFlPic=

> <r_epik_Ionization_Penalty>
0.0769462

> <r_epik_Ionization_Penalty_Charging>
0.0759813

> <r_epik_Ionization_Penalty_Neutral>
0.000964829

> <r_epik_State_Penalty>
0.0654373

> <r_epik_Charging_Adjusted_Penalty>
0.141419

> <i_epik_Tot_Q>
2

> <i_epik_Tot_abs_Q>
2

> <r_epik_Metal_State_Penalty>
0.0656439

> <b_epik_Metal_Only>
0

> <s_lp_Force_Field>
OPLS_2005

> <r_lp_Energy>
33.2062

> <b_lp_Chiralities_Consistent>
1

> <s_lp_Variant>
AV-unprocessed.smi:3303-13

> <Gold.Version>
5.8.1

> <Gold.Id.Protein>
6NUR|6NUR_protein|mol2

> <Gold.PLP.Fitness>
42.1233

> <Gold.PLP.PLP>
-34.1133

> <Gold.PLP.part.hbond>
-1.0000

> <Gold.PLP.part.metal>
0.0000

> <Gold.PLP.part.buried>
-2.3413

> <Gold.PLP.part.nonpolar>
-31.1385

> <Gold.PLP.part.repulsive>
0.2420

> <Gold.PLP.ligand.clash>
0.0000

> <Gold.PLP.ligand.torsion>
0.5245

> <Gold.PLP.Chemscore.Hbond>
2.0000

> <Gold.PLP.Chemscore.CHOScore>
1.0068

> <Gold.PLP.Chemscore.Metal>
0.0000

> <Gold.Chemscore.Hbonds>
donor molecule, donor type, donor heavy atom, donor atom, acceptor molecule, acceptor atom, score
      L1  H     4    45       P1  7948  2.00
      L1  C    17    43       P1  8028  0.01
      L1  C    17    43       P1  8029  1.00

> <Gold.PLP.Chemscore.Internal.Correction>
0.0387

> <Gold.Rescore>
     Score         DG    S(hbond)    S(metal)    S(lipo)     H(rot)  DE(clash)    DE(int)     intcor
     17.88     -18.49       0.99        0.00     113.09       1.37       0.11       0.51       ----

> <Gold.Chemscore.Fitness>
17.8766

> <Gold.Chemscore.DG>
-18.4929

> <Gold.Chemscore.ZeroCoef>
-5.4800

> <Gold.Chemscore.Hbond>
0.9881

> <Gold.Chemscore.Metal>
0.0000

> <Gold.Chemscore.Lipo>
113.0875

> <Gold.Chemscore.Internal_Hbond>
0.0000

> <Gold.Chemscore.DEClash>
0.1087

> <Gold.Chemscore.DEInternal>
0.5076

> <Gold.Chemscore.Rot>
1.3744

> <Gold.Chemscore.Internal.Correction>
   9.000000E+99

> <Gold.Chemscore.Hbonds>
donor molecule, donor type, donor heavy atom, donor atom, acceptor molecule, acceptor atom, score
      L1  H     4    45       P1  7948  0.98

> <Gold.Chemscore.Hbond.Weighted>
-3.3001

> <Gold.Chemscore.Metal.Weighted>
-0.0000

> <Gold.Chemscore.Lipo.Weighted>
-13.2312

> <Gold.Chemscore.Internal_Hbond.Weighted>
0.0000

> <Gold.Chemscore.DEClash.Weighted>
0.1087

> <Gold.Chemscore.DEInternal.Weighted>
0.5076

> <Gold.Chemscore.Rot.Weighted>
3.5185

> <Gold.Chemscore.Internal.Correction.Weighted>
   9.000000E+99

> <Gold.Protein.RotatedTorsions>
[ 6907 6896 6895 6894 ] final  -95.36 input  -60.11 | X-H torsion
[ 7974 7965 7964 7962 ] final -100.12 input  175.53 | X-H torsion
[ 8008 7997 7996 7995 ] final -155.68 input   59.86 | X-H torsion
[ 10167 10162 10161 10158 ] final -166.33 input  -65.29 | X-H torsion
[ 10718 10713 10712 10709 ] final  178.83 input   66.30 | X-H torsion
[ 10763 10752 10751 10750 ] final   75.27 input  -60.55 | X-H torsion
[ 11005 11000 10999 10996 ] final   65.85 input  -57.11 | X-H torsion

> <Gold.Protein.ActiveResidues>
 VAL166  LYS551  ARG553  GLY616  TRP617  ASP618  TYR619  PRO620  LYS621  CYS622 
 ASP623  PHE694  ASN695  SER759  ASP760  ASP761  ALA762  ILE779  LEU786  VAL792 
 PHE793  MET794  SER795  GLU796  ALA797  LYS798  CYS799  TRP800  GLU811  SER814 

> <Gold.Protein.RotatedAtoms>
  150.6962  134.1670  159.4197 H   0  0  0  0  0  0  0  0  0  0  0  0  # atno 6907 bound_to 6896
  151.9649  135.0103  160.0559 H   0  0  0  0  0  0  0  0  0  0  0  0  # atno 6908 bound_to 6896
  152.1894  133.4727  159.5036 H   0  0  0  0  0  0  0  0  0  0  0  0  # atno 6909 bound_to 6896
  145.2986  140.9371  143.2836 H   0  0  0  0  0  0  0  0  0  0  0  0  # atno 7974 bound_to 7965
  155.7055  140.0772  157.2393 H   0  0  0  0  0  0  0  0  0  0  0  0  # atno 8008 bound_to 7997
  154.4066  140.1639  156.2292 H   0  0  0  0  0  0  0  0  0  0  0  0  # atno 8009 bound_to 7997
  155.9329  140.3390  155.6267 H   0  0  0  0  0  0  0  0  0  0  0  0  # atno 8010 bound_to 7997
  139.6122  144.0791  152.1853 H   0  0  0  0  0  0  0  0  0  0  0  0  # atno 10167 bound_to 10162
  156.8847  130.9827  151.3057 H   0  0  0  0  0  0  0  0  0  0  0  0  # atno 10718 bound_to 10713
  153.0643  135.4995  154.8165 H   0  0  0  0  0  0  0  0  0  0  0  0  # atno 10763 bound_to 10752
  154.6930  135.2988  154.9454 H   0  0  0  0  0  0  0  0  0  0  0  0  # atno 10764 bound_to 10752
  154.0202  135.6743  153.4825 H   0  0  0  0  0  0  0  0  0  0  0  0  # atno 10765 bound_to 10752
  139.9868  134.6655  156.0161 H   0  0  0  0  0  0  0  0  0  0  0  0  # atno 11005 bound_to 11000
  144.9112  139.4526  143.6586 LP  0  0  0  0  0  0  0  0  0  0  0  0  # atno 17320 bound_to 7965
  146.3160  139.7921  142.8983 LP  0  0  0  0  0  0  0  0  0  0  0  0  # atno 17321 bound_to 7965
  140.0412  144.6005  150.7409 LP  0  0  0  0  0  0  0  0  0  0  0  0  # atno 17342 bound_to 10162
  140.7327  143.2708  151.3893 LP  0  0  0  0  0  0  0  0  0  0  0  0  # atno 17343 bound_to 10162
  157.6119  130.8589  149.8966 LP  0  0  0  0  0  0  0  0  0  0  0  0  # atno 17370 bound_to 10713
  156.0659  130.3692  150.0880 LP  0  0  0  0  0  0  0  0  0  0  0  0  # atno 17371 bound_to 10713
  141.1532  133.6546  156.4078 LP  0  0  0  0  0  0  0  0  0  0  0  0  # atno 17394 bound_to 11000
  140.4986  134.6507  157.5239 LP  0  0  0  0  0  0  0  0  0  0  0  0  # atno 17395 bound_to 11000

$$$$
