AV-unprocessed.smi:249|AV-procd|sdf|1910|dock5
  -GOLD-   2262021 03D 1   1.00000     0.00000
 Structure written by MMmdl.
 64 67  0  0  0  0  0  0  0  0  2 V2000
  141.8236  134.7369  153.4540 C   0  0  0  0  0  0  0  0  0  0  0  0
  142.7177  134.3110  152.2780 C   0  0  0  0  0  0  0  0  0  0  0  0
  143.9266  133.5414  152.6934 N   0  3  2  0  0  0  0  0  0  0  0  0
  144.8097  134.3382  153.5934 C   0  0  0  0  0  0  0  0  0  0  0  0
  145.9907  133.5153  154.1258 C   0  0  0  0  0  0  0  0  0  0  0  0
  146.8254  132.9508  152.9650 C   0  0  1  0  0  0  0  0  0  0  0  0
  148.0223  132.2214  153.4062 N   0  0  0  0  0  0  0  0  0  0  0  0
  149.1413  133.0177  153.8986 C   0  0  0  0  0  0  0  0  0  0  0  0
  147.8339  131.0665  154.0894 C   0  0  0  0  0  0  0  0  0  0  0  0
  146.6255  130.8042  154.6537 N   0  0  0  0  0  0  0  0  0  0  0  0
  146.4326  129.6629  155.3219 C   0  0  0  0  0  0  0  0  0  0  0  0
  147.2962  128.6698  155.5442 N   0  0  0  0  0  0  0  0  0  0  0  0
  148.5136  128.9367  154.9901 C   0  0  0  0  0  0  0  0  0  0  0  0
  148.8635  130.1007  154.2505 C   0  0  0  0  0  0  0  0  0  0  0  0
  150.1864  130.0221  153.8348 N   0  0  0  0  0  0  0  0  0  0  0  0
  150.5951  128.8715  154.2959 C   0  0  0  0  0  0  0  0  0  0  0  0
  149.6613  128.1636  155.0199 N   0  0  0  0  0  0  0  0  0  0  0  0
  149.8496  126.8616  155.6359 C   0  0  0  0  0  0  0  0  0  0  0  0
  149.8251  125.6636  154.6499 C   0  0  1  0  0  0  0  0  0  0  0  0
  149.6741  124.3502  155.4520 C   0  0  0  0  0  0  0  0  0  0  0  0
  150.6318  124.2594  156.4875 O   0  0  0  0  0  0  0  0  0  0  0  0
  148.7748  125.7824  153.5064 C   0  0  1  0  0  0  0  0  0  0  0  0
  148.9913  126.9171  152.5157 C   0  0  0  0  0  0  0  0  0  0  0  0
  148.1781  126.4782  151.3012 C   0  0  0  0  0  0  0  0  0  0  0  0
  148.1270  125.0581  151.3515 O   0  0  0  0  0  0  0  0  0  0  0  0
  148.7658  124.5968  152.5345 C   0  0  0  0  0  0  0  0  0  0  0  0
  145.8962  132.1307  152.0526 C   0  0  0  0  0  0  0  0  0  0  0  0
  144.6970  132.9595  151.5455 C   0  0  1  0  0  0  0  0  0  0  0  0
  143.8395  132.0667  150.6241 C   0  0  0  0  0  0  0  0  0  0  0  0
  140.8801  135.1403  153.0851 H   0  0  0  0  0  0  0  0  0  0  0  0
  142.2797  135.5163  154.0634 H   0  0  0  0  0  0  0  0  0  0  0  0
  141.5877  133.8904  154.0998 H   0  0  0  0  0  0  0  0  0  0  0  0
  142.0859  133.7033  151.6345 H   0  0  0  0  0  0  0  0  0  0  0  0
  143.0141  135.1815  151.6910 H   0  0  0  0  0  0  0  0  0  0  0  0
  145.1766  135.2159  153.0589 H   0  0  0  0  0  0  0  0  0  0  0  0
  144.2530  134.7046  154.4540 H   0  0  0  0  0  0  0  0  0  0  0  0
  146.6059  134.1467  154.7671 H   0  0  0  0  0  0  0  0  0  0  0  0
  145.6120  132.7081  154.7537 H   0  0  0  0  0  0  0  0  0  0  0  0
  147.1909  133.7946  152.3780 H   0  0  0  0  0  0  0  0  0  0  0  0
  150.0372  132.4034  153.9976 H   0  0  0  0  0  0  0  0  0  0  0  0
  148.9208  133.4590  154.8709 H   0  0  0  0  0  0  0  0  0  0  0  0
  149.3680  133.8258  153.2029 H   0  0  0  0  0  0  0  0  0  0  0  0
  145.4454  129.5252  155.7379 H   0  0  0  0  0  0  0  0  0  0  0  0
  151.6007  128.5119  154.1318 H   0  0  0  0  0  0  0  0  0  0  0  0
  150.8064  126.8917  156.1585 H   0  0  0  0  0  0  0  0  0  0  0  0
  149.0869  126.7294  156.4043 H   0  0  0  0  0  0  0  0  0  0  0  0
  150.8067  125.6061  154.1788 H   0  0  0  0  0  0  0  0  0  0  0  0
  148.6778  124.2655  155.8856 H   0  0  0  0  0  0  0  0  0  0  0  0
  149.7902  123.4880  154.7946 H   0  0  0  0  0  0  0  0  0  0  0  0
  151.3669  123.7548  156.1743 H   0  0  0  0  0  0  0  0  0  0  0  0
  147.7770  125.8821  153.9367 H   0  0  0  0  0  0  0  0  0  0  0  0
  148.6597  127.8874  152.8809 H   0  0  0  0  0  0  0  0  0  0  0  0
  150.0464  126.9943  152.2495 H   0  0  0  0  0  0  0  0  0  0  0  0
  147.1593  126.8623  151.3620 H   0  0  0  0  0  0  0  0  0  0  0  0
  148.6160  126.8267  150.3658 H   0  0  0  0  0  0  0  0  0  0  0  0
  149.7843  124.2994  152.2801 H   0  0  0  0  0  0  0  0  0  0  0  0
  148.2493  123.7249  152.9367 H   0  0  0  0  0  0  0  0  0  0  0  0
  146.4680  131.7611  151.2005 H   0  0  0  0  0  0  0  0  0  0  0  0
  145.5198  131.2536  152.5813 H   0  0  0  0  0  0  0  0  0  0  0  0
  145.0835  133.7867  150.9476 H   0  0  0  0  0  0  0  0  0  0  0  0
  144.4646  131.5363  149.9048 H   0  0  0  0  0  0  0  0  0  0  0  0
  143.1267  132.6416  150.0338 H   0  0  0  0  0  0  0  0  0  0  0  0
  143.2894  131.3167  151.1934 H   0  0  0  0  0  0  0  0  0  0  0  0
  143.5927  132.7572  153.2355 H   0  0  0  0  0  0  0  0  0  0  0  0
  1  2  1  0  0  0  0
  1 30  1  0  0  0  0
  1 31  1  0  0  0  0
  1 32  1  0  0  0  0
  2  3  1  0  0  0  0
  2 33  1  0  0  0  0
  2 34  1  0  0  0  0
  3 28  1  0  0  0  0
  3  4  1  0  0  0  0
  3 64  1  0  0  0  0
  4  5  1  0  0  0  0
  4 35  1  0  0  0  0
  4 36  1  0  0  0  0
  5  6  1  0  0  0  0
  5 37  1  0  0  0  0
  5 38  1  0  0  0  0
  6  7  1  0  0  0  0
  6 27  1  0  0  0  0
  6 39  1  0  0  0  0
  7  8  1  0  0  0  0
  7  9  1  0  0  0  0
  8 40  1  0  0  0  0
  8 41  1  0  0  0  0
  8 42  1  0  0  0  0
  9 14  1  0  0  0  0
  9 10  2  0  0  0  0
 10 11  1  0  0  0  0
 11 12  2  0  0  0  0
 11 43  1  0  0  0  0
 12 13  1  0  0  0  0
 13 17  1  0  0  0  0
 13 14  2  0  0  0  0
 14 15  1  0  0  0  0
 15 16  2  0  0  0  0
 16 17  1  0  0  0  0
 16 44  1  0  0  0  0
 17 18  1  0  0  0  0
 18 19  1  0  0  0  0
 18 45  1  0  0  0  0
 18 46  1  0  0  0  0
 19 20  1  0  0  0  0
 19 22  1  0  0  0  0
 19 47  1  0  0  0  0
 20 21  1  0  0  0  0
 20 48  1  0  0  0  0
 20 49  1  0  0  0  0
 21 50  1  0  0  0  0
 22 26  1  0  0  0  0
 22 23  1  0  0  0  0
 22 51  1  0  0  0  0
 23 24  1  0  0  0  0
 23 52  1  0  0  0  0
 23 53  1  0  0  0  0
 24 25  1  0  0  0  0
 24 54  1  0  0  0  0
 24 55  1  0  0  0  0
 25 26  1  0  0  0  0
 26 56  1  0  0  0  0
 26 57  1  0  0  0  0
 27 28  1  0  0  0  0
 27 58  1  0  0  0  0
 27 59  1  0  0  0  0
 28 29  1  0  0  0  0
 28 60  1  0  0  0  0
 29 61  1  0  0  0  0
 29 62  1  0  0  0  0
 29 63  1  0  0  0  0
M  CHG  1   3   1
M  END
> <s_m_source_file>
AV-unprocessed.smi

> <i_m_source_file_index>
249

> <i_lp_mmshare_version>
43012

> <i_f3d_flags>
0

> <s_epik_input>
W0NIM11bQ0gyXU4xW0NIMl1bQ0gyXVtDQEhdKFtDSDJdW0NASF0xW0NIM10pTihbQ0gzXSljKG5bY0hdbjIpYyhjMjMpbltjSF1uM1tDSDJdW0NASF0oW0NIMl1bT0hdKVtDQEBIXTRbQ0gyXVtDSDJdT1tDSDJdNA==

> <s_epik_cmdline>
J2VwaWtfcHl0aG9uJywgJy1waCcsICc3LjAnLCAnLXRuJywgJzgnLCAnLW1hJywgJzIwMCcsICctbWV0YWxfYmluZGluZycsICctaW1hZScsICc8aW5maWxlLm1hZT4nLCAnLW9tYWUnLCAnPG91dGZpbGUubWFlPic=

> <r_lp_tautomer_probability>
1

> <r_epik_Ionization_Penalty>
0.00294688

> <r_epik_Ionization_Penalty_Charging>
0.00169971

> <r_epik_Ionization_Penalty_Neutral>
0.00124717

> <r_epik_State_Penalty>
-0

> <r_epik_Charging_Adjusted_Penalty>
0.00169971

> <i_epik_Tot_Q>
1

> <i_epik_Tot_abs_Q>
1

> <r_epik_Metal_State_Penalty>
-0

> <b_epik_Metal_Only>
0

> <s_lp_Force_Field>
OPLS_2005

> <r_lp_Energy>
54.6385

> <b_lp_Chiralities_Consistent>
1

> <s_lp_Variant>
AV-unprocessed.smi:249-13

> <Gold.Version>
5.8.1

> <Gold.Id.Protein>
6NUR|6NUR_protein|mol2

> <Gold.PLP.Fitness>
41.4384

> <Gold.PLP.PLP>
-31.1293

> <Gold.PLP.part.hbond>
-1.5470

> <Gold.PLP.part.metal>
0.0000

> <Gold.PLP.part.buried>
-2.7518

> <Gold.PLP.part.nonpolar>
-28.0706

> <Gold.PLP.part.repulsive>
0.4381

> <Gold.PLP.ligand.clash>
0.0000

> <Gold.PLP.ligand.torsion>
0.8596

> <Gold.PLP.Chemscore.Hbond>
1.9825

> <Gold.PLP.Chemscore.CHOScore>
1.7204

> <Gold.PLP.Chemscore.Metal>
0.0000

> <Gold.Chemscore.Hbonds>
donor molecule, donor type, donor heavy atom, donor atom, acceptor molecule, acceptor atom, score
      L1  H     3    64       P1 10957  1.92
      L1  C    11    43       P1 10956  1.00
      L1  C    16    44       P1 10737  0.64

> <Gold.PLP.Chemscore.Internal.Correction>
0.9197

> <Gold.Rescore>
     Score         DG    S(hbond)    S(metal)    S(lipo)     H(rot)  DE(clash)    DE(int)     intcor
      4.61      -9.09       0.85        0.00      70.12       2.90       0.26       4.23       ----

> <Gold.Chemscore.Fitness>
4.6087

> <Gold.Chemscore.DG>
-9.0907

> <Gold.Chemscore.ZeroCoef>
-5.4800

> <Gold.Chemscore.Hbond>
0.8479

> <Gold.Chemscore.Metal>
0.0000

> <Gold.Chemscore.Lipo>
70.1217

> <Gold.Chemscore.Internal_Hbond>
0.0000

> <Gold.Chemscore.DEClash>
0.2555

> <Gold.Chemscore.DEInternal>
4.2265

> <Gold.Chemscore.Rot>
2.9006

> <Gold.Chemscore.Internal.Correction>
   9.000000E+99

> <Gold.Chemscore.Hbonds>
donor molecule, donor type, donor heavy atom, donor atom, acceptor molecule, acceptor atom, score
      L1  H     3    64       P1 10957  0.41

> <Gold.Chemscore.Hbond.Weighted>
-2.8321

> <Gold.Chemscore.Metal.Weighted>
-0.0000

> <Gold.Chemscore.Lipo.Weighted>
-8.2042

> <Gold.Chemscore.Internal_Hbond.Weighted>
0.0000

> <Gold.Chemscore.DEClash.Weighted>
0.2555

> <Gold.Chemscore.DEInternal.Weighted>
4.2265

> <Gold.Chemscore.Rot.Weighted>
7.4256

> <Gold.Chemscore.Internal.Correction.Weighted>
   9.000000E+99

> <Gold.Protein.RotatedTorsions>
[ 6907 6896 6895 6894 ] final  141.98 input  -60.11 | X-H torsion
[ 7974 7965 7964 7962 ] final  119.49 input  175.53 | X-H torsion
[ 8008 7997 7996 7995 ] final   71.19 input   59.86 | X-H torsion
[ 10167 10162 10161 10158 ] final -136.44 input  -65.29 | X-H torsion
[ 10718 10713 10712 10709 ] final -128.41 input   66.30 | X-H torsion
[ 10763 10752 10751 10750 ] final    4.17 input  -60.55 | X-H torsion
[ 11005 11000 10999 10996 ] final  -92.74 input  -57.11 | X-H torsion

> <Gold.Protein.ActiveResidues>
 VAL166  LYS551  ARG553  GLY616  TRP617  ASP618  TYR619  PRO620  LYS621  CYS622 
 ASP623  PHE694  ASN695  SER759  ASP760  ASP761  ALA762  ILE779  LEU786  VAL792 
 PHE793  MET794  SER795  GLU796  ALA797  LYS798  CYS799  TRP800  GLU811  SER814 

> <Gold.Protein.RotatedAtoms>
  152.2243  133.5008  159.5179 H   0  0  0  0  0  0  0  0  0  0  0  0  # atno 6907 bound_to 6896
  150.7021  134.1301  159.4075 H   0  0  0  0  0  0  0  0  0  0  0  0  # atno 6908 bound_to 6896
  151.9222  135.0293  160.0573 H   0  0  0  0  0  0  0  0  0  0  0  0  # atno 6909 bound_to 6896
  145.1425  139.3259  143.4608 H   0  0  0  0  0  0  0  0  0  0  0  0  # atno 7974 bound_to 7965
  155.7502  140.3488  155.5147 H   0  0  0  0  0  0  0  0  0  0  0  0  # atno 8008 bound_to 7997
  155.9012  140.1034  157.1370 H   0  0  0  0  0  0  0  0  0  0  0  0  # atno 8009 bound_to 7997
  154.4044  140.1286  156.4425 H   0  0  0  0  0  0  0  0  0  0  0  0  # atno 8010 bound_to 7997
  139.8678  143.6996  152.2643 H   0  0  0  0  0  0  0  0  0  0  0  0  # atno 10167 bound_to 10162
  156.1948  130.6819  151.0468 H   0  0  0  0  0  0  0  0  0  0  0  0  # atno 10718 bound_to 10713
  153.2744  135.6935  153.7448 H   0  0  0  0  0  0  0  0  0  0  0  0  # atno 10763 bound_to 10752
  153.6459  135.3385  155.3086 H   0  0  0  0  0  0  0  0  0  0  0  0  # atno 10764 bound_to 10752
  154.8475  135.4443  154.1777 H   0  0  0  0  0  0  0  0  0  0  0  0  # atno 10765 bound_to 10752
  141.1514  133.7841  157.0063 H   0  0  0  0  0  0  0  0  0  0  0  0  # atno 11005 bound_to 11000
  146.3503  140.1467  142.8593 LP  0  0  0  0  0  0  0  0  0  0  0  0  # atno 17320 bound_to 7965
  145.0517  140.9022  143.4991 LP  0  0  0  0  0  0  0  0  0  0  0  0  # atno 17321 bound_to 7965
  139.7313  144.7581  151.0798 LP  0  0  0  0  0  0  0  0  0  0  0  0  # atno 17342 bound_to 10162
  140.7765  143.5085  150.9682 LP  0  0  0  0  0  0  0  0  0  0  0  0  # atno 17343 bound_to 10162
  157.6951  131.0797  150.6993 LP  0  0  0  0  0  0  0  0  0  0  0  0  # atno 17370 bound_to 10713
  156.7050  130.4634  149.5562 LP  0  0  0  0  0  0  0  0  0  0  0  0  # atno 17371 bound_to 10713
  140.0907  134.9594  157.1772 LP  0  0  0  0  0  0  0  0  0  0  0  0  # atno 17394 bound_to 11000
  140.3450  134.2662  155.7206 LP  0  0  0  0  0  0  0  0  0  0  0  0  # atno 17395 bound_to 11000

$$$$
