AV-unprocessed.smi:2385|AV-procd|sdf|9465|dock6
  -GOLD-   2272013 93D 1   1.00000     0.00000
 Structure written by MMmdl.
 50 52  0  0  0  0  0  0  0  0  2 V2000
  153.6446  142.0826  161.0586 C   0  0  0  0  0  0  0  0  0  0  0  0
  152.6816  142.2235  159.8985 C   0  0  0  0  0  0  0  0  0  0  0  0
  152.4202  143.4802  159.3208 C   0  0  0  0  0  0  0  0  0  0  0  0
  151.5177  143.5568  158.2427 C   0  0  0  0  0  0  0  0  0  0  0  0
  150.8998  142.3783  157.7675 C   0  0  0  0  0  0  0  0  0  0  0  0
  150.0057  142.5657  156.6799 N   0  0  0  0  0  0  0  0  0  0  0  0
  149.3536  141.6295  155.9686 C   0  0  0  0  0  0  0  0  0  0  0  0
  149.4341  140.4137  156.1439 O   0  0  0  0  0  0  0  0  0  0  0  0
  148.5895  142.1886  155.0188 N   0  0  0  0  0  0  0  0  0  0  0  0
  147.7420  141.4604  154.0748 C   0  0  2  0  0  0  0  0  0  0  0  0
  146.8785  142.4098  153.2229 C   0  0  0  0  0  0  0  0  0  0  0  0
  145.7859  143.0995  154.0586 C   0  0  0  0  0  0  0  0  0  0  0  0
  144.9259  142.1098  154.7611 N   0  3  2  0  0  0  0  0  0  0  0  0
  143.7999  142.7682  155.4767 C   0  0  0  0  0  0  0  0  0  0  0  0
  143.3226  144.0773  154.8104 C   0  0  2  0  0  0  0  0  0  0  0  0
  144.1197  145.2889  155.2625 C   0  0  0  0  0  0  0  0  0  0  0  0
  143.1732  146.4341  154.9367 C   0  0  0  0  0  0  0  0  0  0  0  0
  141.9012  145.9283  155.3077 O   0  0  0  0  0  0  0  0  0  0  0  0
  141.8852  144.5133  155.1412 C   0  0  0  0  0  0  0  0  0  0  0  0
  145.7325  141.2076  155.6267 C   0  0  0  0  0  0  0  0  0  0  0  0
  146.8266  140.4794  154.8240 C   0  0  0  0  0  0  0  0  0  0  0  0
  151.1602  141.1714  158.3287 N   0  0  0  0  0  0  0  0  0  0  0  0
  152.0249  141.0987  159.3627 C   0  0  0  0  0  0  0  0  0  0  0  0
  153.7355  143.0210  161.6066 H   0  0  0  0  0  0  0  0  0  0  0  0
  154.6324  141.8003  160.6944 H   0  0  0  0  0  0  0  0  0  0  0  0
  153.3017  141.3159  161.7539 H   0  0  0  0  0  0  0  0  0  0  0  0
  152.9009  144.3723  159.6948 H   0  0  0  0  0  0  0  0  0  0  0  0
  151.3054  144.5140  157.7889 H   0  0  0  0  0  0  0  0  0  0  0  0
  149.8417  143.5260  156.4167 H   0  0  0  0  0  0  0  0  0  0  0  0
  148.5809  143.1960  154.9546 H   0  0  0  0  0  0  0  0  0  0  0  0
  148.3916  140.8836  153.4139 H   0  0  0  0  0  0  0  0  0  0  0  0
  147.5002  143.1579  152.7296 H   0  0  0  0  0  0  0  0  0  0  0  0
  146.4057  141.8395  152.4222 H   0  0  0  0  0  0  0  0  0  0  0  0
  146.2361  143.7753  154.7875 H   0  0  0  0  0  0  0  0  0  0  0  0
  145.1752  143.7137  153.3955 H   0  0  0  0  0  0  0  0  0  0  0  0
  142.9752  142.0693  155.6246 H   0  0  0  0  0  0  0  0  0  0  0  0
  144.1461  143.0316  156.4773 H   0  0  0  0  0  0  0  0  0  0  0  0
  143.4303  143.9990  153.7272 H   0  0  0  0  0  0  0  0  0  0  0  0
  144.2993  145.2523  156.3381 H   0  0  0  0  0  0  0  0  0  0  0  0
  145.0821  145.3798  154.7585 H   0  0  0  0  0  0  0  0  0  0  0  0
  143.4140  147.3510  155.4753 H   0  0  0  0  0  0  0  0  0  0  0  0
  143.1790  146.6497  153.8674 H   0  0  0  0  0  0  0  0  0  0  0  0
  141.1934  144.2406  154.3439 H   0  0  0  0  0  0  0  0  0  0  0  0
  141.5273  144.0639  156.0679 H   0  0  0  0  0  0  0  0  0  0  0  0
  146.1781  141.7829  156.4397 H   0  0  0  0  0  0  0  0  0  0  0  0
  145.0973  140.4556  156.0876 H   0  0  0  0  0  0  0  0  0  0  0  0
  146.3537  139.8100  154.1042 H   0  0  0  0  0  0  0  0  0  0  0  0
  147.4160  139.8429  155.4852 H   0  0  0  0  0  0  0  0  0  0  0  0
  152.1966  140.1139  159.7718 H   0  0  0  0  0  0  0  0  0  0  0  0
  144.5125  141.5374  154.0387 H   0  0  0  0  0  0  0  0  0  0  0  0
  1  2  1  0  0  0  0
  1 24  1  0  0  0  0
  1 25  1  0  0  0  0
  1 26  1  0  0  0  0
  2 23  1  0  0  0  0
  2  3  2  0  0  0  0
  3  4  1  0  0  0  0
  3 27  1  0  0  0  0
  4  5  2  0  0  0  0
  4 28  1  0  0  0  0
  5  6  1  0  0  0  0
  5 22  1  0  0  0  0
  6  7  1  0  0  0  0
  6 29  1  0  0  0  0
  7  8  2  0  0  0  0
  7  9  1  0  0  0  0
  9 10  1  0  0  0  0
  9 30  1  0  0  0  0
 10 21  1  0  0  0  0
 10 11  1  0  0  0  0
 10 31  1  0  0  0  0
 11 12  1  0  0  0  0
 11 32  1  0  0  0  0
 11 33  1  0  0  0  0
 12 13  1  0  0  0  0
 12 34  1  0  0  0  0
 12 35  1  0  0  0  0
 13 14  1  0  0  0  0
 13 20  1  0  0  0  0
 13 50  1  0  0  0  0
 14 15  1  0  0  0  0
 14 36  1  0  0  0  0
 14 37  1  0  0  0  0
 15 19  1  0  0  0  0
 15 16  1  0  0  0  0
 15 38  1  0  0  0  0
 16 17  1  0  0  0  0
 16 39  1  0  0  0  0
 16 40  1  0  0  0  0
 17 18  1  0  0  0  0
 17 41  1  0  0  0  0
 17 42  1  0  0  0  0
 18 19  1  0  0  0  0
 19 43  1  0  0  0  0
 19 44  1  0  0  0  0
 20 21  1  0  0  0  0
 20 45  1  0  0  0  0
 20 46  1  0  0  0  0
 21 47  1  0  0  0  0
 21 48  1  0  0  0  0
 22 23  2  0  0  0  0
 23 49  1  0  0  0  0
M  CHG  1  13   1
M  END
> <s_m_source_file>
AV-unprocessed.smi

> <i_m_source_file_index>
2385

> <i_lp_mmshare_version>
43012

> <i_f3d_flags>
0

> <s_epik_input>
W0NIM11jMVtjSF1bY0hdYyhuW2NIXTEpW05IXUMoPU8pW05IXVtDSF0yW0NIMl1bQ0gyXU4oW0NIMl1bQ0gyXTIpW0NIMl1bQ0BASF0zW0NIMl1bQ0gyXU9bQ0gyXTM=

> <s_epik_cmdline>
J2VwaWtfcHl0aG9uJywgJy1waCcsICc3LjAnLCAnLXRuJywgJzgnLCAnLW1hJywgJzIwMCcsICctbWV0YWxfYmluZGluZycsICctaW1hZScsICc8aW5maWxlLm1hZT4nLCAnLW9tYWUnLCAnPG91dGZpbGUubWFlPic=

> <r_epik_Ionization_Penalty>
0.00752367

> <r_epik_Ionization_Penalty_Charging>
0.00747775

> <r_epik_Ionization_Penalty_Neutral>
4.59207e-05

> <r_epik_State_Penalty>
0.00558817

> <r_epik_Charging_Adjusted_Penalty>
0.0130659

> <i_epik_Tot_Q>
1

> <i_epik_Tot_abs_Q>
1

> <r_epik_Metal_State_Penalty>
-0

> <b_epik_Metal_Only>
0

> <s_lp_Force_Field>
OPLS_2005

> <r_lp_Energy>
35.6171

> <b_lp_Chiralities_Consistent>
1

> <s_lp_Variant>
AV-unprocessed.smi:2385-3

> <Gold.Version>
5.8.1

> <Gold.Id.Protein>
6NUR|6NUR_protein|mol2

> <Gold.PLP.Fitness>
49.8975

> <Gold.PLP.PLP>
-39.1986

> <Gold.PLP.part.hbond>
-2.9573

> <Gold.PLP.part.metal>
0.0000

> <Gold.PLP.part.buried>
-6.7177

> <Gold.PLP.part.nonpolar>
-30.5799

> <Gold.PLP.part.repulsive>
0.2718

> <Gold.PLP.ligand.clash>
0.0000

> <Gold.PLP.ligand.torsion>
0.6383

> <Gold.PLP.Chemscore.Hbond>
3.9825

> <Gold.PLP.Chemscore.CHOScore>
0.0000

> <Gold.PLP.Chemscore.Metal>
0.0000

> <Gold.Chemscore.Hbonds>
donor molecule, donor type, donor heavy atom, donor atom, acceptor molecule, acceptor atom, score
      L1  H     6    29       P1  8028  1.00
      L1  H     9    30       P1  8028  1.00
      L1  H    13    50       P1 10175  1.88

> <Gold.PLP.Chemscore.Internal.Correction>
0.0281

> <Gold.Rescore>
     Score         DG    S(hbond)    S(metal)    S(lipo)     H(rot)  DE(clash)    DE(int)     intcor
     17.23     -22.65       2.67        0.00     101.31       1.41       1.22       4.20       ----

> <Gold.Chemscore.Fitness>
17.2289

> <Gold.Chemscore.DG>
-22.6532

> <Gold.Chemscore.ZeroCoef>
-5.4800

> <Gold.Chemscore.Hbond>
2.6701

> <Gold.Chemscore.Metal>
0.0000

> <Gold.Chemscore.Lipo>
101.3108

> <Gold.Chemscore.Internal_Hbond>
0.0000

> <Gold.Chemscore.DEClash>
1.2231

> <Gold.Chemscore.DEInternal>
4.2012

> <Gold.Chemscore.Rot>
1.4056

> <Gold.Chemscore.Internal.Correction>
   9.000000E+99

> <Gold.Chemscore.Hbonds>
donor molecule, donor type, donor heavy atom, donor atom, acceptor molecule, acceptor atom, score
      L1  H     6    29       P1  8028  0.96
      L1  H     9    30       P1  8028  0.95
      L1  H    13    50       P1 10175  0.20

> <Gold.Chemscore.Hbond.Weighted>
-8.9180

> <Gold.Chemscore.Metal.Weighted>
-0.0000

> <Gold.Chemscore.Lipo.Weighted>
-11.8534

> <Gold.Chemscore.Internal_Hbond.Weighted>
0.0000

> <Gold.Chemscore.DEClash.Weighted>
1.2231

> <Gold.Chemscore.DEInternal.Weighted>
4.2012

> <Gold.Chemscore.Rot.Weighted>
3.5982

> <Gold.Chemscore.Internal.Correction.Weighted>
   9.000000E+99

> <Gold.Protein.RotatedTorsions>
[ 6907 6896 6895 6894 ] final -174.93 input  -60.11 | X-H torsion
[ 7974 7965 7964 7962 ] final  -72.47 input  175.53 | X-H torsion
[ 8008 7997 7996 7995 ] final  -36.95 input   59.86 | X-H torsion
[ 10167 10162 10161 10158 ] final   32.49 input  -65.29 | X-H torsion
[ 10718 10713 10712 10709 ] final  124.94 input   66.30 | X-H torsion
[ 10763 10752 10751 10750 ] final  -44.63 input  -60.55 | X-H torsion
[ 11005 11000 10999 10996 ] final  -99.22 input  -57.11 | X-H torsion

> <Gold.Protein.ActiveResidues>
 VAL166  LYS551  ARG553  GLY616  TRP617  ASP618  TYR619  PRO620  LYS621  CYS622 
 ASP623  PHE694  ASN695  SER759  ASP760  ASP761  ALA762  ILE779  LEU786  VAL792 
 PHE793  MET794  SER795  GLU796  ALA797  LYS798  CYS799  TRP800  GLU811  SER814 

> <Gold.Protein.RotatedAtoms>
  151.5804  133.3378  159.3007 H   0  0  0  0  0  0  0  0  0  0  0  0  # atno 6907 bound_to 6896
  150.8317  134.7575  159.6870 H   0  0  0  0  0  0  0  0  0  0  0  0  # atno 6908 bound_to 6896
  152.4399  134.5618  159.9948 H   0  0  0  0  0  0  0  0  0  0  0  0  # atno 6909 bound_to 6896
  145.6647  140.9241  143.0915 H   0  0  0  0  0  0  0  0  0  0  0  0  # atno 7974 bound_to 7965
  154.4063  140.1617  156.2457 H   0  0  0  0  0  0  0  0  0  0  0  0  # atno 8008 bound_to 7997
  155.9162  140.3424  155.6114 H   0  0  0  0  0  0  0  0  0  0  0  0  # atno 8009 bound_to 7997
  155.7276  140.0776  157.2293 H   0  0  0  0  0  0  0  0  0  0  0  0  # atno 8010 bound_to 7997
  140.4494  144.1071  150.6188 H   0  0  0  0  0  0  0  0  0  0  0  0  # atno 10167 bound_to 10162
  157.5544  131.1092  150.8647 H   0  0  0  0  0  0  0  0  0  0  0  0  # atno 10718 bound_to 10713
  154.0152  135.6676  153.4768 H   0  0  0  0  0  0  0  0  0  0  0  0  # atno 10763 bound_to 10752
  153.0603  135.5031  154.8075 H   0  0  0  0  0  0  0  0  0  0  0  0  # atno 10764 bound_to 10752
  154.6971  135.3072  154.9360 H   0  0  0  0  0  0  0  0  0  0  0  0  # atno 10765 bound_to 10752
  141.1316  133.8305  157.0943 H   0  0  0  0  0  0  0  0  0  0  0  0  # atno 11005 bound_to 11000
  144.7077  139.8495  143.7425 LP  0  0  0  0  0  0  0  0  0  0  0  0  # atno 17320 bound_to 7965
  146.1095  139.4099  143.0296 LP  0  0  0  0  0  0  0  0  0  0  0  0  # atno 17321 bound_to 7965
  140.4225  143.2605  151.9697 LP  0  0  0  0  0  0  0  0  0  0  0  0  # atno 17342 bound_to 10162
  139.4795  144.5818  151.7920 LP  0  0  0  0  0  0  0  0  0  0  0  0  # atno 17343 bound_to 10162
  156.9163  130.5299  149.5279 LP  0  0  0  0  0  0  0  0  0  0  0  0  # atno 17370 bound_to 10713
  156.0605  130.5658  150.9182 LP  0  0  0  0  0  0  0  0  0  0  0  0  # atno 17371 bound_to 10713
  140.0372  134.9872  157.0894 LP  0  0  0  0  0  0  0  0  0  0  0  0  # atno 17394 bound_to 11000
  140.4191  134.1900  155.7164 LP  0  0  0  0  0  0  0  0  0  0  0  0  # atno 17395 bound_to 11000

$$$$
