AV-unprocessed.smi:1636|AV-procd|sdf|6542|dock3
  -GOLD-   22720 7223D 1   1.00000     0.00000
 Structure written by MMmdl.
 43 44  0  0  0  0  0  0  0  0  1 V2000
  152.1352  144.8485  158.7767 C   0  0  0  0  0  0  0  0  0  0  0  0
  152.7978  143.4833  158.9899 C   0  0  2  0  0  0  0  0  0  0  0  0
  152.0035  142.3436  158.3237 C   0  0  0  0  0  0  0  0  0  0  0  0
  152.6079  141.0499  158.6352 N   0  0  0  0  0  0  0  0  0  0  0  0
  152.1674  139.9225  157.9089 C   0  0  0  0  0  0  0  0  0  0  0  0
  151.4271  138.9060  158.5571 C   0  0  0  0  0  0  0  0  0  0  0  0
  150.9955  137.7912  157.8139 C   0  0  0  0  0  0  0  0  0  0  0  0
  151.3129  137.7126  156.4438 C   0  0  0  0  0  0  0  0  0  0  0  0
  150.8391  136.5160  155.6275 C   0  0  0  0  0  0  0  0  0  0  0  0
  149.6866  136.7661  154.7667 N   0  0  0  0  0  0  0  0  0  0  0  0
  148.5183  137.2780  155.1781 C   0  0  0  0  0  0  0  0  0  0  0  0
  148.2738  137.5881  156.3443 O   0  0  0  0  0  0  0  0  0  0  0  0
  147.6463  137.4034  154.1681 N   0  0  0  0  0  0  0  0  0  0  0  0
  146.2828  137.9073  154.2938 C   0  0  0  0  0  0  0  0  0  0  0  0
  145.4489  137.6160  153.0341 C   0  0  0  0  0  0  0  0  0  0  0  0
  145.7399  138.5630  152.0284 O   0  0  0  0  0  0  0  0  0  0  0  0
  152.0551  138.7747  155.8820 C   0  0  0  0  0  0  0  0  0  0  0  0
  152.4741  139.8447  156.5903 N   0  0  0  0  0  0  0  0  0  0  0  0
  152.8104  140.8354  160.0655 C   0  0  0  0  0  0  0  0  0  0  0  0
  153.5650  142.0248  160.6838 C   0  0  0  0  0  0  0  0  0  0  0  0
  152.8786  143.2375  160.3910 O   0  0  0  0  0  0  0  0  0  0  0  0
  152.0657  145.0889  157.7155 H   0  0  0  0  0  0  0  0  0  0  0  0
  152.7096  145.6394  159.2595 H   0  0  0  0  0  0  0  0  0  0  0  0
  151.1270  144.8674  159.1916 H   0  0  0  0  0  0  0  0  0  0  0  0
  153.8066  143.5195  158.5744 H   0  0  0  0  0  0  0  0  0  0  0  0
  150.9696  142.3509  158.6721 H   0  0  0  0  0  0  0  0  0  0  0  0
  151.9858  142.4974  157.2438 H   0  0  0  0  0  0  0  0  0  0  0  0
  151.1991  138.9620  159.6111 H   0  0  0  0  0  0  0  0  0  0  0  0
  150.4296  137.0059  158.2932 H   0  0  0  0  0  0  0  0  0  0  0  0
  151.6679  136.1370  155.0265 H   0  0  0  0  0  0  0  0  0  0  0  0
  150.5734  135.7175  156.3203 H   0  0  0  0  0  0  0  0  0  0  0  0
  149.7906  136.5411  153.7879 H   0  0  0  0  0  0  0  0  0  0  0  0
  147.9399  137.1168  153.2458 H   0  0  0  0  0  0  0  0  0  0  0  0
  145.8134  137.4309  155.1563 H   0  0  0  0  0  0  0  0  0  0  0  0
  146.3029  138.9745  154.5177 H   0  0  0  0  0  0  0  0  0  0  0  0
  145.6036  136.6032  152.6597 H   0  0  0  0  0  0  0  0  0  0  0  0
  144.3884  137.7078  153.2692 H   0  0  0  0  0  0  0  0  0  0  0  0
  145.1982  139.3246  152.1680 H   0  0  0  0  0  0  0  0  0  0  0  0
  152.3225  138.7788  154.8358 H   0  0  0  0  0  0  0  0  0  0  0  0
  151.8371  140.7221  160.5448 H   0  0  0  0  0  0  0  0  0  0  0  0
  153.3685  139.9208  160.2615 H   0  0  0  0  0  0  0  0  0  0  0  0
  153.6286  141.9066  161.7656 H   0  0  0  0  0  0  0  0  0  0  0  0
  154.5887  142.0739  160.3087 H   0  0  0  0  0  0  0  0  0  0  0  0
  1  2  1  0  0  0  0
  1 22  1  0  0  0  0
  1 23  1  0  0  0  0
  1 24  1  0  0  0  0
  2 21  1  0  0  0  0
  2  3  1  0  0  0  0
  2 25  1  0  0  0  0
  3  4  1  0  0  0  0
  3 26  1  0  0  0  0
  3 27  1  0  0  0  0
  4  5  1  0  0  0  0
  4 19  1  0  0  0  0
  5 18  1  0  0  0  0
  5  6  2  0  0  0  0
  6  7  1  0  0  0  0
  6 28  1  0  0  0  0
  7  8  2  0  0  0  0
  7 29  1  0  0  0  0
  8  9  1  0  0  0  0
  8 17  1  0  0  0  0
  9 10  1  0  0  0  0
  9 30  1  0  0  0  0
  9 31  1  0  0  0  0
 10 11  1  0  0  0  0
 10 32  1  0  0  0  0
 11 12  2  0  0  0  0
 11 13  1  0  0  0  0
 13 14  1  0  0  0  0
 13 33  1  0  0  0  0
 14 15  1  0  0  0  0
 14 34  1  0  0  0  0
 14 35  1  0  0  0  0
 15 16  1  0  0  0  0
 15 36  1  0  0  0  0
 15 37  1  0  0  0  0
 16 38  1  0  0  0  0
 17 18  2  0  0  0  0
 17 39  1  0  0  0  0
 19 20  1  0  0  0  0
 19 40  1  0  0  0  0
 19 41  1  0  0  0  0
 20 21  1  0  0  0  0
 20 42  1  0  0  0  0
 20 43  1  0  0  0  0
M  END
> <s_m_source_file>
AV-unprocessed.smi

> <i_m_source_file_index>
1636

> <i_lp_mmshare_version>
43012

> <i_f3d_flags>
0

> <s_epik_input>
W0NIM11bQ0BASF0xW0NIMl1OKFtDSDJdW0NIMl1PMSljMltjSF1bY0hdYyhbY0hdbjIpW0NIMl1bTkhdQyg9TylbTkhdW0NIMl1bQ0gyXVtPSF0=

> <s_epik_cmdline>
J2VwaWtfcHl0aG9uJywgJy1waCcsICc3LjAnLCAnLXRuJywgJzgnLCAnLW1hJywgJzIwMCcsICctbWV0YWxfYmluZGluZycsICctaW1hZScsICc8aW5maWxlLm1hZT4nLCAnLW9tYWUnLCAnPG91dGZpbGUubWFlPic=

> <r_lp_tautomer_probability>
1

> <r_epik_Ionization_Penalty>
0.00695222

> <r_epik_Ionization_Penalty_Charging>
0

> <r_epik_Ionization_Penalty_Neutral>
0.00695222

> <r_epik_State_Penalty>
0.00513345

> <r_epik_Charging_Adjusted_Penalty>
0.00513345

> <i_epik_Tot_Q>
0

> <i_epik_Tot_abs_Q>
0

> <r_epik_Metal_State_Penalty>
-0

> <b_epik_Metal_Only>
0

> <s_lp_Force_Field>
OPLS_2005

> <r_lp_Energy>
15.2616

> <b_lp_Chiralities_Consistent>
1

> <s_lp_Variant>
AV-unprocessed.smi:1636-1

> <Gold.Version>
5.8.1

> <Gold.Id.Protein>
6NUR|6NUR_protein|mol2

> <Gold.PLP.Fitness>
45.4125

> <Gold.PLP.PLP>
-34.9232

> <Gold.PLP.part.hbond>
-5.0000

> <Gold.PLP.part.metal>
0.0000

> <Gold.PLP.part.buried>
-6.3294

> <Gold.PLP.part.nonpolar>
-24.5384

> <Gold.PLP.part.repulsive>
0.0548

> <Gold.PLP.ligand.clash>
0.0000

> <Gold.PLP.ligand.torsion>
0.8491

> <Gold.PLP.Chemscore.Hbond>
3.9440

> <Gold.PLP.Chemscore.CHOScore>
0.0000

> <Gold.PLP.Chemscore.Metal>
0.0000

> <Gold.Chemscore.Hbonds>
donor molecule, donor type, donor heavy atom, donor atom, acceptor molecule, acceptor atom, score
      L1  H    10    32       P1  7948  0.86
      L1  H    13    33       P1  7948  1.00
      L1  H    16    38       P1 10175  1.00
      P1  H  7997  8010       L1    18  1.00

> <Gold.PLP.Chemscore.Internal.Correction>
0.3556

> <Gold.Rescore>
     Score         DG    S(hbond)    S(metal)    S(lipo)     H(rot)  DE(clash)    DE(int)     intcor
     18.37     -19.27       3.35        0.00      83.15       2.78       0.00       0.90       ----

> <Gold.Chemscore.Fitness>
18.3652

> <Gold.Chemscore.DG>
-19.2676

> <Gold.Chemscore.ZeroCoef>
-5.4800

> <Gold.Chemscore.Hbond>
3.3482

> <Gold.Chemscore.Metal>
0.0000

> <Gold.Chemscore.Lipo>
83.1524

> <Gold.Chemscore.Internal_Hbond>
0.0000

> <Gold.Chemscore.DEClash>
0.0000

> <Gold.Chemscore.DEInternal>
0.9023

> <Gold.Chemscore.Rot>
2.7828

> <Gold.Chemscore.Internal.Correction>
   9.000000E+99

> <Gold.Chemscore.Hbonds>
donor molecule, donor type, donor heavy atom, donor atom, acceptor molecule, acceptor atom, score
      L1  H    10    32       P1  7948  0.36
      L1  H    13    33       P1  7948  0.99
      L1  H    16    38       P1 10175  0.99
      P1  H  7997  8010       L1    18  0.60

> <Gold.Chemscore.Hbond.Weighted>
-11.1828

> <Gold.Chemscore.Metal.Weighted>
-0.0000

> <Gold.Chemscore.Lipo.Weighted>
-9.7288

> <Gold.Chemscore.Internal_Hbond.Weighted>
0.0000

> <Gold.Chemscore.DEClash.Weighted>
0.0000

> <Gold.Chemscore.DEInternal.Weighted>
0.9023

> <Gold.Chemscore.Rot.Weighted>
7.1241

> <Gold.Chemscore.Internal.Correction.Weighted>
   9.000000E+99

> <Gold.Protein.RotatedTorsions>
[ 6907 6896 6895 6894 ] final  -97.30 input  -60.11 | X-H torsion
[ 7974 7965 7964 7962 ] final   12.45 input  175.53 | X-H torsion
[ 8008 7997 7996 7995 ] final   83.09 input   59.86 | X-H torsion
[ 10167 10162 10161 10158 ] final  152.83 input  -65.29 | X-H torsion
[ 10718 10713 10712 10709 ] final  -74.95 input   66.30 | X-H torsion
[ 10763 10752 10751 10750 ] final -137.19 input  -60.55 | X-H torsion
[ 11005 11000 10999 10996 ] final  172.59 input  -57.11 | X-H torsion

> <Gold.Protein.ActiveResidues>
 VAL166  LYS551  ARG553  GLY616  TRP617  ASP618  TYR619  PRO620  LYS621  CYS622 
 ASP623  PHE694  ASN695  SER759  ASP760  ASP761  ALA762  ILE779  LEU786  VAL792 
 PHE793  MET794  SER795  GLU796  ALA797  LYS798  CYS799  TRP800  GLU811  SER814 

> <Gold.Protein.RotatedAtoms>
  150.7012  134.1370  159.4090 H   0  0  0  0  0  0  0  0  0  0  0  0  # atno 6907 bound_to 6896
  151.9355  135.0235  160.0541 H   0  0  0  0  0  0  0  0  0  0  0  0  # atno 6908 bound_to 6896
  152.2139  133.4896  159.5162 H   0  0  0  0  0  0  0  0  0  0  0  0  # atno 6909 bound_to 6896
  146.2351  139.9335  142.8493 H   0  0  0  0  0  0  0  0  0  0  0  0  # atno 7974 bound_to 7965
  155.9193  140.3422  155.6160 H   0  0  0  0  0  0  0  0  0  0  0  0  # atno 8008 bound_to 7997
  155.7293  140.0793  157.2314 H   0  0  0  0  0  0  0  0  0  0  0  0  # atno 8009 bound_to 7997
  154.4067  140.1591  156.2478 H   0  0  0  0  0  0  0  0  0  0  0  0  # atno 8010 bound_to 7997
  139.4830  144.5324  151.7700 H   0  0  0  0  0  0  0  0  0  0  0  0  # atno 10167 bound_to 10162
  156.0224  130.4429  150.2969 H   0  0  0  0  0  0  0  0  0  0  0  0  # atno 10718 bound_to 10713
  154.8667  135.3649  154.5184 H   0  0  0  0  0  0  0  0  0  0  0  0  # atno 10763 bound_to 10752
  153.5815  135.7018  153.5466 H   0  0  0  0  0  0  0  0  0  0  0  0  # atno 10764 bound_to 10752
  153.3453  135.4087  155.1566 H   0  0  0  0  0  0  0  0  0  0  0  0  # atno 10765 bound_to 10752
  140.3314  134.7354  157.4136 H   0  0  0  0  0  0  0  0  0  0  0  0  # atno 11005 bound_to 11000
  145.2021  140.9859  143.4150 LP  0  0  0  0  0  0  0  0  0  0  0  0  # atno 17320 bound_to 7965
  144.9765  139.3827  143.6283 LP  0  0  0  0  0  0  0  0  0  0  0  0  # atno 17321 bound_to 7965
  140.4852  144.1391  150.5940 LP  0  0  0  0  0  0  0  0  0  0  0  0  # atno 17342 bound_to 10162
  140.4233  143.2602  151.9688 LP  0  0  0  0  0  0  0  0  0  0  0  0  # atno 17343 bound_to 10162
  157.1072  131.0211  151.3062 LP  0  0  0  0  0  0  0  0  0  0  0  0  # atno 17370 bound_to 10713
  157.4733  130.7722  149.7344 LP  0  0  0  0  0  0  0  0  0  0  0  0  # atno 17371 bound_to 10713
  140.0858  134.5669  155.8494 LP  0  0  0  0  0  0  0  0  0  0  0  0  # atno 17394 bound_to 11000
  141.2062  133.6653  156.6230 LP  0  0  0  0  0  0  0  0  0  0  0  0  # atno 17395 bound_to 11000

$$$$
