AV-unprocessed.smi:2439|AV-procd|sdf|9612|dock8
  -GOLD-   2272013243D 1   1.00000     0.00000
 Structure written by MMmdl.
 40 42  0  0  0  0  0  0  0  0  1 V2000
  151.4456  139.5143  154.7508 N   0  0  0  0  0  0  0  0  0  0  0  0
  150.3003  139.6735  154.7093 C   0  0  0  0  0  0  0  0  0  0  0  0
  148.8571  139.8738  154.6570 C   0  0  0  0  0  0  0  0  0  0  0  0
  148.0701  138.9751  153.9068 C   0  0  0  0  0  0  0  0  0  0  0  0
  146.6771  139.1639  153.8515 C   0  0  0  0  0  0  0  0  0  0  0  0
  146.1242  140.2506  154.5530 C   0  0  0  0  0  0  0  0  0  0  0  0
  146.8647  141.1176  155.2744 N   0  0  0  0  0  0  0  0  0  0  0  0
  148.2076  140.9410  155.3342 C   0  0  0  0  0  0  0  0  0  0  0  0
  148.9513  141.8604  156.0951 N   0  0  0  0  0  0  0  0  0  0  0  0
  149.7211  141.4300  157.2538 C   0  0  0  0  0  0  0  0  0  0  0  0
  151.2188  141.7486  157.0853 C   0  0  1  0  0  0  0  0  0  0  0  0
  151.5398  143.2430  157.2798 C   0  0  0  0  0  0  0  0  0  0  0  0
  151.4338  143.6669  158.6710 N   0  0  0  0  0  0  0  0  0  0  0  0
  151.7683  145.0830  158.8159 C   0  0  0  0  0  0  0  0  0  0  0  0
  151.6307  145.5741  160.2655 C   0  0  0  0  0  0  0  0  0  0  0  0
  152.5043  144.7252  161.1997 C   0  0  0  0  0  0  0  0  0  0  0  0
  152.1891  143.2340  161.0053 C   0  0  0  0  0  0  0  0  0  0  0  0
  152.2916  142.8337  159.5183 C   0  0  1  0  0  0  0  0  0  0  0  0
  151.9601  141.3388  159.3406 C   0  0  0  0  0  0  0  0  0  0  0  0
  152.0344  140.9719  157.9649 O   0  0  0  0  0  0  0  0  0  0  0  0
  148.5237  138.1491  153.3777 H   0  0  0  0  0  0  0  0  0  0  0  0
  146.0487  138.4928  153.2850 H   0  0  0  0  0  0  0  0  0  0  0  0
  145.0593  140.4294  154.5344 H   0  0  0  0  0  0  0  0  0  0  0  0
  149.0853  142.8005  155.7507 H   0  0  0  0  0  0  0  0  0  0  0  0
  149.3376  141.9513  158.1315 H   0  0  0  0  0  0  0  0  0  0  0  0
  149.5659  140.3657  157.4301 H   0  0  0  0  0  0  0  0  0  0  0  0
  151.5028  141.4790  156.0673 H   0  0  0  0  0  0  0  0  0  0  0  0
  152.5525  143.4326  156.9205 H   0  0  0  0  0  0  0  0  0  0  0  0
  150.8765  143.8438  156.6562 H   0  0  0  0  0  0  0  0  0  0  0  0
  152.7881  145.2596  158.4703 H   0  0  0  0  0  0  0  0  0  0  0  0
  151.1182  145.6801  158.1755 H   0  0  0  0  0  0  0  0  0  0  0  0
  151.9151  146.6242  160.3357 H   0  0  0  0  0  0  0  0  0  0  0  0
  150.5871  145.5110  160.5763 H   0  0  0  0  0  0  0  0  0  0  0  0
  153.5573  144.9080  160.9826 H   0  0  0  0  0  0  0  0  0  0  0  0
  152.3425  145.0152  162.2380 H   0  0  0  0  0  0  0  0  0  0  0  0
  152.8720  142.6325  161.6061 H   0  0  0  0  0  0  0  0  0  0  0  0
  151.1841  143.0248  161.3749 H   0  0  0  0  0  0  0  0  0  0  0  0
  153.3276  142.9781  159.2064 H   0  0  0  0  0  0  0  0  0  0  0  0
  152.6697  140.7266  159.8975 H   0  0  0  0  0  0  0  0  0  0  0  0
  150.9721  141.1065  159.7391 H   0  0  0  0  0  0  0  0  0  0  0  0
  1  2  3  0  0  0  0
  2  3  1  0  0  0  0
  3  8  1  0  0  0  0
  3  4  2  0  0  0  0
  4  5  1  0  0  0  0
  4 21  1  0  0  0  0
  5  6  2  0  0  0  0
  5 22  1  0  0  0  0
  6  7  1  0  0  0  0
  6 23  1  0  0  0  0
  7  8  2  0  0  0  0
  8  9  1  0  0  0  0
  9 10  1  0  0  0  0
  9 24  1  0  0  0  0
 10 11  1  0  0  0  0
 10 25  1  0  0  0  0
 10 26  1  0  0  0  0
 11 20  1  0  0  0  0
 11 12  1  0  0  0  0
 11 27  1  0  0  0  0
 12 13  1  0  0  0  0
 12 28  1  0  0  0  0
 12 29  1  0  0  0  0
 13 18  1  0  0  0  0
 13 14  1  0  0  0  0
 14 15  1  0  0  0  0
 14 30  1  0  0  0  0
 14 31  1  0  0  0  0
 15 16  1  0  0  0  0
 15 32  1  0  0  0  0
 15 33  1  0  0  0  0
 16 17  1  0  0  0  0
 16 34  1  0  0  0  0
 16 35  1  0  0  0  0
 17 18  1  0  0  0  0
 17 36  1  0  0  0  0
 17 37  1  0  0  0  0
 18 19  1  0  0  0  0
 18 38  1  0  0  0  0
 19 20  1  0  0  0  0
 19 39  1  0  0  0  0
 19 40  1  0  0  0  0
M  END
> <s_m_source_file>
AV-unprocessed.smi

> <i_m_source_file_index>
2439

> <i_lp_mmshare_version>
43012

> <i_f3d_flags>
0

> <s_epik_input>
TiNDYzFbY0hdW2NIXVtjSF1uYzFbTkhdW0NIMl1bQ0BIXShbQ0gyXTIpT1tDSDJdW0NAQEhdKE4yMylbQ0gyXVtDSDJdW0NIMl1bQ0gyXTM=

> <s_epik_cmdline>
J2VwaWtfcHl0aG9uJywgJy1waCcsICc3LjAnLCAnLXRuJywgJzgnLCAnLW1hJywgJzIwMCcsICctbWV0YWxfYmluZGluZycsICctaW1hZScsICc8aW5maWxlLm1hZT4nLCAnLW9tYWUnLCAnPG91dGZpbGUubWFlPic=

> <r_epik_Ionization_Penalty>
1.22355

> <r_epik_Ionization_Penalty_Charging>
0

> <r_epik_Ionization_Penalty_Neutral>
1.22355

> <r_epik_State_Penalty>
1.29103

> <r_epik_Charging_Adjusted_Penalty>
1.29103

> <i_epik_Tot_Q>
0

> <i_epik_Tot_abs_Q>
0

> <r_epik_Metal_State_Penalty>
1.29103

> <b_epik_Metal_Only>
0

> <s_lp_Force_Field>
OPLS_2005

> <r_lp_Energy>
40.6054

> <b_lp_Chiralities_Consistent>
1

> <s_lp_Variant>
AV-unprocessed.smi:2439-10

> <Gold.Version>
5.8.1

> <Gold.Id.Protein>
6NUR|6NUR_protein|mol2

> <Gold.PLP.Fitness>
41.6674

> <Gold.PLP.PLP>
-36.1025

> <Gold.PLP.part.hbond>
-2.0000

> <Gold.PLP.part.metal>
0.0000

> <Gold.PLP.part.buried>
-4.7849

> <Gold.PLP.part.nonpolar>
-29.6302

> <Gold.PLP.part.repulsive>
0.3029

> <Gold.PLP.ligand.clash>
0.0000

> <Gold.PLP.ligand.torsion>
0.7264

> <Gold.PLP.Chemscore.Hbond>
1.3500

> <Gold.PLP.Chemscore.CHOScore>
0.9871

> <Gold.PLP.Chemscore.Metal>
0.0000

> <Gold.Chemscore.Hbonds>
donor molecule, donor type, donor heavy atom, donor atom, acceptor molecule, acceptor atom, score
      L1  H     9    24       P1  8028  1.00
      P1  H  7989  7998       L1     1  0.45
      L1  C     6    23       P1 10175  0.90

> <Gold.PLP.Chemscore.Internal.Correction>
0.0065

> <Gold.Rescore>
     Score         DG    S(hbond)    S(metal)    S(lipo)     H(rot)  DE(clash)    DE(int)     intcor
     18.62     -20.71       1.83        0.00     105.19       1.25       1.27       0.82       ----

> <Gold.Chemscore.Fitness>
18.6240

> <Gold.Chemscore.DG>
-20.7111

> <Gold.Chemscore.ZeroCoef>
-5.4800

> <Gold.Chemscore.Hbond>
1.8325

> <Gold.Chemscore.Metal>
0.0000

> <Gold.Chemscore.Lipo>
105.1859

> <Gold.Chemscore.Internal_Hbond>
0.0000

> <Gold.Chemscore.DEClash>
1.2715

> <Gold.Chemscore.DEInternal>
0.8157

> <Gold.Chemscore.Rot>
1.2485

> <Gold.Chemscore.Internal.Correction>
   9.000000E+99

> <Gold.Chemscore.Hbonds>
donor molecule, donor type, donor heavy atom, donor atom, acceptor molecule, acceptor atom, score
      L1  H     9    24       P1  8028  0.99
      P1  H  7989  7998       L1     1  0.02

> <Gold.Chemscore.Hbond.Weighted>
-6.1205

> <Gold.Chemscore.Metal.Weighted>
-0.0000

> <Gold.Chemscore.Lipo.Weighted>
-12.3067

> <Gold.Chemscore.Internal_Hbond.Weighted>
0.0000

> <Gold.Chemscore.DEClash.Weighted>
1.2715

> <Gold.Chemscore.DEInternal.Weighted>
0.8157

> <Gold.Chemscore.Rot.Weighted>
3.1961

> <Gold.Chemscore.Internal.Correction.Weighted>
   9.000000E+99

> <Gold.Protein.RotatedTorsions>
[ 6907 6896 6895 6894 ] final -151.71 input  -60.11 | X-H torsion
[ 7974 7965 7964 7962 ] final  -10.85 input  175.53 | X-H torsion
[ 8008 7997 7996 7995 ] final  -41.07 input   59.86 | X-H torsion
[ 10167 10162 10161 10158 ] final  -23.91 input  -65.29 | X-H torsion
[ 10718 10713 10712 10709 ] final   43.28 input   66.30 | X-H torsion
[ 10763 10752 10751 10750 ] final  -95.35 input  -60.55 | X-H torsion
[ 11005 11000 10999 10996 ] final   31.14 input  -57.11 | X-H torsion

> <Gold.Protein.ActiveResidues>
 VAL166  LYS551  ARG553  GLY616  TRP617  ASP618  TYR619  PRO620  LYS621  CYS622 
 ASP623  PHE694  ASN695  SER759  ASP760  ASP761  ALA762  ILE779  LEU786  VAL792 
 PHE793  MET794  SER795  GLU796  ALA797  LYS798  CYS799  TRP800  GLU811  SER814 

> <Gold.Protein.RotatedAtoms>
  151.2171  133.4523  159.2599 H   0  0  0  0  0  0  0  0  0  0  0  0  # atno 6907 bound_to 6896
  151.0920  134.9922  159.8417 H   0  0  0  0  0  0  0  0  0  0  0  0  # atno 6908 bound_to 6896
  152.5435  134.2104  159.8800 H   0  0  0  0  0  0  0  0  0  0  0  0  # atno 6909 bound_to 6896
  146.2207  140.2824  142.8363 H   0  0  0  0  0  0  0  0  0  0  0  0  # atno 7974 bound_to 7965
  154.4007  140.1509  156.3130 H   0  0  0  0  0  0  0  0  0  0  0  0  # atno 8008 bound_to 7997
  155.8598  140.3454  155.5727 H   0  0  0  0  0  0  0  0  0  0  0  0  # atno 8009 bound_to 7997
  155.7893  140.0854  157.2008 H   0  0  0  0  0  0  0  0  0  0  0  0  # atno 8010 bound_to 7997
  140.7288  143.4400  151.0671 H   0  0  0  0  0  0  0  0  0  0  0  0  # atno 10167 bound_to 10162
  157.4141  130.7931  149.7457 H   0  0  0  0  0  0  0  0  0  0  0  0  # atno 10718 bound_to 10713
  154.7140  135.5124  153.8710 H   0  0  0  0  0  0  0  0  0  0  0  0  # atno 10763 bound_to 10752
  153.0805  135.6629  154.0065 H   0  0  0  0  0  0  0  0  0  0  0  0  # atno 10764 bound_to 10752
  153.9901  135.3020  155.3392 H   0  0  0  0  0  0  0  0  0  0  0  0  # atno 10765 bound_to 10752
  140.2870  134.2907  155.7785 H   0  0  0  0  0  0  0  0  0  0  0  0  # atno 11005 bound_to 11000
  144.9187  140.7843  143.5762 LP  0  0  0  0  0  0  0  0  0  0  0  0  # atno 17320 bound_to 7965
  145.2759  139.1936  143.4816 LP  0  0  0  0  0  0  0  0  0  0  0  0  # atno 17321 bound_to 7965
  139.8066  143.8009  152.3168 LP  0  0  0  0  0  0  0  0  0  0  0  0  # atno 17342 bound_to 10162
  139.8044  144.7361  150.9781 LP  0  0  0  0  0  0  0  0  0  0  0  0  # atno 17343 bound_to 10162
  155.9860  130.3978  150.3235 LP  0  0  0  0  0  0  0  0  0  0  0  0  # atno 17370 bound_to 10713
  157.1377  131.0288  151.2942 LP  0  0  0  0  0  0  0  0  0  0  0  0  # atno 17371 bound_to 10713
  141.2153  133.7561  156.9568 LP  0  0  0  0  0  0  0  0  0  0  0  0  # atno 17394 bound_to 11000
  140.1230  134.9405  157.2230 LP  0  0  0  0  0  0  0  0  0  0  0  0  # atno 17395 bound_to 11000

$$$$
