AV-unprocessed.smi:598|AV-procd|sdf|3023|dock1
  -GOLD-   2262023533D 1   1.00000     0.00000
 Structure written by MMmdl.
 43 44  0  0  0  0  0  0  0  0  3 V2000
  151.4982  145.5582  160.0709 C   0  0  0  0  0  0  0  0  0  0  0  0
  151.6033  144.0565  160.3962 C   0  0  2  0  0  0  0  0  0  0  0  0
  152.6553  143.8418  161.5025 C   0  0  0  0  0  0  0  0  0  0  0  0
  152.7774  142.3654  161.8930 C   0  0  0  0  0  0  0  0  0  0  0  0
  153.1277  141.5127  160.6704 C   0  0  0  0  0  0  0  0  0  0  0  0
  152.0896  141.6893  159.5450 C   0  0  2  0  0  0  0  0  0  0  0  0
  152.4953  140.8931  158.3875 N   0  0  0  0  0  0  0  0  0  0  0  0
  152.7755  139.5811  158.4042 C   0  0  0  0  0  0  0  0  0  0  0  0
  152.7079  138.8885  159.4205 O   0  0  0  0  0  0  0  0  0  0  0  0
  153.1771  138.9632  157.0574 C   0  0  0  0  0  0  0  0  0  0  0  0
  152.0354  138.7590  156.1501 N   0  0  0  0  0  0  0  0  0  0  0  0
  151.2413  139.8851  155.8554 C   0  0  0  0  0  0  0  0  0  0  0  0
  150.1686  139.8118  155.0432 C   0  0  0  0  0  0  0  0  0  0  0  0
  149.3608  140.9769  154.7565 N   0  3  0  0  0  0  0  0  0  0  0  0
  149.0965  141.2362  153.5867 O   0  0  0  0  0  0  0  0  0  0  0  0
  148.9652  141.6713  155.6881 O   0  5  0  0  0  0  0  0  0  0  0  0
  149.8461  138.5208  154.4671 C   0  0  0  0  0  0  0  0  0  0  0  0
  150.5991  137.4392  154.7484 C   0  0  0  0  0  0  0  0  0  0  0  0
  151.7634  137.5203  155.6362 C   0  0  0  0  0  0  0  0  0  0  0  0
  152.4520  136.5348  155.9017 O   0  0  0  0  0  0  0  0  0  0  0  0
  151.9135  143.1807  159.1486 C   0  0  1  0  0  0  0  0  0  0  0  0
  150.8383  143.3390  158.0508 C   0  0  0  0  0  0  0  0  0  0  0  0
  152.3999  145.9220  159.5770 H   0  0  0  0  0  0  0  0  0  0  0  0
  151.3590  146.1459  160.9788 H   0  0  0  0  0  0  0  0  0  0  0  0
  150.6482  145.7761  159.4253 H   0  0  0  0  0  0  0  0  0  0  0  0
  150.6383  143.7419  160.7972 H   0  0  0  0  0  0  0  0  0  0  0  0
  153.6254  144.2107  161.1662 H   0  0  0  0  0  0  0  0  0  0  0  0
  152.3938  144.4258  162.3857 H   0  0  0  0  0  0  0  0  0  0  0  0
  153.5414  142.2455  162.6613 H   0  0  0  0  0  0  0  0  0  0  0  0
  151.8402  142.0189  162.3298 H   0  0  0  0  0  0  0  0  0  0  0  0
  154.1187  141.7896  160.3076 H   0  0  0  0  0  0  0  0  0  0  0  0
  153.1898  140.4647  160.9664 H   0  0  0  0  0  0  0  0  0  0  0  0
  151.1255  141.3241  159.9052 H   0  0  0  0  0  0  0  0  0  0  0  0
  152.5719  141.3815  157.5071 H   0  0  0  0  0  0  0  0  0  0  0  0
  153.9230  139.6120  156.5962 H   0  0  0  0  0  0  0  0  0  0  0  0
  153.6929  138.0167  157.2307 H   0  0  0  0  0  0  0  0  0  0  0  0
  151.5598  140.7971  156.3394 H   0  0  0  0  0  0  0  0  0  0  0  0
  148.9982  138.4113  153.8071 H   0  0  0  0  0  0  0  0  0  0  0  0
  150.3398  136.4871  154.3089 H   0  0  0  0  0  0  0  0  0  0  0  0
  152.8608  143.5254  158.7302 H   0  0  0  0  0  0  0  0  0  0  0  0
  149.8515  143.0628  158.4233 H   0  0  0  0  0  0  0  0  0  0  0  0
  151.0476  142.7157  157.1817 H   0  0  0  0  0  0  0  0  0  0  0  0
  150.7829  144.3623  157.6824 H   0  0  0  0  0  0  0  0  0  0  0  0
  1  2  1  0  0  0  0
  1 23  1  0  0  0  0
  1 24  1  0  0  0  0
  1 25  1  0  0  0  0
  2 21  1  0  0  0  0
  2  3  1  0  0  0  0
  2 26  1  0  0  0  0
  3  4  1  0  0  0  0
  3 27  1  0  0  0  0
  3 28  1  0  0  0  0
  4  5  1  0  0  0  0
  4 29  1  0  0  0  0
  4 30  1  0  0  0  0
  5  6  1  0  0  0  0
  5 31  1  0  0  0  0
  5 32  1  0  0  0  0
  6  7  1  0  0  0  0
  6 21  1  0  0  0  0
  6 33  1  0  0  0  0
  7  8  1  0  0  0  0
  7 34  1  0  0  0  0
  8  9  2  0  0  0  0
  8 10  1  0  0  0  0
 10 11  1  0  0  0  0
 10 35  1  0  0  0  0
 10 36  1  0  0  0  0
 11 19  1  0  0  0  0
 11 12  1  0  0  0  0
 12 13  2  0  0  0  0
 12 37  1  0  0  0  0
 13 14  1  0  0  0  0
 13 17  1  0  0  0  0
 14 15  2  0  0  0  0
 14 16  1  0  0  0  0
 17 18  2  0  0  0  0
 17 38  1  0  0  0  0
 18 19  1  0  0  0  0
 18 39  1  0  0  0  0
 19 20  2  0  0  0  0
 21 22  1  0  0  0  0
 21 40  1  0  0  0  0
 22 41  1  0  0  0  0
 22 42  1  0  0  0  0
 22 43  1  0  0  0  0
M  CHG  1  14   1
M  CHG  1  16  -1
M  END
> <s_m_source_file>
AV-unprocessed.smi

> <i_m_source_file_index>
598

> <i_lp_mmshare_version>
43012

> <i_f3d_flags>
0

> <s_epik_input>
W0NIM11bQ0BASF0xW0NIMl1bQ0gyXVtDSDJdW0NASF0oW0NASF0xW0NIM10pW05IXUMoPU8pW0NIMl1uMltjSF1jKFtOK10oPU8pW08tXSlbY0hdW2NIXWMyPU8=

> <s_epik_cmdline>
J2VwaWtfcHl0aG9uJywgJy1waCcsICc3LjAnLCAnLXRuJywgJzgnLCAnLW1hJywgJzIwMCcsICctbWV0YWxfYmluZGluZycsICctaW1hZScsICc8aW5maWxlLm1hZT4nLCAnLW9tYWUnLCAnPG91dGZpbGUubWFlPic=

> <r_lp_tautomer_probability>
1

> <r_epik_Ionization_Penalty>
1.91291e-08

> <r_epik_Ionization_Penalty_Charging>
8.21931e-11

> <r_epik_Ionization_Penalty_Neutral>
1.90469e-08

> <r_epik_State_Penalty>
-0

> <r_epik_Charging_Adjusted_Penalty>
8.21931e-11

> <i_epik_Tot_Q>
0

> <i_epik_Tot_abs_Q>
2

> <r_epik_Metal_State_Penalty>
-0

> <b_epik_Metal_Only>
0

> <s_lp_Force_Field>
OPLS_2005

> <r_lp_Energy>
24.1223

> <b_lp_Chiralities_Consistent>
1

> <s_lp_Variant>
AV-unprocessed.smi:598-3

> <Gold.Version>
5.8.1

> <Gold.Id.Protein>
6NUR|6NUR_protein|mol2

> <Gold.PLP.Fitness>
46.6755

> <Gold.PLP.PLP>
-43.1137

> <Gold.PLP.part.hbond>
-2.8459

> <Gold.PLP.part.metal>
0.0000

> <Gold.PLP.part.buried>
-2.8846

> <Gold.PLP.part.nonpolar>
-40.7672

> <Gold.PLP.part.repulsive>
4.1344

> <Gold.PLP.ligand.clash>
0.0000

> <Gold.PLP.ligand.torsion>
1.1198

> <Gold.PLP.Chemscore.Hbond>
1.9120

> <Gold.PLP.Chemscore.CHOScore>
0.0000

> <Gold.PLP.Chemscore.Metal>
0.0000

> <Gold.Chemscore.Hbonds>
donor molecule, donor type, donor heavy atom, donor atom, acceptor molecule, acceptor atom, score
      P1  H  8011  8017       L1    15  0.94
      P1  H 10752 10763       L1    20  0.98

> <Gold.PLP.Chemscore.Internal.Correction>
0.0654

> <Gold.Rescore>
     Score         DG    S(hbond)    S(metal)    S(lipo)     H(rot)  DE(clash)    DE(int)     intcor
     15.72     -21.72       1.97        0.00     116.30       1.54       2.79       3.21       ----

> <Gold.Chemscore.Fitness>
15.7181

> <Gold.Chemscore.DG>
-21.7188

> <Gold.Chemscore.ZeroCoef>
-5.4800

> <Gold.Chemscore.Hbond>
1.9679

> <Gold.Chemscore.Metal>
0.0000

> <Gold.Chemscore.Lipo>
116.2980

> <Gold.Chemscore.Internal_Hbond>
0.0000

> <Gold.Chemscore.DEClash>
2.7896

> <Gold.Chemscore.DEInternal>
3.2112

> <Gold.Chemscore.Rot>
1.5393

> <Gold.Chemscore.Internal.Correction>
   9.000000E+99

> <Gold.Chemscore.Hbonds>
donor molecule, donor type, donor heavy atom, donor atom, acceptor molecule, acceptor atom, score
      P1  H  8011  8017       L1    15  0.91
      P1  H 10752 10763       L1    20  0.88

> <Gold.Chemscore.Hbond.Weighted>
-6.5727

> <Gold.Chemscore.Metal.Weighted>
-0.0000

> <Gold.Chemscore.Lipo.Weighted>
-13.6069

> <Gold.Chemscore.Internal_Hbond.Weighted>
0.0000

> <Gold.Chemscore.DEClash.Weighted>
2.7896

> <Gold.Chemscore.DEInternal.Weighted>
3.2112

> <Gold.Chemscore.Rot.Weighted>
3.9407

> <Gold.Chemscore.Internal.Correction.Weighted>
   9.000000E+99

> <Gold.Protein.RotatedTorsions>
[ 6907 6896 6895 6894 ] final   41.16 input  -60.11 | X-H torsion
[ 7974 7965 7964 7962 ] final   -5.16 input  175.53 | X-H torsion
[ 8008 7997 7996 7995 ] final  -66.59 input   59.86 | X-H torsion
[ 10167 10162 10161 10158 ] final   53.00 input  -65.29 | X-H torsion
[ 10718 10713 10712 10709 ] final   63.21 input   66.30 | X-H torsion
[ 10763 10752 10751 10750 ] final   91.43 input  -60.55 | X-H torsion
[ 11005 11000 10999 10996 ] final   41.46 input  -57.11 | X-H torsion

> <Gold.Protein.ActiveResidues>
 VAL166  LYS551  ARG553  GLY616  TRP617  ASP618  TYR619  PRO620  LYS621  CYS622 
 ASP623  PHE694  ASN695  SER759  ASP760  ASP761  ALA762  ILE779  LEU786  VAL792 
 PHE793  MET794  SER795  GLU796  ALA797  LYS798  CYS799  TRP800  GLU811  SER814 

> <Gold.Protein.RotatedAtoms>
  152.1917  134.8666  160.0516 H   0  0  0  0  0  0  0  0  0  0  0  0  # atno 6907 bound_to 6896
  151.9553  133.3673  159.4023 H   0  0  0  0  0  0  0  0  0  0  0  0  # atno 6908 bound_to 6896
  150.6936  134.4221  159.5254 H   0  0  0  0  0  0  0  0  0  0  0  0  # atno 6909 bound_to 6896
  146.2358  140.1980  142.8333 H   0  0  0  0  0  0  0  0  0  0  0  0  # atno 7974 bound_to 7965
  154.4744  140.0909  156.7226 H   0  0  0  0  0  0  0  0  0  0  0  0  # atno 8008 bound_to 7997
  155.4635  140.3462  155.4297 H   0  0  0  0  0  0  0  0  0  0  0  0  # atno 8009 bound_to 7997
  156.1093  140.1443  156.9349 H   0  0  0  0  0  0  0  0  0  0  0  0  # atno 8010 bound_to 7997
  140.2454  144.3538  150.6366 H   0  0  0  0  0  0  0  0  0  0  0  0  # atno 10167 bound_to 10162
  157.5955  130.9093  149.9687 H   0  0  0  0  0  0  0  0  0  0  0  0  # atno 10718 bound_to 10713
  153.2082  135.4398  155.0348 H   0  0  0  0  0  0  0  0  0  0  0  0  # atno 10763 bound_to 10752
  154.8185  135.3326  154.7109 H   0  0  0  0  0  0  0  0  0  0  0  0  # atno 10764 bound_to 10752
  153.7549  135.6995  153.4993 H   0  0  0  0  0  0  0  0  0  0  0  0  # atno 10765 bound_to 10752
  140.1832  134.4078  155.8188 H   0  0  0  0  0  0  0  0  0  0  0  0  # atno 11005 bound_to 11000
  144.9805  140.8454  143.5400 LP  0  0  0  0  0  0  0  0  0  0  0  0  # atno 17320 bound_to 7965
  145.1973  139.2270  143.5211 LP  0  0  0  0  0  0  0  0  0  0  0  0  # atno 17321 bound_to 7965
  140.6081  143.2168  151.6940 LP  0  0  0  0  0  0  0  0  0  0  0  0  # atno 17342 bound_to 10162
  139.5063  144.3685  152.0493 LP  0  0  0  0  0  0  0  0  0  0  0  0  # atno 17343 bound_to 10162
  156.1017  130.3655  150.0205 LP  0  0  0  0  0  0  0  0  0  0  0  0  # atno 17370 bound_to 10713
  156.8319  130.9395  151.3636 LP  0  0  0  0  0  0  0  0  0  0  0  0  # atno 17371 bound_to 10713
  141.2224  133.7010  156.7967 LP  0  0  0  0  0  0  0  0  0  0  0  0  # atno 17394 bound_to 11000
  140.2243  134.8733  157.3410 LP  0  0  0  0  0  0  0  0  0  0  0  0  # atno 17395 bound_to 11000

$$$$
