AV-unprocessed.smi:3048|AV-procd|sdf|11625|dock7
  -GOLD-   2272017 13D 1   1.00000     0.00000
 Structure written by MMmdl.
 38 39  0  0  0  0  0  0  0  0  2 V2000
  153.2538  142.8946  162.7555 C   0  0  0  0  0  0  0  0  0  0  0  0
  152.8790  142.9018  161.3016 C   0  0  0  0  0  0  0  0  0  0  0  0
  153.0832  141.8712  160.3406 C   0  0  0  0  0  0  0  0  0  0  0  0
  152.6299  142.1915  159.1395 N   0  0  0  0  0  0  0  0  0  0  0  0
  152.1276  143.4356  159.2894 N   0  0  0  0  0  0  0  0  0  0  0  0
  151.5201  144.1104  158.1563 C   0  0  0  0  0  0  0  0  0  0  0  0
  151.5127  143.2274  156.8986 C   0  0  0  0  0  0  0  0  0  0  0  0
  150.2077  142.5621  156.7121 N   0  3  0  0  0  0  0  0  0  0  0  0
  150.2146  141.4823  155.7067 C   0  0  0  0  0  0  0  0  0  0  0  0
  148.7843  141.1125  155.2902 C   0  0  2  0  0  0  0  0  0  0  0  0
  148.7137  139.7093  154.6575 C   0  0  0  0  0  0  0  0  0  0  0  0
  147.2928  139.4098  154.1660 C   0  0  0  0  0  0  0  0  0  0  0  0
  146.8139  140.5379  153.2465 C   0  0  0  0  0  0  0  0  0  0  0  0
  146.9866  141.8997  153.9372 C   0  0  0  0  0  0  0  0  0  0  0  0
  148.3440  142.0739  154.3326 O   0  0  0  0  0  0  0  0  0  0  0  0
  152.2642  143.8887  160.5843 C   0  0  0  0  0  0  0  0  0  0  0  0
  153.7318  141.9592  163.0472 H   0  0  0  0  0  0  0  0  0  0  0  0
  152.3811  143.0216  163.3963 H   0  0  0  0  0  0  0  0  0  0  0  0
  153.9497  143.6987  162.9949 H   0  0  0  0  0  0  0  0  0  0  0  0
  153.5429  140.9038  160.4808 H   0  0  0  0  0  0  0  0  0  0  0  0
  150.4979  144.3762  158.4282 H   0  0  0  0  0  0  0  0  0  0  0  0
  152.0476  145.0474  157.9696 H   0  0  0  0  0  0  0  0  0  0  0  0
  151.7440  143.8335  156.0216 H   0  0  0  0  0  0  0  0  0  0  0  0
  152.2900  142.4664  156.9751 H   0  0  0  0  0  0  0  0  0  0  0  0
  149.9025  142.1860  157.5982 H   0  0  0  0  0  0  0  0  0  0  0  0
  150.7892  141.7959  154.8340 H   0  0  0  0  0  0  0  0  0  0  0  0
  150.7185  140.6124  156.1303 H   0  0  0  0  0  0  0  0  0  0  0  0
  148.1354  141.1486  156.1676 H   0  0  0  0  0  0  0  0  0  0  0  0
  149.4088  139.6477  153.8189 H   0  0  0  0  0  0  0  0  0  0  0  0
  149.0251  138.9520  155.3776 H   0  0  0  0  0  0  0  0  0  0  0  0
  147.2641  138.4538  153.6424 H   0  0  0  0  0  0  0  0  0  0  0  0
  146.6196  139.3207  155.0196 H   0  0  0  0  0  0  0  0  0  0  0  0
  147.3887  140.5252  152.3194 H   0  0  0  0  0  0  0  0  0  0  0  0
  145.7704  140.3832  152.9704 H   0  0  0  0  0  0  0  0  0  0  0  0
  146.7131  142.7036  153.2537 H   0  0  0  0  0  0  0  0  0  0  0  0
  146.3298  141.9828  154.8044 H   0  0  0  0  0  0  0  0  0  0  0  0
  151.9123  144.8643  160.8870 H   0  0  0  0  0  0  0  0  0  0  0  0
  149.5408  143.2613  156.4153 H   0  0  0  0  0  0  0  0  0  0  0  0
  1  2  1  0  0  0  0
  1 17  1  0  0  0  0
  1 18  1  0  0  0  0
  1 19  1  0  0  0  0
  2 16  2  0  0  0  0
  2  3  1  0  0  0  0
  3  4  2  0  0  0  0
  3 20  1  0  0  0  0
  4  5  1  0  0  0  0
  5  6  1  0  0  0  0
  5 16  1  0  0  0  0
  6  7  1  0  0  0  0
  6 21  1  0  0  0  0
  6 22  1  0  0  0  0
  7  8  1  0  0  0  0
  7 23  1  0  0  0  0
  7 24  1  0  0  0  0
  8  9  1  0  0  0  0
  8 25  1  0  0  0  0
  8 38  1  0  0  0  0
  9 10  1  0  0  0  0
  9 26  1  0  0  0  0
  9 27  1  0  0  0  0
 10 15  1  0  0  0  0
 10 11  1  0  0  0  0
 10 28  1  0  0  0  0
 11 12  1  0  0  0  0
 11 29  1  0  0  0  0
 11 30  1  0  0  0  0
 12 13  1  0  0  0  0
 12 31  1  0  0  0  0
 12 32  1  0  0  0  0
 13 14  1  0  0  0  0
 13 33  1  0  0  0  0
 13 34  1  0  0  0  0
 14 15  1  0  0  0  0
 14 35  1  0  0  0  0
 14 36  1  0  0  0  0
 16 37  1  0  0  0  0
M  CHG  1   8   1
M  END
> <s_m_source_file>
AV-unprocessed.smi

> <i_m_source_file_index>
3048

> <i_lp_mmshare_version>
43012

> <i_f3d_flags>
0

> <s_epik_input>
W0NIM11jMVtjSF1ubihbY0hdMSlbQ0gyXVtDSDJdW05IXVtDSDJdW0NAQEhdMltDSDJdW0NIMl1bQ0gyXVtDSDJdTzI=

> <s_epik_cmdline>
J2VwaWtfcHl0aG9uJywgJy1waCcsICc3LjAnLCAnLXRuJywgJzgnLCAnLW1hJywgJzIwMCcsICctbWV0YWxfYmluZGluZycsICctaW1hZScsICc8aW5maWxlLm1hZT4nLCAnLW9tYWUnLCAnPG91dGZpbGUubWFlPic=

> <r_lp_tautomer_probability>
1

> <r_epik_Ionization_Penalty>
0.0084937

> <r_epik_Ionization_Penalty_Charging>
0.00848754

> <r_epik_Ionization_Penalty_Neutral>
6.1613e-06

> <r_epik_State_Penalty>
0.00639836

> <r_epik_Charging_Adjusted_Penalty>
0.0148859

> <i_epik_Tot_Q>
1

> <i_epik_Tot_abs_Q>
1

> <r_epik_Metal_State_Penalty>
0.00642541

> <b_epik_Metal_Only>
0

> <s_lp_Force_Field>
OPLS_2005

> <r_lp_Energy>
10.6877

> <b_lp_Chiralities_Consistent>
1

> <s_lp_Variant>
AV-unprocessed.smi:3048-1

> <Gold.Version>
5.8.1

> <Gold.Id.Protein>
6NUR|6NUR_protein|mol2

> <Gold.PLP.Fitness>
47.3139

> <Gold.PLP.PLP>
-41.7380

> <Gold.PLP.part.hbond>
-2.0000

> <Gold.PLP.part.metal>
0.0000

> <Gold.PLP.part.buried>
-4.7440

> <Gold.PLP.part.nonpolar>
-33.9961

> <Gold.PLP.part.repulsive>
0.4697

> <Gold.PLP.ligand.clash>
0.0000

> <Gold.PLP.ligand.torsion>
0.5642

> <Gold.PLP.Chemscore.Hbond>
2.2275

> <Gold.PLP.Chemscore.CHOScore>
0.0000

> <Gold.PLP.Chemscore.Metal>
0.0000

> <Gold.Chemscore.Hbonds>
donor molecule, donor type, donor heavy atom, donor atom, acceptor molecule, acceptor atom, score
      L1  H     8    38       P1  8028  2.00

> <Gold.PLP.Chemscore.Internal.Correction>
0.0218

> <Gold.Rescore>
     Score         DG    S(hbond)    S(metal)    S(lipo)     H(rot)  DE(clash)    DE(int)     intcor
     16.21     -18.03       1.11        0.00     110.84       1.61       1.26       0.56       ----

> <Gold.Chemscore.Fitness>
16.2082

> <Gold.Chemscore.DG>
-18.0308

> <Gold.Chemscore.ZeroCoef>
-5.4800

> <Gold.Chemscore.Hbond>
1.1129

> <Gold.Chemscore.Metal>
0.0000

> <Gold.Chemscore.Lipo>
110.8353

> <Gold.Chemscore.Internal_Hbond>
0.0000

> <Gold.Chemscore.DEClash>
1.2636

> <Gold.Chemscore.DEInternal>
0.5590

> <Gold.Chemscore.Rot>
1.6149

> <Gold.Chemscore.Internal.Correction>
   9.000000E+99

> <Gold.Chemscore.Hbonds>
donor molecule, donor type, donor heavy atom, donor atom, acceptor molecule, acceptor atom, score
      L1  H     8    38       P1  8028  1.00
      P1  H  8011  8017       L1    15  0.01

> <Gold.Chemscore.Hbond.Weighted>
-3.7172

> <Gold.Chemscore.Metal.Weighted>
-0.0000

> <Gold.Chemscore.Lipo.Weighted>
-12.9677

> <Gold.Chemscore.Internal_Hbond.Weighted>
0.0000

> <Gold.Chemscore.DEClash.Weighted>
1.2636

> <Gold.Chemscore.DEInternal.Weighted>
0.5590

> <Gold.Chemscore.Rot.Weighted>
4.1341

> <Gold.Chemscore.Internal.Correction.Weighted>
   9.000000E+99

> <Gold.Protein.RotatedTorsions>
[ 6907 6896 6895 6894 ] final   73.99 input  -60.11 | X-H torsion
[ 7974 7965 7964 7962 ] final  -73.42 input  175.53 | X-H torsion
[ 8008 7997 7996 7995 ] final  -95.06 input   59.86 | X-H torsion
[ 10167 10162 10161 10158 ] final   97.51 input  -65.29 | X-H torsion
[ 10718 10713 10712 10709 ] final   28.28 input   66.30 | X-H torsion
[ 10763 10752 10751 10750 ] final  -94.15 input  -60.55 | X-H torsion
[ 11005 11000 10999 10996 ] final   72.82 input  -57.11 | X-H torsion

> <Gold.Protein.ActiveResidues>
 VAL166  LYS551  ARG553  GLY616  TRP617  ASP618  TYR619  PRO620  LYS621  CYS622 
 ASP623  PHE694  ASN695  SER759  ASP760  ASP761  ALA762  ILE779  LEU786  VAL792 
 PHE793  MET794  SER795  GLU796  ALA797  LYS798  CYS799  TRP800  GLU811  SER814 

> <Gold.Protein.RotatedAtoms>
  152.4952  134.4339  159.9521 H   0  0  0  0  0  0  0  0  0  0  0  0  # atno 6907 bound_to 6896
  151.4319  133.3662  159.2777 H   0  0  0  0  0  0  0  0  0  0  0  0  # atno 6908 bound_to 6896
  150.9148  134.8589  159.7509 H   0  0  0  0  0  0  0  0  0  0  0  0  # atno 6909 bound_to 6896
  145.6524  140.9278  143.0978 H   0  0  0  0  0  0  0  0  0  0  0  0  # atno 7974 bound_to 7965
  154.7564  140.0483  157.0937 H   0  0  0  0  0  0  0  0  0  0  0  0  # atno 8008 bound_to 7997
  154.9993  140.3122  155.4854 H   0  0  0  0  0  0  0  0  0  0  0  0  # atno 8009 bound_to 7997
  156.2895  140.2204  156.5102 H   0  0  0  0  0  0  0  0  0  0  0  0  # atno 8010 bound_to 7997
  139.7794  144.6894  151.0044 H   0  0  0  0  0  0  0  0  0  0  0  0  # atno 10167 bound_to 10162
  157.2314  130.7025  149.6315 H   0  0  0  0  0  0  0  0  0  0  0  0  # atno 10718 bound_to 10713
  154.7027  135.5168  153.8550 H   0  0  0  0  0  0  0  0  0  0  0  0  # atno 10763 bound_to 10752
  153.0717  135.6603  154.0243 H   0  0  0  0  0  0  0  0  0  0  0  0  # atno 10764 bound_to 10752
  154.0099  135.3003  155.3373 H   0  0  0  0  0  0  0  0  0  0  0  0  # atno 10765 bound_to 10752
  139.9471  134.7293  156.0952 H   0  0  0  0  0  0  0  0  0  0  0  0  # atno 11005 bound_to 11000
  144.7118  139.8343  143.7412 LP  0  0  0  0  0  0  0  0  0  0  0  0  # atno 17320 bound_to 7965
  146.1193  139.4209  143.0238 LP  0  0  0  0  0  0  0  0  0  0  0  0  # atno 17321 bound_to 7965
  140.7818  143.4500  151.0427 LP  0  0  0  0  0  0  0  0  0  0  0  0  # atno 17342 bound_to 10162
  139.8181  143.7858  152.3175 LP  0  0  0  0  0  0  0  0  0  0  0  0  # atno 17343 bound_to 10162
  155.9675  130.4487  150.5632 LP  0  0  0  0  0  0  0  0  0  0  0  0  # atno 17370 bound_to 10713
  157.3474  131.0727  151.1740 LP  0  0  0  0  0  0  0  0  0  0  0  0  # atno 17371 bound_to 10713
  141.1124  133.6639  156.3012 LP  0  0  0  0  0  0  0  0  0  0  0  0  # atno 17394 bound_to 11000
  140.5808  134.5748  157.5479 LP  0  0  0  0  0  0  0  0  0  0  0  0  # atno 17395 bound_to 11000

$$$$
