AV-unprocessed.smi:72|AV-procd|sdf|689|dock2
  -GOLD-   2262017 03D 1   1.00000     0.00000
 Structure written by MMmdl.
 29 30  0  0  0  0  0  0  0  0  1 V2000
  153.2906  138.9921  156.7409 N   0  0  0  0  0  0  0  0  0  0  0  0
  152.1155  139.2655  156.2988 C   0  0  0  0  0  0  0  0  0  0  0  0
  151.7654  139.3912  154.9462 N   0  0  0  0  0  0  0  0  0  0  0  0
  150.5345  139.6719  154.6453 C   0  0  0  0  0  0  0  0  0  0  0  0
  149.5110  139.8635  155.6639 N   0  0  0  0  0  0  0  0  0  0  0  0
  148.0687  140.1927  155.3193 C   0  0  2  0  0  0  0  0  0  0  0  0
  147.6010  139.3245  154.3270 O   0  0  0  0  0  0  0  0  0  0  0  0
  147.4628  140.0190  153.0907 C   0  0  1  0  0  0  0  0  0  0  0  0
  146.4736  139.3014  152.1557 C   0  0  0  0  0  0  0  0  0  0  0  0
  147.1080  138.2084  151.5265 O   0  0  0  0  0  0  0  0  0  0  0  0
  147.0529  141.4286  153.5342 C   0  0  1  0  0  0  0  0  0  0  0  0
  145.6689  141.4900  153.8293 O   0  0  0  0  0  0  0  0  0  0  0  0
  147.8751  141.6388  154.7989 C   0  0  2  0  0  0  0  0  0  0  0  0
  149.0854  142.3015  154.4751 O   0  0  0  0  0  0  0  0  0  0  0  0
  149.8512  139.7407  157.0334 C   0  0  0  0  0  0  0  0  0  0  0  0
  149.0275  139.9043  157.9333 O   0  0  0  0  0  0  0  0  0  0  0  0
  151.1428  139.4428  157.2906 N   0  0  0  0  0  0  0  0  0  0  0  0
  147.4991  139.9852  156.2269 H   0  0  0  0  0  0  0  0  0  0  0  0
  148.4406  140.0920  152.6110 H   0  0  0  0  0  0  0  0  0  0  0  0
  147.2652  142.1740  152.7663 H   0  0  0  0  0  0  0  0  0  0  0  0
  147.3472  142.2331  155.5461 H   0  0  0  0  0  0  0  0  0  0  0  0
  153.2807  138.9579  157.7503 H   0  0  0  0  0  0  0  0  0  0  0  0
  150.1981  139.7798  153.6144 H   0  0  0  0  0  0  0  0  0  0  0  0
  145.5875  138.9647  152.6948 H   0  0  0  0  0  0  0  0  0  0  0  0
  146.1401  139.9797  151.3697 H   0  0  0  0  0  0  0  0  0  0  0  0
  147.5664  137.7077  152.1841 H   0  0  0  0  0  0  0  0  0  0  0  0
  145.1954  141.0410  153.1460 H   0  0  0  0  0  0  0  0  0  0  0  0
  149.0998  143.1321  154.9258 H   0  0  0  0  0  0  0  0  0  0  0  0
  151.4192  139.3487  158.2570 H   0  0  0  0  0  0  0  0  0  0  0  0
  1  2  2  0  0  0  0
  1 22  1  0  0  0  0
  2 17  1  0  0  0  0
  2  3  1  0  0  0  0
  3  4  2  0  0  0  0
  4  5  1  0  0  0  0
  4 23  1  0  0  0  0
  5  6  1  0  0  0  0
  5 15  1  0  0  0  0
  6 18  1  0  0  0  0
  6 13  1  0  0  0  0
  6  7  1  0  0  0  0
  7  8  1  0  0  0  0
  8 19  1  0  0  0  0
  8  9  1  0  0  0  0
  8 11  1  0  0  0  0
  9 10  1  0  0  0  0
  9 24  1  0  0  0  0
  9 25  1  0  0  0  0
 10 26  1  0  0  0  0
 11 20  1  0  0  0  0
 11 12  1  0  0  0  0
 11 13  1  0  0  0  0
 12 27  1  0  0  0  0
 13 21  1  0  0  0  0
 13 14  1  0  0  0  0
 14 28  1  0  0  0  0
 15 16  2  0  0  0  0
 15 17  1  0  0  0  0
 17 29  1  0  0  0  0
M  END
> <s_m_source_file>
AV-unprocessed.smi

> <i_m_source_file_index>
72

> <i_lp_mmshare_version>
43012

> <i_f3d_flags>
0

> <s_epik_input>
W05IMl1jMW5bY0hdbihjKD1PKW4xKVtDQEBIXTJPW0NASF0oW0NIMl1bT0hdKVtDQEBIXShbT0hdKVtDQEhdMltPSF0=

> <s_epik_cmdline>
J2VwaWtfcHl0aG9uJywgJy1waCcsICc3LjAnLCAnLXRuJywgJzgnLCAnLW1hJywgJzIwMCcsICctbWV0YWxfYmluZGluZycsICctaW1hZScsICc8aW5maWxlLm1hZT4nLCAnLW9tYWUnLCAnPG91dGZpbGUubWFlPic=

> <r_lp_tautomer_probability>
7.17554e-07

> <r_epik_Ionization_Penalty>
0.0066451

> <r_epik_Ionization_Penalty_Charging>
0.00663793

> <r_epik_Ionization_Penalty_Neutral>
7.17052e-06

> <r_epik_State_Penalty>
0.419231

> <r_epik_Charging_Adjusted_Penalty>
0.425868

> <i_epik_Tot_Q>
0

> <i_epik_Tot_abs_Q>
0

> <r_epik_Metal_State_Penalty>
1.44144

> <b_epik_Metal_Only>
0

> <s_epik_Chemistry_Notes>
This compound contains an acetal/aminal-like group ( X-CH(R)-Y where X, Y are N, S, or O) that may be acid/base labile, releasing an aldehyde.

> <s_lp_Force_Field>
OPLS_2005

> <r_lp_Energy>
44.3496

> <b_lp_Chiralities_Consistent>
1

> <s_lp_Variant>
AV-unprocessed.smi:72-27

> <Gold.Version>
5.8.1

> <Gold.Id.Protein>
6NUR|6NUR_protein|mol2

> <Gold.PLP.Fitness>
39.5462

> <Gold.PLP.PLP>
-23.4025

> <Gold.PLP.part.hbond>
-7.9304

> <Gold.PLP.part.metal>
0.0000

> <Gold.PLP.part.buried>
1.7759

> <Gold.PLP.part.nonpolar>
-17.8702

> <Gold.PLP.part.repulsive>
0.2047

> <Gold.PLP.ligand.clash>
0.0000

> <Gold.PLP.ligand.torsion>
0.4069

> <Gold.PLP.Chemscore.Hbond>
4.6230

> <Gold.PLP.Chemscore.CHOScore>
1.0000

> <Gold.PLP.Chemscore.Metal>
0.0000

> <Gold.Chemscore.Hbonds>
donor molecule, donor type, donor heavy atom, donor atom, acceptor molecule, acceptor atom, score
      L1  H    10    26       P1  7948  0.51
      L1  H    12    27       P1 10175  0.99
      L1  H    14    28       P1  8028  1.00
      P1  H  7954  7966       L1    10  1.00
      P1  H  7997  8010       L1     1  1.00
      P1  H  8011  8017       L1    14  0.10
      L1  C     4    23       P1  7957  1.00

> <Gold.PLP.Chemscore.Internal.Correction>
0.0886

> <Gold.Rescore>
     Score         DG    S(hbond)    S(metal)    S(lipo)     H(rot)  DE(clash)    DE(int)     intcor
      9.81     -11.23       3.88        0.00      27.31       4.06       0.06       1.37       ----

> <Gold.Chemscore.Fitness>
9.8099

> <Gold.Chemscore.DG>
-11.2329

> <Gold.Chemscore.ZeroCoef>
-5.4800

> <Gold.Chemscore.Hbond>
3.8774

> <Gold.Chemscore.Metal>
0.0000

> <Gold.Chemscore.Lipo>
27.3150

> <Gold.Chemscore.Internal_Hbond>
0.0000

> <Gold.Chemscore.DEClash>
0.0575

> <Gold.Chemscore.DEInternal>
1.3655

> <Gold.Chemscore.Rot>
4.0600

> <Gold.Chemscore.Internal.Correction>
   9.000000E+99

> <Gold.Chemscore.Hbonds>
donor molecule, donor type, donor heavy atom, donor atom, acceptor molecule, acceptor atom, score
      L1  H    10    26       P1  7948  0.49
      L1  H    12    27       P1 10175  0.32
      L1  H    14    28       P1  8028  1.00
      P1  H  7954  7966       L1    10  0.39
      P1  H  7997  8010       L1     1  0.30
      P1  H  8011  8017       L1    14  0.09

> <Gold.Chemscore.Hbond.Weighted>
-12.9506

> <Gold.Chemscore.Metal.Weighted>
-0.0000

> <Gold.Chemscore.Lipo.Weighted>
-3.1958

> <Gold.Chemscore.Internal_Hbond.Weighted>
0.0000

> <Gold.Chemscore.DEClash.Weighted>
0.0575

> <Gold.Chemscore.DEInternal.Weighted>
1.3655

> <Gold.Chemscore.Rot.Weighted>
10.3936

> <Gold.Chemscore.Internal.Correction.Weighted>
   9.000000E+99

> <Gold.Protein.RotatedTorsions>
[ 6907 6896 6895 6894 ] final -108.03 input  -60.11 | X-H torsion
[ 7974 7965 7964 7962 ] final   82.46 input  175.53 | X-H torsion
[ 8008 7997 7996 7995 ] final   70.86 input   59.86 | X-H torsion
[ 10167 10162 10161 10158 ] final  164.63 input  -65.29 | X-H torsion
[ 10718 10713 10712 10709 ] final  148.02 input   66.30 | X-H torsion
[ 10763 10752 10751 10750 ] final   47.91 input  -60.55 | X-H torsion
[ 11005 11000 10999 10996 ] final   51.97 input  -57.11 | X-H torsion

> <Gold.Protein.ActiveResidues>
 VAL166  LYS551  ARG553  GLY616  TRP617  ASP618  TYR619  PRO620  LYS621  CYS622 
 ASP623  PHE694  ASN695  SER759  ASP760  ASP761  ALA762  ILE779  LEU786  VAL792 
 PHE793  MET794  SER795  GLU796  ALA797  LYS798  CYS799  TRP800  GLU811  SER814 

> <Gold.Protein.RotatedAtoms>
  150.7478  133.9739  159.3554 H   0  0  0  0  0  0  0  0  0  0  0  0  # atno 6907 bound_to 6896
  151.7675  135.0793  160.0364 H   0  0  0  0  0  0  0  0  0  0  0  0  # atno 6908 bound_to 6896
  152.3362  133.5977  159.5880 H   0  0  0  0  0  0  0  0  0  0  0  0  # atno 6909 bound_to 6896
  145.6247  139.2393  143.2118 H   0  0  0  0  0  0  0  0  0  0  0  0  # atno 7974 bound_to 7965
  155.7452  140.3489  155.5123 H   0  0  0  0  0  0  0  0  0  0  0  0  # atno 8008 bound_to 7997
  155.9057  140.1041  157.1338 H   0  0  0  0  0  0  0  0  0  0  0  0  # atno 8009 bound_to 7997
  154.4049  140.1277  156.4480 H   0  0  0  0  0  0  0  0  0  0  0  0  # atno 8010 bound_to 7997
  139.4892  144.4215  151.9181 H   0  0  0  0  0  0  0  0  0  0  0  0  # atno 10167 bound_to 10162
  157.3138  131.0892  151.1295 H   0  0  0  0  0  0  0  0  0  0  0  0  # atno 10718 bound_to 10713
  152.9796  135.5961  154.3840 H   0  0  0  0  0  0  0  0  0  0  0  0  # atno 10763 bound_to 10752
  154.3502  135.2767  155.2378 H   0  0  0  0  0  0  0  0  0  0  0  0  # atno 10764 bound_to 10752
  154.4420  135.6011  153.6191 H   0  0  0  0  0  0  0  0  0  0  0  0  # atno 10765 bound_to 10752
  140.0888  134.5238  155.8873 H   0  0  0  0  0  0  0  0  0  0  0  0  # atno 11005 bound_to 11000
  146.1403  140.7066  142.9370 LP  0  0  0  0  0  0  0  0  0  0  0  0  # atno 17320 bound_to 7965
  144.7217  140.4394  143.7003 LP  0  0  0  0  0  0  0  0  0  0  0  0  # atno 17321 bound_to 7965
  140.3659  144.2915  150.5926 LP  0  0  0  0  0  0  0  0  0  0  0  0  # atno 17342 bound_to 10162
  140.5362  143.2233  151.8160 LP  0  0  0  0  0  0  0  0  0  0  0  0  # atno 17343 bound_to 10162
  157.2607  130.6658  149.5973 LP  0  0  0  0  0  0  0  0  0  0  0  0  # atno 17370 bound_to 10713
  155.9680  130.4509  150.5716 LP  0  0  0  0  0  0  0  0  0  0  0  0  # atno 17371 bound_to 10713
  141.2071  133.6661  156.6285 LP  0  0  0  0  0  0  0  0  0  0  0  0  # atno 17394 bound_to 11000
  140.3382  134.7871  157.4378 LP  0  0  0  0  0  0  0  0  0  0  0  0  # atno 17395 bound_to 11000

$$$$
