AV-unprocessed.smi:1738|AV-procd|sdf|7001|dock1
  -GOLD-   22720 8213D 1   1.00000     0.00000
 Structure written by MMmdl.
 46 48  0  0  0  0  0  0  0  0  2 V2000
  152.1036  139.1995  159.1660 C   0  0  0  0  0  0  0  0  0  0  0  0
  153.0138  137.7394  158.5158 S   0  0  0  0  0  0  0  0  0  0  0  0
  154.2619  138.2219  157.9040 O   0  0  0  0  0  0  0  0  0  0  0  0
  153.0709  136.7214  159.5763 O   0  0  0  0  0  0  0  0  0  0  0  0
  151.9524  137.1203  157.2151 C   0  0  0  0  0  0  0  0  0  0  0  0
  151.9014  137.7687  155.9649 C   0  0  0  0  0  0  0  0  0  0  0  0
  151.0165  137.2670  154.9915 C   0  0  0  0  0  0  0  0  0  0  0  0
  150.2083  136.1469  155.3108 C   0  0  0  0  0  0  0  0  0  0  0  0
  149.2735  135.5363  154.4291 N   0  0  0  0  0  0  0  0  0  0  0  0
  148.3749  134.5665  154.6728 C   0  0  0  0  0  0  0  0  0  0  0  0
  148.1680  134.0351  155.7625 O   0  0  0  0  0  0  0  0  0  0  0  0
  147.7076  134.2372  153.5572 N   0  0  0  0  0  0  0  0  0  0  0  0
  146.6789  133.2022  153.4652 C   0  0  2  0  0  0  0  0  0  0  0  0
  147.2436  131.8196  153.0881 C   0  0  0  0  0  0  0  0  0  0  0  0
  146.2061  131.2300  152.1271 C   0  0  0  0  0  0  0  0  0  0  0  0
  145.7110  132.4145  151.4162 N   0  3  1  0  0  0  0  0  0  0  0  0
  144.5144  132.2814  150.5612 C   0  0  0  0  0  0  0  0  0  0  0  0
  144.3247  133.6017  149.7831 C   0  0  0  0  0  0  0  0  0  0  0  0
  144.3164  134.8365  150.7135 C   0  0  0  0  0  0  0  0  0  0  0  0
  145.5249  134.8424  151.6753 C   0  0  0  0  0  0  0  0  0  0  0  0
  145.5831  133.4924  152.4121 C   0  0  2  0  0  0  0  0  0  0  0  0
  150.3437  135.5859  156.5993 C   0  0  0  0  0  0  0  0  0  0  0  0
  151.1869  136.0580  157.5407 N   0  0  0  0  0  0  0  0  0  0  0  0
  152.6790  139.6567  159.9704 H   0  0  0  0  0  0  0  0  0  0  0  0
  151.1335  138.8829  159.5489 H   0  0  0  0  0  0  0  0  0  0  0  0
  151.9587  139.9241  158.3652 H   0  0  0  0  0  0  0  0  0  0  0  0
  152.5220  138.6260  155.7508 H   0  0  0  0  0  0  0  0  0  0  0  0
  150.9853  137.7538  154.0305 H   0  0  0  0  0  0  0  0  0  0  0  0
  149.3243  135.8540  153.4723 H   0  0  0  0  0  0  0  0  0  0  0  0
  147.9395  134.7268  152.7053 H   0  0  0  0  0  0  0  0  0  0  0  0
  146.1941  133.1017  154.4386 H   0  0  0  0  0  0  0  0  0  0  0  0
  148.1956  131.9281  152.5658 H   0  0  0  0  0  0  0  0  0  0  0  0
  147.4160  131.1840  153.9573 H   0  0  0  0  0  0  0  0  0  0  0  0
  146.6329  130.4921  151.4470 H   0  0  0  0  0  0  0  0  0  0  0  0
  145.3900  130.7633  152.6810 H   0  0  0  0  0  0  0  0  0  0  0  0
  144.6476  131.4514  149.8666 H   0  0  0  0  0  0  0  0  0  0  0  0
  143.6384  132.0578  151.1717 H   0  0  0  0  0  0  0  0  0  0  0  0
  145.1347  133.7085  149.0605 H   0  0  0  0  0  0  0  0  0  0  0  0
  143.4022  133.5651  149.2029 H   0  0  0  0  0  0  0  0  0  0  0  0
  144.3053  135.7515  150.1206 H   0  0  0  0  0  0  0  0  0  0  0  0
  143.3945  134.8382  151.2963 H   0  0  0  0  0  0  0  0  0  0  0  0
  146.4467  135.0121  151.1173 H   0  0  0  0  0  0  0  0  0  0  0  0
  145.4250  135.6638  152.3853 H   0  0  0  0  0  0  0  0  0  0  0  0
  144.6285  133.3532  152.9243 H   0  0  0  0  0  0  0  0  0  0  0  0
  149.7500  134.7307  156.8882 H   0  0  0  0  0  0  0  0  0  0  0  0
  146.4663  132.6917  150.8057 H   0  0  0  0  0  0  0  0  0  0  0  0
  1  2  1  0  0  0  0
  1 24  1  0  0  0  0
  1 25  1  0  0  0  0
  1 26  1  0  0  0  0
  2  3  2  0  0  0  0
  2  4  2  0  0  0  0
  2  5  1  0  0  0  0
  5 23  1  0  0  0  0
  5  6  2  0  0  0  0
  6  7  1  0  0  0  0
  6 27  1  0  0  0  0
  7  8  2  0  0  0  0
  7 28  1  0  0  0  0
  8  9  1  0  0  0  0
  8 22  1  0  0  0  0
  9 10  1  0  0  0  0
  9 29  1  0  0  0  0
 10 11  2  0  0  0  0
 10 12  1  0  0  0  0
 12 13  1  0  0  0  0
 12 30  1  0  0  0  0
 13 21  1  0  0  0  0
 13 14  1  0  0  0  0
 13 31  1  0  0  0  0
 14 15  1  0  0  0  0
 14 32  1  0  0  0  0
 14 33  1  0  0  0  0
 15 16  1  0  0  0  0
 15 34  1  0  0  0  0
 15 35  1  0  0  0  0
 16 21  1  0  0  0  0
 16 17  1  0  0  0  0
 16 46  1  0  0  0  0
 17 18  1  0  0  0  0
 17 36  1  0  0  0  0
 17 37  1  0  0  0  0
 18 19  1  0  0  0  0
 18 38  1  0  0  0  0
 18 39  1  0  0  0  0
 19 20  1  0  0  0  0
 19 40  1  0  0  0  0
 19 41  1  0  0  0  0
 20 21  1  0  0  0  0
 20 42  1  0  0  0  0
 20 43  1  0  0  0  0
 21 44  1  0  0  0  0
 22 23  2  0  0  0  0
 22 45  1  0  0  0  0
M  CHG  1  16   1
M  END
> <s_m_source_file>
AV-unprocessed.smi

> <i_m_source_file_index>
1738

> <i_lp_mmshare_version>
43012

> <i_f3d_flags>
0

> <s_epik_input>
W0NIM11TKD1PKSg9TyljMVtjSF1bY0hdYyhbY0hdbjEpW05IXUMoPU8pW05IXVtDQEhdKFtDSDJdW0NIMl0yKVtDQEBIXShOMjMpW0NIMl1bQ0gyXVtDSDJdW0NIMl0z

> <s_epik_cmdline>
J2VwaWtfcHl0aG9uJywgJy1waCcsICc3LjAnLCAnLXRuJywgJzgnLCAnLW1hJywgJzIwMCcsICctbWV0YWxfYmluZGluZycsICctaW1hZScsICc8aW5maWxlLm1hZT4nLCAnLW9tYWUnLCAnPG91dGZpbGUubWFlPic=

> <r_epik_Ionization_Penalty>
0.00100042

> <r_epik_Ionization_Penalty_Charging>
0.000974069

> <r_epik_Ionization_Penalty_Neutral>
2.63543e-05

> <r_epik_State_Penalty>
0.000633842

> <r_epik_Charging_Adjusted_Penalty>
0.00160791

> <i_epik_Tot_Q>
1

> <i_epik_Tot_abs_Q>
1

> <r_epik_Metal_State_Penalty>
-0

> <b_epik_Metal_Only>
0

> <s_lp_Force_Field>
OPLS_2005

> <r_lp_Energy>
43.1351

> <b_lp_Chiralities_Consistent>
1

> <s_lp_Variant>
AV-unprocessed.smi:1738-5

> <Gold.Version>
5.8.1

> <Gold.Id.Protein>
6NUR|6NUR_protein|mol2

> <Gold.PLP.Fitness>
42.3876

> <Gold.PLP.PLP>
-31.6524

> <Gold.PLP.part.hbond>
-5.0000

> <Gold.PLP.part.metal>
0.0000

> <Gold.PLP.part.buried>
-4.3920

> <Gold.PLP.part.nonpolar>
-22.5565

> <Gold.PLP.part.repulsive>
0.0579

> <Gold.PLP.ligand.clash>
0.0000

> <Gold.PLP.ligand.torsion>
1.4042

> <Gold.PLP.Chemscore.Hbond>
3.8400

> <Gold.PLP.Chemscore.CHOScore>
0.0000

> <Gold.PLP.Chemscore.Metal>
0.0000

> <Gold.Chemscore.Hbonds>
donor molecule, donor type, donor heavy atom, donor atom, acceptor molecule, acceptor atom, score
      L1  H     9    29       P1  7948  1.00
      L1  H    12    30       P1  7948  0.96
      P1  H  6896  6909       L1     4  1.00
      P1  H  7997  8008       L1     3  0.91

> <Gold.PLP.Chemscore.Internal.Correction>
2.0236

> <Gold.Rescore>
     Score         DG    S(hbond)    S(metal)    S(lipo)     H(rot)  DE(clash)    DE(int)     intcor
     20.62     -23.47       3.77        0.00      67.97       1.00       0.06       2.79       ----

> <Gold.Chemscore.Fitness>
20.6211

> <Gold.Chemscore.DG>
-23.4694

> <Gold.Chemscore.ZeroCoef>
-5.4800

> <Gold.Chemscore.Hbond>
3.7714

> <Gold.Chemscore.Metal>
0.0000

> <Gold.Chemscore.Lipo>
67.9724

> <Gold.Chemscore.Internal_Hbond>
0.0000

> <Gold.Chemscore.DEClash>
0.0580

> <Gold.Chemscore.DEInternal>
2.7903

> <Gold.Chemscore.Rot>
1.0000

> <Gold.Chemscore.Internal.Correction>
   9.000000E+99

> <Gold.Chemscore.Hbonds>
donor molecule, donor type, donor heavy atom, donor atom, acceptor molecule, acceptor atom, score
      L1  H     9    29       P1  7948  0.55
      L1  H    12    30       P1  7948  0.71
      P1  H  6896  6909       L1     4  0.94
      P1  H  7997  8008       L1     3  0.87

> <Gold.Chemscore.Hbond.Weighted>
-12.5966

> <Gold.Chemscore.Metal.Weighted>
-0.0000

> <Gold.Chemscore.Lipo.Weighted>
-7.9528

> <Gold.Chemscore.Internal_Hbond.Weighted>
0.0000

> <Gold.Chemscore.DEClash.Weighted>
0.0580

> <Gold.Chemscore.DEInternal.Weighted>
2.7903

> <Gold.Chemscore.Rot.Weighted>
2.5600

> <Gold.Chemscore.Internal.Correction.Weighted>
   9.000000E+99

> <Gold.Protein.RotatedTorsions>
[ 6907 6896 6895 6894 ] final  150.33 input  -60.11 | X-H torsion
[ 7974 7965 7964 7962 ] final -130.36 input  175.53 | X-H torsion
[ 8008 7997 7996 7995 ] final -103.90 input   59.86 | X-H torsion
[ 10167 10162 10161 10158 ] final  -56.31 input  -65.29 | X-H torsion
[ 10718 10713 10712 10709 ] final -142.42 input   66.30 | X-H torsion
[ 10763 10752 10751 10750 ] final   -2.08 input  -60.55 | X-H torsion
[ 11005 11000 10999 10996 ] final -122.14 input  -57.11 | X-H torsion

> <Gold.Protein.ActiveResidues>
 VAL166  LYS551  ARG553  GLY616  TRP617  ASP618  TYR619  PRO620  LYS621  CYS622 
 ASP623  PHE694  ASN695  SER759  ASP760  ASP761  ALA762  ILE779  LEU786  VAL792 
 PHE793  MET794  SER795  GLU796  ALA797  LYS798  CYS799  TRP800  GLU811  SER814 

> <Gold.Protein.RotatedAtoms>
  152.1159  133.4326  159.4652 H   0  0  0  0  0  0  0  0  0  0  0  0  # atno 6907 bound_to 6896
  150.6869  134.2593  159.4552 H   0  0  0  0  0  0  0  0  0  0  0  0  # atno 6908 bound_to 6896
  152.0466  134.9679  160.0625 H   0  0  0  0  0  0  0  0  0  0  0  0  # atno 6909 bound_to 6896
  144.9482  140.7315  143.4804 H   0  0  0  0  0  0  0  0  0  0  0  0  # atno 7974 bound_to 7965
  154.8776  140.0420  157.1762 H   0  0  0  0  0  0  0  0  0  0  0  0  # atno 8008 bound_to 7997
  154.8673  140.2953  155.5481 H   0  0  0  0  0  0  0  0  0  0  0  0  # atno 8009 bound_to 7997
  156.2999  140.2435  156.3657 H   0  0  0  0  0  0  0  0  0  0  0  0  # atno 8010 bound_to 7997
  140.6324  143.2466  151.5206 H   0  0  0  0  0  0  0  0  0  0  0  0  # atno 10167 bound_to 10162
  156.3457  130.7661  151.1805 H   0  0  0  0  0  0  0  0  0  0  0  0  # atno 10718 bound_to 10713
  153.3534  135.6987  153.6770 H   0  0  0  0  0  0  0  0  0  0  0  0  # atno 10763 bound_to 10752
  153.5488  135.3558  155.2751 H   0  0  0  0  0  0  0  0  0  0  0  0  # atno 10764 bound_to 10752
  154.8657  135.4221  154.2774 H   0  0  0  0  0  0  0  0  0  0  0  0  # atno 10765 bound_to 10752
  141.0018  134.0392  157.3528 H   0  0  0  0  0  0  0  0  0  0  0  0  # atno 11005 bound_to 11000
  145.2885  139.1892  143.4753 LP  0  0  0  0  0  0  0  0  0  0  0  0  # atno 17320 bound_to 7965
  146.3311  140.2858  142.8612 LP  0  0  0  0  0  0  0  0  0  0  0  0  # atno 17321 bound_to 7965
  139.5537  144.2329  152.1575 LP  0  0  0  0  0  0  0  0  0  0  0  0  # atno 17342 bound_to 10162
  140.1577  144.5055  150.6650 LP  0  0  0  0  0  0  0  0  0  0  0  0  # atno 17343 bound_to 10162
  157.7454  131.0442  150.4780 LP  0  0  0  0  0  0  0  0  0  0  0  0  # atno 17370 bound_to 10713
  156.4968  130.4108  149.6375 LP  0  0  0  0  0  0  0  0  0  0  0  0  # atno 17371 bound_to 10713
  139.9042  135.0174  156.7412 LP  0  0  0  0  0  0  0  0  0  0  0  0  # atno 17394 bound_to 11000
  140.6877  133.9418  155.7947 LP  0  0  0  0  0  0  0  0  0  0  0  0  # atno 17395 bound_to 11000

$$$$
