AV-unprocessed.smi:1066|AV-procd|sdf|4668|dock3
  -GOLD-   22720 3183D 1   1.00000     0.00000
 Structure written by MMmdl.
 38 40  0  0  0  0  0  0  0  0  2 V2000
  150.6860  130.4671  156.9632 C   0  0  0  0  0  0  0  0  0  0  0  0
  150.4253  131.9230  156.7034 C   0  0  0  0  0  0  0  0  0  0  0  0
  150.6595  132.8098  157.6618 N   0  0  0  0  0  0  0  0  0  0  0  0
  150.3255  134.0613  157.1317 O   0  0  0  0  0  0  0  0  0  0  0  0
  149.9047  133.8542  155.8630 C   0  0  0  0  0  0  0  0  0  0  0  0
  149.3814  135.1382  154.8461 Cl  0  0  0  0  0  0  0  0  0  0  0  0
  149.9354  132.5348  155.5125 C   0  0  0  0  0  0  0  0  0  0  0  0
  149.5511  131.8757  154.2122 C   0  0  0  0  0  0  0  0  0  0  0  0
  148.1218  132.2683  153.8390 C   0  0  0  0  0  0  0  0  0  0  0  0
  147.3413  132.6571  154.7072 O   0  0  0  0  0  0  0  0  0  0  0  0
  147.7932  132.1676  152.5422 N   0  0  0  0  0  0  0  0  0  0  0  0
  146.4966  132.5246  151.9808 C   0  0  2  0  0  0  0  0  0  0  0  0
  145.8345  131.4210  151.1627 C   0  0  0  0  0  0  0  0  0  0  0  0
  144.8407  132.1995  150.2917 C   0  0  0  0  0  0  0  0  0  0  0  0
  145.3888  133.5706  150.1342 N   0  3  1  0  0  0  0  0  0  0  0  0
  144.4055  134.6363  150.4274 C   0  0  0  0  0  0  0  0  0  0  0  0
  145.0298  135.9085  150.9486 C   0  0  0  0  0  0  0  0  0  0  0  0
  144.3040  134.9767  151.8950 C   0  0  0  0  0  0  0  0  0  0  0  0
  146.6124  133.6557  150.9610 C   0  0  0  0  0  0  0  0  0  0  0  0
  149.9338  129.8419  156.4818 H   0  0  0  0  0  0  0  0  0  0  0  0
  150.6686  130.2388  158.0294 H   0  0  0  0  0  0  0  0  0  0  0  0
  151.6608  130.1716  156.5753 H   0  0  0  0  0  0  0  0  0  0  0  0
  150.2235  132.1614  153.4025 H   0  0  0  0  0  0  0  0  0  0  0  0
  149.6147  130.7894  154.2864 H   0  0  0  0  0  0  0  0  0  0  0  0
  148.4990  131.8371  151.8995 H   0  0  0  0  0  0  0  0  0  0  0  0
  145.8215  132.8404  152.7794 H   0  0  0  0  0  0  0  0  0  0  0  0
  146.5719  130.9221  150.5316 H   0  0  0  0  0  0  0  0  0  0  0  0
  145.3516  130.6633  151.7809 H   0  0  0  0  0  0  0  0  0  0  0  0
  144.6917  131.7253  149.3212 H   0  0  0  0  0  0  0  0  0  0  0  0
  143.8705  132.2353  150.7899 H   0  0  0  0  0  0  0  0  0  0  0  0
  143.5230  134.6713  149.7906 H   0  0  0  0  0  0  0  0  0  0  0  0
  146.1144  135.9576  151.0259 H   0  0  0  0  0  0  0  0  0  0  0  0
  144.5388  136.8469  150.6989 H   0  0  0  0  0  0  0  0  0  0  0  0
  143.3361  135.3035  152.2698 H   0  0  0  0  0  0  0  0  0  0  0  0
  144.9059  134.4043  152.5986 H   0  0  0  0  0  0  0  0  0  0  0  0
  146.7405  134.6314  151.4326 H   0  0  0  0  0  0  0  0  0  0  0  0
  147.4704  133.4919  150.3071 H   0  0  0  0  0  0  0  0  0  0  0  0
  145.6717  133.6841  149.1713 H   0  0  0  0  0  0  0  0  0  0  0  0
  1  2  1  0  0  0  0
  1 20  1  0  0  0  0
  1 21  1  0  0  0  0
  1 22  1  0  0  0  0
  2  7  1  0  0  0  0
  2  3  2  0  0  0  0
  3  4  1  0  0  0  0
  4  5  1  0  0  0  0
  5  6  1  0  0  0  0
  5  7  2  0  0  0  0
  7  8  1  0  0  0  0
  8  9  1  0  0  0  0
  8 23  1  0  0  0  0
  8 24  1  0  0  0  0
  9 10  2  0  0  0  0
  9 11  1  0  0  0  0
 11 12  1  0  0  0  0
 11 25  1  0  0  0  0
 12 19  1  0  0  0  0
 12 13  1  0  0  0  0
 12 26  1  0  0  0  0
 13 14  1  0  0  0  0
 13 27  1  0  0  0  0
 13 28  1  0  0  0  0
 14 15  1  0  0  0  0
 14 29  1  0  0  0  0
 14 30  1  0  0  0  0
 15 16  1  0  0  0  0
 15 19  1  0  0  0  0
 15 38  1  0  0  0  0
 16 18  1  0  0  0  0
 16 17  1  0  0  0  0
 16 31  1  0  0  0  0
 17 18  1  0  0  0  0
 17 32  1  0  0  0  0
 17 33  1  0  0  0  0
 18 34  1  0  0  0  0
 18 35  1  0  0  0  0
 19 36  1  0  0  0  0
 19 37  1  0  0  0  0
M  CHG  1  15   1
M  END
> <s_m_source_file>
AV-unprocessed.smi

> <i_m_source_file_index>
1066

> <i_lp_mmshare_version>
43012

> <i_f3d_flags>
0

> <s_epik_input>
W0NIM11jMW5vYyhDbCljMVtDSDJdQyg9TylbTkhdW0NAQEhdMltDSDJdW0NIMl1OKFtDSDJdMilbQ0hdM1tDSDJdW0NIMl0z

> <s_epik_cmdline>
J2VwaWtfcHl0aG9uJywgJy1waCcsICc3LjAnLCAnLXRuJywgJzgnLCAnLW1hJywgJzIwMCcsICctbWV0YWxfYmluZGluZycsICctaW1hZScsICc8aW5maWxlLm1hZT4nLCAnLW9tYWUnLCAnPG91dGZpbGUubWFlPic=

> <r_epik_Ionization_Penalty>
0.00108138

> <r_epik_Ionization_Penalty_Charging>
0.00108128

> <r_epik_Ionization_Penalty_Neutral>
9.66632e-08

> <r_epik_State_Penalty>
0.000708577

> <r_epik_Charging_Adjusted_Penalty>
0.00178986

> <i_epik_Tot_Q>
1

> <i_epik_Tot_abs_Q>
1

> <r_epik_Metal_State_Penalty>
-0

> <b_epik_Metal_Only>
0

> <s_lp_Force_Field>
OPLS_2005

> <r_lp_Energy>
31.6954

> <b_lp_Chiralities_Consistent>
1

> <s_lp_Variant>
AV-unprocessed.smi:1066-1

> <Gold.Version>
5.8.1

> <Gold.Id.Protein>
6NUR|6NUR_protein|mol2

> <Gold.PLP.Fitness>
41.4654

> <Gold.PLP.PLP>
-33.1892

> <Gold.PLP.part.hbond>
-3.8633

> <Gold.PLP.part.metal>
0.0000

> <Gold.PLP.part.buried>
-3.9556

> <Gold.PLP.part.nonpolar>
-25.6394

> <Gold.PLP.part.repulsive>
0.0997

> <Gold.PLP.ligand.clash>
0.0000

> <Gold.PLP.ligand.torsion>
0.9986

> <Gold.PLP.Chemscore.Hbond>
3.0000

> <Gold.PLP.Chemscore.CHOScore>
0.0000

> <Gold.PLP.Chemscore.Metal>
0.0000

> <Gold.Chemscore.Hbonds>
donor molecule, donor type, donor heavy atom, donor atom, acceptor molecule, acceptor atom, score
      L1  H    11    25       P1 10747  1.00
      L1  H    15    38       P1  7921  1.00
      P1  H  6896  6908       L1     3  0.90

> <Gold.PLP.Chemscore.Internal.Correction>
1.2735

> <Gold.Rescore>
     Score         DG    S(hbond)    S(metal)    S(lipo)     H(rot)  DE(clash)    DE(int)     intcor
     15.51     -16.66       1.94        0.00      74.42       1.57       0.17       0.97       ----

> <Gold.Chemscore.Fitness>
15.5103

> <Gold.Chemscore.DG>
-16.6557

> <Gold.Chemscore.ZeroCoef>
-5.4800

> <Gold.Chemscore.Hbond>
1.9434

> <Gold.Chemscore.Metal>
0.0000

> <Gold.Chemscore.Lipo>
74.4172

> <Gold.Chemscore.Internal_Hbond>
0.0000

> <Gold.Chemscore.DEClash>
0.1740

> <Gold.Chemscore.DEInternal>
0.9713

> <Gold.Chemscore.Rot>
1.5711

> <Gold.Chemscore.Internal.Correction>
   9.000000E+99

> <Gold.Chemscore.Hbonds>
donor molecule, donor type, donor heavy atom, donor atom, acceptor molecule, acceptor atom, score
      L1  H    11    25       P1 10747  0.94
      L1  H    15    38       P1  7921  0.29
      P1  H  6896  6908       L1     3  0.17

> <Gold.Chemscore.Hbond.Weighted>
-6.4910

> <Gold.Chemscore.Metal.Weighted>
-0.0000

> <Gold.Chemscore.Lipo.Weighted>
-8.7068

> <Gold.Chemscore.Internal_Hbond.Weighted>
0.0000

> <Gold.Chemscore.DEClash.Weighted>
0.1740

> <Gold.Chemscore.DEInternal.Weighted>
0.9713

> <Gold.Chemscore.Rot.Weighted>
4.0221

> <Gold.Chemscore.Internal.Correction.Weighted>
   9.000000E+99

> <Gold.Protein.RotatedTorsions>
[ 6907 6896 6895 6894 ] final   77.09 input  -60.11 | X-H torsion
[ 7974 7965 7964 7962 ] final -117.54 input  175.53 | X-H torsion
[ 8008 7997 7996 7995 ] final  -99.37 input   59.86 | X-H torsion
[ 10167 10162 10161 10158 ] final -175.82 input  -65.29 | X-H torsion
[ 10718 10713 10712 10709 ] final  122.59 input   66.30 | X-H torsion
[ 10763 10752 10751 10750 ] final   53.21 input  -60.55 | X-H torsion
[ 11005 11000 10999 10996 ] final  -48.95 input  -57.11 | X-H torsion

> <Gold.Protein.ActiveResidues>
 VAL166  LYS551  ARG553  GLY616  TRP617  ASP618  TYR619  PRO620  LYS621  CYS622 
 ASP623  PHE694  ASN695  SER759  ASP760  ASP761  ALA762  ILE779  LEU786  VAL792 
 PHE793  MET794  SER795  GLU796  ALA797  LYS798  CYS799  TRP800  GLU811  SER814 

> <Gold.Protein.RotatedAtoms>
  152.5102  134.3869  159.9370 H   0  0  0  0  0  0  0  0  0  0  0  0  # atno 6907 bound_to 6896
  151.3828  133.3809  159.2720 H   0  0  0  0  0  0  0  0  0  0  0  0  # atno 6908 bound_to 6896
  150.9491  134.8913  159.7719 H   0  0  0  0  0  0  0  0  0  0  0  0  # atno 6909 bound_to 6896
  145.0841  140.8445  143.4022 H   0  0  0  0  0  0  0  0  0  0  0  0  # atno 7974 bound_to 7965
  154.8139  140.0448  157.1362 H   0  0  0  0  0  0  0  0  0  0  0  0  # atno 8008 bound_to 7997
  154.9337  140.3043  155.5135 H   0  0  0  0  0  0  0  0  0  0  0  0  # atno 8009 bound_to 7997
  156.2974  140.2318  156.4400 H   0  0  0  0  0  0  0  0  0  0  0  0  # atno 8010 bound_to 7997
  139.5561  144.1985  152.1162 H   0  0  0  0  0  0  0  0  0  0  0  0  # atno 10167 bound_to 10162
  157.5730  131.1081  150.8331 H   0  0  0  0  0  0  0  0  0  0  0  0  # atno 10718 bound_to 10713
  152.9794  135.5786  154.4705 H   0  0  0  0  0  0  0  0  0  0  0  0  # atno 10763 bound_to 10752
  154.4268  135.2772  155.1941 H   0  0  0  0  0  0  0  0  0  0  0  0  # atno 10764 bound_to 10752
  154.3666  135.6177  153.5772 H   0  0  0  0  0  0  0  0  0  0  0  0  # atno 10765 bound_to 10752
  141.0731  133.6673  156.3516 H   0  0  0  0  0  0  0  0  0  0  0  0  # atno 11005 bound_to 11000
  145.1144  139.2735  143.5621 LP  0  0  0  0  0  0  0  0  0  0  0  0  # atno 17320 bound_to 7965
  146.3531  140.0749  142.8621 LP  0  0  0  0  0  0  0  0  0  0  0  0  # atno 17321 bound_to 7965
  140.1490  144.5132  150.6699 LP  0  0  0  0  0  0  0  0  0  0  0  0  # atno 17342 bound_to 10162
  140.6834  143.2338  151.5324 LP  0  0  0  0  0  0  0  0  0  0  0  0  # atno 17343 bound_to 10162
  156.8797  130.5175  149.5291 LP  0  0  0  0  0  0  0  0  0  0  0  0  # atno 17370 bound_to 10713
  156.0775  130.5794  150.9502 LP  0  0  0  0  0  0  0  0  0  0  0  0  # atno 17371 bound_to 10713
  140.5631  134.5914  157.5439 LP  0  0  0  0  0  0  0  0  0  0  0  0  # atno 17394 bound_to 11000
  139.9544  134.7561  156.0376 LP  0  0  0  0  0  0  0  0  0  0  0  0  # atno 17395 bound_to 11000

$$$$
