AV-unprocessed.smi:3145|AV-procd|sdf|11981|dock2
  -GOLD-   2272017383D 1   1.00000     0.00000
 Structure written by MMmdl.
 34 34  0  0  0  0  0  0  0  0  1 V2000
  146.7812  140.9066  153.7971 C   0  0  0  0  0  0  0  0  0  0  0  0
  147.8498  139.8118  153.9235 C   0  0  2  0  0  0  0  0  0  0  0  0
  149.2500  140.4262  154.1490 C   0  0  0  0  0  0  0  0  0  0  0  0
  150.2778  139.4329  154.4102 N   0  0  0  0  0  0  0  0  0  0  0  0
  150.1925  138.0620  154.2900 C   0  0  0  0  0  0  0  0  0  0  0  0
  151.4106  137.5477  154.6308 C   0  0  0  0  0  0  0  0  0  0  0  0
  152.1850  138.6968  154.9534 C   0  0  0  0  0  0  0  0  0  0  0  0
  151.5040  139.8236  154.8232 N   0  0  0  0  0  0  0  0  0  0  0  0
  147.8332  139.0364  152.6870 N   0  0  0  0  0  0  0  0  0  0  0  0
  146.4797  138.6062  152.3150 C   0  0  0  0  0  0  0  0  0  0  0  0
  146.0241  137.4177  153.1561 C   0  0  0  0  0  0  0  0  0  0  0  0
  145.0067  137.4963  153.8438 O   0  0  0  0  0  0  0  0  0  0  0  0
  146.7956  136.3230  153.0939 N   0  0  0  0  0  0  0  0  0  0  0  0
  146.5449  135.0895  153.8234 C   0  0  0  0  0  0  0  0  0  0  0  0
  146.5083  133.8991  152.8595 C   0  0  0  0  0  0  0  0  0  0  0  0
  145.7945  134.2040  151.6106 C   0  0  0  0  0  0  0  0  0  0  0  0
  145.2329  134.4441  150.6280 N   0  0  0  0  0  0  0  0  0  0  0  0
  146.7355  141.5132  154.7021 H   0  0  0  0  0  0  0  0  0  0  0  0
  145.7909  140.4766  153.6425 H   0  0  0  0  0  0  0  0  0  0  0  0
  146.9892  141.5755  152.9609 H   0  0  0  0  0  0  0  0  0  0  0  0
  147.5790  139.1866  154.7768 H   0  0  0  0  0  0  0  0  0  0  0  0
  149.5474  141.0309  153.2903 H   0  0  0  0  0  0  0  0  0  0  0  0
  149.2226  141.1028  155.0039 H   0  0  0  0  0  0  0  0  0  0  0  0
  149.2835  137.5735  153.9706 H   0  0  0  0  0  0  0  0  0  0  0  0
  151.7039  136.5086  154.6469 H   0  0  0  0  0  0  0  0  0  0  0  0
  153.2147  138.7456  155.2758 H   0  0  0  0  0  0  0  0  0  0  0  0
  148.2593  139.5719  151.9442 H   0  0  0  0  0  0  0  0  0  0  0  0
  145.7636  139.4152  152.4601 H   0  0  0  0  0  0  0  0  0  0  0  0
  146.4569  138.3471  151.2556 H   0  0  0  0  0  0  0  0  0  0  0  0
  147.6086  136.3499  152.4947 H   0  0  0  0  0  0  0  0  0  0  0  0
  147.3279  134.9430  154.5691 H   0  0  0  0  0  0  0  0  0  0  0  0
  145.5969  135.1677  154.3584 H   0  0  0  0  0  0  0  0  0  0  0  0
  147.5201  133.5873  152.5986 H   0  0  0  0  0  0  0  0  0  0  0  0
  146.0152  133.0454  153.3254 H   0  0  0  0  0  0  0  0  0  0  0  0
  1  2  1  0  0  0  0
  1 18  1  0  0  0  0
  1 19  1  0  0  0  0
  1 20  1  0  0  0  0
  2  3  1  0  0  0  0
  2  9  1  0  0  0  0
  2 21  1  0  0  0  0
  3  4  1  0  0  0  0
  3 22  1  0  0  0  0
  3 23  1  0  0  0  0
  4  8  1  0  0  0  0
  4  5  1  0  0  0  0
  5  6  2  0  0  0  0
  5 24  1  0  0  0  0
  6  7  1  0  0  0  0
  6 25  1  0  0  0  0
  7  8  2  0  0  0  0
  7 26  1  0  0  0  0
  9 10  1  0  0  0  0
  9 27  1  0  0  0  0
 10 11  1  0  0  0  0
 10 28  1  0  0  0  0
 10 29  1  0  0  0  0
 11 12  2  0  0  0  0
 11 13  1  0  0  0  0
 13 14  1  0  0  0  0
 13 30  1  0  0  0  0
 14 15  1  0  0  0  0
 14 31  1  0  0  0  0
 14 32  1  0  0  0  0
 15 16  1  0  0  0  0
 15 33  1  0  0  0  0
 15 34  1  0  0  0  0
 16 17  3  0  0  0  0
M  END
> <s_m_source_file>
AV-unprocessed.smi

> <i_m_source_file_index>
3145

> <i_lp_mmshare_version>
43012

> <i_f3d_flags>
0

> <s_epik_input>
bjFbY0hdW2NIXVtjSF1uMVtDSDJdW0NAQEhdKFtDSDNdKVtOSF1bQ0gyXUMoPU8pW05IXVtDSDJdW0NIMl1DI04=

> <s_epik_cmdline>
J2VwaWtfcHl0aG9uJywgJy1waCcsICc3LjAnLCAnLXRuJywgJzgnLCAnLW1hJywgJzIwMCcsICctbWV0YWxfYmluZGluZycsICctaW1hZScsICc8aW5maWxlLm1hZT4nLCAnLW9tYWUnLCAnPG91dGZpbGUubWFlPic=

> <r_lp_tautomer_probability>
1

> <r_epik_Ionization_Penalty>
0.765991

> <r_epik_Ionization_Penalty_Charging>
0

> <r_epik_Ionization_Penalty_Neutral>
0.765991

> <r_epik_State_Penalty>
0.794192

> <r_epik_Charging_Adjusted_Penalty>
0.794192

> <i_epik_Tot_Q>
0

> <i_epik_Tot_abs_Q>
0

> <r_epik_Metal_State_Penalty>
0.806127

> <b_epik_Metal_Only>
0

> <s_lp_Force_Field>
OPLS_2005

> <r_lp_Energy>
5.26669

> <b_lp_Chiralities_Consistent>
1

> <s_lp_Variant>
AV-unprocessed.smi:3145-3

> <Gold.Version>
5.8.1

> <Gold.Id.Protein>
6NUR|6NUR_protein|mol2

> <Gold.PLP.Fitness>
39.2311

> <Gold.PLP.PLP>
-29.4194

> <Gold.PLP.part.hbond>
-3.7744

> <Gold.PLP.part.metal>
0.0000

> <Gold.PLP.part.buried>
-2.8007

> <Gold.PLP.part.nonpolar>
-24.8830

> <Gold.PLP.part.repulsive>
0.3787

> <Gold.PLP.ligand.clash>
0.0000

> <Gold.PLP.ligand.torsion>
0.3361

> <Gold.PLP.Chemscore.Hbond>
2.5750

> <Gold.PLP.Chemscore.CHOScore>
0.8957

> <Gold.PLP.Chemscore.Metal>
0.0000

> <Gold.Chemscore.Hbonds>
donor molecule, donor type, donor heavy atom, donor atom, acceptor molecule, acceptor atom, score
      L1  H     9    27       P1  7957  1.00
      L1  H    13    30       P1  7948  0.88
      P1  H  7989  7998       L1     8  0.55
      L1  C     5    24       P1  7948  0.91

> <Gold.PLP.Chemscore.Internal.Correction>
0.0720

> <Gold.Rescore>
     Score         DG    S(hbond)    S(metal)    S(lipo)     H(rot)  DE(clash)    DE(int)     intcor
     10.98     -11.38       1.98        0.00      55.08       2.80       0.05       0.36       ----

> <Gold.Chemscore.Fitness>
10.9797

> <Gold.Chemscore.DG>
-11.3815

> <Gold.Chemscore.ZeroCoef>
-5.4800

> <Gold.Chemscore.Hbond>
1.9841

> <Gold.Chemscore.Metal>
0.0000

> <Gold.Chemscore.Lipo>
55.0793

> <Gold.Chemscore.Internal_Hbond>
0.0000

> <Gold.Chemscore.DEClash>
0.0458

> <Gold.Chemscore.DEInternal>
0.3559

> <Gold.Chemscore.Rot>
2.8006

> <Gold.Chemscore.Internal.Correction>
   9.000000E+99

> <Gold.Chemscore.Hbonds>
donor molecule, donor type, donor heavy atom, donor atom, acceptor molecule, acceptor atom, score
      L1  H     9    27       P1  7957  0.93
      L1  H    13    30       P1  7948  0.86
      P1  H  7989  7998       L1     8  0.03

> <Gold.Chemscore.Hbond.Weighted>
-6.6268

> <Gold.Chemscore.Metal.Weighted>
-0.0000

> <Gold.Chemscore.Lipo.Weighted>
-6.4443

> <Gold.Chemscore.Internal_Hbond.Weighted>
0.0000

> <Gold.Chemscore.DEClash.Weighted>
0.0458

> <Gold.Chemscore.DEInternal.Weighted>
0.3559

> <Gold.Chemscore.Rot.Weighted>
7.1696

> <Gold.Chemscore.Internal.Correction.Weighted>
   9.000000E+99

> <Gold.Protein.RotatedTorsions>
[ 6907 6896 6895 6894 ] final  115.84 input  -60.11 | X-H torsion
[ 7974 7965 7964 7962 ] final  -17.23 input  175.53 | X-H torsion
[ 8008 7997 7996 7995 ] final -123.14 input   59.86 | X-H torsion
[ 10167 10162 10161 10158 ] final   89.82 input  -65.29 | X-H torsion
[ 10718 10713 10712 10709 ] final  -73.89 input   66.30 | X-H torsion
[ 10763 10752 10751 10750 ] final   71.49 input  -60.55 | X-H torsion
[ 11005 11000 10999 10996 ] final  103.75 input  -57.11 | X-H torsion

> <Gold.Protein.ActiveResidues>
 VAL166  LYS551  ARG553  GLY616  TRP617  ASP618  TYR619  PRO620  LYS621  CYS622 
 ASP623  PHE694  ASN695  SER759  ASP760  ASP761  ALA762  ILE779  LEU786  VAL792 
 PHE793  MET794  SER795  GLU796  ALA797  LYS798  CYS799  TRP800  GLU811  SER814 

> <Gold.Protein.RotatedAtoms>
  152.4716  133.8043  159.6969 H   0  0  0  0  0  0  0  0  0  0  0  0  # atno 6907 bound_to 6896
  150.8709  133.7497  159.2968 H   0  0  0  0  0  0  0  0  0  0  0  0  # atno 6908 bound_to 6896
  151.5033  135.1066  159.9886 H   0  0  0  0  0  0  0  0  0  0  0  0  # atno 6909 bound_to 6896
  146.1951  140.3749  142.8444 H   0  0  0  0  0  0  0  0  0  0  0  0  # atno 7974 bound_to 7965
  155.1756  140.0409  157.2872 H   0  0  0  0  0  0  0  0  0  0  0  0  # atno 8008 bound_to 7997
  154.6239  140.2507  155.7488 H   0  0  0  0  0  0  0  0  0  0  0  0  # atno 8009 bound_to 7997
  156.2448  140.2889  156.0559 H   0  0  0  0  0  0  0  0  0  0  0  0  # atno 8010 bound_to 7997
  139.8535  144.6581  150.9142 H   0  0  0  0  0  0  0  0  0  0  0  0  # atno 10167 bound_to 10162
  156.0263  130.4404  150.2810 H   0  0  0  0  0  0  0  0  0  0  0  0  # atno 10718 bound_to 10713
  153.0402  135.5135  154.7601 H   0  0  0  0  0  0  0  0  0  0  0  0  # atno 10763 bound_to 10752
  154.6544  135.2929  154.9948 H   0  0  0  0  0  0  0  0  0  0  0  0  # atno 10764 bound_to 10752
  154.0821  135.6662  153.4892 H   0  0  0  0  0  0  0  0  0  0  0  0  # atno 10765 bound_to 10752
  139.8786  134.9275  156.5257 H   0  0  0  0  0  0  0  0  0  0  0  0  # atno 11005 bound_to 11000
  144.8563  140.7075  143.6136 LP  0  0  0  0  0  0  0  0  0  0  0  0  # atno 17320 bound_to 7965
  145.3670  139.1668  143.4352 LP  0  0  0  0  0  0  0  0  0  0  0  0  # atno 17321 bound_to 7965
  140.7784  143.3807  151.1483 LP  0  0  0  0  0  0  0  0  0  0  0  0  # atno 17342 bound_to 10162
  139.7443  143.8877  152.3059 LP  0  0  0  0  0  0  0  0  0  0  0  0  # atno 17343 bound_to 10162
  157.0913  131.0170  151.3120 LP  0  0  0  0  0  0  0  0  0  0  0  0  # atno 17370 bound_to 10713
  157.4852  130.7789  149.7453 LP  0  0  0  0  0  0  0  0  0  0  0  0  # atno 17371 bound_to 10713
  140.8418  133.8199  155.9082 LP  0  0  0  0  0  0  0  0  0  0  0  0  # atno 17394 bound_to 11000
  140.9230  134.2118  157.4914 LP  0  0  0  0  0  0  0  0  0  0  0  0  # atno 17395 bound_to 11000

$$$$
