AV-unprocessed.smi:1288|AV-procd|sdf|5384|dock9
  -GOLD-   22720 4533D 1   1.00000     0.00000
 Structure written by MMmdl.
 43 45  0  0  0  0  0  0  0  0  2 V2000
  149.7240  140.9765  154.8348 C   0  0  0  0  0  0  0  0  0  0  0  0
  150.4764  141.4155  156.0458 C   0  0  0  0  0  0  0  0  0  0  0  0
  150.4210  142.6498  156.6206 N   0  3  0  0  0  0  0  0  0  0  0  0
  151.2605  142.6898  157.7346 C   0  0  0  0  0  0  0  0  0  0  0  0
  151.5356  143.7186  158.6303 C   0  0  0  0  0  0  0  0  0  0  0  0
  152.4502  143.4299  159.6640 C   0  0  0  0  0  0  0  0  0  0  0  0
  153.0528  142.1602  159.7775 C   0  0  0  0  0  0  0  0  0  0  0  0
  152.7654  141.1250  158.8637 C   0  0  0  0  0  0  0  0  0  0  0  0
  151.8581  141.4172  157.8452 C   0  0  0  0  0  0  0  0  0  0  0  0
  151.3430  140.6638  156.7828 N   0  0  0  0  0  0  0  0  0  0  0  0
  151.7656  139.2650  156.6036 C   0  0  0  0  0  0  0  0  0  0  0  0
  151.1529  138.3143  157.6514 C   0  0  1  0  0  0  0  0  0  0  0  0
  149.7664  138.1815  157.4087 O   0  0  0  0  0  0  0  0  0  0  0  0
  151.7893  136.9169  157.5984 C   0  0  0  0  0  0  0  0  0  0  0  0
  151.2565  136.2117  156.4895 O   0  0  0  0  0  0  0  0  0  0  0  0
  151.5358  134.8226  156.5339 C   0  0  0  0  0  0  0  0  0  0  0  0
  150.5913  134.0441  155.6393 C   0  0  0  0  0  0  0  0  0  0  0  0
  149.5758  134.7200  154.9304 C   0  0  0  0  0  0  0  0  0  0  0  0
  148.6988  134.0034  154.0929 C   0  0  0  0  0  0  0  0  0  0  0  0
  148.8337  132.6081  153.9612 C   0  0  0  0  0  0  0  0  0  0  0  0
  149.8476  131.9301  154.6650 C   0  0  0  0  0  0  0  0  0  0  0  0
  150.7269  132.6453  155.5017 C   0  0  0  0  0  0  0  0  0  0  0  0
  151.7020  131.9832  156.1695 F   0  0  0  0  0  0  0  0  0  0  0  0
  149.1385  141.8007  154.4267 H   0  0  0  0  0  0  0  0  0  0  0  0
  149.0460  140.1616  155.0889 H   0  0  0  0  0  0  0  0  0  0  0  0
  150.4151  140.6292  154.0669 H   0  0  0  0  0  0  0  0  0  0  0  0
  151.0769  144.6928  158.5441 H   0  0  0  0  0  0  0  0  0  0  0  0
  152.6958  144.1982  160.3830 H   0  0  0  0  0  0  0  0  0  0  0  0
  153.7512  141.9764  160.5808 H   0  0  0  0  0  0  0  0  0  0  0  0
  153.2389  140.1590  158.9565 H   0  0  0  0  0  0  0  0  0  0  0  0
  151.5316  138.9420  155.5890 H   0  0  0  0  0  0  0  0  0  0  0  0
  152.8534  139.2487  156.6802 H   0  0  0  0  0  0  0  0  0  0  0  0
  151.2968  138.7420  158.6444 H   0  0  0  0  0  0  0  0  0  0  0  0
  149.3640  137.8120  158.1804 H   0  0  0  0  0  0  0  0  0  0  0  0
  152.8778  136.9795  157.5479 H   0  0  0  0  0  0  0  0  0  0  0  0
  151.5392  136.3652  158.5062 H   0  0  0  0  0  0  0  0  0  0  0  0
  152.5645  134.6367  156.2211 H   0  0  0  0  0  0  0  0  0  0  0  0
  151.4454  134.4568  157.5580 H   0  0  0  0  0  0  0  0  0  0  0  0
  149.4674  135.7905  155.0256 H   0  0  0  0  0  0  0  0  0  0  0  0
  147.9233  134.5245  153.5509 H   0  0  0  0  0  0  0  0  0  0  0  0
  148.1611  132.0583  153.3195 H   0  0  0  0  0  0  0  0  0  0  0  0
  149.9522  130.8601  154.5622 H   0  0  0  0  0  0  0  0  0  0  0  0
  149.8496  143.4092  156.2733 H   0  0  0  0  0  0  0  0  0  0  0  0
  1  2  1  0  0  0  0
  1 24  1  0  0  0  0
  1 25  1  0  0  0  0
  1 26  1  0  0  0  0
  2 10  1  0  0  0  0
  2  3  2  0  0  0  0
  3  4  1  0  0  0  0
  3 43  1  0  0  0  0
  4  9  2  0  0  0  0
  4  5  1  0  0  0  0
  5  6  2  0  0  0  0
  5 27  1  0  0  0  0
  6  7  1  0  0  0  0
  6 28  1  0  0  0  0
  7  8  2  0  0  0  0
  7 29  1  0  0  0  0
  8  9  1  0  0  0  0
  8 30  1  0  0  0  0
  9 10  1  0  0  0  0
 10 11  1  0  0  0  0
 11 12  1  0  0  0  0
 11 31  1  0  0  0  0
 11 32  1  0  0  0  0
 12 13  1  0  0  0  0
 12 14  1  0  0  0  0
 12 33  1  0  0  0  0
 13 34  1  0  0  0  0
 14 15  1  0  0  0  0
 14 35  1  0  0  0  0
 14 36  1  0  0  0  0
 15 16  1  0  0  0  0
 16 17  1  0  0  0  0
 16 37  1  0  0  0  0
 16 38  1  0  0  0  0
 17 22  1  0  0  0  0
 17 18  2  0  0  0  0
 18 19  1  0  0  0  0
 18 39  1  0  0  0  0
 19 20  2  0  0  0  0
 19 40  1  0  0  0  0
 20 21  1  0  0  0  0
 20 41  1  0  0  0  0
 21 22  2  0  0  0  0
 21 42  1  0  0  0  0
 22 23  1  0  0  0  0
M  CHG  1   3   1
M  END
> <s_m_source_file>
AV-unprocessed.smi

> <i_m_source_file_index>
1288

> <i_lp_mmshare_version>
43012

> <i_f3d_flags>
0

> <s_epik_input>
W2NIXTFbY0hdW2NIXVtjSF1jKGMxMiluKGMobjIpW0NIM10pW0NIMl1bQ0BIXShbT0hdKVtDSDJdT1tDSDJdYzNbY0hdW2NIXVtjSF1bY0hdYzNG

> <s_epik_cmdline>
J2VwaWtfcHl0aG9uJywgJy1waCcsICc3LjAnLCAnLXRuJywgJzgnLCAnLW1hJywgJzIwMCcsICctbWV0YWxfYmluZGluZycsICctaW1hZScsICc8aW5maWxlLm1hZT4nLCAnLW9tYWUnLCAnPG91dGZpbGUubWFlPic=

> <r_epik_Ionization_Penalty>
0.952

> <r_epik_Ionization_Penalty_Charging>
0.951999

> <r_epik_Ionization_Penalty_Neutral>
1.07667e-06

> <r_epik_State_Penalty>
0.996343

> <r_epik_Charging_Adjusted_Penalty>
1.94834

> <i_epik_Tot_Q>
1

> <i_epik_Tot_abs_Q>
1

> <r_epik_Metal_State_Penalty>
4.96724

> <b_epik_Metal_Only>
0

> <s_lp_Force_Field>
OPLS_2005

> <r_lp_Energy>
19.2213

> <b_lp_Chiralities_Consistent>
1

> <s_lp_Variant>
AV-unprocessed.smi:1288-4

> <Gold.Version>
5.8.1

> <Gold.Id.Protein>
6NUR|6NUR_protein|mol2

> <Gold.PLP.Fitness>
49.1211

> <Gold.PLP.PLP>
-44.0519

> <Gold.PLP.part.hbond>
-1.0000

> <Gold.PLP.part.metal>
0.0000

> <Gold.PLP.part.buried>
-2.5141

> <Gold.PLP.part.nonpolar>
-39.1501

> <Gold.PLP.part.repulsive>
0.0559

> <Gold.PLP.ligand.clash>
0.0000

> <Gold.PLP.ligand.torsion>
0.4794

> <Gold.PLP.Chemscore.Hbond>
2.0000

> <Gold.PLP.Chemscore.CHOScore>
0.0000

> <Gold.PLP.Chemscore.Metal>
0.0000

> <Gold.Chemscore.Hbonds>
donor molecule, donor type, donor heavy atom, donor atom, acceptor molecule, acceptor atom, score
      L1  H     3    43       P1  8028  2.00

> <Gold.PLP.Chemscore.Internal.Correction>
0.0280

> <Gold.Rescore>
     Score         DG    S(hbond)    S(metal)    S(lipo)     H(rot)  DE(clash)    DE(int)     intcor
     16.23     -16.75       1.00        0.00     119.84       2.38       0.07       0.45       ----

> <Gold.Chemscore.Fitness>
16.2253

> <Gold.Chemscore.DG>
-16.7468

> <Gold.Chemscore.ZeroCoef>
-5.4800

> <Gold.Chemscore.Hbond>
1.0000

> <Gold.Chemscore.Metal>
0.0000

> <Gold.Chemscore.Lipo>
119.8448

> <Gold.Chemscore.Internal_Hbond>
0.0000

> <Gold.Chemscore.DEClash>
0.0719

> <Gold.Chemscore.DEInternal>
0.4496

> <Gold.Chemscore.Rot>
2.3809

> <Gold.Chemscore.Internal.Correction>
   9.000000E+99

> <Gold.Chemscore.Hbonds>
donor molecule, donor type, donor heavy atom, donor atom, acceptor molecule, acceptor atom, score
      L1  H     3    43       P1  8028  1.00

> <Gold.Chemscore.Hbond.Weighted>
-3.3400

> <Gold.Chemscore.Metal.Weighted>
-0.0000

> <Gold.Chemscore.Lipo.Weighted>
-14.0218

> <Gold.Chemscore.Internal_Hbond.Weighted>
0.0000

> <Gold.Chemscore.DEClash.Weighted>
0.0719

> <Gold.Chemscore.DEInternal.Weighted>
0.4496

> <Gold.Chemscore.Rot.Weighted>
6.0951

> <Gold.Chemscore.Internal.Correction.Weighted>
   9.000000E+99

> <Gold.Protein.RotatedTorsions>
[ 6907 6896 6895 6894 ] final  169.35 input  -60.11 | X-H torsion
[ 7974 7965 7964 7962 ] final  138.50 input  175.53 | X-H torsion
[ 8008 7997 7996 7995 ] final  -63.32 input   59.86 | X-H torsion
[ 10167 10162 10161 10158 ] final   -3.47 input  -65.29 | X-H torsion
[ 10718 10713 10712 10709 ] final   81.69 input   66.30 | X-H torsion
[ 10763 10752 10751 10750 ] final -156.20 input  -60.55 | X-H torsion
[ 11005 11000 10999 10996 ] final -175.69 input  -57.11 | X-H torsion

> <Gold.Protein.ActiveResidues>
 VAL166  LYS551  ARG553  GLY616  TRP617  ASP618  TYR619  PRO620  LYS621  CYS622 
 ASP623  PHE694  ASN695  SER759  ASP760  ASP761  ALA762  ILE779  LEU786  VAL792 
 PHE793  MET794  SER795  GLU796  ALA797  LYS798  CYS799  TRP800  GLU811  SER814 

> <Gold.Protein.RotatedAtoms>
  151.8333  133.3412  159.3619 H   0  0  0  0  0  0  0  0  0  0  0  0  # atno 6907 bound_to 6896
  150.7257  134.5462  159.5781 H   0  0  0  0  0  0  0  0  0  0  0  0  # atno 6908 bound_to 6896
  152.2919  134.7712  160.0427 H   0  0  0  0  0  0  0  0  0  0  0  0  # atno 6909 bound_to 6896
  144.9366  139.4981  143.5592 H   0  0  0  0  0  0  0  0  0  0  0  0  # atno 7974 bound_to 7965
  154.4548  140.0977  156.6725 H   0  0  0  0  0  0  0  0  0  0  0  0  # atno 8008 bound_to 7997
  155.5172  140.3478  155.4381 H   0  0  0  0  0  0  0  0  0  0  0  0  # atno 8009 bound_to 7997
  156.0755  140.1360  156.9765 H   0  0  0  0  0  0  0  0  0  0  0  0  # atno 8010 bound_to 7997
  140.6891  143.6536  150.8328 H   0  0  0  0  0  0  0  0  0  0  0  0  # atno 10167 bound_to 10162
  157.6839  131.0015  150.2264 H   0  0  0  0  0  0  0  0  0  0  0  0  # atno 10718 bound_to 10713
  154.7730  135.3151  154.8150 H   0  0  0  0  0  0  0  0  0  0  0  0  # atno 10763 bound_to 10752
  153.8880  135.6828  153.4766 H   0  0  0  0  0  0  0  0  0  0  0  0  # atno 10764 bound_to 10752
  153.1348  135.4764  154.9340 H   0  0  0  0  0  0  0  0  0  0  0  0  # atno 10765 bound_to 10752
  140.4605  134.6259  157.4840 H   0  0  0  0  0  0  0  0  0  0  0  0  # atno 11005 bound_to 11000
  146.3269  139.8355  142.8900 LP  0  0  0  0  0  0  0  0  0  0  0  0  # atno 17320 bound_to 7965
  145.3057  141.0206  143.3583 LP  0  0  0  0  0  0  0  0  0  0  0  0  # atno 17321 bound_to 7965
  140.0247  143.5506  152.2786 LP  0  0  0  0  0  0  0  0  0  0  0  0  # atno 17342 bound_to 10162
  139.6277  144.7639  151.2603 LP  0  0  0  0  0  0  0  0  0  0  0  0  # atno 17343 bound_to 10162
  156.2905  130.3745  149.7846 LP  0  0  0  0  0  0  0  0  0  0  0  0  # atno 17370 bound_to 10713
  156.5507  130.8340  151.3298 LP  0  0  0  0  0  0  0  0  0  0  0  0  # atno 17371 bound_to 10713
  139.9949  134.6928  155.9627 LP  0  0  0  0  0  0  0  0  0  0  0  0  # atno 17394 bound_to 11000
  141.1623  133.6538  156.4362 LP  0  0  0  0  0  0  0  0  0  0  0  0  # atno 17395 bound_to 11000

$$$$
