AV-unprocessed.smi:243|AV-procd|sdf|1861|dock4
  -GOLD-   2262020493D 1   1.00000     0.00000
 Structure written by MMmdl.
 58 61  0  0  0  0  0  0  0  0  2 V2000
  143.6384  132.5248  148.4265 C   0  0  0  0  0  0  0  0  0  0  0  0
  144.2388  132.6802  149.8311 C   0  0  0  0  0  0  0  0  0  0  0  0
  145.1895  133.8204  149.9205 N   0  3  1  0  0  0  0  0  0  0  0  0
  144.5237  135.1477  149.9177 C   0  0  0  0  0  0  0  0  0  0  0  0
  143.8593  135.4522  151.2700 C   0  0  0  0  0  0  0  0  0  0  0  0
  144.8820  135.3722  152.4195 C   0  0  1  0  0  0  0  0  0  0  0  0
  144.2446  135.6868  153.7064 N   0  0  0  0  0  0  0  0  0  0  0  0
  142.9778  135.0698  154.0897 C   0  0  0  0  0  0  0  0  0  0  0  0
  144.8057  136.5992  154.5469 C   0  0  0  0  0  0  0  0  0  0  0  0
  144.4929  136.5471  155.8693 N   0  0  0  0  0  0  0  0  0  0  0  0
  145.0133  137.4269  156.7287 C   0  0  0  0  0  0  0  0  0  0  0  0
  145.8596  138.4274  156.4859 N   0  0  0  0  0  0  0  0  0  0  0  0
  146.1822  138.4917  155.1630 C   0  0  0  0  0  0  0  0  0  0  0  0
  145.7081  137.6258  154.1347 C   0  0  0  0  0  0  0  0  0  0  0  0
  146.2794  137.9921  152.9204 N   0  0  0  0  0  0  0  0  0  0  0  0
  147.0374  139.0124  153.2124 C   0  0  0  0  0  0  0  0  0  0  0  0
  147.0295  139.3889  154.5356 N   0  0  0  0  0  0  0  0  0  0  0  0
  147.7814  140.4812  155.1361 C   0  0  0  0  0  0  0  0  0  0  0  0
  149.2512  140.5856  154.6536 C   0  0  2  0  0  0  0  0  0  0  0  0
  149.2803  141.1537  153.3575 O   0  0  0  0  0  0  0  0  0  0  0  0
  150.0012  139.2523  154.6310 C   0  0  0  0  0  0  0  0  0  0  0  0
  150.7543  139.2642  155.9526 C   0  0  0  0  0  0  0  0  0  0  0  0
  151.1753  140.6133  156.0463 O   0  0  0  0  0  0  0  0  0  0  0  0
  150.1008  141.4412  155.6162 C   0  0  0  0  0  0  0  0  0  0  0  0
  145.5995  133.9980  152.4129 C   0  0  2  0  0  0  0  0  0  0  0  0
  146.7035  133.9103  153.4804 C   0  0  0  0  0  0  0  0  0  0  0  0
  146.1950  133.7163  151.0133 C   0  0  0  0  0  0  0  0  0  0  0  0
  142.8723  131.7491  148.4221 H   0  0  0  0  0  0  0  0  0  0  0  0
  144.3878  132.2405  147.6885 H   0  0  0  0  0  0  0  0  0  0  0  0
  143.1699  133.4513  148.0934 H   0  0  0  0  0  0  0  0  0  0  0  0
  143.4137  132.8535  150.5232 H   0  0  0  0  0  0  0  0  0  0  0  0
  144.7101  131.7503  150.1490 H   0  0  0  0  0  0  0  0  0  0  0  0
  145.2735  135.9101  149.7018 H   0  0  0  0  0  0  0  0  0  0  0  0
  143.7934  135.2049  149.1096 H   0  0  0  0  0  0  0  0  0  0  0  0
  143.4160  136.4482  151.2400 H   0  0  0  0  0  0  0  0  0  0  0  0
  143.0365  134.7567  151.4378 H   0  0  0  0  0  0  0  0  0  0  0  0
  145.6350  136.1277  152.1935 H   0  0  0  0  0  0  0  0  0  0  0  0
  142.9453  134.8778  155.1628 H   0  0  0  0  0  0  0  0  0  0  0  0
  142.8258  134.1178  153.5832 H   0  0  0  0  0  0  0  0  0  0  0  0
  142.1442  135.7211  153.8267 H   0  0  0  0  0  0  0  0  0  0  0  0
  144.7070  137.3137  157.7584 H   0  0  0  0  0  0  0  0  0  0  0  0
  147.6255  139.5237  152.4640 H   0  0  0  0  0  0  0  0  0  0  0  0
  147.2522  141.4118  154.9259 H   0  0  0  0  0  0  0  0  0  0  0  0
  147.7512  140.3551  156.2192 H   0  0  0  0  0  0  0  0  0  0  0  0
  149.1709  140.4609  152.7244 H   0  0  0  0  0  0  0  0  0  0  0  0
  149.3672  138.3749  154.5159 H   0  0  0  0  0  0  0  0  0  0  0  0
  150.7290  139.2335  153.8181 H   0  0  0  0  0  0  0  0  0  0  0  0
  150.0935  139.0205  156.7863 H   0  0  0  0  0  0  0  0  0  0  0  0
  151.5996  138.5756  155.9646 H   0  0  0  0  0  0  0  0  0  0  0  0
  150.4913  142.3489  155.1542 H   0  0  0  0  0  0  0  0  0  0  0  0
  149.5250  141.7449  156.4915 H   0  0  0  0  0  0  0  0  0  0  0  0
  144.8766  133.2140  152.6353 H   0  0  0  0  0  0  0  0  0  0  0  0
  147.4582  134.6837  153.3351 H   0  0  0  0  0  0  0  0  0  0  0  0
  147.2071  132.9440  153.4458 H   0  0  0  0  0  0  0  0  0  0  0  0
  146.2980  134.0267  154.4857 H   0  0  0  0  0  0  0  0  0  0  0  0
  146.6796  132.7407  150.9938 H   0  0  0  0  0  0  0  0  0  0  0  0
  146.9843  134.4407  150.8075 H   0  0  0  0  0  0  0  0  0  0  0  0
  145.7130  133.7856  149.0573 H   0  0  0  0  0  0  0  0  0  0  0  0
  1  2  1  0  0  0  0
  1 28  1  0  0  0  0
  1 29  1  0  0  0  0
  1 30  1  0  0  0  0
  2  3  1  0  0  0  0
  2 31  1  0  0  0  0
  2 32  1  0  0  0  0
  3 27  1  0  0  0  0
  3  4  1  0  0  0  0
  3 58  1  0  0  0  0
  4  5  1  0  0  0  0
  4 33  1  0  0  0  0
  4 34  1  0  0  0  0
  5  6  1  0  0  0  0
  5 35  1  0  0  0  0
  5 36  1  0  0  0  0
  6  7  1  0  0  0  0
  6 25  1  0  0  0  0
  6 37  1  0  0  0  0
  7  8  1  0  0  0  0
  7  9  1  0  0  0  0
  8 38  1  0  0  0  0
  8 39  1  0  0  0  0
  8 40  1  0  0  0  0
  9 14  1  0  0  0  0
  9 10  2  0  0  0  0
 10 11  1  0  0  0  0
 11 12  2  0  0  0  0
 11 41  1  0  0  0  0
 12 13  1  0  0  0  0
 13 17  1  0  0  0  0
 13 14  2  0  0  0  0
 14 15  1  0  0  0  0
 15 16  2  0  0  0  0
 16 17  1  0  0  0  0
 16 42  1  0  0  0  0
 17 18  1  0  0  0  0
 18 19  1  0  0  0  0
 18 43  1  0  0  0  0
 18 44  1  0  0  0  0
 19 24  1  0  0  0  0
 19 20  1  0  0  0  0
 19 21  1  0  0  0  0
 20 45  1  0  0  0  0
 21 22  1  0  0  0  0
 21 46  1  0  0  0  0
 21 47  1  0  0  0  0
 22 23  1  0  0  0  0
 22 48  1  0  0  0  0
 22 49  1  0  0  0  0
 23 24  1  0  0  0  0
 24 50  1  0  0  0  0
 24 51  1  0  0  0  0
 25 26  1  0  0  0  0
 25 27  1  0  0  0  0
 25 52  1  0  0  0  0
 26 53  1  0  0  0  0
 26 54  1  0  0  0  0
 26 55  1  0  0  0  0
 27 56  1  0  0  0  0
 27 57  1  0  0  0  0
M  CHG  1   3   1
M  END
> <s_m_source_file>
AV-unprocessed.smi

> <i_m_source_file_index>
243

> <i_lp_mmshare_version>
43012

> <i_f3d_flags>
0

> <s_epik_input>
W0NIM11bQ0gyXU4xW0NIMl1bQ0gyXVtDQEhdKFtDQEBIXShbQ0gzXSlbQ0gyXTEpTihbQ0gzXSljKG5bY0hdbjIpYyhjMjMpbltjSF1uM1tDSDJdW0NAQF00KFtPSF0pW0NIMl1bQ0gyXU9bQ0gyXTQ=

> <s_epik_cmdline>
J2VwaWtfcHl0aG9uJywgJy1waCcsICc3LjAnLCAnLXRuJywgJzgnLCAnLW1hJywgJzIwMCcsICctbWV0YWxfYmluZGluZycsICctaW1hZScsICc8aW5maWxlLm1hZT4nLCAnLW9tYWUnLCAnPG91dGZpbGUubWFlPic=

> <r_lp_tautomer_probability>
1

> <r_epik_Ionization_Penalty>
0.00253099

> <r_epik_Ionization_Penalty_Charging>
0.00137877

> <r_epik_Ionization_Penalty_Neutral>
0.00115221

> <r_epik_State_Penalty>
-0

> <r_epik_Charging_Adjusted_Penalty>
0.00137877

> <i_epik_Tot_Q>
1

> <i_epik_Tot_abs_Q>
1

> <r_epik_Metal_State_Penalty>
-0

> <b_epik_Metal_Only>
0

> <s_lp_Force_Field>
OPLS_2005

> <r_lp_Energy>
46.8505

> <b_lp_Chiralities_Consistent>
1

> <s_lp_Variant>
AV-unprocessed.smi:243-14

> <Gold.Version>
5.8.1

> <Gold.Id.Protein>
6NUR|6NUR_protein|mol2

> <Gold.PLP.Fitness>
47.4431

> <Gold.PLP.PLP>
-37.9277

> <Gold.PLP.part.hbond>
-4.1677

> <Gold.PLP.part.metal>
0.0000

> <Gold.PLP.part.buried>
-3.0939

> <Gold.PLP.part.nonpolar>
-31.4037

> <Gold.PLP.part.repulsive>
0.3810

> <Gold.PLP.ligand.clash>
0.0000

> <Gold.PLP.ligand.torsion>
1.1335

> <Gold.PLP.Chemscore.Hbond>
2.8845

> <Gold.PLP.Chemscore.CHOScore>
1.0000

> <Gold.PLP.Chemscore.Metal>
0.0000

> <Gold.Chemscore.Hbonds>
donor molecule, donor type, donor heavy atom, donor atom, acceptor molecule, acceptor atom, score
      L1  H     3    58       P1  7921  0.83
      L1  H    20    45       P1  7957  0.82
      P1  H  7989  7998       L1    20  0.01
      P1  H  8011  8017       L1    20  1.00
      L1  C    16    42       P1  7957  1.00

> <Gold.PLP.Chemscore.Internal.Correction>
0.1290

> <Gold.Rescore>
     Score         DG    S(hbond)    S(metal)    S(lipo)     H(rot)  DE(clash)    DE(int)     intcor
     15.43     -17.99       2.22        0.00      92.56       2.24       0.40       2.17       ----

> <Gold.Chemscore.Fitness>
15.4253

> <Gold.Chemscore.DG>
-17.9938

> <Gold.Chemscore.ZeroCoef>
-5.4800

> <Gold.Chemscore.Hbond>
2.2197

> <Gold.Chemscore.Metal>
0.0000

> <Gold.Chemscore.Lipo>
92.5560

> <Gold.Chemscore.Internal_Hbond>
0.0000

> <Gold.Chemscore.DEClash>
0.3953

> <Gold.Chemscore.DEInternal>
2.1732

> <Gold.Chemscore.Rot>
2.2379

> <Gold.Chemscore.Internal.Correction>
   9.000000E+99

> <Gold.Chemscore.Hbonds>
donor molecule, donor type, donor heavy atom, donor atom, acceptor molecule, acceptor atom, score
      L1  H     3    58       P1  7921  0.25
      L1  H    20    45       P1  7957  0.81
      P1  H  8011  8017       L1    20  0.25

> <Gold.Chemscore.Hbond.Weighted>
-7.4139

> <Gold.Chemscore.Metal.Weighted>
-0.0000

> <Gold.Chemscore.Lipo.Weighted>
-10.8291

> <Gold.Chemscore.Internal_Hbond.Weighted>
0.0000

> <Gold.Chemscore.DEClash.Weighted>
0.3953

> <Gold.Chemscore.DEInternal.Weighted>
2.1732

> <Gold.Chemscore.Rot.Weighted>
5.7291

> <Gold.Chemscore.Internal.Correction.Weighted>
   9.000000E+99

> <Gold.Protein.RotatedTorsions>
[ 6907 6896 6895 6894 ] final  -81.95 input  -60.11 | X-H torsion
[ 7974 7965 7964 7962 ] final  126.15 input  175.53 | X-H torsion
[ 8008 7997 7996 7995 ] final   62.20 input   59.86 | X-H torsion
[ 10167 10162 10161 10158 ] final  115.62 input  -65.29 | X-H torsion
[ 10718 10713 10712 10709 ] final  -99.70 input   66.30 | X-H torsion
[ 10763 10752 10751 10750 ] final  144.13 input  -60.55 | X-H torsion
[ 11005 11000 10999 10996 ] final  -22.89 input  -57.11 | X-H torsion

> <Gold.Protein.ActiveResidues>
 VAL166  LYS551  ARG553  GLY616  TRP617  ASP618  TYR619  PRO620  LYS621  CYS622 
 ASP623  PHE694  ASN695  SER759  ASP760  ASP761  ALA762  ILE779  LEU786  VAL792 
 PHE793  MET794  SER795  GLU796  ALA797  LYS798  CYS799  TRP800  GLU811  SER814 

> <Gold.Protein.RotatedAtoms>
  150.6904  134.3739  159.5004 H   0  0  0  0  0  0  0  0  0  0  0  0  # atno 6907 bound_to 6896
  152.1551  134.8954  160.0554 H   0  0  0  0  0  0  0  0  0  0  0  0  # atno 6908 bound_to 6896
  152.0037  133.3800  159.4229 H   0  0  0  0  0  0  0  0  0  0  0  0  # atno 6909 bound_to 6896
  145.0649  139.3775  143.4987 H   0  0  0  0  0  0  0  0  0  0  0  0  # atno 7974 bound_to 7965
  155.6106  140.3495  155.4621 H   0  0  0  0  0  0  0  0  0  0  0  0  # atno 8008 bound_to 7997
  156.0157  140.1243  157.0433 H   0  0  0  0  0  0  0  0  0  0  0  0  # atno 8009 bound_to 7997
  154.4297  140.1072  156.5879 H   0  0  0  0  0  0  0  0  0  0  0  0  # atno 8010 bound_to 7997
  139.6304  144.7114  151.2444 H   0  0  0  0  0  0  0  0  0  0  0  0  # atno 10167 bound_to 10162
  156.0141  130.5294  150.6709 H   0  0  0  0  0  0  0  0  0  0  0  0  # atno 10718 bound_to 10713
  153.9838  135.2939  155.3418 H   0  0  0  0  0  0  0  0  0  0  0  0  # atno 10763 bound_to 10752
  154.7254  135.5091  153.8881 H   0  0  0  0  0  0  0  0  0  0  0  0  # atno 10764 bound_to 10752
  153.0842  135.6688  154.0098 H   0  0  0  0  0  0  0  0  0  0  0  0  # atno 10765 bound_to 10752
  140.8700  133.7727  156.0175 H   0  0  0  0  0  0  0  0  0  0  0  0  # atno 11005 bound_to 11000
  146.3526  140.0365  142.8646 LP  0  0  0  0  0  0  0  0  0  0  0  0  # atno 17320 bound_to 7965
  145.1363  140.9546  143.4515 LP  0  0  0  0  0  0  0  0  0  0  0  0  # atno 17321 bound_to 7965
  140.7436  143.6490  150.8266 LP  0  0  0  0  0  0  0  0  0  0  0  0  # atno 17342 bound_to 10162
  140.0114  143.5638  152.2837 LP  0  0  0  0  0  0  0  0  0  0  0  0  # atno 17343 bound_to 10162
  157.4432  131.0863  151.0922 LP  0  0  0  0  0  0  0  0  0  0  0  0  # atno 17370 bound_to 10713
  157.1460  130.6163  149.5568 LP  0  0  0  0  0  0  0  0  0  0  0  0  # atno 17371 bound_to 10713
  140.8584  134.2870  157.5245 LP  0  0  0  0  0  0  0  0  0  0  0  0  # atno 17394 bound_to 11000
  139.8711  134.9505  156.4057 LP  0  0  0  0  0  0  0  0  0  0  0  0  # atno 17395 bound_to 11000

$$$$
