AV-unprocessed.smi:55|AV-procd|sdf|568|dock2
  -GOLD-   2262016473D 1   1.00000     0.00000
 Structure written by MMmdl.
 31 32  0  0  0  0  0  0  0  0  1 V2000
  148.6873  136.7424  158.9131 C   0  0  0  0  0  0  0  0  0  0  0  0
  149.5401  137.9753  158.6638 C   0  0  0  0  0  0  0  0  0  0  0  0
  149.1188  139.0064  157.8878 C   0  0  0  0  0  0  0  0  0  0  0  0
  149.8742  140.1435  157.6384 N   0  0  0  0  0  0  0  0  0  0  0  0
  149.3366  141.2532  156.7628 C   0  0  1  0  0  0  0  0  0  0  0  0
  150.0621  141.2847  155.4137 C   0  0  0  0  0  0  0  0  0  0  0  0
  149.0251  140.6998  154.4733 C   0  0  2  0  0  0  0  0  0  0  0  0
  149.1729  141.2205  153.1681 O   0  0  0  0  0  0  0  0  0  0  0  0
  147.7091  141.1276  155.1275 C   0  0  1  0  0  0  0  0  0  0  0  0
  146.5174  140.2330  154.7544 C   0  0  0  0  0  0  0  0  0  0  0  0
  146.3616  140.1978  153.3518 O   0  0  0  0  0  0  0  0  0  0  0  0
  147.9833  141.0103  156.5206 O   0  0  0  0  0  0  0  0  0  0  0  0
  151.1617  140.2551  158.2050 C   0  0  0  0  0  0  0  0  0  0  0  0
  151.9001  141.2207  158.0152 O   0  0  0  0  0  0  0  0  0  0  0  0
  151.5930  139.1986  159.0056 N   0  0  0  0  0  0  0  0  0  0  0  0
  150.8646  138.0402  159.2870 C   0  0  0  0  0  0  0  0  0  0  0  0
  151.3554  137.1751  160.0104 O   0  0  0  0  0  0  0  0  0  0  0  0
  149.4251  142.1894  157.3155 H   0  0  0  0  0  0  0  0  0  0  0  0
  149.1109  139.6128  154.4498 H   0  0  0  0  0  0  0  0  0  0  0  0
  147.5082  142.1752  154.8933 H   0  0  0  0  0  0  0  0  0  0  0  0
  152.5125  139.2759  159.4150 H   0  0  0  0  0  0  0  0  0  0  0  0
  147.7213  136.8107  158.4124 H   0  0  0  0  0  0  0  0  0  0  0  0
  148.5023  136.6159  159.9802 H   0  0  0  0  0  0  0  0  0  0  0  0
  149.1926  135.8491  158.5445 H   0  0  0  0  0  0  0  0  0  0  0  0
  148.1390  138.9341  157.4400 H   0  0  0  0  0  0  0  0  0  0  0  0
  150.2760  142.3259  155.1679 H   0  0  0  0  0  0  0  0  0  0  0  0
  151.0007  140.7287  155.4338 H   0  0  0  0  0  0  0  0  0  0  0  0
  149.2210  140.4993  152.5590 H   0  0  0  0  0  0  0  0  0  0  0  0
  146.6959  139.2106  155.0886 H   0  0  0  0  0  0  0  0  0  0  0  0
  145.5989  140.5749  155.2324 H   0  0  0  0  0  0  0  0  0  0  0  0
  145.4415  140.2712  153.1493 H   0  0  0  0  0  0  0  0  0  0  0  0
  1  2  1  0  0  0  0
  1 22  1  0  0  0  0
  1 23  1  0  0  0  0
  1 24  1  0  0  0  0
  2 16  1  0  0  0  0
  2  3  2  0  0  0  0
  3  4  1  0  0  0  0
  3 25  1  0  0  0  0
  4  5  1  0  0  0  0
  4 13  1  0  0  0  0
  5 18  1  0  0  0  0
  5 12  1  0  0  0  0
  5  6  1  0  0  0  0
  6  7  1  0  0  0  0
  6 26  1  0  0  0  0
  6 27  1  0  0  0  0
  7 19  1  0  0  0  0
  7  8  1  0  0  0  0
  7  9  1  0  0  0  0
  8 28  1  0  0  0  0
  9 20  1  0  0  0  0
  9 10  1  0  0  0  0
  9 12  1  0  0  0  0
 10 11  1  0  0  0  0
 10 29  1  0  0  0  0
 10 30  1  0  0  0  0
 11 31  1  0  0  0  0
 13 14  2  0  0  0  0
 13 15  1  0  0  0  0
 15 21  1  0  0  0  0
 15 16  1  0  0  0  0
 16 17  2  0  0  0  0
M  END
> <s_m_source_file>
AV-unprocessed.smi

> <i_m_source_file_index>
55

> <i_lp_mmshare_version>
43012

> <i_f3d_flags>
0

> <s_epik_input>
Tz1jMVtuSF1jKD1PKW4oW2NIXWMxW0NIM10pW0NAQEhdMltDSDJdW0NAQEhdKFtPSF0pW0NAQEhdKE8yKVtDSDJdW09IXQ==

> <s_epik_cmdline>
J2VwaWtfcHl0aG9uJywgJy1waCcsICc3LjAnLCAnLXRuJywgJzgnLCAnLW1hJywgJzIwMCcsICctbWV0YWxfYmluZGluZycsICctaW1hZScsICc8aW5maWxlLm1hZT4nLCAnLW9tYWUnLCAnPG91dGZpbGUubWFlPic=

> <r_lp_tautomer_probability>
0.999537

> <r_epik_Ionization_Penalty>
0.00121888

> <r_epik_Ionization_Penalty_Charging>
0.00121876

> <r_epik_Ionization_Penalty_Neutral>
1.19946e-07

> <r_epik_State_Penalty>
0.000805124

> <r_epik_Charging_Adjusted_Penalty>
0.00202389

> <i_epik_Tot_Q>
0

> <i_epik_Tot_abs_Q>
0

> <r_epik_Metal_State_Penalty>
0.662472

> <b_epik_Metal_Only>
0

> <s_epik_Chemistry_Notes>
This compound contains an acetal/aminal-like group ( X-CH(R)-Y where X, Y are N, S, or O) that may be acid/base labile, releasing an aldehyde.

> <s_lp_Force_Field>
OPLS_2005

> <r_lp_Energy>
24.9253

> <b_lp_Chiralities_Consistent>
1

> <s_lp_Variant>
AV-unprocessed.smi:55-8

> <Gold.Version>
5.8.1

> <Gold.Id.Protein>
6NUR|6NUR_protein|mol2

> <Gold.PLP.Fitness>
34.6235

> <Gold.PLP.PLP>
-23.1192

> <Gold.PLP.part.hbond>
-4.4603

> <Gold.PLP.part.metal>
0.0000

> <Gold.PLP.part.buried>
-4.0881

> <Gold.PLP.part.nonpolar>
-14.7064

> <Gold.PLP.part.repulsive>
0.1711

> <Gold.PLP.ligand.clash>
0.0000

> <Gold.PLP.ligand.torsion>
0.2403

> <Gold.PLP.Chemscore.Hbond>
3.9920

> <Gold.PLP.Chemscore.CHOScore>
0.0000

> <Gold.PLP.Chemscore.Metal>
0.0000

> <Gold.Chemscore.Hbonds>
donor molecule, donor type, donor heavy atom, donor atom, acceptor molecule, acceptor atom, score
      L1  H     8    28       P1  7957  0.89
      L1  H    11    31       P1 10175  1.00
      P1  H  6896  6908       L1    17  1.00
      P1  H  8011  8017       L1     8  1.00

> <Gold.PLP.Chemscore.Internal.Correction>
0.0089

> <Gold.Rescore>
     Score         DG    S(hbond)    S(metal)    S(lipo)     H(rot)  DE(clash)    DE(int)     intcor
     13.20     -13.44       3.37        0.00      31.34       2.73       0.02       0.22       ----

> <Gold.Chemscore.Fitness>
13.2033

> <Gold.Chemscore.DG>
-13.4358

> <Gold.Chemscore.ZeroCoef>
-5.4800

> <Gold.Chemscore.Hbond>
3.3731

> <Gold.Chemscore.Metal>
0.0000

> <Gold.Chemscore.Lipo>
31.3386

> <Gold.Chemscore.Internal_Hbond>
0.0000

> <Gold.Chemscore.DEClash>
0.0162

> <Gold.Chemscore.DEInternal>
0.2164

> <Gold.Chemscore.Rot>
2.7253

> <Gold.Chemscore.Internal.Correction>
   9.000000E+99

> <Gold.Chemscore.Hbonds>
donor molecule, donor type, donor heavy atom, donor atom, acceptor molecule, acceptor atom, score
      L1  H     8    28       P1  7957  0.82
      L1  H    11    31       P1 10175  0.98
      P1  H  6896  6908       L1    17  0.95
      P1  H  8011  8017       L1     8  0.34

> <Gold.Chemscore.Hbond.Weighted>
-11.2661

> <Gold.Chemscore.Metal.Weighted>
-0.0000

> <Gold.Chemscore.Lipo.Weighted>
-3.6666

> <Gold.Chemscore.Internal_Hbond.Weighted>
0.0000

> <Gold.Chemscore.DEClash.Weighted>
0.0162

> <Gold.Chemscore.DEInternal.Weighted>
0.2164

> <Gold.Chemscore.Rot.Weighted>
6.9769

> <Gold.Chemscore.Internal.Correction.Weighted>
   9.000000E+99

> <Gold.Protein.RotatedTorsions>
[ 6907 6896 6895 6894 ] final -120.84 input  -60.11 | X-H torsion
[ 7974 7965 7964 7962 ] final  -84.48 input  175.53 | X-H torsion
[ 8008 7997 7996 7995 ] final -100.48 input   59.86 | X-H torsion
[ 10167 10162 10161 10158 ] final  -35.74 input  -65.29 | X-H torsion
[ 10718 10713 10712 10709 ] final   74.60 input   66.30 | X-H torsion
[ 10763 10752 10751 10750 ] final    1.28 input  -60.55 | X-H torsion
[ 11005 11000 10999 10996 ] final   59.52 input  -57.11 | X-H torsion

> <Gold.Protein.ActiveResidues>
 VAL166  LYS551  ARG553  GLY616  TRP617  ASP618  TYR619  PRO620  LYS621  CYS622 
 ASP623  PHE694  ASN695  SER759  ASP760  ASP761  ALA762  ILE779  LEU786  VAL792 
 PHE793  MET794  SER795  GLU796  ALA797  LYS798  CYS799  TRP800  GLU811  SER814 

> <Gold.Protein.RotatedAtoms>
  150.8429  133.7908  159.3053 H   0  0  0  0  0  0  0  0  0  0  0  0  # atno 6907 bound_to 6896
  151.5603  135.1064  159.9980 H   0  0  0  0  0  0  0  0  0  0  0  0  # atno 6908 bound_to 6896
  152.4489  133.7547  159.6770 H   0  0  0  0  0  0  0  0  0  0  0  0  # atno 6909 bound_to 6896
  145.5060  140.9543  143.1733 H   0  0  0  0  0  0  0  0  0  0  0  0  # atno 7974 bound_to 7965
  154.8292  140.0440  157.1465 H   0  0  0  0  0  0  0  0  0  0  0  0  # atno 8008 bound_to 7997
  154.9172  140.3022  155.5215 H   0  0  0  0  0  0  0  0  0  0  0  0  # atno 8009 bound_to 7997
  156.2986  140.2347  156.4218 H   0  0  0  0  0  0  0  0  0  0  0  0  # atno 8010 bound_to 7997
  140.7158  143.3456  151.2263 H   0  0  0  0  0  0  0  0  0  0  0  0  # atno 10167 bound_to 10162
  157.6599  130.9685  150.1234 H   0  0  0  0  0  0  0  0  0  0  0  0  # atno 10718 bound_to 10713
  153.3101  135.6962  153.7124 H   0  0  0  0  0  0  0  0  0  0  0  0  # atno 10763 bound_to 10752
  153.6005  135.3463  155.2944 H   0  0  0  0  0  0  0  0  0  0  0  0  # atno 10764 bound_to 10752
  154.8573  135.4339  154.2236 H   0  0  0  0  0  0  0  0  0  0  0  0  # atno 10765 bound_to 10752
  140.0298  134.6029  155.9523 H   0  0  0  0  0  0  0  0  0  0  0  0  # atno 11005 bound_to 11000
  144.7753  139.6643  143.7177 LP  0  0  0  0  0  0  0  0  0  0  0  0  # atno 17320 bound_to 7965
  146.2196  139.5612  142.9627 LP  0  0  0  0  0  0  0  0  0  0  0  0  # atno 17321 bound_to 7965
  139.6975  143.9588  152.2889 LP  0  0  0  0  0  0  0  0  0  0  0  0  # atno 17342 bound_to 10162
  139.9270  144.6764  150.8402 LP  0  0  0  0  0  0  0  0  0  0  0  0  # atno 17343 bound_to 10162
  156.2099  130.3666  149.8683 LP  0  0  0  0  0  0  0  0  0  0  0  0  # atno 17370 bound_to 10713
  156.6564  130.8764  151.3540 LP  0  0  0  0  0  0  0  0  0  0  0  0  # atno 17371 bound_to 10713
  141.1824  133.6549  156.5076 LP  0  0  0  0  0  0  0  0  0  0  0  0  # atno 17394 bound_to 11000
  140.4245  134.7157  157.4908 LP  0  0  0  0  0  0  0  0  0  0  0  0  # atno 17395 bound_to 11000

$$$$
