AV-unprocessed.smi:1231|AV-procd|sdf|5164|dock1
  -GOLD-   22720 4233D 1   1.00000     0.00000
 Structure written by MMmdl.
 43 44  0  0  0  0  0  0  0  0  2 V2000
  149.1995  141.5645  154.6802 C   0  0  0  0  0  0  0  0  0  0  0  0
  149.7215  140.1517  154.9642 C   0  0  1  0  0  0  0  0  0  0  0  0
  149.0381  139.0921  154.0752 C   0  0  0  0  0  0  0  0  0  0  0  0
  149.6151  137.7445  154.3018 N   0  3  2  0  0  0  0  0  0  0  0  0
  149.1378  137.0975  155.5525 C   0  0  0  0  0  0  0  0  0  0  0  0
  149.1740  135.5590  155.4706 C   0  0  0  0  0  0  0  0  0  0  0  0
  148.6249  135.0788  154.2077 N   0  0  0  0  0  0  0  0  0  0  0  0
  147.8965  133.9611  154.0690 C   0  0  0  0  0  0  0  0  0  0  0  0
  147.6086  133.2233  155.0121 O   0  0  0  0  0  0  0  0  0  0  0  0
  147.5347  133.7674  152.7884 N   0  0  0  0  0  0  0  0  0  0  0  0
  146.7505  132.7130  152.2492 C   0  0  0  0  0  0  0  0  0  0  0  0
  146.4044  132.8602  150.8869 C   0  0  0  0  0  0  0  0  0  0  0  0
  145.6277  131.8675  150.2584 C   0  0  0  0  0  0  0  0  0  0  0  0
  145.2159  130.7524  151.0096 C   0  0  0  0  0  0  0  0  0  0  0  0
  145.6019  130.6839  152.3609 C   0  0  0  0  0  0  0  0  0  0  0  0
  146.3460  131.6342  152.9654 N   0  0  0  0  0  0  0  0  0  0  0  0
  151.0920  137.7834  154.1453 C   0  0  0  0  0  0  0  0  0  0  0  0
  151.7297  138.8887  155.0146 C   0  0  1  0  0  0  0  0  0  0  0  0
  153.2354  139.0188  154.7615 C   0  0  0  0  0  0  0  0  0  0  0  0
  151.1210  140.1378  154.7044 O   0  0  0  0  0  0  0  0  0  0  0  0
  148.1278  141.6326  154.8687 H   0  0  0  0  0  0  0  0  0  0  0  0
  149.3759  141.8502  153.6427 H   0  0  0  0  0  0  0  0  0  0  0  0
  149.6953  142.2984  155.3162 H   0  0  0  0  0  0  0  0  0  0  0  0
  149.5481  139.9274  156.0180 H   0  0  0  0  0  0  0  0  0  0  0  0
  147.9601  139.0795  154.2413 H   0  0  0  0  0  0  0  0  0  0  0  0
  149.1811  139.3517  153.0253 H   0  0  0  0  0  0  0  0  0  0  0  0
  149.7114  137.4562  156.4068 H   0  0  0  0  0  0  0  0  0  0  0  0
  148.1049  137.3965  155.7357 H   0  0  0  0  0  0  0  0  0  0  0  0
  150.2025  135.2063  155.5502 H   0  0  0  0  0  0  0  0  0  0  0  0
  148.6247  135.0984  156.2920 H   0  0  0  0  0  0  0  0  0  0  0  0
  148.8179  135.6301  153.3839 H   0  0  0  0  0  0  0  0  0  0  0  0
  147.8565  134.4526  152.1209 H   0  0  0  0  0  0  0  0  0  0  0  0
  146.7299  133.7230  150.3238 H   0  0  0  0  0  0  0  0  0  0  0  0
  145.3529  131.9613  149.2181 H   0  0  0  0  0  0  0  0  0  0  0  0
  144.6200  129.9703  150.5628 H   0  0  0  0  0  0  0  0  0  0  0  0
  145.3053  129.8453  152.9735 H   0  0  0  0  0  0  0  0  0  0  0  0
  151.5381  136.8150  154.3677 H   0  0  0  0  0  0  0  0  0  0  0  0
  151.3107  137.9811  153.0950 H   0  0  0  0  0  0  0  0  0  0  0  0
  151.5827  138.6716  156.0735 H   0  0  0  0  0  0  0  0  0  0  0  0
  153.7541  138.0880  154.9925 H   0  0  0  0  0  0  0  0  0  0  0  0
  153.6679  139.8030  155.3834 H   0  0  0  0  0  0  0  0  0  0  0  0
  153.4418  139.2678  153.7201 H   0  0  0  0  0  0  0  0  0  0  0  0
  149.2608  137.1646  153.5545 H   0  0  0  0  0  0  0  0  0  0  0  0
  1  2  1  0  0  0  0
  1 21  1  0  0  0  0
  1 22  1  0  0  0  0
  1 23  1  0  0  0  0
  2 20  1  0  0  0  0
  2  3  1  0  0  0  0
  2 24  1  0  0  0  0
  3  4  1  0  0  0  0
  3 25  1  0  0  0  0
  3 26  1  0  0  0  0
  4  5  1  0  0  0  0
  4 17  1  0  0  0  0
  4 43  1  0  0  0  0
  5  6  1  0  0  0  0
  5 27  1  0  0  0  0
  5 28  1  0  0  0  0
  6  7  1  0  0  0  0
  6 29  1  0  0  0  0
  6 30  1  0  0  0  0
  7  8  1  0  0  0  0
  7 31  1  0  0  0  0
  8  9  2  0  0  0  0
  8 10  1  0  0  0  0
 10 11  1  0  0  0  0
 10 32  1  0  0  0  0
 11 16  1  0  0  0  0
 11 12  2  0  0  0  0
 12 13  1  0  0  0  0
 12 33  1  0  0  0  0
 13 14  2  0  0  0  0
 13 34  1  0  0  0  0
 14 15  1  0  0  0  0
 14 35  1  0  0  0  0
 15 16  2  0  0  0  0
 15 36  1  0  0  0  0
 17 18  1  0  0  0  0
 17 37  1  0  0  0  0
 17 38  1  0  0  0  0
 18 19  1  0  0  0  0
 18 20  1  0  0  0  0
 18 39  1  0  0  0  0
 19 40  1  0  0  0  0
 19 41  1  0  0  0  0
 19 42  1  0  0  0  0
M  CHG  1   4   1
M  END
> <s_m_source_file>
AV-unprocessed.smi

> <i_m_source_file_index>
1231

> <i_lp_mmshare_version>
43012

> <i_f3d_flags>
0

> <s_epik_input>
W0NIM11bQ0BASF0xW0NIMl1OKFtDSDJdW0NASF0oTzEpW0NIM10pW0NIMl1bQ0gyXVtOSF1DKD1PKVtOSF1jMltjSF1bY0hdW2NIXVtjSF1uMg==

> <s_epik_cmdline>
J2VwaWtfcHl0aG9uJywgJy1waCcsICc3LjAnLCAnLXRuJywgJzgnLCAnLW1hJywgJzIwMCcsICctbWV0YWxfYmluZGluZycsICctaW1hZScsICc8aW5maWxlLm1hZT4nLCAnLW9tYWUnLCAnPG91dGZpbGUubWFlPic=

> <r_epik_Ionization_Penalty>
0.602565

> <r_epik_Ionization_Penalty_Charging>
0.602531

> <r_epik_Ionization_Penalty_Neutral>
3.43186e-05

> <r_epik_State_Penalty>
0.617039

> <r_epik_Charging_Adjusted_Penalty>
1.21957

> <i_epik_Tot_Q>
1

> <i_epik_Tot_abs_Q>
1

> <r_epik_Metal_State_Penalty>
0.617041

> <b_epik_Metal_Only>
0

> <s_lp_Force_Field>
OPLS_2005

> <r_lp_Energy>
17.2402

> <b_lp_Chiralities_Consistent>
1

> <s_lp_Variant>
AV-unprocessed.smi:1231-5

> <Gold.Version>
5.8.1

> <Gold.Id.Protein>
6NUR|6NUR_protein|mol2

> <Gold.PLP.Fitness>
50.2748

> <Gold.PLP.PLP>
-35.3450

> <Gold.PLP.part.hbond>
-3.8547

> <Gold.PLP.part.metal>
0.0000

> <Gold.PLP.part.buried>
-1.7898

> <Gold.PLP.part.nonpolar>
-30.5929

> <Gold.PLP.part.repulsive>
0.2693

> <Gold.PLP.ligand.clash>
0.0000

> <Gold.PLP.ligand.torsion>
0.4712

> <Gold.PLP.Chemscore.Hbond>
4.8703

> <Gold.PLP.Chemscore.CHOScore>
0.3976

> <Gold.PLP.Chemscore.Metal>
0.0000

> <Gold.Chemscore.Hbonds>
donor molecule, donor type, donor heavy atom, donor atom, acceptor molecule, acceptor atom, score
      L1  H     4    43       P1  7948  2.00
      L1  H     7    31       P1  7948  1.00
      L1  H    10    32       P1  7948  0.87
      P1  H  7989  7998       L1    20  0.93
      L1  C    15    36       P1 10956  0.42

> <Gold.PLP.Chemscore.Internal.Correction>
0.0684

> <Gold.Rescore>
     Score         DG    S(hbond)    S(metal)    S(lipo)     H(rot)  DE(clash)    DE(int)     intcor
     20.55     -22.44       3.14        0.00      89.25       1.55       0.13       1.76       ----

> <Gold.Chemscore.Fitness>
20.5507

> <Gold.Chemscore.DG>
-22.4383

> <Gold.Chemscore.ZeroCoef>
-5.4800

> <Gold.Chemscore.Hbond>
3.1426

> <Gold.Chemscore.Metal>
0.0000

> <Gold.Chemscore.Lipo>
89.2454

> <Gold.Chemscore.Internal_Hbond>
0.0000

> <Gold.Chemscore.DEClash>
0.1305

> <Gold.Chemscore.DEInternal>
1.7571

> <Gold.Chemscore.Rot>
1.5546

> <Gold.Chemscore.Internal.Correction>
   9.000000E+99

> <Gold.Chemscore.Hbonds>
donor molecule, donor type, donor heavy atom, donor atom, acceptor molecule, acceptor atom, score
      L1  H     4    43       P1  7948  0.98
      L1  H     7    31       P1  7948  0.92
      L1  H    10    32       P1  7948  0.24
      P1  H  7989  7998       L1    20  0.81

> <Gold.Chemscore.Hbond.Weighted>
-10.4962

> <Gold.Chemscore.Metal.Weighted>
-0.0000

> <Gold.Chemscore.Lipo.Weighted>
-10.4417

> <Gold.Chemscore.Internal_Hbond.Weighted>
0.0000

> <Gold.Chemscore.DEClash.Weighted>
0.1305

> <Gold.Chemscore.DEInternal.Weighted>
1.7571

> <Gold.Chemscore.Rot.Weighted>
3.9797

> <Gold.Chemscore.Internal.Correction.Weighted>
   9.000000E+99

> <Gold.Protein.RotatedTorsions>
[ 6907 6896 6895 6894 ] final   -6.57 input  -60.11 | X-H torsion
[ 7974 7965 7964 7962 ] final  -36.17 input  175.53 | X-H torsion
[ 8008 7997 7996 7995 ] final  -11.20 input   59.86 | X-H torsion
[ 10167 10162 10161 10158 ] final   55.88 input  -65.29 | X-H torsion
[ 10718 10713 10712 10709 ] final   34.15 input   66.30 | X-H torsion
[ 10763 10752 10751 10750 ] final  159.09 input  -60.55 | X-H torsion
[ 11005 11000 10999 10996 ] final   14.72 input  -57.11 | X-H torsion

> <Gold.Protein.ActiveResidues>
 VAL166  LYS551  ARG553  GLY616  TRP617  ASP618  TYR619  PRO620  LYS621  CYS622 
 ASP623  PHE694  ASN695  SER759  ASP760  ASP761  ALA762  ILE779  LEU786  VAL792 
 PHE793  MET794  SER795  GLU796  ALA797  LYS798  CYS799  TRP800  GLU811  SER814 

> <Gold.Protein.RotatedAtoms>
  151.4635  135.1040  159.9731 H   0  0  0  0  0  0  0  0  0  0  0  0  # atno 6907 bound_to 6896
  152.4844  133.8331  159.7124 H   0  0  0  0  0  0  0  0  0  0  0  0  # atno 6908 bound_to 6896
  150.8941  133.7144  159.2923 H   0  0  0  0  0  0  0  0  0  0  0  0  # atno 6909 bound_to 6896
  146.0685  140.6246  142.8964 H   0  0  0  0  0  0  0  0  0  0  0  0  # atno 7974 bound_to 7965
  154.5486  140.2309  155.8522 H   0  0  0  0  0  0  0  0  0  0  0  0  # atno 8008 bound_to 7997
  156.1926  140.3073  155.9324 H   0  0  0  0  0  0  0  0  0  0  0  0  # atno 8009 bound_to 7997
  155.3115  140.0436  157.3025 H   0  0  0  0  0  0  0  0  0  0  0  0  # atno 8010 bound_to 7997
  140.2147  144.3852  150.6474 H   0  0  0  0  0  0  0  0  0  0  0  0  # atno 10167 bound_to 10162
  157.3067  130.7378  149.6700 H   0  0  0  0  0  0  0  0  0  0  0  0  # atno 10718 bound_to 10713
  154.2263  135.2780  155.2906 H   0  0  0  0  0  0  0  0  0  0  0  0  # atno 10763 bound_to 10752
  154.5661  135.5632  153.7055 H   0  0  0  0  0  0  0  0  0  0  0  0  # atno 10764 bound_to 10752
  153.0030  135.6309  154.2404 H   0  0  0  0  0  0  0  0  0  0  0  0  # atno 10765 bound_to 10752
  140.4664  134.1075  155.7725 H   0  0  0  0  0  0  0  0  0  0  0  0  # atno 11005 bound_to 11000
  144.7217  140.4394  143.7003 LP  0  0  0  0  0  0  0  0  0  0  0  0  # atno 17320 bound_to 7965
  145.6435  139.1553  143.2902 LP  0  0  0  0  0  0  0  0  0  0  0  0  # atno 17321 bound_to 7965
  140.6298  143.2186  151.6519 LP  0  0  0  0  0  0  0  0  0  0  0  0  # atno 17342 bound_to 10162
  139.5166  144.3340  152.0801 LP  0  0  0  0  0  0  0  0  0  0  0  0  # atno 17343 bound_to 10162
  155.9675  130.4263  150.4695 LP  0  0  0  0  0  0  0  0  0  0  0  0  # atno 17370 bound_to 10713
  157.2686  131.0582  151.2274 LP  0  0  0  0  0  0  0  0  0  0  0  0  # atno 17371 bound_to 10713
  141.1597  133.8815  157.1880 LP  0  0  0  0  0  0  0  0  0  0  0  0  # atno 17394 bound_to 11000
  139.9913  135.0063  156.9981 LP  0  0  0  0  0  0  0  0  0  0  0  0  # atno 17395 bound_to 11000

$$$$
