AV-unprocessed.smi:1489|AV-procd|sdf|6028|dock10
  -GOLD-   22720 6133D 1   1.00000     0.00000
 Structure written by MMmdl.
 47 49  0  0  0  0  0  0  0  0  2 V2000
  146.4619  137.2742  153.6855 O   0  0  0  0  0  0  0  0  0  0  0  0
  146.1535  138.0718  152.8008 C   0  0  0  0  0  0  0  0  0  0  0  0
  146.6254  139.3261  152.6958 N   0  0  0  0  0  0  0  0  0  0  0  0
  147.5200  140.0052  153.5660 C   0  0  0  0  0  0  0  0  0  0  0  0
  148.6138  139.2797  154.0850 C   0  0  0  0  0  0  0  0  0  0  0  0
  149.5354  139.9189  154.9394 C   0  0  0  0  0  0  0  0  0  0  0  0
  149.3561  141.2858  155.2553 C   0  0  0  0  0  0  0  0  0  0  0  0
  150.2183  142.0147  156.0866 N   0  0  0  0  0  0  0  0  0  0  0  0
  149.5867  142.6329  157.2404 C   0  0  0  0  0  0  0  0  0  0  0  0
  150.7322  142.9929  158.1886 C   0  0  0  0  0  0  0  0  0  0  0  0
  151.8796  142.0565  157.7921 C   0  0  0  0  0  0  0  0  0  0  0  0
  151.3434  141.2530  156.6035 C   0  0  0  0  0  0  0  0  0  0  0  0
  148.3054  141.9496  154.7258 N   0  3  0  0  0  0  0  0  0  0  0  0
  147.3978  141.3742  153.9075 C   0  0  0  0  0  0  0  0  0  0  0  0
  145.3110  137.7873  151.7943 N   0  0  0  0  0  0  0  0  0  0  0  0
  144.6212  136.5207  151.5404 C   0  0  2  0  0  0  0  0  0  0  0  0
  143.7018  136.0963  152.7050 C   0  0  0  0  0  0  0  0  0  0  0  0
  142.9322  134.8084  152.3601 C   0  0  0  0  0  0  0  0  0  0  0  0
  143.8701  133.6635  151.9276 C   0  0  2  0  0  0  0  0  0  0  0  0
  144.6169  133.2028  153.0363 O   0  0  0  0  0  0  0  0  0  0  0  0
  144.8237  134.1001  150.7981 C   0  0  0  0  0  0  0  0  0  0  0  0
  145.5915  135.3863  151.1498 C   0  0  0  0  0  0  0  0  0  0  0  0
  146.3520  139.8352  151.8681 H   0  0  0  0  0  0  0  0  0  0  0  0
  148.7465  138.2369  153.8360 H   0  0  0  0  0  0  0  0  0  0  0  0
  150.3697  139.3616  155.3400 H   0  0  0  0  0  0  0  0  0  0  0  0
  149.0168  143.5158  156.9492 H   0  0  0  0  0  0  0  0  0  0  0  0
  148.9030  141.9368  157.7276 H   0  0  0  0  0  0  0  0  0  0  0  0
  151.0333  144.0305  158.0389 H   0  0  0  0  0  0  0  0  0  0  0  0
  150.4425  142.8788  159.2335 H   0  0  0  0  0  0  0  0  0  0  0  0
  152.7525  142.6401  157.4969 H   0  0  0  0  0  0  0  0  0  0  0  0
  152.1800  141.4020  158.6109 H   0  0  0  0  0  0  0  0  0  0  0  0
  151.0197  140.2649  156.9340 H   0  0  0  0  0  0  0  0  0  0  0  0
  152.1075  141.1166  155.8375 H   0  0  0  0  0  0  0  0  0  0  0  0
  146.6231  142.0371  153.5525 H   0  0  0  0  0  0  0  0  0  0  0  0
  145.1326  138.5210  151.1244 H   0  0  0  0  0  0  0  0  0  0  0  0
  143.9836  136.7156  150.6769 H   0  0  0  0  0  0  0  0  0  0  0  0
  144.2828  135.9321  153.6126 H   0  0  0  0  0  0  0  0  0  0  0  0
  142.9944  136.8944  152.9327 H   0  0  0  0  0  0  0  0  0  0  0  0
  142.3228  134.4975  153.2094 H   0  0  0  0  0  0  0  0  0  0  0  0
  142.2345  135.0202  151.5488 H   0  0  0  0  0  0  0  0  0  0  0  0
  143.2688  132.8229  151.5797 H   0  0  0  0  0  0  0  0  0  0  0  0
  144.0367  132.7344  153.6166 H   0  0  0  0  0  0  0  0  0  0  0  0
  145.5241  133.2978  150.5631 H   0  0  0  0  0  0  0  0  0  0  0  0
  144.2440  134.2713  149.8902 H   0  0  0  0  0  0  0  0  0  0  0  0
  146.2015  135.6916  150.2991 H   0  0  0  0  0  0  0  0  0  0  0  0
  146.2848  135.1772  151.9649 H   0  0  0  0  0  0  0  0  0  0  0  0
  148.1916  142.9378  154.9534 H   0  0  0  0  0  0  0  0  0  0  0  0
  1  2  2  0  0  0  0
  2  3  1  0  0  0  0
  2 15  1  0  0  0  0
  3  4  1  0  0  0  0
  3 23  1  0  0  0  0
  4 14  1  0  0  0  0
  4  5  2  0  0  0  0
  5  6  1  0  0  0  0
  5 24  1  0  0  0  0
  6  7  2  0  0  0  0
  6 25  1  0  0  0  0
  7  8  1  0  0  0  0
  7 13  1  0  0  0  0
  8 12  1  0  0  0  0
  8  9  1  0  0  0  0
  9 10  1  0  0  0  0
  9 26  1  0  0  0  0
  9 27  1  0  0  0  0
 10 11  1  0  0  0  0
 10 28  1  0  0  0  0
 10 29  1  0  0  0  0
 11 12  1  0  0  0  0
 11 30  1  0  0  0  0
 11 31  1  0  0  0  0
 12 32  1  0  0  0  0
 12 33  1  0  0  0  0
 13 14  2  0  0  0  0
 13 47  1  0  0  0  0
 14 34  1  0  0  0  0
 15 16  1  0  0  0  0
 15 35  1  0  0  0  0
 16 22  1  0  0  0  0
 16 17  1  0  0  0  0
 16 36  1  0  0  0  0
 17 18  1  0  0  0  0
 17 37  1  0  0  0  0
 17 38  1  0  0  0  0
 18 19  1  0  0  0  0
 18 39  1  0  0  0  0
 18 40  1  0  0  0  0
 19 20  1  0  0  0  0
 19 21  1  0  0  0  0
 19 41  1  0  0  0  0
 20 42  1  0  0  0  0
 21 22  1  0  0  0  0
 21 43  1  0  0  0  0
 21 44  1  0  0  0  0
 22 45  1  0  0  0  0
 22 46  1  0  0  0  0
M  CHG  1  13   1
M  END
> <s_m_source_file>
AV-unprocessed.smi

> <i_m_source_file_index>
1489

> <i_lp_mmshare_version>
43012

> <i_f3d_flags>
0

> <s_epik_input>
W0NIMl0xW0NIMl1bQ0BIXShbT0hdKVtDSDJdW0NIMl1bQ0BIXTFbTkhdQyg9TylbTkhdYzJbY0hdW2NIXWMobltjSF0yKU4zW0NIMl1bQ0gyXVtDSDJdW0NIMl0z

> <s_epik_cmdline>
J2VwaWtfcHl0aG9uJywgJy1waCcsICc3LjAnLCAnLXRuJywgJzgnLCAnLW1hJywgJzIwMCcsICctbWV0YWxfYmluZGluZycsICctaW1hZScsICc8aW5maWxlLm1hZT4nLCAnLW9tYWUnLCAnPG91dGZpbGUubWFlPic=

> <r_lp_tautomer_probability>
0.999994

> <r_epik_Ionization_Penalty>
1.08454

> <r_epik_Ionization_Penalty_Charging>
1.08452

> <r_epik_Ionization_Penalty_Neutral>
2.18252e-05

> <r_epik_State_Penalty>
1.14025

> <r_epik_Charging_Adjusted_Penalty>
2.22477

> <i_epik_Tot_Q>
1

> <i_epik_Tot_abs_Q>
1

> <r_epik_Metal_State_Penalty>
1.22975

> <b_epik_Metal_Only>
0

> <s_lp_Force_Field>
OPLS_2005

> <r_lp_Energy>
45.8336

> <b_lp_Chiralities_Consistent>
1

> <s_lp_Variant>
AV-unprocessed.smi:1489-4

> <Gold.Version>
5.8.1

> <Gold.Id.Protein>
6NUR|6NUR_protein|mol2

> <Gold.PLP.Fitness>
43.9985

> <Gold.PLP.PLP>
-33.8424

> <Gold.PLP.part.hbond>
-4.2726

> <Gold.PLP.part.metal>
0.0000

> <Gold.PLP.part.buried>
-2.1419

> <Gold.PLP.part.nonpolar>
-27.7118

> <Gold.PLP.part.repulsive>
0.6590

> <Gold.PLP.ligand.clash>
0.0000

> <Gold.PLP.ligand.torsion>
0.3399

> <Gold.PLP.Chemscore.Hbond>
3.5993

> <Gold.PLP.Chemscore.CHOScore>
0.0000

> <Gold.PLP.Chemscore.Metal>
0.0000

> <Gold.Chemscore.Hbonds>
donor molecule, donor type, donor heavy atom, donor atom, acceptor molecule, acceptor atom, score
      L1  H    13    47       P1  8028  2.00
      L1  H    15    35       P1 10171  0.59
      L1  H    20    42       P1 10957  0.99

> <Gold.PLP.Chemscore.Internal.Correction>
0.0381

> <Gold.Rescore>
     Score         DG    S(hbond)    S(metal)    S(lipo)     H(rot)  DE(clash)    DE(int)     intcor
     15.89     -18.99       2.43        0.00      83.22       1.69       1.54       1.56       ----

> <Gold.Chemscore.Fitness>
15.8857

> <Gold.Chemscore.DG>
-18.9918

> <Gold.Chemscore.ZeroCoef>
-5.4800

> <Gold.Chemscore.Hbond>
2.4278

> <Gold.Chemscore.Metal>
0.0000

> <Gold.Chemscore.Lipo>
83.2202

> <Gold.Chemscore.Internal_Hbond>
0.0000

> <Gold.Chemscore.DEClash>
1.5432

> <Gold.Chemscore.DEInternal>
1.5629

> <Gold.Chemscore.Rot>
1.6929

> <Gold.Chemscore.Internal.Correction>
   9.000000E+99

> <Gold.Chemscore.Hbonds>
donor molecule, donor type, donor heavy atom, donor atom, acceptor molecule, acceptor atom, score
      L1  H    13    47       P1  8028  0.91
      L1  H    15    35       P1 10171  0.60
      L1  H    20    42       P1 10957  0.60

> <Gold.Chemscore.Hbond.Weighted>
-8.1088

> <Gold.Chemscore.Metal.Weighted>
-0.0000

> <Gold.Chemscore.Lipo.Weighted>
-9.7368

> <Gold.Chemscore.Internal_Hbond.Weighted>
0.0000

> <Gold.Chemscore.DEClash.Weighted>
1.5432

> <Gold.Chemscore.DEInternal.Weighted>
1.5629

> <Gold.Chemscore.Rot.Weighted>
4.3338

> <Gold.Chemscore.Internal.Correction.Weighted>
   9.000000E+99

> <Gold.Protein.RotatedTorsions>
[ 6907 6896 6895 6894 ] final   22.24 input  -60.11 | X-H torsion
[ 7974 7965 7964 7962 ] final   86.05 input  175.53 | X-H torsion
[ 8008 7997 7996 7995 ] final  -46.70 input   59.86 | X-H torsion
[ 10167 10162 10161 10158 ] final  -61.91 input  -65.29 | X-H torsion
[ 10718 10713 10712 10709 ] final  175.18 input   66.30 | X-H torsion
[ 10763 10752 10751 10750 ] final  143.85 input  -60.55 | X-H torsion
[ 11005 11000 10999 10996 ] final -106.55 input  -57.11 | X-H torsion

> <Gold.Protein.ActiveResidues>
 VAL166  LYS551  ARG553  GLY616  TRP617  ASP618  TYR619  PRO620  LYS621  CYS622 
 ASP623  PHE694  ASN695  SER759  ASP760  ASP761  ALA762  ILE779  LEU786  VAL792 
 PHE793  MET794  SER795  GLU796  ALA797  LYS798  CYS799  TRP800  GLU811  SER814 

> <Gold.Protein.RotatedAtoms>
  151.9240  135.0285  160.0523 H   0  0  0  0  0  0  0  0  0  0  0  0  # atno 6907 bound_to 6896
  152.2175  133.4953  159.5152 H   0  0  0  0  0  0  0  0  0  0  0  0  # atno 6908 bound_to 6896
  150.6991  134.1303  159.4110 H   0  0  0  0  0  0  0  0  0  0  0  0  # atno 6909 bound_to 6896
  145.5774  139.2321  143.2372 H   0  0  0  0  0  0  0  0  0  0  0  0  # atno 7974 bound_to 7965
  154.4009  140.1365  156.4054 H   0  0  0  0  0  0  0  0  0  0  0  0  # atno 8008 bound_to 7997
  155.7785  140.3482  155.5264 H   0  0  0  0  0  0  0  0  0  0  0  0  # atno 8009 bound_to 7997
  155.8697  140.0970  157.1548 H   0  0  0  0  0  0  0  0  0  0  0  0  # atno 8010 bound_to 7997
  140.5974  143.2354  151.6004 H   0  0  0  0  0  0  0  0  0  0  0  0  # atno 10167 bound_to 10162
  156.9386  130.9994  151.2973 H   0  0  0  0  0  0  0  0  0  0  0  0  # atno 10718 bound_to 10713
  153.9792  135.2943  155.3421 H   0  0  0  0  0  0  0  0  0  0  0  0  # atno 10763 bound_to 10752
  154.7279  135.5081  153.8918 H   0  0  0  0  0  0  0  0  0  0  0  0  # atno 10764 bound_to 10752
  153.0863  135.6694  154.0057 H   0  0  0  0  0  0  0  0  0  0  0  0  # atno 10765 bound_to 10752
  141.0999  133.8904  157.1870 H   0  0  0  0  0  0  0  0  0  0  0  0  # atno 11005 bound_to 11000
  146.1741  140.6600  142.9219 LP  0  0  0  0  0  0  0  0  0  0  0  0  # atno 17320 bound_to 7965
  144.7410  140.4941  143.6869 LP  0  0  0  0  0  0  0  0  0  0  0  0  # atno 17321 bound_to 7965
  139.5268  144.3036  152.1053 LP  0  0  0  0  0  0  0  0  0  0  0  0  # atno 17342 bound_to 10162
  140.2211  144.4466  150.6342 LP  0  0  0  0  0  0  0  0  0  0  0  0  # atno 17343 bound_to 10162
  157.5800  130.8369  149.8508 LP  0  0  0  0  0  0  0  0  0  0  0  0  # atno 17370 bound_to 10713
  156.0414  130.3738  150.1425 LP  0  0  0  0  0  0  0  0  0  0  0  0  # atno 17371 bound_to 10713
  139.9847  135.0086  156.9833 LP  0  0  0  0  0  0  0  0  0  0  0  0  # atno 17394 bound_to 11000
  140.5049  134.1060  155.7258 LP  0  0  0  0  0  0  0  0  0  0  0  0  # atno 17395 bound_to 11000

$$$$
