AV-unprocessed.smi:1334|AV-procd|sdf|5492|dock7
  -GOLD-   22720 5 73D 1   1.00000     0.00000
 Structure written by MMmdl.
 38 39  0  0  0  0  0  0  0  0  1 V2000
  150.7169  137.0701  154.9334 C   0  0  0  0  0  0  0  0  0  0  0  0
  149.8358  138.3352  154.9604 C   0  0  2  0  0  0  0  0  0  0  0  0
  150.5698  139.5399  155.5661 C   0  0  0  0  0  0  0  0  0  0  0  0
  150.7492  140.5587  154.8978 O   0  0  0  0  0  0  0  0  0  0  0  0
  151.0042  139.3984  156.8289 N   0  0  0  0  0  0  0  0  0  0  0  0
  151.7979  140.3761  157.5694 C   0  0  0  0  0  0  0  0  0  0  0  0
  150.9680  141.6171  157.9515 C   0  0  0  0  0  0  0  0  0  0  0  0
  151.5279  142.4166  159.1209 C   0  0  0  0  0  0  0  0  0  0  0  0
  152.5763  141.9756  159.8439 C   0  0  0  0  0  0  0  0  0  0  0  0
  153.1505  142.6985  161.0496 C   0  0  0  0  0  0  0  0  0  0  0  0
  152.2274  143.8165  161.5617 C   0  0  0  0  0  0  0  0  0  0  0  0
  151.6278  144.6201  160.4018 C   0  0  0  0  0  0  0  0  0  0  0  0
  150.8109  143.7191  159.4592 C   0  0  0  0  0  0  0  0  0  0  0  0
  148.5742  138.1192  155.6590 N   0  0  0  0  0  0  0  0  0  0  0  0
  147.3260  138.1036  155.1872 C   0  0  0  0  0  0  0  0  0  0  0  0
  146.3998  137.9181  156.1173 N   0  0  0  0  0  0  0  0  0  0  0  0
  147.1988  137.8390  157.2219 C   0  0  0  0  0  0  0  0  0  0  0  0
  148.5077  137.9641  157.0054 N   0  0  0  0  0  0  0  0  0  0  0  0
  151.6275  137.2394  154.3579 H   0  0  0  0  0  0  0  0  0  0  0  0
  150.1870  136.2387  154.4677 H   0  0  0  0  0  0  0  0  0  0  0  0
  151.0145  136.7530  155.9337 H   0  0  0  0  0  0  0  0  0  0  0  0
  149.5887  138.5772  153.9252 H   0  0  0  0  0  0  0  0  0  0  0  0
  150.8054  138.5282  157.3007 H   0  0  0  0  0  0  0  0  0  0  0  0
  152.2322  139.9374  158.4686 H   0  0  0  0  0  0  0  0  0  0  0  0
  152.6416  140.6767  156.9479 H   0  0  0  0  0  0  0  0  0  0  0  0
  150.8729  142.2771  157.0888 H   0  0  0  0  0  0  0  0  0  0  0  0
  149.9546  141.2972  158.1978 H   0  0  0  0  0  0  0  0  0  0  0  0
  153.0647  141.0509  159.5728 H   0  0  0  0  0  0  0  0  0  0  0  0
  153.3335  141.9776  161.8465 H   0  0  0  0  0  0  0  0  0  0  0  0
  154.1200  143.1079  160.7684 H   0  0  0  0  0  0  0  0  0  0  0  0
  151.4176  143.3794  162.1474 H   0  0  0  0  0  0  0  0  0  0  0  0
  152.7769  144.4734  162.2366 H   0  0  0  0  0  0  0  0  0  0  0  0
  151.0004  145.4262  160.7828 H   0  0  0  0  0  0  0  0  0  0  0  0
  152.4330  145.0955  159.8403 H   0  0  0  0  0  0  0  0  0  0  0  0
  150.5855  144.2745  158.5494 H   0  0  0  0  0  0  0  0  0  0  0  0
  149.8538  143.4676  159.9174 H   0  0  0  0  0  0  0  0  0  0  0  0
  147.0893  138.2341  154.1413 H   0  0  0  0  0  0  0  0  0  0  0  0
  146.8033  137.6932  158.2161 H   0  0  0  0  0  0  0  0  0  0  0  0
  1  2  1  0  0  0  0
  1 19  1  0  0  0  0
  1 20  1  0  0  0  0
  1 21  1  0  0  0  0
  2  3  1  0  0  0  0
  2 14  1  0  0  0  0
  2 22  1  0  0  0  0
  3  4  2  0  0  0  0
  3  5  1  0  0  0  0
  5  6  1  0  0  0  0
  5 23  1  0  0  0  0
  6  7  1  0  0  0  0
  6 24  1  0  0  0  0
  6 25  1  0  0  0  0
  7  8  1  0  0  0  0
  7 26  1  0  0  0  0
  7 27  1  0  0  0  0
  8 13  1  0  0  0  0
  8  9  2  0  0  0  0
  9 10  1  0  0  0  0
  9 28  1  0  0  0  0
 10 11  1  0  0  0  0
 10 29  1  0  0  0  0
 10 30  1  0  0  0  0
 11 12  1  0  0  0  0
 11 31  1  0  0  0  0
 11 32  1  0  0  0  0
 12 13  1  0  0  0  0
 12 33  1  0  0  0  0
 12 34  1  0  0  0  0
 13 35  1  0  0  0  0
 13 36  1  0  0  0  0
 14 18  1  0  0  0  0
 14 15  1  0  0  0  0
 15 16  2  0  0  0  0
 15 37  1  0  0  0  0
 16 17  1  0  0  0  0
 17 18  2  0  0  0  0
 17 38  1  0  0  0  0
M  END
> <s_m_source_file>
AV-unprocessed.smi

> <i_m_source_file_index>
1334

> <i_lp_mmshare_version>
43012

> <i_f3d_flags>
0

> <s_epik_input>
bjFbY0hdbltjSF1uMVtDQEhdKFtDSDNdKUMoPU8pW05IXVtDSDJdW0NIMl1DMj1bQ0hdW0NIMl1bQ0gyXVtDSDJdW0NIMl0y

> <s_epik_cmdline>
J2VwaWtfcHl0aG9uJywgJy1waCcsICc3LjAnLCAnLXRuJywgJzgnLCAnLW1hJywgJzIwMCcsICctbWV0YWxfYmluZGluZycsICctaW1hZScsICc8aW5maWxlLm1hZT4nLCAnLW9tYWUnLCAnPG91dGZpbGUubWFlPic=

> <r_lp_tautomer_probability>
1

> <r_epik_Ionization_Penalty>
1.26383e-05

> <r_epik_Ionization_Penalty_Charging>
0

> <r_epik_Ionization_Penalty_Neutral>
1.26383e-05

> <r_epik_State_Penalty>
-0

> <r_epik_Charging_Adjusted_Penalty>
0

> <i_epik_Tot_Q>
0

> <i_epik_Tot_abs_Q>
0

> <r_epik_Metal_State_Penalty>
-0

> <b_epik_Metal_Only>
0

> <s_lp_Force_Field>
OPLS_2005

> <r_lp_Energy>
12.0281

> <b_lp_Chiralities_Consistent>
1

> <s_lp_Variant>
AV-unprocessed.smi:1334-1

> <Gold.Version>
5.8.1

> <Gold.Id.Protein>
6NUR|6NUR_protein|mol2

> <Gold.PLP.Fitness>
43.0922

> <Gold.PLP.PLP>
-35.5196

> <Gold.PLP.part.hbond>
-0.6702

> <Gold.PLP.part.metal>
0.0000

> <Gold.PLP.part.buried>
-4.2664

> <Gold.PLP.part.nonpolar>
-30.7759

> <Gold.PLP.part.repulsive>
0.2646

> <Gold.PLP.ligand.clash>
0.0000

> <Gold.PLP.ligand.torsion>
0.3378

> <Gold.PLP.Chemscore.Hbond>
0.8480

> <Gold.PLP.Chemscore.CHOScore>
1.8639

> <Gold.PLP.Chemscore.Metal>
0.0000

> <Gold.Chemscore.Hbonds>
donor molecule, donor type, donor heavy atom, donor atom, acceptor molecule, acceptor atom, score
      P1  H  7989  7998       L1     4  1.00

> <Gold.PLP.Chemscore.Internal.Correction>
0.1125

> <Gold.Rescore>
     Score         DG    S(hbond)    S(metal)    S(lipo)     H(rot)  DE(clash)    DE(int)     intcor
     11.08     -12.77       0.88        0.00      89.86       2.40       0.09       1.60       ----

> <Gold.Chemscore.Fitness>
11.0800

> <Gold.Chemscore.DG>
-12.7704

> <Gold.Chemscore.ZeroCoef>
-5.4800

> <Gold.Chemscore.Hbond>
0.8752

> <Gold.Chemscore.Metal>
0.0000

> <Gold.Chemscore.Lipo>
89.8638

> <Gold.Chemscore.Internal_Hbond>
0.0000

> <Gold.Chemscore.DEClash>
0.0887

> <Gold.Chemscore.DEInternal>
1.6017

> <Gold.Chemscore.Rot>
2.4011

> <Gold.Chemscore.Internal.Correction>
   9.000000E+99

> <Gold.Chemscore.Hbonds>
donor molecule, donor type, donor heavy atom, donor atom, acceptor molecule, acceptor atom, score
      P1  H  7989  7998       L1     4  0.94

> <Gold.Chemscore.Hbond.Weighted>
-2.9232

> <Gold.Chemscore.Metal.Weighted>
-0.0000

> <Gold.Chemscore.Lipo.Weighted>
-10.5141

> <Gold.Chemscore.Internal_Hbond.Weighted>
0.0000

> <Gold.Chemscore.DEClash.Weighted>
0.0887

> <Gold.Chemscore.DEInternal.Weighted>
1.6017

> <Gold.Chemscore.Rot.Weighted>
6.1469

> <Gold.Chemscore.Internal.Correction.Weighted>
   9.000000E+99

> <Gold.Protein.RotatedTorsions>
[ 6907 6896 6895 6894 ] final  -98.99 input  -60.11 | X-H torsion
[ 7974 7965 7964 7962 ] final -156.20 input  175.53 | X-H torsion
[ 8008 7997 7996 7995 ] final  -29.16 input   59.86 | X-H torsion
[ 10167 10162 10161 10158 ] final   25.68 input  -65.29 | X-H torsion
[ 10718 10713 10712 10709 ] final   51.63 input   66.30 | X-H torsion
[ 10763 10752 10751 10750 ] final  -78.58 input  -60.55 | X-H torsion
[ 11005 11000 10999 10996 ] final -135.98 input  -57.11 | X-H torsion

> <Gold.Protein.ActiveResidues>
 VAL166  LYS551  ARG553  GLY616  TRP617  ASP618  TYR619  PRO620  LYS621  CYS622 
 ASP623  PHE694  ASN695  SER759  ASP760  ASP761  ALA762  ILE779  LEU786  VAL792 
 PHE793  MET794  SER795  GLU796  ALA797  LYS798  CYS799  TRP800  GLU811  SER814 

> <Gold.Protein.RotatedAtoms>
  150.7065  134.1109  159.3999 H   0  0  0  0  0  0  0  0  0  0  0  0  # atno 6907 bound_to 6896
  151.9095  135.0342  160.0522 H   0  0  0  0  0  0  0  0  0  0  0  0  # atno 6908 bound_to 6896
  152.2347  133.5051  159.5272 H   0  0  0  0  0  0  0  0  0  0  0  0  # atno 6909 bound_to 6896
  144.7604  140.4143  143.5981 H   0  0  0  0  0  0  0  0  0  0  0  0  # atno 7974 bound_to 7965
  154.4301  140.1825  156.1205 H   0  0  0  0  0  0  0  0  0  0  0  0  # atno 8008 bound_to 7997
  156.0147  140.3347  155.6951 H   0  0  0  0  0  0  0  0  0  0  0  0  # atno 8009 bound_to 7997
  155.6061  140.0645  157.2710 H   0  0  0  0  0  0  0  0  0  0  0  0  # atno 8010 bound_to 7997
  140.5086  144.0198  150.6362 H   0  0  0  0  0  0  0  0  0  0  0  0  # atno 10167 bound_to 10162
  157.4998  130.8430  149.8303 H   0  0  0  0  0  0  0  0  0  0  0  0  # atno 10718 bound_to 10713
  154.5277  135.5725  153.6733 H   0  0  0  0  0  0  0  0  0  0  0  0  # atno 10763 bound_to 10752
  152.9932  135.6197  154.2670 H   0  0  0  0  0  0  0  0  0  0  0  0  # atno 10764 bound_to 10752
  154.2594  135.2856  155.2764 H   0  0  0  0  0  0  0  0  0  0  0  0  # atno 10765 bound_to 10752
  140.8848  134.1886  157.4567 H   0  0  0  0  0  0  0  0  0  0  0  0  # atno 11005 bound_to 11000
  145.6638  139.1586  143.2793 LP  0  0  0  0  0  0  0  0  0  0  0  0  # atno 17320 bound_to 7965
  146.1661  140.6716  142.9255 LP  0  0  0  0  0  0  0  0  0  0  0  0  # atno 17321 bound_to 7965
  140.3514  143.2961  152.0483 LP  0  0  0  0  0  0  0  0  0  0  0  0  # atno 17342 bound_to 10162
  139.4890  144.6371  151.6953 LP  0  0  0  0  0  0  0  0  0  0  0  0  # atno 17343 bound_to 10162
  156.0222  130.3791  150.1927 LP  0  0  0  0  0  0  0  0  0  0  0  0  # atno 17370 bound_to 10713
  157.0116  130.9953  151.3364 LP  0  0  0  0  0  0  0  0  0  0  0  0  # atno 17371 bound_to 10713
  139.8723  134.9833  156.5192 LP  0  0  0  0  0  0  0  0  0  0  0  0  # atno 17394 bound_to 11000
  140.8418  133.8199  155.9082 LP  0  0  0  0  0  0  0  0  0  0  0  0  # atno 17395 bound_to 11000

$$$$
