AV-unprocessed.smi:3031|AV-procd|sdf|11541|dock8
  -GOLD-   2272016493D 1   1.00000     0.00000
 Structure written by MMmdl.
 47 48  0  0  0  0  0  0  0  0  2 V2000
  151.6819  142.4224  158.1555 C   0  0  0  0  0  0  0  0  0  0  0  0
  150.6009  141.9050  157.2510 C   0  0  0  0  0  0  0  0  0  0  0  0
  149.2434  141.6259  157.5790 C   0  0  0  0  0  0  0  0  0  0  0  0
  148.5474  141.1772  156.5471 N   0  0  0  0  0  0  0  0  0  0  0  0
  149.4321  141.1548  155.5280 N   0  0  0  0  0  0  0  0  0  0  0  0
  149.0109  140.6960  154.2170 C   0  0  0  0  0  0  0  0  0  0  0  0
  148.8245  139.1656  154.1486 C   0  0  2  0  0  0  0  0  0  0  0  0
  150.1524  138.4451  154.4176 C   0  0  0  0  0  0  0  0  0  0  0  0
  148.2980  138.7480  152.8291 N   0  3  0  0  0  0  0  0  0  0  0  0
  146.8254  138.6354  152.7478 C   0  0  0  0  0  0  0  0  0  0  0  0
  146.4005  137.4082  151.9204 C   0  0  2  0  0  0  0  0  0  0  0  0
  146.4639  137.7777  150.5563 O   0  0  0  0  0  0  0  0  0  0  0  0
  144.9592  136.9044  152.1645 C   0  0  0  0  0  0  0  0  0  0  0  0
  144.5925  135.6474  151.5053 N   0  0  0  0  0  0  0  0  0  0  0  0
  145.7499  134.7940  151.2325 C   0  0  0  0  0  0  0  0  0  0  0  0
  145.3445  133.4721  150.5568 C   0  0  0  0  0  0  0  0  0  0  0  0
  144.4091  132.7840  151.3795 O   0  0  0  0  0  0  0  0  0  0  0  0
  143.2464  133.5582  151.6517 C   0  0  0  0  0  0  0  0  0  0  0  0
  143.6542  134.8813  152.3231 C   0  0  0  0  0  0  0  0  0  0  0  0
  150.6785  141.5904  155.9239 C   0  0  0  0  0  0  0  0  0  0  0  0
  151.2912  142.7114  159.1315 H   0  0  0  0  0  0  0  0  0  0  0  0
  152.1726  143.3002  157.7344 H   0  0  0  0  0  0  0  0  0  0  0  0
  152.4542  141.6726  158.3282 H   0  0  0  0  0  0  0  0  0  0  0  0
  148.7465  141.7341  158.5321 H   0  0  0  0  0  0  0  0  0  0  0  0
  148.0886  141.2091  153.9382 H   0  0  0  0  0  0  0  0  0  0  0  0
  149.7679  141.0117  153.4980 H   0  0  0  0  0  0  0  0  0  0  0  0
  148.1261  138.8574  154.9287 H   0  0  0  0  0  0  0  0  0  0  0  0
  150.5504  138.7085  155.3981 H   0  0  0  0  0  0  0  0  0  0  0  0
  150.9056  138.7055  153.6729 H   0  0  0  0  0  0  0  0  0  0  0  0
  150.0235  137.3624  154.3975 H   0  0  0  0  0  0  0  0  0  0  0  0
  148.6109  139.4110  152.1335 H   0  0  0  0  0  0  0  0  0  0  0  0
  146.4684  138.5457  153.7710 H   0  0  0  0  0  0  0  0  0  0  0  0
  146.3935  139.5434  152.3269 H   0  0  0  0  0  0  0  0  0  0  0  0
  147.1040  136.5899  152.0793 H   0  0  0  0  0  0  0  0  0  0  0  0
  145.6895  138.2763  150.3427 H   0  0  0  0  0  0  0  0  0  0  0  0
  144.7444  136.8514  153.2331 H   0  0  0  0  0  0  0  0  0  0  0  0
  144.3006  137.6874  151.7843 H   0  0  0  0  0  0  0  0  0  0  0  0
  146.4704  135.2978  150.5960 H   0  0  0  0  0  0  0  0  0  0  0  0
  146.2709  134.5700  152.1648 H   0  0  0  0  0  0  0  0  0  0  0  0
  144.9096  133.6576  149.5735 H   0  0  0  0  0  0  0  0  0  0  0  0
  146.2192  132.8387  150.4065 H   0  0  0  0  0  0  0  0  0  0  0  0
  142.7010  133.7467  150.7257 H   0  0  0  0  0  0  0  0  0  0  0  0
  142.5836  132.9895  152.3042 H   0  0  0  0  0  0  0  0  0  0  0  0
  144.0978  134.6705  153.2978 H   0  0  0  0  0  0  0  0  0  0  0  0
  142.7568  135.4721  152.5102 H   0  0  0  0  0  0  0  0  0  0  0  0
  151.5102  141.6368  155.2364 H   0  0  0  0  0  0  0  0  0  0  0  0
  148.6845  137.8426  152.6045 H   0  0  0  0  0  0  0  0  0  0  0  0
  1  2  1  0  0  0  0
  1 21  1  0  0  0  0
  1 22  1  0  0  0  0
  1 23  1  0  0  0  0
  2 20  2  0  0  0  0
  2  3  1  0  0  0  0
  3  4  2  0  0  0  0
  3 24  1  0  0  0  0
  4  5  1  0  0  0  0
  5  6  1  0  0  0  0
  5 20  1  0  0  0  0
  6  7  1  0  0  0  0
  6 25  1  0  0  0  0
  6 26  1  0  0  0  0
  7  8  1  0  0  0  0
  7  9  1  0  0  0  0
  7 27  1  0  0  0  0
  8 28  1  0  0  0  0
  8 29  1  0  0  0  0
  8 30  1  0  0  0  0
  9 10  1  0  0  0  0
  9 31  1  0  0  0  0
  9 47  1  0  0  0  0
 10 11  1  0  0  0  0
 10 32  1  0  0  0  0
 10 33  1  0  0  0  0
 11 12  1  0  0  0  0
 11 13  1  0  0  0  0
 11 34  1  0  0  0  0
 12 35  1  0  0  0  0
 13 14  1  0  0  0  0
 13 36  1  0  0  0  0
 13 37  1  0  0  0  0
 14 19  1  0  0  0  0
 14 15  1  0  0  0  0
 15 16  1  0  0  0  0
 15 38  1  0  0  0  0
 15 39  1  0  0  0  0
 16 17  1  0  0  0  0
 16 40  1  0  0  0  0
 16 41  1  0  0  0  0
 17 18  1  0  0  0  0
 18 19  1  0  0  0  0
 18 42  1  0  0  0  0
 18 43  1  0  0  0  0
 19 44  1  0  0  0  0
 19 45  1  0  0  0  0
 20 46  1  0  0  0  0
M  CHG  1   9   1
M  END
> <s_m_source_file>
AV-unprocessed.smi

> <i_m_source_file_index>
3031

> <i_lp_mmshare_version>
43012

> <i_f3d_flags>
0

> <s_epik_input>
W0NIM11jMVtjSF1ubihbY0hdMSlbQ0gyXVtDQEhdKFtDSDNdKVtOSF1bQ0gyXVtDQEhdKFtPSF0pW0NIMl1OMltDSDJdW0NIMl1PW0NIMl1bQ0gyXTI=

> <s_epik_cmdline>
J2VwaWtfcHl0aG9uJywgJy1waCcsICc3LjAnLCAnLXRuJywgJzgnLCAnLW1hJywgJzIwMCcsICctbWV0YWxfYmluZGluZycsICctaW1hZScsICc8aW5maWxlLm1hZT4nLCAnLW9tYWUnLCAnPG91dGZpbGUubWFlPic=

> <r_lp_tautomer_probability>
1

> <r_epik_Ionization_Penalty>
0.108564

> <r_epik_Ionization_Penalty_Charging>
0.01811

> <r_epik_Ionization_Penalty_Neutral>
0.0904541

> <r_epik_State_Penalty>
0.141043

> <r_epik_Charging_Adjusted_Penalty>
0.159153

> <i_epik_Tot_Q>
1

> <i_epik_Tot_abs_Q>
1

> <r_epik_Metal_State_Penalty>
0.141052

> <b_epik_Metal_Only>
0

> <s_lp_Force_Field>
OPLS_2005

> <r_lp_Energy>
31.5788

> <b_lp_Chiralities_Consistent>
1

> <s_lp_Variant>
AV-unprocessed.smi:3031-1

> <Gold.Version>
5.8.1

> <Gold.Id.Protein>
6NUR|6NUR_protein|mol2

> <Gold.PLP.Fitness>
49.5770

> <Gold.PLP.PLP>
-37.6524

> <Gold.PLP.part.hbond>
-4.3308

> <Gold.PLP.part.metal>
0.0000

> <Gold.PLP.part.buried>
-3.4692

> <Gold.PLP.part.nonpolar>
-30.8337

> <Gold.PLP.part.repulsive>
0.4655

> <Gold.PLP.ligand.clash>
0.0000

> <Gold.PLP.ligand.torsion>
1.6067

> <Gold.PLP.Chemscore.Hbond>
4.9760

> <Gold.PLP.Chemscore.CHOScore>
0.0000

> <Gold.PLP.Chemscore.Metal>
0.0000

> <Gold.Chemscore.Hbonds>
donor molecule, donor type, donor heavy atom, donor atom, acceptor molecule, acceptor atom, score
      L1  H     9    31       P1  7957  0.96
      L1  H     9    47       P1  7948  2.00
      L1  H    12    35       P1 10171  1.00
      P1  H  7954  7966       L1    12  0.98

> <Gold.PLP.Chemscore.Internal.Correction>
0.2100

> <Gold.Rescore>
     Score         DG    S(hbond)    S(metal)    S(lipo)     H(rot)  DE(clash)    DE(int)     intcor
     19.29     -22.36       3.90        0.00      90.58       2.63       1.35       1.72       ----

> <Gold.Chemscore.Fitness>
19.2905

> <Gold.Chemscore.DG>
-22.3631

> <Gold.Chemscore.ZeroCoef>
-5.4800

> <Gold.Chemscore.Hbond>
3.8954

> <Gold.Chemscore.Metal>
0.0000

> <Gold.Chemscore.Lipo>
90.5779

> <Gold.Chemscore.Internal_Hbond>
0.0000

> <Gold.Chemscore.DEClash>
1.3515

> <Gold.Chemscore.DEInternal>
1.7211

> <Gold.Chemscore.Rot>
2.6270

> <Gold.Chemscore.Internal.Correction>
   9.000000E+99

> <Gold.Chemscore.Hbonds>
donor molecule, donor type, donor heavy atom, donor atom, acceptor molecule, acceptor atom, score
      L1  H     9    31       P1  7957  0.90
      L1  H     9    47       P1  7948  1.00
      L1  H    12    35       P1 10171  0.99
      P1  H  7954  7966       L1    12  0.84

> <Gold.Chemscore.Hbond.Weighted>
-13.0106

> <Gold.Chemscore.Metal.Weighted>
-0.0000

> <Gold.Chemscore.Lipo.Weighted>
-10.5976

> <Gold.Chemscore.Internal_Hbond.Weighted>
0.0000

> <Gold.Chemscore.DEClash.Weighted>
1.3515

> <Gold.Chemscore.DEInternal.Weighted>
1.7211

> <Gold.Chemscore.Rot.Weighted>
6.7251

> <Gold.Chemscore.Internal.Correction.Weighted>
   9.000000E+99

> <Gold.Protein.RotatedTorsions>
[ 6907 6896 6895 6894 ] final   50.85 input  -60.11 | X-H torsion
[ 7974 7965 7964 7962 ] final   49.79 input  175.53 | X-H torsion
[ 8008 7997 7996 7995 ] final   20.30 input   59.86 | X-H torsion
[ 10167 10162 10161 10158 ] final  131.11 input  -65.29 | X-H torsion
[ 10718 10713 10712 10709 ] final  124.27 input   66.30 | X-H torsion
[ 10763 10752 10751 10750 ] final  -76.00 input  -60.55 | X-H torsion
[ 11005 11000 10999 10996 ] final -121.08 input  -57.11 | X-H torsion

> <Gold.Protein.ActiveResidues>
 VAL166  LYS551  ARG553  GLY616  TRP617  ASP618  TYR619  PRO620  LYS621  CYS622 
 ASP623  PHE694  ASN695  SER759  ASP760  ASP761  ALA762  ILE779  LEU786  VAL792 
 PHE793  MET794  SER795  GLU796  ALA797  LYS798  CYS799  TRP800  GLU811  SER814 

> <Gold.Protein.RotatedAtoms>
  152.3063  134.7551  160.0346 H   0  0  0  0  0  0  0  0  0  0  0  0  # atno 6907 bound_to 6896
  151.8047  133.3369  159.3545 H   0  0  0  0  0  0  0  0  0  0  0  0  # atno 6908 bound_to 6896
  150.7298  134.5650  159.5906 H   0  0  0  0  0  0  0  0  0  0  0  0  # atno 6909 bound_to 6896
  146.0075  139.4506  142.9977 H   0  0  0  0  0  0  0  0  0  0  0  0  # atno 7974 bound_to 7965
  154.9335  140.3043  155.5156 H   0  0  0  0  0  0  0  0  0  0  0  0  # atno 8008 bound_to 7997
  156.3001  140.2349  156.4334 H   0  0  0  0  0  0  0  0  0  0  0  0  # atno 8009 bound_to 7997
  154.8214  140.0423  157.1402 H   0  0  0  0  0  0  0  0  0  0  0  0  # atno 8010 bound_to 7997
  139.5399  144.6720  151.4660 H   0  0  0  0  0  0  0  0  0  0  0  0  # atno 10167 bound_to 10162
  157.5598  131.1090  150.8558 H   0  0  0  0  0  0  0  0  0  0  0  0  # atno 10718 bound_to 10713
  154.4941  135.5812  153.6481 H   0  0  0  0  0  0  0  0  0  0  0  0  # atno 10763 bound_to 10752
  152.9867  135.6120  154.3087 H   0  0  0  0  0  0  0  0  0  0  0  0  # atno 10764 bound_to 10752
  154.2990  135.2847  155.2599 H   0  0  0  0  0  0  0  0  0  0  0  0  # atno 10765 bound_to 10752
  141.0096  134.0284  157.3431 H   0  0  0  0  0  0  0  0  0  0  0  0  # atno 11005 bound_to 11000
  145.7393  141.0014  143.1309 LP  0  0  0  0  0  0  0  0  0  0  0  0  # atno 17320 bound_to 7965
  144.6941  139.9080  143.7462 LP  0  0  0  0  0  0  0  0  0  0  0  0  # atno 17321 bound_to 7965
  140.6624  143.8471  150.6902 LP  0  0  0  0  0  0  0  0  0  0  0  0  # atno 17342 bound_to 10162
  140.1869  143.4068  152.1892 LP  0  0  0  0  0  0  0  0  0  0  0  0  # atno 17343 bound_to 10162
  156.9059  130.5263  149.5281 LP  0  0  0  0  0  0  0  0  0  0  0  0  # atno 17370 bound_to 10713
  156.0652  130.5697  150.9274 LP  0  0  0  0  0  0  0  0  0  0  0  0  # atno 17371 bound_to 10713
  139.9082  135.0184  156.7580 LP  0  0  0  0  0  0  0  0  0  0  0  0  # atno 17394 bound_to 11000
  140.6755  133.9521  155.7880 LP  0  0  0  0  0  0  0  0  0  0  0  0  # atno 17395 bound_to 11000

$$$$
