AV-unprocessed.smi:1985|AV-procd|sdf|8043|dock8
  -GOLD-   2272010243D 1   1.00000     0.00000
 Structure written by MMmdl.
 50 51  0  0  0  0  0  0  0  0  1 V2000
  147.3969  139.8371  153.0174 C   0  0  0  0  0  0  0  0  0  0  0  0
  148.0585  139.5166  154.3697 C   0  0  0  0  0  0  0  0  0  0  0  0
  148.4185  140.7525  155.2557 C   0  0  2  0  0  0  0  0  0  0  0  0
  149.3007  141.6789  154.3740 C   0  0  0  0  0  0  0  0  0  0  0  0
  149.2803  140.2547  156.4586 C   0  0  0  0  0  0  0  0  0  0  0  0
  150.1803  141.2873  156.9591 N   0  0  0  0  0  0  0  0  0  0  0  0
  151.1185  141.1339  157.9063 C   0  0  0  0  0  0  0  0  0  0  0  0
  151.2927  140.0770  158.5109 O   0  0  0  0  0  0  0  0  0  0  0  0
  152.0117  142.3447  158.2314 C   0  0  0  0  0  0  0  0  0  0  0  0
  152.3221  142.5086  159.6612 N   0  0  0  0  0  0  0  0  0  0  0  0
  151.8469  143.6169  160.3386 C   0  0  0  0  0  0  0  0  0  0  0  0
  152.1195  143.8704  161.6370 C   0  0  0  0  0  0  0  0  0  0  0  0
  152.9533  142.9634  162.4155 C   0  0  0  0  0  0  0  0  0  0  0  0
  153.2507  143.1611  163.5944 O   0  0  0  0  0  0  0  0  0  0  0  0
  153.4131  141.8303  161.7059 N   0  0  0  0  0  0  0  0  0  0  0  0
  154.2677  140.9122  162.4297 C   0  0  0  0  0  0  0  0  0  0  0  0
  153.1297  141.5724  160.3449 C   0  0  0  0  0  0  0  0  0  0  0  0
  153.5759  140.5872  159.7529 O   0  0  0  0  0  0  0  0  0  0  0  0
  147.1907  141.4691  155.7028 N   0  0  0  0  0  0  0  0  0  0  0  0
  146.5322  142.2828  154.6739 C   0  0  0  0  0  0  0  0  0  0  0  0
  145.1997  142.8705  155.1697 C   0  0  0  0  0  0  0  0  0  0  0  0
  145.4213  143.6372  156.3473 O   0  0  0  0  0  0  0  0  0  0  0  0
  146.0094  142.8707  157.3915 C   0  0  0  0  0  0  0  0  0  0  0  0
  147.3487  142.2851  156.9129 C   0  0  0  0  0  0  0  0  0  0  0  0
  147.1646  138.9173  152.4808 H   0  0  0  0  0  0  0  0  0  0  0  0
  148.0515  140.4279  152.3772 H   0  0  0  0  0  0  0  0  0  0  0  0
  146.4631  140.3853  153.1411 H   0  0  0  0  0  0  0  0  0  0  0  0
  147.4164  138.8300  154.9215 H   0  0  0  0  0  0  0  0  0  0  0  0
  148.9554  138.9337  154.1575 H   0  0  0  0  0  0  0  0  0  0  0  0
  150.0716  141.1251  153.8363 H   0  0  0  0  0  0  0  0  0  0  0  0
  149.8205  142.4318  154.9668 H   0  0  0  0  0  0  0  0  0  0  0  0
  148.7076  142.2062  153.6264 H   0  0  0  0  0  0  0  0  0  0  0  0
  148.6519  139.9468  157.2940 H   0  0  0  0  0  0  0  0  0  0  0  0
  149.8662  139.3816  156.1697 H   0  0  0  0  0  0  0  0  0  0  0  0
  150.1091  142.1932  156.5191 H   0  0  0  0  0  0  0  0  0  0  0  0
  152.9378  142.2433  157.6639 H   0  0  0  0  0  0  0  0  0  0  0  0
  151.5332  143.2465  157.8462 H   0  0  0  0  0  0  0  0  0  0  0  0
  151.2314  144.3238  159.8010 H   0  0  0  0  0  0  0  0  0  0  0  0
  151.7209  144.7593  162.1037 H   0  0  0  0  0  0  0  0  0  0  0  0
  154.3694  139.9684  161.8947 H   0  0  0  0  0  0  0  0  0  0  0  0
  153.8062  140.7131  163.3987 H   0  0  0  0  0  0  0  0  0  0  0  0
  155.2364  141.4018  162.5412 H   0  0  0  0  0  0  0  0  0  0  0  0
  147.1817  143.1020  154.3655 H   0  0  0  0  0  0  0  0  0  0  0  0
  146.3228  141.6917  153.7840 H   0  0  0  0  0  0  0  0  0  0  0  0
  144.7606  143.5114  154.4051 H   0  0  0  0  0  0  0  0  0  0  0  0
  144.4800  142.0762  155.3735 H   0  0  0  0  0  0  0  0  0  0  0  0
  146.1640  143.5116  158.2596 H   0  0  0  0  0  0  0  0  0  0  0  0
  145.3280  142.0754  157.6977 H   0  0  0  0  0  0  0  0  0  0  0  0
  147.7658  141.6985  157.7293 H   0  0  0  0  0  0  0  0  0  0  0  0
  148.0408  143.1064  156.7274 H   0  0  0  0  0  0  0  0  0  0  0  0
  1  2  1  0  0  0  0
  1 25  1  0  0  0  0
  1 26  1  0  0  0  0
  1 27  1  0  0  0  0
  2  3  1  0  0  0  0
  2 28  1  0  0  0  0
  2 29  1  0  0  0  0
  3  4  1  0  0  0  0
  3  5  1  0  0  0  0
  3 19  1  0  0  0  0
  4 30  1  0  0  0  0
  4 31  1  0  0  0  0
  4 32  1  0  0  0  0
  5  6  1  0  0  0  0
  5 33  1  0  0  0  0
  5 34  1  0  0  0  0
  6  7  1  0  0  0  0
  6 35  1  0  0  0  0
  7  8  2  0  0  0  0
  7  9  1  0  0  0  0
  9 10  1  0  0  0  0
  9 36  1  0  0  0  0
  9 37  1  0  0  0  0
 10 17  1  0  0  0  0
 10 11  1  0  0  0  0
 11 12  2  0  0  0  0
 11 38  1  0  0  0  0
 12 13  1  0  0  0  0
 12 39  1  0  0  0  0
 13 14  2  0  0  0  0
 13 15  1  0  0  0  0
 15 16  1  0  0  0  0
 15 17  1  0  0  0  0
 16 40  1  0  0  0  0
 16 41  1  0  0  0  0
 16 42  1  0  0  0  0
 17 18  2  0  0  0  0
 19 24  1  0  0  0  0
 19 20  1  0  0  0  0
 20 21  1  0  0  0  0
 20 43  1  0  0  0  0
 20 44  1  0  0  0  0
 21 22  1  0  0  0  0
 21 45  1  0  0  0  0
 21 46  1  0  0  0  0
 22 23  1  0  0  0  0
 23 24  1  0  0  0  0
 23 47  1  0  0  0  0
 23 48  1  0  0  0  0
 24 49  1  0  0  0  0
 24 50  1  0  0  0  0
M  END
> <s_m_source_file>
AV-unprocessed.smi

> <i_m_source_file_index>
1985

> <i_lp_mmshare_version>
43012

> <i_f3d_flags>
0

> <s_epik_input>
W0NIMl0xW0NIMl1PW0NIMl1bQ0gyXU4xW0NAQF0oW0NIM10pKFtDSDJdW0NIM10pW0NIMl1bTkhdQyg9TylbQ0gyXW4yW2NIXVtjSF1jKD1PKW4oW0NIM10pYzI9Tw==

> <s_epik_cmdline>
J2VwaWtfcHl0aG9uJywgJy1waCcsICc3LjAnLCAnLXRuJywgJzgnLCAnLW1hJywgJzIwMCcsICctbWV0YWxfYmluZGluZycsICctaW1hZScsICc8aW5maWxlLm1hZT4nLCAnLW9tYWUnLCAnPG91dGZpbGUubWFlPic=

> <r_lp_tautomer_probability>
1

> <r_epik_Ionization_Penalty>
0.318667

> <r_epik_Ionization_Penalty_Charging>
1.17294e-08

> <r_epik_Ionization_Penalty_Neutral>
0.318667

> <r_epik_State_Penalty>
0.313095

> <r_epik_Charging_Adjusted_Penalty>
0.313095

> <i_epik_Tot_Q>
0

> <i_epik_Tot_abs_Q>
0

> <r_epik_Metal_State_Penalty>
0.313065

> <b_epik_Metal_Only>
0

> <s_lp_Force_Field>
OPLS_2005

> <r_lp_Energy>
50.9959

> <b_lp_Chiralities_Consistent>
1

> <s_lp_Variant>
AV-unprocessed.smi:1985-2

> <Gold.Version>
5.8.1

> <Gold.Id.Protein>
6NUR|6NUR_protein|mol2

> <Gold.PLP.Fitness>
41.3292

> <Gold.PLP.PLP>
-43.9464

> <Gold.PLP.part.hbond>
0.0000

> <Gold.PLP.part.metal>
0.0000

> <Gold.PLP.part.buried>
-4.5501

> <Gold.PLP.part.nonpolar>
-38.1833

> <Gold.PLP.part.repulsive>
0.3741

> <Gold.PLP.ligand.clash>
0.0000

> <Gold.PLP.ligand.torsion>
1.3889

> <Gold.PLP.Chemscore.Hbond>
0.0000

> <Gold.PLP.Chemscore.CHOScore>
0.0000

> <Gold.PLP.Chemscore.Metal>
0.0000

> <Gold.PLP.Chemscore.Internal.Correction>
0.1606

> <Gold.Rescore>
     Score         DG    S(hbond)    S(metal)    S(lipo)     H(rot)  DE(clash)    DE(int)     intcor
      4.74      -9.30       0.00        0.00      80.66       2.20       0.13       4.43       ----

> <Gold.Chemscore.Fitness>
4.7385

> <Gold.Chemscore.DG>
-9.2970

> <Gold.Chemscore.ZeroCoef>
-5.4800

> <Gold.Chemscore.Hbond>
0.0000

> <Gold.Chemscore.Metal>
0.0000

> <Gold.Chemscore.Lipo>
80.6554

> <Gold.Chemscore.Internal_Hbond>
0.0000

> <Gold.Chemscore.DEClash>
0.1254

> <Gold.Chemscore.DEInternal>
4.4332

> <Gold.Chemscore.Rot>
2.1952

> <Gold.Chemscore.Internal.Correction>
   9.000000E+99

> <Gold.Chemscore.Hbond.Weighted>
-0.0000

> <Gold.Chemscore.Metal.Weighted>
-0.0000

> <Gold.Chemscore.Lipo.Weighted>
-9.4367

> <Gold.Chemscore.Internal_Hbond.Weighted>
0.0000

> <Gold.Chemscore.DEClash.Weighted>
0.1254

> <Gold.Chemscore.DEInternal.Weighted>
4.4332

> <Gold.Chemscore.Rot.Weighted>
5.6197

> <Gold.Chemscore.Internal.Correction.Weighted>
   9.000000E+99

> <Gold.Protein.RotatedTorsions>
[ 6907 6896 6895 6894 ] final -152.53 input  -60.11 | X-H torsion
[ 7974 7965 7964 7962 ] final  178.96 input  175.53 | X-H torsion
[ 8008 7997 7996 7995 ] final -110.74 input   59.86 | X-H torsion
[ 10167 10162 10161 10158 ] final  150.86 input  -65.29 | X-H torsion
[ 10718 10713 10712 10709 ] final   53.56 input   66.30 | X-H torsion
[ 10763 10752 10751 10750 ] final -168.23 input  -60.55 | X-H torsion
[ 11005 11000 10999 10996 ] final  -43.61 input  -57.11 | X-H torsion

> <Gold.Protein.ActiveResidues>
 VAL166  LYS551  ARG553  GLY616  TRP617  ASP618  TYR619  PRO620  LYS621  CYS622 
 ASP623  PHE694  ASN695  SER759  ASP760  ASP761  ALA762  ILE779  LEU786  VAL792 
 PHE793  MET794  SER795  GLU796  ALA797  LYS798  CYS799  TRP800  GLU811  SER814 

> <Gold.Protein.RotatedAtoms>
  151.2292  133.4460  159.2602 H   0  0  0  0  0  0  0  0  0  0  0  0  # atno 6907 bound_to 6896
  151.0811  134.9859  159.8366 H   0  0  0  0  0  0  0  0  0  0  0  0  # atno 6908 bound_to 6896
  152.5424  134.2231  159.8848 H   0  0  0  0  0  0  0  0  0  0  0  0  # atno 6909 bound_to 6896
  144.7150  140.0476  143.6436 H   0  0  0  0  0  0  0  0  0  0  0  0  # atno 7974 bound_to 7965
  154.9791  140.0396  157.2269 H   0  0  0  0  0  0  0  0  0  0  0  0  # atno 8008 bound_to 7997
  154.7731  140.2805  155.6100 H   0  0  0  0  0  0  0  0  0  0  0  0  # atno 8009 bound_to 7997
  156.2924  140.2606  156.2538 H   0  0  0  0  0  0  0  0  0  0  0  0  # atno 8010 bound_to 7997
  139.4846  144.5488  151.7438 H   0  0  0  0  0  0  0  0  0  0  0  0  # atno 10167 bound_to 10162
  157.5178  130.8544  149.8518 H   0  0  0  0  0  0  0  0  0  0  0  0  # atno 10718 bound_to 10713
  154.6650  135.2930  154.9817 H   0  0  0  0  0  0  0  0  0  0  0  0  # atno 10763 bound_to 10752
  154.0863  135.6597  153.4849 H   0  0  0  0  0  0  0  0  0  0  0  0  # atno 10764 bound_to 10752
  153.0452  135.5209  154.7619 H   0  0  0  0  0  0  0  0  0  0  0  0  # atno 10765 bound_to 10752
  141.0395  133.6786  156.2757 H   0  0  0  0  0  0  0  0  0  0  0  0  # atno 11005 bound_to 11000
  145.9971  139.3061  143.0950 LP  0  0  0  0  0  0  0  0  0  0  0  0  # atno 17320 bound_to 7965
  145.8836  140.9347  143.0588 LP  0  0  0  0  0  0  0  0  0  0  0  0  # atno 17321 bound_to 7965
  140.5038  144.1128  150.5977 LP  0  0  0  0  0  0  0  0  0  0  0  0  # atno 17342 bound_to 10162
  140.4031  143.2694  151.9924 LP  0  0  0  0  0  0  0  0  0  0  0  0  # atno 17343 bound_to 10162
  156.0332  130.3758  150.1631 LP  0  0  0  0  0  0  0  0  0  0  0  0  # atno 17370 bound_to 10713
  156.9819  130.9867  151.3435 LP  0  0  0  0  0  0  0  0  0  0  0  0  # atno 17371 bound_to 10713
  140.6260  134.5313  157.5553 LP  0  0  0  0  0  0  0  0  0  0  0  0  # atno 17394 bound_to 11000
  139.9265  134.8045  156.1053 LP  0  0  0  0  0  0  0  0  0  0  0  0  # atno 17395 bound_to 11000

$$$$
