AV-unprocessed.smi:1570|AV-procd|sdf|6317|dock3
  -GOLD-   22720 6523D 1   1.00000     0.00000
 Structure written by MMmdl.
 51 53  0  0  0  0  0  0  0  0  1 V2000
  153.6668  138.8730  159.8994 C   0  0  0  0  0  0  0  0  0  0  0  0
  154.2819  140.2390  159.5713 C   0  0  0  0  0  0  0  0  0  0  0  0
  153.9643  141.2228  160.6033 N   0  0  0  0  0  0  0  0  0  0  0  0
  154.2967  141.1539  161.9139 C   0  0  0  0  0  0  0  0  0  0  0  0
  154.9390  140.2517  162.4514 O   0  0  0  0  0  0  0  0  0  0  0  0
  153.7946  142.2481  162.5330 N   0  0  0  0  0  0  0  0  0  0  0  0
  153.9120  142.5745  163.9525 C   0  0  0  0  0  0  0  0  0  0  0  0
  155.1908  141.9763  164.5773 C   0  0  1  0  0  0  0  0  0  0  0  0
  156.2965  142.8269  164.3500 O   0  0  0  0  0  0  0  0  0  0  0  0
  155.0676  141.6960  166.0927 C   0  0  0  0  0  0  0  0  0  0  0  0
  156.2010  141.0186  166.7294 N   0  0  0  0  0  0  0  0  0  0  0  0
  156.4362  139.6770  166.2002 C   0  0  0  0  0  0  0  0  0  0  0  0
  157.6190  138.9653  166.8871 C   0  0  1  0  0  0  0  0  0  0  0  0
  158.9896  139.5135  166.4545 C   0  0  0  0  0  0  0  0  0  0  0  0
  157.4602  138.9931  168.3065 O   0  0  0  0  0  0  0  0  0  0  0  0
  157.2275  140.2842  168.8666 C   0  0  2  0  0  0  0  0  0  0  0  0
  157.0080  140.1193  170.3739 C   0  0  0  0  0  0  0  0  0  0  0  0
  156.0157  140.9300  168.1717 C   0  0  0  0  0  0  0  0  0  0  0  0
  153.1177  143.0382  161.5928 C   0  0  0  0  0  0  0  0  0  0  0  0
  152.4327  144.2584  161.7295 C   0  0  0  0  0  0  0  0  0  0  0  0
  151.8429  144.8029  160.5649 C   0  0  0  0  0  0  0  0  0  0  0  0
  151.9462  144.1348  159.3171 C   0  0  0  0  0  0  0  0  0  0  0  0
  152.6437  142.9090  159.2070 C   0  0  0  0  0  0  0  0  0  0  0  0
  153.2222  142.3913  160.3791 C   0  0  0  0  0  0  0  0  0  0  0  0
  153.9046  138.1444  159.1244 H   0  0  0  0  0  0  0  0  0  0  0  0
  152.5809  138.9370  159.9732 H   0  0  0  0  0  0  0  0  0  0  0  0
  154.0454  138.4866  160.8461 H   0  0  0  0  0  0  0  0  0  0  0  0
  155.3638  140.1430  159.4697 H   0  0  0  0  0  0  0  0  0  0  0  0
  153.9183  140.5907  158.6057 H   0  0  0  0  0  0  0  0  0  0  0  0
  153.8630  143.6529  164.1058 H   0  0  0  0  0  0  0  0  0  0  0  0
  153.0365  142.1669  164.4610 H   0  0  0  0  0  0  0  0  0  0  0  0
  155.4241  141.0277  164.0918 H   0  0  0  0  0  0  0  0  0  0  0  0
  156.7886  142.8974  165.1535 H   0  0  0  0  0  0  0  0  0  0  0  0
  154.9546  142.6704  166.5702 H   0  0  0  0  0  0  0  0  0  0  0  0
  154.1391  141.1635  166.3051 H   0  0  0  0  0  0  0  0  0  0  0  0
  155.5360  139.0743  166.3306 H   0  0  0  0  0  0  0  0  0  0  0  0
  156.6290  139.7149  165.1292 H   0  0  0  0  0  0  0  0  0  0  0  0
  157.5918  137.9147  166.5966 H   0  0  0  0  0  0  0  0  0  0  0  0
  159.1374  139.3830  165.3823 H   0  0  0  0  0  0  0  0  0  0  0  0
  159.7967  138.9887  166.9657 H   0  0  0  0  0  0  0  0  0  0  0  0
  159.0928  140.5770  166.6689 H   0  0  0  0  0  0  0  0  0  0  0  0
  158.1088  140.9086  168.7155 H   0  0  0  0  0  0  0  0  0  0  0  0
  156.8317  141.0833  170.8517 H   0  0  0  0  0  0  0  0  0  0  0  0
  157.8806  139.6692  170.8475 H   0  0  0  0  0  0  0  0  0  0  0  0
  156.1492  139.4803  170.5812 H   0  0  0  0  0  0  0  0  0  0  0  0
  155.8582  141.9271  168.5850 H   0  0  0  0  0  0  0  0  0  0  0  0
  155.1149  140.3552  168.3938 H   0  0  0  0  0  0  0  0  0  0  0  0
  152.3576  144.7639  162.6808 H   0  0  0  0  0  0  0  0  0  0  0  0
  151.3069  145.7385  160.6266 H   0  0  0  0  0  0  0  0  0  0  0  0
  151.4873  144.5674  158.4403 H   0  0  0  0  0  0  0  0  0  0  0  0
  152.7251  142.3960  158.2603 H   0  0  0  0  0  0  0  0  0  0  0  0
  1  2  1  0  0  0  0
  1 25  1  0  0  0  0
  1 26  1  0  0  0  0
  1 27  1  0  0  0  0
  2  3  1  0  0  0  0
  2 28  1  0  0  0  0
  2 29  1  0  0  0  0
  3 24  1  0  0  0  0
  3  4  1  0  0  0  0
  4  5  2  0  0  0  0
  4  6  1  0  0  0  0
  6  7  1  0  0  0  0
  6 19  1  0  0  0  0
  7  8  1  0  0  0  0
  7 30  1  0  0  0  0
  7 31  1  0  0  0  0
  8  9  1  0  0  0  0
  8 10  1  0  0  0  0
  8 32  1  0  0  0  0
  9 33  1  0  0  0  0
 10 11  1  0  0  0  0
 10 34  1  0  0  0  0
 10 35  1  0  0  0  0
 11 18  1  0  0  0  0
 11 12  1  0  0  0  0
 12 13  1  0  0  0  0
 12 36  1  0  0  0  0
 12 37  1  0  0  0  0
 13 14  1  0  0  0  0
 13 15  1  0  0  0  0
 13 38  1  0  0  0  0
 14 39  1  0  0  0  0
 14 40  1  0  0  0  0
 14 41  1  0  0  0  0
 15 16  1  0  0  0  0
 16 17  1  0  0  0  0
 16 18  1  0  0  0  0
 16 42  1  0  0  0  0
 17 43  1  0  0  0  0
 17 44  1  0  0  0  0
 17 45  1  0  0  0  0
 18 46  1  0  0  0  0
 18 47  1  0  0  0  0
 19 24  2  0  0  0  0
 19 20  1  0  0  0  0
 20 21  2  0  0  0  0
 20 48  1  0  0  0  0
 21 22  1  0  0  0  0
 21 49  1  0  0  0  0
 22 23  2  0  0  0  0
 22 50  1  0  0  0  0
 23 24  1  0  0  0  0
 23 51  1  0  0  0  0
M  END
> <s_m_source_file>
AV-unprocessed.smi

> <i_m_source_file_index>
1570

> <i_lp_mmshare_version>
43012

> <i_f3d_flags>
0

> <s_epik_input>
W2NIXTFbY0hdW2NIXVtjSF1jKGMxMiluKFtDSDJdW0NIM10pYyg9TyluMltDSDJdW0NASF0oW09IXSlbQ0gyXU4zW0NIMl1bQ0BASF0oW0NIM10pT1tDQEBIXShbQ0gzXSlbQ0gyXTM=

> <s_epik_cmdline>
J2VwaWtfcHl0aG9uJywgJy1waCcsICc3LjAnLCAnLXRuJywgJzgnLCAnLW1hJywgJzIwMCcsICctbWV0YWxfYmluZGluZycsICctaW1hZScsICc8aW5maWxlLm1hZT4nLCAnLW9tYWUnLCAnPG91dGZpbGUubWFlPic=

> <r_epik_Ionization_Penalty>
0.214359

> <r_epik_Ionization_Penalty_Charging>
2.30976e-09

> <r_epik_Ionization_Penalty_Neutral>
0.214359

> <r_epik_State_Penalty>
0.204533

> <r_epik_Charging_Adjusted_Penalty>
0.204533

> <i_epik_Tot_Q>
0

> <i_epik_Tot_abs_Q>
0

> <r_epik_Metal_State_Penalty>
0.204533

> <b_epik_Metal_Only>
0

> <s_lp_Force_Field>
OPLS_2005

> <r_lp_Energy>
65.1855

> <b_lp_Chiralities_Consistent>
1

> <s_lp_Variant>
AV-unprocessed.smi:1570-6

> <Gold.Version>
5.8.1

> <Gold.Id.Protein>
6NUR|6NUR_protein|mol2

> <Gold.PLP.Fitness>
46.8032

> <Gold.PLP.PLP>
-48.1471

> <Gold.PLP.part.hbond>
-0.7596

> <Gold.PLP.part.metal>
0.0000

> <Gold.PLP.part.buried>
-2.8386

> <Gold.PLP.part.nonpolar>
-42.1633

> <Gold.PLP.part.repulsive>
0.0353

> <Gold.PLP.ligand.clash>
0.0361

> <Gold.PLP.ligand.torsion>
0.6818

> <Gold.PLP.Chemscore.Hbond>
0.0000

> <Gold.PLP.Chemscore.CHOScore>
0.0000

> <Gold.PLP.Chemscore.Metal>
0.0000

> <Gold.PLP.Chemscore.Internal.Correction>
0.0559

> <Gold.Rescore>
     Score         DG    S(hbond)    S(metal)    S(lipo)     H(rot)  DE(clash)    DE(int)     intcor
      9.50     -13.83       0.00        0.00     116.35       2.06       2.24       2.09       ----

> <Gold.Chemscore.Fitness>
9.4998

> <Gold.Chemscore.DG>
-13.8259

> <Gold.Chemscore.ZeroCoef>
-5.4800

> <Gold.Chemscore.Hbond>
0.0000

> <Gold.Chemscore.Metal>
0.0000

> <Gold.Chemscore.Lipo>
116.3485

> <Gold.Chemscore.Internal_Hbond>
0.0000

> <Gold.Chemscore.DEClash>
2.2371

> <Gold.Chemscore.DEInternal>
2.0890

> <Gold.Chemscore.Rot>
2.0574

> <Gold.Chemscore.Internal.Correction>
   9.000000E+99

> <Gold.Chemscore.Hbond.Weighted>
-0.0000

> <Gold.Chemscore.Metal.Weighted>
-0.0000

> <Gold.Chemscore.Lipo.Weighted>
-13.6128

> <Gold.Chemscore.Internal_Hbond.Weighted>
0.0000

> <Gold.Chemscore.DEClash.Weighted>
2.2371

> <Gold.Chemscore.DEInternal.Weighted>
2.0890

> <Gold.Chemscore.Rot.Weighted>
5.2669

> <Gold.Chemscore.Internal.Correction.Weighted>
   9.000000E+99

> <Gold.Protein.RotatedTorsions>
[ 6907 6896 6895 6894 ] final  146.15 input  -60.11 | X-H torsion
[ 7974 7965 7964 7962 ] final  135.83 input  175.53 | X-H torsion
[ 8008 7997 7996 7995 ] final  -45.93 input   59.86 | X-H torsion
[ 10167 10162 10161 10158 ] final   49.26 input  -65.29 | X-H torsion
[ 10718 10713 10712 10709 ] final   78.00 input   66.30 | X-H torsion
[ 10763 10752 10751 10750 ] final -132.79 input  -60.55 | X-H torsion
[ 11005 11000 10999 10996 ] final  172.41 input  -57.11 | X-H torsion

> <Gold.Protein.ActiveResidues>
 VAL166  LYS551  ARG553  GLY616  TRP617  ASP618  TYR619  PRO620  LYS621  CYS622 
 ASP623  PHE694  ASN695  SER759  ASP760  ASP761  ALA762  ILE779  LEU786  VAL792 
 PHE793  MET794  SER795  GLU796  ALA797  LYS798  CYS799  TRP800  GLU811  SER814 

> <Gold.Protein.RotatedAtoms>
  152.1716  133.4647  159.4911 H   0  0  0  0  0  0  0  0  0  0  0  0  # atno 6907 bound_to 6896
  150.6920  134.1946  159.4307 H   0  0  0  0  0  0  0  0  0  0  0  0  # atno 6908 bound_to 6896
  151.9853  135.0007  160.0610 H   0  0  0  0  0  0  0  0  0  0  0  0  # atno 6909 bound_to 6896
  144.9624  139.4695  143.5473 H   0  0  0  0  0  0  0  0  0  0  0  0  # atno 7974 bound_to 7965
  154.4004  140.1384  156.3928 H   0  0  0  0  0  0  0  0  0  0  0  0  # atno 8008 bound_to 7997
  155.7898  140.3479  155.5322 H   0  0  0  0  0  0  0  0  0  0  0  0  # atno 8009 bound_to 7997
  155.8591  140.0953  157.1616 H   0  0  0  0  0  0  0  0  0  0  0  0  # atno 8010 bound_to 7997
  140.2847  144.3116  150.6255 H   0  0  0  0  0  0  0  0  0  0  0  0  # atno 10167 bound_to 10162
  157.6730  130.9848  150.1723 H   0  0  0  0  0  0  0  0  0  0  0  0  # atno 10718 bound_to 10713
  154.8739  135.3786  154.4468 H   0  0  0  0  0  0  0  0  0  0  0  0  # atno 10763 bound_to 10752
  153.5147  135.7029  153.5767 H   0  0  0  0  0  0  0  0  0  0  0  0  # atno 10764 bound_to 10752
  153.4041  135.3941  155.1973 H   0  0  0  0  0  0  0  0  0  0  0  0  # atno 10765 bound_to 10752
  140.3295  134.7370  157.4123 H   0  0  0  0  0  0  0  0  0  0  0  0  # atno 11005 bound_to 11000
  146.3357  139.8783  142.8828 LP  0  0  0  0  0  0  0  0  0  0  0  0  # atno 17320 bound_to 7965
  145.2679  141.0099  143.3788 LP  0  0  0  0  0  0  0  0  0  0  0  0  # atno 17321 bound_to 7965
  140.5783  143.2174  151.7476 LP  0  0  0  0  0  0  0  0  0  0  0  0  # atno 17342 bound_to 10162
  139.4953  144.4118  152.0072 LP  0  0  0  0  0  0  0  0  0  0  0  0  # atno 17343 bound_to 10162
  156.2474  130.3697  149.8270 LP  0  0  0  0  0  0  0  0  0  0  0  0  # atno 17370 bound_to 10713
  156.6052  130.8563  151.3441 LP  0  0  0  0  0  0  0  0  0  0  0  0  # atno 17371 bound_to 10713
  140.0873  134.5649  155.8479 LP  0  0  0  0  0  0  0  0  0  0  0  0  # atno 17394 bound_to 11000
  141.2067  133.6657  156.6258 LP  0  0  0  0  0  0  0  0  0  0  0  0  # atno 17395 bound_to 11000

$$$$
