AV-unprocessed.smi:2079|AV-procd|sdf|8479|dock3
  -GOLD-   2272011183D 1   1.00000     0.00000
 Structure written by MMmdl.
 41 42  0  0  0  0  0  0  0  0  3 V2000
  151.9355  141.2792  158.8521 C   0  0  0  0  0  0  0  0  0  0  0  0
  151.7450  140.7170  157.4851 C   0  0  0  0  0  0  0  0  0  0  0  0
  150.7934  140.9139  156.5251 C   0  0  0  0  0  0  0  0  0  0  0  0
  151.2214  140.0687  155.4652 C   0  0  0  0  0  0  0  0  0  0  0  0
  150.5979  139.9036  154.2883 N   0  5  0  0  0  0  0  0  0  0  0  0
  149.2557  140.0476  154.2034 C   0  0  0  0  0  0  0  0  0  0  0  0
  148.6017  141.0396  154.5336 O   0  0  0  0  0  0  0  0  0  0  0  0
  148.6294  138.9736  153.7051 N   0  0  0  0  0  0  0  0  0  0  0  0
  147.1916  138.8657  153.5007 C   0  0  0  0  0  0  0  0  0  0  0  0
  146.6651  137.5390  154.0737 C   0  0  0  0  0  0  0  0  0  0  0  0
  146.4937  136.4953  153.0230 N   0  3  2  0  0  0  0  0  0  0  0  0
  145.5775  136.9639  151.9429 C   0  0  0  0  0  0  0  0  0  0  0  0
  145.5033  135.9689  150.7772 C   0  0  0  0  0  0  0  0  0  0  0  0
  145.0453  134.5987  151.2759 C   0  0  0  0  0  0  0  0  0  0  0  0
  145.9869  134.1243  152.3854 C   0  0  0  0  0  0  0  0  0  0  0  0
  146.0934  135.1452  153.5417 C   0  0  1  0  0  0  0  0  0  0  0  0
  147.0714  134.5808  154.5945 C   0  0  0  0  0  0  0  0  0  0  0  0
  152.3253  139.4039  155.7627 N   0  0  0  0  0  0  0  0  0  0  0  0
  152.6716  139.8191  157.0541 O   0  0  0  0  0  0  0  0  0  0  0  0
  151.3047  140.7596  159.5733 H   0  0  0  0  0  0  0  0  0  0  0  0
  151.6745  142.3373  158.8741 H   0  0  0  0  0  0  0  0  0  0  0  0
  152.9719  141.1811  159.1756 H   0  0  0  0  0  0  0  0  0  0  0  0
  149.9308  141.5617  156.5715 H   0  0  0  0  0  0  0  0  0  0  0  0
  149.1978  138.1804  153.4462 H   0  0  0  0  0  0  0  0  0  0  0  0
  146.7149  139.7240  153.9733 H   0  0  0  0  0  0  0  0  0  0  0  0
  146.9764  138.9225  152.4323 H   0  0  0  0  0  0  0  0  0  0  0  0
  147.3826  137.2280  154.8283 H   0  0  0  0  0  0  0  0  0  0  0  0
  145.7217  137.6914  154.6005 H   0  0  0  0  0  0  0  0  0  0  0  0
  144.5808  137.1235  152.3574 H   0  0  0  0  0  0  0  0  0  0  0  0
  145.9051  137.9234  151.5468 H   0  0  0  0  0  0  0  0  0  0  0  0
  144.8147  136.3370  150.0160 H   0  0  0  0  0  0  0  0  0  0  0  0
  146.4803  135.8849  150.2992 H   0  0  0  0  0  0  0  0  0  0  0  0
  144.0237  134.6600  151.6530 H   0  0  0  0  0  0  0  0  0  0  0  0
  145.0357  133.8809  150.4551 H   0  0  0  0  0  0  0  0  0  0  0  0
  145.6356  133.1637  152.7645 H   0  0  0  0  0  0  0  0  0  0  0  0
  146.9767  133.9426  151.9635 H   0  0  0  0  0  0  0  0  0  0  0  0
  145.1103  135.2403  154.0060 H   0  0  0  0  0  0  0  0  0  0  0  0
  146.8566  133.5319  154.8015 H   0  0  0  0  0  0  0  0  0  0  0  0
  146.9978  135.0917  155.5535 H   0  0  0  0  0  0  0  0  0  0  0  0
  148.1050  134.6403  154.2517 H   0  0  0  0  0  0  0  0  0  0  0  0
  147.4032  136.3702  152.6018 H   0  0  0  0  0  0  0  0  0  0  0  0
  1  2  1  0  0  0  0
  1 20  1  0  0  0  0
  1 21  1  0  0  0  0
  1 22  1  0  0  0  0
  2 19  1  0  0  0  0
  2  3  2  0  0  0  0
  3  4  1  0  0  0  0
  3 23  1  0  0  0  0
  4  5  1  0  0  0  0
  4 18  2  0  0  0  0
  5  6  1  0  0  0  0
  6  7  2  0  0  0  0
  6  8  1  0  0  0  0
  8  9  1  0  0  0  0
  8 24  1  0  0  0  0
  9 10  1  0  0  0  0
  9 25  1  0  0  0  0
  9 26  1  0  0  0  0
 10 11  1  0  0  0  0
 10 27  1  0  0  0  0
 10 28  1  0  0  0  0
 11 16  1  0  0  0  0
 11 12  1  0  0  0  0
 11 41  1  0  0  0  0
 12 13  1  0  0  0  0
 12 29  1  0  0  0  0
 12 30  1  0  0  0  0
 13 14  1  0  0  0  0
 13 31  1  0  0  0  0
 13 32  1  0  0  0  0
 14 15  1  0  0  0  0
 14 33  1  0  0  0  0
 14 34  1  0  0  0  0
 15 16  1  0  0  0  0
 15 35  1  0  0  0  0
 15 36  1  0  0  0  0
 16 17  1  0  0  0  0
 16 37  1  0  0  0  0
 17 38  1  0  0  0  0
 17 39  1  0  0  0  0
 17 40  1  0  0  0  0
 18 19  1  0  0  0  0
M  CHG  1   5  -1
M  CHG  1  11   1
M  END
> <s_m_source_file>
AV-unprocessed.smi

> <i_m_source_file_index>
2079

> <i_lp_mmshare_version>
43012

> <i_f3d_flags>
0

> <s_epik_input>
W0NIM11jMVtjSF1jKG5vMSlbTkhdQyg9TylbTkhdW0NIMl1bQ0gyXU4yW0NIMl1bQ0gyXVtDSDJdW0NIMl1bQ0BIXTJbQ0gzXQ==

> <s_epik_cmdline>
J2VwaWtfcHl0aG9uJywgJy1waCcsICc3LjAnLCAnLXRuJywgJzgnLCAnLW1hJywgJzIwMCcsICctbWV0YWxfYmluZGluZycsICctaW1hZScsICc8aW5maWxlLm1hZT4nLCAnLW9tYWUnLCAnPG91dGZpbGUubWFlPic=

> <r_epik_Ionization_Penalty>
6.22371

> <r_epik_Ionization_Penalty_Charging>
6.22362

> <r_epik_Ionization_Penalty_Neutral>
9.40454e-05

> <r_epik_State_Penalty>
6.22363

> <r_epik_Charging_Adjusted_Penalty>
12.4472

> <i_epik_Tot_Q>
0

> <i_epik_Tot_abs_Q>
2

> <r_epik_Metal_State_Penalty>
2.16675

> <b_epik_Metal_Only>
1

> <s_lp_Force_Field>
OPLS_2005

> <r_lp_Energy>
9.22117

> <b_lp_Chiralities_Consistent>
1

> <s_lp_Variant>
AV-unprocessed.smi:2079-5

> <Gold.Version>
5.8.1

> <Gold.Id.Protein>
6NUR|6NUR_protein|mol2

> <Gold.PLP.Fitness>
40.1379

> <Gold.PLP.PLP>
-30.1948

> <Gold.PLP.part.hbond>
-4.7439

> <Gold.PLP.part.metal>
0.0000

> <Gold.PLP.part.buried>
-5.1910

> <Gold.PLP.part.nonpolar>
-21.5240

> <Gold.PLP.part.repulsive>
0.2735

> <Gold.PLP.ligand.clash>
0.0000

> <Gold.PLP.ligand.torsion>
1.0483

> <Gold.PLP.Chemscore.Hbond>
4.0000

> <Gold.PLP.Chemscore.CHOScore>
0.0000

> <Gold.PLP.Chemscore.Metal>
0.0000

> <Gold.Chemscore.Hbonds>
donor molecule, donor type, donor heavy atom, donor atom, acceptor molecule, acceptor atom, score
      L1  H    11    41       P1  7948  2.00
      P1  H  7989  7998       L1     5  0.70
      P1  H  7997  8009       L1    19  0.90

> <Gold.PLP.Chemscore.Internal.Correction>
0.0398

> <Gold.Rescore>
     Score         DG    S(hbond)    S(metal)    S(lipo)     H(rot)  DE(clash)    DE(int)     intcor
     11.84     -13.82       1.84        0.00      52.31       1.54       0.06       1.91       ----

> <Gold.Chemscore.Fitness>
11.8429

> <Gold.Chemscore.DG>
-13.8163

> <Gold.Chemscore.ZeroCoef>
-5.4800

> <Gold.Chemscore.Hbond>
1.8444

> <Gold.Chemscore.Metal>
0.0000

> <Gold.Chemscore.Lipo>
52.3121

> <Gold.Chemscore.Internal_Hbond>
0.0000

> <Gold.Chemscore.DEClash>
0.0640

> <Gold.Chemscore.DEInternal>
1.9094

> <Gold.Chemscore.Rot>
1.5409

> <Gold.Chemscore.Internal.Correction>
   9.000000E+99

> <Gold.Chemscore.Hbonds>
donor molecule, donor type, donor heavy atom, donor atom, acceptor molecule, acceptor atom, score
      L1  H     8    24       P1  7948  0.01
      L1  H    11    41       P1  7948  1.00
      P1  H  7989  7998       L1     5  0.07
      P1  H  7997  8009       L1    19  0.35

> <Gold.Chemscore.Hbond.Weighted>
-6.1604

> <Gold.Chemscore.Metal.Weighted>
-0.0000

> <Gold.Chemscore.Lipo.Weighted>
-6.1205

> <Gold.Chemscore.Internal_Hbond.Weighted>
0.0000

> <Gold.Chemscore.DEClash.Weighted>
0.0640

> <Gold.Chemscore.DEInternal.Weighted>
1.9094

> <Gold.Chemscore.Rot.Weighted>
3.9446

> <Gold.Chemscore.Internal.Correction.Weighted>
   9.000000E+99

> <Gold.Protein.RotatedTorsions>
[ 6907 6896 6895 6894 ] final   20.45 input  -60.11 | X-H torsion
[ 7974 7965 7964 7962 ] final  -88.15 input  175.53 | X-H torsion
[ 8008 7997 7996 7995 ] final  159.79 input   59.86 | X-H torsion
[ 10167 10162 10161 10158 ] final -175.88 input  -65.29 | X-H torsion
[ 10718 10713 10712 10709 ] final -125.80 input   66.30 | X-H torsion
[ 10763 10752 10751 10750 ] final -112.27 input  -60.55 | X-H torsion
[ 11005 11000 10999 10996 ] final    7.55 input  -57.11 | X-H torsion

> <Gold.Protein.ActiveResidues>
 VAL166  LYS551  ARG553  GLY616  TRP617  ASP618  TYR619  PRO620  LYS621  CYS622 
 ASP623  PHE694  ASN695  SER759  ASP760  ASP761  ALA762  ILE779  LEU786  VAL792 
 PHE793  MET794  SER795  GLU796  ALA797  LYS798  CYS799  TRP800  GLU811  SER814 

> <Gold.Protein.RotatedAtoms>
  151.8966  135.0395  160.0502 H   0  0  0  0  0  0  0  0  0  0  0  0  # atno 6907 bound_to 6896
  152.2392  133.5117  159.5269 H   0  0  0  0  0  0  0  0  0  0  0  0  # atno 6908 bound_to 6896
  150.7048  134.1028  159.4014 H   0  0  0  0  0  0  0  0  0  0  0  0  # atno 6909 bound_to 6896
  145.4570  140.9561  143.1991 H   0  0  0  0  0  0  0  0  0  0  0  0  # atno 7974 bound_to 7965
  156.2216  140.1822  156.7464 H   0  0  0  0  0  0  0  0  0  0  0  0  # atno 8008 bound_to 7997
  154.5874  140.0656  156.9219 H   0  0  0  0  0  0  0  0  0  0  0  0  # atno 8009 bound_to 7997
  155.2396  140.3321  155.4296 H   0  0  0  0  0  0  0  0  0  0  0  0  # atno 8010 bound_to 7997
  139.5558  144.1993  152.1156 H   0  0  0  0  0  0  0  0  0  0  0  0  # atno 10167 bound_to 10162
  156.1707  130.6666  151.0176 H   0  0  0  0  0  0  0  0  0  0  0  0  # atno 10718 bound_to 10713
  154.8341  135.4497  154.1167 H   0  0  0  0  0  0  0  0  0  0  0  0  # atno 10763 bound_to 10752
  153.2414  135.6917  153.7785 H   0  0  0  0  0  0  0  0  0  0  0  0  # atno 10764 bound_to 10752
  153.7131  135.3353  155.3226 H   0  0  0  0  0  0  0  0  0  0  0  0  # atno 10765 bound_to 10752
  140.5470  134.0319  155.7923 H   0  0  0  0  0  0  0  0  0  0  0  0  # atno 11005 bound_to 11000
  144.8026  139.6111  143.7065 LP  0  0  0  0  0  0  0  0  0  0  0  0  # atno 17320 bound_to 7965
  146.2472  139.6124  142.9451 LP  0  0  0  0  0  0  0  0  0  0  0  0  # atno 17321 bound_to 7965
  140.1497  144.5126  150.6695 LP  0  0  0  0  0  0  0  0  0  0  0  0  # atno 17342 bound_to 10162
  140.6830  143.2336  151.5334 LP  0  0  0  0  0  0  0  0  0  0  0  0  # atno 17343 bound_to 10162
  157.6801  131.0840  150.7393 LP  0  0  0  0  0  0  0  0  0  0  0  0  # atno 17370 bound_to 10713
  156.7452  130.4751  149.5468 LP  0  0  0  0  0  0  0  0  0  0  0  0  # atno 17371 bound_to 10713
  141.1194  133.9487  157.2760 LP  0  0  0  0  0  0  0  0  0  0  0  0  # atno 17394 bound_to 11000
  139.9474  135.0181  156.8894 LP  0  0  0  0  0  0  0  0  0  0  0  0  # atno 17395 bound_to 11000

$$$$
