AV-unprocessed.smi:1388|AV-procd|sdf|5643|dock8
  -GOLD-   22720 5263D 1   1.00000     0.00000
 Structure written by MMmdl.
 46 47  0  0  0  0  0  0  0  0  2 V2000
  145.6089  135.8069  151.3223 C   0  0  0  0  0  0  0  0  0  0  0  0
  146.4763  136.8416  151.8650 N   0  0  0  0  0  0  0  0  0  0  0  0
  146.0787  137.7758  152.7398 C   0  0  0  0  0  0  0  0  0  0  0  0
  144.9264  137.8525  153.1678 O   0  0  0  0  0  0  0  0  0  0  0  0
  147.1428  138.7855  153.1822 C   0  0  0  0  0  0  0  0  0  0  0  0
  148.3789  138.1417  153.6975 N   0  3  2  0  0  0  0  0  0  0  0  0
  148.1605  137.4584  154.9978 C   0  0  0  0  0  0  0  0  0  0  0  0
  149.4139  136.6796  155.4375 C   0  0  0  0  0  0  0  0  0  0  0  0
  150.6629  137.5759  155.4939 C   0  0  2  0  0  0  0  0  0  0  0  0
  150.5813  138.4980  156.6263 N   0  0  0  0  0  0  0  0  0  0  0  0
  151.4869  139.4422  156.9222 C   0  0  0  0  0  0  0  0  0  0  0  0
  152.5017  139.6396  156.2537 O   0  0  0  0  0  0  0  0  0  0  0  0
  151.1292  140.1307  158.0206 N   0  0  0  0  0  0  0  0  0  0  0  0
  151.8243  141.1932  158.6645 C   0  0  0  0  0  0  0  0  0  0  0  0
  151.5317  142.4992  158.4422 N   0  0  0  0  0  0  0  0  0  0  0  0
  152.2342  143.4566  159.0816 C   0  0  0  0  0  0  0  0  0  0  0  0
  153.2732  143.1724  159.9841 C   0  0  0  0  0  0  0  0  0  0  0  0
  153.5888  141.8246  160.2264 C   0  0  0  0  0  0  0  0  0  0  0  0
  152.8598  140.8159  159.5612 C   0  0  0  0  0  0  0  0  0  0  0  0
  153.2000  139.3576  159.8228 C   0  0  0  0  0  0  0  0  0  0  0  0
  150.8253  138.3253  154.1566 C   0  0  0  0  0  0  0  0  0  0  0  0
  149.5401  139.0697  153.7544 C   0  0  0  0  0  0  0  0  0  0  0  0
  146.1761  135.1584  150.6548 H   0  0  0  0  0  0  0  0  0  0  0  0
  144.7881  136.2467  150.7541 H   0  0  0  0  0  0  0  0  0  0  0  0
  145.1904  135.1916  152.1197 H   0  0  0  0  0  0  0  0  0  0  0  0
  147.4366  136.8476  151.5519 H   0  0  0  0  0  0  0  0  0  0  0  0
  147.3880  139.4671  152.3661 H   0  0  0  0  0  0  0  0  0  0  0  0
  146.6880  139.3893  153.9685 H   0  0  0  0  0  0  0  0  0  0  0  0
  147.8830  138.1938  155.7546 H   0  0  0  0  0  0  0  0  0  0  0  0
  147.3242  136.7634  154.9119 H   0  0  0  0  0  0  0  0  0  0  0  0
  149.2420  136.2078  156.4059 H   0  0  0  0  0  0  0  0  0  0  0  0
  149.5907  135.8662  154.7324 H   0  0  0  0  0  0  0  0  0  0  0  0
  151.5319  136.9326  155.6449 H   0  0  0  0  0  0  0  0  0  0  0  0
  149.7819  138.4032  157.2352 H   0  0  0  0  0  0  0  0  0  0  0  0
  150.2556  139.8664  158.4507 H   0  0  0  0  0  0  0  0  0  0  0  0
  151.9592  144.4786  158.8669 H   0  0  0  0  0  0  0  0  0  0  0  0
  153.8131  143.9672  160.4768 H   0  0  0  0  0  0  0  0  0  0  0  0
  154.3818  141.5717  160.9148 H   0  0  0  0  0  0  0  0  0  0  0  0
  154.0013  139.2622  160.5559 H   0  0  0  0  0  0  0  0  0  0  0  0
  153.5269  138.8716  158.9035 H   0  0  0  0  0  0  0  0  0  0  0  0
  152.3301  138.8251  160.2074 H   0  0  0  0  0  0  0  0  0  0  0  0
  151.6625  139.0226  154.2048 H   0  0  0  0  0  0  0  0  0  0  0  0
  151.0784  137.6080  153.3747 H   0  0  0  0  0  0  0  0  0  0  0  0
  149.6929  139.5405  152.7830 H   0  0  0  0  0  0  0  0  0  0  0  0
  149.3327  139.8742  154.4617 H   0  0  0  0  0  0  0  0  0  0  0  0
  148.6142  137.4181  153.0326 H   0  0  0  0  0  0  0  0  0  0  0  0
  1  2  1  0  0  0  0
  1 23  1  0  0  0  0
  1 24  1  0  0  0  0
  1 25  1  0  0  0  0
  2  3  1  0  0  0  0
  2 26  1  0  0  0  0
  3  4  2  0  0  0  0
  3  5  1  0  0  0  0
  5  6  1  0  0  0  0
  5 27  1  0  0  0  0
  5 28  1  0  0  0  0
  6 22  1  0  0  0  0
  6  7  1  0  0  0  0
  6 46  1  0  0  0  0
  7  8  1  0  0  0  0
  7 29  1  0  0  0  0
  7 30  1  0  0  0  0
  8  9  1  0  0  0  0
  8 31  1  0  0  0  0
  8 32  1  0  0  0  0
  9 10  1  0  0  0  0
  9 21  1  0  0  0  0
  9 33  1  0  0  0  0
 10 11  1  0  0  0  0
 10 34  1  0  0  0  0
 11 12  2  0  0  0  0
 11 13  1  0  0  0  0
 13 14  1  0  0  0  0
 13 35  1  0  0  0  0
 14 19  1  0  0  0  0
 14 15  2  0  0  0  0
 15 16  1  0  0  0  0
 16 17  2  0  0  0  0
 16 36  1  0  0  0  0
 17 18  1  0  0  0  0
 17 37  1  0  0  0  0
 18 19  2  0  0  0  0
 18 38  1  0  0  0  0
 19 20  1  0  0  0  0
 20 39  1  0  0  0  0
 20 40  1  0  0  0  0
 20 41  1  0  0  0  0
 21 22  1  0  0  0  0
 21 42  1  0  0  0  0
 21 43  1  0  0  0  0
 22 44  1  0  0  0  0
 22 45  1  0  0  0  0
M  CHG  1   6   1
M  END
> <s_m_source_file>
AV-unprocessed.smi

> <i_m_source_file_index>
1388

> <i_lp_mmshare_version>
43012

> <i_f3d_flags>
0

> <s_epik_input>
W0NIM11bTkhdQyg9TylbQ0gyXU4xW0NIMl1bQ0gyXVtDSF0oW0NIMl1bQ0gyXTEpW05IXUMoPU8pW05IXWMybltjSF1bY0hdW2NIXWMyW0NIM10=

> <s_epik_cmdline>
J2VwaWtfcHl0aG9uJywgJy1waCcsICc3LjAnLCAnLXRuJywgJzgnLCAnLW1hJywgJzIwMCcsICctbWV0YWxfYmluZGluZycsICctaW1hZScsICc8aW5maWxlLm1hZT4nLCAnLW9tYWUnLCAnPG91dGZpbGUubWFlPic=

> <r_epik_Ionization_Penalty>
0.83891

> <r_epik_Ionization_Penalty_Charging>
0.838844

> <r_epik_Ionization_Penalty_Neutral>
6.58477e-05

> <r_epik_State_Penalty>
0.8734

> <r_epik_Charging_Adjusted_Penalty>
1.71224

> <i_epik_Tot_Q>
1

> <i_epik_Tot_abs_Q>
1

> <r_epik_Metal_State_Penalty>
0.877924

> <b_epik_Metal_Only>
0

> <s_lp_Force_Field>
OPLS_2005

> <r_lp_Energy>
16.2558

> <b_lp_Chiralities_Consistent>
1

> <s_lp_Variant>
AV-unprocessed.smi:1388-3

> <Gold.Version>
5.8.1

> <Gold.Id.Protein>
6NUR|6NUR_protein|mol2

> <Gold.PLP.Fitness>
44.9373

> <Gold.PLP.PLP>
-34.9708

> <Gold.PLP.part.hbond>
-3.0000

> <Gold.PLP.part.metal>
0.0000

> <Gold.PLP.part.buried>
-4.1671

> <Gold.PLP.part.nonpolar>
-29.2201

> <Gold.PLP.part.repulsive>
0.8046

> <Gold.PLP.ligand.clash>
0.0000

> <Gold.PLP.ligand.torsion>
0.8965

> <Gold.PLP.Chemscore.Hbond>
3.9120

> <Gold.PLP.Chemscore.CHOScore>
0.0000

> <Gold.PLP.Chemscore.Metal>
0.0000

> <Gold.Chemscore.Hbonds>
donor molecule, donor type, donor heavy atom, donor atom, acceptor molecule, acceptor atom, score
      L1  H     2    26       P1  7948  0.91
      L1  H     6    46       P1  7948  2.00
      P1  H  7997  8008       L1    12  1.00

> <Gold.PLP.Chemscore.Internal.Correction>
0.0234

> <Gold.Rescore>
     Score         DG    S(hbond)    S(metal)    S(lipo)     H(rot)  DE(clash)    DE(int)     intcor
     19.22     -21.26       2.98        0.00      86.70       1.69       0.16       1.88       ----

> <Gold.Chemscore.Fitness>
19.2208

> <Gold.Chemscore.DG>
-21.2586

> <Gold.Chemscore.ZeroCoef>
-5.4800

> <Gold.Chemscore.Hbond>
2.9788

> <Gold.Chemscore.Metal>
0.0000

> <Gold.Chemscore.Lipo>
86.6968

> <Gold.Chemscore.Internal_Hbond>
0.0000

> <Gold.Chemscore.DEClash>
0.1617

> <Gold.Chemscore.DEInternal>
1.8761

> <Gold.Chemscore.Rot>
1.6853

> <Gold.Chemscore.Internal.Correction>
   9.000000E+99

> <Gold.Chemscore.Hbonds>
donor molecule, donor type, donor heavy atom, donor atom, acceptor molecule, acceptor atom, score
      L1  H     2    26       P1  7948  0.88
      L1  H     6    46       P1  7948  1.00
      P1  H  7997  8008       L1    12  0.99

> <Gold.Chemscore.Hbond.Weighted>
-9.9493

> <Gold.Chemscore.Metal.Weighted>
-0.0000

> <Gold.Chemscore.Lipo.Weighted>
-10.1435

> <Gold.Chemscore.Internal_Hbond.Weighted>
0.0000

> <Gold.Chemscore.DEClash.Weighted>
0.1617

> <Gold.Chemscore.DEInternal.Weighted>
1.8761

> <Gold.Chemscore.Rot.Weighted>
4.3143

> <Gold.Chemscore.Internal.Correction.Weighted>
   9.000000E+99

> <Gold.Protein.RotatedTorsions>
[ 6907 6896 6895 6894 ] final  122.58 input  -60.11 | X-H torsion
[ 7974 7965 7964 7962 ] final  -90.39 input  175.53 | X-H torsion
[ 8008 7997 7996 7995 ] final  -31.45 input   59.86 | X-H torsion
[ 10167 10162 10161 10158 ] final -151.05 input  -65.29 | X-H torsion
[ 10718 10713 10712 10709 ] final -129.65 input   66.30 | X-H torsion
[ 10763 10752 10751 10750 ] final   87.99 input  -60.55 | X-H torsion
[ 11005 11000 10999 10996 ] final   90.95 input  -57.11 | X-H torsion

> <Gold.Protein.ActiveResidues>
 VAL166  LYS551  ARG553  GLY616  TRP617  ASP618  TYR619  PRO620  LYS621  CYS622 
 ASP623  PHE694  ASN695  SER759  ASP760  ASP761  ALA762  ILE779  LEU786  VAL792 
 PHE793  MET794  SER795  GLU796  ALA797  LYS798  CYS799  TRP800  GLU811  SER814 

> <Gold.Protein.RotatedAtoms>
  152.4232  133.7150  159.6500 H   0  0  0  0  0  0  0  0  0  0  0  0  # atno 6907 bound_to 6896
  150.8108  133.8415  159.3189 H   0  0  0  0  0  0  0  0  0  0  0  0  # atno 6908 bound_to 6896
  151.6126  135.1041  160.0136 H   0  0  0  0  0  0  0  0  0  0  0  0  # atno 6909 bound_to 6896
  145.4271  140.9554  143.2148 H   0  0  0  0  0  0  0  0  0  0  0  0  # atno 7974 bound_to 7965
  154.4213  140.1764  156.1569 H   0  0  0  0  0  0  0  0  0  0  0  0  # atno 8008 bound_to 7997
  155.9870  140.3372  155.6692 H   0  0  0  0  0  0  0  0  0  0  0  0  # atno 8009 bound_to 7997
  155.6424  140.0681  157.2605 H   0  0  0  0  0  0  0  0  0  0  0  0  # atno 8010 bound_to 7997
  139.7301  143.8822  152.2532 H   0  0  0  0  0  0  0  0  0  0  0  0  # atno 10167 bound_to 10162
  156.2067  130.6892  151.0603 H   0  0  0  0  0  0  0  0  0  0  0  0  # atno 10718 bound_to 10713
  153.1723  135.4523  154.9919 H   0  0  0  0  0  0  0  0  0  0  0  0  # atno 10763 bound_to 10752
  154.7974  135.3243  154.7635 H   0  0  0  0  0  0  0  0  0  0  0  0  # atno 10764 bound_to 10752
  153.8110  135.6955  153.4895 H   0  0  0  0  0  0  0  0  0  0  0  0  # atno 10765 bound_to 10752
  139.8847  134.8645  156.3358 H   0  0  0  0  0  0  0  0  0  0  0  0  # atno 11005 bound_to 11000
  144.8207  139.5797  143.6988 LP  0  0  0  0  0  0  0  0  0  0  0  0  # atno 17320 bound_to 7965
  146.2626  139.6446  142.9351 LP  0  0  0  0  0  0  0  0  0  0  0  0  # atno 17321 bound_to 7965
  139.8742  144.7052  150.8952 LP  0  0  0  0  0  0  0  0  0  0  0  0  # atno 17342 bound_to 10162
  140.7769  143.3713  151.1644 LP  0  0  0  0  0  0  0  0  0  0  0  0  # atno 17343 bound_to 10162
  157.7016  131.0773  150.6801 LP  0  0  0  0  0  0  0  0  0  0  0  0  # atno 17370 bound_to 10713
  156.6860  130.4581  149.5614 LP  0  0  0  0  0  0  0  0  0  0  0  0  # atno 17371 bound_to 10713
  140.9692  133.7338  156.0510 LP  0  0  0  0  0  0  0  0  0  0  0  0  # atno 17394 bound_to 11000
  140.7893  134.3636  157.5468 LP  0  0  0  0  0  0  0  0  0  0  0  0  # atno 17395 bound_to 11000

$$$$
