AV-unprocessed.smi:119|AV-procd|sdf|1133|dock6
  -GOLD-   2262018263D 1   1.00000     0.00000
 Structure written by MMmdl.
 51 54  0  0  0  0  0  0  0  0  1 V2000
  145.7748  134.5429  156.2971 C   0  0  0  0  0  0  0  0  0  0  0  0
  146.1709  135.2402  157.6051 C   0  0  2  0  0  0  0  0  0  0  0  0
  146.6845  136.6692  157.3344 C   0  0  0  0  0  0  0  0  0  0  0  0
  146.8777  137.5320  158.5953 C   0  0  0  0  0  0  0  0  0  0  0  0
  148.0171  137.0839  159.4021 N   0  0  0  0  0  0  0  0  0  0  0  0
  149.2815  137.4695  159.0933 C   0  0  0  0  0  0  0  0  0  0  0  0
  150.2638  137.0327  159.6971 O   0  0  0  0  0  0  0  0  0  0  0  0
  149.5095  138.4905  157.9543 C   0  0  0  0  0  0  0  0  0  0  0  0
  150.5333  139.5018  158.2962 N   0  0  0  0  0  0  0  0  0  0  0  0
  151.8741  139.0897  158.4944 C   0  0  0  0  0  0  0  0  0  0  0  0
  152.2032  137.9078  158.3850 O   0  0  0  0  0  0  0  0  0  0  0  0
  152.8141  140.1523  158.8339 C   0  0  0  0  0  0  0  0  0  0  0  0
  154.1141  139.8601  159.0099 F   0  0  0  0  0  0  0  0  0  0  0  0
  152.3997  141.4288  158.9719 C   0  0  0  0  0  0  0  0  0  0  0  0
  151.0816  141.8101  158.8162 N   0  0  0  0  0  0  0  0  0  0  0  0
  150.7085  143.2668  158.9656 C   0  0  2  0  0  0  0  0  0  0  0  0
  151.4428  144.1937  157.9776 C   0  0  0  0  0  0  0  0  0  0  0  0
  152.1732  145.1603  158.8953 C   0  0  0  0  0  0  0  0  0  0  0  0
  151.3857  145.0529  160.1964 C   0  0  0  0  0  0  0  0  0  0  0  0
  151.0345  143.6792  160.2571 O   0  0  0  0  0  0  0  0  0  0  0  0
  150.1169  140.8473  158.4422 C   0  0  0  0  0  0  0  0  0  0  0  0
  148.9419  141.1662  158.2510 O   0  0  0  0  0  0  0  0  0  0  0  0
  147.7347  136.1667  160.4461 C   0  0  0  0  0  0  0  0  0  0  0  0
  147.7711  136.6070  161.7873 C   0  0  0  0  0  0  0  0  0  0  0  0
  147.5019  135.7054  162.8344 C   0  0  0  0  0  0  0  0  0  0  0  0
  147.1955  134.3620  162.5457 C   0  0  0  0  0  0  0  0  0  0  0  0
  147.1554  133.9193  161.2095 C   0  0  0  0  0  0  0  0  0  0  0  0
  147.4179  134.8181  160.1567 C   0  0  0  0  0  0  0  0  0  0  0  0
  147.3830  134.2172  158.4939 S   0  0  0  0  0  0  0  0  0  0  0  0
  145.0019  135.1025  155.7694 H   0  0  0  0  0  0  0  0  0  0  0  0
  145.3831  133.5436  156.4888 H   0  0  0  0  0  0  0  0  0  0  0  0
  146.6300  134.4428  155.6281 H   0  0  0  0  0  0  0  0  0  0  0  0
  145.2804  135.2999  158.2319 H   0  0  0  0  0  0  0  0  0  0  0  0
  147.6092  136.6310  156.7568 H   0  0  0  0  0  0  0  0  0  0  0  0
  145.9611  137.1788  156.6971 H   0  0  0  0  0  0  0  0  0  0  0  0
  147.0030  138.5781  158.3113 H   0  0  0  0  0  0  0  0  0  0  0  0
  145.9689  137.5094  159.1987 H   0  0  0  0  0  0  0  0  0  0  0  0
  149.7659  137.9344  157.0517 H   0  0  0  0  0  0  0  0  0  0  0  0
  148.5889  139.0128  157.6919 H   0  0  0  0  0  0  0  0  0  0  0  0
  153.1371  142.1780  159.2206 H   0  0  0  0  0  0  0  0  0  0  0  0
  149.6264  143.3151  158.8355 H   0  0  0  0  0  0  0  0  0  0  0  0
  152.1126  143.6502  157.3103 H   0  0  0  0  0  0  0  0  0  0  0  0
  150.6997  144.7133  157.3720 H   0  0  0  0  0  0  0  0  0  0  0  0
  153.1999  144.8280  159.0526 H   0  0  0  0  0  0  0  0  0  0  0  0
  152.2056  146.1769  158.5030 H   0  0  0  0  0  0  0  0  0  0  0  0
  151.9658  145.3589  161.0673 H   0  0  0  0  0  0  0  0  0  0  0  0
  150.4795  145.6593  160.1539 H   0  0  0  0  0  0  0  0  0  0  0  0
  148.0083  137.6362  162.0148 H   0  0  0  0  0  0  0  0  0  0  0  0
  147.5327  136.0438  163.8597 H   0  0  0  0  0  0  0  0  0  0  0  0
  146.9925  133.6700  163.3495 H   0  0  0  0  0  0  0  0  0  0  0  0
  146.9223  132.8865  160.9950 H   0  0  0  0  0  0  0  0  0  0  0  0
  1  2  1  0  0  0  0
  1 30  1  0  0  0  0
  1 31  1  0  0  0  0
  1 32  1  0  0  0  0
  2 29  1  0  0  0  0
  2  3  1  0  0  0  0
  2 33  1  0  0  0  0
  3  4  1  0  0  0  0
  3 34  1  0  0  0  0
  3 35  1  0  0  0  0
  4  5  1  0  0  0  0
  4 36  1  0  0  0  0
  4 37  1  0  0  0  0
  5  6  1  0  0  0  0
  5 23  1  0  0  0  0
  6  7  2  0  0  0  0
  6  8  1  0  0  0  0
  8  9  1  0  0  0  0
  8 38  1  0  0  0  0
  8 39  1  0  0  0  0
  9 21  1  0  0  0  0
  9 10  1  0  0  0  0
 10 11  2  0  0  0  0
 10 12  1  0  0  0  0
 12 13  1  0  0  0  0
 12 14  2  0  0  0  0
 14 15  1  0  0  0  0
 14 40  1  0  0  0  0
 15 16  1  0  0  0  0
 15 21  1  0  0  0  0
 16 20  1  0  0  0  0
 16 17  1  0  0  0  0
 16 41  1  0  0  0  0
 17 18  1  0  0  0  0
 17 42  1  0  0  0  0
 17 43  1  0  0  0  0
 18 19  1  0  0  0  0
 18 44  1  0  0  0  0
 18 45  1  0  0  0  0
 19 20  1  0  0  0  0
 19 46  1  0  0  0  0
 19 47  1  0  0  0  0
 21 22  2  0  0  0  0
 23 28  2  0  0  0  0
 23 24  1  0  0  0  0
 24 25  2  0  0  0  0
 24 48  1  0  0  0  0
 25 26  1  0  0  0  0
 25 49  1  0  0  0  0
 26 27  2  0  0  0  0
 26 50  1  0  0  0  0
 27 28  1  0  0  0  0
 27 51  1  0  0  0  0
 28 29  1  0  0  0  0
M  END
> <s_m_source_file>
AV-unprocessed.smi

> <i_m_source_file_index>
119

> <i_lp_mmshare_version>
43012

> <i_f3d_flags>
0

> <s_epik_input>
W2NIXTFbY0hdW2NIXVtjSF1jKGMxMilTW0NASF0oW0NIM10pW0NIMl1bQ0gyXU4yQyg9TylbQ0gyXW4zYyg9TyljKEYpW2NIXW4oYzM9TylbQ0BASF00W0NIMl1bQ0gyXVtDSDJdTzQ=

> <s_epik_cmdline>
J2VwaWtfcHl0aG9uJywgJy1waCcsICc3LjAnLCAnLXRuJywgJzgnLCAnLW1hJywgJzIwMCcsICctbWV0YWxfYmluZGluZycsICctaW1hZScsICc8aW5maWxlLm1hZT4nLCAnLW9tYWUnLCAnPG91dGZpbGUubWFlPic=

> <r_lp_tautomer_probability>
1

> <r_epik_Ionization_Penalty>
1.68882e-06

> <r_epik_Ionization_Penalty_Charging>
3.67303e-09

> <r_epik_Ionization_Penalty_Neutral>
1.68515e-06

> <r_epik_State_Penalty>
-0

> <r_epik_Charging_Adjusted_Penalty>
3.67303e-09

> <i_epik_Tot_Q>
0

> <i_epik_Tot_abs_Q>
0

> <r_epik_Metal_State_Penalty>
-0

> <b_epik_Metal_Only>
0

> <s_epik_Chemistry_Notes>
This compound contains an acetal/aminal-like group ( X-CH(R)-Y where X, Y are N, S, or O) that may be acid/base labile, releasing an aldehyde.

> <s_lp_Force_Field>
OPLS_2005

> <r_lp_Energy>
42.8221

> <b_lp_Chiralities_Consistent>
1

> <s_lp_Variant>
AV-unprocessed.smi:119-1

> <Gold.Version>
5.8.1

> <Gold.Id.Protein>
6NUR|6NUR_protein|mol2

> <Gold.PLP.Fitness>
54.2987

> <Gold.PLP.PLP>
-51.8691

> <Gold.PLP.part.hbond>
-1.8128

> <Gold.PLP.part.metal>
0.0000

> <Gold.PLP.part.buried>
-6.1173

> <Gold.PLP.part.nonpolar>
-45.0800

> <Gold.PLP.part.repulsive>
0.1091

> <Gold.PLP.ligand.clash>
0.0113

> <Gold.PLP.ligand.torsion>
0.2949

> <Gold.PLP.Chemscore.Hbond>
1.0000

> <Gold.PLP.Chemscore.CHOScore>
0.0000

> <Gold.PLP.Chemscore.Metal>
0.0000

> <Gold.Chemscore.Hbonds>
donor molecule, donor type, donor heavy atom, donor atom, acceptor molecule, acceptor atom, score
      P1  H  6896  6907       L1     7  0.60

> <Gold.PLP.Chemscore.Internal.Correction>
0.0307

> <Gold.Rescore>
     Score         DG    S(hbond)    S(metal)    S(lipo)     H(rot)  DE(clash)    DE(int)     intcor
     14.21     -17.48       0.91        0.00     110.04       1.53       0.21       3.07       ----

> <Gold.Chemscore.Fitness>
14.2056

> <Gold.Chemscore.DG>
-17.4785

> <Gold.Chemscore.ZeroCoef>
-5.4800

> <Gold.Chemscore.Hbond>
0.9078

> <Gold.Chemscore.Metal>
0.0000

> <Gold.Chemscore.Lipo>
110.0383

> <Gold.Chemscore.Internal_Hbond>
0.0000

> <Gold.Chemscore.DEClash>
0.2058

> <Gold.Chemscore.DEInternal>
3.0671

> <Gold.Chemscore.Rot>
1.5266

> <Gold.Chemscore.Internal.Correction>
   9.000000E+99

> <Gold.Chemscore.Hbonds>
donor molecule, donor type, donor heavy atom, donor atom, acceptor molecule, acceptor atom, score
      P1  H  6896  6907       L1     7  0.60

> <Gold.Chemscore.Hbond.Weighted>
-3.0321

> <Gold.Chemscore.Metal.Weighted>
-0.0000

> <Gold.Chemscore.Lipo.Weighted>
-12.8745

> <Gold.Chemscore.Internal_Hbond.Weighted>
0.0000

> <Gold.Chemscore.DEClash.Weighted>
0.2058

> <Gold.Chemscore.DEInternal.Weighted>
3.0671

> <Gold.Chemscore.Rot.Weighted>
3.9081

> <Gold.Chemscore.Internal.Correction.Weighted>
   9.000000E+99

> <Gold.Protein.RotatedTorsions>
[ 6907 6896 6895 6894 ] final  -10.51 input  -60.11 | X-H torsion
[ 7974 7965 7964 7962 ] final  -64.27 input  175.53 | X-H torsion
[ 8008 7997 7996 7995 ] final  -96.29 input   59.86 | X-H torsion
[ 10167 10162 10161 10158 ] final  160.57 input  -65.29 | X-H torsion
[ 10718 10713 10712 10709 ] final -120.31 input   66.30 | X-H torsion
[ 10763 10752 10751 10750 ] final  153.68 input  -60.55 | X-H torsion
[ 11005 11000 10999 10996 ] final -110.73 input  -57.11 | X-H torsion

> <Gold.Protein.ActiveResidues>
 VAL166  LYS551  ARG553  GLY616  TRP617  ASP618  TYR619  PRO620  LYS621  CYS622 
 ASP623  PHE694  ASN695  SER759  ASP760  ASP761  ALA762  ILE779  LEU786  VAL792 
 PHE793  MET794  SER795  GLU796  ALA797  LYS798  CYS799  TRP800  GLU811  SER814 

> <Gold.Protein.RotatedAtoms>
  151.4008  135.0971  159.9555 H   0  0  0  0  0  0  0  0  0  0  0  0  # atno 6907 bound_to 6896
  152.5051  133.8890  159.7395 H   0  0  0  0  0  0  0  0  0  0  0  0  # atno 6908 bound_to 6896
  150.9363  133.6651  159.2828 H   0  0  0  0  0  0  0  0  0  0  0  0  # atno 6909 bound_to 6896
  145.7687  140.8824  143.0391 H   0  0  0  0  0  0  0  0  0  0  0  0  # atno 7974 bound_to 7965
  154.7725  140.0472  157.1063 H   0  0  0  0  0  0  0  0  0  0  0  0  # atno 8008 bound_to 7997
  154.9803  140.3100  155.4930 H   0  0  0  0  0  0  0  0  0  0  0  0  # atno 8009 bound_to 7997
  156.2923  140.2237  156.4901 H   0  0  0  0  0  0  0  0  0  0  0  0  # atno 8010 bound_to 7997
  139.4841  144.4621  151.8691 H   0  0  0  0  0  0  0  0  0  0  0  0  # atno 10167 bound_to 10162
  156.1248  130.6350  150.9524 H   0  0  0  0  0  0  0  0  0  0  0  0  # atno 10718 bound_to 10713
  154.1401  135.2821  155.3163 H   0  0  0  0  0  0  0  0  0  0  0  0  # atno 10763 bound_to 10752
  154.6293  135.5440  153.7666 H   0  0  0  0  0  0  0  0  0  0  0  0  # atno 10764 bound_to 10752
  153.0253  135.6458  154.1548 H   0  0  0  0  0  0  0  0  0  0  0  0  # atno 10765 bound_to 10752
  141.0775  133.9276  157.2359 H   0  0  0  0  0  0  0  0  0  0  0  0  # atno 11005 bound_to 11000
  144.6816  139.9825  143.7483 LP  0  0  0  0  0  0  0  0  0  0  0  0  # atno 17320 bound_to 7965
  146.0191  139.3235  143.0824 LP  0  0  0  0  0  0  0  0  0  0  0  0  # atno 17321 bound_to 7965
  140.4084  144.2402  150.5890 LP  0  0  0  0  0  0  0  0  0  0  0  0  # atno 17342 bound_to 10162
  140.4990  143.2323  151.8706 LP  0  0  0  0  0  0  0  0  0  0  0  0  # atno 17343 bound_to 10162
  157.6430  131.0908  150.8212 LP  0  0  0  0  0  0  0  0  0  0  0  0  # atno 17370 bound_to 10713
  156.8304  130.5014  149.5332 LP  0  0  0  0  0  0  0  0  0  0  0  0  # atno 17371 bound_to 10713
  139.9587  135.0159  156.9202 LP  0  0  0  0  0  0  0  0  0  0  0  0  # atno 17394 bound_to 11000
  140.5541  134.0598  155.7378 LP  0  0  0  0  0  0  0  0  0  0  0  0  # atno 17395 bound_to 11000

$$$$
