AV-unprocessed.smi:103|AV-procd|sdf|990|dock9
  -GOLD-   2262017563D 1   1.00000     0.00000
 Structure written by MMmdl.
 53 55  0  0  0  0  0  0  0  0  1 V2000
  151.8300  145.4897  160.0028 C   0  0  0  0  0  0  0  0  0  0  0  0
  151.4771  144.4126  158.9850 C   0  0  0  0  0  0  0  0  0  0  0  0
  152.1689  144.2303  157.9830 O   0  0  0  0  0  0  0  0  0  0  0  0
  150.3671  143.7325  159.3190 O   0  0  0  0  0  0  0  0  0  0  0  0
  149.8289  142.7617  158.4335 C   0  0  0  0  0  0  0  0  0  0  0  0
  150.5795  141.4362  158.6162 C   0  0  1  0  0  0  0  0  0  0  0  0
  149.7604  140.3819  158.1042 O   0  0  0  0  0  0  0  0  0  0  0  0
  150.4514  139.6266  157.1609 C   0  0  1  0  0  0  0  0  0  0  0  0
  149.5055  139.2115  156.0809 N   0  0  0  0  0  0  0  0  0  0  0  0
  149.2607  137.9572  155.5587 C   0  0  0  0  0  0  0  0  0  0  0  0
  150.0127  136.4209  156.0845 S   0  0  0  0  0  0  0  0  0  0  0  0
  149.1189  135.1892  155.0526 C   0  0  0  0  0  0  0  0  0  0  0  0
  151.4241  136.4690  155.6714 O   0  0  0  0  0  0  0  0  0  0  0  0
  149.6549  136.2213  157.4970 O   0  0  0  0  0  0  0  0  0  0  0  0
  148.3184  137.8715  154.6590 N   0  0  0  0  0  0  0  0  0  0  0  0
  147.9163  139.1900  154.4983 C   0  0  0  0  0  0  0  0  0  0  0  0
  146.9569  139.8353  153.6781 C   0  0  0  0  0  0  0  0  0  0  0  0
  146.1809  139.1782  152.8054 N   0  0  0  0  0  0  0  0  0  0  0  0
  146.8162  141.1777  153.7798 N   0  0  0  0  0  0  0  0  0  0  0  0
  147.5783  141.8562  154.6436 C   0  0  0  0  0  0  0  0  0  0  0  0
  148.5144  141.3910  155.4745 N   0  0  0  0  0  0  0  0  0  0  0  0
  148.6556  140.0372  155.3725 C   0  0  0  0  0  0  0  0  0  0  0  0
  151.5596  140.5108  156.6044 C   0  0  2  0  0  0  0  0  0  0  0  0
  152.6485  139.7252  156.1392 O   0  0  0  0  0  0  0  0  0  0  0  0
  152.5537  139.0616  154.9775 C   0  0  0  0  0  0  0  0  0  0  0  0
  153.8464  138.3439  154.6147 C   0  0  0  0  0  0  0  0  0  0  0  0
  151.5617  139.0107  154.2503 O   0  0  0  0  0  0  0  0  0  0  0  0
  151.8885  141.4014  157.8010 C   0  0  2  0  0  0  0  0  0  0  0  0
  153.0737  141.0585  158.5357 O   0  0  0  0  0  0  0  0  0  0  0  0
  153.4051  141.5601  159.7485 C   0  0  0  0  0  0  0  0  0  0  0  0
  154.7108  140.9753  160.2693 C   0  0  0  0  0  0  0  0  0  0  0  0
  152.7769  142.3906  160.4021 O   0  0  0  0  0  0  0  0  0  0  0  0
  151.6846  146.4787  159.5688 H   0  0  0  0  0  0  0  0  0  0  0  0
  152.8727  145.3949  160.3060 H   0  0  0  0  0  0  0  0  0  0  0  0
  151.2041  145.4074  160.8919 H   0  0  0  0  0  0  0  0  0  0  0  0
  148.7616  142.6059  158.5927 H   0  0  0  0  0  0  0  0  0  0  0  0
  149.9492  143.1235  157.4121 H   0  0  0  0  0  0  0  0  0  0  0  0
  150.7656  141.2744  159.6780 H   0  0  0  0  0  0  0  0  0  0  0  0
  150.8014  138.7072  157.6222 H   0  0  0  0  0  0  0  0  0  0  0  0
  149.4935  134.1905  155.2751 H   0  0  0  0  0  0  0  0  0  0  0  0
  149.2833  135.4121  153.9985 H   0  0  0  0  0  0  0  0  0  0  0  0
  148.0520  135.2331  155.2694 H   0  0  0  0  0  0  0  0  0  0  0  0
  146.2669  138.1764  152.7115 H   0  0  0  0  0  0  0  0  0  0  0  0
  145.5132  139.6856  152.2427 H   0  0  0  0  0  0  0  0  0  0  0  0
  147.4139  142.9235  154.6761 H   0  0  0  0  0  0  0  0  0  0  0  0
  151.1323  141.1196  155.8058 H   0  0  0  0  0  0  0  0  0  0  0  0
  154.0083  137.4980  155.2831 H   0  0  0  0  0  0  0  0  0  0  0  0
  154.6951  139.0224  154.7020 H   0  0  0  0  0  0  0  0  0  0  0  0
  153.8042  137.9735  153.5904 H   0  0  0  0  0  0  0  0  0  0  0  0
  152.0955  142.4007  157.4173 H   0  0  0  0  0  0  0  0  0  0  0  0
  155.5179  141.1565  159.5596 H   0  0  0  0  0  0  0  0  0  0  0  0
  154.6110  139.8996  160.4151 H   0  0  0  0  0  0  0  0  0  0  0  0
  154.9807  141.4293  161.2230 H   0  0  0  0  0  0  0  0  0  0  0  0
  1  2  1  0  0  0  0
  1 33  1  0  0  0  0
  1 34  1  0  0  0  0
  1 35  1  0  0  0  0
  2  3  2  0  0  0  0
  2  4  1  0  0  0  0
  4  5  1  0  0  0  0
  5  6  1  0  0  0  0
  5 36  1  0  0  0  0
  5 37  1  0  0  0  0
  6 28  1  0  0  0  0
  6  7  1  0  0  0  0
  6 38  1  0  0  0  0
  7  8  1  0  0  0  0
  8  9  1  0  0  0  0
  8 23  1  0  0  0  0
  8 39  1  0  0  0  0
  9 22  1  0  0  0  0
  9 10  1  0  0  0  0
 10 11  1  0  0  0  0
 10 15  2  0  0  0  0
 11 12  1  0  0  0  0
 11 13  2  0  0  0  0
 11 14  2  0  0  0  0
 12 40  1  0  0  0  0
 12 41  1  0  0  0  0
 12 42  1  0  0  0  0
 15 16  1  0  0  0  0
 16 22  2  0  0  0  0
 16 17  1  0  0  0  0
 17 18  1  0  0  0  0
 17 19  2  0  0  0  0
 18 43  1  0  0  0  0
 18 44  1  0  0  0  0
 19 20  1  0  0  0  0
 20 21  2  0  0  0  0
 20 45  1  0  0  0  0
 21 22  1  0  0  0  0
 23 24  1  0  0  0  0
 23 28  1  0  0  0  0
 23 46  1  0  0  0  0
 24 25  1  0  0  0  0
 25 26  1  0  0  0  0
 25 27  2  0  0  0  0
 26 47  1  0  0  0  0
 26 48  1  0  0  0  0
 26 49  1  0  0  0  0
 28 29  1  0  0  0  0
 28 50  1  0  0  0  0
 29 30  1  0  0  0  0
 30 31  1  0  0  0  0
 30 32  2  0  0  0  0
 31 51  1  0  0  0  0
 31 52  1  0  0  0  0
 31 53  1  0  0  0  0
M  END
> <s_m_source_file>
AV-unprocessed.smi

> <i_m_source_file_index>
103

> <i_lp_mmshare_version>
43012

> <i_f3d_flags>
0

> <s_epik_input>
W0NIM11DKD1PKU9bQ0gyXVtDQEBIXTFPW0NASF0oW0NAQEhdKE9DKD1PKVtDSDNdKVtDQEhdMU9DKD1PKVtDSDNdKW4oYyhuMilTKD1PKSg9TylbQ0gzXSljKGMyMyluW2NIXW5jM1tOSDJd

> <s_epik_cmdline>
J2VwaWtfcHl0aG9uJywgJy1waCcsICc3LjAnLCAnLXRuJywgJzgnLCAnLW1hJywgJzIwMCcsICctbWV0YWxfYmluZGluZycsICctaW1hZScsICc8aW5maWxlLm1hZT4nLCAnLW9tYWUnLCAnPG91dGZpbGUubWFlPic=

> <r_lp_tautomer_probability>
1

> <r_epik_Ionization_Penalty>
1.51338e-05

> <r_epik_Ionization_Penalty_Charging>
0

> <r_epik_Ionization_Penalty_Neutral>
1.51338e-05

> <r_epik_State_Penalty>
-0

> <r_epik_Charging_Adjusted_Penalty>
0

> <i_epik_Tot_Q>
0

> <i_epik_Tot_abs_Q>
0

> <r_epik_Metal_State_Penalty>
-0

> <b_epik_Metal_Only>
0

> <s_epik_Chemistry_Notes>
This compound has an ester and may undergo hydrolysis at high or low pH. This compound contains an acetal/aminal-like group ( X-CH(R)-Y where X, Y are N, S, or O) that may be acid/base labile, releasing an aldehyde.

> <s_lp_Force_Field>
OPLS_2005

> <r_lp_Energy>
20.3067

> <b_lp_Chiralities_Consistent>
1

> <s_lp_Variant>
AV-unprocessed.smi:103-14

> <Gold.Version>
5.8.1

> <Gold.Id.Protein>
6NUR|6NUR_protein|mol2

> <Gold.PLP.Fitness>
50.2319

> <Gold.PLP.PLP>
-40.6236

> <Gold.PLP.part.hbond>
-4.8399

> <Gold.PLP.part.metal>
0.0000

> <Gold.PLP.part.buried>
-3.8428

> <Gold.PLP.part.nonpolar>
-33.5358

> <Gold.PLP.part.repulsive>
0.8536

> <Gold.PLP.ligand.clash>
0.0000

> <Gold.PLP.ligand.torsion>
1.9032

> <Gold.PLP.Chemscore.Hbond>
2.7360

> <Gold.PLP.Chemscore.CHOScore>
1.0000

> <Gold.PLP.Chemscore.Metal>
0.0000

> <Gold.Chemscore.Hbonds>
donor molecule, donor type, donor heavy atom, donor atom, acceptor molecule, acceptor atom, score
      L1  H    18    44       P1 10175  0.77
      P1  H  7989  7998       L1    27  0.95
      P1  H 10752 10763       L1    13  1.00
      L1  C    20    45       P1  8028  1.00

> <Gold.PLP.Chemscore.Internal.Correction>
2.2068

> <Gold.Rescore>
     Score         DG    S(hbond)    S(metal)    S(lipo)     H(rot)  DE(clash)    DE(int)     intcor
      2.34     -10.62       2.74        0.00      58.65       4.25       3.20       5.08       ----

> <Gold.Chemscore.Fitness>
2.3403

> <Gold.Chemscore.DG>
-10.6217

> <Gold.Chemscore.ZeroCoef>
-5.4800

> <Gold.Chemscore.Hbond>
2.7391

> <Gold.Chemscore.Metal>
0.0000

> <Gold.Chemscore.Lipo>
58.6465

> <Gold.Chemscore.Internal_Hbond>
0.0000

> <Gold.Chemscore.DEClash>
3.2036

> <Gold.Chemscore.DEInternal>
5.0778

> <Gold.Chemscore.Rot>
4.2456

> <Gold.Chemscore.Internal.Correction>
   9.000000E+99

> <Gold.Chemscore.Hbonds>
donor molecule, donor type, donor heavy atom, donor atom, acceptor molecule, acceptor atom, score
      L1  H    18    44       P1 10175  0.70
      P1  H  7989  7998       L1    27  0.20
      P1  H 10752 10763       L1    13  0.94

> <Gold.Chemscore.Hbond.Weighted>
-9.1487

> <Gold.Chemscore.Metal.Weighted>
-0.0000

> <Gold.Chemscore.Lipo.Weighted>
-6.8616

> <Gold.Chemscore.Internal_Hbond.Weighted>
0.0000

> <Gold.Chemscore.DEClash.Weighted>
3.2036

> <Gold.Chemscore.DEInternal.Weighted>
5.0778

> <Gold.Chemscore.Rot.Weighted>
10.8687

> <Gold.Chemscore.Internal.Correction.Weighted>
   9.000000E+99

> <Gold.Protein.RotatedTorsions>
[ 6907 6896 6895 6894 ] final  136.60 input  -60.11 | X-H torsion
[ 7974 7965 7964 7962 ] final  171.89 input  175.53 | X-H torsion
[ 8008 7997 7996 7995 ] final  -19.98 input   59.86 | X-H torsion
[ 10167 10162 10161 10158 ] final  123.67 input  -65.29 | X-H torsion
[ 10718 10713 10712 10709 ] final  159.82 input   66.30 | X-H torsion
[ 10763 10752 10751 10750 ] final   76.03 input  -60.55 | X-H torsion
[ 11005 11000 10999 10996 ] final   75.85 input  -57.11 | X-H torsion

> <Gold.Protein.ActiveResidues>
 VAL166  LYS551  ARG553  GLY616  TRP617  ASP618  TYR619  PRO620  LYS621  CYS622 
 ASP623  PHE694  ASN695  SER759  ASP760  ASP761  ALA762  ILE779  LEU786  VAL792 
 PHE793  MET794  SER795  GLU796  ALA797  LYS798  CYS799  TRP800  GLU811  SER814 

> <Gold.Protein.RotatedAtoms>
  152.2876  133.5529  159.5536 H   0  0  0  0  0  0  0  0  0  0  0  0  # atno 6907 bound_to 6896
  150.7221  134.0475  159.3796 H   0  0  0  0  0  0  0  0  0  0  0  0  # atno 6908 bound_to 6896
  151.8383  135.0599  160.0496 H   0  0  0  0  0  0  0  0  0  0  0  0  # atno 6909 bound_to 6896
  144.7282  139.9417  143.6429 H   0  0  0  0  0  0  0  0  0  0  0  0  # atno 7974 bound_to 7965
  154.4800  140.2074  155.9786 H   0  0  0  0  0  0  0  0  0  0  0  0  # atno 8008 bound_to 7997
  156.1150  140.3223  155.8096 H   0  0  0  0  0  0  0  0  0  0  0  0  # atno 8009 bound_to 7997
  155.4568  140.0521  157.2986 H   0  0  0  0  0  0  0  0  0  0  0  0  # atno 8010 bound_to 7997
  139.5786  144.6975  151.3588 H   0  0  0  0  0  0  0  0  0  0  0  0  # atno 10167 bound_to 10162
  157.1590  131.0582  151.2242 H   0  0  0  0  0  0  0  0  0  0  0  0  # atno 10718 bound_to 10713
  153.0696  135.4967  154.8276 H   0  0  0  0  0  0  0  0  0  0  0  0  # atno 10763 bound_to 10752
  154.7003  135.3000  154.9353 H   0  0  0  0  0  0  0  0  0  0  0  0  # atno 10764 bound_to 10752
  154.0078  135.6758  153.4816 H   0  0  0  0  0  0  0  0  0  0  0  0  # atno 10765 bound_to 10752
  139.9325  134.7552  156.1322 H   0  0  0  0  0  0  0  0  0  0  0  0  # atno 11005 bound_to 11000
  146.0779  139.3767  143.0482 LP  0  0  0  0  0  0  0  0  0  0  0  0  # atno 17320 bound_to 7965
  145.7880  140.9827  143.1064 LP  0  0  0  0  0  0  0  0  0  0  0  0  # atno 17321 bound_to 7965
  140.7066  143.7497  150.7493 LP  0  0  0  0  0  0  0  0  0  0  0  0  # atno 17342 bound_to 10162
  140.1024  143.4776  152.2418 LP  0  0  0  0  0  0  0  0  0  0  0  0  # atno 17343 bound_to 10162
  157.4150  130.7406  149.6868 LP  0  0  0  0  0  0  0  0  0  0  0  0  # atno 17370 bound_to 10713
  155.9757  130.4085  150.3830 LP  0  0  0  0  0  0  0  0  0  0  0  0  # atno 17371 bound_to 10713
  141.0921  133.6710  156.2564 LP  0  0  0  0  0  0  0  0  0  0  0  0  # atno 17394 bound_to 11000
  140.6164  134.5406  157.5541 LP  0  0  0  0  0  0  0  0  0  0  0  0  # atno 17395 bound_to 11000

$$$$
