AV-unprocessed.smi:261|AV-procd|sdf|1985|dock2
  -GOLD-   2262021163D 1   1.00000     0.00000
 Structure written by MMmdl.
 51 54  0  0  0  0  0  0  0  0  1 V2000
  152.1071  145.0819  158.9224 C   0  0  0  0  0  0  0  0  0  0  0  0
  151.2754  144.3917  158.0042 O   0  0  0  0  0  0  0  0  0  0  0  0
  151.6704  143.0451  157.7870 C   0  0  1  0  0  0  0  0  0  0  0  0
  151.7332  142.2154  159.0704 C   0  0  0  0  0  0  0  0  0  0  0  0
  151.5150  140.7632  158.6037 C   0  0  2  0  0  0  0  0  0  0  0  0
  152.8417  140.0059  158.4378 C   0  0  0  0  0  0  0  0  0  0  0  0
  153.5882  139.8536  159.5341 N   0  0  0  0  0  0  0  0  0  0  0  0
  153.2003  139.5795  157.3409 O   0  0  0  0  0  0  0  0  0  0  0  0
  150.8305  140.8877  157.3136 N   0  0  0  0  0  0  0  0  0  0  0  0
  149.7888  140.0587  157.0891 C   0  0  0  0  0  0  0  0  0  0  0  0
  149.4083  139.1692  158.0435 N   0  0  0  0  0  0  0  0  0  0  0  0
  148.3785  138.3479  157.8144 C   0  0  0  0  0  0  0  0  0  0  0  0
  147.6110  138.2534  156.7255 N   0  0  0  0  0  0  0  0  0  0  0  0
  147.9946  139.1487  155.7701 C   0  0  0  0  0  0  0  0  0  0  0  0
  149.0638  140.0810  155.8705 C   0  0  0  0  0  0  0  0  0  0  0  0
  149.1594  140.8280  154.7034 N   0  0  0  0  0  0  0  0  0  0  0  0
  148.1992  140.3613  153.9518 C   0  0  0  0  0  0  0  0  0  0  0  0
  147.4514  139.3508  154.5145 N   0  0  0  0  0  0  0  0  0  0  0  0
  146.3338  138.6498  153.9090 C   0  0  0  0  0  0  0  0  0  0  0  0
  146.7730  137.7500  152.7378 C   0  0  2  0  0  0  0  0  0  0  0  0
  147.3355  138.5269  151.6974 O   0  0  0  0  0  0  0  0  0  0  0  0
  145.6267  136.8707  152.1991 C   0  0  2  0  0  0  0  0  0  0  0  0
  144.9869  135.8975  153.1929 C   0  0  0  0  0  0  0  0  0  0  0  0
  144.3838  134.8761  152.2547 C   0  0  0  0  0  0  0  0  0  0  0  0
  145.4470  134.7887  151.1621 C   0  0  0  0  0  0  0  0  0  0  0  0
  146.0372  136.0838  151.0831 O   0  0  0  0  0  0  0  0  0  0  0  0
  150.6129  142.2903  156.9884 C   0  0  0  0  0  0  0  0  0  0  0  0
  152.6237  142.9961  157.2567 H   0  0  0  0  0  0  0  0  0  0  0  0
  150.9030  140.2343  159.3375 H   0  0  0  0  0  0  0  0  0  0  0  0
  151.7639  146.1117  159.0209 H   0  0  0  0  0  0  0  0  0  0  0  0
  153.1415  145.1054  158.5769 H   0  0  0  0  0  0  0  0  0  0  0  0
  152.0786  144.6251  159.9120 H   0  0  0  0  0  0  0  0  0  0  0  0
  152.6641  142.3627  159.6200 H   0  0  0  0  0  0  0  0  0  0  0  0
  150.9164  142.5046  159.7334 H   0  0  0  0  0  0  0  0  0  0  0  0
  154.4705  139.3657  159.4805 H   0  0  0  0  0  0  0  0  0  0  0  0
  153.2669  140.2303  160.4141 H   0  0  0  0  0  0  0  0  0  0  0  0
  148.1344  137.6694  158.6184 H   0  0  0  0  0  0  0  0  0  0  0  0
  148.0114  140.7408  152.9579 H   0  0  0  0  0  0  0  0  0  0  0  0
  145.8485  138.0523  154.6816 H   0  0  0  0  0  0  0  0  0  0  0  0
  145.6007  139.3857  153.5761 H   0  0  0  0  0  0  0  0  0  0  0  0
  147.5636  137.0860  153.0894 H   0  0  0  0  0  0  0  0  0  0  0  0
  148.0584  139.0212  152.0530 H   0  0  0  0  0  0  0  0  0  0  0  0
  144.8391  137.5278  151.8261 H   0  0  0  0  0  0  0  0  0  0  0  0
  145.7338  135.4154  153.8243 H   0  0  0  0  0  0  0  0  0  0  0  0
  144.2497  136.3738  153.8397 H   0  0  0  0  0  0  0  0  0  0  0  0
  144.1837  133.9173  152.7337 H   0  0  0  0  0  0  0  0  0  0  0  0
  143.4481  135.2542  151.8403 H   0  0  0  0  0  0  0  0  0  0  0  0
  146.2213  134.0736  151.4430 H   0  0  0  0  0  0  0  0  0  0  0  0
  145.0334  134.4794  150.2019 H   0  0  0  0  0  0  0  0  0  0  0  0
  149.6119  142.6066  157.2878 H   0  0  0  0  0  0  0  0  0  0  0  0
  150.7163  142.4679  155.9175 H   0  0  0  0  0  0  0  0  0  0  0  0
  1  2  1  0  0  0  0
  1 30  1  0  0  0  0
  1 31  1  0  0  0  0
  1 32  1  0  0  0  0
  2  3  1  0  0  0  0
  3 28  1  0  0  0  0
  3 27  1  0  0  0  0
  3  4  1  0  0  0  0
  4  5  1  0  0  0  0
  4 33  1  0  0  0  0
  4 34  1  0  0  0  0
  5 29  1  0  0  0  0
  5  6  1  0  0  0  0
  5  9  1  0  0  0  0
  6  7  1  0  0  0  0
  6  8  2  0  0  0  0
  7 35  1  0  0  0  0
  7 36  1  0  0  0  0
  9 10  1  0  0  0  0
  9 27  1  0  0  0  0
 10 15  1  0  0  0  0
 10 11  2  0  0  0  0
 11 12  1  0  0  0  0
 12 13  2  0  0  0  0
 12 37  1  0  0  0  0
 13 14  1  0  0  0  0
 14 18  1  0  0  0  0
 14 15  2  0  0  0  0
 15 16  1  0  0  0  0
 16 17  2  0  0  0  0
 17 18  1  0  0  0  0
 17 38  1  0  0  0  0
 18 19  1  0  0  0  0
 19 20  1  0  0  0  0
 19 39  1  0  0  0  0
 19 40  1  0  0  0  0
 20 21  1  0  0  0  0
 20 22  1  0  0  0  0
 20 41  1  0  0  0  0
 21 42  1  0  0  0  0
 22 26  1  0  0  0  0
 22 23  1  0  0  0  0
 22 43  1  0  0  0  0
 23 24  1  0  0  0  0
 23 44  1  0  0  0  0
 23 45  1  0  0  0  0
 24 25  1  0  0  0  0
 24 46  1  0  0  0  0
 24 47  1  0  0  0  0
 25 26  1  0  0  0  0
 25 48  1  0  0  0  0
 25 49  1  0  0  0  0
 27 50  1  0  0  0  0
 27 51  1  0  0  0  0
M  END
> <s_m_source_file>
AV-unprocessed.smi

> <i_m_source_file_index>
261

> <i_lp_mmshare_version>
43012

> <i_f3d_flags>
0

> <s_epik_input>
W0NIM11PW0NASF0xW0NIMl1bQ0BASF0oQyg9TylbTkgyXSlOKFtDSDJdMSljKG5bY0hdbjIpYyhjMjMpbltjSF1uM1tDSDJdW0NASF0oW09IXSlbQ0BASF00W0NIMl1bQ0gyXVtDSDJdTzQ=

> <s_epik_cmdline>
J2VwaWtfcHl0aG9uJywgJy1waCcsICc3LjAnLCAnLXRuJywgJzgnLCAnLW1hJywgJzIwMCcsICctbWV0YWxfYmluZGluZycsICctaW1hZScsICc8aW5maWxlLm1hZT4nLCAnLW9tYWUnLCAnPG91dGZpbGUubWFlPic=

> <r_lp_tautomer_probability>
1

> <r_epik_Ionization_Penalty>
0.000713824

> <r_epik_Ionization_Penalty_Charging>
0

> <r_epik_Ionization_Penalty_Neutral>
0.000713824

> <r_epik_State_Penalty>
0.000402132

> <r_epik_Charging_Adjusted_Penalty>
0.000402132

> <i_epik_Tot_Q>
0

> <i_epik_Tot_abs_Q>
0

> <r_epik_Metal_State_Penalty>
-0

> <b_epik_Metal_Only>
0

> <s_lp_Force_Field>
OPLS_2005

> <r_lp_Energy>
48.1487

> <b_lp_Chiralities_Consistent>
1

> <s_lp_Variant>
AV-unprocessed.smi:261-3

> <Gold.Version>
5.8.1

> <Gold.Id.Protein>
6NUR|6NUR_protein|mol2

> <Gold.PLP.Fitness>
44.3533

> <Gold.PLP.PLP>
-34.4369

> <Gold.PLP.part.hbond>
-4.0000

> <Gold.PLP.part.metal>
0.0000

> <Gold.PLP.part.buried>
-4.2230

> <Gold.PLP.part.nonpolar>
-27.2740

> <Gold.PLP.part.repulsive>
0.6470

> <Gold.PLP.ligand.clash>
0.0000

> <Gold.PLP.ligand.torsion>
0.2821

> <Gold.PLP.Chemscore.Hbond>
2.5993

> <Gold.PLP.Chemscore.CHOScore>
0.7820

> <Gold.PLP.Chemscore.Metal>
0.0000

> <Gold.Chemscore.Hbonds>
donor molecule, donor type, donor heavy atom, donor atom, acceptor molecule, acceptor atom, score
      L1  H    21    42       P1  7957  0.60
      P1  H  7954  7966       L1    21  0.86
      P1  H  7997  8010       L1     8  0.78
      L1  C    17    38       P1  7957  0.75

> <Gold.PLP.Chemscore.Internal.Correction>
0.3369

> <Gold.Rescore>
     Score         DG    S(hbond)    S(metal)    S(lipo)     H(rot)  DE(clash)    DE(int)     intcor
     11.26     -12.96       2.25        0.00      77.75       3.57       1.26       0.44       ----

> <Gold.Chemscore.Fitness>
11.2568

> <Gold.Chemscore.DG>
-12.9573

> <Gold.Chemscore.ZeroCoef>
-5.4800

> <Gold.Chemscore.Hbond>
2.2545

> <Gold.Chemscore.Metal>
0.0000

> <Gold.Chemscore.Lipo>
77.7495

> <Gold.Chemscore.Internal_Hbond>
0.0000

> <Gold.Chemscore.DEClash>
1.2591

> <Gold.Chemscore.DEInternal>
0.4414

> <Gold.Chemscore.Rot>
3.5740

> <Gold.Chemscore.Internal.Correction>
   9.000000E+99

> <Gold.Chemscore.Hbonds>
donor molecule, donor type, donor heavy atom, donor atom, acceptor molecule, acceptor atom, score
      L1  H    21    42       P1  7957  0.57
      P1  H  7954  7966       L1    21  0.21
      P1  H  7997  8010       L1     8  0.75

> <Gold.Chemscore.Hbond.Weighted>
-7.5300

> <Gold.Chemscore.Metal.Weighted>
-0.0000

> <Gold.Chemscore.Lipo.Weighted>
-9.0967

> <Gold.Chemscore.Internal_Hbond.Weighted>
0.0000

> <Gold.Chemscore.DEClash.Weighted>
1.2591

> <Gold.Chemscore.DEInternal.Weighted>
0.4414

> <Gold.Chemscore.Rot.Weighted>
9.1495

> <Gold.Chemscore.Internal.Correction.Weighted>
   9.000000E+99

> <Gold.Protein.RotatedTorsions>
[ 6907 6896 6895 6894 ] final   77.72 input  -60.11 | X-H torsion
[ 7974 7965 7964 7962 ] final -111.79 input  175.53 | X-H torsion
[ 8008 7997 7996 7995 ] final   55.97 input   59.86 | X-H torsion
[ 10167 10162 10161 10158 ] final   72.10 input  -65.29 | X-H torsion
[ 10718 10713 10712 10709 ] final   96.59 input   66.30 | X-H torsion
[ 10763 10752 10751 10750 ] final  176.13 input  -60.55 | X-H torsion
[ 11005 11000 10999 10996 ] final -158.25 input  -57.11 | X-H torsion

> <Gold.Protein.ActiveResidues>
 VAL166  LYS551  ARG553  GLY616  TRP617  ASP618  TYR619  PRO620  LYS621  CYS622 
 ASP623  PHE694  ASN695  SER759  ASP760  ASP761  ALA762  ILE779  LEU786  VAL792 
 PHE793  MET794  SER795  GLU796  ALA797  LYS798  CYS799  TRP800  GLU811  SER814 

> <Gold.Protein.RotatedAtoms>
  152.5129  134.3774  159.9339 H   0  0  0  0  0  0  0  0  0  0  0  0  # atno 6907 bound_to 6896
  151.3730  133.3842  159.2709 H   0  0  0  0  0  0  0  0  0  0  0  0  # atno 6908 bound_to 6896
  150.9563  134.8976  159.7761 H   0  0  0  0  0  0  0  0  0  0  0  0  # atno 6909 bound_to 6896
  145.1518  140.8833  143.3642 H   0  0  0  0  0  0  0  0  0  0  0  0  # atno 7974 bound_to 7965
  155.5098  140.3477  155.4386 H   0  0  0  0  0  0  0  0  0  0  0  0  # atno 8008 bound_to 7997
  156.0857  140.1398  156.9684 H   0  0  0  0  0  0  0  0  0  0  0  0  # atno 8009 bound_to 7997
  154.4605  140.0936  156.6856 H   0  0  0  0  0  0  0  0  0  0  0  0  # atno 8010 bound_to 7997
  140.0390  144.5405  150.7449 H   0  0  0  0  0  0  0  0  0  0  0  0  # atno 10167 bound_to 10162
  157.6925  131.0583  150.4515 H   0  0  0  0  0  0  0  0  0  0  0  0  # atno 10718 bound_to 10713
  154.4770  135.2773  155.1600 H   0  0  0  0  0  0  0  0  0  0  0  0  # atno 10763 bound_to 10752
  154.3326  135.6187  153.5562 H   0  0  0  0  0  0  0  0  0  0  0  0  # atno 10764 bound_to 10752
  152.9870  135.5769  154.5162 H   0  0  0  0  0  0  0  0  0  0  0  0  # atno 10765 bound_to 10752
  140.6556  134.4404  157.5235 H   0  0  0  0  0  0  0  0  0  0  0  0  # atno 11005 bound_to 11000
  145.0422  139.3250  143.5971 LP  0  0  0  0  0  0  0  0  0  0  0  0  # atno 17320 bound_to 7965
  146.3493  139.9800  142.8697 LP  0  0  0  0  0  0  0  0  0  0  0  0  # atno 17321 bound_to 7965
  140.7269  143.2645  151.4090 LP  0  0  0  0  0  0  0  0  0  0  0  0  # atno 17342 bound_to 10162
  139.6026  144.1263  152.2215 LP  0  0  0  0  0  0  0  0  0  0  0  0  # atno 17343 bound_to 10162
  156.4865  130.4085  149.6431 LP  0  0  0  0  0  0  0  0  0  0  0  0  # atno 17370 bound_to 10713
  156.3457  130.7405  151.2357 LP  0  0  0  0  0  0  0  0  0  0  0  0  # atno 17371 bound_to 10713
  139.9030  134.8512  156.1817 LP  0  0  0  0  0  0  0  0  0  0  0  0  # atno 17394 bound_to 11000
  141.0504  133.6892  156.1760 LP  0  0  0  0  0  0  0  0  0  0  0  0  # atno 17395 bound_to 11000

$$$$
