AV-unprocessed.smi:3110|AV-procd|sdf|11828|dock9
  -GOLD-   2272017203D 1   1.00000     0.00000
 Structure written by MMmdl.
 34 35  0  0  0  0  0  0  0  0  2 V2000
  152.6023  140.5061  156.9346 O   0  0  0  0  0  0  0  0  0  0  0  0
  151.6001  141.1104  157.3180 C   0  0  0  0  0  0  0  0  0  0  0  0
  151.5143  141.6448  158.7520 C   0  0  0  0  0  0  0  0  0  0  0  0
  152.3379  142.9295  158.9819 C   0  0  2  0  0  0  0  0  0  0  0  0
  152.2620  143.4072  160.4090 C   0  0  0  0  0  0  0  0  0  0  0  0
  151.9331  144.6936  160.5055 C   0  0  0  0  0  0  0  0  0  0  0  0
  151.7215  145.3350  159.1623 C   0  0  0  0  0  0  0  0  0  0  0  0
  151.8535  144.1600  158.1684 C   0  0  0  0  0  0  0  0  0  0  0  0
  150.5351  141.3361  156.5334 N   0  0  0  0  0  0  0  0  0  0  0  0
  150.4228  140.9212  155.1404 C   0  0  0  0  0  0  0  0  0  0  0  0
  149.2880  139.9024  154.9421 C   0  0  0  0  0  0  0  0  0  0  0  0
  148.0431  140.5529  154.5311 N   0  0  0  0  0  0  0  0  0  0  0  0
  147.7962  141.8987  154.4426 C   0  0  0  0  0  0  0  0  0  0  0  0
  146.5003  142.0299  154.0134 C   0  0  0  0  0  0  0  0  0  0  0  0
  146.0124  140.7599  153.8584 N   0  3  0  0  0  0  0  0  0  0  0  0
  146.9527  139.8629  154.1734 C   0  0  0  0  0  0  0  0  0  0  0  0
  150.4701  141.8279  159.0111 H   0  0  0  0  0  0  0  0  0  0  0  0
  151.8649  140.8591  159.4221 H   0  0  0  0  0  0  0  0  0  0  0  0
  153.3910  142.7384  158.7700 H   0  0  0  0  0  0  0  0  0  0  0  0
  152.4738  142.7568  161.2452 H   0  0  0  0  0  0  0  0  0  0  0  0
  151.8369  145.2450  161.4294 H   0  0  0  0  0  0  0  0  0  0  0  0
  150.7394  145.8055  159.1080 H   0  0  0  0  0  0  0  0  0  0  0  0
  152.4841  146.0956  158.9923 H   0  0  0  0  0  0  0  0  0  0  0  0
  152.5420  144.3969  157.3565 H   0  0  0  0  0  0  0  0  0  0  0  0
  150.8809  143.9649  157.7144 H   0  0  0  0  0  0  0  0  0  0  0  0
  149.7531  141.8396  156.9271 H   0  0  0  0  0  0  0  0  0  0  0  0
  150.2356  141.8091  154.5356 H   0  0  0  0  0  0  0  0  0  0  0  0
  151.3741  140.5088  154.7994 H   0  0  0  0  0  0  0  0  0  0  0  0
  149.5483  139.1643  154.1819 H   0  0  0  0  0  0  0  0  0  0  0  0
  149.0934  139.3564  155.8663 H   0  0  0  0  0  0  0  0  0  0  0  0
  148.5404  142.6434  154.6849 H   0  0  0  0  0  0  0  0  0  0  0  0
  145.9044  142.9085  153.8123 H   0  0  0  0  0  0  0  0  0  0  0  0
  146.8515  138.7923  154.1434 H   0  0  0  0  0  0  0  0  0  0  0  0
  145.0758  140.5298  153.5503 H   0  0  0  0  0  0  0  0  0  0  0  0
  1  2  2  0  0  0  0
  2  3  1  0  0  0  0
  2  9  1  0  0  0  0
  3  4  1  0  0  0  0
  3 17  1  0  0  0  0
  3 18  1  0  0  0  0
  4  8  1  0  0  0  0
  4  5  1  0  0  0  0
  4 19  1  0  0  0  0
  5  6  2  0  0  0  0
  5 20  1  0  0  0  0
  6  7  1  0  0  0  0
  6 21  1  0  0  0  0
  7  8  1  0  0  0  0
  7 22  1  0  0  0  0
  7 23  1  0  0  0  0
  8 24  1  0  0  0  0
  8 25  1  0  0  0  0
  9 10  1  0  0  0  0
  9 26  1  0  0  0  0
 10 11  1  0  0  0  0
 10 27  1  0  0  0  0
 10 28  1  0  0  0  0
 11 12  1  0  0  0  0
 11 29  1  0  0  0  0
 11 30  1  0  0  0  0
 12 16  1  0  0  0  0
 12 13  1  0  0  0  0
 13 14  2  0  0  0  0
 13 31  1  0  0  0  0
 14 15  1  0  0  0  0
 14 32  1  0  0  0  0
 15 16  2  0  0  0  0
 15 34  1  0  0  0  0
 16 33  1  0  0  0  0
M  CHG  1  15   1
M  END
> <s_m_source_file>
AV-unprocessed.smi

> <i_m_source_file_index>
3110

> <i_lp_mmshare_version>
43012

> <i_f3d_flags>
0

> <s_epik_input>
W0NIMl0xW0NIMl1bQ0hdPVtDSF1bQ0BIXTFbQ0gyXUMoPU8pW05IXVtDSDJdW0NIMl1uMltjSF1bY0hdbltjSF0y

> <s_epik_cmdline>
J2VwaWtfcHl0aG9uJywgJy1waCcsICc3LjAnLCAnLXRuJywgJzgnLCAnLW1hJywgJzIwMCcsICctbWV0YWxfYmluZGluZycsICctaW1hZScsICc8aW5maWxlLm1hZT4nLCAnLW9tYWUnLCAnPG91dGZpbGUubWFlPic=

> <r_lp_tautomer_probability>
1

> <r_epik_Ionization_Penalty>
0.271094

> <r_epik_Ionization_Penalty_Charging>
0

> <r_epik_Ionization_Penalty_Neutral>
0.271094

> <r_epik_State_Penalty>
0.263241

> <r_epik_Charging_Adjusted_Penalty>
0.263241

> <i_epik_Tot_Q>
1

> <i_epik_Tot_abs_Q>
1

> <r_epik_Metal_State_Penalty>
0.547832

> <b_epik_Metal_Only>
0

> <s_lp_Force_Field>
OPLS_2005

> <r_lp_Energy>
18.4695

> <b_lp_Chiralities_Consistent>
1

> <s_lp_Variant>
AV-unprocessed.smi:3110-1

> <Gold.Version>
5.8.1

> <Gold.Id.Protein>
6NUR|6NUR_protein|mol2

> <Gold.PLP.Fitness>
49.8851

> <Gold.PLP.PLP>
-38.8700

> <Gold.PLP.part.hbond>
-2.0000

> <Gold.PLP.part.metal>
0.0000

> <Gold.PLP.part.buried>
-3.0231

> <Gold.PLP.part.nonpolar>
-32.7808

> <Gold.PLP.part.repulsive>
0.0644

> <Gold.PLP.ligand.clash>
0.0000

> <Gold.PLP.ligand.torsion>
0.5038

> <Gold.PLP.Chemscore.Hbond>
3.0000

> <Gold.PLP.Chemscore.CHOScore>
1.0000

> <Gold.PLP.Chemscore.Metal>
0.0000

> <Gold.Chemscore.Hbonds>
donor molecule, donor type, donor heavy atom, donor atom, acceptor molecule, acceptor atom, score
      L1  H    15    34       P1 10175  2.00
      P1  H  7997  8010       L1     1  0.80
      L1  C    13    31       P1  8028  1.00

> <Gold.PLP.Chemscore.Internal.Correction>
0.0226

> <Gold.Rescore>
     Score         DG    S(hbond)    S(metal)    S(lipo)     H(rot)  DE(clash)    DE(int)     intcor
     16.66     -17.46       1.92        0.00      93.32       2.10       0.06       0.74       ----

> <Gold.Chemscore.Fitness>
16.6608

> <Gold.Chemscore.DG>
-17.4575

> <Gold.Chemscore.ZeroCoef>
-5.4800

> <Gold.Chemscore.Hbond>
1.9237

> <Gold.Chemscore.Metal>
0.0000

> <Gold.Chemscore.Lipo>
93.3242

> <Gold.Chemscore.Internal_Hbond>
0.0000

> <Gold.Chemscore.DEClash>
0.0553

> <Gold.Chemscore.DEInternal>
0.7414

> <Gold.Chemscore.Rot>
2.0963

> <Gold.Chemscore.Internal.Correction>
   9.000000E+99

> <Gold.Chemscore.Hbonds>
donor molecule, donor type, donor heavy atom, donor atom, acceptor molecule, acceptor atom, score
      L1  H    15    34       P1 10175  0.98
      P1  H  7997  8010       L1     1  0.80

> <Gold.Chemscore.Hbond.Weighted>
-6.4250

> <Gold.Chemscore.Metal.Weighted>
-0.0000

> <Gold.Chemscore.Lipo.Weighted>
-10.9189

> <Gold.Chemscore.Internal_Hbond.Weighted>
0.0000

> <Gold.Chemscore.DEClash.Weighted>
0.0553

> <Gold.Chemscore.DEInternal.Weighted>
0.7414

> <Gold.Chemscore.Rot.Weighted>
5.3665

> <Gold.Chemscore.Internal.Correction.Weighted>
   9.000000E+99

> <Gold.Protein.RotatedTorsions>
[ 6907 6896 6895 6894 ] final    0.34 input  -60.11 | X-H torsion
[ 7974 7965 7964 7962 ] final  -42.08 input  175.53 | X-H torsion
[ 8008 7997 7996 7995 ] final   53.64 input   59.86 | X-H torsion
[ 10167 10162 10161 10158 ] final   80.77 input  -65.29 | X-H torsion
[ 10718 10713 10712 10709 ] final  -63.24 input   66.30 | X-H torsion
[ 10763 10752 10751 10750 ] final   23.43 input  -60.55 | X-H torsion
[ 11005 11000 10999 10996 ] final    5.84 input  -57.11 | X-H torsion

> <Gold.Protein.ActiveResidues>
 VAL166  LYS551  ARG553  GLY616  TRP617  ASP618  TYR619  PRO620  LYS621  CYS622 
 ASP623  PHE694  ASN695  SER759  ASP760  ASP761  ALA762  ILE779  LEU786  VAL792 
 PHE793  MET794  SER795  GLU796  ALA797  LYS798  CYS799  TRP800  GLU811  SER814 

> <Gold.Protein.RotatedAtoms>
  151.5748  135.1061  160.0003 H   0  0  0  0  0  0  0  0  0  0  0  0  # atno 6907 bound_to 6896
  152.4383  133.7397  159.6644 H   0  0  0  0  0  0  0  0  0  0  0  0  # atno 6908 bound_to 6896
  150.8284  133.8063  159.3132 H   0  0  0  0  0  0  0  0  0  0  0  0  # atno 6909 bound_to 6896
  146.0150  140.6919  142.9206 H   0  0  0  0  0  0  0  0  0  0  0  0  # atno 7974 bound_to 7965
  155.4717  140.3465  155.4326 H   0  0  0  0  0  0  0  0  0  0  0  0  # atno 8008 bound_to 7997
  156.1096  140.1457  156.9385 H   0  0  0  0  0  0  0  0  0  0  0  0  # atno 8009 bound_to 7997
  154.4747  140.0889  156.7212 H   0  0  0  0  0  0  0  0  0  0  0  0  # atno 8010 bound_to 7997
  139.9463  144.6056  150.8204 H   0  0  0  0  0  0  0  0  0  0  0  0  # atno 10167 bound_to 10162
  156.0804  130.4218  150.1249 H   0  0  0  0  0  0  0  0  0  0  0  0  # atno 10718 bound_to 10713
  153.0839  135.6627  153.9989 H   0  0  0  0  0  0  0  0  0  0  0  0  # atno 10763 bound_to 10752
  153.9603  135.2975  155.3435 H   0  0  0  0  0  0  0  0  0  0  0  0  # atno 10764 bound_to 10752
  154.7244  135.5151  153.8934 H   0  0  0  0  0  0  0  0  0  0  0  0  # atno 10765 bound_to 10752
  140.5661  134.0146  155.7990 H   0  0  0  0  0  0  0  0  0  0  0  0  # atno 11005 bound_to 11000
  144.6967  140.3465  143.7189 LP  0  0  0  0  0  0  0  0  0  0  0  0  # atno 17320 bound_to 7965
  145.7283  139.1729  143.2445 LP  0  0  0  0  0  0  0  0  0  0  0  0  # atno 17321 bound_to 7965
  140.7596  143.3133  151.2793 LP  0  0  0  0  0  0  0  0  0  0  0  0  # atno 17342 bound_to 10162
  139.6664  144.0097  152.2726 LP  0  0  0  0  0  0  0  0  0  0  0  0  # atno 17343 bound_to 10162
  156.9281  130.9705  151.3537 LP  0  0  0  0  0  0  0  0  0  0  0  0  # atno 17370 bound_to 10713
  157.5918  130.8449  149.8670 LP  0  0  0  0  0  0  0  0  0  0  0  0  # atno 17371 bound_to 10713
  141.1085  133.9655  157.2954 LP  0  0  0  0  0  0  0  0  0  0  0  0  # atno 17394 bound_to 11000
  139.9384  135.0194  156.8630 LP  0  0  0  0  0  0  0  0  0  0  0  0  # atno 17395 bound_to 11000

$$$$
