AV-unprocessed.smi:1570|AV-procd|sdf|6312|dock6
  -GOLD-   22720 6513D 1   1.00000     0.00000
 Structure written by MMmdl.
 51 53  0  0  0  0  0  0  0  0  1 V2000
  154.0430  139.7377  159.8512 C   0  0  0  0  0  0  0  0  0  0  0  0
  152.5605  139.4835  159.5515 C   0  0  0  0  0  0  0  0  0  0  0  0
  152.0252  140.4900  158.6380 N   0  0  0  0  0  0  0  0  0  0  0  0
  151.4137  140.2574  157.4528 C   0  0  0  0  0  0  0  0  0  0  0  0
  151.2029  139.1521  156.9537 O   0  0  0  0  0  0  0  0  0  0  0  0
  151.0983  141.4527  156.8996 N   0  0  0  0  0  0  0  0  0  0  0  0
  150.4662  141.6764  155.5994 C   0  0  0  0  0  0  0  0  0  0  0  0
  149.0660  141.0358  155.5196 C   0  0  2  0  0  0  0  0  0  0  0  0
  149.2364  139.6547  155.2806 O   0  0  0  0  0  0  0  0  0  0  0  0
  148.1926  141.6183  154.3862 C   0  0  0  0  0  0  0  0  0  0  0  0
  146.8585  142.0636  154.7890 N   0  0  0  0  0  0  0  0  0  0  0  0
  146.7985  142.4353  156.2020 C   0  0  0  0  0  0  0  0  0  0  0  0
  145.3994  142.9341  156.6102 C   0  0  1  0  0  0  0  0  0  0  0  0
  145.3567  143.4024  158.0684 C   0  0  0  0  0  0  0  0  0  0  0  0
  145.0323  144.0295  155.7765 O   0  0  0  0  0  0  0  0  0  0  0  0
  145.0301  143.7040  154.3894 C   0  0  1  0  0  0  0  0  0  0  0  0
  144.6095  144.9502  153.6032 C   0  0  0  0  0  0  0  0  0  0  0  0
  146.4325  143.2071  153.9897 C   0  0  0  0  0  0  0  0  0  0  0  0
  151.5289  142.4792  157.7526 C   0  0  0  0  0  0  0  0  0  0  0  0
  151.4472  143.8772  157.6308 C   0  0  0  0  0  0  0  0  0  0  0  0
  151.9977  144.6511  158.6792 C   0  0  0  0  0  0  0  0  0  0  0  0
  152.6045  144.0282  159.8006 C   0  0  0  0  0  0  0  0  0  0  0  0
  152.6728  142.6186  159.8981 C   0  0  0  0  0  0  0  0  0  0  0  0
  152.1156  141.8739  158.8440 C   0  0  0  0  0  0  0  0  0  0  0  0
  154.4357  138.9814  160.5311 H   0  0  0  0  0  0  0  0  0  0  0  0
  154.1900  140.7125  160.3172 H   0  0  0  0  0  0  0  0  0  0  0  0
  154.6416  139.7072  158.9403 H   0  0  0  0  0  0  0  0  0  0  0  0
  152.4351  138.4894  159.1197 H   0  0  0  0  0  0  0  0  0  0  0  0
  151.9862  139.4839  160.4780 H   0  0  0  0  0  0  0  0  0  0  0  0
  150.4080  142.7438  155.3799 H   0  0  0  0  0  0  0  0  0  0  0  0
  151.1153  141.2487  154.8339 H   0  0  0  0  0  0  0  0  0  0  0  0
  148.5817  141.1412  156.4887 H   0  0  0  0  0  0  0  0  0  0  0  0
  150.1280  139.5102  155.0011 H   0  0  0  0  0  0  0  0  0  0  0  0
  148.7049  142.4600  153.9210 H   0  0  0  0  0  0  0  0  0  0  0  0
  148.1084  140.8641  153.6019 H   0  0  0  0  0  0  0  0  0  0  0  0
  147.0596  141.5876  156.8333 H   0  0  0  0  0  0  0  0  0  0  0  0
  147.5344  143.2144  156.4089 H   0  0  0  0  0  0  0  0  0  0  0  0
  144.6723  142.1309  156.4785 H   0  0  0  0  0  0  0  0  0  0  0  0
  145.6138  142.5900  158.7487 H   0  0  0  0  0  0  0  0  0  0  0  0
  144.3605  143.7563  158.3347 H   0  0  0  0  0  0  0  0  0  0  0  0
  146.0583  144.2189  158.2411 H   0  0  0  0  0  0  0  0  0  0  0  0
  144.2980  142.9143  154.2124 H   0  0  0  0  0  0  0  0  0  0  0  0
  144.5774  144.7459  152.5329 H   0  0  0  0  0  0  0  0  0  0  0  0
  145.3050  145.7736  153.7668 H   0  0  0  0  0  0  0  0  0  0  0  0
  143.6178  145.2861  153.9074 H   0  0  0  0  0  0  0  0  0  0  0  0
  147.1510  144.0212  154.0999 H   0  0  0  0  0  0  0  0  0  0  0  0
  146.4299  142.9366  152.9330 H   0  0  0  0  0  0  0  0  0  0  0  0
  150.9861  144.3450  156.7734 H   0  0  0  0  0  0  0  0  0  0  0  0
  151.9567  145.7288  158.6246 H   0  0  0  0  0  0  0  0  0  0  0  0
  153.0197  144.6379  160.5894 H   0  0  0  0  0  0  0  0  0  0  0  0
  153.1361  142.1398  160.7479 H   0  0  0  0  0  0  0  0  0  0  0  0
  1  2  1  0  0  0  0
  1 25  1  0  0  0  0
  1 26  1  0  0  0  0
  1 27  1  0  0  0  0
  2  3  1  0  0  0  0
  2 28  1  0  0  0  0
  2 29  1  0  0  0  0
  3 24  1  0  0  0  0
  3  4  1  0  0  0  0
  4  5  2  0  0  0  0
  4  6  1  0  0  0  0
  6  7  1  0  0  0  0
  6 19  1  0  0  0  0
  7  8  1  0  0  0  0
  7 30  1  0  0  0  0
  7 31  1  0  0  0  0
  8  9  1  0  0  0  0
  8 10  1  0  0  0  0
  8 32  1  0  0  0  0
  9 33  1  0  0  0  0
 10 11  1  0  0  0  0
 10 34  1  0  0  0  0
 10 35  1  0  0  0  0
 11 18  1  0  0  0  0
 11 12  1  0  0  0  0
 12 13  1  0  0  0  0
 12 36  1  0  0  0  0
 12 37  1  0  0  0  0
 13 14  1  0  0  0  0
 13 15  1  0  0  0  0
 13 38  1  0  0  0  0
 14 39  1  0  0  0  0
 14 40  1  0  0  0  0
 14 41  1  0  0  0  0
 15 16  1  0  0  0  0
 16 17  1  0  0  0  0
 16 18  1  0  0  0  0
 16 42  1  0  0  0  0
 17 43  1  0  0  0  0
 17 44  1  0  0  0  0
 17 45  1  0  0  0  0
 18 46  1  0  0  0  0
 18 47  1  0  0  0  0
 19 24  2  0  0  0  0
 19 20  1  0  0  0  0
 20 21  2  0  0  0  0
 20 48  1  0  0  0  0
 21 22  1  0  0  0  0
 21 49  1  0  0  0  0
 22 23  2  0  0  0  0
 22 50  1  0  0  0  0
 23 24  1  0  0  0  0
 23 51  1  0  0  0  0
M  END
> <s_m_source_file>
AV-unprocessed.smi

> <i_m_source_file_index>
1570

> <i_lp_mmshare_version>
43012

> <i_f3d_flags>
0

> <s_epik_input>
W2NIXTFbY0hdW2NIXVtjSF1jKGMxMiluKFtDSDJdW0NIM10pYyg9TyluMltDSDJdW0NASF0oW09IXSlbQ0gyXU4zW0NIMl1bQ0BASF0oW0NIM10pT1tDQEBIXShbQ0gzXSlbQ0gyXTM=

> <s_epik_cmdline>
J2VwaWtfcHl0aG9uJywgJy1waCcsICc3LjAnLCAnLXRuJywgJzgnLCAnLW1hJywgJzIwMCcsICctbWV0YWxfYmluZGluZycsICctaW1hZScsICc8aW5maWxlLm1hZT4nLCAnLW9tYWUnLCAnPG91dGZpbGUubWFlPic=

> <r_epik_Ionization_Penalty>
0.214359

> <r_epik_Ionization_Penalty_Charging>
2.30976e-09

> <r_epik_Ionization_Penalty_Neutral>
0.214359

> <r_epik_State_Penalty>
0.204533

> <r_epik_Charging_Adjusted_Penalty>
0.204533

> <i_epik_Tot_Q>
0

> <i_epik_Tot_abs_Q>
0

> <r_epik_Metal_State_Penalty>
0.204533

> <b_epik_Metal_Only>
0

> <s_lp_Force_Field>
OPLS_2005

> <r_lp_Energy>
58.4553

> <b_lp_Chiralities_Consistent>
1

> <s_lp_Variant>
AV-unprocessed.smi:1570-1

> <Gold.Version>
5.8.1

> <Gold.Id.Protein>
6NUR|6NUR_protein|mol2

> <Gold.PLP.Fitness>
45.7896

> <Gold.PLP.PLP>
-48.4501

> <Gold.PLP.part.hbond>
0.0000

> <Gold.PLP.part.metal>
0.0000

> <Gold.PLP.part.buried>
-5.8391

> <Gold.PLP.part.nonpolar>
-43.7232

> <Gold.PLP.part.repulsive>
0.2755

> <Gold.PLP.ligand.clash>
0.0000

> <Gold.PLP.ligand.torsion>
1.3607

> <Gold.PLP.Chemscore.Hbond>
0.0000

> <Gold.PLP.Chemscore.CHOScore>
0.0000

> <Gold.PLP.Chemscore.Metal>
0.0000

> <Gold.PLP.Chemscore.Internal.Correction>
0.0609

> <Gold.Rescore>
     Score         DG    S(hbond)    S(metal)    S(lipo)     H(rot)  DE(clash)    DE(int)     intcor
     14.34     -15.83       0.00        0.00     133.48       2.06       0.14       1.34       ----

> <Gold.Chemscore.Fitness>
14.3430

> <Gold.Chemscore.DG>
-15.8307

> <Gold.Chemscore.ZeroCoef>
-5.4800

> <Gold.Chemscore.Hbond>
0.0000

> <Gold.Chemscore.Metal>
0.0000

> <Gold.Chemscore.Lipo>
133.4831

> <Gold.Chemscore.Internal_Hbond>
0.0000

> <Gold.Chemscore.DEClash>
0.1428

> <Gold.Chemscore.DEInternal>
1.3449

> <Gold.Chemscore.Rot>
2.0574

> <Gold.Chemscore.Internal.Correction>
   9.000000E+99

> <Gold.Chemscore.Hbond.Weighted>
-0.0000

> <Gold.Chemscore.Metal.Weighted>
-0.0000

> <Gold.Chemscore.Lipo.Weighted>
-15.6175

> <Gold.Chemscore.Internal_Hbond.Weighted>
0.0000

> <Gold.Chemscore.DEClash.Weighted>
0.1428

> <Gold.Chemscore.DEInternal.Weighted>
1.3449

> <Gold.Chemscore.Rot.Weighted>
5.2669

> <Gold.Chemscore.Internal.Correction.Weighted>
   9.000000E+99

> <Gold.Protein.RotatedTorsions>
[ 6907 6896 6895 6894 ] final  -24.26 input  -60.11 | X-H torsion
[ 7974 7965 7964 7962 ] final   24.73 input  175.53 | X-H torsion
[ 8008 7997 7996 7995 ] final   28.73 input   59.86 | X-H torsion
[ 10167 10162 10161 10158 ] final   20.56 input  -65.29 | X-H torsion
[ 10718 10713 10712 10709 ] final  -46.05 input   66.30 | X-H torsion
[ 10763 10752 10751 10750 ] final   91.05 input  -60.55 | X-H torsion
[ 11005 11000 10999 10996 ] final   25.69 input  -57.11 | X-H torsion

> <Gold.Protein.ActiveResidues>
 VAL166  LYS551  ARG553  GLY616  TRP617  ASP618  TYR619  PRO620  LYS621  CYS622 
 ASP623  PHE694  ASN695  SER759  ASP760  ASP761  ALA762  ILE779  LEU786  VAL792 
 PHE793  MET794  SER795  GLU796  ALA797  LYS798  CYS799  TRP800  GLU811  SER814 

> <Gold.Protein.RotatedAtoms>
  151.1920  135.0406  159.8836 H   0  0  0  0  0  0  0  0  0  0  0  0  # atno 6907 bound_to 6896
  152.5438  134.0945  159.8301 H   0  0  0  0  0  0  0  0  0  0  0  0  # atno 6908 bound_to 6896
  151.1075  133.5150  159.2639 H   0  0  0  0  0  0  0  0  0  0  0  0  # atno 6909 bound_to 6896
  146.1923  139.7564  142.8823 H   0  0  0  0  0  0  0  0  0  0  0  0  # atno 7974 bound_to 7965
  155.0633  140.3192  155.4653 H   0  0  0  0  0  0  0  0  0  0  0  0  # atno 8008 bound_to 7997
  156.2808  140.2125  156.5705 H   0  0  0  0  0  0  0  0  0  0  0  0  # atno 8009 bound_to 7997
  154.7114  140.0498  157.0541 H   0  0  0  0  0  0  0  0  0  0  0  0  # atno 8010 bound_to 7997
  140.5494  143.9536  150.6568 H   0  0  0  0  0  0  0  0  0  0  0  0  # atno 10167 bound_to 10162
  156.2221  130.4167  149.8979 H   0  0  0  0  0  0  0  0  0  0  0  0  # atno 10718 bound_to 10713
  153.2041  135.4411  155.0302 H   0  0  0  0  0  0  0  0  0  0  0  0  # atno 10763 bound_to 10752
  154.8163  135.3317  154.7168 H   0  0  0  0  0  0  0  0  0  0  0  0  # atno 10764 bound_to 10752
  153.7611  135.6991  153.4981 H   0  0  0  0  0  0  0  0  0  0  0  0  # atno 10765 bound_to 10752
  140.3451  134.2290  155.7685 H   0  0  0  0  0  0  0  0  0  0  0  0  # atno 11005 bound_to 11000
  145.3753  141.0349  143.3208 LP  0  0  0  0  0  0  0  0  0  0  0  0  # atno 17320 bound_to 7965
  144.8511  139.5320  143.6856 LP  0  0  0  0  0  0  0  0  0  0  0  0  # atno 17321 bound_to 7965
  140.2958  143.3294  152.1019 LP  0  0  0  0  0  0  0  0  0  0  0  0  # atno 17342 bound_to 10162
  139.5021  144.6727  151.6202 LP  0  0  0  0  0  0  0  0  0  0  0  0  # atno 17343 bound_to 10162
  156.6622  130.8786  151.3549 LP  0  0  0  0  0  0  0  0  0  0  0  0  # atno 17370 bound_to 10713
  157.7093  130.9421  150.1034 LP  0  0  0  0  0  0  0  0  0  0  0  0  # atno 17371 bound_to 10713
  141.2028  133.7929  157.0374 LP  0  0  0  0  0  0  0  0  0  0  0  0  # atno 17394 bound_to 11000
  140.0749  134.9681  157.1528 LP  0  0  0  0  0  0  0  0  0  0  0  0  # atno 17395 bound_to 11000

$$$$
