AV-unprocessed.smi:182|AV-procd|sdf|1455|dock10
  -GOLD-   2262019253D 1   1.00000     0.00000
 Structure written by MMmdl.
 56 59  0  0  0  0  0  0  0  0  1 V2000
  155.9329  139.6042  161.1644 N   0  0  0  0  0  0  0  0  0  0  0  0
  154.9265  140.0730  160.4231 C   0  0  0  0  0  0  0  0  0  0  0  0
  154.8626  139.8772  159.2108 O   0  0  0  0  0  0  0  0  0  0  0  0
  153.8497  140.8797  161.1556 C   0  0  0  0  0  0  0  0  0  0  0  0
  153.6679  142.3036  160.5919 C   0  0  0  0  0  0  0  0  0  0  0  0
  152.9939  142.3451  159.2060 C   0  0  2  0  0  0  0  0  0  0  0  0
  152.4379  143.7514  158.9077 C   0  0  0  0  0  0  0  0  0  0  0  0
  151.7413  143.7842  157.5396 C   0  0  0  0  0  0  0  0  0  0  0  0
  150.6488  142.7086  157.4562 C   0  0  0  0  0  0  0  0  0  0  0  0
  151.1951  141.3905  157.7744 N   0  0  0  0  0  0  0  0  0  0  0  0
  150.4145  140.3468  157.3926 C   0  0  0  0  0  0  0  0  0  0  0  0
  150.1362  139.3488  158.2744 N   0  0  0  0  0  0  0  0  0  0  0  0
  149.3649  138.3203  157.9117 C   0  0  0  0  0  0  0  0  0  0  0  0
  148.7738  138.0948  156.7373 N   0  0  0  0  0  0  0  0  0  0  0  0
  149.0490  139.0895  155.8458 C   0  0  0  0  0  0  0  0  0  0  0  0
  149.8589  140.2360  156.0859 C   0  0  0  0  0  0  0  0  0  0  0  0
  149.9372  141.0070  154.9319 N   0  0  0  0  0  0  0  0  0  0  0  0
  149.2095  140.3589  154.0640 C   0  0  0  0  0  0  0  0  0  0  0  0
  148.6126  139.2127  154.5382 N   0  0  0  0  0  0  0  0  0  0  0  0
  147.7986  138.2980  153.7929 C   0  0  0  0  0  0  0  0  0  0  0  0
  146.5865  138.7858  152.9955 C   0  0  0  0  0  0  0  0  0  0  0  0
  145.8641  137.4511  153.2896 C   0  0  0  0  0  0  0  0  0  0  0  0
  144.3730  137.5682  153.6467 C   0  0  0  0  0  0  0  0  0  0  0  0
  143.6022  137.9214  152.5163 O   0  0  0  0  0  0  0  0  0  0  0  0
  146.0447  136.3547  152.2206 C   0  0  0  0  0  0  0  0  0  0  0  0
  145.7851  136.8512  150.9231 O   0  0  0  0  0  0  0  0  0  0  0  0
  146.8218  137.3534  154.4972 C   0  0  0  0  0  0  0  0  0  0  0  0
  151.8685  141.2956  159.0719 C   0  0  0  0  0  0  0  0  0  0  0  0
  156.6684  139.0687  160.7263 H   0  0  0  0  0  0  0  0  0  0  0  0
  155.9585  139.7871  162.1571 H   0  0  0  0  0  0  0  0  0  0  0  0
  152.9026  140.3415  161.0958 H   0  0  0  0  0  0  0  0  0  0  0  0
  154.1236  140.9195  162.2097 H   0  0  0  0  0  0  0  0  0  0  0  0
  153.0904  142.9097  161.2918 H   0  0  0  0  0  0  0  0  0  0  0  0
  154.6482  142.7775  160.5194 H   0  0  0  0  0  0  0  0  0  0  0  0
  153.7538  142.1250  158.4545 H   0  0  0  0  0  0  0  0  0  0  0  0
  151.7294  144.0422  159.6847 H   0  0  0  0  0  0  0  0  0  0  0  0
  153.2415  144.4884  158.9276 H   0  0  0  0  0  0  0  0  0  0  0  0
  151.3080  144.7688  157.3630 H   0  0  0  0  0  0  0  0  0  0  0  0
  152.4750  143.6213  156.7492 H   0  0  0  0  0  0  0  0  0  0  0  0
  149.8505  142.9354  158.1641 H   0  0  0  0  0  0  0  0  0  0  0  0
  150.1994  142.7300  156.4642 H   0  0  0  0  0  0  0  0  0  0  0  0
  149.1948  137.5724  158.6720 H   0  0  0  0  0  0  0  0  0  0  0  0
  149.0841  140.7059  153.0484 H   0  0  0  0  0  0  0  0  0  0  0  0
  148.4828  137.7386  153.1527 H   0  0  0  0  0  0  0  0  0  0  0  0
  146.0993  139.6443  153.4618 H   0  0  0  0  0  0  0  0  0  0  0  0
  146.7921  138.9813  151.9428 H   0  0  0  0  0  0  0  0  0  0  0  0
  143.9900  136.6199  154.0249 H   0  0  0  0  0  0  0  0  0  0  0  0
  144.2038  138.3016  154.4353 H   0  0  0  0  0  0  0  0  0  0  0  0
  143.8208  138.8068  152.2687 H   0  0  0  0  0  0  0  0  0  0  0  0
  147.0611  135.9604  152.2275 H   0  0  0  0  0  0  0  0  0  0  0  0
  145.3903  135.5029  152.4075 H   0  0  0  0  0  0  0  0  0  0  0  0
  145.0958  137.4950  150.9805 H   0  0  0  0  0  0  0  0  0  0  0  0
  147.2175  136.3553  154.6885 H   0  0  0  0  0  0  0  0  0  0  0  0
  146.4053  137.7883  155.4080 H   0  0  0  0  0  0  0  0  0  0  0  0
  152.2863  140.2948  159.1854 H   0  0  0  0  0  0  0  0  0  0  0  0
  151.1336  141.4311  159.8670 H   0  0  0  0  0  0  0  0  0  0  0  0
  1  2  1  0  0  0  0
  1 29  1  0  0  0  0
  1 30  1  0  0  0  0
  2  3  2  0  0  0  0
  2  4  1  0  0  0  0
  4  5  1  0  0  0  0
  4 31  1  0  0  0  0
  4 32  1  0  0  0  0
  5  6  1  0  0  0  0
  5 33  1  0  0  0  0
  5 34  1  0  0  0  0
  6 28  1  0  0  0  0
  6  7  1  0  0  0  0
  6 35  1  0  0  0  0
  7  8  1  0  0  0  0
  7 36  1  0  0  0  0
  7 37  1  0  0  0  0
  8  9  1  0  0  0  0
  8 38  1  0  0  0  0
  8 39  1  0  0  0  0
  9 10  1  0  0  0  0
  9 40  1  0  0  0  0
  9 41  1  0  0  0  0
 10 11  1  0  0  0  0
 10 28  1  0  0  0  0
 11 16  1  0  0  0  0
 11 12  2  0  0  0  0
 12 13  1  0  0  0  0
 13 14  2  0  0  0  0
 13 42  1  0  0  0  0
 14 15  1  0  0  0  0
 15 19  1  0  0  0  0
 15 16  2  0  0  0  0
 16 17  1  0  0  0  0
 17 18  2  0  0  0  0
 18 19  1  0  0  0  0
 18 43  1  0  0  0  0
 19 20  1  0  0  0  0
 20 27  1  0  0  0  0
 20 21  1  0  0  0  0
 20 44  1  0  0  0  0
 21 22  1  0  0  0  0
 21 45  1  0  0  0  0
 21 46  1  0  0  0  0
 22 23  1  0  0  0  0
 22 25  1  0  0  0  0
 22 27  1  0  0  0  0
 23 24  1  0  0  0  0
 23 47  1  0  0  0  0
 23 48  1  0  0  0  0
 24 49  1  0  0  0  0
 25 26  1  0  0  0  0
 25 50  1  0  0  0  0
 25 51  1  0  0  0  0
 26 52  1  0  0  0  0
 27 53  1  0  0  0  0
 27 54  1  0  0  0  0
 28 55  1  0  0  0  0
 28 56  1  0  0  0  0
M  END
> <s_m_source_file>
AV-unprocessed.smi

> <i_m_source_file_index>
182

> <i_lp_mmshare_version>
43012

> <i_f3d_flags>
0

> <s_epik_input>
W05IMl1DKD1PKVtDSDJdW0NIMl1bQ0BASF0xW0NIMl1bQ0gyXVtDSDJdTihbQ0gyXTEpYyhuW2NIXW4yKWMoYzIzKW5bY0hdbjNbQ0hdKFtDSDJdNClbQ0gyXUM0KFtDSDJdW09IXSlbQ0gyXVtPSF0=

> <s_epik_cmdline>
J2VwaWtfcHl0aG9uJywgJy1waCcsICc3LjAnLCAnLXRuJywgJzgnLCAnLW1hJywgJzIwMCcsICctbWV0YWxfYmluZGluZycsICctaW1hZScsICc8aW5maWxlLm1hZT4nLCAnLW9tYWUnLCAnPG91dGZpbGUubWFlPic=

> <r_lp_tautomer_probability>
1

> <r_epik_Ionization_Penalty>
0.00186057

> <r_epik_Ionization_Penalty_Charging>
0

> <r_epik_Ionization_Penalty_Neutral>
0.00186057

> <r_epik_State_Penalty>
0.00110736

> <r_epik_Charging_Adjusted_Penalty>
0.00110736

> <i_epik_Tot_Q>
0

> <i_epik_Tot_abs_Q>
0

> <r_epik_Metal_State_Penalty>
-0

> <b_epik_Metal_Only>
0

> <s_lp_Force_Field>
OPLS_2005

> <r_lp_Energy>
36.2346

> <b_lp_Chiralities_Consistent>
1

> <s_lp_Variant>
AV-unprocessed.smi:182-1

> <Gold.Version>
5.8.1

> <Gold.Id.Protein>
6NUR|6NUR_protein|mol2

> <Gold.PLP.Fitness>
50.5393

> <Gold.PLP.PLP>
-40.2053

> <Gold.PLP.part.hbond>
-4.9727

> <Gold.PLP.part.metal>
0.0000

> <Gold.PLP.part.buried>
-0.6884

> <Gold.PLP.part.nonpolar>
-34.3678

> <Gold.PLP.part.repulsive>
0.1406

> <Gold.PLP.ligand.clash>
0.0000

> <Gold.PLP.ligand.torsion>
1.2690

> <Gold.PLP.Chemscore.Hbond>
2.9645

> <Gold.PLP.Chemscore.CHOScore>
1.0000

> <Gold.PLP.Chemscore.Metal>
0.0000

> <Gold.Chemscore.Hbonds>
donor molecule, donor type, donor heavy atom, donor atom, acceptor molecule, acceptor atom, score
      L1  H    24    49       P1 10175  1.00
      L1  H    26    52       P1 10171  0.82
      P1  H  7989  7998       L1    17  0.15
      P1  H  7997  8008       L1     3  1.00
      L1  C    18    43       P1  7957  1.00

> <Gold.PLP.Chemscore.Internal.Correction>
0.9785

> <Gold.Rescore>
     Score         DG    S(hbond)    S(metal)    S(lipo)     H(rot)  DE(clash)    DE(int)     intcor
     11.65     -13.36       2.65        0.00      96.65       4.79       0.14       1.58       ----

> <Gold.Chemscore.Fitness>
11.6494

> <Gold.Chemscore.DG>
-13.3638

> <Gold.Chemscore.ZeroCoef>
-5.4800

> <Gold.Chemscore.Hbond>
2.6479

> <Gold.Chemscore.Metal>
0.0000

> <Gold.Chemscore.Lipo>
96.6484

> <Gold.Chemscore.Internal_Hbond>
0.0000

> <Gold.Chemscore.DEClash>
0.1355

> <Gold.Chemscore.DEInternal>
1.5789

> <Gold.Chemscore.Rot>
4.7922

> <Gold.Chemscore.Internal.Correction>
   9.000000E+99

> <Gold.Chemscore.Hbonds>
donor molecule, donor type, donor heavy atom, donor atom, acceptor molecule, acceptor atom, score
      L1  H    24    49       P1 10175  0.95
      L1  H    26    52       P1 10171  0.78
      P1  H  7997  8008       L1     3  0.96

> <Gold.Chemscore.Hbond.Weighted>
-8.8439

> <Gold.Chemscore.Metal.Weighted>
-0.0000

> <Gold.Chemscore.Lipo.Weighted>
-11.3079

> <Gold.Chemscore.Internal_Hbond.Weighted>
0.0000

> <Gold.Chemscore.DEClash.Weighted>
0.1355

> <Gold.Chemscore.DEInternal.Weighted>
1.5789

> <Gold.Chemscore.Rot.Weighted>
12.2680

> <Gold.Chemscore.Internal.Correction.Weighted>
   9.000000E+99

> <Gold.Protein.RotatedTorsions>
[ 6907 6896 6895 6894 ] final  178.29 input  -60.11 | X-H torsion
[ 7974 7965 7964 7962 ] final   -3.54 input  175.53 | X-H torsion
[ 8008 7997 7996 7995 ] final -134.70 input   59.86 | X-H torsion
[ 10167 10162 10161 10158 ] final -144.65 input  -65.29 | X-H torsion
[ 10718 10713 10712 10709 ] final  -89.34 input   66.30 | X-H torsion
[ 10763 10752 10751 10750 ] final -104.52 input  -60.55 | X-H torsion
[ 11005 11000 10999 10996 ] final  -22.36 input  -57.11 | X-H torsion

> <Gold.Protein.ActiveResidues>
 VAL166  LYS551  ARG553  GLY616  TRP617  ASP618  TYR619  PRO620  LYS621  CYS622 
 ASP623  PHE694  ASN695  SER759  ASP760  ASP761  ALA762  ILE779  LEU786  VAL792 
 PHE793  MET794  SER795  GLU796  ALA797  LYS798  CYS799  TRP800  GLU811  SER814 

> <Gold.Protein.RotatedAtoms>
  151.6902  133.3311  159.3240 H   0  0  0  0  0  0  0  0  0  0  0  0  # atno 6907 bound_to 6896
  150.7782  134.6705  159.6398 H   0  0  0  0  0  0  0  0  0  0  0  0  # atno 6908 bound_to 6896
  152.3831  134.6562  160.0187 H   0  0  0  0  0  0  0  0  0  0  0  0  # atno 6909 bound_to 6896
  146.2388  140.1737  142.8332 H   0  0  0  0  0  0  0  0  0  0  0  0  # atno 7974 bound_to 7965
  155.3663  140.0485  157.3046 H   0  0  0  0  0  0  0  0  0  0  0  0  # atno 8008 bound_to 7997
  154.5152  140.2206  155.9042 H   0  0  0  0  0  0  0  0  0  0  0  0  # atno 8009 bound_to 7997
  156.1628  140.3112  155.8843 H   0  0  0  0  0  0  0  0  0  0  0  0  # atno 8010 bound_to 7997
  139.7879  143.8008  152.2646 H   0  0  0  0  0  0  0  0  0  0  0  0  # atno 10167 bound_to 10162
  155.9984  130.4868  150.5156 H   0  0  0  0  0  0  0  0  0  0  0  0  # atno 10718 bound_to 10713
  154.7884  135.4783  153.9997 H   0  0  0  0  0  0  0  0  0  0  0  0  # atno 10763 bound_to 10752
  153.1594  135.6806  153.8771 H   0  0  0  0  0  0  0  0  0  0  0  0  # atno 10764 bound_to 10752
  153.8390  135.3182  155.3403 H   0  0  0  0  0  0  0  0  0  0  0  0  # atno 10765 bound_to 10752
  140.8649  133.7761  156.0118 H   0  0  0  0  0  0  0  0  0  0  0  0  # atno 11005 bound_to 11000
  144.9990  140.8615  143.5293 LP  0  0  0  0  0  0  0  0  0  0  0  0  # atno 17320 bound_to 7965
  145.1754  139.2381  143.5320 LP  0  0  0  0  0  0  0  0  0  0  0  0  # atno 17321 bound_to 7965
  139.8090  144.7343  150.9722 LP  0  0  0  0  0  0  0  0  0  0  0  0  # atno 17342 bound_to 10162
  140.7820  143.4269  151.0754 LP  0  0  0  0  0  0  0  0  0  0  0  0  # atno 17343 bound_to 10162
  157.3123  131.0666  151.1992 LP  0  0  0  0  0  0  0  0  0  0  0  0  # atno 17370 bound_to 10713
  157.2933  130.6807  149.6125 LP  0  0  0  0  0  0  0  0  0  0  0  0  # atno 17371 bound_to 10713
  140.8640  134.2807  157.5222 LP  0  0  0  0  0  0  0  0  0  0  0  0  # atno 17394 bound_to 11000
  139.8709  134.9533  156.4140 LP  0  0  0  0  0  0  0  0  0  0  0  0  # atno 17395 bound_to 11000

$$$$
