AV-unprocessed.smi:2062|AV-procd|sdf|8396|dock5
  -GOLD-   2272011 83D 1   1.00000     0.00000
 Structure written by MMmdl.
 43 44  0  0  0  0  0  0  0  0  2 V2000
  148.0718  127.3481  151.0828 C   0  0  0  0  0  0  0  0  0  0  0  0
  147.8680  127.8938  152.5041 C   0  0  0  0  0  0  0  0  0  0  0  0
  147.6636  126.7378  153.4977 C   0  0  0  0  0  0  0  0  0  0  0  0
  146.6927  128.8937  152.5376 C   0  0  0  0  0  0  0  0  0  0  0  0
  147.1196  130.2990  152.3153 N   0  3  1  0  0  0  0  0  0  0  0  0
  146.0023  131.2132  151.9725 C   0  0  0  0  0  0  0  0  0  0  0  0
  146.5303  132.6348  151.7219 C   0  0  0  0  0  0  0  0  0  0  0  0
  147.2431  133.0858  152.8667 O   0  0  0  0  0  0  0  0  0  0  0  0
  148.3791  132.2762  153.1485 C   0  0  1  0  0  0  0  0  0  0  0  0
  149.1370  132.9241  154.3235 C   0  0  0  0  0  0  0  0  0  0  0  0
  149.4802  134.3207  154.0725 N   0  0  0  0  0  0  0  0  0  0  0  0
  150.3380  135.0428  154.8075 C   0  0  0  0  0  0  0  0  0  0  0  0
  150.9269  134.5951  155.7918 O   0  0  0  0  0  0  0  0  0  0  0  0
  150.4566  136.2948  154.3322 N   0  0  0  0  0  0  0  0  0  0  0  0
  151.2521  137.3537  154.8434 C   0  0  0  0  0  0  0  0  0  0  0  0
  152.3605  137.1802  155.5731 N   0  0  0  0  0  0  0  0  0  0  0  0
  152.9411  138.3960  155.9423 C   0  0  0  0  0  0  0  0  0  0  0  0
  152.2549  139.4932  155.4845 C   0  0  0  0  0  0  0  0  0  0  0  0
  150.8453  139.0406  154.5639 S   0  0  0  0  0  0  0  0  0  0  0  0
  147.9017  130.8403  153.4520 C   0  0  0  0  0  0  0  0  0  0  0  0
  147.1928  126.8033  150.7366 H   0  0  0  0  0  0  0  0  0  0  0  0
  148.9226  126.6672  151.0410 H   0  0  0  0  0  0  0  0  0  0  0  0
  148.2637  128.1547  150.3743 H   0  0  0  0  0  0  0  0  0  0  0  0
  148.7873  128.4119  152.7761 H   0  0  0  0  0  0  0  0  0  0  0  0
  146.7551  126.1780  153.2728 H   0  0  0  0  0  0  0  0  0  0  0  0
  147.5865  127.0998  154.5231 H   0  0  0  0  0  0  0  0  0  0  0  0
  148.5001  126.0394  153.4630 H   0  0  0  0  0  0  0  0  0  0  0  0
  145.9374  128.6270  151.7966 H   0  0  0  0  0  0  0  0  0  0  0  0
  146.2035  128.8113  153.5095 H   0  0  0  0  0  0  0  0  0  0  0  0
  145.4787  130.8627  151.0837 H   0  0  0  0  0  0  0  0  0  0  0  0
  145.2762  131.2267  152.7868 H   0  0  0  0  0  0  0  0  0  0  0  0
  147.1727  132.6641  150.8402 H   0  0  0  0  0  0  0  0  0  0  0  0
  145.7000  133.3154  151.5333 H   0  0  0  0  0  0  0  0  0  0  0  0
  149.0253  132.2670  152.2687 H   0  0  0  0  0  0  0  0  0  0  0  0
  148.5429  132.8560  155.2363 H   0  0  0  0  0  0  0  0  0  0  0  0
  150.0602  132.3773  154.5171 H   0  0  0  0  0  0  0  0  0  0  0  0
  149.0433  134.7622  153.2765 H   0  0  0  0  0  0  0  0  0  0  0  0
  149.9146  136.5183  153.5106 H   0  0  0  0  0  0  0  0  0  0  0  0
  153.8450  138.3882  156.5332 H   0  0  0  0  0  0  0  0  0  0  0  0
  152.4930  140.5360  155.6321 H   0  0  0  0  0  0  0  0  0  0  0  0
  147.2905  130.8270  154.3560 H   0  0  0  0  0  0  0  0  0  0  0  0
  148.7616  130.1950  153.6355 H   0  0  0  0  0  0  0  0  0  0  0  0
  147.7476  130.2868  151.5240 H   0  0  0  0  0  0  0  0  0  0  0  0
  1  2  1  0  0  0  0
  1 21  1  0  0  0  0
  1 22  1  0  0  0  0
  1 23  1  0  0  0  0
  2  3  1  0  0  0  0
  2  4  1  0  0  0  0
  2 24  1  0  0  0  0
  3 25  1  0  0  0  0
  3 26  1  0  0  0  0
  3 27  1  0  0  0  0
  4  5  1  0  0  0  0
  4 28  1  0  0  0  0
  4 29  1  0  0  0  0
  5 20  1  0  0  0  0
  5  6  1  0  0  0  0
  5 43  1  0  0  0  0
  6  7  1  0  0  0  0
  6 30  1  0  0  0  0
  6 31  1  0  0  0  0
  7  8  1  0  0  0  0
  7 32  1  0  0  0  0
  7 33  1  0  0  0  0
  8  9  1  0  0  0  0
  9 10  1  0  0  0  0
  9 20  1  0  0  0  0
  9 34  1  0  0  0  0
 10 11  1  0  0  0  0
 10 35  1  0  0  0  0
 10 36  1  0  0  0  0
 11 12  1  0  0  0  0
 11 37  1  0  0  0  0
 12 13  2  0  0  0  0
 12 14  1  0  0  0  0
 14 15  1  0  0  0  0
 14 38  1  0  0  0  0
 15 19  1  0  0  0  0
 15 16  2  0  0  0  0
 16 17  1  0  0  0  0
 17 18  2  0  0  0  0
 17 39  1  0  0  0  0
 18 19  1  0  0  0  0
 18 40  1  0  0  0  0
 20 41  1  0  0  0  0
 20 42  1  0  0  0  0
M  CHG  1   5   1
M  END
> <s_m_source_file>
AV-unprocessed.smi

> <i_m_source_file_index>
2062

> <i_lp_mmshare_version>
43012

> <i_f3d_flags>
0

> <s_epik_input>
W0NIM11bQ0hdKFtDSDNdKVtDSDJdTjFbQ0gyXVtDSDJdT1tDQEhdKFtDSDJdMSlbQ0gyXVtOSF1DKD1PKVtOSF1jMm5bY0hdW2NIXXMy

> <s_epik_cmdline>
J2VwaWtfcHl0aG9uJywgJy1waCcsICc3LjAnLCAnLXRuJywgJzgnLCAnLW1hJywgJzIwMCcsICctbWV0YWxfYmluZGluZycsICctaW1hZScsICc8aW5maWxlLm1hZT4nLCAnLW9tYWUnLCAnPG91dGZpbGUubWFlPic=

> <r_lp_tautomer_probability>
0.999

> <r_epik_Ionization_Penalty>
0.0985527

> <r_epik_Ionization_Penalty_Charging>
0.098413

> <r_epik_Ionization_Penalty_Neutral>
0.000139681

> <r_epik_State_Penalty>
0.0884988

> <r_epik_Charging_Adjusted_Penalty>
0.186912

> <i_epik_Tot_Q>
1

> <i_epik_Tot_abs_Q>
1

> <r_epik_Metal_State_Penalty>
0.141792

> <b_epik_Metal_Only>
0

> <s_lp_Force_Field>
OPLS_2005

> <r_lp_Energy>
15.1925

> <b_lp_Chiralities_Consistent>
1

> <s_lp_Variant>
AV-unprocessed.smi:2062-1

> <Gold.Version>
5.8.1

> <Gold.Id.Protein>
6NUR|6NUR_protein|mol2

> <Gold.PLP.Fitness>
49.6744

> <Gold.PLP.PLP>
-39.8831

> <Gold.PLP.part.hbond>
-5.0000

> <Gold.PLP.part.metal>
0.0000

> <Gold.PLP.part.buried>
-4.5984

> <Gold.PLP.part.nonpolar>
-31.7890

> <Gold.PLP.part.repulsive>
0.2934

> <Gold.PLP.ligand.clash>
0.0000

> <Gold.PLP.ligand.torsion>
0.7417

> <Gold.PLP.Chemscore.Hbond>
3.7320

> <Gold.PLP.Chemscore.CHOScore>
0.0000

> <Gold.PLP.Chemscore.Metal>
0.0000

> <Gold.Chemscore.Hbonds>
donor molecule, donor type, donor heavy atom, donor atom, acceptor molecule, acceptor atom, score
      L1  H     5    43       P1 10747  1.00
      L1  H    11    37       P1  7948  0.75
      L1  H    14    38       P1  7948  0.90
      P1  H 10752 10764       L1    16  0.78

> <Gold.PLP.Chemscore.Internal.Correction>
0.0787

> <Gold.Rescore>
     Score         DG    S(hbond)    S(metal)    S(lipo)     H(rot)  DE(clash)    DE(int)     intcor
     17.93     -19.93       2.71        0.00      84.50       1.76       0.10       1.90       ----

> <Gold.Chemscore.Fitness>
17.9303

> <Gold.Chemscore.DG>
-19.9280

> <Gold.Chemscore.ZeroCoef>
-5.4800

> <Gold.Chemscore.Hbond>
2.7147

> <Gold.Chemscore.Metal>
0.0000

> <Gold.Chemscore.Lipo>
84.4993

> <Gold.Chemscore.Internal_Hbond>
0.0000

> <Gold.Chemscore.DEClash>
0.0961

> <Gold.Chemscore.DEInternal>
1.9016

> <Gold.Chemscore.Rot>
1.7599

> <Gold.Chemscore.Internal.Correction>
   9.000000E+99

> <Gold.Chemscore.Hbonds>
donor molecule, donor type, donor heavy atom, donor atom, acceptor molecule, acceptor atom, score
      L1  H     5    43       P1 10747  1.00
      L1  H    11    37       P1  7948  0.09
      L1  H    14    38       P1  7948  0.18
      P1  H 10752 10764       L1    16  0.23

> <Gold.Chemscore.Hbond.Weighted>
-9.0670

> <Gold.Chemscore.Metal.Weighted>
-0.0000

> <Gold.Chemscore.Lipo.Weighted>
-9.8864

> <Gold.Chemscore.Internal_Hbond.Weighted>
0.0000

> <Gold.Chemscore.DEClash.Weighted>
0.0961

> <Gold.Chemscore.DEInternal.Weighted>
1.9016

> <Gold.Chemscore.Rot.Weighted>
4.5054

> <Gold.Chemscore.Internal.Correction.Weighted>
   9.000000E+99

> <Gold.Protein.RotatedTorsions>
[ 6907 6896 6895 6894 ] final  -72.28 input  -60.11 | X-H torsion
[ 7974 7965 7964 7962 ] final   23.64 input  175.53 | X-H torsion
[ 8008 7997 7996 7995 ] final  122.49 input   59.86 | X-H torsion
[ 10167 10162 10161 10158 ] final  -82.15 input  -65.29 | X-H torsion
[ 10718 10713 10712 10709 ] final  109.20 input   66.30 | X-H torsion
[ 10763 10752 10751 10750 ] final  -45.51 input  -60.55 | X-H torsion
[ 11005 11000 10999 10996 ] final -148.91 input  -57.11 | X-H torsion

> <Gold.Protein.ActiveResidues>
 VAL166  LYS551  ARG553  GLY616  TRP617  ASP618  TYR619  PRO620  LYS621  CYS622 
 ASP623  PHE694  ASN695  SER759  ASP760  ASP761  ALA762  ILE779  LEU786  VAL792 
 PHE793  MET794  SER795  GLU796  ALA797  LYS798  CYS799  TRP800  GLU811  SER814 

> <Gold.Protein.RotatedAtoms>
  150.7176  134.5186  159.5642 H   0  0  0  0  0  0  0  0  0  0  0  0  # atno 6907 bound_to 6896
  152.2746  134.7892  160.0417 H   0  0  0  0  0  0  0  0  0  0  0  0  # atno 6908 bound_to 6896
  151.8560  133.3413  159.3725 H   0  0  0  0  0  0  0  0  0  0  0  0  # atno 6909 bound_to 6896
  146.1975  139.7716  142.8786 H   0  0  0  0  0  0  0  0  0  0  0  0  # atno 7974 bound_to 7965
  156.2729  140.2784  156.1476 H   0  0  0  0  0  0  0  0  0  0  0  0  # atno 8008 bound_to 7997
  155.0888  140.0388  157.2680 H   0  0  0  0  0  0  0  0  0  0  0  0  # atno 8009 bound_to 7997
  154.6906  140.2628  155.6822 H   0  0  0  0  0  0  0  0  0  0  0  0  # atno 8010 bound_to 7997
  140.4346  143.2536  151.8711 H   0  0  0  0  0  0  0  0  0  0  0  0  # atno 10167 bound_to 10162
  157.6552  131.0909  150.6418 H   0  0  0  0  0  0  0  0  0  0  0  0  # atno 10718 bound_to 10713
  154.0298  135.6658  153.4779 H   0  0  0  0  0  0  0  0  0  0  0  0  # atno 10763 bound_to 10752
  153.0545  135.5064  154.7944 H   0  0  0  0  0  0  0  0  0  0  0  0  # atno 10764 bound_to 10752
  154.6885  135.3057  154.9478 H   0  0  0  0  0  0  0  0  0  0  0  0  # atno 10765 bound_to 10752
  140.7563  134.3349  157.5113 H   0  0  0  0  0  0  0  0  0  0  0  0  # atno 11005 bound_to 11000
  145.3595  141.0323  143.3293 LP  0  0  0  0  0  0  0  0  0  0  0  0  # atno 17320 bound_to 7965
  144.8611  139.5176  143.6812 LP  0  0  0  0  0  0  0  0  0  0  0  0  # atno 17321 bound_to 7965
  139.4786  144.5297  151.8684 LP  0  0  0  0  0  0  0  0  0  0  0  0  # atno 17342 bound_to 10162
  140.4388  144.2015  150.5890 LP  0  0  0  0  0  0  0  0  0  0  0  0  # atno 17343 bound_to 10162
  156.6725  130.4543  149.5653 LP  0  0  0  0  0  0  0  0  0  0  0  0  # atno 17370 bound_to 10713
  156.1987  130.6606  151.1143 LP  0  0  0  0  0  0  0  0  0  0  0  0  # atno 17371 bound_to 10713
  139.8778  134.9174  156.3177 LP  0  0  0  0  0  0  0  0  0  0  0  0  # atno 17394 bound_to 11000
  140.9704  133.7331  156.0527 LP  0  0  0  0  0  0  0  0  0  0  0  0  # atno 17395 bound_to 11000

$$$$
