AV-unprocessed.smi:1778|AV-procd|sdf|7179|dock3
  -GOLD-   22720 8413D 1   1.00000     0.00000
 Structure written by MMmdl.
 34 35  0  0  0  0  0  0  0  0  1 V2000
  146.8501  140.4776  157.1347 C   0  0  0  0  0  0  0  0  0  0  0  0
  146.3223  141.6004  156.2880 C   0  0  0  0  0  0  0  0  0  0  0  0
  145.5832  142.5406  156.8520 N   0  0  0  0  0  0  0  0  0  0  0  0
  145.2582  143.4383  155.8307 O   0  0  0  0  0  0  0  0  0  0  0  0
  145.8235  142.9988  154.6777 C   0  0  0  0  0  0  0  0  0  0  0  0
  145.6005  143.8300  153.4596 C   0  0  0  0  0  0  0  0  0  0  0  0
  146.5126  141.8377  154.8952 C   0  0  0  0  0  0  0  0  0  0  0  0
  147.2916  141.0144  153.9014 C   0  0  0  0  0  0  0  0  0  0  0  0
  148.7628  140.9673  154.3127 C   0  0  0  0  0  0  0  0  0  0  0  0
  149.3913  142.0127  154.4761 O   0  0  0  0  0  0  0  0  0  0  0  0
  149.2970  139.7479  154.4793 N   0  0  0  0  0  0  0  0  0  0  0  0
  150.6703  139.4812  154.8914 C   0  0  2  0  0  0  0  0  0  0  0  0
  151.4558  138.6972  153.8205 C   0  0  0  0  0  0  0  0  0  0  0  0
  152.7293  138.1321  154.4613 C   0  0  0  0  0  0  0  0  0  0  0  0
  152.3196  137.8209  156.2209 S   0  0  0  0  0  0  0  0  0  0  0  0
  152.1077  136.3808  156.4315 O   0  0  0  0  0  0  0  0  0  0  0  0
  153.2504  138.5814  157.0685 O   0  0  0  0  0  0  0  0  0  0  0  0
  150.6938  138.6649  156.1909 C   0  0  0  0  0  0  0  0  0  0  0  0
  147.7301  140.7942  157.6948 H   0  0  0  0  0  0  0  0  0  0  0  0
  147.1359  139.6194  156.5272 H   0  0  0  0  0  0  0  0  0  0  0  0
  146.1029  140.1365  157.8519 H   0  0  0  0  0  0  0  0  0  0  0  0
  146.5472  144.2129  153.0778 H   0  0  0  0  0  0  0  0  0  0  0  0
  144.9537  144.6806  153.6752 H   0  0  0  0  0  0  0  0  0  0  0  0
  145.1320  143.2412  152.6711 H   0  0  0  0  0  0  0  0  0  0  0  0
  146.9060  139.9971  153.8295 H   0  0  0  0  0  0  0  0  0  0  0  0
  147.2182  141.4333  152.8970 H   0  0  0  0  0  0  0  0  0  0  0  0
  148.7031  138.9467  154.3227 H   0  0  0  0  0  0  0  0  0  0  0  0
  151.1870  140.4247  155.0782 H   0  0  0  0  0  0  0  0  0  0  0  0
  150.8460  137.8649  153.4658 H   0  0  0  0  0  0  0  0  0  0  0  0
  151.6872  139.3145  152.9518 H   0  0  0  0  0  0  0  0  0  0  0  0
  153.0746  137.2142  153.9850 H   0  0  0  0  0  0  0  0  0  0  0  0
  153.5353  138.8657  154.4294 H   0  0  0  0  0  0  0  0  0  0  0  0
  150.5722  139.2795  157.0832 H   0  0  0  0  0  0  0  0  0  0  0  0
  149.9217  137.8945  156.1907 H   0  0  0  0  0  0  0  0  0  0  0  0
  1  2  1  0  0  0  0
  1 19  1  0  0  0  0
  1 20  1  0  0  0  0
  1 21  1  0  0  0  0
  2  7  1  0  0  0  0
  2  3  2  0  0  0  0
  3  4  1  0  0  0  0
  4  5  1  0  0  0  0
  5  6  1  0  0  0  0
  5  7  2  0  0  0  0
  6 22  1  0  0  0  0
  6 23  1  0  0  0  0
  6 24  1  0  0  0  0
  7  8  1  0  0  0  0
  8  9  1  0  0  0  0
  8 25  1  0  0  0  0
  8 26  1  0  0  0  0
  9 10  2  0  0  0  0
  9 11  1  0  0  0  0
 11 12  1  0  0  0  0
 11 27  1  0  0  0  0
 12 18  1  0  0  0  0
 12 13  1  0  0  0  0
 12 28  1  0  0  0  0
 13 14  1  0  0  0  0
 13 29  1  0  0  0  0
 13 30  1  0  0  0  0
 14 15  1  0  0  0  0
 14 31  1  0  0  0  0
 14 32  1  0  0  0  0
 15 16  2  0  0  0  0
 15 17  2  0  0  0  0
 15 18  1  0  0  0  0
 18 33  1  0  0  0  0
 18 34  1  0  0  0  0
M  END
> <s_m_source_file>
AV-unprocessed.smi

> <i_m_source_file_index>
1778

> <i_lp_mmshare_version>
43012

> <i_f3d_flags>
0

> <s_epik_input>
W0NIM11jMW5vYyhbQ0gzXSljMVtDSDJdQyg9TylbTkhdW0NAQEhdKFtDSDJdMilbQ0gyXVtDSDJdUzIoPU8pPU8=

> <s_epik_cmdline>
J2VwaWtfcHl0aG9uJywgJy1waCcsICc3LjAnLCAnLXRuJywgJzgnLCAnLW1hJywgJzIwMCcsICctbWV0YWxfYmluZGluZycsICctaW1hZScsICc8aW5maWxlLm1hZT4nLCAnLW9tYWUnLCAnPG91dGZpbGUubWFlPic=

> <r_lp_tautomer_probability>
1

> <r_epik_Ionization_Penalty>
1.26334e-07

> <r_epik_Ionization_Penalty_Charging>
0

> <r_epik_Ionization_Penalty_Neutral>
1.26334e-07

> <r_epik_State_Penalty>
-0

> <r_epik_Charging_Adjusted_Penalty>
0

> <i_epik_Tot_Q>
0

> <i_epik_Tot_abs_Q>
0

> <r_epik_Metal_State_Penalty>
-0

> <b_epik_Metal_Only>
0

> <s_lp_Force_Field>
OPLS_2005

> <r_lp_Energy>
-2.84912

> <b_lp_Chiralities_Consistent>
1

> <s_lp_Variant>
AV-unprocessed.smi:1778-1

> <Gold.Version>
5.8.1

> <Gold.Id.Protein>
6NUR|6NUR_protein|mol2

> <Gold.PLP.Fitness>
31.7720

> <Gold.PLP.PLP>
-24.9156

> <Gold.PLP.part.hbond>
-3.9131

> <Gold.PLP.part.metal>
0.0000

> <Gold.PLP.part.buried>
-0.8737

> <Gold.PLP.part.nonpolar>
-20.1589

> <Gold.PLP.part.repulsive>
1.0455

> <Gold.PLP.ligand.clash>
0.0000

> <Gold.PLP.ligand.torsion>
0.0215

> <Gold.PLP.Chemscore.Hbond>
2.2990

> <Gold.PLP.Chemscore.CHOScore>
0.0000

> <Gold.PLP.Chemscore.Metal>
0.0000

> <Gold.Chemscore.Hbonds>
donor molecule, donor type, donor heavy atom, donor atom, acceptor molecule, acceptor atom, score
      P1  H  7997  8010       L1    17  1.00
      P1  H  8011  8017       L1    10  0.17
      P1  H 10752 10764       L1    16  1.00

> <Gold.PLP.Chemscore.Internal.Correction>
0.0023

> <Gold.Rescore>
     Score         DG    S(hbond)    S(metal)    S(lipo)     H(rot)  DE(clash)    DE(int)     intcor
     13.54     -15.51       2.06        0.00      59.92       1.51       1.91       0.06       ----

> <Gold.Chemscore.Fitness>
13.5383

> <Gold.Chemscore.DG>
-15.5110

> <Gold.Chemscore.ZeroCoef>
-5.4800

> <Gold.Chemscore.Hbond>
2.0578

> <Gold.Chemscore.Metal>
0.0000

> <Gold.Chemscore.Lipo>
59.9243

> <Gold.Chemscore.Internal_Hbond>
0.0000

> <Gold.Chemscore.DEClash>
1.9137

> <Gold.Chemscore.DEInternal>
0.0589

> <Gold.Chemscore.Rot>
1.5051

> <Gold.Chemscore.Internal.Correction>
   9.000000E+99

> <Gold.Chemscore.Hbonds>
donor molecule, donor type, donor heavy atom, donor atom, acceptor molecule, acceptor atom, score
      P1  H  7997  8010       L1    17  0.97
      P1  H  8011  8017       L1    10  0.03
      P1  H 10752 10764       L1    16  0.55

> <Gold.Chemscore.Hbond.Weighted>
-6.8729

> <Gold.Chemscore.Metal.Weighted>
-0.0000

> <Gold.Chemscore.Lipo.Weighted>
-7.0111

> <Gold.Chemscore.Internal_Hbond.Weighted>
0.0000

> <Gold.Chemscore.DEClash.Weighted>
1.9137

> <Gold.Chemscore.DEInternal.Weighted>
0.0589

> <Gold.Chemscore.Rot.Weighted>
3.8531

> <Gold.Chemscore.Internal.Correction.Weighted>
   9.000000E+99

> <Gold.Protein.RotatedTorsions>
[ 6907 6896 6895 6894 ] final -160.53 input  -60.11 | X-H torsion
[ 7974 7965 7964 7962 ] final  -36.64 input  175.53 | X-H torsion
[ 8008 7997 7996 7995 ] final   62.65 input   59.86 | X-H torsion
[ 10167 10162 10161 10158 ] final -131.49 input  -65.29 | X-H torsion
[ 10718 10713 10712 10709 ] final   -3.93 input   66.30 | X-H torsion
[ 10763 10752 10751 10750 ] final  -27.37 input  -60.55 | X-H torsion
[ 11005 11000 10999 10996 ] final  -94.01 input  -57.11 | X-H torsion

> <Gold.Protein.ActiveResidues>
 VAL166  LYS551  ARG553  GLY616  TRP617  ASP618  TYR619  PRO620  LYS621  CYS622 
 ASP623  PHE694  ASN695  SER759  ASP760  ASP761  ALA762  ILE779  LEU786  VAL792 
 PHE793  MET794  SER795  GLU796  ALA797  LYS798  CYS799  TRP800  GLU811  SER814 

> <Gold.Protein.RotatedAtoms>
  151.3505  133.3927  159.2679 H   0  0  0  0  0  0  0  0  0  0  0  0  # atno 6907 bound_to 6896
  150.9805  134.9162  159.7852 H   0  0  0  0  0  0  0  0  0  0  0  0  # atno 6908 bound_to 6896
  152.5215  134.3469  159.9289 H   0  0  0  0  0  0  0  0  0  0  0  0  # atno 6909 bound_to 6896
  146.0644  140.6303  142.8982 H   0  0  0  0  0  0  0  0  0  0  0  0  # atno 7974 bound_to 7965
  155.6178  140.3495  155.4642 H   0  0  0  0  0  0  0  0  0  0  0  0  # atno 8008 bound_to 7997
  156.0103  140.1232  157.0484 H   0  0  0  0  0  0  0  0  0  0  0  0  # atno 8009 bound_to 7997
  154.4278  140.1083  156.5807 H   0  0  0  0  0  0  0  0  0  0  0  0  # atno 8010 bound_to 7997
  139.9184  143.6411  152.2559 H   0  0  0  0  0  0  0  0  0  0  0  0  # atno 10167 bound_to 10162
  156.7687  130.5293  149.5771 H   0  0  0  0  0  0  0  0  0  0  0  0  # atno 10718 bound_to 10713
  153.7311  135.6939  153.4989 H   0  0  0  0  0  0  0  0  0  0  0  0  # atno 10763 bound_to 10752
  153.2135  135.4394  155.0406 H   0  0  0  0  0  0  0  0  0  0  0  0  # atno 10764 bound_to 10752
  154.8253  135.3443  154.6840 H   0  0  0  0  0  0  0  0  0  0  0  0  # atno 10765 bound_to 10752
  141.1482  133.7926  157.0238 H   0  0  0  0  0  0  0  0  0  0  0  0  # atno 11005 bound_to 11000
  144.7193  140.4320  143.7020 LP  0  0  0  0  0  0  0  0  0  0  0  0  # atno 17320 bound_to 7965
  145.6504  139.1564  143.2865 LP  0  0  0  0  0  0  0  0  0  0  0  0  # atno 17321 bound_to 7965
  139.6882  144.7649  151.1485 LP  0  0  0  0  0  0  0  0  0  0  0  0  # atno 17342 bound_to 10162
  140.7668  143.5626  150.9082 LP  0  0  0  0  0  0  0  0  0  0  0  0  # atno 17343 bound_to 10162
  156.1292  130.6165  151.0308 LP  0  0  0  0  0  0  0  0  0  0  0  0  # atno 17370 bound_to 10713
  157.6701  131.0863  150.7633 LP  0  0  0  0  0  0  0  0  0  0  0  0  # atno 17371 bound_to 10713
  140.0798  134.9655  157.1605 LP  0  0  0  0  0  0  0  0  0  0  0  0  # atno 17394 bound_to 11000
  140.3593  134.2512  155.7189 LP  0  0  0  0  0  0  0  0  0  0  0  0  # atno 17395 bound_to 11000

$$$$
