AV-unprocessed.smi:110|AV-procd|sdf|1065|dock9
  -GOLD-   2262018143D 1   1.00000     0.00000
 Structure written by MMmdl.
 46 50  0  0  0  0  0  0  0  0  1 V2000
  149.5968  132.1295  158.8765 O   0  0  0  0  0  0  0  0  0  0  0  0
  148.9846  132.0829  157.6055 C   0  0  0  0  0  0  0  0  0  0  0  0
  149.0903  133.4523  156.9172 C   0  0  1  0  0  0  0  0  0  0  0  0
  150.3150  134.0861  157.2879 O   0  0  0  0  0  0  0  0  0  0  0  0
  150.7923  134.8835  156.2437 C   0  0  2  0  0  0  0  0  0  0  0  0
  150.8966  136.3077  156.7035 N   0  0  0  0  0  0  0  0  0  0  0  0
  150.3569  136.8490  157.8479 C   0  0  0  0  0  0  0  0  0  0  0  0
  150.5831  138.1214  158.0265 N   0  0  0  0  0  0  0  0  0  0  0  0
  151.3468  138.4922  156.9263 C   0  0  0  0  0  0  0  0  0  0  0  0
  151.9314  139.7134  156.4821 C   0  0  0  0  0  0  0  0  0  0  0  0
  151.8417  140.8949  157.1373 N   0  0  0  0  0  0  0  0  0  0  0  0
  150.8360  141.8759  156.7051 C   0  0  0  0  0  0  0  0  0  0  0  0
  150.6078  142.8548  157.8726 C   0  0  0  0  0  0  0  0  0  0  0  0
  151.6331  142.3771  158.8494 C   0  0  0  0  0  0  0  0  0  0  0  0
  151.9471  142.9402  160.0984 C   0  0  0  0  0  0  0  0  0  0  0  0
  152.9738  142.3410  160.8588 C   0  0  0  0  0  0  0  0  0  0  0  0
  153.6658  141.2123  160.3613 C   0  0  0  0  0  0  0  0  0  0  0  0
  153.3342  140.6646  159.1025 C   0  0  0  0  0  0  0  0  0  0  0  0
  152.2925  141.2549  158.3577 C   0  0  0  0  0  0  0  0  0  0  0  0
  152.5812  139.7028  155.2907 N   0  0  0  0  0  0  0  0  0  0  0  0
  152.6903  138.5676  154.5960 C   0  0  0  0  0  0  0  0  0  0  0  0
  152.2181  137.3578  154.8981 N   0  0  0  0  0  0  0  0  0  0  0  0
  151.5363  137.3621  156.0796 C   0  0  0  0  0  0  0  0  0  0  0  0
  149.8497  134.6959  155.0395 C   0  0  2  0  0  0  0  0  0  0  0  0
  148.9049  135.7439  154.8855 O   0  0  0  0  0  0  0  0  0  0  0  0
  149.2014  133.3651  155.3937 C   0  0  2  0  0  0  0  0  0  0  0  0
  147.9573  133.1598  154.7502 O   0  0  0  0  0  0  0  0  0  0  0  0
  148.2469  134.0917  157.1831 H   0  0  0  0  0  0  0  0  0  0  0  0
  151.8196  134.5901  156.0234 H   0  0  0  0  0  0  0  0  0  0  0  0
  150.4378  134.6292  154.1238 H   0  0  0  0  0  0  0  0  0  0  0  0
  149.8786  132.5540  155.1216 H   0  0  0  0  0  0  0  0  0  0  0  0
  148.9367  131.9729  159.5344 H   0  0  0  0  0  0  0  0  0  0  0  0
  149.4309  131.2963  156.9966 H   0  0  0  0  0  0  0  0  0  0  0  0
  147.9374  131.8200  157.7581 H   0  0  0  0  0  0  0  0  0  0  0  0
  149.7830  136.2652  158.5529 H   0  0  0  0  0  0  0  0  0  0  0  0
  151.2087  142.4080  155.8289 H   0  0  0  0  0  0  0  0  0  0  0  0
  149.9054  141.3812  156.4235 H   0  0  0  0  0  0  0  0  0  0  0  0
  150.7851  143.8917  157.5856 H   0  0  0  0  0  0  0  0  0  0  0  0
  149.6074  142.7606  158.2956 H   0  0  0  0  0  0  0  0  0  0  0  0
  151.4207  143.8096  160.4637 H   0  0  0  0  0  0  0  0  0  0  0  0
  153.2380  142.7516  161.8222 H   0  0  0  0  0  0  0  0  0  0  0  0
  154.4574  140.7679  160.9464 H   0  0  0  0  0  0  0  0  0  0  0  0
  153.8770  139.8121  158.7226 H   0  0  0  0  0  0  0  0  0  0  0  0
  153.2320  138.6384  153.6644 H   0  0  0  0  0  0  0  0  0  0  0  0
  148.6093  135.7515  153.9880 H   0  0  0  0  0  0  0  0  0  0  0  0
  147.9539  133.6458  153.9399 H   0  0  0  0  0  0  0  0  0  0  0  0
  1  2  1  0  0  0  0
  1 32  1  0  0  0  0
  2  3  1  0  0  0  0
  2 33  1  0  0  0  0
  2 34  1  0  0  0  0
  3 28  1  0  0  0  0
  3 26  1  0  0  0  0
  3  4  1  0  0  0  0
  4  5  1  0  0  0  0
  5 29  1  0  0  0  0
  5  6  1  0  0  0  0
  5 24  1  0  0  0  0
  6 23  1  0  0  0  0
  6  7  1  0  0  0  0
  7  8  2  0  0  0  0
  7 35  1  0  0  0  0
  8  9  1  0  0  0  0
  9 23  2  0  0  0  0
  9 10  1  0  0  0  0
 10 11  1  0  0  0  0
 10 20  2  0  0  0  0
 11 19  1  0  0  0  0
 11 12  1  0  0  0  0
 12 13  1  0  0  0  0
 12 36  1  0  0  0  0
 12 37  1  0  0  0  0
 13 14  1  0  0  0  0
 13 38  1  0  0  0  0
 13 39  1  0  0  0  0
 14 19  2  0  0  0  0
 14 15  1  0  0  0  0
 15 16  2  0  0  0  0
 15 40  1  0  0  0  0
 16 17  1  0  0  0  0
 16 41  1  0  0  0  0
 17 18  2  0  0  0  0
 17 42  1  0  0  0  0
 18 19  1  0  0  0  0
 18 43  1  0  0  0  0
 20 21  1  0  0  0  0
 21 22  2  0  0  0  0
 21 44  1  0  0  0  0
 22 23  1  0  0  0  0
 24 30  1  0  0  0  0
 24 25  1  0  0  0  0
 24 26  1  0  0  0  0
 25 45  1  0  0  0  0
 26 31  1  0  0  0  0
 26 27  1  0  0  0  0
 27 46  1  0  0  0  0
M  END
> <s_m_source_file>
AV-unprocessed.smi

> <i_m_source_file_index>
110

> <i_lp_mmshare_version>
43012

> <i_f3d_flags>
0

> <s_epik_input>
W09IXVtDSDJdW0NASF0xT1tDQEhdKFtDQEhdKFtPSF0pW0NAQEhdMVtPSF0pbihbY0hdbjIpYyhjMjMpbltjSF1uYzNOKFtDSDJdW0NIMl00KWMoYzQ1KVtjSF1bY0hdW2NIXVtjSF01

> <s_epik_cmdline>
J2VwaWtfcHl0aG9uJywgJy1waCcsICc3LjAnLCAnLXRuJywgJzgnLCAnLW1hJywgJzIwMCcsICctbWV0YWxfYmluZGluZycsICctaW1hZScsICc8aW5maWxlLm1hZT4nLCAnLW9tYWUnLCAnPG91dGZpbGUubWFlPic=

> <r_lp_tautomer_probability>
1

> <r_epik_Ionization_Penalty>
0.00068475

> <r_epik_Ionization_Penalty_Charging>
0

> <r_epik_Ionization_Penalty_Neutral>
0.00068475

> <r_epik_State_Penalty>
0.000417442

> <r_epik_Charging_Adjusted_Penalty>
0.000417442

> <i_epik_Tot_Q>
0

> <i_epik_Tot_abs_Q>
0

> <r_epik_Metal_State_Penalty>
-0

> <b_epik_Metal_Only>
0

> <s_epik_Chemistry_Notes>
This compound contains an acetal/aminal-like group ( X-CH(R)-Y where X, Y are N, S, or O) that may be acid/base labile, releasing an aldehyde.

> <s_lp_Force_Field>
OPLS_2005

> <r_lp_Energy>
69.6213

> <b_lp_Chiralities_Consistent>
1

> <s_lp_Variant>
AV-unprocessed.smi:110-3

> <Gold.Version>
5.8.1

> <Gold.Id.Protein>
6NUR|6NUR_protein|mol2

> <Gold.PLP.Fitness>
51.0307

> <Gold.PLP.PLP>
-43.4672

> <Gold.PLP.part.hbond>
-6.0000

> <Gold.PLP.part.metal>
0.0000

> <Gold.PLP.part.buried>
-6.0400

> <Gold.PLP.part.nonpolar>
-31.0999

> <Gold.PLP.part.repulsive>
0.0819

> <Gold.PLP.ligand.clash>
0.0000

> <Gold.PLP.ligand.torsion>
1.9463

> <Gold.PLP.Chemscore.Hbond>
3.7871

> <Gold.PLP.Chemscore.CHOScore>
0.0000

> <Gold.PLP.Chemscore.Metal>
0.0000

> <Gold.Chemscore.Hbonds>
donor molecule, donor type, donor heavy atom, donor atom, acceptor molecule, acceptor atom, score
      L1  H    25    45       P1  7948  0.60
      P1  H  6896  6907       L1     1  0.77
      P1  H  7989  7998       L1    20  0.12
      P1  H  7997  8008       L1    20  0.94
      P1  H 10752 10765       L1    22  0.77

> <Gold.PLP.Chemscore.Internal.Correction>
0.0946

> <Gold.Rescore>
     Score         DG    S(hbond)    S(metal)    S(lipo)     H(rot)  DE(clash)    DE(int)     intcor
     13.91     -15.85       2.41        0.00      93.88       3.38       0.07       1.87       ----

> <Gold.Chemscore.Fitness>
13.9109

> <Gold.Chemscore.DG>
-15.8459

> <Gold.Chemscore.ZeroCoef>
-5.4800

> <Gold.Chemscore.Hbond>
2.4082

> <Gold.Chemscore.Metal>
0.0000

> <Gold.Chemscore.Lipo>
93.8849

> <Gold.Chemscore.Internal_Hbond>
0.0000

> <Gold.Chemscore.DEClash>
0.0693

> <Gold.Chemscore.DEInternal>
1.8657

> <Gold.Chemscore.Rot>
3.3837

> <Gold.Chemscore.Internal.Correction>
   9.000000E+99

> <Gold.Chemscore.Hbonds>
donor molecule, donor type, donor heavy atom, donor atom, acceptor molecule, acceptor atom, score
      L1  H    25    45       P1  7948  0.57
      P1  H  6896  6907       L1     1  0.70
      P1  H  7989  7998       L1    20  0.01
      P1  H  7997  8008       L1    20  0.20
      P1  H 10752 10765       L1    22  0.66

> <Gold.Chemscore.Hbond.Weighted>
-8.0435

> <Gold.Chemscore.Metal.Weighted>
-0.0000

> <Gold.Chemscore.Lipo.Weighted>
-10.9845

> <Gold.Chemscore.Internal_Hbond.Weighted>
0.0000

> <Gold.Chemscore.DEClash.Weighted>
0.0693

> <Gold.Chemscore.DEInternal.Weighted>
1.8657

> <Gold.Chemscore.Rot.Weighted>
8.6622

> <Gold.Chemscore.Internal.Correction.Weighted>
   9.000000E+99

> <Gold.Protein.RotatedTorsions>
[ 6907 6896 6895 6894 ] final -150.81 input  -60.11 | X-H torsion
[ 7974 7965 7964 7962 ] final    6.38 input  175.53 | X-H torsion
[ 8008 7997 7996 7995 ] final   -9.10 input   59.86 | X-H torsion
[ 10167 10162 10161 10158 ] final  167.61 input  -65.29 | X-H torsion
[ 10718 10713 10712 10709 ] final  111.18 input   66.30 | X-H torsion
[ 10763 10752 10751 10750 ] final  172.43 input  -60.55 | X-H torsion
[ 11005 11000 10999 10996 ] final   96.33 input  -57.11 | X-H torsion

> <Gold.Protein.ActiveResidues>
 VAL166  LYS551  ARG553  GLY616  TRP617  ASP618  TYR619  PRO620  LYS621  CYS622 
 ASP623  PHE694  ASN695  SER759  ASP760  ASP761  ALA762  ILE779  LEU786  VAL792 
 PHE793  MET794  SER795  GLU796  ALA797  LYS798  CYS799  TRP800  GLU811  SER814 

> <Gold.Protein.RotatedAtoms>
  151.2039  133.4594  159.2596 H   0  0  0  0  0  0  0  0  0  0  0  0  # atno 6907 bound_to 6896
  151.1042  134.9990  159.8473 H   0  0  0  0  0  0  0  0  0  0  0  0  # atno 6908 bound_to 6896
  152.5446  134.1964  159.8747 H   0  0  0  0  0  0  0  0  0  0  0  0  # atno 6909 bound_to 6896
  146.2435  140.0242  142.8395 H   0  0  0  0  0  0  0  0  0  0  0  0  # atno 7974 bound_to 7965
  154.5679  140.2364  155.8236 H   0  0  0  0  0  0  0  0  0  0  0  0  # atno 8008 bound_to 7997
  156.2083  140.3033  155.9634 H   0  0  0  0  0  0  0  0  0  0  0  0  # atno 8009 bound_to 7997
  155.2767  140.0420  157.3002 H   0  0  0  0  0  0  0  0  0  0  0  0  # atno 8010 bound_to 7997
  139.4949  144.3903  151.9524 H   0  0  0  0  0  0  0  0  0  0  0  0  # atno 10167 bound_to 10162
  157.6457  131.0946  150.6711 H   0  0  0  0  0  0  0  0  0  0  0  0  # atno 10718 bound_to 10713
  154.4259  135.2759  155.1944 H   0  0  0  0  0  0  0  0  0  0  0  0  # atno 10763 bound_to 10752
  154.3870  135.6074  153.5826 H   0  0  0  0  0  0  0  0  0  0  0  0  # atno 10764 bound_to 10752
  152.9834  135.5894  154.4563 H   0  0  0  0  0  0  0  0  0  0  0  0  # atno 10765 bound_to 10752
  139.8782  134.8945  156.4143 H   0  0  0  0  0  0  0  0  0  0  0  0  # atno 11005 bound_to 11000
  145.1213  140.9464  143.4598 LP  0  0  0  0  0  0  0  0  0  0  0  0  # atno 17320 bound_to 7965
  145.0478  139.3206  143.5944 LP  0  0  0  0  0  0  0  0  0  0  0  0  # atno 17321 bound_to 7965
  140.3341  144.3281  150.5981 LP  0  0  0  0  0  0  0  0  0  0  0  0  # atno 17342 bound_to 10162
  140.5621  143.2191  151.7748 LP  0  0  0  0  0  0  0  0  0  0  0  0  # atno 17343 bound_to 10162
  156.7029  130.4628  149.5568 LP  0  0  0  0  0  0  0  0  0  0  0  0  # atno 17370 bound_to 10713
  156.1783  130.6482  151.0921 LP  0  0  0  0  0  0  0  0  0  0  0  0  # atno 17371 bound_to 10713
  140.9178  133.7666  155.9870 LP  0  0  0  0  0  0  0  0  0  0  0  0  # atno 17394 bound_to 11000
  140.8474  134.2995  157.5289 LP  0  0  0  0  0  0  0  0  0  0  0  0  # atno 17395 bound_to 11000

$$$$
