AV-unprocessed.smi:198|AV-procd|sdf|1558|dock5
  -GOLD-   2262019433D 1   1.00000     0.00000
 Structure written by MMmdl.
 59 63  0  0  0  0  0  0  0  0  2 V2000
  149.4800  140.9787  155.4502 C   0  0  0  0  0  0  0  0  0  0  0  0
  148.2983  141.8694  155.5224 N   0  3  1  0  0  0  0  0  0  0  0  0
  147.4301  141.8108  154.3195 C   0  0  0  0  0  0  0  0  0  0  0  0
  146.5914  140.5222  154.2792 C   0  0  0  0  0  0  0  0  0  0  0  0
  145.7604  140.3604  155.5719 C   0  0  2  0  0  0  0  0  0  0  0  0
  146.6695  140.4502  156.8204 C   0  0  2  0  0  0  0  0  0  0  0  0
  145.8095  140.3879  158.0976 C   0  0  0  0  0  0  0  0  0  0  0  0
  144.9265  139.1305  158.1068 C   0  0  0  0  0  0  0  0  0  0  0  0
  144.0940  139.0192  156.8131 C   0  0  0  0  0  0  0  0  0  0  0  0
  144.9171  139.1572  155.6105 N   0  0  0  0  0  0  0  0  0  0  0  0
  145.4220  138.0060  155.1037 C   0  0  0  0  0  0  0  0  0  0  0  0
  146.4384  137.3660  155.7374 N   0  0  0  0  0  0  0  0  0  0  0  0
  146.9449  136.2409  155.2238 C   0  0  0  0  0  0  0  0  0  0  0  0
  146.5944  135.6020  154.1052 N   0  0  0  0  0  0  0  0  0  0  0  0
  145.5747  136.2445  153.4663 C   0  0  0  0  0  0  0  0  0  0  0  0
  144.9336  137.4390  153.8964 C   0  0  0  0  0  0  0  0  0  0  0  0
  143.9385  137.7960  152.9965 N   0  0  0  0  0  0  0  0  0  0  0  0
  143.9901  136.8659  152.0820 C   0  0  0  0  0  0  0  0  0  0  0  0
  144.9508  135.8971  152.2812 N   0  0  0  0  0  0  0  0  0  0  0  0
  145.2401  134.7581  151.4577 C   0  0  0  0  0  0  0  0  0  0  0  0
  144.4572  134.4347  150.1817 C   0  0  0  0  0  0  0  0  0  0  0  0
  144.6852  132.9270  150.4421 C   0  0  0  0  0  0  0  0  0  0  0  0
  143.4819  132.0025  150.1871 C   0  0  0  0  0  0  0  0  0  0  0  0
  143.0685  132.0314  148.8361 O   0  0  0  0  0  0  0  0  0  0  0  0
  145.9473  132.3006  149.8122 C   0  0  0  0  0  0  0  0  0  0  0  0
  146.3022  131.0838  150.4358 O   0  0  0  0  0  0  0  0  0  0  0  0
  144.8649  133.3500  151.9188 C   0  0  0  0  0  0  0  0  0  0  0  0
  147.5242  141.7361  156.7832 C   0  0  0  0  0  0  0  0  0  0  0  0
  149.1993  139.9255  155.4397 H   0  0  0  0  0  0  0  0  0  0  0  0
  150.1352  141.1450  156.3057 H   0  0  0  0  0  0  0  0  0  0  0  0
  150.0577  141.1835  154.5484 H   0  0  0  0  0  0  0  0  0  0  0  0
  146.7667  142.6766  154.3310 H   0  0  0  0  0  0  0  0  0  0  0  0
  148.0358  141.9006  153.4170 H   0  0  0  0  0  0  0  0  0  0  0  0
  145.9299  140.5499  153.4132 H   0  0  0  0  0  0  0  0  0  0  0  0
  147.2551  139.6695  154.1332 H   0  0  0  0  0  0  0  0  0  0  0  0
  145.0690  141.2039  155.6073 H   0  0  0  0  0  0  0  0  0  0  0  0
  147.3420  139.5917  156.8280 H   0  0  0  0  0  0  0  0  0  0  0  0
  146.4461  140.3990  158.9829 H   0  0  0  0  0  0  0  0  0  0  0  0
  145.1755  141.2734  158.1600 H   0  0  0  0  0  0  0  0  0  0  0  0
  145.5541  138.2482  158.2296 H   0  0  0  0  0  0  0  0  0  0  0  0
  144.2625  139.1483  158.9713 H   0  0  0  0  0  0  0  0  0  0  0  0
  143.5522  138.0723  156.7942 H   0  0  0  0  0  0  0  0  0  0  0  0
  143.3377  139.8044  156.7957 H   0  0  0  0  0  0  0  0  0  0  0  0
  147.7480  135.7897  155.7879 H   0  0  0  0  0  0  0  0  0  0  0  0
  143.3216  136.8718  151.2339 H   0  0  0  0  0  0  0  0  0  0  0  0
  146.3068  134.8165  151.2325 H   0  0  0  0  0  0  0  0  0  0  0  0
  143.4016  134.7045  150.2371 H   0  0  0  0  0  0  0  0  0  0  0  0
  144.9086  134.8205  149.2673 H   0  0  0  0  0  0  0  0  0  0  0  0
  143.7073  130.9728  150.4662 H   0  0  0  0  0  0  0  0  0  0  0  0
  142.6282  132.3039  150.7947 H   0  0  0  0  0  0  0  0  0  0  0  0
  142.1278  132.1203  148.8113 H   0  0  0  0  0  0  0  0  0  0  0  0
  145.8004  132.0941  148.7521 H   0  0  0  0  0  0  0  0  0  0  0  0
  146.7958  132.9829  149.8705 H   0  0  0  0  0  0  0  0  0  0  0  0
  147.2411  130.9862  150.3836 H   0  0  0  0  0  0  0  0  0  0  0  0
  145.6561  132.8267  152.4570 H   0  0  0  0  0  0  0  0  0  0  0  0
  143.9339  133.3373  152.4886 H   0  0  0  0  0  0  0  0  0  0  0  0
  148.2025  141.7702  157.6367 H   0  0  0  0  0  0  0  0  0  0  0  0
  146.8758  142.6087  156.8738 H   0  0  0  0  0  0  0  0  0  0  0  0
  148.6814  142.8039  155.5355 H   0  0  0  0  0  0  0  0  0  0  0  0
  1  2  1  0  0  0  0
  1 29  1  0  0  0  0
  1 30  1  0  0  0  0
  1 31  1  0  0  0  0
  2 28  1  0  0  0  0
  2  3  1  0  0  0  0
  2 59  1  0  0  0  0
  3  4  1  0  0  0  0
  3 32  1  0  0  0  0
  3 33  1  0  0  0  0
  4  5  1  0  0  0  0
  4 34  1  0  0  0  0
  4 35  1  0  0  0  0
  5 10  1  0  0  0  0
  5  6  1  0  0  0  0
  5 36  1  0  0  0  0
  6  7  1  0  0  0  0
  6 28  1  0  0  0  0
  6 37  1  0  0  0  0
  7  8  1  0  0  0  0
  7 38  1  0  0  0  0
  7 39  1  0  0  0  0
  8  9  1  0  0  0  0
  8 40  1  0  0  0  0
  8 41  1  0  0  0  0
  9 10  1  0  0  0  0
  9 42  1  0  0  0  0
  9 43  1  0  0  0  0
 10 11  1  0  0  0  0
 11 16  1  0  0  0  0
 11 12  2  0  0  0  0
 12 13  1  0  0  0  0
 13 14  2  0  0  0  0
 13 44  1  0  0  0  0
 14 15  1  0  0  0  0
 15 19  1  0  0  0  0
 15 16  2  0  0  0  0
 16 17  1  0  0  0  0
 17 18  2  0  0  0  0
 18 19  1  0  0  0  0
 18 45  1  0  0  0  0
 19 20  1  0  0  0  0
 20 27  1  0  0  0  0
 20 21  1  0  0  0  0
 20 46  1  0  0  0  0
 21 22  1  0  0  0  0
 21 47  1  0  0  0  0
 21 48  1  0  0  0  0
 22 23  1  0  0  0  0
 22 25  1  0  0  0  0
 22 27  1  0  0  0  0
 23 24  1  0  0  0  0
 23 49  1  0  0  0  0
 23 50  1  0  0  0  0
 24 51  1  0  0  0  0
 25 26  1  0  0  0  0
 25 52  1  0  0  0  0
 25 53  1  0  0  0  0
 26 54  1  0  0  0  0
 27 55  1  0  0  0  0
 27 56  1  0  0  0  0
 28 57  1  0  0  0  0
 28 58  1  0  0  0  0
M  CHG  1   2   1
M  END
> <s_m_source_file>
AV-unprocessed.smi

> <i_m_source_file_index>
198

> <i_lp_mmshare_version>
43012

> <i_f3d_flags>
0

> <s_epik_input>
W0NIMl0xW0NIMl1OKFtDSDNdKVtDSDJdW0NAQEhdKFtDQEhdMTIpW0NIMl1bQ0gyXVtDSDJdTjJjKG5bY0hdbjMpYyhjMzQpbltjSF1uNFtDSF0oW0NIMl01KVtDSDJdQzUoW0NIMl1bT0hdKVtDSDJdW09IXQ==

> <s_epik_cmdline>
J2VwaWtfcHl0aG9uJywgJy1waCcsICc3LjAnLCAnLXRuJywgJzgnLCAnLW1hJywgJzIwMCcsICctbWV0YWxfYmluZGluZycsICctaW1hZScsICc8aW5maWxlLm1hZT4nLCAnLW9tYWUnLCAnPG91dGZpbGUubWFlPic=

> <r_lp_tautomer_probability>
1

> <r_epik_Ionization_Penalty>
0.00239938

> <r_epik_Ionization_Penalty_Charging>
0.00138697

> <r_epik_Ionization_Penalty_Neutral>
0.00101241

> <r_epik_State_Penalty>
-0

> <r_epik_Charging_Adjusted_Penalty>
0.00138697

> <i_epik_Tot_Q>
1

> <i_epik_Tot_abs_Q>
1

> <r_epik_Metal_State_Penalty>
-0

> <b_epik_Metal_Only>
0

> <s_lp_Force_Field>
OPLS_2005

> <r_lp_Energy>
58.8774

> <b_lp_Chiralities_Consistent>
1

> <s_lp_Variant>
AV-unprocessed.smi:198-7

> <Gold.Version>
5.8.1

> <Gold.Id.Protein>
6NUR|6NUR_protein|mol2

> <Gold.PLP.Fitness>
47.4150

> <Gold.PLP.PLP>
-32.5516

> <Gold.PLP.part.hbond>
-4.4228

> <Gold.PLP.part.metal>
0.0000

> <Gold.PLP.part.buried>
-5.8220

> <Gold.PLP.part.nonpolar>
-26.3640

> <Gold.PLP.part.repulsive>
2.9110

> <Gold.PLP.ligand.clash>
0.0000

> <Gold.PLP.ligand.torsion>
0.5987

> <Gold.PLP.Chemscore.Hbond>
4.5234

> <Gold.PLP.Chemscore.CHOScore>
0.5254

> <Gold.PLP.Chemscore.Metal>
0.0000

> <Gold.Chemscore.Hbonds>
donor molecule, donor type, donor heavy atom, donor atom, acceptor molecule, acceptor atom, score
      L1  H     2    59       P1  8028  2.00
      L1  H    24    51       P1 10952  0.12
      L1  H    26    54       P1 10747  1.00
      P1  H 10785 10796       L1    24  0.52
      L1  C    18    45       P1 10171  0.62

> <Gold.PLP.Chemscore.Internal.Correction>
0.9144

> <Gold.Rescore>
     Score         DG    S(hbond)    S(metal)    S(lipo)     H(rot)  DE(clash)    DE(int)     intcor
     13.62     -15.70       3.00        0.00      69.16       3.08       1.43       0.65       ----

> <Gold.Chemscore.Fitness>
13.6215

> <Gold.Chemscore.DG>
-15.6998

> <Gold.Chemscore.ZeroCoef>
-5.4800

> <Gold.Chemscore.Hbond>
2.9964

> <Gold.Chemscore.Metal>
0.0000

> <Gold.Chemscore.Lipo>
69.1606

> <Gold.Chemscore.Internal_Hbond>
0.0000

> <Gold.Chemscore.DEClash>
1.4281

> <Gold.Chemscore.DEInternal>
0.6502

> <Gold.Chemscore.Rot>
3.0781

> <Gold.Chemscore.Internal.Correction>
   9.000000E+99

> <Gold.Chemscore.Hbonds>
donor molecule, donor type, donor heavy atom, donor atom, acceptor molecule, acceptor atom, score
      L1  H     2    59       P1  8028  0.99
      L1  H    24    51       P1 10952  0.12
      L1  H    26    54       P1 10747  1.00
      P1  H 10785 10796       L1    24  0.01

> <Gold.Chemscore.Hbond.Weighted>
-10.0080

> <Gold.Chemscore.Metal.Weighted>
-0.0000

> <Gold.Chemscore.Lipo.Weighted>
-8.0918

> <Gold.Chemscore.Internal_Hbond.Weighted>
0.0000

> <Gold.Chemscore.DEClash.Weighted>
1.4281

> <Gold.Chemscore.DEInternal.Weighted>
0.6502

> <Gold.Chemscore.Rot.Weighted>
7.8800

> <Gold.Chemscore.Internal.Correction.Weighted>
   9.000000E+99

> <Gold.Protein.RotatedTorsions>
[ 6907 6896 6895 6894 ] final  119.70 input  -60.11 | X-H torsion
[ 7974 7965 7964 7962 ] final  -29.01 input  175.53 | X-H torsion
[ 8008 7997 7996 7995 ] final   93.79 input   59.86 | X-H torsion
[ 10167 10162 10161 10158 ] final  -42.36 input  -65.29 | X-H torsion
[ 10718 10713 10712 10709 ] final  -42.85 input   66.30 | X-H torsion
[ 10763 10752 10751 10750 ] final  136.83 input  -60.55 | X-H torsion
[ 11005 11000 10999 10996 ] final  152.38 input  -57.11 | X-H torsion

> <Gold.Protein.ActiveResidues>
 VAL166  LYS551  ARG553  GLY616  TRP617  ASP618  TYR619  PRO620  LYS621  CYS622 
 ASP623  PHE694  ASN695  SER759  ASP760  ASP761  ALA762  ILE779  LEU786  VAL792 
 PHE793  MET794  SER795  GLU796  ALA797  LYS798  CYS799  TRP800  GLU811  SER814 

> <Gold.Protein.RotatedAtoms>
  152.4452  133.7524  159.6700 H   0  0  0  0  0  0  0  0  0  0  0  0  # atno 6907 bound_to 6896
  150.8351  133.8016  159.3089 H   0  0  0  0  0  0  0  0  0  0  0  0  # atno 6908 bound_to 6896
  151.5658  135.1066  160.0035 H   0  0  0  0  0  0  0  0  0  0  0  0  # atno 6909 bound_to 6896
  146.1247  140.5356  142.8719 H   0  0  0  0  0  0  0  0  0  0  0  0  # atno 7974 bound_to 7965
  156.0507  140.3308  155.7348 H   0  0  0  0  0  0  0  0  0  0  0  0  # atno 8008 bound_to 7997
  155.5605  140.0618  157.2847 H   0  0  0  0  0  0  0  0  0  0  0  0  # atno 8009 bound_to 7997
  154.4434  140.1878  156.0766 H   0  0  0  0  0  0  0  0  0  0  0  0  # atno 8010 bound_to 7997
  140.6972  143.3042  151.3198 H   0  0  0  0  0  0  0  0  0  0  0  0  # atno 10167 bound_to 10162
  156.2552  130.4192  149.8604 H   0  0  0  0  0  0  0  0  0  0  0  0  # atno 10718 bound_to 10713
  153.8631  135.3065  155.3438 H   0  0  0  0  0  0  0  0  0  0  0  0  # atno 10763 bound_to 10752
  154.7840  135.4820  153.9908 H   0  0  0  0  0  0  0  0  0  0  0  0  # atno 10764 bound_to 10752
  153.1450  135.6832  153.9063 H   0  0  0  0  0  0  0  0  0  0  0  0  # atno 10765 bound_to 10752
  140.1302  134.8807  157.2193 H   0  0  0  0  0  0  0  0  0  0  0  0  # atno 11005 bound_to 11000
  144.7631  140.5468  143.6722 LP  0  0  0  0  0  0  0  0  0  0  0  0  # atno 17320 bound_to 7965
  145.5390  139.1475  143.3457 LP  0  0  0  0  0  0  0  0  0  0  0  0  # atno 17321 bound_to 7965
  139.6442  144.0483  152.2578 LP  0  0  0  0  0  0  0  0  0  0  0  0  # atno 17342 bound_to 10162
  139.9998  144.6301  150.7740 LP  0  0  0  0  0  0  0  0  0  0  0  0  # atno 17343 bound_to 10162
  156.6138  130.8598  151.3460 LP  0  0  0  0  0  0  0  0  0  0  0  0  # atno 17370 bound_to 10713
  157.7230  130.9584  150.1516 LP  0  0  0  0  0  0  0  0  0  0  0  0  # atno 17371 bound_to 10713
  140.2852  134.3304  155.7331 LP  0  0  0  0  0  0  0  0  0  0  0  0  # atno 17394 bound_to 11000
  141.2169  133.7502  156.9422 LP  0  0  0  0  0  0  0  0  0  0  0  0  # atno 17395 bound_to 11000

$$$$
