AV-unprocessed.smi:2181|AV-procd|sdf|8861|dock5
  -GOLD-   2272012 53D 1   1.00000     0.00000
 Structure written by MMmdl.
 38 39  0  0  0  0  0  0  0  0  1 V2000
  147.6944  136.7661  155.3410 C   0  0  0  0  0  0  0  0  0  0  0  0
  149.1907  136.8939  155.3097 C   0  0  0  0  0  0  0  0  0  0  0  0
  149.9343  135.8003  155.3100 N   0  0  0  0  0  0  0  0  0  0  0  0
  151.2613  136.2386  155.2646 O   0  0  0  0  0  0  0  0  0  0  0  0
  151.2645  137.5955  155.2370 C   0  0  0  0  0  0  0  0  0  0  0  0
  152.5967  138.2633  155.1771 C   0  0  0  0  0  0  0  0  0  0  0  0
  149.9846  138.0769  155.2645 C   0  0  0  0  0  0  0  0  0  0  0  0
  149.5239  139.5117  155.2433 C   0  0  0  0  0  0  0  0  0  0  0  0
  150.5193  140.3796  156.0121 C   0  0  0  0  0  0  0  0  0  0  0  0
  151.5147  140.8270  155.4430 O   0  0  0  0  0  0  0  0  0  0  0  0
  150.2328  140.6125  157.3023 N   0  0  0  0  0  0  0  0  0  0  0  0
  151.0103  141.4465  158.2173 C   0  0  2  0  0  0  0  0  0  0  0  0
  151.2711  142.8439  157.5976 C   0  0  0  0  0  0  0  0  0  0  0  0
  152.5142  143.5958  158.1176 C   0  0  0  0  0  0  0  0  0  0  0  0
  152.5999  143.7595  159.6489 C   0  0  0  0  0  0  0  0  0  0  0  0
  152.5137  142.4652  160.4929 C   0  0  0  0  0  0  0  0  0  0  0  0
  152.9148  141.2521  159.7811 N   0  0  0  0  0  0  0  0  0  0  0  0
  152.2598  140.7105  158.7397 C   0  0  0  0  0  0  0  0  0  0  0  0
  152.6520  139.6747  158.2031 O   0  0  0  0  0  0  0  0  0  0  0  0
  147.2923  136.6744  154.3319 H   0  0  0  0  0  0  0  0  0  0  0  0
  147.2313  137.6375  155.8035 H   0  0  0  0  0  0  0  0  0  0  0  0
  147.3798  135.8882  155.9060 H   0  0  0  0  0  0  0  0  0  0  0  0
  152.7625  138.7006  154.1923 H   0  0  0  0  0  0  0  0  0  0  0  0
  153.4019  137.5548  155.3735 H   0  0  0  0  0  0  0  0  0  0  0  0
  152.6626  139.0612  155.9168 H   0  0  0  0  0  0  0  0  0  0  0  0
  149.4237  139.8843  154.2233 H   0  0  0  0  0  0  0  0  0  0  0  0
  148.5395  139.6204  155.6997 H   0  0  0  0  0  0  0  0  0  0  0  0
  149.3887  140.2055  157.6784 H   0  0  0  0  0  0  0  0  0  0  0  0
  150.3801  141.5917  159.0959 H   0  0  0  0  0  0  0  0  0  0  0  0
  151.3792  142.7449  156.5166 H   0  0  0  0  0  0  0  0  0  0  0  0
  150.3874  143.4656  157.7472 H   0  0  0  0  0  0  0  0  0  0  0  0
  153.4155  143.0973  157.7581 H   0  0  0  0  0  0  0  0  0  0  0  0
  152.5395  144.5851  157.6595 H   0  0  0  0  0  0  0  0  0  0  0  0
  153.5470  144.2519  159.8724 H   0  0  0  0  0  0  0  0  0  0  0  0
  151.8270  144.4514  159.9856 H   0  0  0  0  0  0  0  0  0  0  0  0
  153.1418  142.5666  161.3783 H   0  0  0  0  0  0  0  0  0  0  0  0
  151.5008  142.3352  160.8751 H   0  0  0  0  0  0  0  0  0  0  0  0
  153.7426  140.7794  160.1147 H   0  0  0  0  0  0  0  0  0  0  0  0
  1  2  1  0  0  0  0
  1 20  1  0  0  0  0
  1 21  1  0  0  0  0
  1 22  1  0  0  0  0
  2  7  1  0  0  0  0
  2  3  2  0  0  0  0
  3  4  1  0  0  0  0
  4  5  1  0  0  0  0
  5  6  1  0  0  0  0
  5  7  2  0  0  0  0
  6 23  1  0  0  0  0
  6 24  1  0  0  0  0
  6 25  1  0  0  0  0
  7  8  1  0  0  0  0
  8  9  1  0  0  0  0
  8 26  1  0  0  0  0
  8 27  1  0  0  0  0
  9 10  2  0  0  0  0
  9 11  1  0  0  0  0
 11 12  1  0  0  0  0
 11 28  1  0  0  0  0
 12 18  1  0  0  0  0
 12 13  1  0  0  0  0
 12 29  1  0  0  0  0
 13 14  1  0  0  0  0
 13 30  1  0  0  0  0
 13 31  1  0  0  0  0
 14 15  1  0  0  0  0
 14 32  1  0  0  0  0
 14 33  1  0  0  0  0
 15 16  1  0  0  0  0
 15 34  1  0  0  0  0
 15 35  1  0  0  0  0
 16 17  1  0  0  0  0
 16 36  1  0  0  0  0
 16 37  1  0  0  0  0
 17 18  1  0  0  0  0
 17 38  1  0  0  0  0
 18 19  2  0  0  0  0
M  END
> <s_m_source_file>
AV-unprocessed.smi

> <i_m_source_file_index>
2181

> <i_lp_mmshare_version>
43012

> <i_f3d_flags>
0

> <s_epik_input>
W0NIM11jMW5vYyhbQ0gzXSljMVtDSDJdQyg9TylbTkhdW0NAQEhdMltDSDJdW0NIMl1bQ0gyXVtDSDJdW05IXUMyPU8=

> <s_epik_cmdline>
J2VwaWtfcHl0aG9uJywgJy1waCcsICc3LjAnLCAnLXRuJywgJzgnLCAnLW1hJywgJzIwMCcsICctbWV0YWxfYmluZGluZycsICctaW1hZScsICc8aW5maWxlLm1hZT4nLCAnLW9tYWUnLCAnPG91dGZpbGUubWFlPic=

> <r_lp_tautomer_probability>
1

> <r_epik_Ionization_Penalty>
5.91376e-08

> <r_epik_Ionization_Penalty_Charging>
0

> <r_epik_Ionization_Penalty_Neutral>
5.91376e-08

> <r_epik_State_Penalty>
-0

> <r_epik_Charging_Adjusted_Penalty>
0

> <i_epik_Tot_Q>
0

> <i_epik_Tot_abs_Q>
0

> <r_epik_Metal_State_Penalty>
-0

> <b_epik_Metal_Only>
0

> <s_lp_Force_Field>
OPLS_2005

> <r_lp_Energy>
8.47239

> <b_lp_Chiralities_Consistent>
1

> <s_lp_Variant>
AV-unprocessed.smi:2181-1

> <Gold.Version>
5.8.1

> <Gold.Id.Protein>
6NUR|6NUR_protein|mol2

> <Gold.PLP.Fitness>
39.2327

> <Gold.PLP.PLP>
-33.1999

> <Gold.PLP.part.hbond>
-2.9826

> <Gold.PLP.part.metal>
0.0000

> <Gold.PLP.part.buried>
-2.5268

> <Gold.PLP.part.nonpolar>
-28.4826

> <Gold.PLP.part.repulsive>
0.4910

> <Gold.PLP.ligand.clash>
0.0000

> <Gold.PLP.ligand.torsion>
0.8737

> <Gold.PLP.Chemscore.Hbond>
2.5760

> <Gold.PLP.Chemscore.CHOScore>
0.0000

> <Gold.PLP.Chemscore.Metal>
0.0000

> <Gold.Chemscore.Hbonds>
donor molecule, donor type, donor heavy atom, donor atom, acceptor molecule, acceptor atom, score
      P1  H  7989  7998       L1    10  0.67
      P1  H  7997  8009       L1    19  0.31
      P1  H 10752 10764       L1     4  1.00

> <Gold.PLP.Chemscore.Internal.Correction>
0.0523

> <Gold.Rescore>
     Score         DG    S(hbond)    S(metal)    S(lipo)     H(rot)  DE(clash)    DE(int)     intcor
     16.58     -19.40       2.55        0.00      78.87       1.49       0.71       2.12       ----

> <Gold.Chemscore.Fitness>
16.5789

> <Gold.Chemscore.DG>
-19.4029

> <Gold.Chemscore.ZeroCoef>
-5.4800

> <Gold.Chemscore.Hbond>
2.5516

> <Gold.Chemscore.Metal>
0.0000

> <Gold.Chemscore.Lipo>
78.8673

> <Gold.Chemscore.Internal_Hbond>
0.0000

> <Gold.Chemscore.DEClash>
0.7084

> <Gold.Chemscore.DEInternal>
2.1156

> <Gold.Chemscore.Rot>
1.4949

> <Gold.Chemscore.Internal.Correction>
   9.000000E+99

> <Gold.Chemscore.Hbonds>
donor molecule, donor type, donor heavy atom, donor atom, acceptor molecule, acceptor atom, score
      P1  H  7989  7998       L1    10  0.65
      P1  H  7997  8009       L1    19  0.25
      P1  H 10752 10764       L1     4  0.74

> <Gold.Chemscore.Hbond.Weighted>
-8.5224

> <Gold.Chemscore.Metal.Weighted>
-0.0000

> <Gold.Chemscore.Lipo.Weighted>
-9.2275

> <Gold.Chemscore.Internal_Hbond.Weighted>
0.0000

> <Gold.Chemscore.DEClash.Weighted>
0.7084

> <Gold.Chemscore.DEInternal.Weighted>
2.1156

> <Gold.Chemscore.Rot.Weighted>
3.8269

> <Gold.Chemscore.Internal.Correction.Weighted>
   9.000000E+99

> <Gold.Protein.RotatedTorsions>
[ 6907 6896 6895 6894 ] final -160.60 input  -60.11 | X-H torsion
[ 7974 7965 7964 7962 ] final  -39.20 input  175.53 | X-H torsion
[ 8008 7997 7996 7995 ] final  172.64 input   59.86 | X-H torsion
[ 10167 10162 10161 10158 ] final   -2.72 input  -65.29 | X-H torsion
[ 10718 10713 10712 10709 ] final   70.97 input   66.30 | X-H torsion
[ 10763 10752 10751 10750 ] final  -54.70 input  -60.55 | X-H torsion
[ 11005 11000 10999 10996 ] final  142.02 input  -57.11 | X-H torsion

> <Gold.Protein.ActiveResidues>
 VAL166  LYS551  ARG553  GLY616  TRP617  ASP618  TYR619  PRO620  LYS621  CYS622 
 ASP623  PHE694  ASN695  SER759  ASP760  ASP761  ALA762  ILE779  LEU786  VAL792 
 PHE793  MET794  SER795  GLU796  ALA797  LYS798  CYS799  TRP800  GLU811  SER814 

> <Gold.Protein.RotatedAtoms>
  151.3517  133.3923  159.2680 H   0  0  0  0  0  0  0  0  0  0  0  0  # atno 6907 bound_to 6896
  150.9796  134.9155  159.7847 H   0  0  0  0  0  0  0  0  0  0  0  0  # atno 6908 bound_to 6896
  152.5212  134.3480  159.9293 H   0  0  0  0  0  0  0  0  0  0  0  0  # atno 6909 bound_to 6896
  146.0418  140.6598  142.9083 H   0  0  0  0  0  0  0  0  0  0  0  0  # atno 7974 bound_to 7965
  156.1154  140.1480  156.9280 H   0  0  0  0  0  0  0  0  0  0  0  0  # atno 8008 bound_to 7997
  154.4797  140.0883  156.7389 H   0  0  0  0  0  0  0  0  0  0  0  0  # atno 8009 bound_to 7997
  155.4523  140.3435  155.4304 H   0  0  0  0  0  0  0  0  0  0  0  0  # atno 8010 bound_to 7997
  140.6862  143.6624  150.8255 H   0  0  0  0  0  0  0  0  0  0  0  0  # atno 10167 bound_to 10162
  157.6428  130.9505  150.0725 H   0  0  0  0  0  0  0  0  0  0  0  0  # atno 10718 bound_to 10713
  154.1791  135.6446  153.5029 H   0  0  0  0  0  0  0  0  0  0  0  0  # atno 10763 bound_to 10752
  153.0064  135.5401  154.6533 H   0  0  0  0  0  0  0  0  0  0  0  0  # atno 10764 bound_to 10752
  154.5893  135.2932  155.0625 H   0  0  0  0  0  0  0  0  0  0  0  0  # atno 10765 bound_to 10752
  140.0445  134.9288  157.0905 H   0  0  0  0  0  0  0  0  0  0  0  0  # atno 11005 bound_to 11000
  144.7078  140.3922  143.7104 LP  0  0  0  0  0  0  0  0  0  0  0  0  # atno 17320 bound_to 7965
  145.6872  139.1631  143.2667 LP  0  0  0  0  0  0  0  0  0  0  0  0  # atno 17321 bound_to 7965
  140.0332  143.5422  152.2751 LP  0  0  0  0  0  0  0  0  0  0  0  0  # atno 17342 bound_to 10162
  139.6223  144.7631  151.2715 LP  0  0  0  0  0  0  0  0  0  0  0  0  # atno 17343 bound_to 10162
  156.1725  130.3647  149.9146 LP  0  0  0  0  0  0  0  0  0  0  0  0  # atno 17370 bound_to 10713
  156.7118  130.8973  151.3610 LP  0  0  0  0  0  0  0  0  0  0  0  0  # atno 17371 bound_to 10713
  140.4015  134.2077  155.7163 LP  0  0  0  0  0  0  0  0  0  0  0  0  # atno 17394 bound_to 11000
  141.1900  133.8226  157.0935 LP  0  0  0  0  0  0  0  0  0  0  0  0  # atno 17395 bound_to 11000

$$$$
