AV-unprocessed.smi:2132|AV-procd|sdf|8691|dock6
  -GOLD-   2272011443D 1   1.00000     0.00000
 Structure written by MMmdl.
 38 39  0  0  0  0  0  0  0  0  1 V2000
  152.7755  142.0477  160.1349 C   0  0  0  0  0  0  0  0  0  0  0  0
  151.4473  142.4959  159.9315 O   0  0  0  0  0  0  0  0  0  0  0  0
  151.3924  143.8033  159.3846 C   0  0  0  0  0  0  0  0  0  0  0  0
  152.0094  143.7887  157.9793 C   0  0  0  0  0  0  0  0  0  0  0  0
  151.1519  143.0930  157.0279 N   0  0  0  0  0  0  0  0  0  0  0  0
  151.0670  141.7600  156.8898 C   0  0  0  0  0  0  0  0  0  0  0  0
  151.7357  140.9664  157.5520 O   0  0  0  0  0  0  0  0  0  0  0  0
  150.1485  141.2653  155.8021 C   0  0  0  0  0  0  0  0  0  0  0  0
  149.2333  142.1777  155.2301 C   0  0  0  0  0  0  0  0  0  0  0  0
  148.3558  141.7442  154.2210 C   0  0  0  0  0  0  0  0  0  0  0  0
  148.4286  140.4030  153.8090 C   0  0  0  0  0  0  0  0  0  0  0  0
  149.3069  139.5210  154.3262 N   0  0  0  0  0  0  0  0  0  0  0  0
  150.1626  139.9295  155.2959 C   0  0  0  0  0  0  0  0  0  0  0  0
  151.0952  138.9735  155.7463 N   0  0  0  0  0  0  0  0  0  0  0  0
  152.1577  138.6846  154.7912 C   0  0  0  0  0  0  0  0  0  0  0  0
  153.2699  137.8742  155.4784 C   0  0  0  0  0  0  0  0  0  0  0  0
  152.7172  136.6973  156.0625 O   0  0  0  0  0  0  0  0  0  0  0  0
  151.7322  136.9977  157.0478 C   0  0  0  0  0  0  0  0  0  0  0  0
  150.5756  137.7770  156.3993 C   0  0  0  0  0  0  0  0  0  0  0  0
  152.7622  141.0403  160.5508 H   0  0  0  0  0  0  0  0  0  0  0  0
  153.3065  142.6935  160.8353 H   0  0  0  0  0  0  0  0  0  0  0  0
  153.3302  142.0173  159.1963 H   0  0  0  0  0  0  0  0  0  0  0  0
  150.3618  144.1604  159.3468 H   0  0  0  0  0  0  0  0  0  0  0  0
  151.9514  144.4899  160.0220 H   0  0  0  0  0  0  0  0  0  0  0  0
  152.1936  144.8089  157.6391 H   0  0  0  0  0  0  0  0  0  0  0  0
  152.9793  143.2915  158.0017 H   0  0  0  0  0  0  0  0  0  0  0  0
  150.5839  143.6680  156.4225 H   0  0  0  0  0  0  0  0  0  0  0  0
  149.1908  143.2032  155.5680 H   0  0  0  0  0  0  0  0  0  0  0  0
  147.6430  142.4225  153.7764 H   0  0  0  0  0  0  0  0  0  0  0  0
  147.7700  140.0298  153.0390 H   0  0  0  0  0  0  0  0  0  0  0  0
  151.7426  138.1186  153.9564 H   0  0  0  0  0  0  0  0  0  0  0  0
  152.5696  139.6058  154.3787 H   0  0  0  0  0  0  0  0  0  0  0  0
  154.0301  137.5876  154.7517 H   0  0  0  0  0  0  0  0  0  0  0  0
  153.7686  138.4720  156.2431 H   0  0  0  0  0  0  0  0  0  0  0  0
  151.3639  136.0668  157.4789 H   0  0  0  0  0  0  0  0  0  0  0  0
  152.1799  137.5719  157.8610 H   0  0  0  0  0  0  0  0  0  0  0  0
  149.8400  138.0555  157.1548 H   0  0  0  0  0  0  0  0  0  0  0  0
  150.0703  137.1462  155.6668 H   0  0  0  0  0  0  0  0  0  0  0  0
  1  2  1  0  0  0  0
  1 20  1  0  0  0  0
  1 21  1  0  0  0  0
  1 22  1  0  0  0  0
  2  3  1  0  0  0  0
  3  4  1  0  0  0  0
  3 23  1  0  0  0  0
  3 24  1  0  0  0  0
  4  5  1  0  0  0  0
  4 25  1  0  0  0  0
  4 26  1  0  0  0  0
  5  6  1  0  0  0  0
  5 27  1  0  0  0  0
  6  7  2  0  0  0  0
  6  8  1  0  0  0  0
  8 13  1  0  0  0  0
  8  9  2  0  0  0  0
  9 10  1  0  0  0  0
  9 28  1  0  0  0  0
 10 11  2  0  0  0  0
 10 29  1  0  0  0  0
 11 12  1  0  0  0  0
 11 30  1  0  0  0  0
 12 13  2  0  0  0  0
 13 14  1  0  0  0  0
 14 19  1  0  0  0  0
 14 15  1  0  0  0  0
 15 16  1  0  0  0  0
 15 31  1  0  0  0  0
 15 32  1  0  0  0  0
 16 17  1  0  0  0  0
 16 33  1  0  0  0  0
 16 34  1  0  0  0  0
 17 18  1  0  0  0  0
 18 19  1  0  0  0  0
 18 35  1  0  0  0  0
 18 36  1  0  0  0  0
 19 37  1  0  0  0  0
 19 38  1  0  0  0  0
M  END
> <s_m_source_file>
AV-unprocessed.smi

> <i_m_source_file_index>
2132

> <i_lp_mmshare_version>
43012

> <i_f3d_flags>
0

> <s_epik_input>
W0NIM11PW0NIMl1bQ0gyXVtOSF1DKD1PKWMxW2NIXVtjSF1bY0hdbmMxTjJbQ0gyXVtDSDJdT1tDSDJdW0NIMl0y

> <s_epik_cmdline>
J2VwaWtfcHl0aG9uJywgJy1waCcsICc3LjAnLCAnLXRuJywgJzgnLCAnLW1hJywgJzIwMCcsICctbWV0YWxfYmluZGluZycsICctaW1hZScsICc8aW5maWxlLm1hZT4nLCAnLW9tYWUnLCAnPG91dGZpbGUubWFlPic=

> <r_lp_tautomer_probability>
1

> <r_epik_Ionization_Penalty>
1.38099e-05

> <r_epik_Ionization_Penalty_Charging>
0

> <r_epik_Ionization_Penalty_Neutral>
1.38099e-05

> <r_epik_State_Penalty>
-0

> <r_epik_Charging_Adjusted_Penalty>
0

> <i_epik_Tot_Q>
0

> <i_epik_Tot_abs_Q>
0

> <r_epik_Metal_State_Penalty>
-0

> <b_epik_Metal_Only>
0

> <s_lp_Force_Field>
OPLS_2005

> <r_lp_Energy>
24.8445

> <b_lp_Chiralities_Consistent>
1

> <s_lp_Variant>
AV-unprocessed.smi:2132-1

> <Gold.Version>
5.8.1

> <Gold.Id.Protein>
6NUR|6NUR_protein|mol2

> <Gold.PLP.Fitness>
38.8872

> <Gold.PLP.PLP>
-33.2022

> <Gold.PLP.part.hbond>
-2.2915

> <Gold.PLP.part.metal>
0.0000

> <Gold.PLP.part.buried>
2.9160

> <Gold.PLP.part.nonpolar>
-33.5389

> <Gold.PLP.part.repulsive>
0.1885

> <Gold.PLP.ligand.clash>
0.0000

> <Gold.PLP.ligand.torsion>
0.4144

> <Gold.PLP.Chemscore.Hbond>
1.8640

> <Gold.PLP.Chemscore.CHOScore>
0.2158

> <Gold.PLP.Chemscore.Metal>
0.0000

> <Gold.Chemscore.Hbonds>
donor molecule, donor type, donor heavy atom, donor atom, acceptor molecule, acceptor atom, score
      L1  H     5    27       P1  8028  0.76
      P1  H 10752 10763       L1    17  0.88
      L1  C    11    30       P1  7957  0.24

> <Gold.PLP.Chemscore.Internal.Correction>
0.2745

> <Gold.Rescore>
     Score         DG    S(hbond)    S(metal)    S(lipo)     H(rot)  DE(clash)    DE(int)     intcor
     13.78     -17.32       1.63        0.00      90.02       1.62       1.64       1.90       ----

> <Gold.Chemscore.Fitness>
13.7790

> <Gold.Chemscore.DG>
-17.3201

> <Gold.Chemscore.ZeroCoef>
-5.4800

> <Gold.Chemscore.Hbond>
1.6338

> <Gold.Chemscore.Metal>
0.0000

> <Gold.Chemscore.Lipo>
90.0244

> <Gold.Chemscore.Internal_Hbond>
0.0000

> <Gold.Chemscore.DEClash>
1.6420

> <Gold.Chemscore.DEInternal>
1.8990

> <Gold.Chemscore.Rot>
1.6209

> <Gold.Chemscore.Internal.Correction>
   9.000000E+99

> <Gold.Chemscore.Hbonds>
donor molecule, donor type, donor heavy atom, donor atom, acceptor molecule, acceptor atom, score
      L1  H     5    27       P1  8028  0.75
      P1  H 10752 10763       L1    17  0.47

> <Gold.Chemscore.Hbond.Weighted>
-5.4568

> <Gold.Chemscore.Metal.Weighted>
-0.0000

> <Gold.Chemscore.Lipo.Weighted>
-10.5329

> <Gold.Chemscore.Internal_Hbond.Weighted>
0.0000

> <Gold.Chemscore.DEClash.Weighted>
1.6420

> <Gold.Chemscore.DEInternal.Weighted>
1.8990

> <Gold.Chemscore.Rot.Weighted>
4.1496

> <Gold.Chemscore.Internal.Correction.Weighted>
   9.000000E+99

> <Gold.Protein.RotatedTorsions>
[ 6907 6896 6895 6894 ] final  -73.28 input  -60.11 | X-H torsion
[ 7974 7965 7964 7962 ] final  139.67 input  175.53 | X-H torsion
[ 8008 7997 7996 7995 ] final   20.60 input   59.86 | X-H torsion
[ 10167 10162 10161 10158 ] final  156.75 input  -65.29 | X-H torsion
[ 10718 10713 10712 10709 ] final  122.93 input   66.30 | X-H torsion
[ 10763 10752 10751 10750 ] final  100.57 input  -60.55 | X-H torsion
[ 11005 11000 10999 10996 ] final  -40.31 input  -57.11 | X-H torsion

> <Gold.Protein.ActiveResidues>
 VAL166  LYS551  ARG553  GLY616  TRP617  ASP618  TYR619  PRO620  LYS621  CYS622 
 ASP623  PHE694  ASN695  SER759  ASP760  ASP761  ALA762  ILE779  LEU786  VAL792 
 PHE793  MET794  SER795  GLU796  ALA797  LYS798  CYS799  TRP800  GLU811  SER814 

> <Gold.Protein.RotatedAtoms>
  150.7136  134.5039  159.5574 H   0  0  0  0  0  0  0  0  0  0  0  0  # atno 6907 bound_to 6896
  152.2630  134.8011  160.0436 H   0  0  0  0  0  0  0  0  0  0  0  0  # atno 6908 bound_to 6896
  151.8717  133.3442  159.3774 H   0  0  0  0  0  0  0  0  0  0  0  0  # atno 6909 bound_to 6896
  144.9257  139.5110  143.5642 H   0  0  0  0  0  0  0  0  0  0  0  0  # atno 7974 bound_to 7965
  154.9381  140.3049  155.5134 H   0  0  0  0  0  0  0  0  0  0  0  0  # atno 8008 bound_to 7997
  156.2998  140.2341  156.4384 H   0  0  0  0  0  0  0  0  0  0  0  0  # atno 8009 bound_to 7997
  154.8172  140.0425  157.1374 H   0  0  0  0  0  0  0  0  0  0  0  0  # atno 8010 bound_to 7997
  139.4821  144.4981  151.8210 H   0  0  0  0  0  0  0  0  0  0  0  0  # atno 10167 bound_to 10162
  157.5704  131.1083  150.8376 H   0  0  0  0  0  0  0  0  0  0  0  0  # atno 10718 bound_to 10713
  153.3157  135.4074  155.1374 H   0  0  0  0  0  0  0  0  0  0  0  0  # atno 10763 bound_to 10752
  154.8587  135.3575  154.5664 H   0  0  0  0  0  0  0  0  0  0  0  0  # atno 10764 bound_to 10752
  153.6095  135.7068  153.5411 H   0  0  0  0  0  0  0  0  0  0  0  0  # atno 10765 bound_to 10752
  141.0165  133.6883  156.2304 H   0  0  0  0  0  0  0  0  0  0  0  0  # atno 11005 bound_to 11000
  146.3225  139.8170  142.8934 LP  0  0  0  0  0  0  0  0  0  0  0  0  # atno 17320 bound_to 7965
  145.3223  141.0247  143.3493 LP  0  0  0  0  0  0  0  0  0  0  0  0  # atno 17321 bound_to 7965
  140.4471  144.1906  150.5895 LP  0  0  0  0  0  0  0  0  0  0  0  0  # atno 17342 bound_to 10162
  140.4623  143.2444  151.9203 LP  0  0  0  0  0  0  0  0  0  0  0  0  # atno 17343 bound_to 10162
  156.8849  130.5192  149.5289 LP  0  0  0  0  0  0  0  0  0  0  0  0  # atno 17370 bound_to 10713
  156.0750  130.5774  150.9457 LP  0  0  0  0  0  0  0  0  0  0  0  0  # atno 17371 bound_to 10713
  140.6645  134.4932  157.5585 LP  0  0  0  0  0  0  0  0  0  0  0  0  # atno 17394 bound_to 11000
  139.9120  134.8324  156.1495 LP  0  0  0  0  0  0  0  0  0  0  0  0  # atno 17395 bound_to 11000

$$$$
