AV-unprocessed.smi:2955|AV-procd|sdf|11304|dock8
  -GOLD-   2272016203D 1   1.00000     0.00000
 Structure written by MMmdl.
 46 48  0  0  0  0  0  0  0  0  2 V2000
  151.4632  145.4289  158.8718 C   0  0  0  0  0  0  0  0  0  0  0  0
  152.0328  144.0618  159.1913 C   0  0  0  0  0  0  0  0  0  0  0  0
  153.0337  143.9244  160.1734 C   0  0  0  0  0  0  0  0  0  0  0  0
  153.5600  142.6532  160.4668 C   0  0  0  0  0  0  0  0  0  0  0  0
  153.0864  141.5193  159.7804 C   0  0  0  0  0  0  0  0  0  0  0  0
  152.0833  141.6381  158.7969 C   0  0  0  0  0  0  0  0  0  0  0  0
  151.6788  140.4771  158.1751 O   0  0  0  0  0  0  0  0  0  0  0  0
  150.4907  140.5064  157.3948 C   0  0  0  0  0  0  0  0  0  0  0  0
  150.8417  140.9188  155.9587 C   0  0  0  0  0  0  0  0  0  0  0  0
  150.1766  140.0698  154.9583 N   0  0  0  0  0  0  0  0  0  0  0  0
  150.5265  138.8498  154.4533 C   0  0  0  0  0  0  0  0  0  0  0  0
  151.7432  138.0399  154.7971 C   0  0  1  0  0  0  0  0  0  0  0  0
  153.0292  138.8135  154.4722 C   0  0  0  0  0  0  0  0  0  0  0  0
  151.7468  137.6446  156.1997 N   0  0  0  0  0  0  0  0  0  0  0  0
  152.7711  137.0297  156.8039 C   0  0  0  0  0  0  0  0  0  0  0  0
  153.8161  136.7419  156.2267 O   0  0  0  0  0  0  0  0  0  0  0  0
  149.5721  138.5062  153.5411 N   0  3  0  0  0  0  0  0  0  0  0  0
  148.5950  139.4991  153.4786 C   0  0  0  0  0  0  0  0  0  0  0  0
  147.4372  139.5908  152.7123 C   0  0  0  0  0  0  0  0  0  0  0  0
  146.6485  140.7458  152.8937 C   0  0  0  0  0  0  0  0  0  0  0  0
  147.0205  141.7525  153.8083 C   0  0  0  0  0  0  0  0  0  0  0  0
  148.1976  141.6485  154.5785 C   0  0  0  0  0  0  0  0  0  0  0  0
  148.9736  140.5047  154.3909 C   0  0  0  0  0  0  0  0  0  0  0  0
  151.5578  142.9231  158.5078 C   0  0  0  0  0  0  0  0  0  0  0  0
  152.1600  146.2198  159.1515 H   0  0  0  0  0  0  0  0  0  0  0  0
  150.5310  145.5847  159.4150 H   0  0  0  0  0  0  0  0  0  0  0  0
  151.2595  145.5218  157.8047 H   0  0  0  0  0  0  0  0  0  0  0  0
  153.4008  144.7913  160.7033 H   0  0  0  0  0  0  0  0  0  0  0  0
  154.3281  142.5476  161.2186 H   0  0  0  0  0  0  0  0  0  0  0  0
  153.4990  140.5482  160.0108 H   0  0  0  0  0  0  0  0  0  0  0  0
  150.0178  139.5230  157.3909 H   0  0  0  0  0  0  0  0  0  0  0  0
  149.7807  141.2219  157.8121 H   0  0  0  0  0  0  0  0  0  0  0  0
  150.5796  141.9610  155.7761 H   0  0  0  0  0  0  0  0  0  0  0  0
  151.9174  140.8484  155.7992 H   0  0  0  0  0  0  0  0  0  0  0  0
  151.7482  137.1343  154.1896 H   0  0  0  0  0  0  0  0  0  0  0  0
  153.0592  139.0955  153.4192 H   0  0  0  0  0  0  0  0  0  0  0  0
  153.9127  138.2073  154.6745 H   0  0  0  0  0  0  0  0  0  0  0  0
  153.1114  139.7265  155.0629 H   0  0  0  0  0  0  0  0  0  0  0  0
  150.9248  137.8569  156.7464 H   0  0  0  0  0  0  0  0  0  0  0  0
  152.5600  136.8237  157.8647 H   0  0  0  0  0  0  0  0  0  0  0  0
  147.1494  138.8198  152.0128 H   0  0  0  0  0  0  0  0  0  0  0  0
  145.7395  140.8613  152.3210 H   0  0  0  0  0  0  0  0  0  0  0  0
  146.3902  142.6227  153.9216 H   0  0  0  0  0  0  0  0  0  0  0  0
  148.4708  142.4245  155.2778 H   0  0  0  0  0  0  0  0  0  0  0  0
  150.7886  143.0597  157.7630 H   0  0  0  0  0  0  0  0  0  0  0  0
  149.5900  137.6487  153.0045 H   0  0  0  0  0  0  0  0  0  0  0  0
  1  2  1  0  0  0  0
  1 25  1  0  0  0  0
  1 26  1  0  0  0  0
  1 27  1  0  0  0  0
  2 24  1  0  0  0  0
  2  3  2  0  0  0  0
  3  4  1  0  0  0  0
  3 28  1  0  0  0  0
  4  5  2  0  0  0  0
  4 29  1  0  0  0  0
  5  6  1  0  0  0  0
  5 30  1  0  0  0  0
  6  7  1  0  0  0  0
  6 24  2  0  0  0  0
  7  8  1  0  0  0  0
  8  9  1  0  0  0  0
  8 31  1  0  0  0  0
  8 32  1  0  0  0  0
  9 10  1  0  0  0  0
  9 33  1  0  0  0  0
  9 34  1  0  0  0  0
 10 23  1  0  0  0  0
 10 11  1  0  0  0  0
 11 12  1  0  0  0  0
 11 17  2  0  0  0  0
 12 13  1  0  0  0  0
 12 14  1  0  0  0  0
 12 35  1  0  0  0  0
 13 36  1  0  0  0  0
 13 37  1  0  0  0  0
 13 38  1  0  0  0  0
 14 15  1  0  0  0  0
 14 39  1  0  0  0  0
 15 16  2  0  0  0  0
 15 40  1  0  0  0  0
 17 18  1  0  0  0  0
 17 46  1  0  0  0  0
 18 23  2  0  0  0  0
 18 19  1  0  0  0  0
 19 20  2  0  0  0  0
 19 41  1  0  0  0  0
 20 21  1  0  0  0  0
 20 42  1  0  0  0  0
 21 22  2  0  0  0  0
 21 43  1  0  0  0  0
 22 23  1  0  0  0  0
 22 44  1  0  0  0  0
 24 45  1  0  0  0  0
M  CHG  1  17   1
M  END
> <s_m_source_file>
AV-unprocessed.smi

> <i_m_source_file_index>
2955

> <i_lp_mmshare_version>
43012

> <i_f3d_flags>
0

> <s_epik_input>
W0NIM11jMVtjSF1bY0hdW2NIXWMoW2NIXTEpT1tDSDJdW0NIMl1uKGMobjIpW0NASF0oW0NIM10pW05IXVtDSF09TyljKGMyMylbY0hdW2NIXVtjSF1bY0hdMw==

> <s_epik_cmdline>
J2VwaWtfcHl0aG9uJywgJy1waCcsICc3LjAnLCAnLXRuJywgJzgnLCAnLW1hJywgJzIwMCcsICctbWV0YWxfYmluZGluZycsICctaW1hZScsICc8aW5maWxlLm1hZT4nLCAnLW9tYWUnLCAnPG91dGZpbGUubWFlPic=

> <r_lp_tautomer_probability>
1

> <r_epik_Ionization_Penalty>
1.15027

> <r_epik_Ionization_Penalty_Charging>
1.15027

> <r_epik_Ionization_Penalty_Neutral>
5.5802e-08

> <r_epik_State_Penalty>
1.21159

> <r_epik_Charging_Adjusted_Penalty>
2.36186

> <i_epik_Tot_Q>
1

> <i_epik_Tot_abs_Q>
1

> <r_epik_Metal_State_Penalty>
1.29223

> <b_epik_Metal_Only>
0

> <s_lp_Force_Field>
OPLS_2005

> <r_lp_Energy>
16.9999

> <b_lp_Chiralities_Consistent>
1

> <s_lp_Variant>
AV-unprocessed.smi:2955-4

> <Gold.Version>
5.8.1

> <Gold.Id.Protein>
6NUR|6NUR_protein|mol2

> <Gold.PLP.Fitness>
57.6694

> <Gold.PLP.PLP>
-51.2702

> <Gold.PLP.part.hbond>
-2.9003

> <Gold.PLP.part.metal>
0.0000

> <Gold.PLP.part.buried>
1.2579

> <Gold.PLP.part.nonpolar>
-49.6332

> <Gold.PLP.part.repulsive>
0.1460

> <Gold.PLP.ligand.clash>
0.0000

> <Gold.PLP.ligand.torsion>
1.0540

> <Gold.PLP.Chemscore.Hbond>
2.8000

> <Gold.PLP.Chemscore.CHOScore>
0.0000

> <Gold.PLP.Chemscore.Metal>
0.0000

> <Gold.Chemscore.Hbonds>
donor molecule, donor type, donor heavy atom, donor atom, acceptor molecule, acceptor atom, score
      L1  H    17    46       P1  7948  2.00
      P1  H 10752 10764       L1    16  0.56

> <Gold.PLP.Chemscore.Internal.Correction>
0.1072

> <Gold.Rescore>
     Score         DG    S(hbond)    S(metal)    S(lipo)     H(rot)  DE(clash)    DE(int)     intcor
     17.62     -23.15       1.90        0.00     147.56       2.32       3.47       2.05       ----

> <Gold.Chemscore.Fitness>
17.6213

> <Gold.Chemscore.DG>
-23.1480

> <Gold.Chemscore.ZeroCoef>
-5.4800

> <Gold.Chemscore.Hbond>
1.9008

> <Gold.Chemscore.Metal>
0.0000

> <Gold.Chemscore.Lipo>
147.5583

> <Gold.Chemscore.Internal_Hbond>
0.0000

> <Gold.Chemscore.DEClash>
3.4721

> <Gold.Chemscore.DEInternal>
2.0547

> <Gold.Chemscore.Rot>
2.3223

> <Gold.Chemscore.Internal.Correction>
   9.000000E+99

> <Gold.Chemscore.Hbonds>
donor molecule, donor type, donor heavy atom, donor atom, acceptor molecule, acceptor atom, score
      L1  H    17    46       P1  7948  0.74
      P1  H 10752 10764       L1    16  0.39

> <Gold.Chemscore.Hbond.Weighted>
-6.3487

> <Gold.Chemscore.Metal.Weighted>
-0.0000

> <Gold.Chemscore.Lipo.Weighted>
-17.2643

> <Gold.Chemscore.Internal_Hbond.Weighted>
0.0000

> <Gold.Chemscore.DEClash.Weighted>
3.4721

> <Gold.Chemscore.DEInternal.Weighted>
2.0547

> <Gold.Chemscore.Rot.Weighted>
5.9450

> <Gold.Chemscore.Internal.Correction.Weighted>
   9.000000E+99

> <Gold.Protein.RotatedTorsions>
[ 6907 6896 6895 6894 ] final  109.32 input  -60.11 | X-H torsion
[ 7974 7965 7964 7962 ] final -125.49 input  175.53 | X-H torsion
[ 8008 7997 7996 7995 ] final    4.99 input   59.86 | X-H torsion
[ 10167 10162 10161 10158 ] final  -18.12 input  -65.29 | X-H torsion
[ 10718 10713 10712 10709 ] final  102.76 input   66.30 | X-H torsion
[ 10763 10752 10751 10750 ] final   -2.09 input  -60.55 | X-H torsion
[ 11005 11000 10999 10996 ] final  141.84 input  -57.11 | X-H torsion

> <Gold.Protein.ActiveResidues>
 VAL166  LYS551  ARG553  GLY616  TRP617  ASP618  TYR619  PRO620  LYS621  CYS622 
 ASP623  PHE694  ASN695  SER759  ASP760  ASP761  ALA762  ILE779  LEU786  VAL792 
 PHE793  MET794  SER795  GLU796  ALA797  LYS798  CYS799  TRP800  GLU811  SER814 

> <Gold.Protein.RotatedAtoms>
  152.5072  133.8961  159.7417 H   0  0  0  0  0  0  0  0  0  0  0  0  # atno 6907 bound_to 6896
  150.9388  133.6672  159.2802 H   0  0  0  0  0  0  0  0  0  0  0  0  # atno 6908 bound_to 6896
  151.3990  135.0973  159.9602 H   0  0  0  0  0  0  0  0  0  0  0  0  # atno 6909 bound_to 6896
  144.9970  140.7785  143.4519 H   0  0  0  0  0  0  0  0  0  0  0  0  # atno 7974 bound_to 7965
  154.7228  140.2715  155.6526 H   0  0  0  0  0  0  0  0  0  0  0  0  # atno 8008 bound_to 7997
  156.2828  140.2731  156.1829 H   0  0  0  0  0  0  0  0  0  0  0  0  # atno 8009 bound_to 7997
  155.0484  140.0371  157.2525 H   0  0  0  0  0  0  0  0  0  0  0  0  # atno 8010 bound_to 7997
  140.7255  143.4948  150.9945 H   0  0  0  0  0  0  0  0  0  0  0  0  # atno 10167 bound_to 10162
  157.6793  131.0761  150.5452 H   0  0  0  0  0  0  0  0  0  0  0  0  # atno 10718 bound_to 10713
  153.3534  135.6987  153.6770 H   0  0  0  0  0  0  0  0  0  0  0  0  # atno 10763 bound_to 10752
  153.5488  135.3558  155.2751 H   0  0  0  0  0  0  0  0  0  0  0  0  # atno 10764 bound_to 10752
  154.8657  135.4221  154.2775 H   0  0  0  0  0  0  0  0  0  0  0  0  # atno 10765 bound_to 10752
  140.0431  134.9294  157.0880 H   0  0  0  0  0  0  0  0  0  0  0  0  # atno 11005 bound_to 11000
  145.2206  139.2161  143.5095 LP  0  0  0  0  0  0  0  0  0  0  0  0  # atno 17320 bound_to 7965
  146.3444  140.2062  142.8589 LP  0  0  0  0  0  0  0  0  0  0  0  0  # atno 17321 bound_to 7965
  139.8654  143.7260  152.3170 LP  0  0  0  0  0  0  0  0  0  0  0  0  # atno 17342 bound_to 10162
  139.7491  144.7539  151.0535 LP  0  0  0  0  0  0  0  0  0  0  0  0  # atno 17343 bound_to 10162
  156.5758  130.4291  149.5999 LP  0  0  0  0  0  0  0  0  0  0  0  0  # atno 17370 bound_to 10713
  156.2702  130.7013  151.1808 LP  0  0  0  0  0  0  0  0  0  0  0  0  # atno 17371 bound_to 10713
  140.4037  134.2055  155.7163 LP  0  0  0  0  0  0  0  0  0  0  0  0  # atno 17394 bound_to 11000
  141.1893  133.8241  157.0961 LP  0  0  0  0  0  0  0  0  0  0  0  0  # atno 17395 bound_to 11000

$$$$
