AV-unprocessed.smi:1411|AV-procd|sdf|5739|dock1
  -GOLD-   22720 5373D 1   1.00000     0.00000
 Structure written by MMmdl.
 43 44  0  0  0  0  0  0  0  0  3 V2000
  146.1571  138.4400  154.6364 O   0  0  0  0  0  0  0  0  0  0  0  0
  146.8285  138.1294  153.6514 C   0  0  0  0  0  0  0  0  0  0  0  0
  147.7594  139.1459  152.9749 C   0  0  0  0  0  0  0  0  0  0  0  0
  148.9122  139.5262  153.8083 N   0  0  0  0  0  0  0  0  0  0  0  0
  149.9218  138.5573  153.9720 C   0  0  0  0  0  0  0  0  0  0  0  0
  151.0272  138.7912  154.7059 C   0  0  0  0  0  0  0  0  0  0  0  0
  152.0557  137.7855  154.8588 N   0  3  0  0  0  0  0  0  0  0  0  0
  151.8324  136.6495  154.4529 O   0  0  0  0  0  0  0  0  0  0  0  0
  153.1187  138.0965  155.3878 O   0  5  0  0  0  0  0  0  0  0  0  0
  151.1543  140.0906  155.3369 C   0  0  0  0  0  0  0  0  0  0  0  0
  150.1945  141.0236  155.1801 C   0  0  0  0  0  0  0  0  0  0  0  0
  148.9943  140.7680  154.3771 C   0  0  0  0  0  0  0  0  0  0  0  0
  148.1178  141.6188  154.2247 O   0  0  0  0  0  0  0  0  0  0  0  0
  146.8060  136.9044  153.1040 N   0  0  0  0  0  0  0  0  0  0  0  0
  145.9979  135.7773  153.5657 C   0  0  0  0  0  0  0  0  0  0  0  0
  146.8239  134.4794  153.4305 C   0  0  0  0  0  0  0  0  0  0  0  0
  146.0465  133.1664  153.6530 C   0  0  0  0  0  0  0  0  0  0  0  0
  145.6874  132.4086  152.3582 C   0  0  0  0  0  0  0  0  0  0  0  0
  144.6248  133.0529  151.4442 C   0  0  0  0  0  0  0  0  0  0  0  0
  145.0795  134.3457  150.7360 C   0  0  0  0  0  0  0  0  0  0  0  0
  144.5600  135.6581  151.3546 C   0  0  0  0  0  0  0  0  0  0  0  0
  144.6050  135.7700  152.8912 C   0  0  0  0  0  0  0  0  0  0  0  0
  148.0866  138.7349  152.0183 H   0  0  0  0  0  0  0  0  0  0  0  0
  147.1830  140.0360  152.7168 H   0  0  0  0  0  0  0  0  0  0  0  0
  149.7347  137.6259  153.4568 H   0  0  0  0  0  0  0  0  0  0  0  0
  152.0204  140.3257  155.9380 H   0  0  0  0  0  0  0  0  0  0  0  0
  150.3109  141.9854  155.6580 H   0  0  0  0  0  0  0  0  0  0  0  0
  147.3932  136.7381  152.2996 H   0  0  0  0  0  0  0  0  0  0  0  0
  145.8204  135.9117  154.6345 H   0  0  0  0  0  0  0  0  0  0  0  0
  147.3526  134.4461  152.4786 H   0  0  0  0  0  0  0  0  0  0  0  0
  147.6199  134.5284  154.1750 H   0  0  0  0  0  0  0  0  0  0  0  0
  146.6855  132.5041  154.2382 H   0  0  0  0  0  0  0  0  0  0  0  0
  145.1654  133.3234  154.2749 H   0  0  0  0  0  0  0  0  0  0  0  0
  146.5952  132.2211  151.7834 H   0  0  0  0  0  0  0  0  0  0  0  0
  145.3205  131.4223  152.6450 H   0  0  0  0  0  0  0  0  0  0  0  0
  144.3919  132.3218  150.6690 H   0  0  0  0  0  0  0  0  0  0  0  0
  143.6859  133.1999  151.9781 H   0  0  0  0  0  0  0  0  0  0  0  0
  146.1636  134.3681  150.6392 H   0  0  0  0  0  0  0  0  0  0  0  0
  144.7197  134.3148  149.7069 H   0  0  0  0  0  0  0  0  0  0  0  0
  145.0876  136.5000  150.9055 H   0  0  0  0  0  0  0  0  0  0  0  0
  143.5186  135.7769  151.0533 H   0  0  0  0  0  0  0  0  0  0  0  0
  143.9784  135.0001  153.3379 H   0  0  0  0  0  0  0  0  0  0  0  0
  144.0995  136.6984  153.1598 H   0  0  0  0  0  0  0  0  0  0  0  0
  1  2  2  0  0  0  0
  2  3  1  0  0  0  0
  2 14  1  0  0  0  0
  3  4  1  0  0  0  0
  3 23  1  0  0  0  0
  3 24  1  0  0  0  0
  4 12  1  0  0  0  0
  4  5  1  0  0  0  0
  5  6  2  0  0  0  0
  5 25  1  0  0  0  0
  6  7  1  0  0  0  0
  6 10  1  0  0  0  0
  7  8  2  0  0  0  0
  7  9  1  0  0  0  0
 10 11  2  0  0  0  0
 10 26  1  0  0  0  0
 11 12  1  0  0  0  0
 11 27  1  0  0  0  0
 12 13  2  0  0  0  0
 14 15  1  0  0  0  0
 14 28  1  0  0  0  0
 15 22  1  0  0  0  0
 15 16  1  0  0  0  0
 15 29  1  0  0  0  0
 16 17  1  0  0  0  0
 16 30  1  0  0  0  0
 16 31  1  0  0  0  0
 17 18  1  0  0  0  0
 17 32  1  0  0  0  0
 17 33  1  0  0  0  0
 18 19  1  0  0  0  0
 18 34  1  0  0  0  0
 18 35  1  0  0  0  0
 19 20  1  0  0  0  0
 19 36  1  0  0  0  0
 19 37  1  0  0  0  0
 20 21  1  0  0  0  0
 20 38  1  0  0  0  0
 20 39  1  0  0  0  0
 21 22  1  0  0  0  0
 21 40  1  0  0  0  0
 21 41  1  0  0  0  0
 22 42  1  0  0  0  0
 22 43  1  0  0  0  0
M  CHG  1   7   1
M  CHG  1   9  -1
M  END
> <s_m_source_file>
AV-unprocessed.smi

> <i_m_source_file_index>
1411

> <i_lp_mmshare_version>
43012

> <i_f3d_flags>
0

> <s_epik_input>
Tz1jMVtjSF1bY0hdYyhbTitdKD1PKVtPLV0pW2NIXW4xW0NIMl1DKD1PKVtOSF1bQ0hdMltDSDJdW0NIMl1bQ0gyXVtDSDJdW0NIMl1bQ0gyXVtDSDJdMg==

> <s_epik_cmdline>
J2VwaWtfcHl0aG9uJywgJy1waCcsICc3LjAnLCAnLXRuJywgJzgnLCAnLW1hJywgJzIwMCcsICctbWV0YWxfYmluZGluZycsICctaW1hZScsICc8aW5maWxlLm1hZT4nLCAnLW9tYWUnLCAnPG91dGZpbGUubWFlPic=

> <r_lp_tautomer_probability>
1

> <r_epik_Ionization_Penalty>
2.02954e-08

> <r_epik_Ionization_Penalty_Charging>
8.05481e-11

> <r_epik_Ionization_Penalty_Neutral>
2.02148e-08

> <r_epik_State_Penalty>
-0

> <r_epik_Charging_Adjusted_Penalty>
8.05481e-11

> <i_epik_Tot_Q>
0

> <i_epik_Tot_abs_Q>
2

> <r_epik_Metal_State_Penalty>
-0

> <b_epik_Metal_Only>
0

> <s_lp_Force_Field>
OPLS_2005

> <r_lp_Energy>
31.3753

> <b_lp_Chiralities_Consistent>
1

> <s_lp_Variant>
AV-unprocessed.smi:1411-1

> <Gold.Version>
5.8.1

> <Gold.Id.Protein>
6NUR|6NUR_protein|mol2

> <Gold.PLP.Fitness>
44.5812

> <Gold.PLP.PLP>
-33.7619

> <Gold.PLP.part.hbond>
-3.0000

> <Gold.PLP.part.metal>
0.0000

> <Gold.PLP.part.buried>
0.2171

> <Gold.PLP.part.nonpolar>
-30.9393

> <Gold.PLP.part.repulsive>
0.3660

> <Gold.PLP.ligand.clash>
0.0000

> <Gold.PLP.ligand.torsion>
0.5700

> <Gold.PLP.Chemscore.Hbond>
2.9680

> <Gold.PLP.Chemscore.CHOScore>
1.0000

> <Gold.PLP.Chemscore.Metal>
0.0000

> <Gold.Chemscore.Hbonds>
donor molecule, donor type, donor heavy atom, donor atom, acceptor molecule, acceptor atom, score
      L1  H    14    28       P1  7948  0.86
      P1  H 10752 10763       L1     8  0.91
      L1  C     5    25       P1  7948  1.00

> <Gold.PLP.Chemscore.Internal.Correction>
0.0553

> <Gold.Rescore>
     Score         DG    S(hbond)    S(metal)    S(lipo)     H(rot)  DE(clash)    DE(int)     intcor
     17.70     -18.52       2.89        0.00      62.54       1.54       0.20       0.61       ----

> <Gold.Chemscore.Fitness>
17.7032

> <Gold.Chemscore.DG>
-18.5176

> <Gold.Chemscore.ZeroCoef>
-5.4800

> <Gold.Chemscore.Hbond>
2.8925

> <Gold.Chemscore.Metal>
0.0000

> <Gold.Chemscore.Lipo>
62.5407

> <Gold.Chemscore.Internal_Hbond>
0.0000

> <Gold.Chemscore.DEClash>
0.1999

> <Gold.Chemscore.DEInternal>
0.6145

> <Gold.Chemscore.Rot>
1.5393

> <Gold.Chemscore.Internal.Correction>
   9.000000E+99

> <Gold.Chemscore.Hbonds>
donor molecule, donor type, donor heavy atom, donor atom, acceptor molecule, acceptor atom, score
      L1  H    14    28       P1  7948  0.85
      P1  H  7997  8008       L1     9  0.01
      P1  H 10752 10763       L1     8  0.85

> <Gold.Chemscore.Hbond.Weighted>
-9.6610

> <Gold.Chemscore.Metal.Weighted>
-0.0000

> <Gold.Chemscore.Lipo.Weighted>
-7.3173

> <Gold.Chemscore.Internal_Hbond.Weighted>
0.0000

> <Gold.Chemscore.DEClash.Weighted>
0.1999

> <Gold.Chemscore.DEInternal.Weighted>
0.6145

> <Gold.Chemscore.Rot.Weighted>
3.9407

> <Gold.Chemscore.Internal.Correction.Weighted>
   9.000000E+99

> <Gold.Protein.RotatedTorsions>
[ 6907 6896 6895 6894 ] final    7.60 input  -60.11 | X-H torsion
[ 7974 7965 7964 7962 ] final  114.22 input  175.53 | X-H torsion
[ 8008 7997 7996 7995 ] final  -19.83 input   59.86 | X-H torsion
[ 10167 10162 10161 10158 ] final -122.56 input  -65.29 | X-H torsion
[ 10718 10713 10712 10709 ] final -100.52 input   66.30 | X-H torsion
[ 10763 10752 10751 10750 ] final   51.00 input  -60.55 | X-H torsion
[ 11005 11000 10999 10996 ] final   13.65 input  -57.11 | X-H torsion

> <Gold.Protein.ActiveResidues>
 VAL166  LYS551  ARG553  GLY616  TRP617  ASP618  TYR619  PRO620  LYS621  CYS622 
 ASP623  PHE694  ASN695  SER759  ASP760  ASP761  ALA762  ILE779  LEU786  VAL792 
 PHE793  MET794  SER795  GLU796  ALA797  LYS798  CYS799  TRP800  GLU811  SER814 

> <Gold.Protein.RotatedAtoms>
  151.6925  135.0944  160.0235 H   0  0  0  0  0  0  0  0  0  0  0  0  # atno 6907 bound_to 6896
  152.3770  133.6490  159.6140 H   0  0  0  0  0  0  0  0  0  0  0  0  # atno 6908 bound_to 6896
  150.7717  133.9093  159.3406 H   0  0  0  0  0  0  0  0  0  0  0  0  # atno 6909 bound_to 6896
  145.2071  139.2924  143.4288 H   0  0  0  0  0  0  0  0  0  0  0  0  # atno 7974 bound_to 7965
  154.4810  140.2078  155.9764 H   0  0  0  0  0  0  0  0  0  0  0  0  # atno 8008 bound_to 7997
  156.1165  140.3220  155.8116 H   0  0  0  0  0  0  0  0  0  0  0  0  # atno 8009 bound_to 7997
  155.4544  140.0519  157.2988 H   0  0  0  0  0  0  0  0  0  0  0  0  # atno 8010 bound_to 7997
  140.0129  143.5423  152.2255 H   0  0  0  0  0  0  0  0  0  0  0  0  # atno 10167 bound_to 10162
  156.0166  130.5331  150.6829 H   0  0  0  0  0  0  0  0  0  0  0  0  # atno 10718 bound_to 10713
  152.9785  135.5860  154.4344 H   0  0  0  0  0  0  0  0  0  0  0  0  # atno 10763 bound_to 10752
  154.3953  135.2768  155.2132 H   0  0  0  0  0  0  0  0  0  0  0  0  # atno 10764 bound_to 10752
  154.3986  135.6108  153.5938 H   0  0  0  0  0  0  0  0  0  0  0  0  # atno 10765 bound_to 10752
  140.4783  134.0961  155.7746 H   0  0  0  0  0  0  0  0  0  0  0  0  # atno 11005 bound_to 11000
  146.3405  140.2334  142.8594 LP  0  0  0  0  0  0  0  0  0  0  0  0  # atno 17320 bound_to 7965
  144.9892  140.8531  143.5350 LP  0  0  0  0  0  0  0  0  0  0  0  0  # atno 17321 bound_to 7965
  139.6193  144.7626  151.2777 LP  0  0  0  0  0  0  0  0  0  0  0  0  # atno 17342 bound_to 10162
  140.7374  143.6679  150.8107 LP  0  0  0  0  0  0  0  0  0  0  0  0  # atno 17343 bound_to 10162
  157.4528  131.0874  151.0828 LP  0  0  0  0  0  0  0  0  0  0  0  0  # atno 17370 bound_to 10713
  157.1339  130.6114  149.5537 LP  0  0  0  0  0  0  0  0  0  0  0  0  # atno 17371 bound_to 10713
  141.1544  133.8910  157.2016 LP  0  0  0  0  0  0  0  0  0  0  0  0  # atno 17394 bound_to 11000
  139.9842  135.0088  156.9823 LP  0  0  0  0  0  0  0  0  0  0  0  0  # atno 17395 bound_to 11000

$$$$
