AV-unprocessed.smi:2194|AV-procd|sdf|8902|dock10
  -GOLD-   2272012113D 1   1.00000     0.00000
 Structure written by MMmdl.
 45 47  0  0  0  0  0  0  0  0  1 V2000
  152.5322  143.1351  161.2312 C   0  0  0  0  0  0  0  0  0  0  0  0
  152.0627  142.5664  159.9080 C   0  0  0  0  0  0  0  0  0  0  0  0
  152.4249  141.2608  159.5210 C   0  0  0  0  0  0  0  0  0  0  0  0
  151.9833  140.7418  158.2887 C   0  0  0  0  0  0  0  0  0  0  0  0
  151.1753  141.5120  157.4274 C   0  0  0  0  0  0  0  0  0  0  0  0
  150.7875  140.9250  156.2423 O   0  0  0  0  0  0  0  0  0  0  0  0
  149.7464  141.5399  155.4931 C   0  0  0  0  0  0  0  0  0  0  0  0
  149.1068  140.5140  154.5432 C   0  0  2  0  0  0  0  0  0  0  0  0
  150.1189  139.9074  153.7637 O   0  0  0  0  0  0  0  0  0  0  0  0
  147.9763  141.0984  153.6715 C   0  0  0  0  0  0  0  0  0  0  0  0
  146.9031  141.6753  154.4673 N   0  0  0  0  0  0  0  0  0  0  0  0
  146.3447  142.8891  154.2841 C   0  0  0  0  0  0  0  0  0  0  0  0
  145.3770  143.2137  155.1423 N   0  0  0  0  0  0  0  0  0  0  0  0
  145.3165  142.0843  155.9509 C   0  0  0  0  0  0  0  0  0  0  0  0
  146.2201  141.1517  155.5647 C   0  0  0  0  0  0  0  0  0  0  0  0
  146.3747  139.8643  156.2484 C   0  0  0  0  0  0  0  0  0  0  0  0
  147.2098  139.0361  155.8820 O   0  0  0  0  0  0  0  0  0  0  0  0
  145.5209  139.6883  157.3046 N   0  0  0  0  0  0  0  0  0  0  0  0
  145.6440  138.4002  158.0136 C   0  0  0  0  0  0  0  0  0  0  0  0
  144.5805  140.6109  157.7352 C   0  0  0  0  0  0  0  0  0  0  0  0
  143.8465  140.3748  158.6977 O   0  0  0  0  0  0  0  0  0  0  0  0
  144.4824  141.8054  157.0619 N   0  0  0  0  0  0  0  0  0  0  0  0
  143.5228  142.8429  157.4527 C   0  0  0  0  0  0  0  0  0  0  0  0
  150.8154  142.8252  157.8228 C   0  0  0  0  0  0  0  0  0  0  0  0
  151.2578  143.3458  159.0544 C   0  0  0  0  0  0  0  0  0  0  0  0
  153.0934  142.3971  161.8053 H   0  0  0  0  0  0  0  0  0  0  0  0
  151.6785  143.4539  161.8298 H   0  0  0  0  0  0  0  0  0  0  0  0
  153.1764  143.9986  161.0635 H   0  0  0  0  0  0  0  0  0  0  0  0
  153.0412  140.6520  160.1660 H   0  0  0  0  0  0  0  0  0  0  0  0
  152.2662  139.7394  158.0021 H   0  0  0  0  0  0  0  0  0  0  0  0
  148.9890  141.9695  156.1515 H   0  0  0  0  0  0  0  0  0  0  0  0
  150.1682  142.3518  154.8982 H   0  0  0  0  0  0  0  0  0  0  0  0
  148.6872  139.7159  155.1568 H   0  0  0  0  0  0  0  0  0  0  0  0
  149.7844  139.7688  152.8910 H   0  0  0  0  0  0  0  0  0  0  0  0
  148.3788  141.8833  153.0297 H   0  0  0  0  0  0  0  0  0  0  0  0
  147.5641  140.3484  152.9982 H   0  0  0  0  0  0  0  0  0  0  0  0
  146.6611  143.5581  153.4971 H   0  0  0  0  0  0  0  0  0  0  0  0
  144.9720  138.2720  158.8623 H   0  0  0  0  0  0  0  0  0  0  0  0
  146.6562  138.2741  158.4019 H   0  0  0  0  0  0  0  0  0  0  0  0
  145.4424  137.5717  157.3324 H   0  0  0  0  0  0  0  0  0  0  0  0
  142.8868  142.5757  158.2969 H   0  0  0  0  0  0  0  0  0  0  0  0
  142.8650  143.0756  156.6146 H   0  0  0  0  0  0  0  0  0  0  0  0
  144.0542  143.7559  157.7232 H   0  0  0  0  0  0  0  0  0  0  0  0
  150.2010  143.4553  157.1983 H   0  0  0  0  0  0  0  0  0  0  0  0
  150.9765  144.3479  159.3428 H   0  0  0  0  0  0  0  0  0  0  0  0
  1  2  1  0  0  0  0
  1 26  1  0  0  0  0
  1 27  1  0  0  0  0
  1 28  1  0  0  0  0
  2 25  1  0  0  0  0
  2  3  2  0  0  0  0
  3  4  1  0  0  0  0
  3 29  1  0  0  0  0
  4  5  2  0  0  0  0
  4 30  1  0  0  0  0
  5  6  1  0  0  0  0
  5 24  1  0  0  0  0
  6  7  1  0  0  0  0
  7  8  1  0  0  0  0
  7 31  1  0  0  0  0
  7 32  1  0  0  0  0
  8  9  1  0  0  0  0
  8 10  1  0  0  0  0
  8 33  1  0  0  0  0
  9 34  1  0  0  0  0
 10 11  1  0  0  0  0
 10 35  1  0  0  0  0
 10 36  1  0  0  0  0
 11 15  1  0  0  0  0
 11 12  1  0  0  0  0
 12 13  2  0  0  0  0
 12 37  1  0  0  0  0
 13 14  1  0  0  0  0
 14 22  1  0  0  0  0
 14 15  2  0  0  0  0
 15 16  1  0  0  0  0
 16 17  2  0  0  0  0
 16 18  1  0  0  0  0
 18 19  1  0  0  0  0
 18 20  1  0  0  0  0
 19 38  1  0  0  0  0
 19 39  1  0  0  0  0
 19 40  1  0  0  0  0
 20 21  2  0  0  0  0
 20 22  1  0  0  0  0
 22 23  1  0  0  0  0
 23 41  1  0  0  0  0
 23 42  1  0  0  0  0
 23 43  1  0  0  0  0
 24 25  2  0  0  0  0
 24 44  1  0  0  0  0
 25 45  1  0  0  0  0
M  END
> <s_m_source_file>
AV-unprocessed.smi

> <i_m_source_file_index>
2194

> <i_lp_mmshare_version>
43012

> <i_f3d_flags>
0

> <s_epik_input>
W0NIM11jMVtjSF1bY0hdYyhbY0hdW2NIXTEpT1tDSDJdW0NASF0oW09IXSlbQ0gyXW4oW2NIXW4yKWMoYzIzKWMoPU8pbihbQ0gzXSljKD1PKW4zW0NIM10=

> <s_epik_cmdline>
J2VwaWtfcHl0aG9uJywgJy1waCcsICc3LjAnLCAnLXRuJywgJzgnLCAnLW1hJywgJzIwMCcsICctbWV0YWxfYmluZGluZycsICctaW1hZScsICc8aW5maWxlLm1hZT4nLCAnLW9tYWUnLCAnPG91dGZpbGUubWFlPic=

> <r_lp_tautomer_probability>
1

> <r_epik_Ionization_Penalty>
1.06124e-06

> <r_epik_Ionization_Penalty_Charging>
3.25921e-09

> <r_epik_Ionization_Penalty_Neutral>
1.05798e-06

> <r_epik_State_Penalty>
-0

> <r_epik_Charging_Adjusted_Penalty>
3.25921e-09

> <i_epik_Tot_Q>
0

> <i_epik_Tot_abs_Q>
0

> <r_epik_Metal_State_Penalty>
-0

> <b_epik_Metal_Only>
0

> <s_lp_Force_Field>
OPLS_2005

> <r_lp_Energy>
41.6396

> <b_lp_Chiralities_Consistent>
1

> <s_lp_Variant>
AV-unprocessed.smi:2194-1

> <Gold.Version>
5.8.1

> <Gold.Id.Protein>
6NUR|6NUR_protein|mol2

> <Gold.PLP.Fitness>
44.8645

> <Gold.PLP.PLP>
-39.9230

> <Gold.PLP.part.hbond>
-2.0000

> <Gold.PLP.part.metal>
0.0000

> <Gold.PLP.part.buried>
-4.7816

> <Gold.PLP.part.nonpolar>
-34.1830

> <Gold.PLP.part.repulsive>
0.2478

> <Gold.PLP.ligand.clash>
0.0000

> <Gold.PLP.ligand.torsion>
0.4074

> <Gold.PLP.Chemscore.Hbond>
1.9120

> <Gold.PLP.Chemscore.CHOScore>
0.0000

> <Gold.PLP.Chemscore.Metal>
0.0000

> <Gold.Chemscore.Hbonds>
donor molecule, donor type, donor heavy atom, donor atom, acceptor molecule, acceptor atom, score
      L1  H     9    34       P1  7957  1.00
      P1  H  7989  7998       L1     9  0.86

> <Gold.PLP.Chemscore.Internal.Correction>
0.0204

> <Gold.Rescore>
     Score         DG    S(hbond)    S(metal)    S(lipo)     H(rot)  DE(clash)    DE(int)     intcor
     13.05     -14.67       1.55        0.00      93.18       2.69       0.03       1.59       ----

> <Gold.Chemscore.Fitness>
13.0519

> <Gold.Chemscore.DG>
-14.6683

> <Gold.Chemscore.ZeroCoef>
-5.4800

> <Gold.Chemscore.Hbond>
1.5475

> <Gold.Chemscore.Metal>
0.0000

> <Gold.Chemscore.Lipo>
93.1798

> <Gold.Chemscore.Internal_Hbond>
0.0000

> <Gold.Chemscore.DEClash>
0.0313

> <Gold.Chemscore.DEInternal>
1.5851

> <Gold.Chemscore.Rot>
2.6885

> <Gold.Chemscore.Internal.Correction>
   9.000000E+99

> <Gold.Chemscore.Hbonds>
donor molecule, donor type, donor heavy atom, donor atom, acceptor molecule, acceptor atom, score
      L1  H     9    34       P1  7957  0.99
      P1  H  7989  7998       L1     9  0.28

> <Gold.Chemscore.Hbond.Weighted>
-5.1688

> <Gold.Chemscore.Metal.Weighted>
-0.0000

> <Gold.Chemscore.Lipo.Weighted>
-10.9020

> <Gold.Chemscore.Internal_Hbond.Weighted>
0.0000

> <Gold.Chemscore.DEClash.Weighted>
0.0313

> <Gold.Chemscore.DEInternal.Weighted>
1.5851

> <Gold.Chemscore.Rot.Weighted>
6.8825

> <Gold.Chemscore.Internal.Correction.Weighted>
   9.000000E+99

> <Gold.Protein.RotatedTorsions>
[ 6907 6896 6895 6894 ] final   48.51 input  -60.11 | X-H torsion
[ 7974 7965 7964 7962 ] final   98.87 input  175.53 | X-H torsion
[ 8008 7997 7996 7995 ] final  -61.44 input   59.86 | X-H torsion
[ 10167 10162 10161 10158 ] final -167.27 input  -65.29 | X-H torsion
[ 10718 10713 10712 10709 ] final -146.11 input   66.30 | X-H torsion
[ 10763 10752 10751 10750 ] final  -97.57 input  -60.55 | X-H torsion
[ 11005 11000 10999 10996 ] final   46.12 input  -57.11 | X-H torsion

> <Gold.Protein.ActiveResidues>
 VAL166  LYS551  ARG553  GLY616  TRP617  ASP618  TYR619  PRO620  LYS621  CYS622 
 ASP623  PHE694  ASN695  SER759  ASP760  ASP761  ALA762  ILE779  LEU786  VAL792 
 PHE793  MET794  SER795  GLU796  ALA797  LYS798  CYS799  TRP800  GLU811  SER814 

> <Gold.Protein.RotatedAtoms>
  152.2804  134.7835  160.0397 H   0  0  0  0  0  0  0  0  0  0  0  0  # atno 6907 bound_to 6896
  151.8417  133.3419  159.3653 H   0  0  0  0  0  0  0  0  0  0  0  0  # atno 6908 bound_to 6896
  150.7187  134.5313  159.5746 H   0  0  0  0  0  0  0  0  0  0  0  0  # atno 6909 bound_to 6896
  145.4064  139.2340  143.3272 H   0  0  0  0  0  0  0  0  0  0  0  0  # atno 7974 bound_to 7965
  154.4448  140.1018  156.6430 H   0  0  0  0  0  0  0  0  0  0  0  0  # atno 8008 bound_to 7997
  155.5480  140.3485  155.4443 H   0  0  0  0  0  0  0  0  0  0  0  0  # atno 8009 bound_to 7997
  156.0549  140.1312  156.9997 H   0  0  0  0  0  0  0  0  0  0  0  0  # atno 8010 bound_to 7997
  139.6060  144.0911  152.1793 H   0  0  0  0  0  0  0  0  0  0  0  0  # atno 10167 bound_to 10162
  156.3908  130.7884  151.2086 H   0  0  0  0  0  0  0  0  0  0  0  0  # atno 10718 bound_to 10713
  154.7339  135.5041  153.9009 H   0  0  0  0  0  0  0  0  0  0  0  0  # atno 10763 bound_to 10752
  153.0976  135.6676  153.9741 H   0  0  0  0  0  0  0  0  0  0  0  0  # atno 10764 bound_to 10752
  153.9536  135.3055  155.3416 H   0  0  0  0  0  0  0  0  0  0  0  0  # atno 10765 bound_to 10752
  140.1398  134.4598  155.8458 H   0  0  0  0  0  0  0  0  0  0  0  0  # atno 11005 bound_to 11000
  146.2726  140.4769  142.8808 LP  0  0  0  0  0  0  0  0  0  0  0  0  # atno 17320 bound_to 7965
  144.8339  140.6750  143.6273 LP  0  0  0  0  0  0  0  0  0  0  0  0  # atno 17321 bound_to 7965
  140.0519  144.5926  150.7330 LP  0  0  0  0  0  0  0  0  0  0  0  0  # atno 17342 bound_to 10162
  140.7285  143.2663  151.4035 LP  0  0  0  0  0  0  0  0  0  0  0  0  # atno 17343 bound_to 10162
  157.7499  131.0316  150.4189 LP  0  0  0  0  0  0  0  0  0  0  0  0  # atno 17370 bound_to 10713
  156.4450  130.3999  149.6672 LP  0  0  0  0  0  0  0  0  0  0  0  0  # atno 17371 bound_to 10713
  141.2184  133.6828  156.7225 LP  0  0  0  0  0  0  0  0  0  0  0  0  # atno 17394 bound_to 11000
  140.2737  134.8372  157.3870 LP  0  0  0  0  0  0  0  0  0  0  0  0  # atno 17395 bound_to 11000

$$$$
