AV-unprocessed.smi:1100|AV-procd|sdf|4759|dock3
  -GOLD-   22720 3293D 1   1.00000     0.00000
 Structure written by MMmdl.
 43 44  0  0  0  0  0  0  0  0  1 V2000
  147.5419  138.2818  157.3335 C   0  0  0  0  0  0  0  0  0  0  0  0
  148.2473  137.8788  156.0132 C   0  0  2  0  0  0  0  0  0  0  0  0
  148.1349  136.3363  155.8350 C   0  0  0  0  0  0  0  0  0  0  0  0
  147.8944  135.9244  154.4545 N   0  0  0  0  0  0  0  0  0  0  0  0
  146.8518  135.1906  154.0398 C   0  0  0  0  0  0  0  0  0  0  0  0
  145.9676  134.7913  154.7967 O   0  0  0  0  0  0  0  0  0  0  0  0
  146.9173  134.9703  152.7140 N   0  0  0  0  0  0  0  0  0  0  0  0
  146.0533  134.2280  151.8968 C   0  0  0  0  0  0  0  0  0  0  0  0
  145.1254  134.7861  150.9233 C   0  0  0  0  0  0  0  0  0  0  0  0
  144.3334  133.9833  150.1848 C   0  0  0  0  0  0  0  0  0  0  0  0
  144.3678  132.5255  150.3258 C   0  0  0  0  0  0  0  0  0  0  0  0
  143.6560  131.7822  149.6499 O   0  0  0  0  0  0  0  0  0  0  0  0
  145.2396  132.0449  151.2583 N   0  0  0  0  0  0  0  0  0  0  0  0
  145.3460  130.6008  151.4806 C   0  0  0  0  0  0  0  0  0  0  0  0
  146.0642  132.8888  152.0255 C   0  0  0  0  0  0  0  0  0  0  0  0
  149.6404  138.3767  155.9314 N   0  0  0  0  0  0  0  0  0  0  0  0
  150.3182  137.9639  154.6965 C   0  0  0  0  0  0  0  0  0  0  0  0
  151.7542  138.5060  154.5920 C   0  0  0  0  0  0  0  0  0  0  0  0
  151.7410  139.9233  154.6910 O   0  0  0  0  0  0  0  0  0  0  0  0
  151.1625  140.3663  155.9106 C   0  0  0  0  0  0  0  0  0  0  0  0
  149.7214  139.8393  156.0218 C   0  0  0  0  0  0  0  0  0  0  0  0
  146.5355  137.8721  157.4101 H   0  0  0  0  0  0  0  0  0  0  0  0
  147.4137  139.3596  157.4214 H   0  0  0  0  0  0  0  0  0  0  0  0
  148.1033  137.9359  158.2019 H   0  0  0  0  0  0  0  0  0  0  0  0
  147.6833  138.3389  155.2005 H   0  0  0  0  0  0  0  0  0  0  0  0
  149.0363  135.8192  156.1606 H   0  0  0  0  0  0  0  0  0  0  0  0
  147.3207  135.9513  156.4496 H   0  0  0  0  0  0  0  0  0  0  0  0
  148.5759  136.2155  153.7689 H   0  0  0  0  0  0  0  0  0  0  0  0
  147.6945  135.3951  152.2297 H   0  0  0  0  0  0  0  0  0  0  0  0
  145.0326  135.8489  150.7718 H   0  0  0  0  0  0  0  0  0  0  0  0
  143.6505  134.4245  149.4737 H   0  0  0  0  0  0  0  0  0  0  0  0
  146.0291  130.3483  152.2921 H   0  0  0  0  0  0  0  0  0  0  0  0
  145.7096  130.1037  150.5803 H   0  0  0  0  0  0  0  0  0  0  0  0
  144.3732  130.1767  151.7341 H   0  0  0  0  0  0  0  0  0  0  0  0
  146.7123  132.3766  152.7224 H   0  0  0  0  0  0  0  0  0  0  0  0
  150.3883  136.8799  154.6371 H   0  0  0  0  0  0  0  0  0  0  0  0
  149.7425  138.2937  153.8303 H   0  0  0  0  0  0  0  0  0  0  0  0
  152.3843  138.0842  155.3764 H   0  0  0  0  0  0  0  0  0  0  0  0
  152.1976  138.2204  153.6381 H   0  0  0  0  0  0  0  0  0  0  0  0
  151.7652  140.0259  156.7542 H   0  0  0  0  0  0  0  0  0  0  0  0
  151.1694  141.4562  155.9316 H   0  0  0  0  0  0  0  0  0  0  0  0
  149.1093  140.2928  155.2406 H   0  0  0  0  0  0  0  0  0  0  0  0
  149.3283  140.1879  156.9750 H   0  0  0  0  0  0  0  0  0  0  0  0
  1  2  1  0  0  0  0
  1 22  1  0  0  0  0
  1 23  1  0  0  0  0
  1 24  1  0  0  0  0
  2  3  1  0  0  0  0
  2 16  1  0  0  0  0
  2 25  1  0  0  0  0
  3  4  1  0  0  0  0
  3 26  1  0  0  0  0
  3 27  1  0  0  0  0
  4  5  1  0  0  0  0
  4 28  1  0  0  0  0
  5  6  2  0  0  0  0
  5  7  1  0  0  0  0
  7  8  1  0  0  0  0
  7 29  1  0  0  0  0
  8 15  2  0  0  0  0
  8  9  1  0  0  0  0
  9 10  2  0  0  0  0
  9 30  1  0  0  0  0
 10 11  1  0  0  0  0
 10 31  1  0  0  0  0
 11 12  2  0  0  0  0
 11 13  1  0  0  0  0
 13 14  1  0  0  0  0
 13 15  1  0  0  0  0
 14 32  1  0  0  0  0
 14 33  1  0  0  0  0
 14 34  1  0  0  0  0
 15 35  1  0  0  0  0
 16 21  1  0  0  0  0
 16 17  1  0  0  0  0
 17 18  1  0  0  0  0
 17 36  1  0  0  0  0
 17 37  1  0  0  0  0
 18 19  1  0  0  0  0
 18 38  1  0  0  0  0
 18 39  1  0  0  0  0
 19 20  1  0  0  0  0
 20 21  1  0  0  0  0
 20 40  1  0  0  0  0
 20 41  1  0  0  0  0
 21 42  1  0  0  0  0
 21 43  1  0  0  0  0
M  END
> <s_m_source_file>
AV-unprocessed.smi

> <i_m_source_file_index>
1100

> <i_lp_mmshare_version>
43012

> <i_f3d_flags>
0

> <s_epik_input>
W0NIMl0xW0NIMl1PW0NIMl1bQ0gyXU4xW0NASF0oW0NIM10pW0NIMl1bTkhdQyg9TylbTkhdYzJbY0hdW2NIXWMoPU8pbihbQ0gzXSlbY0hdMg==

> <s_epik_cmdline>
J2VwaWtfcHl0aG9uJywgJy1waCcsICc3LjAnLCAnLXRuJywgJzgnLCAnLW1hJywgJzIwMCcsICctbWV0YWxfYmluZGluZycsICctaW1hZScsICc8aW5maWxlLm1hZT4nLCAnLW9tYWUnLCAnPG91dGZpbGUubWFlPic=

> <r_lp_tautomer_probability>
1

> <r_epik_Ionization_Penalty>
0.266016

> <r_epik_Ionization_Penalty_Charging>
5.79683e-06

> <r_epik_Ionization_Penalty_Neutral>
0.26601

> <r_epik_State_Penalty>
0.257924

> <r_epik_Charging_Adjusted_Penalty>
0.25793

> <i_epik_Tot_Q>
0

> <i_epik_Tot_abs_Q>
0

> <r_epik_Metal_State_Penalty>
0.260326

> <b_epik_Metal_Only>
0

> <s_lp_Force_Field>
OPLS_2005

> <r_lp_Energy>
41.8129

> <b_lp_Chiralities_Consistent>
1

> <s_lp_Variant>
AV-unprocessed.smi:1100-1

> <Gold.Version>
5.8.1

> <Gold.Id.Protein>
6NUR|6NUR_protein|mol2

> <Gold.PLP.Fitness>
41.2295

> <Gold.PLP.PLP>
-32.0206

> <Gold.PLP.part.hbond>
-3.8053

> <Gold.PLP.part.metal>
0.0000

> <Gold.PLP.part.buried>
-5.7495

> <Gold.PLP.part.nonpolar>
-23.6156

> <Gold.PLP.part.repulsive>
0.3517

> <Gold.PLP.ligand.clash>
0.0000

> <Gold.PLP.ligand.torsion>
1.1733

> <Gold.PLP.Chemscore.Hbond>
3.8400

> <Gold.PLP.Chemscore.CHOScore>
0.0000

> <Gold.PLP.Chemscore.Metal>
0.0000

> <Gold.Chemscore.Hbonds>
donor molecule, donor type, donor heavy atom, donor atom, acceptor molecule, acceptor atom, score
      L1  H     4    28       P1  7948  0.88
      L1  H     7    29       P1  7948  0.99
      P1  H  7989  7998       L1    19  0.96
      P1  H 10785 10796       L1    12  0.93

> <Gold.PLP.Chemscore.Internal.Correction>
0.0355

> <Gold.Rescore>
     Score         DG    S(hbond)    S(metal)    S(lipo)     H(rot)  DE(clash)    DE(int)     intcor
     19.89     -21.15       3.78        0.00      58.70       1.49       0.07       1.20       ----

> <Gold.Chemscore.Fitness>
19.8928

> <Gold.Chemscore.DG>
-21.1543

> <Gold.Chemscore.ZeroCoef>
-5.4800

> <Gold.Chemscore.Hbond>
3.7816

> <Gold.Chemscore.Metal>
0.0000

> <Gold.Chemscore.Lipo>
58.7011

> <Gold.Chemscore.Internal_Hbond>
0.0000

> <Gold.Chemscore.DEClash>
0.0653

> <Gold.Chemscore.DEInternal>
1.1961

> <Gold.Chemscore.Rot>
1.4938

> <Gold.Chemscore.Internal.Correction>
   9.000000E+99

> <Gold.Chemscore.Hbonds>
donor molecule, donor type, donor heavy atom, donor atom, acceptor molecule, acceptor atom, score
      L1  H     4    28       P1  7948  0.86
      L1  H     7    29       P1  7948  0.92
      P1  H  7989  7998       L1    19  0.82
      P1  H 10785 10796       L1    12  0.89

> <Gold.Chemscore.Hbond.Weighted>
-12.6304

> <Gold.Chemscore.Metal.Weighted>
-0.0000

> <Gold.Chemscore.Lipo.Weighted>
-6.8680

> <Gold.Chemscore.Internal_Hbond.Weighted>
0.0000

> <Gold.Chemscore.DEClash.Weighted>
0.0653

> <Gold.Chemscore.DEInternal.Weighted>
1.1961

> <Gold.Chemscore.Rot.Weighted>
3.8242

> <Gold.Chemscore.Internal.Correction.Weighted>
   9.000000E+99

> <Gold.Protein.RotatedTorsions>
[ 6907 6896 6895 6894 ] final  125.69 input  -60.11 | X-H torsion
[ 7974 7965 7964 7962 ] final   13.38 input  175.53 | X-H torsion
[ 8008 7997 7996 7995 ] final   29.25 input   59.86 | X-H torsion
[ 10167 10162 10161 10158 ] final  -60.42 input  -65.29 | X-H torsion
[ 10718 10713 10712 10709 ] final -178.37 input   66.30 | X-H torsion
[ 10763 10752 10751 10750 ] final   -9.22 input  -60.55 | X-H torsion
[ 11005 11000 10999 10996 ] final -119.54 input  -57.11 | X-H torsion

> <Gold.Protein.ActiveResidues>
 VAL166  LYS551  ARG553  GLY616  TRP617  ASP618  TYR619  PRO620  LYS621  CYS622 
 ASP623  PHE694  ASN695  SER759  ASP760  ASP761  ALA762  ILE779  LEU786  VAL792 
 PHE793  MET794  SER795  GLU796  ALA797  LYS798  CYS799  TRP800  GLU811  SER814 

> <Gold.Protein.RotatedAtoms>
  152.3969  133.6760  159.6283 H   0  0  0  0  0  0  0  0  0  0  0  0  # atno 6907 bound_to 6896
  150.7867  133.8858  159.3308 H   0  0  0  0  0  0  0  0  0  0  0  0  # atno 6908 bound_to 6896
  151.6632  135.0988  160.0235 H   0  0  0  0  0  0  0  0  0  0  0  0  # atno 6909 bound_to 6896
  146.2330  139.9197  142.8512 H   0  0  0  0  0  0  0  0  0  0  0  0  # atno 7974 bound_to 7965
  155.0715  140.3200  155.4629 H   0  0  0  0  0  0  0  0  0  0  0  0  # atno 8008 bound_to 7997
  156.2789  140.2111  156.5787 H   0  0  0  0  0  0  0  0  0  0  0  0  # atno 8009 bound_to 7997
  154.7051  140.0503  157.0483 H   0  0  0  0  0  0  0  0  0  0  0  0  # atno 8010 bound_to 7997
  140.6072  143.2377  151.5794 H   0  0  0  0  0  0  0  0  0  0  0  0  # atno 10167 bound_to 10162
  156.8432  130.9693  151.3098 H   0  0  0  0  0  0  0  0  0  0  0  0  # atno 10718 bound_to 10713
  153.4516  135.7015  153.6105 H   0  0  0  0  0  0  0  0  0  0  0  0  # atno 10763 bound_to 10752
  153.4438  135.3774  155.2244 H   0  0  0  0  0  0  0  0  0  0  0  0  # atno 10764 bound_to 10752
  154.8728  135.3980  154.3929 H   0  0  0  0  0  0  0  0  0  0  0  0  # atno 10765 bound_to 10752
  141.0208  134.0127  157.3285 H   0  0  0  0  0  0  0  0  0  0  0  0  # atno 11005 bound_to 11000
  145.2149  140.9911  143.4079 LP  0  0  0  0  0  0  0  0  0  0  0  0  # atno 17320 bound_to 7965
  144.9660  139.3930  143.6332 LP  0  0  0  0  0  0  0  0  0  0  0  0  # atno 17321 bound_to 7965
  139.5334  144.2851  152.1198 LP  0  0  0  0  0  0  0  0  0  0  0  0  # atno 17342 bound_to 10162
  140.2043  144.4626  150.6416 LP  0  0  0  0  0  0  0  0  0  0  0  0  # atno 17343 bound_to 10162
  157.6344  130.8755  149.9332 LP  0  0  0  0  0  0  0  0  0  0  0  0  # atno 17370 bound_to 10713
  156.0869  130.3667  150.0470 LP  0  0  0  0  0  0  0  0  0  0  0  0  # atno 17371 bound_to 10713
  139.9145  135.0195  156.7826 LP  0  0  0  0  0  0  0  0  0  0  0  0  # atno 17394 bound_to 11000
  140.6576  133.9675  155.7787 LP  0  0  0  0  0  0  0  0  0  0  0  0  # atno 17395 bound_to 11000

$$$$
