AV-unprocessed.smi:787|AV-procd|sdf|3728|dock2
  -GOLD-   22720 1163D 1   1.00000     0.00000
 Structure written by MMmdl.
 47 49  0  0  0  0  0  0  0  0  2 V2000
  150.6977  134.5241  155.9732 C   0  0  0  0  0  0  0  0  0  0  0  0
  150.2350  135.7066  155.2641 N   0  0  0  0  0  0  0  0  0  0  0  0
  150.9529  136.9085  155.3417 C   0  0  0  0  0  0  0  0  0  0  0  0
  152.2243  136.9013  155.8043 N   0  0  0  0  0  0  0  0  0  0  0  0
  152.8756  138.0695  155.8690 C   0  0  0  0  0  0  0  0  0  0  0  0
  152.4474  139.2948  155.5296 N   0  0  0  0  0  0  0  0  0  0  0  0
  151.1910  139.3130  155.0652 C   0  0  0  0  0  0  0  0  0  0  0  0
  150.5014  140.4351  154.6417 N   0  0  0  0  0  0  0  0  0  0  0  0
  149.3315  139.9141  154.2836 C   0  0  0  0  0  0  0  0  0  0  0  0
  149.1760  138.5811  154.4116 N   0  0  0  0  0  0  0  0  0  0  0  0
  147.9896  137.8160  154.0517 C   0  0  0  0  0  0  0  0  0  0  0  0
  147.0914  138.5250  153.0120 C   0  0  1  0  0  0  0  0  0  0  0  0
  147.7982  138.6013  151.7879 O   0  0  0  0  0  0  0  0  0  0  0  0
  145.7505  137.8013  152.7671 C   0  0  0  0  0  0  0  0  0  0  0  0
  145.9275  136.5238  152.0285 N   0  3  2  0  0  0  0  0  0  0  0  0
  145.5643  136.6406  150.5979 C   0  0  0  0  0  0  0  0  0  0  0  0
  145.2648  135.3671  152.6812 C   0  0  0  0  0  0  0  0  0  0  0  0
  145.1652  134.1757  151.7431 C   0  0  0  0  0  0  0  0  0  0  0  0
  146.3360  133.6223  151.1824 C   0  0  0  0  0  0  0  0  0  0  0  0
  146.2523  132.5078  150.3253 C   0  0  0  0  0  0  0  0  0  0  0  0
  144.9979  131.9429  150.0244 C   0  0  0  0  0  0  0  0  0  0  0  0
  143.8266  132.4943  150.5784 C   0  0  0  0  0  0  0  0  0  0  0  0
  143.9092  133.6104  151.4333 C   0  0  0  0  0  0  0  0  0  0  0  0
  150.3881  138.1380  154.9430 C   0  0  0  0  0  0  0  0  0  0  0  0
  150.0070  133.6975  155.8083 H   0  0  0  0  0  0  0  0  0  0  0  0
  150.7533  134.7134  157.0456 H   0  0  0  0  0  0  0  0  0  0  0  0
  151.6834  134.2204  155.6188 H   0  0  0  0  0  0  0  0  0  0  0  0
  149.3126  135.6992  154.8540 H   0  0  0  0  0  0  0  0  0  0  0  0
  153.8854  138.0181  156.2481 H   0  0  0  0  0  0  0  0  0  0  0  0
  148.5419  140.5387  153.8915 H   0  0  0  0  0  0  0  0  0  0  0  0
  148.2978  136.8411  153.6775 H   0  0  0  0  0  0  0  0  0  0  0  0
  147.4218  137.6161  154.9617 H   0  0  0  0  0  0  0  0  0  0  0  0
  146.9095  139.5435  153.3551 H   0  0  0  0  0  0  0  0  0  0  0  0
  148.5588  139.1497  151.9023 H   0  0  0  0  0  0  0  0  0  0  0  0
  145.2655  137.6264  153.7263 H   0  0  0  0  0  0  0  0  0  0  0  0
  145.0686  138.4422  152.2080 H   0  0  0  0  0  0  0  0  0  0  0  0
  144.4943  136.8180  150.4797 H   0  0  0  0  0  0  0  0  0  0  0  0
  145.8196  135.7273  150.0595 H   0  0  0  0  0  0  0  0  0  0  0  0
  146.1005  137.4623  150.1229 H   0  0  0  0  0  0  0  0  0  0  0  0
  145.7947  135.0966  153.5963 H   0  0  0  0  0  0  0  0  0  0  0  0
  144.2506  135.6393  152.9774 H   0  0  0  0  0  0  0  0  0  0  0  0
  147.3021  134.0482  151.4105 H   0  0  0  0  0  0  0  0  0  0  0  0
  147.1503  132.0854  149.8988 H   0  0  0  0  0  0  0  0  0  0  0  0
  144.9339  131.0881  149.3674 H   0  0  0  0  0  0  0  0  0  0  0  0
  142.8645  132.0610  150.3475 H   0  0  0  0  0  0  0  0  0  0  0  0
  143.0053  134.0246  151.8556 H   0  0  0  0  0  0  0  0  0  0  0  0
  146.9149  136.3142  152.0557 H   0  0  0  0  0  0  0  0  0  0  0  0
  1  2  1  0  0  0  0
  1 25  1  0  0  0  0
  1 26  1  0  0  0  0
  1 27  1  0  0  0  0
  2  3  1  0  0  0  0
  2 28  1  0  0  0  0
  3 24  1  0  0  0  0
  3  4  2  0  0  0  0
  4  5  1  0  0  0  0
  5  6  2  0  0  0  0
  5 29  1  0  0  0  0
  6  7  1  0  0  0  0
  7 24  2  0  0  0  0
  7  8  1  0  0  0  0
  8  9  2  0  0  0  0
  9 10  1  0  0  0  0
  9 30  1  0  0  0  0
 10 11  1  0  0  0  0
 10 24  1  0  0  0  0
 11 12  1  0  0  0  0
 11 31  1  0  0  0  0
 11 32  1  0  0  0  0
 12 13  1  0  0  0  0
 12 14  1  0  0  0  0
 12 33  1  0  0  0  0
 13 34  1  0  0  0  0
 14 15  1  0  0  0  0
 14 35  1  0  0  0  0
 14 36  1  0  0  0  0
 15 16  1  0  0  0  0
 15 17  1  0  0  0  0
 15 47  1  0  0  0  0
 16 37  1  0  0  0  0
 16 38  1  0  0  0  0
 16 39  1  0  0  0  0
 17 18  1  0  0  0  0
 17 40  1  0  0  0  0
 17 41  1  0  0  0  0
 18 23  1  0  0  0  0
 18 19  2  0  0  0  0
 19 20  1  0  0  0  0
 19 42  1  0  0  0  0
 20 21  2  0  0  0  0
 20 43  1  0  0  0  0
 21 22  1  0  0  0  0
 21 44  1  0  0  0  0
 22 23  2  0  0  0  0
 22 45  1  0  0  0  0
 23 46  1  0  0  0  0
M  CHG  1  15   1
M  END
> <s_m_source_file>
AV-unprocessed.smi

> <i_m_source_file_index>
787

> <i_lp_mmshare_version>
43012

> <i_f3d_flags>
0

> <s_epik_input>
bjFbY0hdbmMoW05IXVtDSDNdKWMoYzEyKW4oW2NIXW4yKVtDSDJdW0NASF0oW09IXSlbQ0gyXU4oW0NIM10pW0NIMl1jM1tjSF1bY0hdW2NIXVtjSF1bY0hdMw==

> <s_epik_cmdline>
J2VwaWtfcHl0aG9uJywgJy1waCcsICc3LjAnLCAnLXRuJywgJzgnLCAnLW1hJywgJzIwMCcsICctbWV0YWxfYmluZGluZycsICctaW1hZScsICc8aW5maWxlLm1hZT4nLCAnLW9tYWUnLCAnPG91dGZpbGUubWFlPic=

> <r_lp_tautomer_probability>
0.999987

> <r_epik_Ionization_Penalty>
0.0526284

> <r_epik_Ionization_Penalty_Charging>
0.0475377

> <r_epik_Ionization_Penalty_Neutral>
0.00509065

> <r_epik_State_Penalty>
0.0404888

> <r_epik_Charging_Adjusted_Penalty>
0.0880265

> <i_epik_Tot_Q>
1

> <i_epik_Tot_abs_Q>
1

> <r_epik_Metal_State_Penalty>
0.040507

> <b_epik_Metal_Only>
0

> <s_lp_Force_Field>
OPLS_2005

> <r_lp_Energy>
14.9507

> <b_lp_Chiralities_Consistent>
1

> <s_lp_Variant>
AV-unprocessed.smi:787-4

> <Gold.Version>
5.8.1

> <Gold.Id.Protein>
6NUR|6NUR_protein|mol2

> <Gold.PLP.Fitness>
55.3057

> <Gold.PLP.PLP>
-39.4036

> <Gold.PLP.part.hbond>
-5.7380

> <Gold.PLP.part.metal>
0.0000

> <Gold.PLP.part.buried>
1.5993

> <Gold.PLP.part.nonpolar>
-37.0843

> <Gold.PLP.part.repulsive>
0.2193

> <Gold.PLP.ligand.clash>
0.1065

> <Gold.PLP.ligand.torsion>
1.2901

> <Gold.PLP.Chemscore.Hbond>
5.9829

> <Gold.PLP.Chemscore.CHOScore>
0.0000

> <Gold.PLP.Chemscore.Metal>
0.0000

> <Gold.Chemscore.Hbonds>
donor molecule, donor type, donor heavy atom, donor atom, acceptor molecule, acceptor atom, score
      L1  H    13    34       P1  7957  0.85
      L1  H    15    47       P1  7948  2.00
      P1  H  7954  7966       L1    13  0.82
      P1  H  7989  7998       L1     8  0.80
      P1  H  7997  8010       L1     6  0.34
      P1  H 10752 10764       L1     4  0.98

> <Gold.PLP.Chemscore.Internal.Correction>
0.6401

> <Gold.Rescore>
     Score         DG    S(hbond)    S(metal)    S(lipo)     H(rot)  DE(clash)    DE(int)     intcor
     13.54     -18.05       3.17        0.00      86.92       3.19       3.21       1.30       ----

> <Gold.Chemscore.Fitness>
13.5435

> <Gold.Chemscore.DG>
-18.0531

> <Gold.Chemscore.ZeroCoef>
-5.4800

> <Gold.Chemscore.Hbond>
3.1668

> <Gold.Chemscore.Metal>
0.0000

> <Gold.Chemscore.Lipo>
86.9210

> <Gold.Chemscore.Internal_Hbond>
0.0000

> <Gold.Chemscore.DEClash>
3.2059

> <Gold.Chemscore.DEInternal>
1.3037

> <Gold.Chemscore.Rot>
3.1928

> <Gold.Chemscore.Internal.Correction>
   9.000000E+99

> <Gold.Chemscore.Hbonds>
donor molecule, donor type, donor heavy atom, donor atom, acceptor molecule, acceptor atom, score
      L1  H    13    34       P1  7957  0.78
      L1  H    15    47       P1  7948  0.93
      P1  H  7954  7966       L1    13  0.17
      P1  H  7989  7998       L1     8  0.11
      P1  H  7997  8010       L1     6  0.02
      P1  H 10752 10764       L1     4  0.49

> <Gold.Chemscore.Hbond.Weighted>
-10.5770

> <Gold.Chemscore.Metal.Weighted>
-0.0000

> <Gold.Chemscore.Lipo.Weighted>
-10.1698

> <Gold.Chemscore.Internal_Hbond.Weighted>
0.0000

> <Gold.Chemscore.DEClash.Weighted>
3.2059

> <Gold.Chemscore.DEInternal.Weighted>
1.3037

> <Gold.Chemscore.Rot.Weighted>
8.1736

> <Gold.Chemscore.Internal.Correction.Weighted>
   9.000000E+99

> <Gold.Protein.RotatedTorsions>
[ 6907 6896 6895 6894 ] final   11.93 input  -60.11 | X-H torsion
[ 7974 7965 7964 7962 ] final  -51.92 input  175.53 | X-H torsion
[ 8008 7997 7996 7995 ] final   90.16 input   59.86 | X-H torsion
[ 10167 10162 10161 10158 ] final  101.18 input  -65.29 | X-H torsion
[ 10718 10713 10712 10709 ] final -169.06 input   66.30 | X-H torsion
[ 10763 10752 10751 10750 ] final  -38.03 input  -60.55 | X-H torsion
[ 11005 11000 10999 10996 ] final   99.19 input  -57.11 | X-H torsion

> <Gold.Protein.ActiveResidues>
 VAL166  LYS551  ARG553  GLY616  TRP617  ASP618  TYR619  PRO620  LYS621  CYS622 
 ASP623  PHE694  ASN695  SER759  ASP760  ASP761  ALA762  ILE779  LEU786  VAL792 
 PHE793  MET794  SER795  GLU796  ALA797  LYS798  CYS799  TRP800  GLU811  SER814 

> <Gold.Protein.RotatedAtoms>
  151.7622  135.0807  160.0346 H   0  0  0  0  0  0  0  0  0  0  0  0  # atno 6907 bound_to 6896
  152.3345  133.5992  159.5841 H   0  0  0  0  0  0  0  0  0  0  0  0  # atno 6908 bound_to 6896
  150.7442  133.9732  159.3594 H   0  0  0  0  0  0  0  0  0  0  0  0  # atno 6909 bound_to 6896
  145.9137  140.7894  142.9682 H   0  0  0  0  0  0  0  0  0  0  0  0  # atno 7974 bound_to 7965
  156.0086  140.3352  155.6918 H   0  0  0  0  0  0  0  0  0  0  0  0  # atno 8008 bound_to 7997
  155.6189  140.0673  157.2702 H   0  0  0  0  0  0  0  0  0  0  0  0  # atno 8009 bound_to 7997
  154.4273  140.1780  156.1338 H   0  0  0  0  0  0  0  0  0  0  0  0  # atno 8010 bound_to 7997
  139.7461  144.6997  151.0502 H   0  0  0  0  0  0  0  0  0  0  0  0  # atno 10167 bound_to 10162
  156.7061  130.9215  151.3084 H   0  0  0  0  0  0  0  0  0  0  0  0  # atno 10718 bound_to 10713
  153.9061  135.6797  153.4753 H   0  0  0  0  0  0  0  0  0  0  0  0  # atno 10763 bound_to 10752
  153.1103  135.4786  154.9021 H   0  0  0  0  0  0  0  0  0  0  0  0  # atno 10764 bound_to 10752
  154.7551  135.3195  154.8440 H   0  0  0  0  0  0  0  0  0  0  0  0  # atno 10765 bound_to 10752
  139.8771  134.9084  156.4568 H   0  0  0  0  0  0  0  0  0  0  0  0  # atno 11005 bound_to 11000
  144.6745  140.1865  143.7401 LP  0  0  0  0  0  0  0  0  0  0  0  0  # atno 17320 bound_to 7965
  145.8639  139.2237  143.1700 LP  0  0  0  0  0  0  0  0  0  0  0  0  # atno 17321 bound_to 7965
  140.7792  143.4865  150.9949 LP  0  0  0  0  0  0  0  0  0  0  0  0  # atno 17342 bound_to 10162
  139.8553  143.7385  152.3176 LP  0  0  0  0  0  0  0  0  0  0  0  0  # atno 17343 bound_to 10162
  157.6954  130.9277  150.0631 LP  0  0  0  0  0  0  0  0  0  0  0  0  # atno 17370 bound_to 10713
  156.1694  130.3646  149.9186 LP  0  0  0  0  0  0  0  0  0  0  0  0  # atno 17371 bound_to 10713
  140.8892  133.7860  155.9553 LP  0  0  0  0  0  0  0  0  0  0  0  0  # atno 17394 bound_to 11000
  140.8771  134.2656  157.5162 LP  0  0  0  0  0  0  0  0  0  0  0  0  # atno 17395 bound_to 11000

$$$$
