AV-unprocessed.smi:3210|AV-procd|sdf|12272|dock1
  -GOLD-   2272018103D 1   1.00000     0.00000
 Structure written by MMmdl.
 35 36  0  0  0  0  0  0  0  0  2 V2000
  147.1817  140.4053  152.5362 O   0  0  0  0  0  0  0  0  0  0  0  0
  147.3099  139.2344  152.1757 C   0  0  0  0  0  0  0  0  0  0  0  0
  146.4617  138.6691  151.0347 C   0  0  0  0  0  0  0  0  0  0  0  0
  146.3808  137.1944  151.0710 N   0  3  0  0  0  0  0  0  0  0  0  0
  145.5401  136.6637  152.1610 C   0  0  0  0  0  0  0  0  0  0  0  0
  144.4136  135.7798  151.6067 C   0  0  0  0  0  0  0  0  0  0  0  0
  144.8861  134.4506  151.2703 N   0  0  0  0  0  0  0  0  0  0  0  0
  144.1843  133.4072  150.7033 C   0  0  0  0  0  0  0  0  0  0  0  0
  145.0470  132.3556  150.5842 C   0  0  0  0  0  0  0  0  0  0  0  0
  146.2675  132.8567  151.1172 C   0  0  0  0  0  0  0  0  0  0  0  0
  146.1673  134.1108  151.5283 N   0  0  0  0  0  0  0  0  0  0  0  0
  148.1816  138.3831  152.7372 N   0  0  0  0  0  0  0  0  0  0  0  0
  149.0836  138.7118  153.8340 C   0  0  0  0  0  0  0  0  0  0  0  0
  150.4605  139.1874  153.4111 C   0  0  0  0  0  0  0  0  0  0  0  0
  151.6854  138.3662  153.7383 C   0  0  0  0  0  0  0  0  0  0  0  0
  151.4586  139.6902  154.4278 C   0  0  0  0  0  0  0  0  0  0  0  0
  145.4568  139.0889  151.0989 H   0  0  0  0  0  0  0  0  0  0  0  0
  146.8895  138.9850  150.0822 H   0  0  0  0  0  0  0  0  0  0  0  0
  146.0072  136.8754  150.1883 H   0  0  0  0  0  0  0  0  0  0  0  0
  146.1621  136.0879  152.8477 H   0  0  0  0  0  0  0  0  0  0  0  0
  145.1227  137.4986  152.7255 H   0  0  0  0  0  0  0  0  0  0  0  0
  143.6065  135.6852  152.3346 H   0  0  0  0  0  0  0  0  0  0  0  0
  143.9828  136.2311  150.7118 H   0  0  0  0  0  0  0  0  0  0  0  0
  143.1423  133.4976  150.4339 H   0  0  0  0  0  0  0  0  0  0  0  0
  144.8376  131.3762  150.1801 H   0  0  0  0  0  0  0  0  0  0  0  0
  147.2160  132.3500  151.2173 H   0  0  0  0  0  0  0  0  0  0  0  0
  148.2233  137.4381  152.3828 H   0  0  0  0  0  0  0  0  0  0  0  0
  148.6095  139.4835  154.4410 H   0  0  0  0  0  0  0  0  0  0  0  0
  149.1999  137.8436  154.4845 H   0  0  0  0  0  0  0  0  0  0  0  0
  150.4775  139.6762  152.4386 H   0  0  0  0  0  0  0  0  0  0  0  0
  151.5490  137.4632  154.3300 H   0  0  0  0  0  0  0  0  0  0  0  0
  152.4721  138.3175  152.9882 H   0  0  0  0  0  0  0  0  0  0  0  0
  152.0945  140.5241  154.1375 H   0  0  0  0  0  0  0  0  0  0  0  0
  151.1715  139.6664  155.4770 H   0  0  0  0  0  0  0  0  0  0  0  0
  147.3164  136.8278  151.1737 H   0  0  0  0  0  0  0  0  0  0  0  0
  1  2  2  0  0  0  0
  2  3  1  0  0  0  0
  2 12  1  0  0  0  0
  3  4  1  0  0  0  0
  3 17  1  0  0  0  0
  3 18  1  0  0  0  0
  4  5  1  0  0  0  0
  4 19  1  0  0  0  0
  4 35  1  0  0  0  0
  5  6  1  0  0  0  0
  5 20  1  0  0  0  0
  5 21  1  0  0  0  0
  6  7  1  0  0  0  0
  6 22  1  0  0  0  0
  6 23  1  0  0  0  0
  7 11  1  0  0  0  0
  7  8  1  0  0  0  0
  8  9  2  0  0  0  0
  8 24  1  0  0  0  0
  9 10  1  0  0  0  0
  9 25  1  0  0  0  0
 10 11  2  0  0  0  0
 10 26  1  0  0  0  0
 12 13  1  0  0  0  0
 12 27  1  0  0  0  0
 13 14  1  0  0  0  0
 13 28  1  0  0  0  0
 13 29  1  0  0  0  0
 14 16  1  0  0  0  0
 14 15  1  0  0  0  0
 14 30  1  0  0  0  0
 15 16  1  0  0  0  0
 15 31  1  0  0  0  0
 15 32  1  0  0  0  0
 16 33  1  0  0  0  0
 16 34  1  0  0  0  0
M  CHG  1   4   1
M  END
> <s_m_source_file>
AV-unprocessed.smi

> <i_m_source_file_index>
3210

> <i_lp_mmshare_version>
43012

> <i_f3d_flags>
0

> <s_epik_input>
W0NIMl0xW0NIMl1bQ0hdMVtDSDJdW05IXUMoPU8pW0NIMl1bTkhdW0NIMl1bQ0gyXW4yW2NIXVtjSF1bY0hdbjI=

> <s_epik_cmdline>
J2VwaWtfcHl0aG9uJywgJy1waCcsICc3LjAnLCAnLXRuJywgJzgnLCAnLW1hJywgJzIwMCcsICctbWV0YWxfYmluZGluZycsICctaW1hZScsICc8aW5maWxlLm1hZT4nLCAnLW9tYWUnLCAnPG91dGZpbGUubWFlPic=

> <r_lp_tautomer_probability>
1

> <r_epik_Ionization_Penalty>
0.20724

> <r_epik_Ionization_Penalty_Charging>
0.207237

> <r_epik_Ionization_Penalty_Neutral>
3.19342e-06

> <r_epik_State_Penalty>
0.197611

> <r_epik_Charging_Adjusted_Penalty>
0.404848

> <i_epik_Tot_Q>
1

> <i_epik_Tot_abs_Q>
1

> <r_epik_Metal_State_Penalty>
0.197786

> <b_epik_Metal_Only>
0

> <s_lp_Force_Field>
OPLS_2005

> <r_lp_Energy>
10.8837

> <b_lp_Chiralities_Consistent>
1

> <s_lp_Variant>
AV-unprocessed.smi:3210-1

> <Gold.Version>
5.8.1

> <Gold.Id.Protein>
6NUR|6NUR_protein|mol2

> <Gold.PLP.Fitness>
47.9023

> <Gold.PLP.PLP>
-34.9412

> <Gold.PLP.part.hbond>
-3.1660

> <Gold.PLP.part.metal>
0.0000

> <Gold.PLP.part.buried>
-2.4992

> <Gold.PLP.part.nonpolar>
-30.7649

> <Gold.PLP.part.repulsive>
0.5256

> <Gold.PLP.ligand.clash>
0.0000

> <Gold.PLP.ligand.torsion>
1.3707

> <Gold.PLP.Chemscore.Hbond>
3.0000

> <Gold.PLP.Chemscore.CHOScore>
2.0000

> <Gold.PLP.Chemscore.Metal>
0.0000

> <Gold.Chemscore.Hbonds>
donor molecule, donor type, donor heavy atom, donor atom, acceptor molecule, acceptor atom, score
      L1  H     4    35       P1  7948  2.00
      L1  H    12    27       P1  7948  0.89
      L1  C     8    24       P1 10186  1.00
      L1  C    10    26       P1 10747  1.00

> <Gold.PLP.Chemscore.Internal.Correction>
0.7026

> <Gold.Rescore>
     Score         DG    S(hbond)    S(metal)    S(lipo)     H(rot)  DE(clash)    DE(int)     intcor
     13.29     -14.79       2.00        0.00      74.46       2.37       0.09       1.40       ----

> <Gold.Chemscore.Fitness>
13.2930

> <Gold.Chemscore.DG>
-14.7855

> <Gold.Chemscore.ZeroCoef>
-5.4800

> <Gold.Chemscore.Hbond>
1.9953

> <Gold.Chemscore.Metal>
0.0000

> <Gold.Chemscore.Lipo>
74.4633

> <Gold.Chemscore.Internal_Hbond>
0.0000

> <Gold.Chemscore.DEClash>
0.0921

> <Gold.Chemscore.DEInternal>
1.4004

> <Gold.Chemscore.Rot>
2.3715

> <Gold.Chemscore.Internal.Correction>
   9.000000E+99

> <Gold.Chemscore.Hbonds>
donor molecule, donor type, donor heavy atom, donor atom, acceptor molecule, acceptor atom, score
      L1  H     4    35       P1  7948  1.00
      L1  H    12    27       P1  7948  0.82

> <Gold.Chemscore.Hbond.Weighted>
-6.6644

> <Gold.Chemscore.Metal.Weighted>
-0.0000

> <Gold.Chemscore.Lipo.Weighted>
-8.7122

> <Gold.Chemscore.Internal_Hbond.Weighted>
0.0000

> <Gold.Chemscore.DEClash.Weighted>
0.0921

> <Gold.Chemscore.DEInternal.Weighted>
1.4004

> <Gold.Chemscore.Rot.Weighted>
6.0712

> <Gold.Chemscore.Internal.Correction.Weighted>
   9.000000E+99

> <Gold.Protein.RotatedTorsions>
[ 6907 6896 6895 6894 ] final  -36.72 input  -60.11 | X-H torsion
[ 7974 7965 7964 7962 ] final -176.34 input  175.53 | X-H torsion
[ 8008 7997 7996 7995 ] final  166.53 input   59.86 | X-H torsion
[ 10167 10162 10161 10158 ] final  140.13 input  -65.29 | X-H torsion
[ 10718 10713 10712 10709 ] final  101.93 input   66.30 | X-H torsion
[ 10763 10752 10751 10750 ] final    4.82 input  -60.55 | X-H torsion
[ 11005 11000 10999 10996 ] final  -57.40 input  -57.11 | X-H torsion

> <Gold.Protein.ActiveResidues>
 VAL166  LYS551  ARG553  GLY616  TRP617  ASP618  TYR619  PRO620  LYS621  CYS622 
 ASP623  PHE694  ASN695  SER759  ASP760  ASP761  ALA762  ILE779  LEU786  VAL792 
 PHE793  MET794  SER795  GLU796  ALA797  LYS798  CYS799  TRP800  GLU811  SER814 

> <Gold.Protein.RotatedAtoms>
  151.0237  134.9488  159.8073 H   0  0  0  0  0  0  0  0  0  0  0  0  # atno 6907 bound_to 6896
  152.5331  134.2870  159.9039 H   0  0  0  0  0  0  0  0  0  0  0  0  # atno 6908 bound_to 6896
  151.2878  133.4137  159.2665 H   0  0  0  0  0  0  0  0  0  0  0  0  # atno 6909 bound_to 6896
  144.7127  140.1185  143.6406 H   0  0  0  0  0  0  0  0  0  0  0  0  # atno 7974 bound_to 7965
  156.1711  140.1641  156.8446 H   0  0  0  0  0  0  0  0  0  0  0  0  # atno 8008 bound_to 7997
  154.5258  140.0768  156.8289 H   0  0  0  0  0  0  0  0  0  0  0  0  # atno 8009 bound_to 7997
  155.3511  140.3390  155.4241 H   0  0  0  0  0  0  0  0  0  0  0  0  # atno 8010 bound_to 7997
  139.5058  144.6253  151.5953 H   0  0  0  0  0  0  0  0  0  0  0  0  # atno 10167 bound_to 10162
  157.6816  131.0739  150.5327 H   0  0  0  0  0  0  0  0  0  0  0  0  # atno 10718 bound_to 10713
  153.2667  135.6928  153.7523 H   0  0  0  0  0  0  0  0  0  0  0  0  # atno 10763 bound_to 10752
  153.6562  135.3368  155.3115 H   0  0  0  0  0  0  0  0  0  0  0  0  # atno 10764 bound_to 10752
  154.8449  135.4466  154.1675 H   0  0  0  0  0  0  0  0  0  0  0  0  # atno 10765 bound_to 10752
  141.1163  133.6610  156.4764 H   0  0  0  0  0  0  0  0  0  0  0  0  # atno 11005 bound_to 11000
  145.9392  139.2657  143.1279 LP  0  0  0  0  0  0  0  0  0  0  0  0  # atno 17320 bound_to 7965
  145.9442  140.8957  143.0292 LP  0  0  0  0  0  0  0  0  0  0  0  0  # atno 17321 bound_to 7965
  140.5968  143.9682  150.6359 LP  0  0  0  0  0  0  0  0  0  0  0  0  # atno 17342 bound_to 10162
  140.2881  143.3343  152.1088 LP  0  0  0  0  0  0  0  0  0  0  0  0  # atno 17343 bound_to 10162
  156.5636  130.4262  149.6051 LP  0  0  0  0  0  0  0  0  0  0  0  0  # atno 17370 bound_to 10713
  156.2800  130.7065  151.1887 LP  0  0  0  0  0  0  0  0  0  0  0  0  # atno 17371 bound_to 10713
  140.4637  134.6818  157.5097 LP  0  0  0  0  0  0  0  0  0  0  0  0  # atno 17394 bound_to 11000
  140.0087  134.6723  155.9414 LP  0  0  0  0  0  0  0  0  0  0  0  0  # atno 17395 bound_to 11000

$$$$
