AV-unprocessed.smi:3040|AV-procd|sdf|11596|dock2
  -GOLD-   2272016573D 1   1.00000     0.00000
 Structure written by MMmdl.
 39 40  0  0  0  0  0  0  0  0  1 V2000
  147.7973  134.6720  162.0131 C   0  0  0  0  0  0  0  0  0  0  0  0
  146.4783  135.2818  162.1922 N   0  0  0  0  0  0  0  0  0  0  0  0
  145.3788  134.3307  162.4094 C   0  0  0  0  0  0  0  0  0  0  0  0
  143.9910  134.9306  162.1502 C   0  0  0  0  0  0  0  0  0  0  0  0
  143.8590  136.2777  162.8719 C   0  0  2  0  0  0  0  0  0  0  0  0
  142.4658  136.8835  162.6599 C   0  0  0  0  0  0  0  0  0  0  0  0
  142.3320  137.9181  162.0056 O   0  0  0  0  0  0  0  0  0  0  0  0
  141.4419  136.2479  163.2528 N   0  0  0  0  0  0  0  0  0  0  0  0
  140.0680  136.7424  163.3273 C   0  0  0  0  0  0  0  0  0  0  0  0
  139.1159  135.7082  163.9619 C   0  0  0  0  0  0  0  0  0  0  0  0
  138.5277  136.1778  165.2673 C   0  0  0  0  0  0  0  0  0  0  0  0
  137.5598  135.5213  166.0803 C   0  0  0  0  0  0  0  0  0  0  0  0
  137.2127  136.2318  167.1414 N   0  0  0  0  0  0  0  0  0  0  0  0
  137.9471  137.3591  167.0459 N   0  0  0  0  0  0  0  0  0  0  0  0
  137.8014  138.3959  168.0449 C   0  0  0  0  0  0  0  0  0  0  0  0
  138.7590  137.3486  165.9332 C   0  0  0  0  0  0  0  0  0  0  0  0
  144.9454  137.2511  162.3691 C   0  0  0  0  0  0  0  0  0  0  0  0
  146.3432  136.6298  162.2177 C   0  0  0  0  0  0  0  0  0  0  0  0
  147.3023  137.3926  162.0954 O   0  0  0  0  0  0  0  0  0  0  0  0
  148.5122  135.0680  162.7361 H   0  0  0  0  0  0  0  0  0  0  0  0
  148.1767  134.8756  161.0109 H   0  0  0  0  0  0  0  0  0  0  0  0
  147.7721  133.5896  162.1453 H   0  0  0  0  0  0  0  0  0  0  0  0
  145.5091  133.4550  161.7721 H   0  0  0  0  0  0  0  0  0  0  0  0
  145.4380  133.9783  163.4401 H   0  0  0  0  0  0  0  0  0  0  0  0
  143.8509  135.0615  161.0757 H   0  0  0  0  0  0  0  0  0  0  0  0
  143.2198  134.2349  162.4835 H   0  0  0  0  0  0  0  0  0  0  0  0
  144.0072  136.1107  163.9406 H   0  0  0  0  0  0  0  0  0  0  0  0
  141.6454  135.3988  163.7597 H   0  0  0  0  0  0  0  0  0  0  0  0
  140.0262  137.6769  163.8894 H   0  0  0  0  0  0  0  0  0  0  0  0
  139.7312  136.9826  162.3187 H   0  0  0  0  0  0  0  0  0  0  0  0
  138.3256  135.4712  163.2494 H   0  0  0  0  0  0  0  0  0  0  0  0
  139.6615  134.7756  164.1101 H   0  0  0  0  0  0  0  0  0  0  0  0
  137.0880  134.5632  165.9202 H   0  0  0  0  0  0  0  0  0  0  0  0
  138.6640  139.0622  168.0182 H   0  0  0  0  0  0  0  0  0  0  0  0
  137.7281  137.9521  169.0385 H   0  0  0  0  0  0  0  0  0  0  0  0
  136.8995  138.9742  167.8417 H   0  0  0  0  0  0  0  0  0  0  0  0
  139.4093  138.1775  165.6954 H   0  0  0  0  0  0  0  0  0  0  0  0
  144.6725  137.6584  161.3939 H   0  0  0  0  0  0  0  0  0  0  0  0
  145.0156  138.1034  163.0463 H   0  0  0  0  0  0  0  0  0  0  0  0
  1  2  1  0  0  0  0
  1 20  1  0  0  0  0
  1 21  1  0  0  0  0
  1 22  1  0  0  0  0
  2 18  1  0  0  0  0
  2  3  1  0  0  0  0
  3  4  1  0  0  0  0
  3 23  1  0  0  0  0
  3 24  1  0  0  0  0
  4  5  1  0  0  0  0
  4 25  1  0  0  0  0
  4 26  1  0  0  0  0
  5  6  1  0  0  0  0
  5 17  1  0  0  0  0
  5 27  1  0  0  0  0
  6  7  2  0  0  0  0
  6  8  1  0  0  0  0
  8  9  1  0  0  0  0
  8 28  1  0  0  0  0
  9 10  1  0  0  0  0
  9 29  1  0  0  0  0
  9 30  1  0  0  0  0
 10 11  1  0  0  0  0
 10 31  1  0  0  0  0
 10 32  1  0  0  0  0
 11 16  2  0  0  0  0
 11 12  1  0  0  0  0
 12 13  2  0  0  0  0
 12 33  1  0  0  0  0
 13 14  1  0  0  0  0
 14 15  1  0  0  0  0
 14 16  1  0  0  0  0
 15 34  1  0  0  0  0
 15 35  1  0  0  0  0
 15 36  1  0  0  0  0
 16 37  1  0  0  0  0
 17 18  1  0  0  0  0
 17 38  1  0  0  0  0
 17 39  1  0  0  0  0
 18 19  2  0  0  0  0
M  END
> <s_m_source_file>
AV-unprocessed.smi

> <i_m_source_file_index>
3040

> <i_lp_mmshare_version>
43012

> <i_f3d_flags>
0

> <s_epik_input>
W0NIM11OMVtDSDJdW0NIMl1bQ0BIXShbQ0gyXUMxPU8pQyg9TylbTkhdW0NIMl1bQ0gyXWMyW2NIXW5uKFtDSDNdKVtjSF0y

> <s_epik_cmdline>
J2VwaWtfcHl0aG9uJywgJy1waCcsICc3LjAnLCAnLXRuJywgJzgnLCAnLW1hJywgJzIwMCcsICctbWV0YWxfYmluZGluZycsICctaW1hZScsICc8aW5maWxlLm1hZT4nLCAnLW9tYWUnLCAnPG91dGZpbGUubWFlPic=

> <r_lp_tautomer_probability>
1

> <r_epik_Ionization_Penalty>
0.000456436

> <r_epik_Ionization_Penalty_Charging>
0

> <r_epik_Ionization_Penalty_Neutral>
0.000456436

> <r_epik_State_Penalty>
-0

> <r_epik_Charging_Adjusted_Penalty>
0

> <i_epik_Tot_Q>
0

> <i_epik_Tot_abs_Q>
0

> <r_epik_Metal_State_Penalty>
-0

> <b_epik_Metal_Only>
0

> <s_lp_Force_Field>
OPLS_2005

> <r_lp_Energy>
9.8739

> <b_lp_Chiralities_Consistent>
1

> <s_lp_Variant>
AV-unprocessed.smi:3040-2

> <Gold.Version>
5.8.1

> <Gold.Id.Protein>
6NUR|6NUR_protein|mol2

> <Gold.PLP.Fitness>
46.4961

> <Gold.PLP.PLP>
-42.4576

> <Gold.PLP.part.hbond>
-4.0000

> <Gold.PLP.part.metal>
0.0000

> <Gold.PLP.part.buried>
-5.6452

> <Gold.PLP.part.nonpolar>
-32.2983

> <Gold.PLP.part.repulsive>
0.1674

> <Gold.PLP.ligand.clash>
0.0000

> <Gold.PLP.ligand.torsion>
0.5477

> <Gold.PLP.Chemscore.Hbond>
1.7043

> <Gold.PLP.Chemscore.CHOScore>
0.0000

> <Gold.PLP.Chemscore.Metal>
0.0000

> <Gold.Chemscore.Hbonds>
donor molecule, donor type, donor heavy atom, donor atom, acceptor molecule, acceptor atom, score
      P1  H  6931  6943       L1    19  0.77
      P1  H  6934  6947       L1    19  0.66

> <Gold.PLP.Chemscore.Internal.Correction>
0.0210

> <Gold.Rescore>
     Score         DG    S(hbond)    S(metal)    S(lipo)     H(rot)  DE(clash)    DE(int)     intcor
     13.63     -15.25       1.71        0.00      70.92       1.65       0.85       0.78       ----

> <Gold.Chemscore.Fitness>
13.6296

> <Gold.Chemscore.DG>
-15.2535

> <Gold.Chemscore.ZeroCoef>
-5.4800

> <Gold.Chemscore.Hbond>
1.7094

> <Gold.Chemscore.Metal>
0.0000

> <Gold.Chemscore.Lipo>
70.9174

> <Gold.Chemscore.Internal_Hbond>
0.0000

> <Gold.Chemscore.DEClash>
0.8455

> <Gold.Chemscore.DEInternal>
0.7784

> <Gold.Chemscore.Rot>
1.6536

> <Gold.Chemscore.Internal.Correction>
   9.000000E+99

> <Gold.Chemscore.Hbonds>
donor molecule, donor type, donor heavy atom, donor atom, acceptor molecule, acceptor atom, score
      P1  H  6931  6943       L1    19  0.75
      P1  H  6934  6947       L1    19  0.63

> <Gold.Chemscore.Hbond.Weighted>
-5.7094

> <Gold.Chemscore.Metal.Weighted>
-0.0000

> <Gold.Chemscore.Lipo.Weighted>
-8.2973

> <Gold.Chemscore.Internal_Hbond.Weighted>
0.0000

> <Gold.Chemscore.DEClash.Weighted>
0.8455

> <Gold.Chemscore.DEInternal.Weighted>
0.7784

> <Gold.Chemscore.Rot.Weighted>
4.2332

> <Gold.Chemscore.Internal.Correction.Weighted>
   9.000000E+99

> <Gold.Protein.RotatedTorsions>
[ 6907 6896 6895 6894 ] final   72.09 input  -60.11 | X-H torsion
[ 7974 7965 7964 7962 ] final -176.27 input  175.53 | X-H torsion
[ 8008 7997 7996 7995 ] final  -33.37 input   59.86 | X-H torsion
[ 10167 10162 10161 10158 ] final   -3.44 input  -65.29 | X-H torsion
[ 10718 10713 10712 10709 ] final -168.83 input   66.30 | X-H torsion
[ 10763 10752 10751 10750 ] final  -32.86 input  -60.55 | X-H torsion
[ 11005 11000 10999 10996 ] final   44.98 input  -57.11 | X-H torsion

> <Gold.Protein.ActiveResidues>
 VAL166  LYS551  ARG553  GLY616  TRP617  ASP618  TYR619  PRO620  LYS621  CYS622 
 ASP623  PHE694  ASN695  SER759  ASP760  ASP761  ALA762  ILE779  LEU786  VAL792 
 PHE793  MET794  SER795  GLU796  ALA797  LYS798  CYS799  TRP800  GLU811  SER814 

> <Gold.Protein.RotatedAtoms>
  152.4848  134.4622  159.9608 H   0  0  0  0  0  0  0  0  0  0  0  0  # atno 6907 bound_to 6896
  151.4621  133.3584  159.2818 H   0  0  0  0  0  0  0  0  0  0  0  0  # atno 6908 bound_to 6896
  150.8949  134.8382  159.7380 H   0  0  0  0  0  0  0  0  0  0  0  0  # atno 6909 bound_to 6896
  144.7127  140.1195  143.6406 H   0  0  0  0  0  0  0  0  0  0  0  0  # atno 7974 bound_to 7965
  154.4151  140.1712  156.1877 H   0  0  0  0  0  0  0  0  0  0  0  0  # atno 8008 bound_to 7997
  155.9630  140.3392  155.6483 H   0  0  0  0  0  0  0  0  0  0  0  0  # atno 8009 bound_to 7997
  155.6724  140.0713  157.2506 H   0  0  0  0  0  0  0  0  0  0  0  0  # atno 8010 bound_to 7997
  140.6890  143.6539  150.8325 H   0  0  0  0  0  0  0  0  0  0  0  0  # atno 10167 bound_to 10162
  156.7027  130.9203  151.3081 H   0  0  0  0  0  0  0  0  0  0  0  0  # atno 10718 bound_to 10713
  153.8207  135.6874  153.4827 H   0  0  0  0  0  0  0  0  0  0  0  0  # atno 10763 bound_to 10752
  153.1571  135.4595  154.9717 H   0  0  0  0  0  0  0  0  0  0  0  0  # atno 10764 bound_to 10752
  154.7928  135.3308  154.7680 H   0  0  0  0  0  0  0  0  0  0  0  0  # atno 10765 bound_to 10752
  140.1501  134.4472  155.8388 H   0  0  0  0  0  0  0  0  0  0  0  0  # atno 11005 bound_to 11000
  145.9383  139.2652  143.1284 LP  0  0  0  0  0  0  0  0  0  0  0  0  # atno 17320 bound_to 7965
  145.9450  140.8951  143.0288 LP  0  0  0  0  0  0  0  0  0  0  0  0  # atno 17321 bound_to 7965
  140.0250  143.5503  152.2784 LP  0  0  0  0  0  0  0  0  0  0  0  0  # atno 17342 bound_to 10162
  139.6275  144.7639  151.2607 LP  0  0  0  0  0  0  0  0  0  0  0  0  # atno 17343 bound_to 10162
  157.6967  130.9289  150.0665 LP  0  0  0  0  0  0  0  0  0  0  0  0  # atno 17370 bound_to 10713
  156.1717  130.3646  149.9155 LP  0  0  0  0  0  0  0  0  0  0  0  0  # atno 17371 bound_to 10713
  141.2198  133.6869  156.7406 LP  0  0  0  0  0  0  0  0  0  0  0  0  # atno 17394 bound_to 11000
  140.2615  134.8463  157.3763 LP  0  0  0  0  0  0  0  0  0  0  0  0  # atno 17395 bound_to 11000

$$$$
