AV-unprocessed.smi:2473|AV-procd|sdf|9743|dock10
  -GOLD-   2272013383D 1   1.00000     0.00000
 Structure written by MMmdl.
 48 49  0  0  0  0  0  0  0  0  2 V2000
  146.0832  143.6599  155.8298 C   0  0  0  0  0  0  0  0  0  0  0  0
  146.7058  142.2868  155.5382 C   0  0  2  0  0  0  0  0  0  0  0  0
  147.5086  142.3102  154.2211 C   0  0  0  0  0  0  0  0  0  0  0  0
  148.1374  140.9436  153.8642 C   0  0  1  0  0  0  0  0  0  0  0  0
  149.4141  140.6085  154.6599 C   0  0  0  0  0  0  0  0  0  0  0  0
  150.0484  139.5756  154.4433 O   0  0  0  0  0  0  0  0  0  0  0  0
  149.7718  141.4904  155.6051 N   0  0  0  0  0  0  0  0  0  0  0  0
  150.9662  141.3738  156.4290 C   0  0  0  0  0  0  0  0  0  0  0  0
  150.5878  141.2231  157.9079 C   0  0  0  0  0  0  0  0  0  0  0  0
  151.7832  141.1749  158.8078 C   0  0  0  0  0  0  0  0  0  0  0  0
  152.1794  140.1123  159.5183 N   0  3  0  0  0  0  0  0  0  0  0  0
  153.3176  140.4050  160.2196 C   0  0  0  0  0  0  0  0  0  0  0  0
  153.6346  141.7039  159.9186 C   0  0  0  0  0  0  0  0  0  0  0  0
  152.6752  142.1510  159.0463 N   0  0  0  0  0  0  0  0  0  0  0  0
  152.5973  143.4833  158.4428 C   0  0  0  0  0  0  0  0  0  0  0  0
  147.0656  139.8238  153.9086 C   0  0  0  0  0  0  0  0  0  0  0  0
  146.1863  139.7727  155.1885 C   0  0  0  0  0  0  0  0  0  0  0  0
  145.0014  138.8224  154.9213 C   0  0  0  0  0  0  0  0  0  0  0  0
  146.9549  139.2072  156.4040 C   0  0  0  0  0  0  0  0  0  0  0  0
  145.6277  141.1848  155.4919 C   0  0  0  0  0  0  0  0  0  0  0  0
  145.3812  143.9527  155.0486 H   0  0  0  0  0  0  0  0  0  0  0  0
  146.8502  144.4322  155.8950 H   0  0  0  0  0  0  0  0  0  0  0  0
  145.5434  143.6532  156.7772 H   0  0  0  0  0  0  0  0  0  0  0  0
  147.3848  142.0727  156.3623 H   0  0  0  0  0  0  0  0  0  0  0  0
  146.8474  142.6107  153.4074 H   0  0  0  0  0  0  0  0  0  0  0  0
  148.2804  143.0801  154.2682 H   0  0  0  0  0  0  0  0  0  0  0  0
  148.4765  141.0195  152.8300 H   0  0  0  0  0  0  0  0  0  0  0  0
  149.1936  142.3074  155.7382 H   0  0  0  0  0  0  0  0  0  0  0  0
  151.5498  140.5142  156.0966 H   0  0  0  0  0  0  0  0  0  0  0  0
  151.5899  142.2589  156.2938 H   0  0  0  0  0  0  0  0  0  0  0  0
  149.9583  142.0490  158.2409 H   0  0  0  0  0  0  0  0  0  0  0  0
  150.0263  140.3027  158.0725 H   0  0  0  0  0  0  0  0  0  0  0  0
  153.8051  139.6854  160.8615 H   0  0  0  0  0  0  0  0  0  0  0  0
  154.4525  142.3265  160.2515 H   0  0  0  0  0  0  0  0  0  0  0  0
  153.4358  144.0896  158.7862 H   0  0  0  0  0  0  0  0  0  0  0  0
  151.6633  143.9614  158.7390 H   0  0  0  0  0  0  0  0  0  0  0  0
  152.6401  143.3942  157.3572 H   0  0  0  0  0  0  0  0  0  0  0  0
  146.4117  139.9801  153.0492 H   0  0  0  0  0  0  0  0  0  0  0  0
  147.5215  138.8480  153.7354 H   0  0  0  0  0  0  0  0  0  0  0  0
  144.3385  138.7585  155.7851 H   0  0  0  0  0  0  0  0  0  0  0  0
  145.3454  137.8120  154.6966 H   0  0  0  0  0  0  0  0  0  0  0  0
  144.3994  139.1571  154.0757 H   0  0  0  0  0  0  0  0  0  0  0  0
  146.2923  139.0750  157.2599 H   0  0  0  0  0  0  0  0  0  0  0  0
  147.7623  139.8555  156.7362 H   0  0  0  0  0  0  0  0  0  0  0  0
  147.3915  138.2338  156.1777 H   0  0  0  0  0  0  0  0  0  0  0  0
  145.0783  141.1686  156.4343 H   0  0  0  0  0  0  0  0  0  0  0  0
  144.8966  141.4523  154.7272 H   0  0  0  0  0  0  0  0  0  0  0  0
  151.7032  139.2191  159.5329 H   0  0  0  0  0  0  0  0  0  0  0  0
  1  2  1  0  0  0  0
  1 21  1  0  0  0  0
  1 22  1  0  0  0  0
  1 23  1  0  0  0  0
  2 20  1  0  0  0  0
  2  3  1  0  0  0  0
  2 24  1  0  0  0  0
  3  4  1  0  0  0  0
  3 25  1  0  0  0  0
  3 26  1  0  0  0  0
  4  5  1  0  0  0  0
  4 16  1  0  0  0  0
  4 27  1  0  0  0  0
  5  6  2  0  0  0  0
  5  7  1  0  0  0  0
  7  8  1  0  0  0  0
  7 28  1  0  0  0  0
  8  9  1  0  0  0  0
  8 29  1  0  0  0  0
  8 30  1  0  0  0  0
  9 10  1  0  0  0  0
  9 31  1  0  0  0  0
  9 32  1  0  0  0  0
 10 14  1  0  0  0  0
 10 11  2  0  0  0  0
 11 12  1  0  0  0  0
 11 48  1  0  0  0  0
 12 13  2  0  0  0  0
 12 33  1  0  0  0  0
 13 14  1  0  0  0  0
 13 34  1  0  0  0  0
 14 15  1  0  0  0  0
 15 35  1  0  0  0  0
 15 36  1  0  0  0  0
 15 37  1  0  0  0  0
 16 17  1  0  0  0  0
 16 38  1  0  0  0  0
 16 39  1  0  0  0  0
 17 18  1  0  0  0  0
 17 19  1  0  0  0  0
 17 20  1  0  0  0  0
 18 40  1  0  0  0  0
 18 41  1  0  0  0  0
 18 42  1  0  0  0  0
 19 43  1  0  0  0  0
 19 44  1  0  0  0  0
 19 45  1  0  0  0  0
 20 46  1  0  0  0  0
 20 47  1  0  0  0  0
M  CHG  1  11   1
M  END
> <s_m_source_file>
AV-unprocessed.smi

> <i_m_source_file_index>
2473

> <i_lp_mmshare_version>
43012

> <i_f3d_flags>
0

> <s_epik_input>
W0NIM11bQ0BASF0oW0NIMl0xKVtDSDJdW0NASF0oW0NIMl1DMShbQ0gzXSlbQ0gzXSlDKD1PKVtOSF1bQ0gyXVtDSDJdYzJuW2NIXVtjSF1uMltDSDNd

> <s_epik_cmdline>
J2VwaWtfcHl0aG9uJywgJy1waCcsICc3LjAnLCAnLXRuJywgJzgnLCAnLW1hJywgJzIwMCcsICctbWV0YWxfYmluZGluZycsICctaW1hZScsICc8aW5maWxlLm1hZT4nLCAnLW9tYWUnLCAnPG91dGZpbGUubWFlPic=

> <r_lp_tautomer_probability>
1

> <r_epik_Ionization_Penalty>
0.0796112

> <r_epik_Ionization_Penalty_Charging>
0

> <r_epik_Ionization_Penalty_Neutral>
0.0796112

> <r_epik_State_Penalty>
0.0704541

> <r_epik_Charging_Adjusted_Penalty>
0.0704541

> <i_epik_Tot_Q>
1

> <i_epik_Tot_abs_Q>
1

> <r_epik_Metal_State_Penalty>
0.409899

> <b_epik_Metal_Only>
0

> <s_lp_Force_Field>
OPLS_2005

> <r_lp_Energy>
17.1237

> <b_lp_Chiralities_Consistent>
1

> <s_lp_Variant>
AV-unprocessed.smi:2473-1

> <Gold.Version>
5.8.1

> <Gold.Id.Protein>
6NUR|6NUR_protein|mol2

> <Gold.PLP.Fitness>
46.3610

> <Gold.PLP.PLP>
-41.3875

> <Gold.PLP.part.hbond>
-2.0000

> <Gold.PLP.part.metal>
0.0000

> <Gold.PLP.part.buried>
-5.9757

> <Gold.PLP.part.nonpolar>
-33.5256

> <Gold.PLP.part.repulsive>
0.4050

> <Gold.PLP.ligand.clash>
0.0000

> <Gold.PLP.ligand.torsion>
0.0804

> <Gold.PLP.Chemscore.Hbond>
1.6880

> <Gold.PLP.Chemscore.CHOScore>
0.0000

> <Gold.PLP.Chemscore.Metal>
0.0000

> <Gold.Chemscore.Hbonds>
donor molecule, donor type, donor heavy atom, donor atom, acceptor molecule, acceptor atom, score
      P1  H  7989  7998       L1     6  0.16

> <Gold.PLP.Chemscore.Internal.Correction>
0.0704

> <Gold.Rescore>
     Score         DG    S(hbond)    S(metal)    S(lipo)     H(rot)  DE(clash)    DE(int)     intcor
     12.40     -13.56       0.85        0.00      79.56       1.58       0.85       0.32       ----

> <Gold.Chemscore.Fitness>
12.3993

> <Gold.Chemscore.DG>
-13.5630

> <Gold.Chemscore.ZeroCoef>
-5.4800

> <Gold.Chemscore.Hbond>
0.8454

> <Gold.Chemscore.Metal>
0.0000

> <Gold.Chemscore.Lipo>
79.5636

> <Gold.Chemscore.Internal_Hbond>
0.0000

> <Gold.Chemscore.DEClash>
0.8457

> <Gold.Chemscore.DEInternal>
0.3180

> <Gold.Chemscore.Rot>
1.5818

> <Gold.Chemscore.Internal.Correction>
   9.000000E+99

> <Gold.Chemscore.Hbonds>
donor molecule, donor type, donor heavy atom, donor atom, acceptor molecule, acceptor atom, score
      L1  H     7    28       P1  8028  0.06

> <Gold.Chemscore.Hbond.Weighted>
-2.8235

> <Gold.Chemscore.Metal.Weighted>
-0.0000

> <Gold.Chemscore.Lipo.Weighted>
-9.3089

> <Gold.Chemscore.Internal_Hbond.Weighted>
0.0000

> <Gold.Chemscore.DEClash.Weighted>
0.8457

> <Gold.Chemscore.DEInternal.Weighted>
0.3180

> <Gold.Chemscore.Rot.Weighted>
4.0495

> <Gold.Chemscore.Internal.Correction.Weighted>
   9.000000E+99

> <Gold.Protein.RotatedTorsions>
[ 6907 6896 6895 6894 ] final   15.82 input  -60.11 | X-H torsion
[ 7974 7965 7964 7962 ] final  160.49 input  175.53 | X-H torsion
[ 8008 7997 7996 7995 ] final   91.59 input   59.86 | X-H torsion
[ 10167 10162 10161 10158 ] final  168.90 input  -65.29 | X-H torsion
[ 10718 10713 10712 10709 ] final  158.96 input   66.30 | X-H torsion
[ 10763 10752 10751 10750 ] final   41.91 input  -60.55 | X-H torsion
[ 11005 11000 10999 10996 ] final -138.14 input  -57.11 | X-H torsion

> <Gold.Protein.ActiveResidues>
 VAL166  LYS551  ARG553  GLY616  TRP617  ASP618  TYR619  PRO620  LYS621  CYS622 
 ASP623  PHE694  ASN695  SER759  ASP760  ASP761  ALA762  ILE779  LEU786  VAL792 
 PHE793  MET794  SER795  GLU796  ALA797  LYS798  CYS799  TRP800  GLU811  SER814 

> <Gold.Protein.RotatedAtoms>
  151.8241  135.0642  160.0428 H   0  0  0  0  0  0  0  0  0  0  0  0  # atno 6907 bound_to 6896
  152.2929  133.5574  159.5577 H   0  0  0  0  0  0  0  0  0  0  0  0  # atno 6908 bound_to 6896
  150.7238  134.0319  159.3778 H   0  0  0  0  0  0  0  0  0  0  0  0  # atno 6909 bound_to 6896
  144.7734  139.7764  143.6288 H   0  0  0  0  0  0  0  0  0  0  0  0  # atno 7974 bound_to 7965
  156.0255  140.3336  155.7084 H   0  0  0  0  0  0  0  0  0  0  0  0  # atno 8008 bound_to 7997
  155.5960  140.0651  157.2763 H   0  0  0  0  0  0  0  0  0  0  0  0  # atno 8009 bound_to 7997
  154.4332  140.1818  156.1112 H   0  0  0  0  0  0  0  0  0  0  0  0  # atno 8010 bound_to 7997
  139.4979  144.3764  151.9669 H   0  0  0  0  0  0  0  0  0  0  0  0  # atno 10167 bound_to 10162
  157.1707  131.0609  151.2184 H   0  0  0  0  0  0  0  0  0  0  0  0  # atno 10718 bound_to 10713
  152.9896  135.6148  154.2863 H   0  0  0  0  0  0  0  0  0  0  0  0  # atno 10763 bound_to 10752
  154.2590  135.2783  155.2787 H   0  0  0  0  0  0  0  0  0  0  0  0  # atno 10764 bound_to 10752
  154.5222  135.5811  153.6747 H   0  0  0  0  0  0  0  0  0  0  0  0  # atno 10765 bound_to 10752
  140.8644  134.2128  157.4688 H   0  0  0  0  0  0  0  0  0  0  0  0  # atno 11005 bound_to 11000
  146.1897  139.5131  142.9813 LP  0  0  0  0  0  0  0  0  0  0  0  0  # atno 17320 bound_to 7965
  145.6256  141.0314  143.1891 LP  0  0  0  0  0  0  0  0  0  0  0  0  # atno 17321 bound_to 7965
  140.3201  144.3438  150.6012 LP  0  0  0  0  0  0  0  0  0  0  0  0  # atno 17342 bound_to 10162
  140.5730  143.2179  151.7566 LP  0  0  0  0  0  0  0  0  0  0  0  0  # atno 17343 bound_to 10162
  157.4046  130.7352  149.6792 LP  0  0  0  0  0  0  0  0  0  0  0  0  # atno 17370 bound_to 10713
  155.9739  130.4111  150.3967 LP  0  0  0  0  0  0  0  0  0  0  0  0  # atno 17371 bound_to 10713
  139.8708  134.9745  156.4848 LP  0  0  0  0  0  0  0  0  0  0  0  0  # atno 17394 bound_to 11000
  140.8645  133.8034  155.9300 LP  0  0  0  0  0  0  0  0  0  0  0  0  # atno 17395 bound_to 11000

$$$$
