AV-unprocessed.smi:2037|AV-procd|sdf|8277|dock8
  -GOLD-   2272010543D 1   1.00000     0.00000
 Structure written by MMmdl.
 39 40  0  0  0  0  0  0  0  0  2 V2000
  144.2856  132.3684  151.6006 C   0  0  0  0  0  0  0  0  0  0  0  0
  145.6575  132.8743  151.1214 C   0  0  2  0  0  0  0  0  0  0  0  0
  146.6246  133.1654  152.2830 C   0  0  0  0  0  0  0  0  0  0  0  0
  146.2580  134.4564  153.0372 C   0  0  0  0  0  0  0  0  0  0  0  0
  146.1862  135.6201  152.1160 N   0  3  2  0  0  0  0  0  0  0  0  0
  145.9614  136.8954  152.8427 C   0  0  0  0  0  0  0  0  0  0  0  0
  146.2046  138.1311  151.9538 C   0  0  0  0  0  0  0  0  0  0  0  0
  147.4182  138.8422  152.3402 N   0  0  0  0  0  0  0  0  0  0  0  0
  147.6815  139.2916  153.5759 C   0  0  0  0  0  0  0  0  0  0  0  0
  146.9059  139.1560  154.5226 O   0  0  0  0  0  0  0  0  0  0  0  0
  148.8817  139.8950  153.6324 N   0  0  0  0  0  0  0  0  0  0  0  0
  149.4975  140.5170  154.7502 C   0  0  0  0  0  0  0  0  0  0  0  0
  150.8129  140.4955  154.9955 N   0  0  0  0  0  0  0  0  0  0  0  0
  151.1391  141.1837  156.1668 C   0  0  0  0  0  0  0  0  0  0  0  0
  150.0519  141.7264  156.8055 C   0  0  0  0  0  0  0  0  0  0  0  0
  148.5658  141.3905  155.9579 S   0  0  0  0  0  0  0  0  0  0  0  0
  145.2087  135.3892  151.0191 C   0  0  0  0  0  0  0  0  0  0  0  0
  145.5534  134.1185  150.2215 C   0  0  0  0  0  0  0  0  0  0  0  0
  143.7671  133.1023  152.2168 H   0  0  0  0  0  0  0  0  0  0  0  0
  144.3907  131.4581  152.1914 H   0  0  0  0  0  0  0  0  0  0  0  0
  143.6391  132.1339  150.7545 H   0  0  0  0  0  0  0  0  0  0  0  0
  146.0908  132.0706  150.5243 H   0  0  0  0  0  0  0  0  0  0  0  0
  146.6501  132.3222  152.9744 H   0  0  0  0  0  0  0  0  0  0  0  0
  147.6373  133.2622  151.8890 H   0  0  0  0  0  0  0  0  0  0  0  0
  145.3060  134.3408  153.5572 H   0  0  0  0  0  0  0  0  0  0  0  0
  147.0119  134.6414  153.8036 H   0  0  0  0  0  0  0  0  0  0  0  0
  144.9546  136.9108  153.2631 H   0  0  0  0  0  0  0  0  0  0  0  0
  146.6470  136.9418  153.6900 H   0  0  0  0  0  0  0  0  0  0  0  0
  146.2644  137.8410  150.9033 H   0  0  0  0  0  0  0  0  0  0  0  0
  145.3791  138.8373  152.0343 H   0  0  0  0  0  0  0  0  0  0  0  0
  148.1097  138.9927  151.6200 H   0  0  0  0  0  0  0  0  0  0  0  0
  149.4174  139.9154  152.7771 H   0  0  0  0  0  0  0  0  0  0  0  0
  152.1734  141.2376  156.4728 H   0  0  0  0  0  0  0  0  0  0  0  0
  150.0354  142.3001  157.7200 H   0  0  0  0  0  0  0  0  0  0  0  0
  144.2022  135.3178  151.4330 H   0  0  0  0  0  0  0  0  0  0  0  0
  145.2028  136.2359  150.3341 H   0  0  0  0  0  0  0  0  0  0  0  0
  146.5053  134.2701  149.7108 H   0  0  0  0  0  0  0  0  0  0  0  0
  144.8133  133.9561  149.4370 H   0  0  0  0  0  0  0  0  0  0  0  0
  147.0986  135.6933  151.6887 H   0  0  0  0  0  0  0  0  0  0  0  0
  1  2  1  0  0  0  0
  1 19  1  0  0  0  0
  1 20  1  0  0  0  0
  1 21  1  0  0  0  0
  2 18  1  0  0  0  0
  2  3  1  0  0  0  0
  2 22  1  0  0  0  0
  3  4  1  0  0  0  0
  3 23  1  0  0  0  0
  3 24  1  0  0  0  0
  4  5  1  0  0  0  0
  4 25  1  0  0  0  0
  4 26  1  0  0  0  0
  5  6  1  0  0  0  0
  5 17  1  0  0  0  0
  5 39  1  0  0  0  0
  6  7  1  0  0  0  0
  6 27  1  0  0  0  0
  6 28  1  0  0  0  0
  7  8  1  0  0  0  0
  7 29  1  0  0  0  0
  7 30  1  0  0  0  0
  8  9  1  0  0  0  0
  8 31  1  0  0  0  0
  9 10  2  0  0  0  0
  9 11  1  0  0  0  0
 11 12  1  0  0  0  0
 11 32  1  0  0  0  0
 12 16  1  0  0  0  0
 12 13  2  0  0  0  0
 13 14  1  0  0  0  0
 14 15  2  0  0  0  0
 14 33  1  0  0  0  0
 15 16  1  0  0  0  0
 15 34  1  0  0  0  0
 17 18  1  0  0  0  0
 17 35  1  0  0  0  0
 17 36  1  0  0  0  0
 18 37  1  0  0  0  0
 18 38  1  0  0  0  0
M  CHG  1   5   1
M  END
> <s_m_source_file>
AV-unprocessed.smi

> <i_m_source_file_index>
2037

> <i_lp_mmshare_version>
43012

> <i_f3d_flags>
0

> <s_epik_input>
W0NIM11bQ0hdMVtDSDJdW0NIMl1OKFtDSDJdW0NIMl0xKVtDSDJdW0NIMl1bTkhdQyg9TylbTkhdYzJuW2NIXVtjSF1zMg==

> <s_epik_cmdline>
J2VwaWtfcHl0aG9uJywgJy1waCcsICc3LjAnLCAnLXRuJywgJzgnLCAnLW1hJywgJzIwMCcsICctbWV0YWxfYmluZGluZycsICctaW1hZScsICc8aW5maWxlLm1hZT4nLCAnLW9tYWUnLCAnPG91dGZpbGUubWFlPic=

> <r_lp_tautomer_probability>
0.999

> <r_epik_Ionization_Penalty>
0.00182893

> <r_epik_Ionization_Penalty_Charging>
0.00168873

> <r_epik_Ionization_Penalty_Neutral>
0.000140204

> <r_epik_State_Penalty>
0.00114045

> <r_epik_Charging_Adjusted_Penalty>
0.00282917

> <i_epik_Tot_Q>
1

> <i_epik_Tot_abs_Q>
1

> <r_epik_Metal_State_Penalty>
0.0569426

> <b_epik_Metal_Only>
0

> <s_lp_Force_Field>
OPLS_2005

> <r_lp_Energy>
15.966

> <b_lp_Chiralities_Consistent>
1

> <s_lp_Variant>
AV-unprocessed.smi:2037-2

> <Gold.Version>
5.8.1

> <Gold.Id.Protein>
6NUR|6NUR_protein|mol2

> <Gold.PLP.Fitness>
44.8392

> <Gold.PLP.PLP>
-31.4569

> <Gold.PLP.part.hbond>
-4.9546

> <Gold.PLP.part.metal>
0.0000

> <Gold.PLP.part.buried>
-1.4120

> <Gold.PLP.part.nonpolar>
-25.4798

> <Gold.PLP.part.repulsive>
0.3928

> <Gold.PLP.ligand.clash>
0.0000

> <Gold.PLP.ligand.torsion>
0.6605

> <Gold.PLP.Chemscore.Hbond>
4.8960

> <Gold.PLP.Chemscore.CHOScore>
0.0000

> <Gold.PLP.Chemscore.Metal>
0.0000

> <Gold.Chemscore.Hbonds>
donor molecule, donor type, donor heavy atom, donor atom, acceptor molecule, acceptor atom, score
      L1  H     5    39       P1  7948  1.98
      L1  H     8    31       P1  7957  0.90
      L1  H    11    32       P1  7957  1.00
      P1  H  7989  7998       L1    13  1.00

> <Gold.PLP.Chemscore.Internal.Correction>
0.0152

> <Gold.Rescore>
     Score         DG    S(hbond)    S(metal)    S(lipo)     H(rot)  DE(clash)    DE(int)     intcor
     17.95     -21.30       3.67        0.00      65.36       1.60       1.48       1.87       ----

> <Gold.Chemscore.Fitness>
17.9521

> <Gold.Chemscore.DG>
-21.3036

> <Gold.Chemscore.ZeroCoef>
-5.4800

> <Gold.Chemscore.Hbond>
3.6745

> <Gold.Chemscore.Metal>
0.0000

> <Gold.Chemscore.Lipo>
65.3600

> <Gold.Chemscore.Internal_Hbond>
0.0000

> <Gold.Chemscore.DEClash>
1.4770

> <Gold.Chemscore.DEInternal>
1.8744

> <Gold.Chemscore.Rot>
1.6001

> <Gold.Chemscore.Internal.Correction>
   9.000000E+99

> <Gold.Chemscore.Hbonds>
donor molecule, donor type, donor heavy atom, donor atom, acceptor molecule, acceptor atom, score
      L1  H     5    39       P1  7948  0.94
      L1  H     8    31       P1  7957  0.75
      L1  H    11    32       P1  7957  0.98
      P1  H  7989  7998       L1    13  0.61

> <Gold.Chemscore.Hbond.Weighted>
-12.2727

> <Gold.Chemscore.Metal.Weighted>
-0.0000

> <Gold.Chemscore.Lipo.Weighted>
-7.6471

> <Gold.Chemscore.Internal_Hbond.Weighted>
0.0000

> <Gold.Chemscore.DEClash.Weighted>
1.4770

> <Gold.Chemscore.DEInternal.Weighted>
1.8744

> <Gold.Chemscore.Rot.Weighted>
4.0963

> <Gold.Chemscore.Internal.Correction.Weighted>
   9.000000E+99

> <Gold.Protein.RotatedTorsions>
[ 6907 6896 6895 6894 ] final -119.71 input  -60.11 | X-H torsion
[ 7974 7965 7964 7962 ] final -130.81 input  175.53 | X-H torsion
[ 8008 7997 7996 7995 ] final -154.95 input   59.86 | X-H torsion
[ 10167 10162 10161 10158 ] final  -59.29 input  -65.29 | X-H torsion
[ 10718 10713 10712 10709 ] final  -33.23 input   66.30 | X-H torsion
[ 10763 10752 10751 10750 ] final  131.40 input  -60.55 | X-H torsion
[ 11005 11000 10999 10996 ] final  105.60 input  -57.11 | X-H torsion

> <Gold.Protein.ActiveResidues>
 VAL166  LYS551  ARG553  GLY616  TRP617  ASP618  TYR619  PRO620  LYS621  CYS622 
 ASP623  PHE694  ASN695  SER759  ASP760  ASP761  ALA762  ILE779  LEU786  VAL792 
 PHE793  MET794  SER795  GLU796  ALA797  LYS798  CYS799  TRP800  GLU811  SER814 

> <Gold.Protein.RotatedAtoms>
  150.8329  133.8062  159.3091 H   0  0  0  0  0  0  0  0  0  0  0  0  # atno 6907 bound_to 6896
  151.5786  135.1058  160.0021 H   0  0  0  0  0  0  0  0  0  0  0  0  # atno 6908 bound_to 6896
  152.4405  133.7398  159.6691 H   0  0  0  0  0  0  0  0  0  0  0  0  # atno 6909 bound_to 6896
  144.9439  140.7270  143.4829 H   0  0  0  0  0  0  0  0  0  0  0  0  # atno 7974 bound_to 7965
  155.6943  140.0759  157.2436 H   0  0  0  0  0  0  0  0  0  0  0  0  # atno 8008 bound_to 7997
  154.4083  140.1659  156.2173 H   0  0  0  0  0  0  0  0  0  0  0  0  # atno 8009 bound_to 7997
  155.9424  140.3383  155.6342 H   0  0  0  0  0  0  0  0  0  0  0  0  # atno 8010 bound_to 7997
  140.6144  143.2397  151.5632 H   0  0  0  0  0  0  0  0  0  0  0  0  # atno 10167 bound_to 10162
  156.3652  130.4330  149.7590 H   0  0  0  0  0  0  0  0  0  0  0  0  # atno 10718 bound_to 10713
  153.7737  135.3178  155.3356 H   0  0  0  0  0  0  0  0  0  0  0  0  # atno 10763 bound_to 10752
  154.8187  135.4618  154.0719 H   0  0  0  0  0  0  0  0  0  0  0  0  # atno 10764 bound_to 10752
  153.1986  135.6919  153.8344 H   0  0  0  0  0  0  0  0  0  0  0  0  # atno 10765 bound_to 10752
  139.8804  134.9341  156.5539 H   0  0  0  0  0  0  0  0  0  0  0  0  # atno 11005 bound_to 11000
  145.2948  139.1871  143.4721 LP  0  0  0  0  0  0  0  0  0  0  0  0  # atno 17320 bound_to 7965
  146.3296  140.2930  142.8616 LP  0  0  0  0  0  0  0  0  0  0  0  0  # atno 17321 bound_to 7965
  139.5387  144.2709  152.1305 LP  0  0  0  0  0  0  0  0  0  0  0  0  # atno 17342 bound_to 10162
  140.1915  144.4747  150.6477 LP  0  0  0  0  0  0  0  0  0  0  0  0  # atno 17343 bound_to 10162
  156.4739  130.8009  151.3026 LP  0  0  0  0  0  0  0  0  0  0  0  0  # atno 17370 bound_to 10713
  157.7478  131.0027  150.3011 LP  0  0  0  0  0  0  0  0  0  0  0  0  # atno 17371 bound_to 10713
  140.8219  133.8347  155.8904 LP  0  0  0  0  0  0  0  0  0  0  0  0  # atno 17394 bound_to 11000
  140.9410  134.1901  157.4797 LP  0  0  0  0  0  0  0  0  0  0  0  0  # atno 17395 bound_to 11000

$$$$
