AV-unprocessed.smi:462|AV-procd|sdf|2633|dock2
  -GOLD-   2262023 43D 1   1.00000     0.00000
 Structure written by MMmdl.
 47 49  0  0  0  0  0  0  0  0  2 V2000
  152.1948  145.4410  159.9187 C   0  0  0  0  0  0  0  0  0  0  0  0
  151.8380  144.3239  159.1192 O   0  0  0  0  0  0  0  0  0  0  0  0
  152.4027  143.0997  159.4143 C   0  0  0  0  0  0  0  0  0  0  0  0
  153.4230  142.9156  160.3815 C   0  0  0  0  0  0  0  0  0  0  0  0
  153.9470  141.6340  160.6305 C   0  0  0  0  0  0  0  0  0  0  0  0
  153.4607  140.5247  159.9177 C   0  0  0  0  0  0  0  0  0  0  0  0
  152.4484  140.6956  158.9560 C   0  0  0  0  0  0  0  0  0  0  0  0
  151.9129  141.9824  158.7003 C   0  0  0  0  0  0  0  0  0  0  0  0
  150.9217  142.2274  157.7758 O   0  0  0  0  0  0  0  0  0  0  0  0
  150.3254  141.1310  157.0985 C   0  0  0  0  0  0  0  0  0  0  0  0
  151.1233  140.8359  155.8171 C   0  0  0  0  0  0  0  0  0  0  0  0
  150.3800  139.9809  154.8730 N   0  0  0  0  0  0  0  0  0  0  0  0
  150.6711  138.7449  154.3571 C   0  0  0  0  0  0  0  0  0  0  0  0
  151.9126  137.9154  154.5771 C   0  0  0  0  0  0  0  0  0  0  0  0
  153.1862  138.7741  154.4487 C   0  0  0  0  0  0  0  0  0  0  0  0
  151.8522  137.2475  155.9614 C   0  0  0  0  0  0  0  0  0  0  0  0
  152.0444  136.8911  153.6126 O   0  0  0  0  0  0  0  0  0  0  0  0
  149.6400  138.4154  153.5245 N   0  3  0  0  0  0  0  0  0  0  0  0
  148.6788  139.4239  153.5229 C   0  0  0  0  0  0  0  0  0  0  0  0
  147.4647  139.5224  152.8503 C   0  0  0  0  0  0  0  0  0  0  0  0
  146.7143  140.6962  153.0679 C   0  0  0  0  0  0  0  0  0  0  0  0
  147.1810  141.7168  153.9209 C   0  0  0  0  0  0  0  0  0  0  0  0
  148.4165  141.6060  154.5916 C   0  0  0  0  0  0  0  0  0  0  0  0
  149.1498  140.4377  154.3790 C   0  0  0  0  0  0  0  0  0  0  0  0
  151.6525  146.3191  159.5684 H   0  0  0  0  0  0  0  0  0  0  0  0
  153.2606  145.6604  159.8455 H   0  0  0  0  0  0  0  0  0  0  0  0
  151.9273  145.2845  160.9645 H   0  0  0  0  0  0  0  0  0  0  0  0
  153.8218  143.7434  160.9475 H   0  0  0  0  0  0  0  0  0  0  0  0
  154.7237  141.5025  161.3694 H   0  0  0  0  0  0  0  0  0  0  0  0
  153.8645  139.5414  160.1081 H   0  0  0  0  0  0  0  0  0  0  0  0
  152.0999  139.8238  158.4237 H   0  0  0  0  0  0  0  0  0  0  0  0
  150.3203  140.2499  157.7412 H   0  0  0  0  0  0  0  0  0  0  0  0
  149.2920  141.3655  156.8407 H   0  0  0  0  0  0  0  0  0  0  0  0
  151.4032  141.7607  155.3122 H   0  0  0  0  0  0  0  0  0  0  0  0
  152.0588  140.3371  156.0665 H   0  0  0  0  0  0  0  0  0  0  0  0
  153.2132  139.5683  155.1956 H   0  0  0  0  0  0  0  0  0  0  0  0
  153.2542  139.2406  153.4649 H   0  0  0  0  0  0  0  0  0  0  0  0
  154.0858  138.1732  154.5886 H   0  0  0  0  0  0  0  0  0  0  0  0
  151.7842  137.9931  156.7543 H   0  0  0  0  0  0  0  0  0  0  0  0
  152.7418  136.6465  156.1529 H   0  0  0  0  0  0  0  0  0  0  0  0
  150.9873  136.5908  156.0566 H   0  0  0  0  0  0  0  0  0  0  0  0
  151.2833  136.9044  153.0526 H   0  0  0  0  0  0  0  0  0  0  0  0
  147.1062  138.7420  152.1954 H   0  0  0  0  0  0  0  0  0  0  0  0
  145.7626  140.8163  152.5711 H   0  0  0  0  0  0  0  0  0  0  0  0
  146.5794  142.6020  154.0666 H   0  0  0  0  0  0  0  0  0  0  0  0
  148.7584  142.3920  155.2483 H   0  0  0  0  0  0  0  0  0  0  0  0
  149.5995  137.5523  152.9987 H   0  0  0  0  0  0  0  0  0  0  0  0
  1  2  1  0  0  0  0
  1 25  1  0  0  0  0
  1 26  1  0  0  0  0
  1 27  1  0  0  0  0
  2  3  1  0  0  0  0
  3  8  1  0  0  0  0
  3  4  2  0  0  0  0
  4  5  1  0  0  0  0
  4 28  1  0  0  0  0
  5  6  2  0  0  0  0
  5 29  1  0  0  0  0
  6  7  1  0  0  0  0
  6 30  1  0  0  0  0
  7  8  2  0  0  0  0
  7 31  1  0  0  0  0
  8  9  1  0  0  0  0
  9 10  1  0  0  0  0
 10 11  1  0  0  0  0
 10 32  1  0  0  0  0
 10 33  1  0  0  0  0
 11 12  1  0  0  0  0
 11 34  1  0  0  0  0
 11 35  1  0  0  0  0
 12 24  1  0  0  0  0
 12 13  1  0  0  0  0
 13 14  1  0  0  0  0
 13 18  2  0  0  0  0
 14 15  1  0  0  0  0
 14 16  1  0  0  0  0
 14 17  1  0  0  0  0
 15 36  1  0  0  0  0
 15 37  1  0  0  0  0
 15 38  1  0  0  0  0
 16 39  1  0  0  0  0
 16 40  1  0  0  0  0
 16 41  1  0  0  0  0
 17 42  1  0  0  0  0
 18 19  1  0  0  0  0
 18 47  1  0  0  0  0
 19 24  2  0  0  0  0
 19 20  1  0  0  0  0
 20 21  2  0  0  0  0
 20 43  1  0  0  0  0
 21 22  1  0  0  0  0
 21 44  1  0  0  0  0
 22 23  2  0  0  0  0
 22 45  1  0  0  0  0
 23 24  1  0  0  0  0
 23 46  1  0  0  0  0
M  CHG  1  18   1
M  END
> <s_m_source_file>
AV-unprocessed.smi

> <i_m_source_file_index>
462

> <i_lp_mmshare_version>
43012

> <i_f3d_flags>
0

> <s_epik_input>
W0NIM11PYzFbY0hdW2NIXVtjSF1bY0hdYzFPW0NIMl1bQ0gyXW4oYyhuMilDKFtDSDNdKShbQ0gzXSlbT0hdKWMoYzIzKVtjSF1bY0hdW2NIXVtjSF0z

> <s_epik_cmdline>
J2VwaWtfcHl0aG9uJywgJy1waCcsICc3LjAnLCAnLXRuJywgJzgnLCAnLW1hJywgJzIwMCcsICctbWV0YWxfYmluZGluZycsICctaW1hZScsICc8aW5maWxlLm1hZT4nLCAnLW9tYWUnLCAnPG91dGZpbGUubWFlPic=

> <r_lp_tautomer_probability>
1

> <r_epik_Ionization_Penalty>
1.32796

> <r_epik_Ionization_Penalty_Charging>
1.32796

> <r_epik_Ionization_Penalty_Neutral>
1.51811e-06

> <r_epik_State_Penalty>
1.40413

> <r_epik_Charging_Adjusted_Penalty>
2.73209

> <i_epik_Tot_Q>
1

> <i_epik_Tot_abs_Q>
1

> <r_epik_Metal_State_Penalty>
5.43878

> <b_epik_Metal_Only>
0

> <s_lp_Force_Field>
OPLS_2005

> <r_lp_Energy>
22.2215

> <b_lp_Chiralities_Consistent>
1

> <s_lp_Variant>
AV-unprocessed.smi:462-2

> <Gold.Version>
5.8.1

> <Gold.Id.Protein>
6NUR|6NUR_protein|mol2

> <Gold.PLP.Fitness>
65.5563

> <Gold.PLP.PLP>
-56.4027

> <Gold.PLP.part.hbond>
-4.0000

> <Gold.PLP.part.metal>
0.0000

> <Gold.PLP.part.buried>
0.6853

> <Gold.PLP.part.nonpolar>
-53.3496

> <Gold.PLP.part.repulsive>
0.2329

> <Gold.PLP.ligand.clash>
0.0000

> <Gold.PLP.ligand.torsion>
0.8311

> <Gold.PLP.Chemscore.Hbond>
3.5120

> <Gold.PLP.Chemscore.CHOScore>
0.0000

> <Gold.PLP.Chemscore.Metal>
0.0000

> <Gold.Chemscore.Hbonds>
donor molecule, donor type, donor heavy atom, donor atom, acceptor molecule, acceptor atom, score
      L1  H    17    42       P1  7949  0.46
      L1  H    18    47       P1  7948  2.00
      P1  H 10752 10765       L1    17  1.00

> <Gold.PLP.Chemscore.Internal.Correction>
0.2797

> <Gold.Rescore>
     Score         DG    S(hbond)    S(metal)    S(lipo)     H(rot)  DE(clash)    DE(int)     intcor
     21.05     -24.01       2.12        0.00     148.76       2.33       1.62       1.34       ----

> <Gold.Chemscore.Fitness>
21.0520

> <Gold.Chemscore.DG>
-24.0101

> <Gold.Chemscore.ZeroCoef>
-5.4800

> <Gold.Chemscore.Hbond>
2.1226

> <Gold.Chemscore.Metal>
0.0000

> <Gold.Chemscore.Lipo>
148.7594

> <Gold.Chemscore.Internal_Hbond>
0.0000

> <Gold.Chemscore.DEClash>
1.6186

> <Gold.Chemscore.DEInternal>
1.3395

> <Gold.Chemscore.Rot>
2.3298

> <Gold.Chemscore.Internal.Correction>
   9.000000E+99

> <Gold.Chemscore.Hbonds>
donor molecule, donor type, donor heavy atom, donor atom, acceptor molecule, acceptor atom, score
      L1  H    17    42       P1  7949  0.34
      L1  H    18    47       P1  7948  0.74
      P1  H 10752 10765       L1    17  0.76

> <Gold.Chemscore.Hbond.Weighted>
-7.0896

> <Gold.Chemscore.Metal.Weighted>
-0.0000

> <Gold.Chemscore.Lipo.Weighted>
-17.4049

> <Gold.Chemscore.Internal_Hbond.Weighted>
0.0000

> <Gold.Chemscore.DEClash.Weighted>
1.6186

> <Gold.Chemscore.DEInternal.Weighted>
1.3395

> <Gold.Chemscore.Rot.Weighted>
5.9643

> <Gold.Chemscore.Internal.Correction.Weighted>
   9.000000E+99

> <Gold.Protein.RotatedTorsions>
[ 6907 6896 6895 6894 ] final  -58.28 input  -60.11 | X-H torsion
[ 7974 7965 7964 7962 ] final -130.77 input  175.53 | X-H torsion
[ 8008 7997 7996 7995 ] final   59.53 input   59.86 | X-H torsion
[ 10167 10162 10161 10158 ] final   87.88 input  -65.29 | X-H torsion
[ 10718 10713 10712 10709 ] final  123.84 input   66.30 | X-H torsion
[ 10763 10752 10751 10750 ] final  154.79 input  -60.55 | X-H torsion
[ 11005 11000 10999 10996 ] final   14.55 input  -57.11 | X-H torsion

> <Gold.Protein.ActiveResidues>
 VAL166  LYS551  ARG553  GLY616  TRP617  ASP618  TYR619  PRO620  LYS621  CYS622 
 ASP623  PHE694  ASN695  SER759  ASP760  ASP761  ALA762  ILE779  LEU786  VAL792 
 PHE793  MET794  SER795  GLU796  ALA797  LYS798  CYS799  TRP800  GLU811  SER814 

> <Gold.Protein.RotatedAtoms>
  150.8019  134.7119  159.6608 H   0  0  0  0  0  0  0  0  0  0  0  0  # atno 6907 bound_to 6896
  152.4137  134.6077  160.0027 H   0  0  0  0  0  0  0  0  0  0  0  0  # atno 6908 bound_to 6896
  151.6312  133.3295  159.3145 H   0  0  0  0  0  0  0  0  0  0  0  0  # atno 6909 bound_to 6896
  144.9443  140.7274  143.4827 H   0  0  0  0  0  0  0  0  0  0  0  0  # atno 7974 bound_to 7965
  155.5677  140.3489  155.4507 H   0  0  0  0  0  0  0  0  0  0  0  0  # atno 8008 bound_to 7997
  156.0468  140.1308  157.0121 H   0  0  0  0  0  0  0  0  0  0  0  0  # atno 8009 bound_to 7997
  154.4416  140.1013  156.6302 H   0  0  0  0  0  0  0  0  0  0  0  0  # atno 8010 bound_to 7997
  139.8729  144.6483  150.8929 H   0  0  0  0  0  0  0  0  0  0  0  0  # atno 10167 bound_to 10162
  157.5632  131.1088  150.8500 H   0  0  0  0  0  0  0  0  0  0  0  0  # atno 10718 bound_to 10713
  154.1580  135.2811  155.3116 H   0  0  0  0  0  0  0  0  0  0  0  0  # atno 10763 bound_to 10752
  154.6168  135.5481  153.7535 H   0  0  0  0  0  0  0  0  0  0  0  0  # atno 10764 bound_to 10752
  153.0201  135.6429  154.1723 H   0  0  0  0  0  0  0  0  0  0  0  0  # atno 10765 bound_to 10752
  140.4683  134.1057  155.7728 H   0  0  0  0  0  0  0  0  0  0  0  0  # atno 11005 bound_to 11000
  145.2942  139.1873  143.4724 LP  0  0  0  0  0  0  0  0  0  0  0  0  # atno 17320 bound_to 7965
  146.3297  140.2924  142.8616 LP  0  0  0  0  0  0  0  0  0  0  0  0  # atno 17321 bound_to 7965
  140.7757  143.3648  151.1759 LP  0  0  0  0  0  0  0  0  0  0  0  0  # atno 17342 bound_to 10162
  139.7267  143.9138  152.3005 LP  0  0  0  0  0  0  0  0  0  0  0  0  # atno 17343 bound_to 10162
  156.8992  130.5240  149.5283 LP  0  0  0  0  0  0  0  0  0  0  0  0  # atno 17370 bound_to 10713
  156.0683  130.5721  150.9333 LP  0  0  0  0  0  0  0  0  0  0  0  0  # atno 17371 bound_to 10713
  141.1589  133.8830  157.1902 LP  0  0  0  0  0  0  0  0  0  0  0  0  # atno 17394 bound_to 11000
  139.9901  135.0067  156.9956 LP  0  0  0  0  0  0  0  0  0  0  0  0  # atno 17395 bound_to 11000

$$$$
