AV-unprocessed.smi:2083|AV-procd|sdf|8492|dock4
  -GOLD-   2272011203D 1   1.00000     0.00000
 Structure written by MMmdl.
 45 46  0  0  0  0  0  0  0  0  2 V2000
  150.5112  142.0335  156.0095 C   0  0  0  0  0  0  0  0  0  0  0  0
  150.2059  140.8498  155.1568 C   0  0  0  0  0  0  0  0  0  0  0  0
  149.0425  140.3427  154.6492 C   0  0  0  0  0  0  0  0  0  0  0  0
  149.4797  139.1975  153.9317 C   0  0  0  0  0  0  0  0  0  0  0  0
  148.5542  138.3712  153.2443 N   0  0  0  0  0  0  0  0  0  0  0  0
  147.2128  138.4484  153.2706 C   0  0  0  0  0  0  0  0  0  0  0  0
  146.5602  139.2712  153.9138 O   0  0  0  0  0  0  0  0  0  0  0  0
  146.6525  137.5064  152.4978 N   0  0  0  0  0  0  0  0  0  0  0  0
  145.2160  137.3417  152.2928 C   0  0  0  0  0  0  0  0  0  0  0  0
  144.6343  136.0871  153.0046 C   0  0  2  0  0  0  0  0  0  0  0  0
  145.1182  136.0341  154.4716 C   0  0  0  0  0  0  0  0  0  0  0  0
  144.9463  134.7893  152.3185 N   0  3  2  0  0  0  0  0  0  0  0  0
  146.3531  134.3061  152.4393 C   0  0  0  0  0  0  0  0  0  0  0  0
  146.5278  132.9059  151.8276 C   0  0  0  0  0  0  0  0  0  0  0  0
  146.0600  132.8668  150.3685 C   0  0  0  0  0  0  0  0  0  0  0  0
  144.6251  133.4024  150.2377 C   0  0  1  0  0  0  0  0  0  0  0  0
  143.5648  132.4222  150.7702 C   0  0  0  0  0  0  0  0  0  0  0  0
  144.5141  134.7947  150.8898 C   0  0  0  0  0  0  0  0  0  0  0  0
  150.7908  139.0229  153.9928 N   0  0  0  0  0  0  0  0  0  0  0  0
  151.2627  140.0808  154.7787 O   0  0  0  0  0  0  0  0  0  0  0  0
  149.6400  142.6818  156.1039 H   0  0  0  0  0  0  0  0  0  0  0  0
  151.3235  142.6205  155.5809 H   0  0  0  0  0  0  0  0  0  0  0  0
  150.8105  141.7209  157.0100 H   0  0  0  0  0  0  0  0  0  0  0  0
  148.0423  140.7297  154.7756 H   0  0  0  0  0  0  0  0  0  0  0  0
  148.9579  137.6498  152.6655 H   0  0  0  0  0  0  0  0  0  0  0  0
  147.2608  136.8681  152.0053 H   0  0  0  0  0  0  0  0  0  0  0  0
  144.7346  138.2562  152.6419 H   0  0  0  0  0  0  0  0  0  0  0  0
  145.0383  137.2805  151.2184 H   0  0  0  0  0  0  0  0  0  0  0  0
  143.5485  136.1969  153.0065 H   0  0  0  0  0  0  0  0  0  0  0  0
  144.8471  136.9364  155.0196 H   0  0  0  0  0  0  0  0  0  0  0  0
  146.2026  135.9318  154.5228 H   0  0  0  0  0  0  0  0  0  0  0  0
  144.6859  135.2046  155.0285 H   0  0  0  0  0  0  0  0  0  0  0  0
  147.0281  135.0177  151.9609 H   0  0  0  0  0  0  0  0  0  0  0  0
  146.6506  134.2257  153.4838 H   0  0  0  0  0  0  0  0  0  0  0  0
  147.5742  132.6052  151.8865 H   0  0  0  0  0  0  0  0  0  0  0  0
  145.9702  132.1768  152.4163 H   0  0  0  0  0  0  0  0  0  0  0  0
  146.7297  133.4793  149.7633 H   0  0  0  0  0  0  0  0  0  0  0  0
  146.1311  131.8531  149.9725 H   0  0  0  0  0  0  0  0  0  0  0  0
  144.4223  133.5239  149.1728 H   0  0  0  0  0  0  0  0  0  0  0  0
  143.6652  132.2536  151.8423 H   0  0  0  0  0  0  0  0  0  0  0  0
  143.6415  131.4545  150.2736 H   0  0  0  0  0  0  0  0  0  0  0  0
  142.5583  132.8015  150.5912 H   0  0  0  0  0  0  0  0  0  0  0  0
  143.4890  135.1458  150.7873 H   0  0  0  0  0  0  0  0  0  0  0  0
  145.1325  135.5053  150.3389 H   0  0  0  0  0  0  0  0  0  0  0  0
  144.3851  134.0926  152.7872 H   0  0  0  0  0  0  0  0  0  0  0  0
  1  2  1  0  0  0  0
  1 21  1  0  0  0  0
  1 22  1  0  0  0  0
  1 23  1  0  0  0  0
  2 20  1  0  0  0  0
  2  3  2  0  0  0  0
  3  4  1  0  0  0  0
  3 24  1  0  0  0  0
  4  5  1  0  0  0  0
  4 19  2  0  0  0  0
  5  6  1  0  0  0  0
  5 25  1  0  0  0  0
  6  7  2  0  0  0  0
  6  8  1  0  0  0  0
  8  9  1  0  0  0  0
  8 26  1  0  0  0  0
  9 10  1  0  0  0  0
  9 27  1  0  0  0  0
  9 28  1  0  0  0  0
 10 11  1  0  0  0  0
 10 12  1  0  0  0  0
 10 29  1  0  0  0  0
 11 30  1  0  0  0  0
 11 31  1  0  0  0  0
 11 32  1  0  0  0  0
 12 18  1  0  0  0  0
 12 13  1  0  0  0  0
 12 45  1  0  0  0  0
 13 14  1  0  0  0  0
 13 33  1  0  0  0  0
 13 34  1  0  0  0  0
 14 15  1  0  0  0  0
 14 35  1  0  0  0  0
 14 36  1  0  0  0  0
 15 16  1  0  0  0  0
 15 37  1  0  0  0  0
 15 38  1  0  0  0  0
 16 17  1  0  0  0  0
 16 18  1  0  0  0  0
 16 39  1  0  0  0  0
 17 40  1  0  0  0  0
 17 41  1  0  0  0  0
 17 42  1  0  0  0  0
 18 43  1  0  0  0  0
 18 44  1  0  0  0  0
 19 20  1  0  0  0  0
M  CHG  1  12   1
M  END
> <s_m_source_file>
AV-unprocessed.smi

> <i_m_source_file_index>
2083

> <i_lp_mmshare_version>
43012

> <i_f3d_flags>
0

> <s_epik_input>
W0NIM11jMVtjSF1jKG5vMSlbTkhdQyg9TylbTkhdW0NIMl1bQ0BIXShbQ0gzXSlOMltDSDJdW0NIMl1bQ0gyXVtDQEBIXShbQ0gzXSlbQ0gyXTI=

> <s_epik_cmdline>
J2VwaWtfcHl0aG9uJywgJy1waCcsICc3LjAnLCAnLXRuJywgJzgnLCAnLW1hJywgJzIwMCcsICctbWV0YWxfYmluZGluZycsICctaW1hZScsICc8aW5maWxlLm1hZT4nLCAnLW9tYWUnLCAnPG91dGZpbGUubWFlPic=

> <r_epik_Ionization_Penalty>
0.00216453

> <r_epik_Ionization_Penalty_Charging>
0.00212879

> <r_epik_Ionization_Penalty_Neutral>
3.57418e-05

> <r_epik_State_Penalty>
0.00146033

> <r_epik_Charging_Adjusted_Penalty>
0.00358912

> <i_epik_Tot_Q>
1

> <i_epik_Tot_abs_Q>
1

> <r_epik_Metal_State_Penalty>
0.0215827

> <b_epik_Metal_Only>
0

> <s_lp_Force_Field>
OPLS_2005

> <r_lp_Energy>
21.6248

> <b_lp_Chiralities_Consistent>
1

> <s_lp_Variant>
AV-unprocessed.smi:2083-3

> <Gold.Version>
5.8.1

> <Gold.Id.Protein>
6NUR|6NUR_protein|mol2

> <Gold.PLP.Fitness>
38.7841

> <Gold.PLP.PLP>
-32.2439

> <Gold.PLP.part.hbond>
-4.4559

> <Gold.PLP.part.metal>
0.0000

> <Gold.PLP.part.buried>
-2.0412

> <Gold.PLP.part.nonpolar>
-26.6304

> <Gold.PLP.part.repulsive>
0.4816

> <Gold.PLP.ligand.clash>
0.0000

> <Gold.PLP.ligand.torsion>
0.2408

> <Gold.PLP.Chemscore.Hbond>
2.3200

> <Gold.PLP.Chemscore.CHOScore>
0.0000

> <Gold.PLP.Chemscore.Metal>
0.0000

> <Gold.Chemscore.Hbonds>
donor molecule, donor type, donor heavy atom, donor atom, acceptor molecule, acceptor atom, score
      L1  H     5    25       P1  7948  1.00
      L1  H     8    26       P1  7948  0.93
      P1  H  7989  7998       L1    20  0.45

> <Gold.PLP.Chemscore.Internal.Correction>
0.0618

> <Gold.Rescore>
     Score         DG    S(hbond)    S(metal)    S(lipo)     H(rot)  DE(clash)    DE(int)     intcor
     14.55     -16.21       1.95        0.00      69.80       1.55       0.05       1.62       ----

> <Gold.Chemscore.Fitness>
14.5528

> <Gold.Chemscore.DG>
-16.2135

> <Gold.Chemscore.ZeroCoef>
-5.4800

> <Gold.Chemscore.Hbond>
1.9545

> <Gold.Chemscore.Metal>
0.0000

> <Gold.Chemscore.Lipo>
69.8008

> <Gold.Chemscore.Internal_Hbond>
0.0000

> <Gold.Chemscore.DEClash>
0.0453

> <Gold.Chemscore.DEInternal>
1.6154

> <Gold.Chemscore.Rot>
1.5474

> <Gold.Chemscore.Internal.Correction>
   9.000000E+99

> <Gold.Chemscore.Hbonds>
donor molecule, donor type, donor heavy atom, donor atom, acceptor molecule, acceptor atom, score
      L1  H     5    25       P1  7948  0.97
      L1  H     8    26       P1  7948  0.90

> <Gold.Chemscore.Hbond.Weighted>
-6.5280

> <Gold.Chemscore.Metal.Weighted>
-0.0000

> <Gold.Chemscore.Lipo.Weighted>
-8.1667

> <Gold.Chemscore.Internal_Hbond.Weighted>
0.0000

> <Gold.Chemscore.DEClash.Weighted>
0.0453

> <Gold.Chemscore.DEInternal.Weighted>
1.6154

> <Gold.Chemscore.Rot.Weighted>
3.9612

> <Gold.Chemscore.Internal.Correction.Weighted>
   9.000000E+99

> <Gold.Protein.RotatedTorsions>
[ 6907 6896 6895 6894 ] final -154.93 input  -60.11 | X-H torsion
[ 7974 7965 7964 7962 ] final -142.60 input  175.53 | X-H torsion
[ 8008 7997 7996 7995 ] final -153.74 input   59.86 | X-H torsion
[ 10167 10162 10161 10158 ] final  157.32 input  -65.29 | X-H torsion
[ 10718 10713 10712 10709 ] final -149.73 input   66.30 | X-H torsion
[ 10763 10752 10751 10750 ] final  -71.15 input  -60.55 | X-H torsion
[ 11005 11000 10999 10996 ] final  -99.40 input  -57.11 | X-H torsion

> <Gold.Protein.ActiveResidues>
 VAL166  LYS551  ARG553  GLY616  TRP617  ASP618  TYR619  PRO620  LYS621  CYS622 
 ASP623  PHE694  ASN695  SER759  ASP760  ASP761  ALA762  ILE779  LEU786  VAL792 
 PHE793  MET794  SER795  GLU796  ALA797  LYS798  CYS799  TRP800  GLU811  SER814 

> <Gold.Protein.RotatedAtoms>
  151.2648  133.4284  159.2617 H   0  0  0  0  0  0  0  0  0  0  0  0  # atno 6907 bound_to 6896
  151.0498  134.9665  159.8215 H   0  0  0  0  0  0  0  0  0  0  0  0  # atno 6908 bound_to 6896
  152.5380  134.2603  159.8985 H   0  0  0  0  0  0  0  0  0  0  0  0  # atno 6909 bound_to 6896
  144.8431  140.5938  143.5439 H   0  0  0  0  0  0  0  0  0  0  0  0  # atno 7974 bound_to 7965
  155.6756  140.0738  157.2504 H   0  0  0  0  0  0  0  0  0  0  0  0  # atno 8008 bound_to 7997
  154.4115  140.1691  156.1978 H   0  0  0  0  0  0  0  0  0  0  0  0  # atno 8009 bound_to 7997
  155.9579  140.3372  155.6468 H   0  0  0  0  0  0  0  0  0  0  0  0  # atno 8010 bound_to 7997
  139.4823  144.4928  151.8283 H   0  0  0  0  0  0  0  0  0  0  0  0  # atno 10167 bound_to 10162
  156.4369  130.8103  151.2331 H   0  0  0  0  0  0  0  0  0  0  0  0  # atno 10718 bound_to 10713
  154.4278  135.5971  153.6049 H   0  0  0  0  0  0  0  0  0  0  0  0  # atno 10763 bound_to 10752
  152.9797  135.5967  154.3877 H   0  0  0  0  0  0  0  0  0  0  0  0  # atno 10764 bound_to 10752
  154.3711  135.2841  155.2244 H   0  0  0  0  0  0  0  0  0  0  0  0  # atno 10765 bound_to 10752
  141.1310  133.8319  157.0967 H   0  0  0  0  0  0  0  0  0  0  0  0  # atno 11005 bound_to 11000
  145.4652  139.1509  143.3844 LP  0  0  0  0  0  0  0  0  0  0  0  0  # atno 17320 bound_to 7965
  146.2720  140.4784  142.8810 LP  0  0  0  0  0  0  0  0  0  0  0  0  # atno 17321 bound_to 7965
  140.4414  144.1981  150.5891 LP  0  0  0  0  0  0  0  0  0  0  0  0  # atno 17342 bound_to 10162
  140.4679  143.2424  151.9130 LP  0  0  0  0  0  0  0  0  0  0  0  0  # atno 17343 bound_to 10162
  157.7507  131.0180  150.3610 LP  0  0  0  0  0  0  0  0  0  0  0  0  # atno 17370 bound_to 10713
  156.3959  130.3906  149.6995 LP  0  0  0  0  0  0  0  0  0  0  0  0  # atno 17371 bound_to 10713
  140.0358  134.9879  157.0869 LP  0  0  0  0  0  0  0  0  0  0  0  0  # atno 17394 bound_to 11000
  140.4212  134.1878  155.7164 LP  0  0  0  0  0  0  0  0  0  0  0  0  # atno 17395 bound_to 11000

$$$$
