AV-unprocessed.smi:2494|AV-procd|sdf|9822|dock2
  -GOLD-   2272013453D 1   1.00000     0.00000
 Structure written by MMmdl.
 30 31  0  0  0  0  0  0  0  0  1 V2000
  147.1880  142.5823  154.5278 O   0  0  0  0  0  0  0  0  0  0  0  0
  147.8776  141.3577  154.6576 C   0  0  0  0  0  0  0  0  0  0  0  0
  149.3389  141.6240  155.0551 C   0  0  0  0  0  0  0  0  0  0  0  0
  150.0926  140.3716  155.5777 C   0  0  1  0  0  0  0  0  0  0  0  0
  150.2715  139.3354  154.4399 C   0  0  0  0  0  0  0  0  0  0  0  0
  151.0213  138.2119  154.8822 O   0  0  0  0  0  0  0  0  0  0  0  0
  152.3282  138.5872  155.2881 C   0  0  0  0  0  0  0  0  0  0  0  0
  152.2145  139.5391  156.4841 C   0  0  0  0  0  0  0  0  0  0  0  0
  151.4060  140.7084  156.1508 N   0  0  0  0  0  0  0  0  0  0  0  0
  151.5197  141.7194  157.0968 C   0  0  0  0  0  0  0  0  0  0  0  0
  152.0627  141.4103  158.2824 N   0  0  0  0  0  0  0  0  0  0  0  0
  152.1934  142.4116  159.1794 C   0  0  0  0  0  0  0  0  0  0  0  0
  151.7864  143.7269  158.8804 C   0  0  0  0  0  0  0  0  0  0  0  0
  151.9529  145.0100  160.0214 Cl  0  0  0  0  0  0  0  0  0  0  0  0
  151.2391  143.9399  157.5997 C   0  0  0  0  0  0  0  0  0  0  0  0
  151.1122  142.9328  156.7084 N   0  0  0  0  0  0  0  0  0  0  0  0
  147.7622  143.2815  154.8014 H   0  0  0  0  0  0  0  0  0  0  0  0
  147.3787  140.7485  155.4117 H   0  0  0  0  0  0  0  0  0  0  0  0
  147.8120  140.8279  153.7079 H   0  0  0  0  0  0  0  0  0  0  0  0
  149.8777  142.0468  154.2059 H   0  0  0  0  0  0  0  0  0  0  0  0
  149.3261  142.4041  155.8155 H   0  0  0  0  0  0  0  0  0  0  0  0
  149.5000  139.9124  156.3703 H   0  0  0  0  0  0  0  0  0  0  0  0
  149.3053  138.9652  154.0996 H   0  0  0  0  0  0  0  0  0  0  0  0
  150.7599  139.7858  153.5738 H   0  0  0  0  0  0  0  0  0  0  0  0
  152.8835  137.6928  155.5707 H   0  0  0  0  0  0  0  0  0  0  0  0
  152.8680  139.0529  154.4619 H   0  0  0  0  0  0  0  0  0  0  0  0
  151.7604  139.0217  157.3304 H   0  0  0  0  0  0  0  0  0  0  0  0
  153.2126  139.8474  156.7983 H   0  0  0  0  0  0  0  0  0  0  0  0
  152.6265  142.1613  160.1365 H   0  0  0  0  0  0  0  0  0  0  0  0
  150.9046  144.9181  157.2874 H   0  0  0  0  0  0  0  0  0  0  0  0
  1  2  1  0  0  0  0
  1 17  1  0  0  0  0
  2  3  1  0  0  0  0
  2 18  1  0  0  0  0
  2 19  1  0  0  0  0
  3  4  1  0  0  0  0
  3 20  1  0  0  0  0
  3 21  1  0  0  0  0
  4  9  1  0  0  0  0
  4  5  1  0  0  0  0
  4 22  1  0  0  0  0
  5  6  1  0  0  0  0
  5 23  1  0  0  0  0
  5 24  1  0  0  0  0
  6  7  1  0  0  0  0
  7  8  1  0  0  0  0
  7 25  1  0  0  0  0
  7 26  1  0  0  0  0
  8  9  1  0  0  0  0
  8 27  1  0  0  0  0
  8 28  1  0  0  0  0
  9 10  1  0  0  0  0
 10 16  1  0  0  0  0
 10 11  2  0  0  0  0
 11 12  1  0  0  0  0
 12 13  2  0  0  0  0
 12 29  1  0  0  0  0
 13 14  1  0  0  0  0
 13 15  1  0  0  0  0
 15 16  2  0  0  0  0
 15 30  1  0  0  0  0
M  END
> <s_m_source_file>
AV-unprocessed.smi

> <i_m_source_file_index>
2494

> <i_lp_mmshare_version>
43012

> <i_f3d_flags>
0

> <s_epik_input>
W09IXVtDSDJdW0NIMl1bQ0BASF0xW0NIMl1PW0NIMl1bQ0gyXU4xYzJuW2NIXWMoQ2wpW2NIXW4y

> <s_epik_cmdline>
J2VwaWtfcHl0aG9uJywgJy1waCcsICc3LjAnLCAnLXRuJywgJzgnLCAnLW1hJywgJzIwMCcsICctbWV0YWxfYmluZGluZycsICctaW1hZScsICc8aW5maWxlLm1hZT4nLCAnLW9tYWUnLCAnPG91dGZpbGUubWFlPic=

> <r_lp_tautomer_probability>
1

> <r_epik_Ionization_Penalty>
3.66811e-07

> <r_epik_Ionization_Penalty_Charging>
0

> <r_epik_Ionization_Penalty_Neutral>
3.66811e-07

> <r_epik_State_Penalty>
-0

> <r_epik_Charging_Adjusted_Penalty>
0

> <i_epik_Tot_Q>
0

> <i_epik_Tot_abs_Q>
0

> <r_epik_Metal_State_Penalty>
-0

> <b_epik_Metal_Only>
0

> <s_lp_Force_Field>
OPLS_2005

> <r_lp_Energy>
15.3646

> <b_lp_Chiralities_Consistent>
1

> <s_lp_Variant>
AV-unprocessed.smi:2494-2

> <Gold.Version>
5.8.1

> <Gold.Id.Protein>
6NUR|6NUR_protein|mol2

> <Gold.PLP.Fitness>
35.9718

> <Gold.PLP.PLP>
-31.3449

> <Gold.PLP.part.hbond>
-1.0000

> <Gold.PLP.part.metal>
0.0000

> <Gold.PLP.part.buried>
-2.4639

> <Gold.PLP.part.nonpolar>
-28.8343

> <Gold.PLP.part.repulsive>
0.8919

> <Gold.PLP.ligand.clash>
0.0000

> <Gold.PLP.ligand.torsion>
0.3004

> <Gold.PLP.Chemscore.Hbond>
1.0000

> <Gold.PLP.Chemscore.CHOScore>
0.6349

> <Gold.PLP.Chemscore.Metal>
0.0000

> <Gold.Chemscore.Hbonds>
donor molecule, donor type, donor heavy atom, donor atom, acceptor molecule, acceptor atom, score
      L1  H     1    17       P1  8028  1.00
      L1  C    15    30       P1  8028  0.60

> <Gold.PLP.Chemscore.Internal.Correction>
0.3231

> <Gold.Rescore>
     Score         DG    S(hbond)    S(metal)    S(lipo)     H(rot)  DE(clash)    DE(int)     intcor
     11.40     -13.27       0.86        0.00      86.59       2.04       0.14       1.73       ----

> <Gold.Chemscore.Fitness>
11.4034

> <Gold.Chemscore.DG>
-13.2709

> <Gold.Chemscore.ZeroCoef>
-5.4800

> <Gold.Chemscore.Hbond>
0.8649

> <Gold.Chemscore.Metal>
0.0000

> <Gold.Chemscore.Lipo>
86.5874

> <Gold.Chemscore.Internal_Hbond>
0.0000

> <Gold.Chemscore.DEClash>
0.1386

> <Gold.Chemscore.DEInternal>
1.7289

> <Gold.Chemscore.Rot>
2.0424

> <Gold.Chemscore.Internal.Correction>
   9.000000E+99

> <Gold.Chemscore.Hbonds>
donor molecule, donor type, donor heavy atom, donor atom, acceptor molecule, acceptor atom, score
      L1  H     1    17       P1  8028  0.59

> <Gold.Chemscore.Hbond.Weighted>
-2.8887

> <Gold.Chemscore.Metal.Weighted>
-0.0000

> <Gold.Chemscore.Lipo.Weighted>
-10.1307

> <Gold.Chemscore.Internal_Hbond.Weighted>
0.0000

> <Gold.Chemscore.DEClash.Weighted>
0.1386

> <Gold.Chemscore.DEInternal.Weighted>
1.7289

> <Gold.Chemscore.Rot.Weighted>
5.2285

> <Gold.Chemscore.Internal.Correction.Weighted>
   9.000000E+99

> <Gold.Protein.RotatedTorsions>
[ 6907 6896 6895 6894 ] final  -50.76 input  -60.11 | X-H torsion
[ 7974 7965 7964 7962 ] final  140.97 input  175.53 | X-H torsion
[ 8008 7997 7996 7995 ] final   16.64 input   59.86 | X-H torsion
[ 10167 10162 10161 10158 ] final    9.33 input  -65.29 | X-H torsion
[ 10718 10713 10712 10709 ] final   74.11 input   66.30 | X-H torsion
[ 10763 10752 10751 10750 ] final  130.80 input  -60.55 | X-H torsion
[ 11005 11000 10999 10996 ] final  -52.58 input  -57.11 | X-H torsion

> <Gold.Protein.ActiveResidues>
 VAL166  LYS551  ARG553  GLY616  TRP617  ASP618  TYR619  PRO620  LYS621  CYS622 
 ASP623  PHE694  ASN695  SER759  ASP760  ASP761  ALA762  ILE779  LEU786  VAL792 
 PHE793  MET794  SER795  GLU796  ALA797  LYS798  CYS799  TRP800  GLU811  SER814 

> <Gold.Protein.RotatedAtoms>
  150.8676  134.8043  159.7130 H   0  0  0  0  0  0  0  0  0  0  0  0  # atno 6907 bound_to 6896
  152.4692  134.4999  159.9731 H   0  0  0  0  0  0  0  0  0  0  0  0  # atno 6908 bound_to 6896
  151.5092  133.3450  159.2917 H   0  0  0  0  0  0  0  0  0  0  0  0  # atno 6909 bound_to 6896
  144.9139  139.5257  143.5695 H   0  0  0  0  0  0  0  0  0  0  0  0  # atno 7974 bound_to 7965
  154.8799  140.2971  155.5431 H   0  0  0  0  0  0  0  0  0  0  0  0  # atno 8008 bound_to 7997
  156.3022  140.2444  156.3734 H   0  0  0  0  0  0  0  0  0  0  0  0  # atno 8009 bound_to 7997
  154.8728  140.0401  157.1724 H   0  0  0  0  0  0  0  0  0  0  0  0  # atno 8010 bound_to 7997
  140.6261  143.8097  150.7235 H   0  0  0  0  0  0  0  0  0  0  0  0  # atno 10167 bound_to 10162
  157.6578  130.9662  150.1165 H   0  0  0  0  0  0  0  0  0  0  0  0  # atno 10718 bound_to 10713
  153.7639  135.3192  155.3341 H   0  0  0  0  0  0  0  0  0  0  0  0  # atno 10763 bound_to 10752
  154.8220  135.4596  154.0810 H   0  0  0  0  0  0  0  0  0  0  0  0  # atno 10764 bound_to 10752
  153.2050  135.6928  153.8268 H   0  0  0  0  0  0  0  0  0  0  0  0  # atno 10765 bound_to 10752
  141.0931  133.6629  156.4045 H   0  0  0  0  0  0  0  0  0  0  0  0  # atno 11005 bound_to 11000
  146.3172  139.7966  142.8974 LP  0  0  0  0  0  0  0  0  0  0  0  0  # atno 17320 bound_to 7965
  145.3409  141.0287  143.3393 LP  0  0  0  0  0  0  0  0  0  0  0  0  # atno 17321 bound_to 7965
  140.1698  143.4204  152.2009 LP  0  0  0  0  0  0  0  0  0  0  0  0  # atno 17342 bound_to 10162
  139.5481  144.7316  151.4518 LP  0  0  0  0  0  0  0  0  0  0  0  0  # atno 17343 bound_to 10162
  156.2048  130.3662  149.8743 LP  0  0  0  0  0  0  0  0  0  0  0  0  # atno 17370 bound_to 10713
  156.6638  130.8793  151.3551 LP  0  0  0  0  0  0  0  0  0  0  0  0  # atno 17371 bound_to 10713
  140.5204  134.6310  157.5316 LP  0  0  0  0  0  0  0  0  0  0  0  0  # atno 17394 bound_to 11000
  139.9762  134.7212  155.9946 LP  0  0  0  0  0  0  0  0  0  0  0  0  # atno 17395 bound_to 11000

$$$$
