AV-unprocessed.smi:2583|AV-procd|sdf|10140|dock2
  -GOLD-   2272014153D 1   1.00000     0.00000
 Structure written by MMmdl.
 54 56  0  0  0  0  0  0  0  0  2 V2000
  134.9231  138.4975  153.9150 C   0  0  0  0  0  0  0  0  0  0  0  0
  135.9895  138.1045  154.9159 C   0  0  0  0  0  0  0  0  0  0  0  0
  135.8736  138.4532  156.2771 C   0  0  0  0  0  0  0  0  0  0  0  0
  136.7908  138.1159  157.2077 N   0  0  0  0  0  0  0  0  0  0  0  0
  137.8730  137.4169  156.8046 C   0  0  0  0  0  0  0  0  0  0  0  0
  138.1012  137.0291  155.4675 C   0  0  0  0  0  0  0  0  0  0  0  0
  139.2796  136.2877  155.1819 N   0  0  0  0  0  0  0  0  0  0  0  0
  140.0983  136.3943  154.1213 C   0  0  0  0  0  0  0  0  0  0  0  0
  139.9498  137.1749  153.1814 O   0  0  0  0  0  0  0  0  0  0  0  0
  141.1318  135.5460  154.2193 N   0  0  0  0  0  0  0  0  0  0  0  0
  142.2157  135.4306  153.2480 C   0  0  0  0  0  0  0  0  0  0  0  0
  142.1834  134.0536  152.5809 C   0  0  0  0  0  0  0  0  0  0  0  0
  143.3803  133.8721  151.6314 C   0  0  0  0  0  0  0  0  0  0  0  0
  144.6661  134.0030  152.3381 N   0  0  0  0  0  0  0  0  0  0  0  0
  145.8084  133.7485  151.4294 C   0  0  2  0  0  0  0  0  0  0  0  0
  145.5211  132.6576  150.3653 C   0  0  0  0  0  0  0  0  0  0  0  0
  145.4057  131.2570  150.9935 C   0  0  0  0  0  0  0  0  0  0  0  0
  146.6381  130.9010  151.7384 N   0  3  2  0  0  0  0  0  0  0  0  0
  146.5893  129.5277  152.2842 C   0  0  0  0  0  0  0  0  0  0  0  0
  146.9816  131.9087  152.7717 C   0  0  0  0  0  0  0  0  0  0  0  0
  147.1082  133.3136  152.1550 C   0  0  0  0  0  0  0  0  0  0  0  0
  144.7276  135.3525  152.9246 C   0  0  0  0  0  0  0  0  0  0  0  0
  143.5827  135.6012  153.9210 C   0  0  0  0  0  0  0  0  0  0  0  0
  137.1230  137.3752  154.5041 C   0  0  0  0  0  0  0  0  0  0  0  0
  134.1148  139.0520  154.3928 H   0  0  0  0  0  0  0  0  0  0  0  0
  134.4974  137.6095  153.4472 H   0  0  0  0  0  0  0  0  0  0  0  0
  135.3517  139.1253  153.1333 H   0  0  0  0  0  0  0  0  0  0  0  0
  135.0204  139.0126  156.6322 H   0  0  0  0  0  0  0  0  0  0  0  0
  138.5846  137.1642  157.5773 H   0  0  0  0  0  0  0  0  0  0  0  0
  139.5748  135.6506  155.9074 H   0  0  0  0  0  0  0  0  0  0  0  0
  141.1765  134.9415  155.0265 H   0  0  0  0  0  0  0  0  0  0  0  0
  142.0930  136.1941  152.4771 H   0  0  0  0  0  0  0  0  0  0  0  0
  142.1977  133.2671  153.3371 H   0  0  0  0  0  0  0  0  0  0  0  0
  141.2531  133.9313  152.0251 H   0  0  0  0  0  0  0  0  0  0  0  0
  143.2703  132.8841  151.1928 H   0  0  0  0  0  0  0  0  0  0  0  0
  143.3275  134.5932  150.8143 H   0  0  0  0  0  0  0  0  0  0  0  0
  146.0151  134.6844  150.9077 H   0  0  0  0  0  0  0  0  0  0  0  0
  144.6531  132.8751  149.7475 H   0  0  0  0  0  0  0  0  0  0  0  0
  146.3505  132.6443  149.6566 H   0  0  0  0  0  0  0  0  0  0  0  0
  144.5444  131.2130  151.6621 H   0  0  0  0  0  0  0  0  0  0  0  0
  145.2340  130.5201  150.2078 H   0  0  0  0  0  0  0  0  0  0  0  0
  145.7918  129.4272  153.0215 H   0  0  0  0  0  0  0  0  0  0  0  0
  147.5339  129.2700  152.7640 H   0  0  0  0  0  0  0  0  0  0  0  0
  146.4129  128.8035  151.4883 H   0  0  0  0  0  0  0  0  0  0  0  0
  146.2230  131.9069  153.5560 H   0  0  0  0  0  0  0  0  0  0  0  0
  147.9256  131.6335  153.2436 H   0  0  0  0  0  0  0  0  0  0  0  0
  147.9169  133.2907  151.4232 H   0  0  0  0  0  0  0  0  0  0  0  0
  147.4492  134.0340  152.8956 H   0  0  0  0  0  0  0  0  0  0  0  0
  145.6467  135.4924  153.4876 H   0  0  0  0  0  0  0  0  0  0  0  0
  144.7138  136.1055  152.1349 H   0  0  0  0  0  0  0  0  0  0  0  0
  143.6748  136.6058  154.3353 H   0  0  0  0  0  0  0  0  0  0  0  0
  143.6764  134.9114  154.7613 H   0  0  0  0  0  0  0  0  0  0  0  0
  137.2115  137.0872  153.4682 H   0  0  0  0  0  0  0  0  0  0  0  0
  147.3916  130.9143  151.0661 H   0  0  0  0  0  0  0  0  0  0  0  0
  1  2  1  0  0  0  0
  1 25  1  0  0  0  0
  1 26  1  0  0  0  0
  1 27  1  0  0  0  0
  2 24  1  0  0  0  0
  2  3  2  0  0  0  0
  3  4  1  0  0  0  0
  3 28  1  0  0  0  0
  4  5  2  0  0  0  0
  5  6  1  0  0  0  0
  5 29  1  0  0  0  0
  6  7  1  0  0  0  0
  6 24  2  0  0  0  0
  7  8  1  0  0  0  0
  7 30  1  0  0  0  0
  8  9  2  0  0  0  0
  8 10  1  0  0  0  0
 10 11  1  0  0  0  0
 10 31  1  0  0  0  0
 11 23  1  0  0  0  0
 11 12  1  0  0  0  0
 11 32  1  0  0  0  0
 12 13  1  0  0  0  0
 12 33  1  0  0  0  0
 12 34  1  0  0  0  0
 13 14  1  0  0  0  0
 13 35  1  0  0  0  0
 13 36  1  0  0  0  0
 14 15  1  0  0  0  0
 14 22  1  0  0  0  0
 15 21  1  0  0  0  0
 15 16  1  0  0  0  0
 15 37  1  0  0  0  0
 16 17  1  0  0  0  0
 16 38  1  0  0  0  0
 16 39  1  0  0  0  0
 17 18  1  0  0  0  0
 17 40  1  0  0  0  0
 17 41  1  0  0  0  0
 18 19  1  0  0  0  0
 18 20  1  0  0  0  0
 18 54  1  0  0  0  0
 19 42  1  0  0  0  0
 19 43  1  0  0  0  0
 19 44  1  0  0  0  0
 20 21  1  0  0  0  0
 20 45  1  0  0  0  0
 20 46  1  0  0  0  0
 21 47  1  0  0  0  0
 21 48  1  0  0  0  0
 22 23  1  0  0  0  0
 22 49  1  0  0  0  0
 22 50  1  0  0  0  0
 23 51  1  0  0  0  0
 23 52  1  0  0  0  0
 24 53  1  0  0  0  0
M  CHG  1  18   1
M  END
> <s_m_source_file>
AV-unprocessed.smi

> <i_m_source_file_index>
2583

> <i_lp_mmshare_version>
43012

> <i_f3d_flags>
0

> <s_epik_input>
W0NIM11jMVtjSF1uW2NIXWMoW2NIXTEpW05IXUMoPU8pW05IXVtDSF0yW0NIMl1bQ0gyXU4oW0NIMl1bQ0gyXTIpW0NIXTNbQ0gyXVtDSDJdTihbQ0gzXSlbQ0gyXVtDSDJdMw==

> <s_epik_cmdline>
J2VwaWtfcHl0aG9uJywgJy1waCcsICc3LjAnLCAnLXRuJywgJzgnLCAnLW1hJywgJzIwMCcsICctbWV0YWxfYmluZGluZycsICctaW1hZScsICc8aW5maWxlLm1hZT4nLCAnLW9tYWUnLCAnPG91dGZpbGUubWFlPic=

> <r_epik_Ionization_Penalty>
1.01912

> <r_epik_Ionization_Penalty_Charging>
0.000974969

> <r_epik_Ionization_Penalty_Neutral>
1.01814

> <r_epik_State_Penalty>
1.10721

> <r_epik_Charging_Adjusted_Penalty>
1.10819

> <i_epik_Tot_Q>
1

> <i_epik_Tot_abs_Q>
1

> <r_epik_Metal_State_Penalty>
1.10135

> <b_epik_Metal_Only>
0

> <s_lp_Force_Field>
OPLS_2005

> <r_lp_Energy>
36.2524

> <b_lp_Chiralities_Consistent>
1

> <s_lp_Variant>
AV-unprocessed.smi:2583-6

> <Gold.Version>
5.8.1

> <Gold.Id.Protein>
6NUR|6NUR_protein|mol2

> <Gold.PLP.Fitness>
45.1792

> <Gold.PLP.PLP>
-37.8569

> <Gold.PLP.part.hbond>
-3.0000

> <Gold.PLP.part.metal>
0.0000

> <Gold.PLP.part.buried>
-5.8086

> <Gold.PLP.part.nonpolar>
-29.2810

> <Gold.PLP.part.repulsive>
0.4355

> <Gold.PLP.ligand.clash>
0.0000

> <Gold.PLP.ligand.torsion>
0.8408

> <Gold.PLP.Chemscore.Hbond>
3.0000

> <Gold.PLP.Chemscore.CHOScore>
0.0000

> <Gold.PLP.Chemscore.Metal>
0.0000

> <Gold.Chemscore.Hbonds>
donor molecule, donor type, donor heavy atom, donor atom, acceptor molecule, acceptor atom, score
      L1  H     7    30       P1 11000  1.00
      L1  H    10    31       P1 11000  1.00
      L1  H    18    54       P1 10747  1.00

> <Gold.PLP.Chemscore.Internal.Correction>
0.0040

> <Gold.Rescore>
     Score         DG    S(hbond)    S(metal)    S(lipo)     H(rot)  DE(clash)    DE(int)     intcor
     22.01     -23.00       2.62        0.00     101.13       1.20       0.22       0.76       ----

> <Gold.Chemscore.Fitness>
22.0090

> <Gold.Chemscore.DG>
-22.9957

> <Gold.Chemscore.ZeroCoef>
-5.4800

> <Gold.Chemscore.Hbond>
2.6194

> <Gold.Chemscore.Metal>
0.0000

> <Gold.Chemscore.Lipo>
101.1286

> <Gold.Chemscore.Internal_Hbond>
0.0000

> <Gold.Chemscore.DEClash>
0.2248

> <Gold.Chemscore.DEInternal>
0.7619

> <Gold.Chemscore.Rot>
1.1974

> <Gold.Chemscore.Internal.Correction>
   9.000000E+99

> <Gold.Chemscore.Hbonds>
donor molecule, donor type, donor heavy atom, donor atom, acceptor molecule, acceptor atom, score
      L1  H     7    30       P1 11000  0.74
      L1  H    10    31       P1 11000  0.76
      L1  H    18    54       P1 10747  1.00

> <Gold.Chemscore.Hbond.Weighted>
-8.7489

> <Gold.Chemscore.Metal.Weighted>
-0.0000

> <Gold.Chemscore.Lipo.Weighted>
-11.8320

> <Gold.Chemscore.Internal_Hbond.Weighted>
0.0000

> <Gold.Chemscore.DEClash.Weighted>
0.2248

> <Gold.Chemscore.DEInternal.Weighted>
0.7619

> <Gold.Chemscore.Rot.Weighted>
3.0652

> <Gold.Chemscore.Internal.Correction.Weighted>
   9.000000E+99

> <Gold.Protein.RotatedTorsions>
[ 6907 6896 6895 6894 ] final  145.70 input  -60.11 | X-H torsion
[ 7974 7965 7964 7962 ] final   37.90 input  175.53 | X-H torsion
[ 8008 7997 7996 7995 ] final   10.30 input   59.86 | X-H torsion
[ 10167 10162 10161 10158 ] final  155.52 input  -65.29 | X-H torsion
[ 10718 10713 10712 10709 ] final  -59.60 input   66.30 | X-H torsion
[ 10763 10752 10751 10750 ] final -170.33 input  -60.55 | X-H torsion
[ 11005 11000 10999 10996 ] final -141.96 input  -57.11 | X-H torsion

> <Gold.Protein.ActiveResidues>
 VAL166  LYS551  ARG553  GLY616  TRP617  ASP618  TYR619  PRO620  LYS621  CYS622 
 ASP623  PHE694  ASN695  SER759  ASP760  ASP761  ALA762  ILE779  LEU786  VAL792 
 PHE793  MET794  SER795  GLU796  ALA797  LYS798  CYS799  TRP800  GLU811  SER814 

> <Gold.Protein.RotatedAtoms>
  152.1775  133.4685  159.4940 H   0  0  0  0  0  0  0  0  0  0  0  0  # atno 6907 bound_to 6896
  150.6929  134.1875  159.4281 H   0  0  0  0  0  0  0  0  0  0  0  0  # atno 6908 bound_to 6896
  151.9785  135.0040  160.0607 H   0  0  0  0  0  0  0  0  0  0  0  0  # atno 6909 bound_to 6896
  146.1103  139.5837  142.9357 H   0  0  0  0  0  0  0  0  0  0  0  0  # atno 7974 bound_to 7965
  154.7916  140.2836  155.5987 H   0  0  0  0  0  0  0  0  0  0  0  0  # atno 8008 bound_to 7997
  156.2965  140.2603  156.2693 H   0  0  0  0  0  0  0  0  0  0  0  0  # atno 8009 bound_to 7997
  154.9663  140.0377  157.2203 H   0  0  0  0  0  0  0  0  0  0  0  0  # atno 8010 bound_to 7997
  139.4821  144.5091  151.8052 H   0  0  0  0  0  0  0  0  0  0  0  0  # atno 10167 bound_to 10162
  156.1050  130.4181  150.0738 H   0  0  0  0  0  0  0  0  0  0  0  0  # atno 10718 bound_to 10713
  154.6427  135.2901  155.0084 H   0  0  0  0  0  0  0  0  0  0  0  0  # atno 10763 bound_to 10752
  154.1205  135.6549  153.4906 H   0  0  0  0  0  0  0  0  0  0  0  0  # atno 10764 bound_to 10752
  153.0335  135.5286  154.7301 H   0  0  0  0  0  0  0  0  0  0  0  0  # atno 10765 bound_to 10752
  140.8273  134.2559  157.4873 H   0  0  0  0  0  0  0  0  0  0  0  0  # atno 11005 bound_to 11000
  145.5678  141.0397  143.2191 LP  0  0  0  0  0  0  0  0  0  0  0  0  # atno 17320 bound_to 7965
  144.7505  139.7205  143.7275 LP  0  0  0  0  0  0  0  0  0  0  0  0  # atno 17321 bound_to 7965
  140.4592  144.1746  150.5904 LP  0  0  0  0  0  0  0  0  0  0  0  0  # atno 17342 bound_to 10162
  140.4502  143.2490  151.9357 LP  0  0  0  0  0  0  0  0  0  0  0  0  # atno 17343 bound_to 10162
  156.8716  130.9526  151.3608 LP  0  0  0  0  0  0  0  0  0  0  0  0  # atno 17370 bound_to 10713
  157.6225  130.8666  149.9133 LP  0  0  0  0  0  0  0  0  0  0  0  0  # atno 17371 bound_to 10713
  139.8706  134.9567  156.4246 LP  0  0  0  0  0  0  0  0  0  0  0  0  # atno 17394 bound_to 11000
  140.9036  133.7762  155.9708 LP  0  0  0  0  0  0  0  0  0  0  0  0  # atno 17395 bound_to 11000

$$$$
