AV-unprocessed.smi:102|AV-procd|sdf|961|dock4
  -GOLD-   2262017503D 1   1.00000     0.00000
 Structure written by MMmdl.
 43 44  0  0  0  0  0  0  0  0  2 V2000
  147.5468  135.2119  162.3858 C   0  0  0  0  0  0  0  0  0  0  0  0
  147.6740  136.0379  161.1130 C   0  0  0  0  0  0  0  0  0  0  0  0
  147.3122  137.2138  161.0724 O   0  0  0  0  0  0  0  0  0  0  0  0
  148.2083  135.3352  160.0982 O   0  0  0  0  0  0  0  0  0  0  0  0
  147.9482  135.7025  158.7499 C   0  0  0  0  0  0  0  0  0  0  0  0
  149.0562  136.6218  158.2143 C   0  0  2  0  0  0  0  0  0  0  0  0
  149.3606  137.6429  159.1584 O   0  0  0  0  0  0  0  0  0  0  0  0
  149.9370  138.7390  158.5085 C   0  0  1  0  0  0  0  0  0  0  0  0
  151.4099  138.8203  158.8641 N   0  0  0  0  0  0  0  0  0  0  0  0
  151.9929  137.9269  159.7485 C   0  0  0  0  0  0  0  0  0  0  0  0
  153.3053  137.9991  160.0498 C   0  0  0  0  0  0  0  0  0  0  0  0
  153.8432  137.1179  160.9105 F   0  0  0  0  0  0  0  0  0  0  0  0
  154.1330  139.0360  159.4361 C   0  0  0  0  0  0  0  0  0  0  0  0
  155.3294  139.0960  159.7150 O   0  0  0  0  0  0  0  0  0  0  0  0
  153.5325  139.9018  158.5691 N   0  5  0  0  0  0  0  0  0  0  0  0
  152.2050  139.8311  158.2588 C   0  0  0  0  0  0  0  0  0  0  0  0
  151.6550  140.5979  157.4682 O   0  0  0  0  0  0  0  0  0  0  0  0
  149.6901  138.5488  156.9932 C   0  0  1  0  0  0  0  0  0  0  0  0
  150.8828  138.1232  156.3304 O   0  0  0  0  0  0  0  0  0  0  0  0
  151.3781  138.8140  155.2894 C   0  0  0  0  0  0  0  0  0  0  0  0
  152.7317  138.2845  154.8361 C   0  0  0  0  0  0  0  0  0  0  0  0
  150.8404  139.7673  154.7262 O   0  0  0  0  0  0  0  0  0  0  0  0
  148.6392  137.4428  156.9994 C   0  0  1  0  0  0  0  0  0  0  0  0
  148.6223  136.6675  155.8060 O   0  0  0  0  0  0  0  0  0  0  0  0
  149.5027  135.6655  155.6393 C   0  0  0  0  0  0  0  0  0  0  0  0
  148.9594  134.5590  154.7455 C   0  0  0  0  0  0  0  0  0  0  0  0
  150.6261  135.5965  156.1378 O   0  0  0  0  0  0  0  0  0  0  0  0
  146.8881  134.3595  162.2200 H   0  0  0  0  0  0  0  0  0  0  0  0
  147.1346  135.8163  163.1941 H   0  0  0  0  0  0  0  0  0  0  0  0
  148.5241  134.8413  162.6957 H   0  0  0  0  0  0  0  0  0  0  0  0
  147.9376  134.7808  158.1678 H   0  0  0  0  0  0  0  0  0  0  0  0
  146.9626  136.1551  158.6323 H   0  0  0  0  0  0  0  0  0  0  0  0
  149.9562  136.0491  157.9822 H   0  0  0  0  0  0  0  0  0  0  0  0
  149.4847  139.6456  158.9138 H   0  0  0  0  0  0  0  0  0  0  0  0
  151.4028  137.1518  160.2127 H   0  0  0  0  0  0  0  0  0  0  0  0
  149.2996  139.4778  156.5755 H   0  0  0  0  0  0  0  0  0  0  0  0
  152.8116  137.2147  155.0308 H   0  0  0  0  0  0  0  0  0  0  0  0
  153.5316  138.7946  155.3729 H   0  0  0  0  0  0  0  0  0  0  0  0
  152.8682  138.4521  153.7676 H   0  0  0  0  0  0  0  0  0  0  0  0
  147.6566  137.8750  157.1969 H   0  0  0  0  0  0  0  0  0  0  0  0
  148.5848  134.9748  153.8100 H   0  0  0  0  0  0  0  0  0  0  0  0
  148.1434  134.0378  155.2463 H   0  0  0  0  0  0  0  0  0  0  0  0
  149.7411  133.8354  154.5134 H   0  0  0  0  0  0  0  0  0  0  0  0
  1  2  1  0  0  0  0
  1 28  1  0  0  0  0
  1 29  1  0  0  0  0
  1 30  1  0  0  0  0
  2  3  2  0  0  0  0
  2  4  1  0  0  0  0
  4  5  1  0  0  0  0
  5  6  1  0  0  0  0
  5 31  1  0  0  0  0
  5 32  1  0  0  0  0
  6 23  1  0  0  0  0
  6  7  1  0  0  0  0
  6 33  1  0  0  0  0
  7  8  1  0  0  0  0
  8  9  1  0  0  0  0
  8 18  1  0  0  0  0
  8 34  1  0  0  0  0
  9 16  1  0  0  0  0
  9 10  1  0  0  0  0
 10 11  2  0  0  0  0
 10 35  1  0  0  0  0
 11 12  1  0  0  0  0
 11 13  1  0  0  0  0
 13 14  2  0  0  0  0
 13 15  1  0  0  0  0
 15 16  1  0  0  0  0
 16 17  2  0  0  0  0
 18 19  1  0  0  0  0
 18 23  1  0  0  0  0
 18 36  1  0  0  0  0
 19 20  1  0  0  0  0
 20 21  1  0  0  0  0
 20 22  2  0  0  0  0
 21 37  1  0  0  0  0
 21 38  1  0  0  0  0
 21 39  1  0  0  0  0
 23 24  1  0  0  0  0
 23 40  1  0  0  0  0
 24 25  1  0  0  0  0
 25 26  1  0  0  0  0
 25 27  2  0  0  0  0
 26 41  1  0  0  0  0
 26 42  1  0  0  0  0
 26 43  1  0  0  0  0
M  CHG  1  15  -1
M  END
> <s_m_source_file>
AV-unprocessed.smi

> <i_m_source_file_index>
102

> <i_lp_mmshare_version>
43012

> <i_f3d_flags>
0

> <s_epik_input>
W0NIM11DKD1PKU9bQ0gyXVtDQEBIXTFPW0NASF0oW0NAQEhdKE9DKD1PKVtDSDNdKVtDQEhdMU9DKD1PKVtDSDNdKW4yW2NIXWMoRiljKD1PKVtuSF1jMj1P

> <s_epik_cmdline>
J2VwaWtfcHl0aG9uJywgJy1waCcsICc3LjAnLCAnLXRuJywgJzgnLCAnLW1hJywgJzIwMCcsICctbWV0YWxfYmluZGluZycsICctaW1hZScsICc8aW5maWxlLm1hZT4nLCAnLW9tYWUnLCAnPG91dGZpbGUubWFlPic=

> <r_epik_Ionization_Penalty>
1.40304

> <r_epik_Ionization_Penalty_Charging>
1.43915e-08

> <r_epik_Ionization_Penalty_Neutral>
1.40304

> <r_epik_State_Penalty>
1.48536

> <r_epik_Charging_Adjusted_Penalty>
1.48536

> <i_epik_Tot_Q>
-1

> <i_epik_Tot_abs_Q>
1

> <r_epik_Metal_State_Penalty>
0.00663881

> <b_epik_Metal_Only>
0

> <s_epik_Chemistry_Notes>
This compound has an ester and may undergo hydrolysis at high or low pH. This compound contains an acetal/aminal-like group ( X-CH(R)-Y where X, Y are N, S, or O) that may be acid/base labile, releasing an aldehyde.

> <s_lp_Force_Field>
OPLS_2005

> <r_lp_Energy>
23.8996

> <b_lp_Chiralities_Consistent>
1

> <s_lp_Variant>
AV-unprocessed.smi:102-17

> <Gold.Version>
5.8.1

> <Gold.Id.Protein>
6NUR|6NUR_protein|mol2

> <Gold.PLP.Fitness>
46.1735

> <Gold.PLP.PLP>
-35.1966

> <Gold.PLP.part.hbond>
-4.6049

> <Gold.PLP.part.metal>
0.0000

> <Gold.PLP.part.buried>
-5.8268

> <Gold.PLP.part.nonpolar>
-24.1504

> <Gold.PLP.part.repulsive>
0.1418

> <Gold.PLP.ligand.clash>
0.0000

> <Gold.PLP.ligand.torsion>
2.1547

> <Gold.PLP.Chemscore.Hbond>
4.8400

> <Gold.PLP.Chemscore.CHOScore>
0.0000

> <Gold.PLP.Chemscore.Metal>
0.0000

> <Gold.Chemscore.Hbonds>
donor molecule, donor type, donor heavy atom, donor atom, acceptor molecule, acceptor atom, score
      P1  H  6931  6943       L1     3  0.53
      P1  H  6934  6947       L1     3  1.00
      P1  H  7989  7998       L1    22  1.00
      P1  H  7997  8008       L1    15  1.61

> <Gold.PLP.Chemscore.Internal.Correction>
0.7662

> <Gold.Rescore>
     Score         DG    S(hbond)    S(metal)    S(lipo)     H(rot)  DE(clash)    DE(int)     intcor
      4.19     -10.99       3.33        0.00      39.55       4.00       0.25       6.55       ----

> <Gold.Chemscore.Fitness>
4.1915

> <Gold.Chemscore.DG>
-10.9880

> <Gold.Chemscore.ZeroCoef>
-5.4800

> <Gold.Chemscore.Hbond>
3.3258

> <Gold.Chemscore.Metal>
0.0000

> <Gold.Chemscore.Lipo>
39.5487

> <Gold.Chemscore.Internal_Hbond>
0.0000

> <Gold.Chemscore.DEClash>
0.2489

> <Gold.Chemscore.DEInternal>
6.5476

> <Gold.Chemscore.Rot>
3.9951

> <Gold.Chemscore.Internal.Correction>
   9.000000E+99

> <Gold.Chemscore.Hbonds>
donor molecule, donor type, donor heavy atom, donor atom, acceptor molecule, acceptor atom, score
      P1  H  6931  6943       L1     3  0.21
      P1  H  6934  6947       L1     3  0.98
      P1  H  7989  7998       L1    22  1.00
      P1  H  7997  8008       L1    15  0.16

> <Gold.Chemscore.Hbond.Weighted>
-11.1082

> <Gold.Chemscore.Metal.Weighted>
-0.0000

> <Gold.Chemscore.Lipo.Weighted>
-4.6272

> <Gold.Chemscore.Internal_Hbond.Weighted>
0.0000

> <Gold.Chemscore.DEClash.Weighted>
0.2489

> <Gold.Chemscore.DEInternal.Weighted>
6.5476

> <Gold.Chemscore.Rot.Weighted>
10.2274

> <Gold.Chemscore.Internal.Correction.Weighted>
   9.000000E+99

> <Gold.Protein.RotatedTorsions>
[ 6907 6896 6895 6894 ] final   -2.76 input  -60.11 | X-H torsion
[ 7974 7965 7964 7962 ] final -143.76 input  175.53 | X-H torsion
[ 8008 7997 7996 7995 ] final -112.41 input   59.86 | X-H torsion
[ 10167 10162 10161 10158 ] final  -82.71 input  -65.29 | X-H torsion
[ 10718 10713 10712 10709 ] final -135.35 input   66.30 | X-H torsion
[ 10763 10752 10751 10750 ] final  -96.51 input  -60.55 | X-H torsion
[ 11005 11000 10999 10996 ] final  129.93 input  -57.11 | X-H torsion

> <Gold.Protein.ActiveResidues>
 VAL166  LYS551  ARG553  GLY616  TRP617  ASP618  TYR619  PRO620  LYS621  CYS622 
 ASP623  PHE694  ASN695  SER759  ASP760  ASP761  ALA762  ILE779  LEU786  VAL792 
 PHE793  MET794  SER795  GLU796  ALA797  LYS798  CYS799  TRP800  GLU811  SER814 

> <Gold.Protein.RotatedAtoms>
  151.5247  135.1067  159.9887 H   0  0  0  0  0  0  0  0  0  0  0  0  # atno 6907 bound_to 6896
  152.4605  133.7808  159.6860 H   0  0  0  0  0  0  0  0  0  0  0  0  # atno 6908 bound_to 6896
  150.8565  133.7643  159.3032 H   0  0  0  0  0  0  0  0  0  0  0  0  # atno 6909 bound_to 6896
  144.8346  140.5794  143.5492 H   0  0  0  0  0  0  0  0  0  0  0  0  # atno 7974 bound_to 7965
  155.0047  140.0394  157.2375 H   0  0  0  0  0  0  0  0  0  0  0  0  # atno 8008 bound_to 7997
  154.7512  140.2767  155.6268 H   0  0  0  0  0  0  0  0  0  0  0  0  # atno 8009 bound_to 7997
  156.2885  140.2646  156.2266 H   0  0  0  0  0  0  0  0  0  0  0  0  # atno 8010 bound_to 7997
  140.4294  143.2554  151.8780 H   0  0  0  0  0  0  0  0  0  0  0  0  # atno 10167 bound_to 10162
  156.2652  130.7233  151.1181 H   0  0  0  0  0  0  0  0  0  0  0  0  # atno 10718 bound_to 10713
  154.7246  135.5081  153.8866 H   0  0  0  0  0  0  0  0  0  0  0  0  # atno 10763 bound_to 10752
  153.0893  135.6654  153.9894 H   0  0  0  0  0  0  0  0  0  0  0  0  # atno 10764 bound_to 10752
  153.9709  135.3038  155.3407 H   0  0  0  0  0  0  0  0  0  0  0  0  # atno 10765 bound_to 10752
  139.9643  134.9594  156.9220 H   0  0  0  0  0  0  0  0  0  0  0  0  # atno 11005 bound_to 11000
  145.4822  139.1494  143.3755 LP  0  0  0  0  0  0  0  0  0  0  0  0  # atno 17320 bound_to 7965
  146.2646  140.4959  142.8839 LP  0  0  0  0  0  0  0  0  0  0  0  0  # atno 17321 bound_to 7965
  139.4784  144.5351  151.8610 LP  0  0  0  0  0  0  0  0  0  0  0  0  # atno 17342 bound_to 10162
  140.4444  144.1942  150.5893 LP  0  0  0  0  0  0  0  0  0  0  0  0  # atno 17343 bound_to 10162
  157.7265  131.0646  150.5908 LP  0  0  0  0  0  0  0  0  0  0  0  0  # atno 17370 bound_to 10713
  156.5999  130.4351  149.5901 LP  0  0  0  0  0  0  0  0  0  0  0  0  # atno 17371 bound_to 10713
  140.5430  134.0701  155.7347 LP  0  0  0  0  0  0  0  0  0  0  0  0  # atno 17394 bound_to 11000
  141.1322  133.9282  157.2510 LP  0  0  0  0  0  0  0  0  0  0  0  0  # atno 17395 bound_to 11000

$$$$
