AV-unprocessed.smi:780|AV-procd|sdf|3706|dock8
  -GOLD-   22720 1133D 1   1.00000     0.00000
 Structure written by MMmdl.
 48 49  0  0  0  0  0  0  0  0  1 V2000
  152.4562  144.1489  161.5500 C   0  0  0  0  0  0  0  0  0  0  0  0
  152.1811  143.4745  160.2220 C   0  0  0  0  0  0  0  0  0  0  0  0
  151.3389  144.1105  159.2309 C   0  0  0  0  0  0  0  0  0  0  0  0
  151.1089  143.4811  158.0682 C   0  0  0  0  0  0  0  0  0  0  0  0
  151.6615  142.2190  157.7827 N   0  0  0  0  0  0  0  0  0  0  0  0
  151.2868  141.6019  156.4956 C   0  0  0  0  0  0  0  0  0  0  0  0
  150.4567  140.3115  156.6273 C   0  0  0  0  0  0  0  0  0  0  0  0
  149.2809  140.3075  156.2659 O   0  0  0  0  0  0  0  0  0  0  0  0
  151.0595  139.2353  157.1534 N   0  0  0  0  0  0  0  0  0  0  0  0
  150.4435  137.9440  157.4164 C   0  0  0  0  0  0  0  0  0  0  0  0
  149.9988  137.8568  158.8859 C   0  0  0  0  0  0  0  0  0  0  0  0
  148.7529  136.9819  159.0997 C   0  0  0  0  0  0  0  0  0  0  0  0
  148.3812  137.0310  160.4688 O   0  0  0  0  0  0  0  0  0  0  0  0
  147.3360  136.1338  160.8239 C   0  0  0  0  0  0  0  0  0  0  0  0
  147.1153  136.1173  162.3527 C   0  0  0  0  0  0  0  0  0  0  0  0
  146.0816  135.0550  162.7599 C   0  0  0  0  0  0  0  0  0  0  0  0
  146.4776  133.6622  162.2454 C   0  0  0  0  0  0  0  0  0  0  0  0
  146.7005  133.6745  160.7248 C   0  0  0  0  0  0  0  0  0  0  0  0
  147.7389  134.7349  160.3247 C   0  0  0  0  0  0  0  0  0  0  0  0
  152.4691  141.5675  158.6731 C   0  0  0  0  0  0  0  0  0  0  0  0
  152.9460  140.4580  158.4348 O   0  0  0  0  0  0  0  0  0  0  0  0
  152.7152  142.2656  159.9403 C   0  0  0  0  0  0  0  0  0  0  0  0
  151.7809  144.9898  161.7102 H   0  0  0  0  0  0  0  0  0  0  0  0
  153.4804  144.5214  161.5799 H   0  0  0  0  0  0  0  0  0  0  0  0
  152.3199  143.4457  162.3724 H   0  0  0  0  0  0  0  0  0  0  0  0
  150.8959  145.0767  159.4229 H   0  0  0  0  0  0  0  0  0  0  0  0
  150.4829  143.8945  157.2906 H   0  0  0  0  0  0  0  0  0  0  0  0
  150.7141  142.3134  155.8986 H   0  0  0  0  0  0  0  0  0  0  0  0
  152.1736  141.3841  155.8980 H   0  0  0  0  0  0  0  0  0  0  0  0
  152.0288  139.3295  157.4194 H   0  0  0  0  0  0  0  0  0  0  0  0
  149.5872  137.8099  156.7538 H   0  0  0  0  0  0  0  0  0  0  0  0
  151.1534  137.1460  157.1940 H   0  0  0  0  0  0  0  0  0  0  0  0
  150.8200  137.4695  159.4895 H   0  0  0  0  0  0  0  0  0  0  0  0
  149.7972  138.8627  159.2566 H   0  0  0  0  0  0  0  0  0  0  0  0
  147.9328  137.3388  158.4777 H   0  0  0  0  0  0  0  0  0  0  0  0
  148.9612  135.9525  158.8048 H   0  0  0  0  0  0  0  0  0  0  0  0
  146.4120  136.4239  160.3199 H   0  0  0  0  0  0  0  0  0  0  0  0
  148.0612  135.9170  162.8576 H   0  0  0  0  0  0  0  0  0  0  0  0
  146.7780  137.0903  162.7070 H   0  0  0  0  0  0  0  0  0  0  0  0
  145.9785  135.0342  163.8451 H   0  0  0  0  0  0  0  0  0  0  0  0
  145.1033  135.3274  162.3619 H   0  0  0  0  0  0  0  0  0  0  0  0
  147.3896  133.3339  162.7455 H   0  0  0  0  0  0  0  0  0  0  0  0
  145.7053  132.9367  162.5026 H   0  0  0  0  0  0  0  0  0  0  0  0
  147.0263  132.6896  160.3895 H   0  0  0  0  0  0  0  0  0  0  0  0
  145.7565  133.8778  160.2177 H   0  0  0  0  0  0  0  0  0  0  0  0
  147.8557  134.7470  159.2406 H   0  0  0  0  0  0  0  0  0  0  0  0
  148.7120  134.4637  160.7369 H   0  0  0  0  0  0  0  0  0  0  0  0
  153.3447  141.7858  160.6759 H   0  0  0  0  0  0  0  0  0  0  0  0
  1  2  1  0  0  0  0
  1 23  1  0  0  0  0
  1 24  1  0  0  0  0
  1 25  1  0  0  0  0
  2 22  2  0  0  0  0
  2  3  1  0  0  0  0
  3  4  2  0  0  0  0
  3 26  1  0  0  0  0
  4  5  1  0  0  0  0
  4 27  1  0  0  0  0
  5  6  1  0  0  0  0
  5 20  1  0  0  0  0
  6  7  1  0  0  0  0
  6 28  1  0  0  0  0
  6 29  1  0  0  0  0
  7  8  2  0  0  0  0
  7  9  1  0  0  0  0
  9 10  1  0  0  0  0
  9 30  1  0  0  0  0
 10 11  1  0  0  0  0
 10 31  1  0  0  0  0
 10 32  1  0  0  0  0
 11 12  1  0  0  0  0
 11 33  1  0  0  0  0
 11 34  1  0  0  0  0
 12 13  1  0  0  0  0
 12 35  1  0  0  0  0
 12 36  1  0  0  0  0
 13 14  1  0  0  0  0
 14 19  1  0  0  0  0
 14 15  1  0  0  0  0
 14 37  1  0  0  0  0
 15 16  1  0  0  0  0
 15 38  1  0  0  0  0
 15 39  1  0  0  0  0
 16 17  1  0  0  0  0
 16 40  1  0  0  0  0
 16 41  1  0  0  0  0
 17 18  1  0  0  0  0
 17 42  1  0  0  0  0
 17 43  1  0  0  0  0
 18 19  1  0  0  0  0
 18 44  1  0  0  0  0
 18 45  1  0  0  0  0
 19 46  1  0  0  0  0
 19 47  1  0  0  0  0
 20 21  2  0  0  0  0
 20 22  1  0  0  0  0
 22 48  1  0  0  0  0
M  END
> <s_m_source_file>
AV-unprocessed.smi

> <i_m_source_file_index>
780

> <i_lp_mmshare_version>
43012

> <i_f3d_flags>
0

> <s_epik_input>
W0NIM11jMVtjSF1bY0hdbihjKD1PKVtjSF0xKVtDSDJdQyg9TylbTkhdW0NIMl1bQ0gyXVtDSDJdT1tDSF0yW0NIMl1bQ0gyXVtDSDJdW0NIMl1bQ0gyXTI=

> <s_epik_cmdline>
J2VwaWtfcHl0aG9uJywgJy1waCcsICc3LjAnLCAnLXRuJywgJzgnLCAnLW1hJywgJzIwMCcsICctbWV0YWxfYmluZGluZycsICctaW1hZScsICc8aW5maWxlLm1hZT4nLCAnLW9tYWUnLCAnPG91dGZpbGUubWFlPic=

> <r_lp_tautomer_probability>
1

> <r_epik_Ionization_Penalty>
5.32667e-07

> <r_epik_Ionization_Penalty_Charging>
5.13386e-07

> <r_epik_Ionization_Penalty_Neutral>
1.92812e-08

> <r_epik_State_Penalty>
-0

> <r_epik_Charging_Adjusted_Penalty>
5.13386e-07

> <i_epik_Tot_Q>
0

> <i_epik_Tot_abs_Q>
0

> <r_epik_Metal_State_Penalty>
-0

> <b_epik_Metal_Only>
0

> <s_lp_Force_Field>
OPLS_2005

> <r_lp_Energy>
20.4059

> <b_lp_Chiralities_Consistent>
1

> <s_lp_Variant>
AV-unprocessed.smi:780-1

> <Gold.Version>
5.8.1

> <Gold.Id.Protein>
6NUR|6NUR_protein|mol2

> <Gold.PLP.Fitness>
51.4419

> <Gold.PLP.PLP>
-44.9222

> <Gold.PLP.part.hbond>
-2.0473

> <Gold.PLP.part.metal>
0.0000

> <Gold.PLP.part.buried>
-5.4674

> <Gold.PLP.part.nonpolar>
-35.5115

> <Gold.PLP.part.repulsive>
0.0534

> <Gold.PLP.ligand.clash>
0.0000

> <Gold.PLP.ligand.torsion>
0.4909

> <Gold.PLP.Chemscore.Hbond>
1.4785

> <Gold.PLP.Chemscore.CHOScore>
1.0000

> <Gold.PLP.Chemscore.Metal>
0.0000

> <Gold.Chemscore.Hbonds>
donor molecule, donor type, donor heavy atom, donor atom, acceptor molecule, acceptor atom, score
      P1  H  6931  6943       L1    13  0.80
      P1  H  6934  6947       L1    13  0.09
      P1  H  7997  8009       L1    21  0.50
      L1  C     4    27       P1  8028  1.00

> <Gold.PLP.Chemscore.Internal.Correction>
0.0661

> <Gold.Rescore>
     Score         DG    S(hbond)    S(metal)    S(lipo)     H(rot)  DE(clash)    DE(int)     intcor
     17.79     -20.09       1.58        0.00     122.92       1.97       0.21       2.09       ----

> <Gold.Chemscore.Fitness>
17.7922

> <Gold.Chemscore.DG>
-20.0935

> <Gold.Chemscore.ZeroCoef>
-5.4800

> <Gold.Chemscore.Hbond>
1.5770

> <Gold.Chemscore.Metal>
0.0000

> <Gold.Chemscore.Lipo>
122.9228

> <Gold.Chemscore.Internal_Hbond>
0.0000

> <Gold.Chemscore.DEClash>
0.2090

> <Gold.Chemscore.DEInternal>
2.0923

> <Gold.Chemscore.Rot>
1.9671

> <Gold.Chemscore.Internal.Correction>
   9.000000E+99

> <Gold.Chemscore.Hbonds>
donor molecule, donor type, donor heavy atom, donor atom, acceptor molecule, acceptor atom, score
      P1  H  6931  6943       L1    13  0.73
      P1  H  6934  6947       L1    13  0.01
      P1  H  7997  8009       L1    21  0.48

> <Gold.Chemscore.Hbond.Weighted>
-5.2673

> <Gold.Chemscore.Metal.Weighted>
-0.0000

> <Gold.Chemscore.Lipo.Weighted>
-14.3820

> <Gold.Chemscore.Internal_Hbond.Weighted>
0.0000

> <Gold.Chemscore.DEClash.Weighted>
0.2090

> <Gold.Chemscore.DEInternal.Weighted>
2.0923

> <Gold.Chemscore.Rot.Weighted>
5.0359

> <Gold.Chemscore.Internal.Correction.Weighted>
   9.000000E+99

> <Gold.Protein.RotatedTorsions>
[ 6907 6896 6895 6894 ] final  136.67 input  -60.11 | X-H torsion
[ 7974 7965 7964 7962 ] final -126.57 input  175.53 | X-H torsion
[ 8008 7997 7996 7995 ] final  154.28 input   59.86 | X-H torsion
[ 10167 10162 10161 10158 ] final  131.04 input  -65.29 | X-H torsion
[ 10718 10713 10712 10709 ] final   58.74 input   66.30 | X-H torsion
[ 10763 10752 10751 10750 ] final  -40.40 input  -60.55 | X-H torsion
[ 11005 11000 10999 10996 ] final  -73.24 input  -57.11 | X-H torsion

> <Gold.Protein.ActiveResidues>
 VAL166  LYS551  ARG553  GLY616  TRP617  ASP618  TYR619  PRO620  LYS621  CYS622 
 ASP623  PHE694  ASN695  SER759  ASP760  ASP761  ALA762  ILE779  LEU786  VAL792 
 PHE793  MET794  SER795  GLU796  ALA797  LYS798  CYS799  TRP800  GLU811  SER814 

> <Gold.Protein.RotatedAtoms>
  152.2867  133.5522  159.5531 H   0  0  0  0  0  0  0  0  0  0  0  0  # atno 6907 bound_to 6896
  150.7218  134.0487  159.3799 H   0  0  0  0  0  0  0  0  0  0  0  0  # atno 6908 bound_to 6896
  151.8395  135.0595  160.0497 H   0  0  0  0  0  0  0  0  0  0  0  0  # atno 6909 bound_to 6896
  144.9859  140.7686  143.4583 H   0  0  0  0  0  0  0  0  0  0  0  0  # atno 7974 bound_to 7965
  156.2539  140.1971  156.6622 H   0  0  0  0  0  0  0  0  0  0  0  0  # atno 8008 bound_to 7997
  154.6456  140.0578  156.9921 H   0  0  0  0  0  0  0  0  0  0  0  0  # atno 8009 bound_to 7997
  155.1497  140.3250  155.4436 H   0  0  0  0  0  0  0  0  0  0  0  0  # atno 8010 bound_to 7997
  139.5402  144.6723  151.4650 H   0  0  0  0  0  0  0  0  0  0  0  0  # atno 10167 bound_to 10162
  157.5620  130.8843  149.9127 H   0  0  0  0  0  0  0  0  0  0  0  0  # atno 10718 bound_to 10713
  153.9454  135.6756  153.4744 H   0  0  0  0  0  0  0  0  0  0  0  0  # atno 10763 bound_to 10752
  153.0911  135.4874  154.8688 H   0  0  0  0  0  0  0  0  0  0  0  0  # atno 10764 bound_to 10752
  154.7354  135.3148  154.8778 H   0  0  0  0  0  0  0  0  0  0  0  0  # atno 10765 bound_to 10752
  141.1620  133.6872  156.7182 H   0  0  0  0  0  0  0  0  0  0  0  0  # atno 11005 bound_to 11000
  145.2354  139.2096  143.5021 LP  0  0  0  0  0  0  0  0  0  0  0  0  # atno 17320 bound_to 7965
  146.3420  140.2239  142.8592 LP  0  0  0  0  0  0  0  0  0  0  0  0  # atno 17321 bound_to 7965
  140.6628  143.8461  150.6907 LP  0  0  0  0  0  0  0  0  0  0  0  0  # atno 17342 bound_to 10162
  140.1861  143.4074  152.1897 LP  0  0  0  0  0  0  0  0  0  0  0  0  # atno 17343 bound_to 10162
  156.0672  130.3690  150.0853 LP  0  0  0  0  0  0  0  0  0  0  0  0  # atno 17370 bound_to 10713
  156.9016  130.9622  151.3575 LP  0  0  0  0  0  0  0  0  0  0  0  0  # atno 17371 bound_to 10713
  140.2836  134.8297  157.3955 LP  0  0  0  0  0  0  0  0  0  0  0  0  # atno 17394 bound_to 11000
  140.1411  134.4971  155.8031 LP  0  0  0  0  0  0  0  0  0  0  0  0  # atno 17395 bound_to 11000

$$$$
