AV-unprocessed.smi:560|AV-procd|sdf|2934|dock4
  -GOLD-   2262023433D 1   1.00000     0.00000
 Structure written by MMmdl.
 41 42  0  0  0  0  0  0  0  0  3 V2000
  152.5939  138.4111  154.4386 C   0  0  0  0  0  0  0  0  0  0  0  0
  151.1705  137.9091  154.1220 C   0  0  2  0  0  0  0  0  0  0  0  0
  150.1179  139.0290  154.1641 C   0  0  0  0  0  0  0  0  0  0  0  0
  150.3692  140.1130  154.6916 O   0  0  0  0  0  0  0  0  0  0  0  0
  148.9353  138.7509  153.5925 N   0  0  0  0  0  0  0  0  0  0  0  0
  147.7909  139.6581  153.5263 C   0  0  2  0  0  0  0  0  0  0  0  0
  146.6976  139.2143  154.5130 C   0  0  0  0  0  0  0  0  0  0  0  0
  145.9969  137.9213  154.0564 C   0  0  0  0  0  0  0  0  0  0  0  0
  145.4449  138.0604  152.6849 N   0  3  2  0  0  0  0  0  0  0  0  0
  144.6521  136.8742  152.2763 C   0  0  0  0  0  0  0  0  0  0  0  0
  143.3242  136.8357  153.0400 C   0  0  0  0  0  0  0  0  0  0  0  0
  142.5895  137.9489  152.8535 N   0  5  0  0  0  0  0  0  0  0  0  0
  143.0532  135.8591  153.7362 O   0  0  0  0  0  0  0  0  0  0  0  0
  146.4997  138.4268  151.7016 C   0  0  0  0  0  0  0  0  0  0  0  0
  147.2031  139.7348  152.1037 C   0  0  0  0  0  0  0  0  0  0  0  0
  150.7751  136.8027  154.9865 N   0  0  0  0  0  0  0  0  0  0  0  0
  149.5851  136.1033  154.9795 C   0  0  0  0  0  0  0  0  0  0  0  0
  149.6462  135.1780  155.9817 C   0  0  0  0  0  0  0  0  0  0  0  0
  150.9262  135.3940  156.5635 C   0  0  0  0  0  0  0  0  0  0  0  0
  151.5954  136.3701  155.9725 N   0  0  0  0  0  0  0  0  0  0  0  0
  152.8963  139.1987  153.7476 H   0  0  0  0  0  0  0  0  0  0  0  0
  153.3194  137.6022  154.3478 H   0  0  0  0  0  0  0  0  0  0  0  0
  152.6723  138.8115  155.4501 H   0  0  0  0  0  0  0  0  0  0  0  0
  151.1866  137.5270  153.1000 H   0  0  0  0  0  0  0  0  0  0  0  0
  148.8154  137.8347  153.1857 H   0  0  0  0  0  0  0  0  0  0  0  0
  148.1311  140.6519  153.8229 H   0  0  0  0  0  0  0  0  0  0  0  0
  147.1188  139.0810  155.5104 H   0  0  0  0  0  0  0  0  0  0  0  0
  145.9541  140.0077  154.6024 H   0  0  0  0  0  0  0  0  0  0  0  0
  146.6917  137.0805  154.0856 H   0  0  0  0  0  0  0  0  0  0  0  0
  145.1913  137.6891  154.7539 H   0  0  0  0  0  0  0  0  0  0  0  0
  144.5190  136.8601  151.1920 H   0  0  0  0  0  0  0  0  0  0  0  0
  145.1888  135.9602  152.5341 H   0  0  0  0  0  0  0  0  0  0  0  0
  143.0703  138.8453  152.7125 H   0  0  0  0  0  0  0  0  0  0  0  0
  147.2252  137.6156  151.6225 H   0  0  0  0  0  0  0  0  0  0  0  0
  146.0644  138.5525  150.7100 H   0  0  0  0  0  0  0  0  0  0  0  0
  146.4829  140.5528  152.0588 H   0  0  0  0  0  0  0  0  0  0  0  0
  147.9794  139.9800  151.3782 H   0  0  0  0  0  0  0  0  0  0  0  0
  148.8014  136.3194  154.2686 H   0  0  0  0  0  0  0  0  0  0  0  0
  148.8910  134.4576  156.2591 H   0  0  0  0  0  0  0  0  0  0  0  0
  151.3841  134.8770  157.3938 H   0  0  0  0  0  0  0  0  0  0  0  0
  144.7910  138.8300  152.7160 H   0  0  0  0  0  0  0  0  0  0  0  0
  1  2  1  0  0  0  0
  1 21  1  0  0  0  0
  1 22  1  0  0  0  0
  1 23  1  0  0  0  0
  2  3  1  0  0  0  0
  2 16  1  0  0  0  0
  2 24  1  0  0  0  0
  3  4  2  0  0  0  0
  3  5  1  0  0  0  0
  5  6  1  0  0  0  0
  5 25  1  0  0  0  0
  6 15  1  0  0  0  0
  6  7  1  0  0  0  0
  6 26  1  0  0  0  0
  7  8  1  0  0  0  0
  7 27  1  0  0  0  0
  7 28  1  0  0  0  0
  8  9  1  0  0  0  0
  8 29  1  0  0  0  0
  8 30  1  0  0  0  0
  9 10  1  0  0  0  0
  9 14  1  0  0  0  0
  9 41  1  0  0  0  0
 10 11  1  0  0  0  0
 10 31  1  0  0  0  0
 10 32  1  0  0  0  0
 11 12  1  0  0  0  0
 11 13  2  0  0  0  0
 12 33  1  0  0  0  0
 14 15  1  0  0  0  0
 14 34  1  0  0  0  0
 14 35  1  0  0  0  0
 15 36  1  0  0  0  0
 15 37  1  0  0  0  0
 16 20  1  0  0  0  0
 16 17  1  0  0  0  0
 17 18  2  0  0  0  0
 17 38  1  0  0  0  0
 18 19  1  0  0  0  0
 18 39  1  0  0  0  0
 19 20  2  0  0  0  0
 19 40  1  0  0  0  0
M  CHG  1   9   1
M  CHG  1  12  -1
M  END
> <s_m_source_file>
AV-unprocessed.smi

> <i_m_source_file_index>
560

> <i_lp_mmshare_version>
43012

> <i_f3d_flags>
0

> <s_epik_input>
bjFbY0hdW2NIXVtjSF1uMVtDQEhdKFtDSDNdKUMoPU8pW05IXVtDSF0yW0NIMl1bQ0gyXU4oW0NIMl1bQ0gyXTIpW0NIMl1DKD1PKVtOSDJd

> <s_epik_cmdline>
J2VwaWtfcHl0aG9uJywgJy1waCcsICc3LjAnLCAnLXRuJywgJzgnLCAnLW1hJywgJzIwMCcsICctbWV0YWxfYmluZGluZycsICctaW1hZScsICc8aW5maWxlLm1hZT4nLCAnLW9tYWUnLCAnPG91dGZpbGUubWFlPic=

> <r_lp_tautomer_probability>
1

> <r_epik_Ionization_Penalty>
5.71084

> <r_epik_Ionization_Penalty_Charging>
5.71081

> <r_epik_Ionization_Penalty_Neutral>
3.04611e-05

> <r_epik_State_Penalty>
6.71277

> <r_epik_Charging_Adjusted_Penalty>
12.4236

> <i_epik_Tot_Q>
0

> <i_epik_Tot_abs_Q>
2

> <r_epik_Metal_State_Penalty>
2.67562

> <b_epik_Metal_Only>
1

> <s_lp_Force_Field>
OPLS_2005

> <r_lp_Energy>
9.92131

> <b_lp_Chiralities_Consistent>
1

> <s_lp_Variant>
AV-unprocessed.smi:560-9

> <Gold.Version>
5.8.1

> <Gold.Id.Protein>
6NUR|6NUR_protein|mol2

> <Gold.PLP.Fitness>
51.2984

> <Gold.PLP.PLP>
-31.7377

> <Gold.PLP.part.hbond>
-6.0569

> <Gold.PLP.part.metal>
0.0000

> <Gold.PLP.part.buried>
2.9816

> <Gold.PLP.part.nonpolar>
-28.3182

> <Gold.PLP.part.repulsive>
0.2236

> <Gold.PLP.ligand.clash>
0.0000

> <Gold.PLP.ligand.torsion>
0.5779

> <Gold.PLP.Chemscore.Hbond>
5.9262

> <Gold.PLP.Chemscore.CHOScore>
0.9234

> <Gold.PLP.Chemscore.Metal>
0.0000

> <Gold.Chemscore.Hbonds>
donor molecule, donor type, donor heavy atom, donor atom, acceptor molecule, acceptor atom, score
      L1  H     5    25       P1  7948  0.93
      L1  H     9    41       P1 10175  2.00
      L1  H    12    33       P1 10175  1.00
      P1  H  7989  7998       L1     4  1.00
      P1  H 10752 10763       L1    20  1.00
      L1  C    17    38       P1  7948  0.92

> <Gold.PLP.Chemscore.Internal.Correction>
0.1676

> <Gold.Rescore>
     Score         DG    S(hbond)    S(metal)    S(lipo)     H(rot)  DE(clash)    DE(int)     intcor
     18.17     -21.29       4.34        0.00      65.45       2.47       2.55       0.58       ----

> <Gold.Chemscore.Fitness>
18.1663

> <Gold.Chemscore.DG>
-21.2914

> <Gold.Chemscore.ZeroCoef>
-5.4800

> <Gold.Chemscore.Hbond>
4.3370

> <Gold.Chemscore.Metal>
0.0000

> <Gold.Chemscore.Lipo>
65.4503

> <Gold.Chemscore.Internal_Hbond>
0.0000

> <Gold.Chemscore.DEClash>
2.5488

> <Gold.Chemscore.DEInternal>
0.5763

> <Gold.Chemscore.Rot>
2.4734

> <Gold.Chemscore.Internal.Correction>
   9.000000E+99

> <Gold.Chemscore.Hbonds>
donor molecule, donor type, donor heavy atom, donor atom, acceptor molecule, acceptor atom, score
      L1  H     5    25       P1  7948  0.88
      L1  H     9    41       P1 10175  0.97
      L1  H    12    33       P1 10175  1.00
      P1  H  7989  7998       L1     4  0.39
      P1  H 10752 10763       L1    20  0.21

> <Gold.Chemscore.Hbond.Weighted>
-14.4855

> <Gold.Chemscore.Metal.Weighted>
-0.0000

> <Gold.Chemscore.Lipo.Weighted>
-7.6577

> <Gold.Chemscore.Internal_Hbond.Weighted>
0.0000

> <Gold.Chemscore.DEClash.Weighted>
2.5488

> <Gold.Chemscore.DEInternal.Weighted>
0.5763

> <Gold.Chemscore.Rot.Weighted>
6.3318

> <Gold.Chemscore.Internal.Correction.Weighted>
   9.000000E+99

> <Gold.Protein.RotatedTorsions>
[ 6907 6896 6895 6894 ] final   20.92 input  -60.11 | X-H torsion
[ 7974 7965 7964 7962 ] final  126.73 input  175.53 | X-H torsion
[ 8008 7997 7996 7995 ] final  -11.05 input   59.86 | X-H torsion
[ 10167 10162 10161 10158 ] final -172.46 input  -65.29 | X-H torsion
[ 10718 10713 10712 10709 ] final  153.89 input   66.30 | X-H torsion
[ 10763 10752 10751 10750 ] final   84.24 input  -60.55 | X-H torsion
[ 11005 11000 10999 10996 ] final  -15.96 input  -57.11 | X-H torsion

> <Gold.Protein.ActiveResidues>
 VAL166  LYS551  ARG553  GLY616  TRP617  ASP618  TYR619  PRO620  LYS621  CYS622 
 ASP623  PHE694  ASN695  SER759  ASP760  ASP761  ALA762  ILE779  LEU786  VAL792 
 PHE793  MET794  SER795  GLU796  ALA797  LYS798  CYS799  TRP800  GLU811  SER814 

> <Gold.Protein.RotatedAtoms>
  151.9038  135.0367  160.0508 H   0  0  0  0  0  0  0  0  0  0  0  0  # atno 6907 bound_to 6896
  152.2336  133.5073  159.5238 H   0  0  0  0  0  0  0  0  0  0  0  0  # atno 6908 bound_to 6896
  150.7032  134.1100  159.4039 H   0  0  0  0  0  0  0  0  0  0  0  0  # atno 6909 bound_to 6896
  145.0585  139.3824  143.5018 H   0  0  0  0  0  0  0  0  0  0  0  0  # atno 7974 bound_to 7965
  154.5499  140.2313  155.8501 H   0  0  0  0  0  0  0  0  0  0  0  0  # atno 8008 bound_to 7997
  156.1937  140.3070  155.9346 H   0  0  0  0  0  0  0  0  0  0  0  0  # atno 8009 bound_to 7997
  155.3090  140.0435  157.3024 H   0  0  0  0  0  0  0  0  0  0  0  0  # atno 8010 bound_to 7997
  139.5743  144.1568  152.1429 H   0  0  0  0  0  0  0  0  0  0  0  0  # atno 10167 bound_to 10162
  157.2388  131.0755  151.1805 H   0  0  0  0  0  0  0  0  0  0  0  0  # atno 10718 bound_to 10713
  153.1364  135.4661  154.9428 H   0  0  0  0  0  0  0  0  0  0  0  0  # atno 10763 bound_to 10752
  154.7709  135.3158  154.8193 H   0  0  0  0  0  0  0  0  0  0  0  0  # atno 10764 bound_to 10752
  153.8725  135.6902  153.4827 H   0  0  0  0  0  0  0  0  0  0  0  0  # atno 10765 bound_to 10752
  140.8019  133.8207  155.9479 H   0  0  0  0  0  0  0  0  0  0  0  0  # atno 11005 bound_to 11000
  146.3523  140.0271  142.8653 LP  0  0  0  0  0  0  0  0  0  0  0  0  # atno 17320 bound_to 7965
  145.1438  140.9586  143.4473 LP  0  0  0  0  0  0  0  0  0  0  0  0  # atno 17321 bound_to 7965
  140.1107  144.5459  150.6927 LP  0  0  0  0  0  0  0  0  0  0  0  0  # atno 17342 bound_to 10162
  140.7027  143.2446  151.4818 LP  0  0  0  0  0  0  0  0  0  0  0  0  # atno 17343 bound_to 10162
  157.3400  130.7028  149.6376 LP  0  0  0  0  0  0  0  0  0  0  0  0  # atno 17370 bound_to 10713
  155.9671  130.4282  150.4780 LP  0  0  0  0  0  0  0  0  0  0  0  0  # atno 17371 bound_to 10713
  140.9286  134.2051  157.4879 LP  0  0  0  0  0  0  0  0  0  0  0  0  # atno 17394 bound_to 11000
  139.8721  134.9823  156.5150 LP  0  0  0  0  0  0  0  0  0  0  0  0  # atno 17395 bound_to 11000

$$$$
