AV-unprocessed.smi:1420|AV-procd|sdf|5788|dock1
  -GOLD-   22720 5433D 1   1.00000     0.00000
 Structure written by MMmdl.
 39 40  0  0  0  0  0  0  0  0  2 V2000
  149.1565  135.1956  155.6089 C   0  0  0  0  0  0  0  0  0  0  0  0
  148.4662  136.5689  155.4404 C   0  0  2  0  0  0  0  0  0  0  0  0
  147.1226  136.4046  154.6743 C   0  0  0  0  0  0  0  0  0  0  0  0
  147.2111  135.4752  153.5518 N   0  0  0  0  0  0  0  0  0  0  0  0
  146.5326  134.3215  153.4491 C   0  0  0  0  0  0  0  0  0  0  0  0
  145.7553  133.9144  154.3121 O   0  0  0  0  0  0  0  0  0  0  0  0
  146.7729  133.4970  152.1835 C   0  0  0  0  0  0  0  0  0  0  0  0
  145.5347  133.2706  151.4592 N   0  0  0  0  0  0  0  0  0  0  0  0
  145.0597  132.0920  150.9219 C   0  0  0  0  0  0  0  0  0  0  0  0
  143.8544  132.3666  150.3421 C   0  0  0  0  0  0  0  0  0  0  0  0
  143.6741  133.7582  150.5791 C   0  0  0  0  0  0  0  0  0  0  0  0
  144.6805  134.2965  151.2489 N   0  0  0  0  0  0  0  0  0  0  0  0
  149.4083  137.5475  154.8031 N   0  3  0  0  0  0  0  0  0  0  0  0
  148.8921  138.9370  154.6585 C   0  0  0  0  0  0  0  0  0  0  0  0
  149.9263  139.8476  153.9733 C   0  0  0  0  0  0  0  0  0  0  0  0
  151.1450  139.8311  154.7008 O   0  0  0  0  0  0  0  0  0  0  0  0
  151.7048  138.5275  154.7447 C   0  0  0  0  0  0  0  0  0  0  0  0
  150.7379  137.5800  155.4726 C   0  0  0  0  0  0  0  0  0  0  0  0
  148.5044  134.4704  156.0956 H   0  0  0  0  0  0  0  0  0  0  0  0
  150.0514  135.2472  156.2261 H   0  0  0  0  0  0  0  0  0  0  0  0
  149.4442  134.7804  154.6425 H   0  0  0  0  0  0  0  0  0  0  0  0
  148.2248  136.9531  156.4328 H   0  0  0  0  0  0  0  0  0  0  0  0
  146.3303  136.0409  155.3298 H   0  0  0  0  0  0  0  0  0  0  0  0
  146.7921  137.3683  154.2854 H   0  0  0  0  0  0  0  0  0  0  0  0
  147.8236  135.7318  152.7903 H   0  0  0  0  0  0  0  0  0  0  0  0
  147.4888  134.0064  151.5363 H   0  0  0  0  0  0  0  0  0  0  0  0
  147.2071  132.5305  152.4436 H   0  0  0  0  0  0  0  0  0  0  0  0
  145.6127  131.1670  150.9978 H   0  0  0  0  0  0  0  0  0  0  0  0
  143.2010  131.6783  149.8269 H   0  0  0  0  0  0  0  0  0  0  0  0
  142.8472  134.3887  150.2871 H   0  0  0  0  0  0  0  0  0  0  0  0
  147.9917  138.9554  154.0456 H   0  0  0  0  0  0  0  0  0  0  0  0
  148.6320  139.3359  155.6404 H   0  0  0  0  0  0  0  0  0  0  0  0
  150.0993  139.5332  152.9427 H   0  0  0  0  0  0  0  0  0  0  0  0
  149.5547  140.8718  153.9331 H   0  0  0  0  0  0  0  0  0  0  0  0
  151.9185  138.1703  153.7358 H   0  0  0  0  0  0  0  0  0  0  0  0
  152.6565  138.5713  155.2747 H   0  0  0  0  0  0  0  0  0  0  0  0
  150.6168  137.9040  156.5078 H   0  0  0  0  0  0  0  0  0  0  0  0
  151.1887  136.5902  155.5034 H   0  0  0  0  0  0  0  0  0  0  0  0
  149.5626  137.2155  153.8617 H   0  0  0  0  0  0  0  0  0  0  0  0
  1  2  1  0  0  0  0
  1 19  1  0  0  0  0
  1 20  1  0  0  0  0
  1 21  1  0  0  0  0
  2  3  1  0  0  0  0
  2 13  1  0  0  0  0
  2 22  1  0  0  0  0
  3  4  1  0  0  0  0
  3 23  1  0  0  0  0
  3 24  1  0  0  0  0
  4  5  1  0  0  0  0
  4 25  1  0  0  0  0
  5  6  2  0  0  0  0
  5  7  1  0  0  0  0
  7  8  1  0  0  0  0
  7 26  1  0  0  0  0
  7 27  1  0  0  0  0
  8 12  1  0  0  0  0
  8  9  1  0  0  0  0
  9 10  2  0  0  0  0
  9 28  1  0  0  0  0
 10 11  1  0  0  0  0
 10 29  1  0  0  0  0
 11 12  2  0  0  0  0
 11 30  1  0  0  0  0
 13 18  1  0  0  0  0
 13 14  1  0  0  0  0
 13 39  1  0  0  0  0
 14 15  1  0  0  0  0
 14 31  1  0  0  0  0
 14 32  1  0  0  0  0
 15 16  1  0  0  0  0
 15 33  1  0  0  0  0
 15 34  1  0  0  0  0
 16 17  1  0  0  0  0
 17 18  1  0  0  0  0
 17 35  1  0  0  0  0
 17 36  1  0  0  0  0
 18 37  1  0  0  0  0
 18 38  1  0  0  0  0
M  CHG  1  13   1
M  END
> <s_m_source_file>
AV-unprocessed.smi

> <i_m_source_file_index>
1420

> <i_lp_mmshare_version>
43012

> <i_f3d_flags>
0

> <s_epik_input>
W0NIMl0xW0NIMl1PW0NIMl1bQ0gyXU4xW0NASF0oW0NIM10pW0NIMl1bTkhdQyg9TylbQ0gyXW4yW2NIXVtjSF1bY0hdbjI=

> <s_epik_cmdline>
J2VwaWtfcHl0aG9uJywgJy1waCcsICc3LjAnLCAnLXRuJywgJzgnLCAnLW1hJywgJzIwMCcsICctbWV0YWxfYmluZGluZycsICctaW1hZScsICc8aW5maWxlLm1hZT4nLCAnLW9tYWUnLCAnPG91dGZpbGUubWFlPic=

> <r_lp_tautomer_probability>
1

> <r_epik_Ionization_Penalty>
0.748405

> <r_epik_Ionization_Penalty_Charging>
0.748396

> <r_epik_Ionization_Penalty_Neutral>
8.56978e-06

> <r_epik_State_Penalty>
0.775162

> <r_epik_Charging_Adjusted_Penalty>
1.52356

> <i_epik_Tot_Q>
1

> <i_epik_Tot_abs_Q>
1

> <r_epik_Metal_State_Penalty>
0.775167

> <b_epik_Metal_Only>
0

> <s_lp_Force_Field>
OPLS_2005

> <r_lp_Energy>
20.6517

> <b_lp_Chiralities_Consistent>
1

> <s_lp_Variant>
AV-unprocessed.smi:1420-3

> <Gold.Version>
5.8.1

> <Gold.Id.Protein>
6NUR|6NUR_protein|mol2

> <Gold.PLP.Fitness>
45.8382

> <Gold.PLP.PLP>
-31.5635

> <Gold.PLP.part.hbond>
-2.9956

> <Gold.PLP.part.metal>
0.0000

> <Gold.PLP.part.buried>
-5.5944

> <Gold.PLP.part.nonpolar>
-23.8946

> <Gold.PLP.part.repulsive>
0.2731

> <Gold.PLP.ligand.clash>
0.0000

> <Gold.PLP.ligand.torsion>
0.4064

> <Gold.PLP.Chemscore.Hbond>
4.0000

> <Gold.PLP.Chemscore.CHOScore>
1.0000

> <Gold.PLP.Chemscore.Metal>
0.0000

> <Gold.Chemscore.Hbonds>
donor molecule, donor type, donor heavy atom, donor atom, acceptor molecule, acceptor atom, score
      L1  H     4    25       P1  7948  1.00
      L1  H    13    39       P1  7948  0.75
      P1  H  7989  7998       L1    16  0.15
      L1  C    11    30       P1 10186  0.86

> <Gold.PLP.Chemscore.Internal.Correction>
0.0875

> <Gold.Rescore>
     Score         DG    S(hbond)    S(metal)    S(lipo)     H(rot)  DE(clash)    DE(int)     intcor
     14.32     -15.24       1.93        0.00      70.90       1.94       0.35       0.58       ----

> <Gold.Chemscore.Fitness>
14.3175

> <Gold.Chemscore.DG>
-15.2442

> <Gold.Chemscore.ZeroCoef>
-5.4800

> <Gold.Chemscore.Hbond>
1.9293

> <Gold.Chemscore.Metal>
0.0000

> <Gold.Chemscore.Lipo>
70.9039

> <Gold.Chemscore.Internal_Hbond>
0.0000

> <Gold.Chemscore.DEClash>
0.3502

> <Gold.Chemscore.DEInternal>
0.5765

> <Gold.Chemscore.Rot>
1.9435

> <Gold.Chemscore.Internal.Correction>
   9.000000E+99

> <Gold.Chemscore.Hbonds>
donor molecule, donor type, donor heavy atom, donor atom, acceptor molecule, acceptor atom, score
      L1  H     4    25       P1  7948  0.93
      L1  H    13    39       P1  7948  0.33

> <Gold.Chemscore.Hbond.Weighted>
-6.4439

> <Gold.Chemscore.Metal.Weighted>
-0.0000

> <Gold.Chemscore.Lipo.Weighted>
-8.2958

> <Gold.Chemscore.Internal_Hbond.Weighted>
0.0000

> <Gold.Chemscore.DEClash.Weighted>
0.3502

> <Gold.Chemscore.DEInternal.Weighted>
0.5765

> <Gold.Chemscore.Rot.Weighted>
4.9754

> <Gold.Chemscore.Internal.Correction.Weighted>
   9.000000E+99

> <Gold.Protein.RotatedTorsions>
[ 6907 6896 6895 6894 ] final   -9.44 input  -60.11 | X-H torsion
[ 7974 7965 7964 7962 ] final   10.43 input  175.53 | X-H torsion
[ 8008 7997 7996 7995 ] final  -38.03 input   59.86 | X-H torsion
[ 10167 10162 10161 10158 ] final   25.01 input  -65.29 | X-H torsion
[ 10718 10713 10712 10709 ] final    0.49 input   66.30 | X-H torsion
[ 10763 10752 10751 10750 ] final -156.07 input  -60.55 | X-H torsion
[ 11005 11000 10999 10996 ] final  127.56 input  -57.11 | X-H torsion

> <Gold.Protein.ActiveResidues>
 VAL166  LYS551  ARG553  GLY616  TRP617  ASP618  TYR619  PRO620  LYS621  CYS622 
 ASP623  PHE694  ASN695  SER759  ASP760  ASP761  ALA762  ILE779  LEU786  VAL792 
 PHE793  MET794  SER795  GLU796  ALA797  LYS798  CYS799  TRP800  GLU811  SER814 

> <Gold.Protein.RotatedAtoms>
  151.4177  135.0993  159.9604 H   0  0  0  0  0  0  0  0  0  0  0  0  # atno 6907 bound_to 6896
  152.4999  133.8737  159.7321 H   0  0  0  0  0  0  0  0  0  0  0  0  # atno 6908 bound_to 6896
  150.9246  133.6782  159.2852 H   0  0  0  0  0  0  0  0  0  0  0  0  # atno 6909 bound_to 6896
  146.2388  139.9636  142.8455 H   0  0  0  0  0  0  0  0  0  0  0  0  # atno 7974 bound_to 7965
  154.4043  140.1588  156.2633 H   0  0  0  0  0  0  0  0  0  0  0  0  # atno 8008 bound_to 7997
  155.9017  140.3432  155.6009 H   0  0  0  0  0  0  0  0  0  0  0  0  # atno 8009 bound_to 7997
  155.7440  140.0796  157.2223 H   0  0  0  0  0  0  0  0  0  0  0  0  # atno 8010 bound_to 7997
  140.5141  144.0112  150.6386 H   0  0  0  0  0  0  0  0  0  0  0  0  # atno 10167 bound_to 10162
  156.8341  130.5498  149.5684 H   0  0  0  0  0  0  0  0  0  0  0  0  # atno 10718 bound_to 10713
  154.7740  135.3154  154.8130 H   0  0  0  0  0  0  0  0  0  0  0  0  # atno 10763 bound_to 10752
  153.8858  135.6830  153.4768 H   0  0  0  0  0  0  0  0  0  0  0  0  # atno 10764 bound_to 10752
  153.1360  135.4759  154.9358 H   0  0  0  0  0  0  0  0  0  0  0  0  # atno 10765 bound_to 10752
  139.9514  134.9621  156.8872 H   0  0  0  0  0  0  0  0  0  0  0  0  # atno 11005 bound_to 11000
  145.1748  140.9738  143.4301 LP  0  0  0  0  0  0  0  0  0  0  0  0  # atno 17320 bound_to 7965
  144.9996  139.3611  143.6174 LP  0  0  0  0  0  0  0  0  0  0  0  0  # atno 17321 bound_to 7965
  140.3442  143.3001  152.0555 LP  0  0  0  0  0  0  0  0  0  0  0  0  # atno 17342 bound_to 10162
  139.4904  144.6420  151.6857 LP  0  0  0  0  0  0  0  0  0  0  0  0  # atno 17343 bound_to 10162
  156.0917  130.5901  150.9745 LP  0  0  0  0  0  0  0  0  0  0  0  0  # atno 17370 bound_to 10713
  157.6391  131.0912  150.8288 LP  0  0  0  0  0  0  0  0  0  0  0  0  # atno 17371 bound_to 10713
  140.5711  134.0442  155.7431 LP  0  0  0  0  0  0  0  0  0  0  0  0  # atno 17394 bound_to 11000
  141.1177  133.9513  157.2790 LP  0  0  0  0  0  0  0  0  0  0  0  0  # atno 17395 bound_to 11000

$$$$
