AV-unprocessed.smi:3163|AV-procd|sdf|12072|dock10
  -GOLD-   2272017503D 1   1.00000     0.00000
 Structure written by MMmdl.
 36 37  0  0  0  0  0  0  0  0  2 V2000
  143.7722  131.9096  151.4827 C   0  0  0  0  0  0  0  0  0  0  0  0
  143.4543  133.3470  151.6121 N   0  3  2  0  0  0  0  0  0  0  0  0
  144.4512  134.2458  150.9916 C   0  0  0  0  0  0  0  0  0  0  0  0
  144.4090  135.5283  151.8181 C   0  0  0  0  0  0  0  0  0  0  0  0
  144.1647  135.0037  153.2303 C   0  0  1  0  0  0  0  0  0  0  0  0
  143.6283  136.0656  154.2101 C   0  0  0  0  0  0  0  0  0  0  0  0
  144.3414  137.3340  154.0971 N   0  0  0  0  0  0  0  0  0  0  0  0
  145.6740  137.4747  154.1473 C   0  0  0  0  0  0  0  0  0  0  0  0
  146.4457  136.5287  154.3007 O   0  0  0  0  0  0  0  0  0  0  0  0
  146.0306  138.7629  154.0006 N   0  0  0  0  0  0  0  0  0  0  0  0
  147.3285  139.3450  154.0053 C   0  0  0  0  0  0  0  0  0  0  0  0
  147.4149  140.7357  154.2239 C   0  0  0  0  0  0  0  0  0  0  0  0
  148.6856  141.3440  154.2465 C   0  0  0  0  0  0  0  0  0  0  0  0
  149.8373  140.6617  154.0765 N   0  0  0  0  0  0  0  0  0  0  0  0
  149.7548  139.3293  153.8782 C   0  0  0  0  0  0  0  0  0  0  0  0
  148.5357  138.6233  153.8366 C   0  0  0  0  0  0  0  0  0  0  0  0
  143.2320  133.8035  153.0046 C   0  0  0  0  0  0  0  0  0  0  0  0
  144.6983  131.6635  152.0042 H   0  0  0  0  0  0  0  0  0  0  0  0
  143.8859  131.6379  150.4328 H   0  0  0  0  0  0  0  0  0  0  0  0
  142.9694  131.3028  151.9024 H   0  0  0  0  0  0  0  0  0  0  0  0
  145.4466  133.8031  151.0619 H   0  0  0  0  0  0  0  0  0  0  0  0
  144.2342  134.4182  149.9370 H   0  0  0  0  0  0  0  0  0  0  0  0
  145.3250  136.1142  151.7351 H   0  0  0  0  0  0  0  0  0  0  0  0
  143.5755  136.1531  151.4931 H   0  0  0  0  0  0  0  0  0  0  0  0
  145.1171  134.6229  153.6036 H   0  0  0  0  0  0  0  0  0  0  0  0
  142.5616  136.2269  154.0453 H   0  0  0  0  0  0  0  0  0  0  0  0
  143.7304  135.7140  155.2371 H   0  0  0  0  0  0  0  0  0  0  0  0
  143.7799  138.1615  153.9575 H   0  0  0  0  0  0  0  0  0  0  0  0
  145.2755  139.4095  153.8260 H   0  0  0  0  0  0  0  0  0  0  0  0
  146.5254  141.3318  154.3683 H   0  0  0  0  0  0  0  0  0  0  0  0
  148.7784  142.4079  154.4073 H   0  0  0  0  0  0  0  0  0  0  0  0
  150.6916  138.8064  153.7541 H   0  0  0  0  0  0  0  0  0  0  0  0
  148.5600  137.5558  153.6871 H   0  0  0  0  0  0  0  0  0  0  0  0
  142.1862  134.0993  153.0964 H   0  0  0  0  0  0  0  0  0  0  0  0
  143.4154  133.0182  153.7398 H   0  0  0  0  0  0  0  0  0  0  0  0
  142.5835  133.5044  151.1250 H   0  0  0  0  0  0  0  0  0  0  0  0
  1  2  1  0  0  0  0
  1 18  1  0  0  0  0
  1 19  1  0  0  0  0
  1 20  1  0  0  0  0
  2 17  1  0  0  0  0
  2  3  1  0  0  0  0
  2 36  1  0  0  0  0
  3  4  1  0  0  0  0
  3 21  1  0  0  0  0
  3 22  1  0  0  0  0
  4  5  1  0  0  0  0
  4 23  1  0  0  0  0
  4 24  1  0  0  0  0
  5  6  1  0  0  0  0
  5 17  1  0  0  0  0
  5 25  1  0  0  0  0
  6  7  1  0  0  0  0
  6 26  1  0  0  0  0
  6 27  1  0  0  0  0
  7  8  1  0  0  0  0
  7 28  1  0  0  0  0
  8  9  2  0  0  0  0
  8 10  1  0  0  0  0
 10 11  1  0  0  0  0
 10 29  1  0  0  0  0
 11 16  1  0  0  0  0
 11 12  2  0  0  0  0
 12 13  1  0  0  0  0
 12 30  1  0  0  0  0
 13 14  2  0  0  0  0
 13 31  1  0  0  0  0
 14 15  1  0  0  0  0
 15 16  2  0  0  0  0
 15 32  1  0  0  0  0
 16 33  1  0  0  0  0
 17 34  1  0  0  0  0
 17 35  1  0  0  0  0
M  CHG  1   2   1
M  END
> <s_m_source_file>
AV-unprocessed.smi

> <i_m_source_file_index>
3163

> <i_lp_mmshare_version>
43012

> <i_f3d_flags>
0

> <s_epik_input>
W0NIM11OMVtDSDJdW0NIMl1bQ0BIXShbQ0gyXTEpW0NIMl1bTkhdQyg9TylbTkhdYzJbY0hdW2NIXW5bY0hdW2NIXTI=

> <s_epik_cmdline>
J2VwaWtfcHl0aG9uJywgJy1waCcsICc3LjAnLCAnLXRuJywgJzgnLCAnLW1hJywgJzIwMCcsICctbWV0YWxfYmluZGluZycsICctaW1hZScsICc8aW5maWxlLm1hZT4nLCAnLW9tYWUnLCAnPG91dGZpbGUubWFlPic=

> <r_epik_Ionization_Penalty>
0.103936

> <r_epik_Ionization_Penalty_Charging>
0.0012301

> <r_epik_Ionization_Penalty_Neutral>
0.102706

> <r_epik_State_Penalty>
0.0926275

> <r_epik_Charging_Adjusted_Penalty>
0.0938576

> <i_epik_Tot_Q>
1

> <i_epik_Tot_abs_Q>
1

> <r_epik_Metal_State_Penalty>
0.0788376

> <b_epik_Metal_Only>
0

> <s_lp_Force_Field>
OPLS_2005

> <r_lp_Energy>
31.7685

> <b_lp_Chiralities_Consistent>
1

> <s_lp_Variant>
AV-unprocessed.smi:3163-2

> <Gold.Version>
5.8.1

> <Gold.Id.Protein>
6NUR|6NUR_protein|mol2

> <Gold.PLP.Fitness>
46.9515

> <Gold.PLP.PLP>
-30.0245

> <Gold.PLP.part.hbond>
-4.0000

> <Gold.PLP.part.metal>
0.0000

> <Gold.PLP.part.buried>
-4.2282

> <Gold.PLP.part.nonpolar>
-23.1478

> <Gold.PLP.part.repulsive>
0.2048

> <Gold.PLP.ligand.clash>
0.0000

> <Gold.PLP.ligand.torsion>
0.2242

> <Gold.PLP.Chemscore.Hbond>
4.7913

> <Gold.PLP.Chemscore.CHOScore>
1.0000

> <Gold.PLP.Chemscore.Metal>
0.0000

> <Gold.Chemscore.Hbonds>
donor molecule, donor type, donor heavy atom, donor atom, acceptor molecule, acceptor atom, score
      L1  H     2    36       P1 10186  0.16
      L1  H    10    29       P1 10175  0.21
      P1  H  7989  7998       L1    14  0.58
      L1  C    13    31       P1  8028  0.80

> <Gold.PLP.Chemscore.Internal.Correction>
0.0017

> <Gold.Rescore>
     Score         DG    S(hbond)    S(metal)    S(lipo)     H(rot)  DE(clash)    DE(int)     intcor
     18.09     -21.70       3.43        0.00      68.23       1.26       1.02       2.59       ----

> <Gold.Chemscore.Fitness>
18.0863

> <Gold.Chemscore.DG>
-21.6961

> <Gold.Chemscore.ZeroCoef>
-5.4800

> <Gold.Chemscore.Hbond>
3.4275

> <Gold.Chemscore.Metal>
0.0000

> <Gold.Chemscore.Lipo>
68.2324

> <Gold.Chemscore.Internal_Hbond>
0.0000

> <Gold.Chemscore.DEClash>
1.0242

> <Gold.Chemscore.DEInternal>
2.5855

> <Gold.Chemscore.Rot>
1.2559

> <Gold.Chemscore.Internal.Correction>
   9.000000E+99

> <Gold.Chemscore.Hbonds>
donor molecule, donor type, donor heavy atom, donor atom, acceptor molecule, acceptor atom, score
      L1  H     2    36       P1 10186  0.09
      L1  H    10    29       P1 10175  0.22
      P1  H  7989  7998       L1    14  0.11

> <Gold.Chemscore.Hbond.Weighted>
-11.4480

> <Gold.Chemscore.Metal.Weighted>
-0.0000

> <Gold.Chemscore.Lipo.Weighted>
-7.9832

> <Gold.Chemscore.Internal_Hbond.Weighted>
0.0000

> <Gold.Chemscore.DEClash.Weighted>
1.0242

> <Gold.Chemscore.DEInternal.Weighted>
2.5855

> <Gold.Chemscore.Rot.Weighted>
3.2151

> <Gold.Chemscore.Internal.Correction.Weighted>
   9.000000E+99

> <Gold.Protein.RotatedTorsions>
[ 6907 6896 6895 6894 ] final   47.42 input  -60.11 | X-H torsion
[ 7974 7965 7964 7962 ] final -135.31 input  175.53 | X-H torsion
[ 8008 7997 7996 7995 ] final -128.87 input   59.86 | X-H torsion
[ 10167 10162 10161 10158 ] final  124.79 input  -65.29 | X-H torsion
[ 10718 10713 10712 10709 ] final   77.49 input   66.30 | X-H torsion
[ 10763 10752 10751 10750 ] final  -55.70 input  -60.55 | X-H torsion
[ 11005 11000 10999 10996 ] final  118.70 input  -57.11 | X-H torsion

> <Gold.Protein.ActiveResidues>
 VAL166  LYS551  ARG553  GLY616  TRP617  ASP618  TYR619  PRO620  LYS621  CYS622 
 ASP623  PHE694  ASN695  SER759  ASP760  ASP761  ALA762  ILE779  LEU786  VAL792 
 PHE793  MET794  SER795  GLU796  ALA797  LYS798  CYS799  TRP800  GLU811  SER814 

> <Gold.Protein.RotatedAtoms>
  152.2679  134.7964  160.0419 H   0  0  0  0  0  0  0  0  0  0  0  0  # atno 6907 bound_to 6896
  151.8588  133.3448  159.3705 H   0  0  0  0  0  0  0  0  0  0  0  0  # atno 6908 bound_to 6896
  150.7140  134.5155  159.5672 H   0  0  0  0  0  0  0  0  0  0  0  0  # atno 6909 bound_to 6896
  144.9025  140.6790  143.5076 H   0  0  0  0  0  0  0  0  0  0  0  0  # atno 7974 bound_to 7965
  155.2698  140.0439  157.3006 H   0  0  0  0  0  0  0  0  0  0  0  0  # atno 8008 bound_to 7997
  154.5660  140.2360  155.8231 H   0  0  0  0  0  0  0  0  0  0  0  0  # atno 8009 bound_to 7997
  156.2085  140.3005  155.9688 H   0  0  0  0  0  0  0  0  0  0  0  0  # atno 8010 bound_to 7997
  139.5722  144.6944  151.3749 H   0  0  0  0  0  0  0  0  0  0  0  0  # atno 10167 bound_to 10162
  157.6712  130.9824  150.1648 H   0  0  0  0  0  0  0  0  0  0  0  0  # atno 10718 bound_to 10713
  154.1949  135.6421  153.5070 H   0  0  0  0  0  0  0  0  0  0  0  0  # atno 10763 bound_to 10752
  153.0026  135.5437  154.6376 H   0  0  0  0  0  0  0  0  0  0  0  0  # atno 10764 bound_to 10752
  154.5774  135.2922  155.0740 H   0  0  0  0  0  0  0  0  0  0  0  0  # atno 10765 bound_to 10752
  139.9119  134.9622  156.7543 H   0  0  0  0  0  0  0  0  0  0  0  0  # atno 11005 bound_to 11000
  145.3591  139.1686  143.4393 LP  0  0  0  0  0  0  0  0  0  0  0  0  # atno 17320 bound_to 7965
  146.3116  140.3652  142.8668 LP  0  0  0  0  0  0  0  0  0  0  0  0  # atno 17321 bound_to 7965
  140.7006  143.7642  150.7396 LP  0  0  0  0  0  0  0  0  0  0  0  0  # atno 17342 bound_to 10162
  140.1151  143.4663  152.2347 LP  0  0  0  0  0  0  0  0  0  0  0  0  # atno 17343 bound_to 10162
  156.2416  130.3691  149.8331 LP  0  0  0  0  0  0  0  0  0  0  0  0  # atno 17370 bound_to 10713
  156.6129  130.8594  151.3458 LP  0  0  0  0  0  0  0  0  0  0  0  0  # atno 17371 bound_to 10713
  140.6748  133.9527  155.7877 LP  0  0  0  0  0  0  0  0  0  0  0  0  # atno 17394 bound_to 11000
  141.0552  134.0427  157.3732 LP  0  0  0  0  0  0  0  0  0  0  0  0  # atno 17395 bound_to 11000

$$$$
