AV-unprocessed.smi:16|AV-procd|sdf|90|dock9
  -GOLD-   2262015233D 1   1.00000     0.00000
 Structure written by MMmdl.
 60 64  0  0  0  0  0  0  0  0  2 V2000
  151.2671  137.8325  155.1203 C   0  0  0  0  0  0  0  0  0  0  0  0
  150.7600  138.8535  156.1484 C   0  0  0  0  0  0  0  0  0  0  0  0
  149.5832  139.6190  155.6564 N   0  3  2  0  0  0  0  0  0  0  0  0
  149.2869  140.8628  156.4198 C   0  0  0  0  0  0  0  0  0  0  0  0
  148.6200  140.5703  157.7777 C   0  0  0  0  0  0  0  0  0  0  0  0
  147.3647  139.7092  157.5898 C   0  0  2  0  0  0  0  0  0  0  0  0
  146.8112  139.3864  158.8603 O   0  0  0  0  0  0  0  0  0  0  0  0
  145.6007  138.6472  158.7348 C   0  0  0  0  0  0  0  0  0  0  0  0
  145.8809  137.3273  157.9981 C   0  0  0  0  0  0  0  0  0  0  0  0
  146.5132  137.5873  156.7068 N   0  0  0  0  0  0  0  0  0  0  0  0
  146.6691  136.4663  155.9667 C   0  0  0  0  0  0  0  0  0  0  0  0
  147.3322  135.3956  156.4781 N   0  0  0  0  0  0  0  0  0  0  0  0
  147.4993  134.2982  155.7332 C   0  0  0  0  0  0  0  0  0  0  0  0
  147.1055  134.0739  154.4773 N   0  0  0  0  0  0  0  0  0  0  0  0
  146.4517  135.1540  153.9601 C   0  0  0  0  0  0  0  0  0  0  0  0
  146.1873  136.3773  154.6353 C   0  0  0  0  0  0  0  0  0  0  0  0
  145.4937  137.2452  153.8026 N   0  0  0  0  0  0  0  0  0  0  0  0
  145.3463  136.5675  152.6964 C   0  0  0  0  0  0  0  0  0  0  0  0
  145.9199  135.3151  152.6926 N   0  0  0  0  0  0  0  0  0  0  0  0
  145.8791  134.3576  151.6269 C   0  0  0  0  0  0  0  0  0  0  0  0
  144.7012  134.3071  150.6510 C   0  0  0  0  0  0  0  0  0  0  0  0
  144.8771  132.7766  150.5286 C   0  0  0  0  0  0  0  0  0  0  0  0
  143.5747  131.9598  150.5184 C   0  0  0  0  0  0  0  0  0  0  0  0
  142.9493  132.0101  149.2522 O   0  0  0  0  0  0  0  0  0  0  0  0
  145.7784  132.3077  149.3685 C   0  0  0  0  0  0  0  0  0  0  0  0
  146.5901  131.2163  149.7524 O   0  0  0  0  0  0  0  0  0  0  0  0
  145.5771  132.8824  151.9015 C   0  0  0  0  0  0  0  0  0  0  0  0
  147.7186  138.4102  156.8337 C   0  0  1  0  0  0  0  0  0  0  0  0
  148.3691  138.7791  155.4759 C   0  0  0  0  0  0  0  0  0  0  0  0
  146.6314  140.2834  157.0194 H   0  0  0  0  0  0  0  0  0  0  0  0
  148.4394  137.8456  157.4276 H   0  0  0  0  0  0  0  0  0  0  0  0
  152.0585  137.2185  155.5506 H   0  0  0  0  0  0  0  0  0  0  0  0
  151.6795  138.3130  154.2336 H   0  0  0  0  0  0  0  0  0  0  0  0
  150.4675  137.1630  154.8020 H   0  0  0  0  0  0  0  0  0  0  0  0
  150.4756  138.3019  157.0453 H   0  0  0  0  0  0  0  0  0  0  0  0
  151.5652  139.5242  156.4477 H   0  0  0  0  0  0  0  0  0  0  0  0
  150.1870  141.4601  156.5586 H   0  0  0  0  0  0  0  0  0  0  0  0
  148.6143  141.4746  155.8169 H   0  0  0  0  0  0  0  0  0  0  0  0
  149.3210  140.0675  158.4443 H   0  0  0  0  0  0  0  0  0  0  0  0
  148.3547  141.5079  158.2672 H   0  0  0  0  0  0  0  0  0  0  0  0
  145.2024  138.4455  159.7292 H   0  0  0  0  0  0  0  0  0  0  0  0
  144.8515  139.2378  158.2050 H   0  0  0  0  0  0  0  0  0  0  0  0
  146.5305  136.7013  158.6119 H   0  0  0  0  0  0  0  0  0  0  0  0
  144.9495  136.7787  157.8514 H   0  0  0  0  0  0  0  0  0  0  0  0
  148.0268  133.4847  156.2092 H   0  0  0  0  0  0  0  0  0  0  0  0
  144.8190  136.9702  151.8435 H   0  0  0  0  0  0  0  0  0  0  0  0
  146.8217  134.4666  151.0877 H   0  0  0  0  0  0  0  0  0  0  0  0
  143.7592  134.5933  151.1224 H   0  0  0  0  0  0  0  0  0  0  0  0
  144.8582  134.8673  149.7287 H   0  0  0  0  0  0  0  0  0  0  0  0
  143.7733  130.9126  150.7487 H   0  0  0  0  0  0  0  0  0  0  0  0
  142.8734  132.3100  151.2761 H   0  0  0  0  0  0  0  0  0  0  0  0
  142.2523  132.6472  149.2876 H   0  0  0  0  0  0  0  0  0  0  0  0
  145.1841  131.9934  148.5104 H   0  0  0  0  0  0  0  0  0  0  0  0
  146.4201  133.1134  149.0113 H   0  0  0  0  0  0  0  0  0  0  0  0
  147.4871  131.5108  149.7970 H   0  0  0  0  0  0  0  0  0  0  0  0
  146.4605  132.2535  152.0162 H   0  0  0  0  0  0  0  0  0  0  0  0
  144.8896  132.7452  152.7386 H   0  0  0  0  0  0  0  0  0  0  0  0
  147.6535  139.3300  154.8634 H   0  0  0  0  0  0  0  0  0  0  0  0
  148.6358  137.8911  154.9017 H   0  0  0  0  0  0  0  0  0  0  0  0
  149.8406  139.9170  154.7263 H   0  0  0  0  0  0  0  0  0  0  0  0
  1  2  1  0  0  0  0
  1 32  1  0  0  0  0
  1 33  1  0  0  0  0
  1 34  1  0  0  0  0
  2  3  1  0  0  0  0
  2 35  1  0  0  0  0
  2 36  1  0  0  0  0
  3 29  1  0  0  0  0
  3  4  1  0  0  0  0
  3 60  1  0  0  0  0
  4  5  1  0  0  0  0
  4 37  1  0  0  0  0
  4 38  1  0  0  0  0
  5  6  1  0  0  0  0
  5 39  1  0  0  0  0
  5 40  1  0  0  0  0
  6 30  1  0  0  0  0
  6 28  1  0  0  0  0
  6  7  1  0  0  0  0
  7  8  1  0  0  0  0
  8  9  1  0  0  0  0
  8 41  1  0  0  0  0
  8 42  1  0  0  0  0
  9 10  1  0  0  0  0
  9 43  1  0  0  0  0
  9 44  1  0  0  0  0
 10 11  1  0  0  0  0
 10 28  1  0  0  0  0
 11 16  1  0  0  0  0
 11 12  2  0  0  0  0
 12 13  1  0  0  0  0
 13 14  2  0  0  0  0
 13 45  1  0  0  0  0
 14 15  1  0  0  0  0
 15 19  1  0  0  0  0
 15 16  2  0  0  0  0
 16 17  1  0  0  0  0
 17 18  2  0  0  0  0
 18 19  1  0  0  0  0
 18 46  1  0  0  0  0
 19 20  1  0  0  0  0
 20 27  1  0  0  0  0
 20 21  1  0  0  0  0
 20 47  1  0  0  0  0
 21 22  1  0  0  0  0
 21 48  1  0  0  0  0
 21 49  1  0  0  0  0
 22 23  1  0  0  0  0
 22 25  1  0  0  0  0
 22 27  1  0  0  0  0
 23 24  1  0  0  0  0
 23 50  1  0  0  0  0
 23 51  1  0  0  0  0
 24 52  1  0  0  0  0
 25 26  1  0  0  0  0
 25 53  1  0  0  0  0
 25 54  1  0  0  0  0
 26 55  1  0  0  0  0
 27 56  1  0  0  0  0
 27 57  1  0  0  0  0
 28 31  1  0  0  0  0
 28 29  1  0  0  0  0
 29 58  1  0  0  0  0
 29 59  1  0  0  0  0
M  CHG  1   3   1
M  END
> <s_m_source_file>
AV-unprocessed.smi

> <i_m_source_file_index>
16

> <i_lp_mmshare_version>
43012

> <i_f3d_flags>
0

> <s_epik_input>
W0NIM11bQ0gyXU4oW0NIMl1bQ0gyXTEpW0NIMl1bQ0BASF0oW0NAQEhdMTIpTihbQ0gyXVtDSDJdTzIpYyhuW2NIXW4zKWMoYzM0KW5bY0hdbjRbQ0hdKFtDSDJdNSlbQ0gyXUM1KFtDSDJdW09IXSlbQ0gyXVtPSF0=

> <s_epik_cmdline>
J2VwaWtfcHl0aG9uJywgJy1waCcsICc3LjAnLCAnLXRuJywgJzgnLCAnLW1hJywgJzIwMCcsICctbWV0YWxfYmluZGluZycsICctaW1hZScsICc8aW5maWxlLm1hZT4nLCAnLW9tYWUnLCAnPG91dGZpbGUubWFlPic=

> <r_lp_tautomer_probability>
1

> <r_epik_Ionization_Penalty>
0.0135603

> <r_epik_Ionization_Penalty_Charging>
0.0131385

> <r_epik_Ionization_Penalty_Neutral>
0.000421734

> <r_epik_State_Penalty>
0.0102091

> <r_epik_Charging_Adjusted_Penalty>
0.0233476

> <i_epik_Tot_Q>
1

> <i_epik_Tot_abs_Q>
1

> <r_epik_Metal_State_Penalty>
0.0103746

> <b_epik_Metal_Only>
0

> <s_lp_Force_Field>
OPLS_2005

> <r_lp_Energy>
56.2472

> <b_lp_Chiralities_Consistent>
1

> <s_lp_Variant>
AV-unprocessed.smi:16-4

> <Gold.Version>
5.8.1

> <Gold.Id.Protein>
6NUR|6NUR_protein|mol2

> <Gold.PLP.Fitness>
45.7150

> <Gold.PLP.PLP>
-36.5983

> <Gold.PLP.part.hbond>
-4.1526

> <Gold.PLP.part.metal>
0.0000

> <Gold.PLP.part.buried>
-3.1927

> <Gold.PLP.part.nonpolar>
-29.3428

> <Gold.PLP.part.repulsive>
0.6618

> <Gold.PLP.ligand.clash>
0.0000

> <Gold.PLP.ligand.torsion>
1.5090

> <Gold.PLP.Chemscore.Hbond>
2.8283

> <Gold.PLP.Chemscore.CHOScore>
1.0000

> <Gold.PLP.Chemscore.Metal>
0.0000

> <Gold.Chemscore.Hbonds>
donor molecule, donor type, donor heavy atom, donor atom, acceptor molecule, acceptor atom, score
      L1  H    24    52       P1 10186  0.65
      L1  H    26    55       P1 10747  0.74
      P1  H 10785 10796       L1    24  0.95
      L1  C    18    46       P1 10171  0.42

> <Gold.PLP.Chemscore.Internal.Correction>
0.6500

> <Gold.Rescore>
     Score         DG    S(hbond)    S(metal)    S(lipo)     H(rot)  DE(clash)    DE(int)     intcor
     13.42     -15.19       2.67        0.00      79.64       3.33       0.58       1.18       ----

> <Gold.Chemscore.Fitness>
13.4243

> <Gold.Chemscore.DG>
-15.1896

> <Gold.Chemscore.ZeroCoef>
-5.4800

> <Gold.Chemscore.Hbond>
2.6660

> <Gold.Chemscore.Metal>
0.0000

> <Gold.Chemscore.Lipo>
79.6362

> <Gold.Chemscore.Internal_Hbond>
0.0000

> <Gold.Chemscore.DEClash>
0.5837

> <Gold.Chemscore.DEInternal>
1.1816

> <Gold.Chemscore.Rot>
3.3251

> <Gold.Chemscore.Internal.Correction>
   9.000000E+99

> <Gold.Chemscore.Hbonds>
donor molecule, donor type, donor heavy atom, donor atom, acceptor molecule, acceptor atom, score
      L1  H    24    52       P1 10186  0.65
      L1  H    26    55       P1 10747  0.74
      P1  H 10785 10796       L1    24  0.21

> <Gold.Chemscore.Hbond.Weighted>
-8.9043

> <Gold.Chemscore.Metal.Weighted>
-0.0000

> <Gold.Chemscore.Lipo.Weighted>
-9.3174

> <Gold.Chemscore.Internal_Hbond.Weighted>
0.0000

> <Gold.Chemscore.DEClash.Weighted>
0.5837

> <Gold.Chemscore.DEInternal.Weighted>
1.1816

> <Gold.Chemscore.Rot.Weighted>
8.5122

> <Gold.Chemscore.Internal.Correction.Weighted>
   9.000000E+99

> <Gold.Protein.RotatedTorsions>
[ 6907 6896 6895 6894 ] final   28.58 input  -60.11 | X-H torsion
[ 7974 7965 7964 7962 ] final -112.70 input  175.53 | X-H torsion
[ 8008 7997 7996 7995 ] final -122.05 input   59.86 | X-H torsion
[ 10167 10162 10161 10158 ] final  -18.24 input  -65.29 | X-H torsion
[ 10718 10713 10712 10709 ] final   36.93 input   66.30 | X-H torsion
[ 10763 10752 10751 10750 ] final -122.91 input  -60.55 | X-H torsion
[ 11005 11000 10999 10996 ] final  -90.31 input  -57.11 | X-H torsion

> <Gold.Protein.ActiveResidues>
 VAL166  LYS551  ARG553  GLY616  TRP617  ASP618  TYR619  PRO620  LYS621  CYS622 
 ASP623  PHE694  ASN695  SER759  ASP760  ASP761  ALA762  ILE779  LEU786  VAL792 
 PHE793  MET794  SER795  GLU796  ALA797  LYS798  CYS799  TRP800  GLU811  SER814 

> <Gold.Protein.RotatedAtoms>
  152.0190  134.9834  160.0569 H   0  0  0  0  0  0  0  0  0  0  0  0  # atno 6907 bound_to 6896
  152.1356  133.4428  159.4750 H   0  0  0  0  0  0  0  0  0  0  0  0  # atno 6908 bound_to 6896
  150.6860  134.2286  159.4468 H   0  0  0  0  0  0  0  0  0  0  0  0  # atno 6909 bound_to 6896
  145.1408  140.8777  143.3703 H   0  0  0  0  0  0  0  0  0  0  0  0  # atno 7974 bound_to 7965
  155.1579  140.0405  157.2836 H   0  0  0  0  0  0  0  0  0  0  0  0  # atno 8008 bound_to 7997
  154.6357  140.2535  155.7354 H   0  0  0  0  0  0  0  0  0  0  0  0  # atno 8009 bound_to 7997
  156.2507  140.2866  156.0729 H   0  0  0  0  0  0  0  0  0  0  0  0  # atno 8010 bound_to 7997
  140.7256  143.4936  150.9959 H   0  0  0  0  0  0  0  0  0  0  0  0  # atno 10167 bound_to 10162
  157.3409  130.7547  149.6911 H   0  0  0  0  0  0  0  0  0  0  0  0  # atno 10718 bound_to 10713
  154.8698  135.4116  154.2858 H   0  0  0  0  0  0  0  0  0  0  0  0  # atno 10763 bound_to 10752
  153.3743  135.7009  153.6619 H   0  0  0  0  0  0  0  0  0  0  0  0  # atno 10764 bound_to 10752
  153.5468  135.3637  155.2714 H   0  0  0  0  0  0  0  0  0  0  0  0  # atno 10765 bound_to 10752
  141.1568  133.7684  156.9719 H   0  0  0  0  0  0  0  0  0  0  0  0  # atno 11005 bound_to 11000
  145.0534  139.3163  143.5917 LP  0  0  0  0  0  0  0  0  0  0  0  0  # atno 17320 bound_to 7965
  146.3505  139.9951  142.8682 LP  0  0  0  0  0  0  0  0  0  0  0  0  # atno 17321 bound_to 7965
  139.8642  143.7275  152.3171 LP  0  0  0  0  0  0  0  0  0  0  0  0  # atno 17342 bound_to 10162
  139.7501  144.7536  151.0519 LP  0  0  0  0  0  0  0  0  0  0  0  0  # atno 17343 bound_to 10162
  155.9707  130.4168  150.4248 LP  0  0  0  0  0  0  0  0  0  0  0  0  # atno 17370 bound_to 10713
  157.2296  131.0501  151.2500 LP  0  0  0  0  0  0  0  0  0  0  0  0  # atno 17371 bound_to 10713
  140.1124  134.9469  157.2084 LP  0  0  0  0  0  0  0  0  0  0  0  0  # atno 17394 bound_to 11000
  140.3177  134.2952  155.7253 LP  0  0  0  0  0  0  0  0  0  0  0  0  # atno 17395 bound_to 11000

$$$$
