AV-unprocessed.smi:1361|AV-procd|sdf|5557|dock6
  -GOLD-   22720 5153D 1   1.00000     0.00000
 Structure written by MMmdl.
 45 46  0  0  0  0  0  0  0  0  2 V2000
  146.7426  138.1246  151.6860 C   0  0  0  0  0  0  0  0  0  0  0  0
  147.1466  139.0405  152.8214 C   0  0  0  0  0  0  0  0  0  0  0  0
  146.7520  140.2564  152.8147 N   0  0  0  0  0  0  0  0  0  0  0  0
  147.1208  141.1091  153.8688 C   0  0  0  0  0  0  0  0  0  0  0  0
  146.6011  142.5337  153.7793 C   0  0  0  0  0  0  0  0  0  0  0  0
  147.8967  140.6638  154.8987 C   0  0  0  0  0  0  0  0  0  0  0  0
  148.3182  141.5480  156.0713 C   0  0  0  0  0  0  0  0  0  0  0  0
  149.8246  141.6259  156.3240 C   0  0  0  0  0  0  0  0  0  0  0  0
  150.6104  141.0974  155.5381 O   0  0  0  0  0  0  0  0  0  0  0  0
  150.2121  142.2896  157.4245 N   0  0  0  0  0  0  0  0  0  0  0  0
  151.5919  142.4919  157.8598 C   0  0  0  0  0  0  0  0  0  0  0  0
  151.8017  141.8417  159.2463 C   0  0  0  0  0  0  0  0  0  0  0  0
  153.1247  142.2123  159.9421 C   0  0  0  0  0  0  0  0  0  0  0  0
  152.9593  143.0500  161.2239 C   0  0  0  0  0  0  0  0  0  0  0  0
  151.9511  144.2172  161.1765 C   0  0  0  0  0  0  0  0  0  0  0  0
  152.1322  145.2286  160.0311 C   0  0  0  0  0  0  0  0  0  0  0  0
  151.3000  144.9455  158.7616 C   0  0  0  0  0  0  0  0  0  0  0  0
  151.9542  143.9917  157.7440 C   0  0  0  0  0  0  0  0  0  0  0  0
  148.3371  139.2573  154.8644 C   0  0  0  0  0  0  0  0  0  0  0  0
  149.0511  138.8072  155.7597 O   0  0  0  0  0  0  0  0  0  0  0  0
  147.9284  138.4917  153.8127 N   0  5  0  0  0  0  0  0  0  0  0  0
  146.2961  138.6886  150.8661 H   0  0  0  0  0  0  0  0  0  0  0  0
  146.0152  137.3915  152.0357 H   0  0  0  0  0  0  0  0  0  0  0  0
  147.6121  137.5922  151.2989 H   0  0  0  0  0  0  0  0  0  0  0  0
  145.9778  142.7719  154.6412 H   0  0  0  0  0  0  0  0  0  0  0  0
  145.9974  142.6772  152.8824 H   0  0  0  0  0  0  0  0  0  0  0  0
  147.4285  143.2417  153.7399 H   0  0  0  0  0  0  0  0  0  0  0  0
  147.9284  142.5522  155.9028 H   0  0  0  0  0  0  0  0  0  0  0  0
  147.8366  141.2236  156.9941 H   0  0  0  0  0  0  0  0  0  0  0  0
  149.4918  142.6922  158.0060 H   0  0  0  0  0  0  0  0  0  0  0  0
  152.2453  141.9743  157.1544 H   0  0  0  0  0  0  0  0  0  0  0  0
  150.9521  142.0505  159.8952 H   0  0  0  0  0  0  0  0  0  0  0  0
  151.7780  140.7589  159.1160 H   0  0  0  0  0  0  0  0  0  0  0  0
  153.6482  141.2937  160.2100 H   0  0  0  0  0  0  0  0  0  0  0  0
  153.8027  142.7163  159.2554 H   0  0  0  0  0  0  0  0  0  0  0  0
  152.6593  142.3850  162.0345 H   0  0  0  0  0  0  0  0  0  0  0  0
  153.9381  143.4356  161.5112 H   0  0  0  0  0  0  0  0  0  0  0  0
  150.9257  143.8484  161.1896 H   0  0  0  0  0  0  0  0  0  0  0  0
  152.0561  144.7581  162.1179 H   0  0  0  0  0  0  0  0  0  0  0  0
  151.8005  146.1955  160.4113 H   0  0  0  0  0  0  0  0  0  0  0  0
  153.1877  145.3645  159.7927 H   0  0  0  0  0  0  0  0  0  0  0  0
  150.2901  144.6224  159.0147 H   0  0  0  0  0  0  0  0  0  0  0  0
  151.1719  145.9028  158.2548 H   0  0  0  0  0  0  0  0  0  0  0  0
  153.0350  144.1297  157.7532 H   0  0  0  0  0  0  0  0  0  0  0  0
  151.6580  144.3173  156.7453 H   0  0  0  0  0  0  0  0  0  0  0  0
  1  2  1  0  0  0  0
  1 22  1  0  0  0  0
  1 23  1  0  0  0  0
  1 24  1  0  0  0  0
  2 21  1  0  0  0  0
  2  3  2  0  0  0  0
  3  4  1  0  0  0  0
  4  5  1  0  0  0  0
  4  6  2  0  0  0  0
  5 25  1  0  0  0  0
  5 26  1  0  0  0  0
  5 27  1  0  0  0  0
  6  7  1  0  0  0  0
  6 19  1  0  0  0  0
  7  8  1  0  0  0  0
  7 28  1  0  0  0  0
  7 29  1  0  0  0  0
  8  9  2  0  0  0  0
  8 10  1  0  0  0  0
 10 11  1  0  0  0  0
 10 30  1  0  0  0  0
 11 18  1  0  0  0  0
 11 12  1  0  0  0  0
 11 31  1  0  0  0  0
 12 13  1  0  0  0  0
 12 32  1  0  0  0  0
 12 33  1  0  0  0  0
 13 14  1  0  0  0  0
 13 34  1  0  0  0  0
 13 35  1  0  0  0  0
 14 15  1  0  0  0  0
 14 36  1  0  0  0  0
 14 37  1  0  0  0  0
 15 16  1  0  0  0  0
 15 38  1  0  0  0  0
 15 39  1  0  0  0  0
 16 17  1  0  0  0  0
 16 40  1  0  0  0  0
 16 41  1  0  0  0  0
 17 18  1  0  0  0  0
 17 42  1  0  0  0  0
 17 43  1  0  0  0  0
 18 44  1  0  0  0  0
 18 45  1  0  0  0  0
 19 20  2  0  0  0  0
 19 21  1  0  0  0  0
M  CHG  1  21  -1
M  END
> <s_m_source_file>
AV-unprocessed.smi

> <i_m_source_file_index>
1361

> <i_lp_mmshare_version>
43012

> <i_f3d_flags>
0

> <s_epik_input>
W0NIM11jMW5jKFtDSDNdKWMoYyg9TylbbkhdMSlbQ0gyXUMoPU8pW05IXVtDSF0yW0NIMl1bQ0gyXVtDSDJdW0NIMl1bQ0gyXVtDSDJdW0NIMl0y

> <s_epik_cmdline>
J2VwaWtfcHl0aG9uJywgJy1waCcsICc3LjAnLCAnLXRuJywgJzgnLCAnLW1hJywgJzIwMCcsICctbWV0YWxfYmluZGluZycsICctaW1hZScsICc8aW5maWxlLm1hZT4nLCAnLW9tYWUnLCAnPG91dGZpbGUubWFlPic=

> <r_lp_tautomer_probability>
0.839158

> <r_epik_Ionization_Penalty>
6.62804

> <r_epik_Ionization_Penalty_Charging>
7.40585e-08

> <r_epik_Ionization_Penalty_Neutral>
6.62804

> <r_epik_State_Penalty>
4.44437

> <r_epik_Charging_Adjusted_Penalty>
4.44437

> <i_epik_Tot_Q>
-1

> <i_epik_Tot_abs_Q>
1

> <r_epik_Metal_State_Penalty>
0.804717

> <b_epik_Metal_Only>
1

> <s_lp_Force_Field>
OPLS_2005

> <r_lp_Energy>
26.9664

> <b_lp_Chiralities_Consistent>
1

> <s_lp_Variant>
AV-unprocessed.smi:1361-3

> <Gold.Version>
5.8.1

> <Gold.Id.Protein>
6NUR|6NUR_protein|mol2

> <Gold.PLP.Fitness>
44.7082

> <Gold.PLP.PLP>
-43.9016

> <Gold.PLP.part.hbond>
-1.1699

> <Gold.PLP.part.metal>
0.0000

> <Gold.PLP.part.buried>
-0.0336

> <Gold.PLP.part.nonpolar>
-42.3096

> <Gold.PLP.part.repulsive>
1.0330

> <Gold.PLP.ligand.clash>
0.0000

> <Gold.PLP.ligand.torsion>
0.0935

> <Gold.PLP.Chemscore.Hbond>
0.3175

> <Gold.PLP.Chemscore.CHOScore>
0.0000

> <Gold.PLP.Chemscore.Metal>
0.0000

> <Gold.Chemscore.Hbonds>
donor molecule, donor type, donor heavy atom, donor atom, acceptor molecule, acceptor atom, score
      P1  H  7989  7998       L1     9  0.25

> <Gold.PLP.Chemscore.Internal.Correction>
0.0412

> <Gold.Rescore>
     Score         DG    S(hbond)    S(metal)    S(lipo)     H(rot)  DE(clash)    DE(int)     intcor
     13.22     -17.60       0.41        0.00     123.13       1.43       1.32       3.06       ----

> <Gold.Chemscore.Fitness>
13.2164

> <Gold.Chemscore.DG>
-17.5972

> <Gold.Chemscore.ZeroCoef>
-5.4800

> <Gold.Chemscore.Hbond>
0.4137

> <Gold.Chemscore.Metal>
0.0000

> <Gold.Chemscore.Lipo>
123.1315

> <Gold.Chemscore.Internal_Hbond>
0.0000

> <Gold.Chemscore.DEClash>
1.3224

> <Gold.Chemscore.DEInternal>
3.0585

> <Gold.Chemscore.Rot>
1.4339

> <Gold.Chemscore.Internal.Correction>
   9.000000E+99

> <Gold.Chemscore.Hbonds>
donor molecule, donor type, donor heavy atom, donor atom, acceptor molecule, acceptor atom, score
      P1  H  7989  7998       L1     9  0.25

> <Gold.Chemscore.Hbond.Weighted>
-1.3816

> <Gold.Chemscore.Metal.Weighted>
-0.0000

> <Gold.Chemscore.Lipo.Weighted>
-14.4064

> <Gold.Chemscore.Internal_Hbond.Weighted>
0.0000

> <Gold.Chemscore.DEClash.Weighted>
1.3224

> <Gold.Chemscore.DEInternal.Weighted>
3.0585

> <Gold.Chemscore.Rot.Weighted>
3.6708

> <Gold.Chemscore.Internal.Correction.Weighted>
   9.000000E+99

> <Gold.Protein.RotatedTorsions>
[ 6907 6896 6895 6894 ] final -124.04 input  -60.11 | X-H torsion
[ 7974 7965 7964 7962 ] final  -97.69 input  175.53 | X-H torsion
[ 8008 7997 7996 7995 ] final   63.75 input   59.86 | X-H torsion
[ 10167 10162 10161 10158 ] final -123.21 input  -65.29 | X-H torsion
[ 10718 10713 10712 10709 ] final   -4.93 input   66.30 | X-H torsion
[ 10763 10752 10751 10750 ] final  -18.14 input  -60.55 | X-H torsion
[ 11005 11000 10999 10996 ] final -169.51 input  -57.11 | X-H torsion

> <Gold.Protein.ActiveResidues>
 VAL166  LYS551  ARG553  GLY616  TRP617  ASP618  TYR619  PRO620  LYS621  CYS622 
 ASP623  PHE694  ASN695  SER759  ASP760  ASP761  ALA762  ILE779  LEU786  VAL792 
 PHE793  MET794  SER795  GLU796  ALA797  LYS798  CYS799  TRP800  GLU811  SER814 

> <Gold.Protein.RotatedAtoms>
  150.8729  133.7480  159.2955 H   0  0  0  0  0  0  0  0  0  0  0  0  # atno 6907 bound_to 6896
  151.5086  135.1063  159.9857 H   0  0  0  0  0  0  0  0  0  0  0  0  # atno 6908 bound_to 6896
  152.4707  133.7979  159.6993 H   0  0  0  0  0  0  0  0  0  0  0  0  # atno 6909 bound_to 6896
  145.3304  140.9440  143.2665 H   0  0  0  0  0  0  0  0  0  0  0  0  # atno 7974 bound_to 7965
  155.6352  140.3496  155.4696 H   0  0  0  0  0  0  0  0  0  0  0  0  # atno 8008 bound_to 7997
  155.9970  140.1205  157.0607 H   0  0  0  0  0  0  0  0  0  0  0  0  # atno 8009 bound_to 7997
  154.4237  140.1108  156.5631 H   0  0  0  0  0  0  0  0  0  0  0  0  # atno 8010 bound_to 7997
  140.0059  143.5492  152.2284 H   0  0  0  0  0  0  0  0  0  0  0  0  # atno 10167 bound_to 10162
  156.7540  130.5248  149.5798 H   0  0  0  0  0  0  0  0  0  0  0  0  # atno 10718 bound_to 10713
  153.5847  135.7004  153.5448 H   0  0  0  0  0  0  0  0  0  0  0  0  # atno 10763 bound_to 10752
  153.3230  135.4068  155.1432 H   0  0  0  0  0  0  0  0  0  0  0  0  # atno 10764 bound_to 10752
  154.8611  135.3700  154.5376 H   0  0  0  0  0  0  0  0  0  0  0  0  # atno 10765 bound_to 10752
  140.5299  134.5626  157.5072 H   0  0  0  0  0  0  0  0  0  0  0  0  # atno 11005 bound_to 11000
  144.8869  139.4828  143.6696 LP  0  0  0  0  0  0  0  0  0  0  0  0  # atno 17320 bound_to 7965
  146.3048  139.7543  142.9064 LP  0  0  0  0  0  0  0  0  0  0  0  0  # atno 17321 bound_to 7965
  139.6239  144.7634  151.2681 LP  0  0  0  0  0  0  0  0  0  0  0  0  # atno 17342 bound_to 10162
  140.7400  143.6599  150.8173 LP  0  0  0  0  0  0  0  0  0  0  0  0  # atno 17343 bound_to 10162
  156.1382  130.6226  151.0431 LP  0  0  0  0  0  0  0  0  0  0  0  0  # atno 17370 bound_to 10713
  157.6764  131.0849  150.7483 LP  0  0  0  0  0  0  0  0  0  0  0  0  # atno 17371 bound_to 10713
  139.9560  134.7535  156.0342 LP  0  0  0  0  0  0  0  0  0  0  0  0  # atno 17394 bound_to 11000
  141.1287  133.6592  156.3405 LP  0  0  0  0  0  0  0  0  0  0  0  0  # atno 17395 bound_to 11000

$$$$
