AV-unprocessed.smi:103|AV-procd|sdf|977|dock9
  -GOLD-   2262017533D 1   1.00000     0.00000
 Structure written by MMmdl.
 53 55  0  0  0  0  0  0  0  0  1 V2000
  153.5847  137.8901  160.5198 C   0  0  0  0  0  0  0  0  0  0  0  0
  153.0694  138.9090  159.5116 C   0  0  0  0  0  0  0  0  0  0  0  0
  153.7885  139.3311  158.6053 O   0  0  0  0  0  0  0  0  0  0  0  0
  151.7893  139.2596  159.7384 O   0  0  0  0  0  0  0  0  0  0  0  0
  151.1354  140.1891  158.8850 C   0  0  0  0  0  0  0  0  0  0  0  0
  150.3862  139.4616  157.7517 C   0  0  2  0  0  0  0  0  0  0  0  0
  149.1715  138.9041  158.2378 O   0  0  0  0  0  0  0  0  0  0  0  0
  149.4313  137.6711  158.8280 C   0  0  1  0  0  0  0  0  0  0  0  0
  148.2450  136.7844  158.5962 N   0  0  0  0  0  0  0  0  0  0  0  0
  147.3648  136.2399  159.5090 C   0  0  0  0  0  0  0  0  0  0  0  0
  147.3688  136.5105  161.2771 S   0  0  0  0  0  0  0  0  0  0  0  0
  146.8521  134.8635  161.9113 C   0  0  0  0  0  0  0  0  0  0  0  0
  148.7631  136.7698  161.6693 O   0  0  0  0  0  0  0  0  0  0  0  0
  146.3149  137.4937  161.5699 O   0  0  0  0  0  0  0  0  0  0  0  0
  146.3773  135.5371  159.0242 N   0  0  0  0  0  0  0  0  0  0  0  0
  146.6278  135.5443  157.6591 C   0  0  0  0  0  0  0  0  0  0  0  0
  145.9855  134.9637  156.5365 C   0  0  0  0  0  0  0  0  0  0  0  0
  144.8824  134.2093  156.6347 N   0  0  0  0  0  0  0  0  0  0  0  0
  146.5103  135.1783  155.3076 N   0  0  0  0  0  0  0  0  0  0  0  0
  147.6093  135.9289  155.1829 C   0  0  0  0  0  0  0  0  0  0  0  0
  148.3155  136.5394  156.1374 N   0  0  0  0  0  0  0  0  0  0  0  0
  147.7894  136.3189  157.3779 C   0  0  0  0  0  0  0  0  0  0  0  0
  150.7371  137.1260  158.2097 C   0  0  1  0  0  0  0  0  0  0  0  0
  150.5776  135.8677  157.5551 O   0  0  0  0  0  0  0  0  0  0  0  0
  151.5673  135.3457  156.8132 C   0  0  0  0  0  0  0  0  0  0  0  0
  151.2015  133.9811  156.2460 C   0  0  0  0  0  0  0  0  0  0  0  0
  152.6619  135.8620  156.5915 O   0  0  0  0  0  0  0  0  0  0  0  0
  151.1495  138.2328  157.2407 C   0  0  1  0  0  0  0  0  0  0  0  0
  150.7345  137.9332  155.9110 O   0  0  0  0  0  0  0  0  0  0  0  0
  150.9319  138.8111  154.9151 C   0  0  0  0  0  0  0  0  0  0  0  0
  149.8617  138.7090  153.8369 C   0  0  0  0  0  0  0  0  0  0  0  0
  151.8497  139.6278  154.8387 O   0  0  0  0  0  0  0  0  0  0  0  0
  153.6887  136.9136  160.0467 H   0  0  0  0  0  0  0  0  0  0  0  0
  152.8998  137.7944  161.3628 H   0  0  0  0  0  0  0  0  0  0  0  0
  154.5590  138.1956  160.9013 H   0  0  0  0  0  0  0  0  0  0  0  0
  150.4131  140.7306  159.4960 H   0  0  0  0  0  0  0  0  0  0  0  0
  151.8284  140.9373  158.4973 H   0  0  0  0  0  0  0  0  0  0  0  0
  150.1808  140.1692  156.9474 H   0  0  0  0  0  0  0  0  0  0  0  0
  149.4964  137.8043  159.9055 H   0  0  0  0  0  0  0  0  0  0  0  0
  146.8088  134.8921  162.9996 H   0  0  0  0  0  0  0  0  0  0  0  0
  147.5741  134.1104  161.5961 H   0  0  0  0  0  0  0  0  0  0  0  0
  145.8690  134.6098  161.5159 H   0  0  0  0  0  0  0  0  0  0  0  0
  144.4731  134.0335  157.5411 H   0  0  0  0  0  0  0  0  0  0  0  0
  144.4624  133.8188  155.8037 H   0  0  0  0  0  0  0  0  0  0  0  0
  147.9753  136.0606  154.1755 H   0  0  0  0  0  0  0  0  0  0  0  0
  151.4768  137.0736  159.0098 H   0  0  0  0  0  0  0  0  0  0  0  0
  150.9606  133.2891  157.0532 H   0  0  0  0  0  0  0  0  0  0  0  0
  152.0323  133.5681  155.6736 H   0  0  0  0  0  0  0  0  0  0  0  0
  150.3356  134.0644  155.5891 H   0  0  0  0  0  0  0  0  0  0  0  0
  152.2304  138.3798  157.2687 H   0  0  0  0  0  0  0  0  0  0  0  0
  149.8686  137.7147  153.3903 H   0  0  0  0  0  0  0  0  0  0  0  0
  150.0369  139.4434  153.0506 H   0  0  0  0  0  0  0  0  0  0  0  0
  148.8758  138.8894  154.2657 H   0  0  0  0  0  0  0  0  0  0  0  0
  1  2  1  0  0  0  0
  1 33  1  0  0  0  0
  1 34  1  0  0  0  0
  1 35  1  0  0  0  0
  2  3  2  0  0  0  0
  2  4  1  0  0  0  0
  4  5  1  0  0  0  0
  5  6  1  0  0  0  0
  5 36  1  0  0  0  0
  5 37  1  0  0  0  0
  6 28  1  0  0  0  0
  6  7  1  0  0  0  0
  6 38  1  0  0  0  0
  7  8  1  0  0  0  0
  8  9  1  0  0  0  0
  8 23  1  0  0  0  0
  8 39  1  0  0  0  0
  9 22  1  0  0  0  0
  9 10  1  0  0  0  0
 10 11  1  0  0  0  0
 10 15  2  0  0  0  0
 11 12  1  0  0  0  0
 11 13  2  0  0  0  0
 11 14  2  0  0  0  0
 12 40  1  0  0  0  0
 12 41  1  0  0  0  0
 12 42  1  0  0  0  0
 15 16  1  0  0  0  0
 16 22  2  0  0  0  0
 16 17  1  0  0  0  0
 17 18  1  0  0  0  0
 17 19  2  0  0  0  0
 18 43  1  0  0  0  0
 18 44  1  0  0  0  0
 19 20  1  0  0  0  0
 20 21  2  0  0  0  0
 20 45  1  0  0  0  0
 21 22  1  0  0  0  0
 23 24  1  0  0  0  0
 23 28  1  0  0  0  0
 23 46  1  0  0  0  0
 24 25  1  0  0  0  0
 25 26  1  0  0  0  0
 25 27  2  0  0  0  0
 26 47  1  0  0  0  0
 26 48  1  0  0  0  0
 26 49  1  0  0  0  0
 28 29  1  0  0  0  0
 28 50  1  0  0  0  0
 29 30  1  0  0  0  0
 30 31  1  0  0  0  0
 30 32  2  0  0  0  0
 31 51  1  0  0  0  0
 31 52  1  0  0  0  0
 31 53  1  0  0  0  0
M  END
> <s_m_source_file>
AV-unprocessed.smi

> <i_m_source_file_index>
103

> <i_lp_mmshare_version>
43012

> <i_f3d_flags>
0

> <s_epik_input>
W0NIM11DKD1PKU9bQ0gyXVtDQEBIXTFPW0NASF0oW0NAQEhdKE9DKD1PKVtDSDNdKVtDQEhdMU9DKD1PKVtDSDNdKW4oYyhuMilTKD1PKSg9TylbQ0gzXSljKGMyMyluW2NIXW5jM1tOSDJd

> <s_epik_cmdline>
J2VwaWtfcHl0aG9uJywgJy1waCcsICc3LjAnLCAnLXRuJywgJzgnLCAnLW1hJywgJzIwMCcsICctbWV0YWxfYmluZGluZycsICctaW1hZScsICc8aW5maWxlLm1hZT4nLCAnLW9tYWUnLCAnPG91dGZpbGUubWFlPic=

> <r_lp_tautomer_probability>
1

> <r_epik_Ionization_Penalty>
1.51338e-05

> <r_epik_Ionization_Penalty_Charging>
0

> <r_epik_Ionization_Penalty_Neutral>
1.51338e-05

> <r_epik_State_Penalty>
-0

> <r_epik_Charging_Adjusted_Penalty>
0

> <i_epik_Tot_Q>
0

> <i_epik_Tot_abs_Q>
0

> <r_epik_Metal_State_Penalty>
-0

> <b_epik_Metal_Only>
0

> <s_epik_Chemistry_Notes>
This compound has an ester and may undergo hydrolysis at high or low pH. This compound contains an acetal/aminal-like group ( X-CH(R)-Y where X, Y are N, S, or O) that may be acid/base labile, releasing an aldehyde.

> <s_lp_Force_Field>
OPLS_2005

> <r_lp_Energy>
14.6626

> <b_lp_Chiralities_Consistent>
1

> <s_lp_Variant>
AV-unprocessed.smi:103-1

> <Gold.Version>
5.8.1

> <Gold.Id.Protein>
6NUR|6NUR_protein|mol2

> <Gold.PLP.Fitness>
43.6214

> <Gold.PLP.PLP>
-27.3841

> <Gold.PLP.part.hbond>
-6.1515

> <Gold.PLP.part.metal>
0.0000

> <Gold.PLP.part.buried>
-1.2548

> <Gold.PLP.part.nonpolar>
-20.9967

> <Gold.PLP.part.repulsive>
0.1283

> <Gold.PLP.ligand.clash>
0.0000

> <Gold.PLP.ligand.torsion>
2.0205

> <Gold.PLP.Chemscore.Hbond>
4.9913

> <Gold.PLP.Chemscore.CHOScore>
1.0000

> <Gold.PLP.Chemscore.Metal>
0.0000

> <Gold.Chemscore.Hbonds>
donor molecule, donor type, donor heavy atom, donor atom, acceptor molecule, acceptor atom, score
      P1  H  6931  6943       L1    13  0.96
      P1  H  6934  6947       L1    14  1.00
      P1  H  7989  7998       L1    32  1.00
      P1  H  7997  8009       L1     3  1.00
      P1  H 10752 10764       L1    27  1.00
      L1  C    20    45       P1  7948  1.00

> <Gold.PLP.Chemscore.Internal.Correction>
2.3045

> <Gold.Rescore>
     Score         DG    S(hbond)    S(metal)    S(lipo)     H(rot)  DE(clash)    DE(int)     intcor
      1.46     -12.80       3.97        0.00      42.28       4.25       1.21      10.13       ----

> <Gold.Chemscore.Fitness>
1.4607

> <Gold.Chemscore.DG>
-12.8022

> <Gold.Chemscore.ZeroCoef>
-5.4800

> <Gold.Chemscore.Hbond>
3.9651

> <Gold.Chemscore.Metal>
0.0000

> <Gold.Chemscore.Lipo>
42.2842

> <Gold.Chemscore.Internal_Hbond>
0.0000

> <Gold.Chemscore.DEClash>
1.2113

> <Gold.Chemscore.DEInternal>
10.1302

> <Gold.Chemscore.Rot>
4.2456

> <Gold.Chemscore.Internal.Correction>
   9.000000E+99

> <Gold.Chemscore.Hbonds>
donor molecule, donor type, donor heavy atom, donor atom, acceptor molecule, acceptor atom, score
      P1  H  6931  6943       L1    13  0.80
      P1  H  6934  6947       L1    14  0.24
      P1  H  7989  7998       L1    32  0.86
      P1  H  7997  8009       L1     3  0.95
      P1  H 10752 10764       L1    27  0.96

> <Gold.Chemscore.Hbond.Weighted>
-13.2436

> <Gold.Chemscore.Metal.Weighted>
-0.0000

> <Gold.Chemscore.Lipo.Weighted>
-4.9473

> <Gold.Chemscore.Internal_Hbond.Weighted>
0.0000

> <Gold.Chemscore.DEClash.Weighted>
1.2113

> <Gold.Chemscore.DEInternal.Weighted>
10.1302

> <Gold.Chemscore.Rot.Weighted>
10.8687

> <Gold.Chemscore.Internal.Correction.Weighted>
   9.000000E+99

> <Gold.Protein.RotatedTorsions>
[ 6907 6896 6895 6894 ] final -127.21 input  -60.11 | X-H torsion
[ 7974 7965 7964 7962 ] final  -95.95 input  175.53 | X-H torsion
[ 8008 7997 7996 7995 ] final  120.52 input   59.86 | X-H torsion
[ 10167 10162 10161 10158 ] final -119.35 input  -65.29 | X-H torsion
[ 10718 10713 10712 10709 ] final   70.96 input   66.30 | X-H torsion
[ 10763 10752 10751 10750 ] final    4.22 input  -60.55 | X-H torsion
[ 11005 11000 10999 10996 ] final  157.48 input  -57.11 | X-H torsion

> <Gold.Protein.ActiveResidues>
 VAL166  LYS551  ARG553  GLY616  TRP617  ASP618  TYR619  PRO620  LYS621  CYS622 
 ASP623  PHE694  ASN695  SER759  ASP760  ASP761  ALA762  ILE779  LEU786  VAL792 
 PHE793  MET794  SER795  GLU796  ALA797  LYS798  CYS799  TRP800  GLU811  SER814 

> <Gold.Protein.RotatedAtoms>
  150.9049  133.7071  159.2869 H   0  0  0  0  0  0  0  0  0  0  0  0  # atno 6907 bound_to 6896
  151.4577  135.1034  159.9725 H   0  0  0  0  0  0  0  0  0  0  0  0  # atno 6908 bound_to 6896
  152.4898  133.8419  159.7212 H   0  0  0  0  0  0  0  0  0  0  0  0  # atno 6909 bound_to 6896
  145.3533  140.9480  143.2542 H   0  0  0  0  0  0  0  0  0  0  0  0  # atno 7974 bound_to 7965
  156.2646  140.2829  156.1162 H   0  0  0  0  0  0  0  0  0  0  0  0  # atno 8008 bound_to 7997
  155.1204  140.0392  157.2766 H   0  0  0  0  0  0  0  0  0  0  0  0  # atno 8009 bound_to 7997
  154.6675  140.2580  155.7049 H   0  0  0  0  0  0  0  0  0  0  0  0  # atno 8010 bound_to 7997
  140.0476  143.5091  152.2098 H   0  0  0  0  0  0  0  0  0  0  0  0  # atno 10167 bound_to 10162
  157.6427  130.9504  150.0723 H   0  0  0  0  0  0  0  0  0  0  0  0  # atno 10718 bound_to 10713
  153.2739  135.6934  153.7453 H   0  0  0  0  0  0  0  0  0  0  0  0  # atno 10763 bound_to 10752
  153.6466  135.3384  155.3088 H   0  0  0  0  0  0  0  0  0  0  0  0  # atno 10764 bound_to 10752
  154.8473  135.4444  154.1771 H   0  0  0  0  0  0  0  0  0  0  0  0  # atno 10765 bound_to 10752
  140.1774  134.8500  157.2762 H   0  0  0  0  0  0  0  0  0  0  0  0  # atno 11005 bound_to 11000
  144.8701  139.5051  143.6772 LP  0  0  0  0  0  0  0  0  0  0  0  0  # atno 17320 bound_to 7965
  146.2958  139.7275  142.9127 LP  0  0  0  0  0  0  0  0  0  0  0  0  # atno 17321 bound_to 7965
  139.5973  144.7571  151.3255 LP  0  0  0  0  0  0  0  0  0  0  0  0  # atno 17342 bound_to 10162
  140.7231  143.7079  150.7793 LP  0  0  0  0  0  0  0  0  0  0  0  0  # atno 17343 bound_to 10162
  156.1723  130.3647  149.9148 LP  0  0  0  0  0  0  0  0  0  0  0  0  # atno 17370 bound_to 10713
  156.7120  130.8974  151.3610 LP  0  0  0  0  0  0  0  0  0  0  0  0  # atno 17371 bound_to 10713
  140.2307  134.3913  155.7523 LP  0  0  0  0  0  0  0  0  0  0  0  0  # atno 17394 bound_to 11000
  141.2221  133.7213  156.8636 LP  0  0  0  0  0  0  0  0  0  0  0  0  # atno 17395 bound_to 11000

$$$$
