AV-unprocessed.smi:2812|AV-procd|sdf|10835|dock7
  -GOLD-   2272015273D 1   1.00000     0.00000
 Structure written by MMmdl.
 55 56  0  0  0  0  0  0  0  0  2 V2000
  150.4153  138.1324  154.5286 C   0  0  0  0  0  0  0  0  0  0  0  0
  149.4456  139.2953  154.3895 C   0  0  0  0  0  0  0  0  0  0  0  0
  149.8292  140.5982  154.8919 C   0  0  0  0  0  0  0  0  0  0  0  0
  148.9731  141.6234  154.7868 C   0  0  0  0  0  0  0  0  0  0  0  0
  147.7141  141.4733  154.1877 N   0  0  0  0  0  0  0  0  0  0  0  0
  146.8576  142.6595  154.1052 C   0  0  0  0  0  0  0  0  0  0  0  0
  147.2927  140.2865  153.6632 C   0  0  0  0  0  0  0  0  0  0  0  0
  146.2102  140.2024  153.0784 O   0  0  0  0  0  0  0  0  0  0  0  0
  148.2181  139.1393  153.8275 C   0  0  0  0  0  0  0  0  0  0  0  0
  147.8557  137.8785  153.3292 N   0  0  0  0  0  0  0  0  0  0  0  0
  146.7870  137.1563  153.7086 C   0  0  0  0  0  0  0  0  0  0  0  0
  145.9407  137.5239  154.5246 O   0  0  0  0  0  0  0  0  0  0  0  0
  146.7724  135.9541  153.1157 N   0  0  0  0  0  0  0  0  0  0  0  0
  145.7743  134.9145  153.3543 C   0  0  0  0  0  0  0  0  0  0  0  0
  145.9106  133.6959  152.3944 C   0  0  2  0  0  0  0  0  0  0  0  0
  144.8278  133.7716  151.2856 C   0  0  0  0  0  0  0  0  0  0  0  0
  144.9202  132.6069  150.2988 C   0  0  0  0  0  0  0  0  0  0  0  0
  144.8431  131.2899  151.0654 C   0  0  0  0  0  0  0  0  0  0  0  0
  145.9383  131.2320  152.1367 C   0  0  0  0  0  0  0  0  0  0  0  0
  145.8460  132.3689  153.1001 N   0  3  1  0  0  0  0  0  0  0  0  0
  146.8170  132.2133  154.2263 C   0  0  0  0  0  0  0  0  0  0  0  0
  148.2850  132.0026  153.7823 C   0  0  0  0  0  0  0  0  0  0  0  0
  149.1707  131.5000  154.9352 C   0  0  0  0  0  0  0  0  0  0  0  0
  148.8585  133.3024  153.1979 C   0  0  0  0  0  0  0  0  0  0  0  0
  151.3403  138.4455  155.0134 H   0  0  0  0  0  0  0  0  0  0  0  0
  150.6704  137.7258  153.5496 H   0  0  0  0  0  0  0  0  0  0  0  0
  149.9737  137.3371  155.1299 H   0  0  0  0  0  0  0  0  0  0  0  0
  150.7938  140.7472  155.3547 H   0  0  0  0  0  0  0  0  0  0  0  0
  149.2025  142.6166  155.1444 H   0  0  0  0  0  0  0  0  0  0  0  0
  145.8649  142.4507  154.5070 H   0  0  0  0  0  0  0  0  0  0  0  0
  146.7458  142.9750  153.0669 H   0  0  0  0  0  0  0  0  0  0  0  0
  147.2572  143.5058  154.6650 H   0  0  0  0  0  0  0  0  0  0  0  0
  148.5403  137.4248  152.7422 H   0  0  0  0  0  0  0  0  0  0  0  0
  147.5105  135.7370  152.4617 H   0  0  0  0  0  0  0  0  0  0  0  0
  145.8838  134.6293  154.3994 H   0  0  0  0  0  0  0  0  0  0  0  0
  144.7862  135.3640  153.2514 H   0  0  0  0  0  0  0  0  0  0  0  0
  146.8892  133.7504  151.9146 H   0  0  0  0  0  0  0  0  0  0  0  0
  143.8369  133.7836  151.7418 H   0  0  0  0  0  0  0  0  0  0  0  0
  144.9135  134.6984  150.7182 H   0  0  0  0  0  0  0  0  0  0  0  0
  144.1147  132.6661  149.5663 H   0  0  0  0  0  0  0  0  0  0  0  0
  145.8572  132.6622  149.7430 H   0  0  0  0  0  0  0  0  0  0  0  0
  143.8621  131.1857  151.5313 H   0  0  0  0  0  0  0  0  0  0  0  0
  144.9507  130.4519  150.3761 H   0  0  0  0  0  0  0  0  0  0  0  0
  145.8362  130.2763  152.6456 H   0  0  0  0  0  0  0  0  0  0  0  0
  146.9230  131.2333  151.6663 H   0  0  0  0  0  0  0  0  0  0  0  0
  146.7390  133.0796  154.8852 H   0  0  0  0  0  0  0  0  0  0  0  0
  146.5744  131.3467  154.8335 H   0  0  0  0  0  0  0  0  0  0  0  0
  148.3286  131.2708  152.9775 H   0  0  0  0  0  0  0  0  0  0  0  0
  149.1675  132.1993  155.7722 H   0  0  0  0  0  0  0  0  0  0  0  0
  150.2044  131.3772  154.6103 H   0  0  0  0  0  0  0  0  0  0  0  0
  148.8333  130.5327  155.3076 H   0  0  0  0  0  0  0  0  0  0  0  0
  148.8782  134.0994  153.9422 H   0  0  0  0  0  0  0  0  0  0  0  0
  148.2632  133.6507  152.3533 H   0  0  0  0  0  0  0  0  0  0  0  0
  149.8789  133.1576  152.8411 H   0  0  0  0  0  0  0  0  0  0  0  0
  144.9269  132.3209  153.5159 H   0  0  0  0  0  0  0  0  0  0  0  0
  1  2  1  0  0  0  0
  1 25  1  0  0  0  0
  1 26  1  0  0  0  0
  1 27  1  0  0  0  0
  2  9  2  0  0  0  0
  2  3  1  0  0  0  0
  3  4  2  0  0  0  0
  3 28  1  0  0  0  0
  4  5  1  0  0  0  0
  4 29  1  0  0  0  0
  5  6  1  0  0  0  0
  5  7  1  0  0  0  0
  6 30  1  0  0  0  0
  6 31  1  0  0  0  0
  6 32  1  0  0  0  0
  7  8  2  0  0  0  0
  7  9  1  0  0  0  0
  9 10  1  0  0  0  0
 10 11  1  0  0  0  0
 10 33  1  0  0  0  0
 11 12  2  0  0  0  0
 11 13  1  0  0  0  0
 13 14  1  0  0  0  0
 13 34  1  0  0  0  0
 14 15  1  0  0  0  0
 14 35  1  0  0  0  0
 14 36  1  0  0  0  0
 15 20  1  0  0  0  0
 15 16  1  0  0  0  0
 15 37  1  0  0  0  0
 16 17  1  0  0  0  0
 16 38  1  0  0  0  0
 16 39  1  0  0  0  0
 17 18  1  0  0  0  0
 17 40  1  0  0  0  0
 17 41  1  0  0  0  0
 18 19  1  0  0  0  0
 18 42  1  0  0  0  0
 18 43  1  0  0  0  0
 19 20  1  0  0  0  0
 19 44  1  0  0  0  0
 19 45  1  0  0  0  0
 20 21  1  0  0  0  0
 20 55  1  0  0  0  0
 21 22  1  0  0  0  0
 21 46  1  0  0  0  0
 21 47  1  0  0  0  0
 22 23  1  0  0  0  0
 22 24  1  0  0  0  0
 22 48  1  0  0  0  0
 23 49  1  0  0  0  0
 23 50  1  0  0  0  0
 23 51  1  0  0  0  0
 24 52  1  0  0  0  0
 24 53  1  0  0  0  0
 24 54  1  0  0  0  0
M  CHG  1  20   1
M  END
> <s_m_source_file>
AV-unprocessed.smi

> <i_m_source_file_index>
2812

> <i_lp_mmshare_version>
43012

> <i_f3d_flags>
0

> <s_epik_input>
W0NIM11jMVtjSF1bY0hdbihbQ0gzXSljKD1PKWMxW05IXUMoPU8pW05IXVtDSDJdW0NAQEhdMltDSDJdW0NIMl1bQ0gyXVtDSDJdTjJbQ0gyXVtDSF0oW0NIM10pW0NIM10=

> <s_epik_cmdline>
J2VwaWtfcHl0aG9uJywgJy1waCcsICc3LjAnLCAnLXRuJywgJzgnLCAnLW1hJywgJzIwMCcsICctbWV0YWxfYmluZGluZycsICctaW1hZScsICc8aW5maWxlLm1hZT4nLCAnLW9tYWUnLCAnPG91dGZpbGUubWFlPic=

> <r_lp_tautomer_probability>
1

> <r_epik_Ionization_Penalty>
0.0010902

> <r_epik_Ionization_Penalty_Charging>
0.00107091

> <r_epik_Ionization_Penalty_Neutral>
1.92854e-05

> <r_epik_State_Penalty>
0.000697184

> <r_epik_Charging_Adjusted_Penalty>
0.0017681

> <i_epik_Tot_Q>
1

> <i_epik_Tot_abs_Q>
1

> <r_epik_Metal_State_Penalty>
-0

> <b_epik_Metal_Only>
0

> <s_lp_Force_Field>
OPLS_2005

> <r_lp_Energy>
39.8559

> <b_lp_Chiralities_Consistent>
1

> <s_lp_Variant>
AV-unprocessed.smi:2812-3

> <Gold.Version>
5.8.1

> <Gold.Id.Protein>
6NUR|6NUR_protein|mol2

> <Gold.PLP.Fitness>
44.5122

> <Gold.PLP.PLP>
-37.6717

> <Gold.PLP.part.hbond>
-1.7461

> <Gold.PLP.part.metal>
0.0000

> <Gold.PLP.part.buried>
-2.0563

> <Gold.PLP.part.nonpolar>
-37.2305

> <Gold.PLP.part.repulsive>
3.6231

> <Gold.PLP.ligand.clash>
0.0000

> <Gold.PLP.ligand.torsion>
1.3549

> <Gold.PLP.Chemscore.Hbond>
1.9193

> <Gold.PLP.Chemscore.CHOScore>
1.0000

> <Gold.PLP.Chemscore.Metal>
0.0000

> <Gold.Chemscore.Hbonds>
donor molecule, donor type, donor heavy atom, donor atom, acceptor molecule, acceptor atom, score
      L1  H    10    33       P1  7948  0.99
      L1  H    13    34       P1  7948  0.93
      L1  C     4    29       P1  8028  1.00

> <Gold.PLP.Chemscore.Internal.Correction>
0.7925

> <Gold.Rescore>
     Score         DG    S(hbond)    S(metal)    S(lipo)     H(rot)  DE(clash)    DE(int)     intcor
     15.92     -19.07       1.88        0.00      95.57       1.52       1.66       1.48       ----

> <Gold.Chemscore.Fitness>
15.9209

> <Gold.Chemscore.DG>
-19.0664

> <Gold.Chemscore.ZeroCoef>
-5.4800

> <Gold.Chemscore.Hbond>
1.8816

> <Gold.Chemscore.Metal>
0.0000

> <Gold.Chemscore.Lipo>
95.5729

> <Gold.Chemscore.Internal_Hbond>
0.0000

> <Gold.Chemscore.DEClash>
1.6613

> <Gold.Chemscore.DEInternal>
1.4841

> <Gold.Chemscore.Rot>
1.5157

> <Gold.Chemscore.Internal.Correction>
   9.000000E+99

> <Gold.Chemscore.Hbonds>
donor molecule, donor type, donor heavy atom, donor atom, acceptor molecule, acceptor atom, score
      L1  H    10    33       P1  7948  0.88
      L1  H    13    34       P1  7948  0.89

> <Gold.Chemscore.Hbond.Weighted>
-6.2846

> <Gold.Chemscore.Metal.Weighted>
-0.0000

> <Gold.Chemscore.Lipo.Weighted>
-11.1820

> <Gold.Chemscore.Internal_Hbond.Weighted>
0.0000

> <Gold.Chemscore.DEClash.Weighted>
1.6613

> <Gold.Chemscore.DEInternal.Weighted>
1.4841

> <Gold.Chemscore.Rot.Weighted>
3.8803

> <Gold.Chemscore.Internal.Correction.Weighted>
   9.000000E+99

> <Gold.Protein.RotatedTorsions>
[ 6907 6896 6895 6894 ] final  -27.33 input  -60.11 | X-H torsion
[ 7974 7965 7964 7962 ] final  -24.24 input  175.53 | X-H torsion
[ 8008 7997 7996 7995 ] final  118.21 input   59.86 | X-H torsion
[ 10167 10162 10161 10158 ] final   19.88 input  -65.29 | X-H torsion
[ 10718 10713 10712 10709 ] final   72.92 input   66.30 | X-H torsion
[ 10763 10752 10751 10750 ] final  143.43 input  -60.55 | X-H torsion
[ 11005 11000 10999 10996 ] final -137.62 input  -57.11 | X-H torsion

> <Gold.Protein.ActiveResidues>
 VAL166  LYS551  ARG553  GLY616  TRP617  ASP618  TYR619  PRO620  LYS621  CYS622 
 ASP623  PHE694  ASN695  SER759  ASP760  ASP761  ALA762  ILE779  LEU786  VAL792 
 PHE793  MET794  SER795  GLU796  ALA797  LYS798  CYS799  TRP800  GLU811  SER814 

> <Gold.Protein.RotatedAtoms>
  151.1484  135.0215  159.8656 H   0  0  0  0  0  0  0  0  0  0  0  0  # atno 6907 bound_to 6896
  152.5453  134.1417  159.8492 H   0  0  0  0  0  0  0  0  0  0  0  0  # atno 6908 bound_to 6896
  151.1500  133.4868  159.2628 H   0  0  0  0  0  0  0  0  0  0  0  0  # atno 6909 bound_to 6896
  146.1567  140.4725  142.8588 H   0  0  0  0  0  0  0  0  0  0  0  0  # atno 7974 bound_to 7965
  156.2534  140.2880  156.0798 H   0  0  0  0  0  0  0  0  0  0  0  0  # atno 8008 bound_to 7997
  155.1579  140.0399  157.2853 H   0  0  0  0  0  0  0  0  0  0  0  0  # atno 8009 bound_to 7997
  154.6414  140.2523  155.7324 H   0  0  0  0  0  0  0  0  0  0  0  0  # atno 8010 bound_to 7997
  140.5546  143.9448  150.6600 H   0  0  0  0  0  0  0  0  0  0  0  0  # atno 10167 bound_to 10162
  157.6524  130.9603  150.0997 H   0  0  0  0  0  0  0  0  0  0  0  0  # atno 10718 bound_to 10713
  153.9721  135.2949  155.3426 H   0  0  0  0  0  0  0  0  0  0  0  0  # atno 10763 bound_to 10752
  154.7316  135.5065  153.8976 H   0  0  0  0  0  0  0  0  0  0  0  0  # atno 10764 bound_to 10752
  153.0895  135.6703  153.9995 H   0  0  0  0  0  0  0  0  0  0  0  0  # atno 10765 bound_to 10752
  140.8693  134.2070  157.4660 H   0  0  0  0  0  0  0  0  0  0  0  0  # atno 11005 bound_to 11000
  144.7972  140.6145  143.6502 LP  0  0  0  0  0  0  0  0  0  0  0  0  # atno 17320 bound_to 7965
  145.4691  139.1505  143.3824 LP  0  0  0  0  0  0  0  0  0  0  0  0  # atno 17321 bound_to 7965
  140.2882  143.3342  152.1087 LP  0  0  0  0  0  0  0  0  0  0  0  0  # atno 17342 bound_to 10162
  139.5042  144.6771  151.6101 LP  0  0  0  0  0  0  0  0  0  0  0  0  # atno 17343 bound_to 10162
  156.1923  130.3655  149.8894 LP  0  0  0  0  0  0  0  0  0  0  0  0  # atno 17370 bound_to 10713
  156.6819  130.8861  151.3577 LP  0  0  0  0  0  0  0  0  0  0  0  0  # atno 17371 bound_to 10713
  139.8711  134.9767  156.4930 LP  0  0  0  0  0  0  0  0  0  0  0  0  # atno 17394 bound_to 11000
  140.8591  133.8073  155.9247 LP  0  0  0  0  0  0  0  0  0  0  0  0  # atno 17395 bound_to 11000

$$$$
