AV-unprocessed.smi:2809|AV-procd|sdf|10825|dock3
  -GOLD-   2272015263D 1   1.00000     0.00000
 Structure written by MMmdl.
 44 45  0  0  0  0  0  0  0  0  1 V2000
  153.0484  142.4513  160.7686 C   0  0  0  0  0  0  0  0  0  0  0  0
  151.8014  142.8097  159.9527 C   0  0  0  0  0  0  0  0  0  0  0  0
  151.6831  141.9787  158.6893 C   0  0  0  0  0  0  0  0  0  0  0  0
  150.9306  142.4501  157.5951 C   0  0  0  0  0  0  0  0  0  0  0  0
  150.8271  141.6765  156.4232 C   0  0  0  0  0  0  0  0  0  0  0  0
  151.4718  140.4267  156.3229 C   0  0  0  0  0  0  0  0  0  0  0  0
  151.3198  139.7386  155.1386 O   0  0  0  0  0  0  0  0  0  0  0  0
  151.9828  138.4894  154.9942 C   0  0  0  0  0  0  0  0  0  0  0  0
  151.0138  137.4883  154.3469 C   0  0  2  0  0  0  0  0  0  0  0  0
  150.1519  138.2274  153.5047 O   0  0  0  0  0  0  0  0  0  0  0  0
  150.1630  136.7402  155.3983 C   0  0  0  0  0  0  0  0  0  0  0  0
  150.2546  135.2784  155.2509 N   0  0  0  0  0  0  0  0  0  0  0  0
  149.1902  134.6522  154.5826 C   0  0  0  0  0  0  0  0  0  0  0  0
  149.1621  133.3726  154.3999 N   0  0  0  0  0  0  0  0  0  0  0  0
  150.2108  132.5776  154.8713 C   0  0  0  0  0  0  0  0  0  0  0  0
  150.0755  131.0887  154.6064 C   0  0  0  0  0  0  0  0  0  0  0  0
  151.2748  133.1234  155.5213 C   0  0  0  0  0  0  0  0  0  0  0  0
  152.4478  132.3083  156.0519 C   0  0  0  0  0  0  0  0  0  0  0  0
  151.3221  134.5791  155.7345 C   0  0  0  0  0  0  0  0  0  0  0  0
  152.2578  135.1412  156.3070 O   0  0  0  0  0  0  0  0  0  0  0  0
  152.2266  139.9573  157.4274 C   0  0  0  0  0  0  0  0  0  0  0  0
  152.3296  140.7297  158.6005 C   0  0  0  0  0  0  0  0  0  0  0  0
  153.1101  143.0604  161.6707 H   0  0  0  0  0  0  0  0  0  0  0  0
  153.9583  142.6175  160.1913 H   0  0  0  0  0  0  0  0  0  0  0  0
  153.0318  141.4049  161.0749 H   0  0  0  0  0  0  0  0  0  0  0  0
  150.9072  142.6639  160.5599 H   0  0  0  0  0  0  0  0  0  0  0  0
  151.8239  143.8680  159.6896 H   0  0  0  0  0  0  0  0  0  0  0  0
  150.4315  143.4065  157.6499 H   0  0  0  0  0  0  0  0  0  0  0  0
  150.2477  142.0475  155.5902 H   0  0  0  0  0  0  0  0  0  0  0  0
  152.8791  138.5940  154.3801 H   0  0  0  0  0  0  0  0  0  0  0  0
  152.2851  138.1271  155.9785 H   0  0  0  0  0  0  0  0  0  0  0  0
  151.5866  136.7927  153.7323 H   0  0  0  0  0  0  0  0  0  0  0  0
  149.8911  137.6762  152.7829 H   0  0  0  0  0  0  0  0  0  0  0  0
  150.5100  136.9987  156.4005 H   0  0  0  0  0  0  0  0  0  0  0  0
  149.1306  137.0961  155.3788 H   0  0  0  0  0  0  0  0  0  0  0  0
  148.3996  135.3170  154.2304 H   0  0  0  0  0  0  0  0  0  0  0  0
  150.0416  130.5360  155.5456 H   0  0  0  0  0  0  0  0  0  0  0  0
  150.9190  130.7262  154.0186 H   0  0  0  0  0  0  0  0  0  0  0  0
  149.1626  130.8645  154.0532 H   0  0  0  0  0  0  0  0  0  0  0  0
  153.3719  132.6201  155.5643 H   0  0  0  0  0  0  0  0  0  0  0  0
  152.3355  131.2376  155.8894 H   0  0  0  0  0  0  0  0  0  0  0  0
  152.5613  132.4654  157.1249 H   0  0  0  0  0  0  0  0  0  0  0  0
  152.7364  139.0065  157.4005 H   0  0  0  0  0  0  0  0  0  0  0  0
  152.9099  140.3605  159.4334 H   0  0  0  0  0  0  0  0  0  0  0  0
  1  2  1  0  0  0  0
  1 23  1  0  0  0  0
  1 24  1  0  0  0  0
  1 25  1  0  0  0  0
  2  3  1  0  0  0  0
  2 26  1  0  0  0  0
  2 27  1  0  0  0  0
  3 22  1  0  0  0  0
  3  4  2  0  0  0  0
  4  5  1  0  0  0  0
  4 28  1  0  0  0  0
  5  6  2  0  0  0  0
  5 29  1  0  0  0  0
  6  7  1  0  0  0  0
  6 21  1  0  0  0  0
  7  8  1  0  0  0  0
  8  9  1  0  0  0  0
  8 30  1  0  0  0  0
  8 31  1  0  0  0  0
  9 10  1  0  0  0  0
  9 11  1  0  0  0  0
  9 32  1  0  0  0  0
 10 33  1  0  0  0  0
 11 12  1  0  0  0  0
 11 34  1  0  0  0  0
 11 35  1  0  0  0  0
 12 19  1  0  0  0  0
 12 13  1  0  0  0  0
 13 14  2  0  0  0  0
 13 36  1  0  0  0  0
 14 15  1  0  0  0  0
 15 16  1  0  0  0  0
 15 17  2  0  0  0  0
 16 37  1  0  0  0  0
 16 38  1  0  0  0  0
 16 39  1  0  0  0  0
 17 18  1  0  0  0  0
 17 19  1  0  0  0  0
 18 40  1  0  0  0  0
 18 41  1  0  0  0  0
 18 42  1  0  0  0  0
 19 20  2  0  0  0  0
 21 22  2  0  0  0  0
 21 43  1  0  0  0  0
 22 44  1  0  0  0  0
M  END
> <s_m_source_file>
AV-unprocessed.smi

> <i_m_source_file_index>
2809

> <i_lp_mmshare_version>
43012

> <i_f3d_flags>
0

> <s_epik_input>
W0NIM11bQ0gyXWMxW2NIXVtjSF1jKFtjSF1bY0hdMSlPW0NIMl1bQ0BIXShbT0hdKVtDSDJdbjJbY0hdbmMoW0NIM10pYyhbQ0gzXSljMj1P

> <s_epik_cmdline>
J2VwaWtfcHl0aG9uJywgJy1waCcsICc3LjAnLCAnLXRuJywgJzgnLCAnLW1hJywgJzIwMCcsICctbWV0YWxfYmluZGluZycsICctaW1hZScsICc8aW5maWxlLm1hZT4nLCAnLW9tYWUnLCAnPG91dGZpbGUubWFlPic=

> <r_lp_tautomer_probability>
1

> <r_epik_Ionization_Penalty>
3.74127e-05

> <r_epik_Ionization_Penalty_Charging>
8.43242e-08

> <r_epik_Ionization_Penalty_Neutral>
3.73284e-05

> <r_epik_State_Penalty>
-0

> <r_epik_Charging_Adjusted_Penalty>
8.43242e-08

> <i_epik_Tot_Q>
0

> <i_epik_Tot_abs_Q>
0

> <r_epik_Metal_State_Penalty>
-0

> <b_epik_Metal_Only>
0

> <s_lp_Force_Field>
OPLS_2005

> <r_lp_Energy>
22.1893

> <b_lp_Chiralities_Consistent>
1

> <s_lp_Variant>
AV-unprocessed.smi:2809-1

> <Gold.Version>
5.8.1

> <Gold.Id.Protein>
6NUR|6NUR_protein|mol2

> <Gold.PLP.Fitness>
50.3853

> <Gold.PLP.PLP>
-44.1009

> <Gold.PLP.part.hbond>
-4.5407

> <Gold.PLP.part.metal>
0.0000

> <Gold.PLP.part.buried>
-4.6468

> <Gold.PLP.part.nonpolar>
-34.2599

> <Gold.PLP.part.repulsive>
0.1187

> <Gold.PLP.ligand.clash>
0.0000

> <Gold.PLP.ligand.torsion>
2.0061

> <Gold.PLP.Chemscore.Hbond>
2.9424

> <Gold.PLP.Chemscore.CHOScore>
0.4399

> <Gold.PLP.Chemscore.Metal>
0.0000

> <Gold.Chemscore.Hbonds>
donor molecule, donor type, donor heavy atom, donor atom, acceptor molecule, acceptor atom, score
      L1  H    10    33       P1  7948  1.00
      P1  H  7989  7998       L1     7  1.00
      P1  H 10752 10763       L1    20  0.66
      L1  C    13    36       P1  7948  0.52

> <Gold.PLP.Chemscore.Internal.Correction>
0.1495

> <Gold.Rescore>
     Score         DG    S(hbond)    S(metal)    S(lipo)     H(rot)  DE(clash)    DE(int)     intcor
     18.34     -20.28       2.52        0.00     108.37       2.47       0.02       1.92       ----

> <Gold.Chemscore.Fitness>
18.3395

> <Gold.Chemscore.DG>
-20.2802

> <Gold.Chemscore.ZeroCoef>
-5.4800

> <Gold.Chemscore.Hbond>
2.5249

> <Gold.Chemscore.Metal>
0.0000

> <Gold.Chemscore.Lipo>
108.3674

> <Gold.Chemscore.Internal_Hbond>
0.0000

> <Gold.Chemscore.DEClash>
0.0218

> <Gold.Chemscore.DEInternal>
1.9189

> <Gold.Chemscore.Rot>
2.4657

> <Gold.Chemscore.Internal.Correction>
   9.000000E+99

> <Gold.Chemscore.Hbonds>
donor molecule, donor type, donor heavy atom, donor atom, acceptor molecule, acceptor atom, score
      L1  H    10    33       P1  7948  0.25
      P1  H  7989  7998       L1     7  0.59
      P1  H 10752 10763       L1    20  0.08

> <Gold.Chemscore.Hbond.Weighted>
-8.4333

> <Gold.Chemscore.Metal.Weighted>
-0.0000

> <Gold.Chemscore.Lipo.Weighted>
-12.6790

> <Gold.Chemscore.Internal_Hbond.Weighted>
0.0000

> <Gold.Chemscore.DEClash.Weighted>
0.0218

> <Gold.Chemscore.DEInternal.Weighted>
1.9189

> <Gold.Chemscore.Rot.Weighted>
6.3121

> <Gold.Chemscore.Internal.Correction.Weighted>
   9.000000E+99

> <Gold.Protein.RotatedTorsions>
[ 6907 6896 6895 6894 ] final  167.53 input  -60.11 | X-H torsion
[ 7974 7965 7964 7962 ] final  168.64 input  175.53 | X-H torsion
[ 8008 7997 7996 7995 ] final -125.86 input   59.86 | X-H torsion
[ 10167 10162 10161 10158 ] final  -74.47 input  -65.29 | X-H torsion
[ 10718 10713 10712 10709 ] final  -36.44 input   66.30 | X-H torsion
[ 10763 10752 10751 10750 ] final   82.29 input  -60.55 | X-H torsion
[ 11005 11000 10999 10996 ] final -100.30 input  -57.11 | X-H torsion

> <Gold.Protein.ActiveResidues>
 VAL166  LYS551  ARG553  GLY616  TRP617  ASP618  TYR619  PRO620  LYS621  CYS622 
 ASP623  PHE694  ASN695  SER759  ASP760  ASP761  ALA762  ILE779  LEU786  VAL792 
 PHE793  MET794  SER795  GLU796  ALA797  LYS798  CYS799  TRP800  GLU811  SER814 

> <Gold.Protein.RotatedAtoms>
  151.8618  133.3458  159.3706 H   0  0  0  0  0  0  0  0  0  0  0  0  # atno 6907 bound_to 6896
  150.7177  134.5199  159.5657 H   0  0  0  0  0  0  0  0  0  0  0  0  # atno 6908 bound_to 6896
  152.2714  134.7929  160.0464 H   0  0  0  0  0  0  0  0  0  0  0  0  # atno 6909 bound_to 6896
  144.7381  139.8938  143.6405 H   0  0  0  0  0  0  0  0  0  0  0  0  # atno 7974 bound_to 7965
  155.2202  140.0421  157.2947 H   0  0  0  0  0  0  0  0  0  0  0  0  # atno 8008 bound_to 7997
  154.5955  140.2438  155.7834 H   0  0  0  0  0  0  0  0  0  0  0  0  # atno 8009 bound_to 7997
  156.2287  140.2946  156.0141 H   0  0  0  0  0  0  0  0  0  0  0  0  # atno 8010 bound_to 7997
  140.5024  143.2359  151.7730 H   0  0  0  0  0  0  0  0  0  0  0  0  # atno 10167 bound_to 10162
  156.3269  130.4273  149.7908 H   0  0  0  0  0  0  0  0  0  0  0  0  # atno 10718 bound_to 10713
  153.1190  135.4734  154.9164 H   0  0  0  0  0  0  0  0  0  0  0  0  # atno 10763 bound_to 10752
  154.7557  135.3118  154.8477 H   0  0  0  0  0  0  0  0  0  0  0  0  # atno 10764 bound_to 10752
  153.9046  135.6871  153.4807 H   0  0  0  0  0  0  0  0  0  0  0  0  # atno 10765 bound_to 10752
  141.1276  133.8388  157.1085 H   0  0  0  0  0  0  0  0  0  0  0  0  # atno 11005 bound_to 11000
  146.1122  139.4129  143.0280 LP  0  0  0  0  0  0  0  0  0  0  0  0  # atno 17320 bound_to 7965
  145.7426  141.0002  143.1293 LP  0  0  0  0  0  0  0  0  0  0  0  0  # atno 17321 bound_to 7965
  139.4875  144.4503  151.9661 LP  0  0  0  0  0  0  0  0  0  0  0  0  # atno 17342 bound_to 10162
  140.3593  144.2993  150.5936 LP  0  0  0  0  0  0  0  0  0  0  0  0  # atno 17343 bound_to 10162
  156.5196  130.8209  151.3198 LP  0  0  0  0  0  0  0  0  0  0  0  0  # atno 17370 bound_to 10713
  157.7423  130.9887  150.2505 LP  0  0  0  0  0  0  0  0  0  0  0  0  # atno 17371 bound_to 10713
  140.0290  134.9910  157.0742 LP  0  0  0  0  0  0  0  0  0  0  0  0  # atno 17394 bound_to 11000
  140.4316  134.1774  155.7168 LP  0  0  0  0  0  0  0  0  0  0  0  0  # atno 17395 bound_to 11000

$$$$
