AV-unprocessed.smi:2309|AV-procd|sdf|9253|dock5
  -GOLD-   2272012473D 1   1.00000     0.00000
 Structure written by MMmdl.
 34 35  0  0  0  0  0  0  0  0  1 V2000
  148.4260  138.9750  153.5832 C   0  0  0  0  0  0  0  0  0  0  0  0
  149.3590  139.7731  154.4768 C   0  0  0  0  0  0  0  0  0  0  0  0
  148.9178  141.0546  154.8185 N   0  0  0  0  0  0  0  0  0  0  0  0
  149.6478  141.8068  155.5750 C   0  0  0  0  0  0  0  0  0  0  0  0
  150.8875  141.3723  156.0740 N   0  0  0  0  0  0  0  0  0  0  0  0
  151.6228  142.3285  156.9199 C   0  0  0  0  0  0  0  0  0  0  0  0
  150.7786  142.8271  158.1145 C   0  0  2  0  0  0  0  0  0  0  0  0
  150.1773  144.0593  157.7654 O   0  0  0  0  0  0  0  0  0  0  0  0
  151.6401  142.9495  159.3705 C   0  0  0  0  0  0  0  0  0  0  0  0
  152.5205  141.9013  159.7272 C   0  0  0  0  0  0  0  0  0  0  0  0
  153.3149  141.9927  160.8857 C   0  0  0  0  0  0  0  0  0  0  0  0
  154.3847  140.7048  161.3021 Cl  0  0  0  0  0  0  0  0  0  0  0  0
  153.2340  143.1331  161.7051 C   0  0  0  0  0  0  0  0  0  0  0  0
  152.3527  144.1764  161.3676 C   0  0  0  0  0  0  0  0  0  0  0  0
  151.5534  144.0894  160.2100 C   0  0  0  0  0  0  0  0  0  0  0  0
  150.4691  145.3910  159.8618 Cl  0  0  0  0  0  0  0  0  0  0  0  0
  151.3923  140.1372  155.7889 C   0  0  0  0  0  0  0  0  0  0  0  0
  152.4808  139.7635  156.2296 O   0  0  0  0  0  0  0  0  0  0  0  0
  150.5504  139.2923  154.9260 C   0  0  0  0  0  0  0  0  0  0  0  0
  151.0826  137.9058  154.5852 C   0  0  0  0  0  0  0  0  0  0  0  0
  148.9281  138.6977  152.6559 H   0  0  0  0  0  0  0  0  0  0  0  0
  147.5372  139.5507  153.3216 H   0  0  0  0  0  0  0  0  0  0  0  0
  148.0982  138.0664  154.0891 H   0  0  0  0  0  0  0  0  0  0  0  0
  149.3522  142.8161  155.8669 H   0  0  0  0  0  0  0  0  0  0  0  0
  152.5173  141.8292  157.2988 H   0  0  0  0  0  0  0  0  0  0  0  0
  152.0141  143.1714  156.3472 H   0  0  0  0  0  0  0  0  0  0  0  0
  149.9584  142.1378  158.3124 H   0  0  0  0  0  0  0  0  0  0  0  0
  150.0361  144.0711  156.8311 H   0  0  0  0  0  0  0  0  0  0  0  0
  152.5891  141.0141  159.1146 H   0  0  0  0  0  0  0  0  0  0  0  0
  153.8417  143.2066  162.5950 H   0  0  0  0  0  0  0  0  0  0  0  0
  152.2867  145.0466  162.0043 H   0  0  0  0  0  0  0  0  0  0  0  0
  151.2485  137.3316  155.4974 H   0  0  0  0  0  0  0  0  0  0  0  0
  152.0343  137.9877  154.0591 H   0  0  0  0  0  0  0  0  0  0  0  0
  150.4078  137.3294  153.9544 H   0  0  0  0  0  0  0  0  0  0  0  0
  1  2  1  0  0  0  0
  1 21  1  0  0  0  0
  1 22  1  0  0  0  0
  1 23  1  0  0  0  0
  2 19  2  0  0  0  0
  2  3  1  0  0  0  0
  3  4  2  0  0  0  0
  4  5  1  0  0  0  0
  4 24  1  0  0  0  0
  5  6  1  0  0  0  0
  5 17  1  0  0  0  0
  6  7  1  0  0  0  0
  6 25  1  0  0  0  0
  6 26  1  0  0  0  0
  7  8  1  0  0  0  0
  7  9  1  0  0  0  0
  7 27  1  0  0  0  0
  8 28  1  0  0  0  0
  9 15  1  0  0  0  0
  9 10  2  0  0  0  0
 10 11  1  0  0  0  0
 10 29  1  0  0  0  0
 11 12  1  0  0  0  0
 11 13  2  0  0  0  0
 13 14  1  0  0  0  0
 13 30  1  0  0  0  0
 14 15  2  0  0  0  0
 14 31  1  0  0  0  0
 15 16  1  0  0  0  0
 17 18  2  0  0  0  0
 17 19  1  0  0  0  0
 19 20  1  0  0  0  0
 20 32  1  0  0  0  0
 20 33  1  0  0  0  0
 20 34  1  0  0  0  0
M  END
> <s_m_source_file>
AV-unprocessed.smi

> <i_m_source_file_index>
2309

> <i_lp_mmshare_version>
43012

> <i_f3d_flags>
0

> <s_epik_input>
W0NIM11jMW5bY0hdbihjKD1PKWMxW0NIM10pW0NIMl1bQ0BIXShbT0hdKWMyW2NIXWMoQ2wpW2NIXVtjSF1jMkNs

> <s_epik_cmdline>
J2VwaWtfcHl0aG9uJywgJy1waCcsICc3LjAnLCAnLXRuJywgJzgnLCAnLW1hJywgJzIwMCcsICctbWV0YWxfYmluZGluZycsICctaW1hZScsICc8aW5maWxlLm1hZT4nLCAnLW9tYWUnLCAnPG91dGZpbGUubWFlPic=

> <r_lp_tautomer_probability>
1

> <r_epik_Ionization_Penalty>
5.09224e-05

> <r_epik_Ionization_Penalty_Charging>
7.56727e-08

> <r_epik_Ionization_Penalty_Neutral>
5.08468e-05

> <r_epik_State_Penalty>
-0

> <r_epik_Charging_Adjusted_Penalty>
7.56727e-08

> <i_epik_Tot_Q>
0

> <i_epik_Tot_abs_Q>
0

> <r_epik_Metal_State_Penalty>
-0

> <b_epik_Metal_Only>
0

> <s_lp_Force_Field>
OPLS_2005

> <r_lp_Energy>
19.5674

> <b_lp_Chiralities_Consistent>
1

> <s_lp_Variant>
AV-unprocessed.smi:2309-1

> <Gold.Version>
5.8.1

> <Gold.Id.Protein>
6NUR|6NUR_protein|mol2

> <Gold.PLP.Fitness>
52.0704

> <Gold.PLP.PLP>
-44.7889

> <Gold.PLP.part.hbond>
-3.0000

> <Gold.PLP.part.metal>
0.0000

> <Gold.PLP.part.buried>
-1.2638

> <Gold.PLP.part.nonpolar>
-40.3396

> <Gold.PLP.part.repulsive>
0.1128

> <Gold.PLP.ligand.clash>
0.0000

> <Gold.PLP.ligand.torsion>
0.8640

> <Gold.PLP.Chemscore.Hbond>
2.0000

> <Gold.PLP.Chemscore.CHOScore>
1.0000

> <Gold.PLP.Chemscore.Metal>
0.0000

> <Gold.Chemscore.Hbonds>
donor molecule, donor type, donor heavy atom, donor atom, acceptor molecule, acceptor atom, score
      L1  H     8    28       P1  8028  0.77
      P1  H  7997  8009       L1    18  1.00
      L1  C     4    24       P1  8028  0.85

> <Gold.PLP.Chemscore.Internal.Correction>
0.0094

> <Gold.Rescore>
     Score         DG    S(hbond)    S(metal)    S(lipo)     H(rot)  DE(clash)    DE(int)     intcor
     17.02     -20.54       1.66        0.00     123.34       1.93       1.04       2.47       ----

> <Gold.Chemscore.Fitness>
17.0249

> <Gold.Chemscore.DG>
-20.5402

> <Gold.Chemscore.ZeroCoef>
-5.4800

> <Gold.Chemscore.Hbond>
1.6649

> <Gold.Chemscore.Metal>
0.0000

> <Gold.Chemscore.Lipo>
123.3426

> <Gold.Chemscore.Internal_Hbond>
0.0000

> <Gold.Chemscore.DEClash>
1.0422

> <Gold.Chemscore.DEInternal>
2.4730

> <Gold.Chemscore.Rot>
1.9265

> <Gold.Chemscore.Internal.Correction>
   9.000000E+99

> <Gold.Chemscore.Hbonds>
donor molecule, donor type, donor heavy atom, donor atom, acceptor molecule, acceptor atom, score
      L1  H     8    28       P1  8028  0.73
      P1  H  7997  8009       L1    18  1.00

> <Gold.Chemscore.Hbond.Weighted>
-5.5608

> <Gold.Chemscore.Metal.Weighted>
-0.0000

> <Gold.Chemscore.Lipo.Weighted>
-14.4311

> <Gold.Chemscore.Internal_Hbond.Weighted>
0.0000

> <Gold.Chemscore.DEClash.Weighted>
1.0422

> <Gold.Chemscore.DEInternal.Weighted>
2.4730

> <Gold.Chemscore.Rot.Weighted>
4.9317

> <Gold.Chemscore.Internal.Correction.Weighted>
   9.000000E+99

> <Gold.Protein.RotatedTorsions>
[ 6907 6896 6895 6894 ] final  -89.43 input  -60.11 | X-H torsion
[ 7974 7965 7964 7962 ] final  142.02 input  175.53 | X-H torsion
[ 8008 7997 7996 7995 ] final -169.53 input   59.86 | X-H torsion
[ 10167 10162 10161 10158 ] final  142.51 input  -65.29 | X-H torsion
[ 10718 10713 10712 10709 ] final -139.33 input   66.30 | X-H torsion
[ 10763 10752 10751 10750 ] final -159.70 input  -60.55 | X-H torsion
[ 11005 11000 10999 10996 ] final  108.28 input  -57.11 | X-H torsion

> <Gold.Protein.ActiveResidues>
 VAL166  LYS551  ARG553  GLY616  TRP617  ASP618  TYR619  PRO620  LYS621  CYS622 
 ASP623  PHE694  ASN695  SER759  ASP760  ASP761  ALA762  ILE779  LEU786  VAL792 
 PHE793  MET794  SER795  GLU796  ALA797  LYS798  CYS799  TRP800  GLU811  SER814 

> <Gold.Protein.RotatedAtoms>
  150.6874  134.2588  159.4540 H   0  0  0  0  0  0  0  0  0  0  0  0  # atno 6907 bound_to 6896
  152.0520  134.9645  160.0584 H   0  0  0  0  0  0  0  0  0  0  0  0  # atno 6908 bound_to 6896
  152.1106  133.4264  159.4666 H   0  0  0  0  0  0  0  0  0  0  0  0  # atno 6909 bound_to 6896
  144.9044  139.5378  143.5738 H   0  0  0  0  0  0  0  0  0  0  0  0  # atno 7974 bound_to 7965
  155.9062  140.1049  157.1314 H   0  0  0  0  0  0  0  0  0  0  0  0  # atno 8008 bound_to 7997
  154.4033  140.1283  156.4563 H   0  0  0  0  0  0  0  0  0  0  0  0  # atno 8009 bound_to 7997
  155.7365  140.3467  155.5086 H   0  0  0  0  0  0  0  0  0  0  0  0  # atno 8010 bound_to 7997
  139.4992  144.6102  151.6289 H   0  0  0  0  0  0  0  0  0  0  0  0  # atno 10167 bound_to 10162
  156.3095  130.7474  151.1546 H   0  0  0  0  0  0  0  0  0  0  0  0  # atno 10718 bound_to 10713
  154.7452  135.3078  154.8657 H   0  0  0  0  0  0  0  0  0  0  0  0  # atno 10763 bound_to 10752
  153.9460  135.6769  153.4748 H   0  0  0  0  0  0  0  0  0  0  0  0  # atno 10764 bound_to 10752
  153.1049  135.4894  154.8859 H   0  0  0  0  0  0  0  0  0  0  0  0  # atno 10765 bound_to 10752
  139.8841  134.9426  156.5949 H   0  0  0  0  0  0  0  0  0  0  0  0  # atno 11005 bound_to 11000
  146.3126  139.7801  142.9008 LP  0  0  0  0  0  0  0  0  0  0  0  0  # atno 17320 bound_to 7965
  145.3560  141.0317  143.3311 LP  0  0  0  0  0  0  0  0  0  0  0  0  # atno 17321 bound_to 7965
  140.5774  144.0005  150.6249 LP  0  0  0  0  0  0  0  0  0  0  0  0  # atno 17342 bound_to 10162
  140.3142  143.3178  152.0848 LP  0  0  0  0  0  0  0  0  0  0  0  0  # atno 17343 bound_to 10162
  157.7387  131.0537  150.5275 LP  0  0  0  0  0  0  0  0  0  0  0  0  # atno 17370 bound_to 10713
  156.5413  130.4208  149.6153 LP  0  0  0  0  0  0  0  0  0  0  0  0  # atno 17371 bound_to 10713
  140.7927  133.8569  155.8660 LP  0  0  0  0  0  0  0  0  0  0  0  0  # atno 17394 bound_to 11000
  140.9662  134.1590  157.4614 LP  0  0  0  0  0  0  0  0  0  0  0  0  # atno 17395 bound_to 11000

$$$$
