AV-unprocessed.smi:243|AV-procd|sdf|1852|dock4
  -GOLD-   2262020473D 1   1.00000     0.00000
 Structure written by MMmdl.
 58 61  0  0  0  0  0  0  0  0  2 V2000
  145.7674  132.6691  151.7110 C   0  0  0  0  0  0  0  0  0  0  0  0
  145.7887  132.2022  153.1771 C   0  0  0  0  0  0  0  0  0  0  0  0
  146.7747  132.9127  154.0317 N   0  3  2  0  0  0  0  0  0  0  0  0
  146.3971  134.3100  154.3604 C   0  0  0  0  0  0  0  0  0  0  0  0
  147.3124  134.8661  155.4604 C   0  0  0  0  0  0  0  0  0  0  0  0
  148.7964  134.7654  155.0349 C   0  0  1  0  0  0  0  0  0  0  0  0
  149.7592  135.4196  155.9361 N   0  0  0  0  0  0  0  0  0  0  0  0
  149.9186  134.9204  157.2973 C   0  0  0  0  0  0  0  0  0  0  0  0
  150.3802  136.5961  155.6569 C   0  0  0  0  0  0  0  0  0  0  0  0
  151.4363  136.6181  154.8037 N   0  0  0  0  0  0  0  0  0  0  0  0
  152.0486  137.7682  154.5093 C   0  0  0  0  0  0  0  0  0  0  0  0
  151.7722  138.9958  154.9505 N   0  0  0  0  0  0  0  0  0  0  0  0
  150.7124  138.9850  155.8081 C   0  0  0  0  0  0  0  0  0  0  0  0
  149.9617  137.8421  156.2063 C   0  0  0  0  0  0  0  0  0  0  0  0
  148.9594  138.2233  157.0909 N   0  0  0  0  0  0  0  0  0  0  0  0
  149.1066  139.5147  157.2055 C   0  0  0  0  0  0  0  0  0  0  0  0
  150.1434  140.0537  156.4784 N   0  0  0  0  0  0  0  0  0  0  0  0
  150.5418  141.4520  156.4321 C   0  0  0  0  0  0  0  0  0  0  0  0
  150.8325  142.0534  157.8274 C   0  0  2  0  0  0  0  0  0  0  0  0
  149.6153  142.1742  158.5426 O   0  0  0  0  0  0  0  0  0  0  0  0
  151.5077  143.4223  157.7897 C   0  0  0  0  0  0  0  0  0  0  0  0
  152.3837  143.4046  159.0344 C   0  0  0  0  0  0  0  0  0  0  0  0
  152.8702  142.0739  159.0466 O   0  0  0  0  0  0  0  0  0  0  0  0
  151.8089  141.2043  158.6662 C   0  0  0  0  0  0  0  0  0  0  0  0
  149.1743  133.3160  154.6212 C   0  0  1  0  0  0  0  0  0  0  0  0
  149.3042  132.3160  155.7842 C   0  0  0  0  0  0  0  0  0  0  0  0
  148.1788  132.8050  153.5574 C   0  0  0  0  0  0  0  0  0  0  0  0
  145.0224  132.1081  151.1466 H   0  0  0  0  0  0  0  0  0  0  0  0
  146.7275  132.5124  151.2197 H   0  0  0  0  0  0  0  0  0  0  0  0
  145.5085  133.7241  151.6232 H   0  0  0  0  0  0  0  0  0  0  0  0
  144.7965  132.3270  153.6121 H   0  0  0  0  0  0  0  0  0  0  0  0
  146.0002  131.1330  153.2146 H   0  0  0  0  0  0  0  0  0  0  0  0
  146.4635  134.9369  153.4706 H   0  0  0  0  0  0  0  0  0  0  0  0
  145.3607  134.3423  154.6985 H   0  0  0  0  0  0  0  0  0  0  0  0
  147.0500  135.9050  155.6641 H   0  0  0  0  0  0  0  0  0  0  0  0
  147.1164  134.3100  156.3755 H   0  0  0  0  0  0  0  0  0  0  0  0
  148.8666  135.3584  154.1215 H   0  0  0  0  0  0  0  0  0  0  0  0
  149.8767  135.7364  158.0196 H   0  0  0  0  0  0  0  0  0  0  0  0
  150.8746  134.4094  157.4086 H   0  0  0  0  0  0  0  0  0  0  0  0
  149.1365  134.2069  157.5545 H   0  0  0  0  0  0  0  0  0  0  0  0
  152.8788  137.6947  153.8225 H   0  0  0  0  0  0  0  0  0  0  0  0
  148.4634  140.1117  157.8356 H   0  0  0  0  0  0  0  0  0  0  0  0
  151.4193  141.5416  155.7901 H   0  0  0  0  0  0  0  0  0  0  0  0
  149.7459  142.0134  155.9409 H   0  0  0  0  0  0  0  0  0  0  0  0
  149.7444  141.8351  159.4150 H   0  0  0  0  0  0  0  0  0  0  0  0
  152.1519  143.5015  156.9131 H   0  0  0  0  0  0  0  0  0  0  0  0
  150.8092  144.2599  157.7652 H   0  0  0  0  0  0  0  0  0  0  0  0
  153.1953  144.1310  158.9915 H   0  0  0  0  0  0  0  0  0  0  0  0
  151.7952  143.5925  159.9338 H   0  0  0  0  0  0  0  0  0  0  0  0
  151.3351  140.7970  159.5611 H   0  0  0  0  0  0  0  0  0  0  0  0
  152.2188  140.3643  158.1047 H   0  0  0  0  0  0  0  0  0  0  0  0
  150.1512  133.3466  154.1383 H   0  0  0  0  0  0  0  0  0  0  0  0
  148.3862  132.2460  156.3673 H   0  0  0  0  0  0  0  0  0  0  0  0
  150.1136  132.5986  156.4570 H   0  0  0  0  0  0  0  0  0  0  0  0
  149.5361  131.3165  155.4159 H   0  0  0  0  0  0  0  0  0  0  0  0
  148.4062  131.7692  153.3014 H   0  0  0  0  0  0  0  0  0  0  0  0
  148.2980  133.3852  152.6416 H   0  0  0  0  0  0  0  0  0  0  0  0
  146.7548  132.4188  154.9127 H   0  0  0  0  0  0  0  0  0  0  0  0
  1  2  1  0  0  0  0
  1 28  1  0  0  0  0
  1 29  1  0  0  0  0
  1 30  1  0  0  0  0
  2  3  1  0  0  0  0
  2 31  1  0  0  0  0
  2 32  1  0  0  0  0
  3 27  1  0  0  0  0
  3  4  1  0  0  0  0
  3 58  1  0  0  0  0
  4  5  1  0  0  0  0
  4 33  1  0  0  0  0
  4 34  1  0  0  0  0
  5  6  1  0  0  0  0
  5 35  1  0  0  0  0
  5 36  1  0  0  0  0
  6  7  1  0  0  0  0
  6 25  1  0  0  0  0
  6 37  1  0  0  0  0
  7  8  1  0  0  0  0
  7  9  1  0  0  0  0
  8 38  1  0  0  0  0
  8 39  1  0  0  0  0
  8 40  1  0  0  0  0
  9 14  1  0  0  0  0
  9 10  2  0  0  0  0
 10 11  1  0  0  0  0
 11 12  2  0  0  0  0
 11 41  1  0  0  0  0
 12 13  1  0  0  0  0
 13 17  1  0  0  0  0
 13 14  2  0  0  0  0
 14 15  1  0  0  0  0
 15 16  2  0  0  0  0
 16 17  1  0  0  0  0
 16 42  1  0  0  0  0
 17 18  1  0  0  0  0
 18 19  1  0  0  0  0
 18 43  1  0  0  0  0
 18 44  1  0  0  0  0
 19 24  1  0  0  0  0
 19 20  1  0  0  0  0
 19 21  1  0  0  0  0
 20 45  1  0  0  0  0
 21 22  1  0  0  0  0
 21 46  1  0  0  0  0
 21 47  1  0  0  0  0
 22 23  1  0  0  0  0
 22 48  1  0  0  0  0
 22 49  1  0  0  0  0
 23 24  1  0  0  0  0
 24 50  1  0  0  0  0
 24 51  1  0  0  0  0
 25 26  1  0  0  0  0
 25 27  1  0  0  0  0
 25 52  1  0  0  0  0
 26 53  1  0  0  0  0
 26 54  1  0  0  0  0
 26 55  1  0  0  0  0
 27 56  1  0  0  0  0
 27 57  1  0  0  0  0
M  CHG  1   3   1
M  END
> <s_m_source_file>
AV-unprocessed.smi

> <i_m_source_file_index>
243

> <i_lp_mmshare_version>
43012

> <i_f3d_flags>
0

> <s_epik_input>
W0NIM11bQ0gyXU4xW0NIMl1bQ0gyXVtDQEhdKFtDQEBIXShbQ0gzXSlbQ0gyXTEpTihbQ0gzXSljKG5bY0hdbjIpYyhjMjMpbltjSF1uM1tDSDJdW0NAQF00KFtPSF0pW0NIMl1bQ0gyXU9bQ0gyXTQ=

> <s_epik_cmdline>
J2VwaWtfcHl0aG9uJywgJy1waCcsICc3LjAnLCAnLXRuJywgJzgnLCAnLW1hJywgJzIwMCcsICctbWV0YWxfYmluZGluZycsICctaW1hZScsICc8aW5maWxlLm1hZT4nLCAnLW9tYWUnLCAnPG91dGZpbGUubWFlPic=

> <r_lp_tautomer_probability>
1

> <r_epik_Ionization_Penalty>
0.00253099

> <r_epik_Ionization_Penalty_Charging>
0.00137877

> <r_epik_Ionization_Penalty_Neutral>
0.00115221

> <r_epik_State_Penalty>
-0

> <r_epik_Charging_Adjusted_Penalty>
0.00137877

> <i_epik_Tot_Q>
1

> <i_epik_Tot_abs_Q>
1

> <r_epik_Metal_State_Penalty>
-0

> <b_epik_Metal_Only>
0

> <s_lp_Force_Field>
OPLS_2005

> <r_lp_Energy>
49.3868

> <b_lp_Chiralities_Consistent>
1

> <s_lp_Variant>
AV-unprocessed.smi:243-5

> <Gold.Version>
5.8.1

> <Gold.Id.Protein>
6NUR|6NUR_protein|mol2

> <Gold.PLP.Fitness>
44.9326

> <Gold.PLP.PLP>
-41.9253

> <Gold.PLP.part.hbond>
-2.1472

> <Gold.PLP.part.metal>
0.0000

> <Gold.PLP.part.buried>
-5.8202

> <Gold.PLP.part.nonpolar>
-34.4404

> <Gold.PLP.part.repulsive>
0.3357

> <Gold.PLP.ligand.clash>
0.0000

> <Gold.PLP.ligand.torsion>
1.6472

> <Gold.PLP.Chemscore.Hbond>
1.9760

> <Gold.PLP.Chemscore.CHOScore>
0.0000

> <Gold.PLP.Chemscore.Metal>
0.0000

> <Gold.Chemscore.Hbonds>
donor molecule, donor type, donor heavy atom, donor atom, acceptor molecule, acceptor atom, score
      P1  H  7989  7998       L1    12  0.16
      P1  H 10752 10763       L1    10  0.75

> <Gold.PLP.Chemscore.Internal.Correction>
0.3737

> <Gold.Rescore>
     Score         DG    S(hbond)    S(metal)    S(lipo)     H(rot)  DE(clash)    DE(int)     intcor
     13.54     -15.78       1.71        0.00      88.23       2.24       0.02       2.22       ----

> <Gold.Chemscore.Fitness>
13.5415

> <Gold.Chemscore.DG>
-15.7812

> <Gold.Chemscore.ZeroCoef>
-5.4800

> <Gold.Chemscore.Hbond>
1.7088

> <Gold.Chemscore.Metal>
0.0000

> <Gold.Chemscore.Lipo>
88.2311

> <Gold.Chemscore.Internal_Hbond>
0.0000

> <Gold.Chemscore.DEClash>
0.0243

> <Gold.Chemscore.DEInternal>
2.2154

> <Gold.Chemscore.Rot>
2.2379

> <Gold.Chemscore.Internal.Correction>
   9.000000E+99

> <Gold.Chemscore.Hbonds>
donor molecule, donor type, donor heavy atom, donor atom, acceptor molecule, acceptor atom, score
      P1  H  7989  7998       L1    12  0.15
      P1  H 10752 10763       L1    10  0.09

> <Gold.Chemscore.Hbond.Weighted>
-5.7073

> <Gold.Chemscore.Metal.Weighted>
-0.0000

> <Gold.Chemscore.Lipo.Weighted>
-10.3230

> <Gold.Chemscore.Internal_Hbond.Weighted>
0.0000

> <Gold.Chemscore.DEClash.Weighted>
0.0243

> <Gold.Chemscore.DEInternal.Weighted>
2.2154

> <Gold.Chemscore.Rot.Weighted>
5.7291

> <Gold.Chemscore.Internal.Correction.Weighted>
   9.000000E+99

> <Gold.Protein.RotatedTorsions>
[ 6907 6896 6895 6894 ] final   59.85 input  -60.11 | X-H torsion
[ 7974 7965 7964 7962 ] final  -22.48 input  175.53 | X-H torsion
[ 8008 7997 7996 7995 ] final   57.30 input   59.86 | X-H torsion
[ 10167 10162 10161 10158 ] final  -96.42 input  -65.29 | X-H torsion
[ 10718 10713 10712 10709 ] final   57.94 input   66.30 | X-H torsion
[ 10763 10752 10751 10750 ] final   59.53 input  -60.55 | X-H torsion
[ 11005 11000 10999 10996 ] final  119.25 input  -57.11 | X-H torsion

> <Gold.Protein.ActiveResidues>
 VAL166  LYS551  ARG553  GLY616  TRP617  ASP618  TYR619  PRO620  LYS621  CYS622 
 ASP623  PHE694  ASN695  SER759  ASP760  ASP761  ALA762  ILE779  LEU786  VAL792 
 PHE793  MET794  SER795  GLU796  ALA797  LYS798  CYS799  TRP800  GLU811  SER814 

> <Gold.Protein.RotatedAtoms>
  152.3951  134.6378  160.0091 H   0  0  0  0  0  0  0  0  0  0  0  0  # atno 6907 bound_to 6896
  151.6600  133.3312  159.3180 H   0  0  0  0  0  0  0  0  0  0  0  0  # atno 6908 bound_to 6896
  150.7860  134.6889  159.6530 H   0  0  0  0  0  0  0  0  0  0  0  0  # atno 6909 bound_to 6896
  146.1673  140.4484  142.8547 H   0  0  0  0  0  0  0  0  0  0  0  0  # atno 7974 bound_to 7965
  155.5315  140.3482  155.4427 H   0  0  0  0  0  0  0  0  0  0  0  0  # atno 8008 bound_to 7997
  156.0715  140.1364  156.9849 H   0  0  0  0  0  0  0  0  0  0  0  0  # atno 8009 bound_to 7997
  154.4530  140.0965  156.6651 H   0  0  0  0  0  0  0  0  0  0  0  0  # atno 8010 bound_to 7997
  140.2939  143.3204  152.0317 H   0  0  0  0  0  0  0  0  0  0  0  0  # atno 10167 bound_to 10162
  157.5556  130.8797  149.9030 H   0  0  0  0  0  0  0  0  0  0  0  0  # atno 10718 bound_to 10713
  152.9897  135.5568  154.5728 H   0  0  0  0  0  0  0  0  0  0  0  0  # atno 10763 bound_to 10752
  154.5125  135.2803  155.1333 H   0  0  0  0  0  0  0  0  0  0  0  0  # atno 10764 bound_to 10752
  154.2719  135.6361  153.5366 H   0  0  0  0  0  0  0  0  0  0  0  0  # atno 10765 bound_to 10752
  139.9139  134.9627  156.7626 H   0  0  0  0  0  0  0  0  0  0  0  0  # atno 11005 bound_to 11000
  144.8111  140.6387  143.6414 LP  0  0  0  0  0  0  0  0  0  0  0  0  # atno 17320 bound_to 7965
  145.4433  139.1533  143.3958 LP  0  0  0  0  0  0  0  0  0  0  0  0  # atno 17321 bound_to 7965
  139.4931  144.6505  151.6686 LP  0  0  0  0  0  0  0  0  0  0  0  0  # atno 17342 bound_to 10162
  140.5708  144.0111  150.6216 LP  0  0  0  0  0  0  0  0  0  0  0  0  # atno 17343 bound_to 10162
  156.0615  130.3699  150.0971 LP  0  0  0  0  0  0  0  0  0  0  0  0  # atno 17370 bound_to 10713
  156.9140  130.9661  151.3558 LP  0  0  0  0  0  0  0  0  0  0  0  0  # atno 17371 bound_to 10713
  140.6685  133.9581  155.7843 LP  0  0  0  0  0  0  0  0  0  0  0  0  # atno 17394 bound_to 11000
  141.0594  134.0369  157.3679 LP  0  0  0  0  0  0  0  0  0  0  0  0  # atno 17395 bound_to 11000

$$$$
