AV-unprocessed.smi:618|AV-procd|sdf|3076|dock10
  -GOLD-   22720 0 03D 1   1.00000     0.00000
 Structure written by MMmdl.
 41 43  0  0  0  0  0  0  0  0  2 V2000
  146.4667  138.9557  154.5544 O   0  0  0  0  0  0  0  0  0  0  0  0
  147.1879  138.3459  153.7653 C   0  0  0  0  0  0  0  0  0  0  0  0
  146.7248  137.4336  152.8996 N   0  0  0  0  0  0  0  0  0  0  0  0
  145.3247  137.0478  152.7599 C   0  0  0  0  0  0  0  0  0  0  0  0
  145.1761  135.6192  152.2070 C   0  0  2  0  0  0  0  0  0  0  0  0
  145.7422  135.4924  150.7800 C   0  0  0  0  0  0  0  0  0  0  0  0
  145.4831  134.1533  150.2010 N   0  3  1  0  0  0  0  0  0  0  0  0
  146.3969  133.0666  150.6179 C   0  0  0  0  0  0  0  0  0  0  0  0
  145.5713  131.7710  150.5821 C   0  0  0  0  0  0  0  0  0  0  0  0
  144.1915  132.1796  150.0553 C   0  0  0  0  0  0  0  0  0  0  0  0
  144.0967  133.6727  150.3728 C   0  0  1  0  0  0  0  0  0  0  0  0
  143.5823  133.9337  151.8068 C   0  0  0  0  0  0  0  0  0  0  0  0
  143.7917  135.2920  152.1660 O   0  0  0  0  0  0  0  0  0  0  0  0
  148.5201  138.4847  153.6581 N   0  0  0  0  0  0  0  0  0  0  0  0
  149.3805  139.3592  154.3755 C   0  0  0  0  0  0  0  0  0  0  0  0
  148.8219  140.5333  154.9214 C   0  0  0  0  0  0  0  0  0  0  0  0
  149.6453  141.4102  155.6526 C   0  0  0  0  0  0  0  0  0  0  0  0
  151.0022  141.0720  155.8185 C   0  0  0  0  0  0  0  0  0  0  0  0
  151.5506  139.9457  155.3163 N   0  0  0  0  0  0  0  0  0  0  0  0
  150.7553  139.1101  154.6139 C   0  0  0  0  0  0  0  0  0  0  0  0
  147.3863  136.9765  152.2889 H   0  0  0  0  0  0  0  0  0  0  0  0
  144.8480  137.1241  153.7376 H   0  0  0  0  0  0  0  0  0  0  0  0
  144.8144  137.7610  152.1102 H   0  0  0  0  0  0  0  0  0  0  0  0
  145.6975  134.9262  152.8694 H   0  0  0  0  0  0  0  0  0  0  0  0
  145.2651  136.2315  150.1351 H   0  0  0  0  0  0  0  0  0  0  0  0
  146.8118  135.7045  150.7608 H   0  0  0  0  0  0  0  0  0  0  0  0
  147.2509  133.0237  149.9414 H   0  0  0  0  0  0  0  0  0  0  0  0
  146.7809  133.2365  151.6246 H   0  0  0  0  0  0  0  0  0  0  0  0
  146.0320  131.0048  149.9578 H   0  0  0  0  0  0  0  0  0  0  0  0
  145.4821  131.3618  151.5893 H   0  0  0  0  0  0  0  0  0  0  0  0
  144.1596  132.0356  148.9743 H   0  0  0  0  0  0  0  0  0  0  0  0
  143.3799  131.5943  150.4892 H   0  0  0  0  0  0  0  0  0  0  0  0
  143.4469  134.1842  149.6616 H   0  0  0  0  0  0  0  0  0  0  0  0
  142.5163  133.7137  151.8655 H   0  0  0  0  0  0  0  0  0  0  0  0
  144.0731  133.2848  152.5342 H   0  0  0  0  0  0  0  0  0  0  0  0
  148.9816  137.8541  153.0192 H   0  0  0  0  0  0  0  0  0  0  0  0
  147.7759  140.7640  154.7800 H   0  0  0  0  0  0  0  0  0  0  0  0
  149.2466  142.3197  156.0770 H   0  0  0  0  0  0  0  0  0  0  0  0
  151.6634  141.7204  156.3741 H   0  0  0  0  0  0  0  0  0  0  0  0
  151.2451  138.2160  154.2617 H   0  0  0  0  0  0  0  0  0  0  0  0
  145.6220  134.2382  149.2040 H   0  0  0  0  0  0  0  0  0  0  0  0
  1  2  2  0  0  0  0
  2  3  1  0  0  0  0
  2 14  1  0  0  0  0
  3  4  1  0  0  0  0
  3 21  1  0  0  0  0
  4  5  1  0  0  0  0
  4 22  1  0  0  0  0
  4 23  1  0  0  0  0
  5 13  1  0  0  0  0
  5  6  1  0  0  0  0
  5 24  1  0  0  0  0
  6  7  1  0  0  0  0
  6 25  1  0  0  0  0
  6 26  1  0  0  0  0
  7 11  1  0  0  0  0
  7  8  1  0  0  0  0
  7 41  1  0  0  0  0
  8  9  1  0  0  0  0
  8 27  1  0  0  0  0
  8 28  1  0  0  0  0
  9 10  1  0  0  0  0
  9 29  1  0  0  0  0
  9 30  1  0  0  0  0
 10 11  1  0  0  0  0
 10 31  1  0  0  0  0
 10 32  1  0  0  0  0
 11 12  1  0  0  0  0
 11 33  1  0  0  0  0
 12 13  1  0  0  0  0
 12 34  1  0  0  0  0
 12 35  1  0  0  0  0
 14 15  1  0  0  0  0
 14 36  1  0  0  0  0
 15 20  1  0  0  0  0
 15 16  2  0  0  0  0
 16 17  1  0  0  0  0
 16 37  1  0  0  0  0
 17 18  2  0  0  0  0
 17 38  1  0  0  0  0
 18 19  1  0  0  0  0
 18 39  1  0  0  0  0
 19 20  2  0  0  0  0
 20 40  1  0  0  0  0
M  CHG  1   7   1
M  END
> <s_m_source_file>
AV-unprocessed.smi

> <i_m_source_file_index>
618

> <i_lp_mmshare_version>
43012

> <i_f3d_flags>
0

> <s_epik_input>
W2NIXTFuW2NIXVtjSF1bY0hdYzFbTkhdQyg9TylbTkhdW0NIMl1bQ0BIXShbQ0gyXTIpT1tDSDJdW0NAQEhdKE4yMylbQ0gyXVtDSDJdW0NIMl0z

> <s_epik_cmdline>
J2VwaWtfcHl0aG9uJywgJy1waCcsICc3LjAnLCAnLXRuJywgJzgnLCAnLW1hJywgJzIwMCcsICctbWV0YWxfYmluZGluZycsICctaW1hZScsICc8aW5maWxlLm1hZT4nLCAnLW9tYWUnLCAnPG91dGZpbGUubWFlPic=

> <r_epik_Ionization_Penalty>
0.111044

> <r_epik_Ionization_Penalty_Charging>
0.10673

> <r_epik_Ionization_Penalty_Neutral>
0.00431361

> <r_epik_State_Penalty>
0.0978747

> <r_epik_Charging_Adjusted_Penalty>
0.204605

> <i_epik_Tot_Q>
1

> <i_epik_Tot_abs_Q>
1

> <r_epik_Metal_State_Penalty>
0.0947591

> <b_epik_Metal_Only>
0

> <s_lp_Force_Field>
OPLS_2005

> <r_lp_Energy>
38.5016

> <b_lp_Chiralities_Consistent>
1

> <s_lp_Variant>
AV-unprocessed.smi:618-3

> <Gold.Version>
5.8.1

> <Gold.Id.Protein>
6NUR|6NUR_protein|mol2

> <Gold.PLP.Fitness>
46.2733

> <Gold.PLP.PLP>
-37.7848

> <Gold.PLP.part.hbond>
-4.6698

> <Gold.PLP.part.metal>
0.0000

> <Gold.PLP.part.buried>
-5.7796

> <Gold.PLP.part.nonpolar>
-28.9625

> <Gold.PLP.part.repulsive>
0.3969

> <Gold.PLP.ligand.clash>
0.0000

> <Gold.PLP.ligand.torsion>
0.3236

> <Gold.PLP.Chemscore.Hbond>
3.0450

> <Gold.PLP.Chemscore.CHOScore>
0.0000

> <Gold.PLP.Chemscore.Metal>
0.0000

> <Gold.Chemscore.Hbonds>
donor molecule, donor type, donor heavy atom, donor atom, acceptor molecule, acceptor atom, score
      L1  H     3    21       P1  7948  1.00
      L1  H     7    41       P1  7921  1.00
      L1  H    14    36       P1  7948  1.00
      P1  H  7989  7998       L1    19  0.02

> <Gold.PLP.Chemscore.Internal.Correction>
0.0007

> <Gold.Rescore>
     Score         DG    S(hbond)    S(metal)    S(lipo)     H(rot)  DE(clash)    DE(int)     intcor
     21.36     -22.98       2.93        0.00      93.63       1.27       0.03       1.60       ----

> <Gold.Chemscore.Fitness>
21.3552

> <Gold.Chemscore.DG>
-22.9847

> <Gold.Chemscore.ZeroCoef>
-5.4800

> <Gold.Chemscore.Hbond>
2.9312

> <Gold.Chemscore.Metal>
0.0000

> <Gold.Chemscore.Lipo>
93.6285

> <Gold.Chemscore.Internal_Hbond>
0.0000

> <Gold.Chemscore.DEClash>
0.0251

> <Gold.Chemscore.DEInternal>
1.6045

> <Gold.Chemscore.Rot>
1.2656

> <Gold.Chemscore.Internal.Correction>
   9.000000E+99

> <Gold.Chemscore.Hbonds>
donor molecule, donor type, donor heavy atom, donor atom, acceptor molecule, acceptor atom, score
      L1  H     3    21       P1  7948  0.99
      L1  H     7    41       P1  7921  0.78
      L1  H    14    36       P1  7948  0.94

> <Gold.Chemscore.Hbond.Weighted>
-9.7901

> <Gold.Chemscore.Metal.Weighted>
-0.0000

> <Gold.Chemscore.Lipo.Weighted>
-10.9545

> <Gold.Chemscore.Internal_Hbond.Weighted>
0.0000

> <Gold.Chemscore.DEClash.Weighted>
0.0251

> <Gold.Chemscore.DEInternal.Weighted>
1.6045

> <Gold.Chemscore.Rot.Weighted>
3.2399

> <Gold.Chemscore.Internal.Correction.Weighted>
   9.000000E+99

> <Gold.Protein.RotatedTorsions>
[ 6907 6896 6895 6894 ] final  -35.47 input  -60.11 | X-H torsion
[ 7974 7965 7964 7962 ] final  -80.34 input  175.53 | X-H torsion
[ 8008 7997 7996 7995 ] final   90.83 input   59.86 | X-H torsion
[ 10167 10162 10161 10158 ] final -177.85 input  -65.29 | X-H torsion
[ 10718 10713 10712 10709 ] final  -68.67 input   66.30 | X-H torsion
[ 10763 10752 10751 10750 ] final  158.72 input  -60.55 | X-H torsion
[ 11005 11000 10999 10996 ] final   62.82 input  -57.11 | X-H torsion

> <Gold.Protein.ActiveResidues>
 VAL166  LYS551  ARG553  GLY616  TRP617  ASP618  TYR619  PRO620  LYS621  CYS622 
 ASP623  PHE694  ASN695  SER759  ASP760  ASP761  ALA762  ILE779  LEU786  VAL792 
 PHE793  MET794  SER795  GLU796  ALA797  LYS798  CYS799  TRP800  GLU811  SER814 

> <Gold.Protein.RotatedAtoms>
  151.0394  134.9596  159.8153 H   0  0  0  0  0  0  0  0  0  0  0  0  # atno 6907 bound_to 6896
  152.5361  134.2678  159.8970 H   0  0  0  0  0  0  0  0  0  0  0  0  # atno 6908 bound_to 6896
  151.2689  133.4222  159.2654 H   0  0  0  0  0  0  0  0  0  0  0  0  # atno 6909 bound_to 6896
  145.5613  140.9481  143.1446 H   0  0  0  0  0  0  0  0  0  0  0  0  # atno 7974 bound_to 7965
  156.0166  140.3345  155.6996 H   0  0  0  0  0  0  0  0  0  0  0  0  # atno 8008 bound_to 7997
  155.6082  140.0662  157.2731 H   0  0  0  0  0  0  0  0  0  0  0  0  # atno 8009 bound_to 7997
  154.4300  140.1798  156.1232 H   0  0  0  0  0  0  0  0  0  0  0  0  # atno 8010 bound_to 7997
  139.5460  144.2235  152.0988 H   0  0  0  0  0  0  0  0  0  0  0  0  # atno 10167 bound_to 10162
  156.0494  130.4299  150.2034 H   0  0  0  0  0  0  0  0  0  0  0  0  # atno 10718 bound_to 10713
  154.2205  135.2782  155.2926 H   0  0  0  0  0  0  0  0  0  0  0  0  # atno 10763 bound_to 10752
  154.5706  135.5619  153.7095 H   0  0  0  0  0  0  0  0  0  0  0  0  # atno 10764 bound_to 10752
  153.0043  135.6320  154.2345 H   0  0  0  0  0  0  0  0  0  0  0  0  # atno 10765 bound_to 10752
  140.0066  134.6359  155.9845 H   0  0  0  0  0  0  0  0  0  0  0  0  # atno 11005 bound_to 11000
  144.7481  139.7265  143.7284 LP  0  0  0  0  0  0  0  0  0  0  0  0  # atno 17320 bound_to 7965
  146.1849  139.5059  142.9842 LP  0  0  0  0  0  0  0  0  0  0  0  0  # atno 17321 bound_to 7965
  140.1721  144.4925  150.6574 LP  0  0  0  0  0  0  0  0  0  0  0  0  # atno 17342 bound_to 10162
  140.6708  143.2285  151.5630 LP  0  0  0  0  0  0  0  0  0  0  0  0  # atno 17343 bound_to 10162
  157.0120  130.9954  151.3363 LP  0  0  0  0  0  0  0  0  0  0  0  0  # atno 17370 bound_to 10713
  157.5404  130.8116  149.8022 LP  0  0  0  0  0  0  0  0  0  0  0  0  # atno 17371 bound_to 10713
  141.1681  133.6537  156.4553 LP  0  0  0  0  0  0  0  0  0  0  0  0  # atno 17394 bound_to 11000
  140.4629  134.6824  157.5094 LP  0  0  0  0  0  0  0  0  0  0  0  0  # atno 17395 bound_to 11000

$$$$
