AV-unprocessed.smi:112|AV-procd|sdf|1085|dock8
  -GOLD-   2262018183D 1   1.00000     0.00000
 Structure written by MMmdl.
 54 57  0  0  0  0  0  0  0  0  3 V2000
  150.7887  139.0236  158.2169 C   0  0  0  0  0  0  0  0  0  0  0  0
  152.1679  139.4614  158.6846 C   0  0  0  0  0  0  0  0  0  0  0  0
  152.3855  140.6735  159.2451 C   0  0  0  0  0  0  0  0  0  0  0  0
  153.6265  141.1004  159.6829 N   0  0  0  0  0  0  0  0  0  0  0  0
  153.8280  142.4507  160.3350 C   0  0  2  0  0  0  0  0  0  0  0  0
  153.0731  142.5160  161.6719 C   0  0  0  0  0  0  0  0  0  0  0  0
  152.4709  143.9065  161.6374 C   0  0  2  0  0  0  0  0  0  0  0  0
  151.2891  143.9664  162.4094 O   0  0  0  0  0  0  0  0  0  0  0  0
  152.2013  144.0736  160.1406 C   0  0  1  0  0  0  0  0  0  0  0  0
  151.9992  145.5067  159.6191 C   0  0  0  0  0  0  0  0  0  0  0  0
  151.7423  146.4180  160.6669 O   0  0  0  0  0  0  0  0  0  0  0  0
  153.3171  143.4570  159.5074 O   0  0  0  0  0  0  0  0  0  0  0  0
  154.7387  140.2435  159.5683 C   0  0  0  0  0  0  0  0  0  0  0  0
  155.8467  140.5914  159.9833 O   0  0  0  0  0  0  0  0  0  0  0  0
  154.5474  138.9740  158.9786 N   0  0  0  0  0  0  0  0  0  0  0  0
  155.7111  138.0650  158.8709 C   0  0  0  0  0  0  0  0  0  0  0  0
  156.0371  137.6418  157.4212 C   0  0  0  0  0  0  0  0  0  0  0  0
  155.3223  138.0540  156.5069 O   0  0  0  0  0  0  0  0  0  0  0  0
  157.1091  136.8351  157.2213 N   0  0  0  0  0  0  0  0  0  0  0  0
  157.9755  136.3497  158.3096 C   0  0  0  0  0  0  0  0  0  0  0  0
  159.0812  135.5046  157.6406 C   0  0  0  0  0  0  0  0  0  0  0  0
  158.7155  135.5580  156.1870 C   0  0  0  0  0  0  0  0  0  0  0  0
  159.3933  134.9307  155.1283 C   0  0  0  0  0  0  0  0  0  0  0  0
  158.9032  135.0942  153.8089 C   0  0  0  0  0  0  0  0  0  0  0  0
  159.5905  134.4509  152.6715 N   0  3  0  0  0  0  0  0  0  0  0  0
  159.5552  135.0083  151.5792 O   0  0  0  0  0  0  0  0  0  0  0  0
  160.1674  133.3862  152.8687 O   0  5  0  0  0  0  0  0  0  0  0  0
  157.7427  135.8852  153.5969 C   0  0  0  0  0  0  0  0  0  0  0  0
  157.0731  136.5078  154.6731 C   0  0  0  0  0  0  0  0  0  0  0  0
  157.5797  136.3319  155.9791 C   0  0  0  0  0  0  0  0  0  0  0  0
  153.2833  138.5252  158.5238 C   0  0  0  0  0  0  0  0  0  0  0  0
  153.1547  137.4015  158.0341 O   0  0  0  0  0  0  0  0  0  0  0  0
  150.0414  139.8029  158.3691 H   0  0  0  0  0  0  0  0  0  0  0  0
  150.4643  138.1390  158.7659 H   0  0  0  0  0  0  0  0  0  0  0  0
  150.8038  138.7817  157.1536 H   0  0  0  0  0  0  0  0  0  0  0  0
  151.5352  141.3290  159.3549 H   0  0  0  0  0  0  0  0  0  0  0  0
  154.9058  142.5953  160.4262 H   0  0  0  0  0  0  0  0  0  0  0  0
  152.2897  141.7553  161.6848 H   0  0  0  0  0  0  0  0  0  0  0  0
  153.7440  142.3470  162.5146 H   0  0  0  0  0  0  0  0  0  0  0  0
  153.1998  144.6315  162.0011 H   0  0  0  0  0  0  0  0  0  0  0  0
  151.0389  144.8727  162.5055 H   0  0  0  0  0  0  0  0  0  0  0  0
  151.3245  143.4819  159.8706 H   0  0  0  0  0  0  0  0  0  0  0  0
  152.8705  145.8355  159.0524 H   0  0  0  0  0  0  0  0  0  0  0  0
  151.1477  145.5329  158.9388 H   0  0  0  0  0  0  0  0  0  0  0  0
  150.8337  146.6749  160.6235 H   0  0  0  0  0  0  0  0  0  0  0  0
  156.6012  138.5189  159.3086 H   0  0  0  0  0  0  0  0  0  0  0  0
  155.5391  137.1759  159.4786 H   0  0  0  0  0  0  0  0  0  0  0  0
  158.4122  137.1814  158.8641 H   0  0  0  0  0  0  0  0  0  0  0  0
  157.4051  135.7339  159.0063 H   0  0  0  0  0  0  0  0  0  0  0  0
  160.0711  135.9337  157.7986 H   0  0  0  0  0  0  0  0  0  0  0  0
  159.0808  134.4748  157.9992 H   0  0  0  0  0  0  0  0  0  0  0  0
  160.2723  134.3371  155.3328 H   0  0  0  0  0  0  0  0  0  0  0  0
  157.3512  136.0230  152.5997 H   0  0  0  0  0  0  0  0  0  0  0  0
  156.1942  137.0986  154.4685 H   0  0  0  0  0  0  0  0  0  0  0  0
  1  2  1  0  0  0  0
  1 33  1  0  0  0  0
  1 34  1  0  0  0  0
  1 35  1  0  0  0  0
  2 31  1  0  0  0  0
  2  3  2  0  0  0  0
  3  4  1  0  0  0  0
  3 36  1  0  0  0  0
  4  5  1  0  0  0  0
  4 13  1  0  0  0  0
  5 12  1  0  0  0  0
  5  6  1  0  0  0  0
  5 37  1  0  0  0  0
  6  7  1  0  0  0  0
  6 38  1  0  0  0  0
  6 39  1  0  0  0  0
  7  8  1  0  0  0  0
  7  9  1  0  0  0  0
  7 40  1  0  0  0  0
  8 41  1  0  0  0  0
  9 10  1  0  0  0  0
  9 12  1  0  0  0  0
  9 42  1  0  0  0  0
 10 11  1  0  0  0  0
 10 43  1  0  0  0  0
 10 44  1  0  0  0  0
 11 45  1  0  0  0  0
 13 14  2  0  0  0  0
 13 15  1  0  0  0  0
 15 16  1  0  0  0  0
 15 31  1  0  0  0  0
 16 17  1  0  0  0  0
 16 46  1  0  0  0  0
 16 47  1  0  0  0  0
 17 18  2  0  0  0  0
 17 19  1  0  0  0  0
 19 30  1  0  0  0  0
 19 20  1  0  0  0  0
 20 21  1  0  0  0  0
 20 48  1  0  0  0  0
 20 49  1  0  0  0  0
 21 22  1  0  0  0  0
 21 50  1  0  0  0  0
 21 51  1  0  0  0  0
 22 30  2  0  0  0  0
 22 23  1  0  0  0  0
 23 24  2  0  0  0  0
 23 52  1  0  0  0  0
 24 25  1  0  0  0  0
 24 28  1  0  0  0  0
 25 26  2  0  0  0  0
 25 27  1  0  0  0  0
 28 29  2  0  0  0  0
 28 53  1  0  0  0  0
 29 30  1  0  0  0  0
 29 54  1  0  0  0  0
 31 32  2  0  0  0  0
M  CHG  1  25   1
M  CHG  1  27  -1
M  END
> <s_m_source_file>
AV-unprocessed.smi

> <i_m_source_file_index>
112

> <i_lp_mmshare_version>
43012

> <i_f3d_flags>
0

> <s_epik_input>
W09IXVtDSDJdW0NAQEhdKE8xKVtDQEhdKFtPSF0pW0NIMl1bQ0BIXTFuKFtjSF1jMltDSDNdKWMoPU8pbihjMj1PKVtDSDJdQyg9TylOKFtDSDJdW0NIMl0zKWMoYzM0KVtjSF1bY0hdYyhbY0hdNClbTitdKD1PKVtPLV0=

> <s_epik_cmdline>
J2VwaWtfcHl0aG9uJywgJy1waCcsICc3LjAnLCAnLXRuJywgJzgnLCAnLW1hJywgJzIwMCcsICctbWV0YWxfYmluZGluZycsICctaW1hZScsICc8aW5maWxlLm1hZT4nLCAnLW9tYWUnLCAnPG91dGZpbGUubWFlPic=

> <r_lp_tautomer_probability>
1

> <r_epik_Ionization_Penalty>
2.5696e-07

> <r_epik_Ionization_Penalty_Charging>
1.04886e-08

> <r_epik_Ionization_Penalty_Neutral>
2.46472e-07

> <r_epik_State_Penalty>
-0

> <r_epik_Charging_Adjusted_Penalty>
1.04886e-08

> <i_epik_Tot_Q>
0

> <i_epik_Tot_abs_Q>
2

> <r_epik_Metal_State_Penalty>
-0

> <b_epik_Metal_Only>
0

> <s_epik_Chemistry_Notes>
This compound contains an acetal/aminal-like group ( X-CH(R)-Y where X, Y are N, S, or O) that may be acid/base labile, releasing an aldehyde.

> <s_lp_Force_Field>
OPLS_2005

> <r_lp_Energy>
57.8842

> <b_lp_Chiralities_Consistent>
1

> <s_lp_Variant>
AV-unprocessed.smi:112-3

> <Gold.Version>
5.8.1

> <Gold.Id.Protein>
6NUR|6NUR_protein|mol2

> <Gold.PLP.Fitness>
51.3713

> <Gold.PLP.PLP>
-52.9677

> <Gold.PLP.part.hbond>
-7.8496

> <Gold.PLP.part.metal>
0.0000

> <Gold.PLP.part.buried>
-8.4469

> <Gold.PLP.part.nonpolar>
-37.4874

> <Gold.PLP.part.repulsive>
1.4199

> <Gold.PLP.ligand.clash>
0.0000

> <Gold.PLP.ligand.torsion>
1.1198

> <Gold.PLP.Chemscore.Hbond>
0.2080

> <Gold.PLP.Chemscore.CHOScore>
0.0000

> <Gold.PLP.Chemscore.Metal>
0.0000

> <Gold.PLP.Chemscore.Internal.Correction>
0.0190

> <Gold.Rescore>
     Score         DG    S(hbond)    S(metal)    S(lipo)     H(rot)  DE(clash)    DE(int)     intcor
      5.45     -11.02       0.74        0.00      98.16       3.29       3.13       2.44       ----

> <Gold.Chemscore.Fitness>
5.4491

> <Gold.Chemscore.DG>
-11.0177

> <Gold.Chemscore.ZeroCoef>
-5.4800

> <Gold.Chemscore.Hbond>
0.7424

> <Gold.Chemscore.Metal>
0.0000

> <Gold.Chemscore.Lipo>
98.1581

> <Gold.Chemscore.Internal_Hbond>
0.0000

> <Gold.Chemscore.DEClash>
3.1282

> <Gold.Chemscore.DEInternal>
2.4403

> <Gold.Chemscore.Rot>
3.2916

> <Gold.Chemscore.Internal.Correction>
   9.000000E+99

> <Gold.Chemscore.Hbond.Weighted>
-2.4797

> <Gold.Chemscore.Metal.Weighted>
-0.0000

> <Gold.Chemscore.Lipo.Weighted>
-11.4845

> <Gold.Chemscore.Internal_Hbond.Weighted>
0.0000

> <Gold.Chemscore.DEClash.Weighted>
3.1282

> <Gold.Chemscore.DEInternal.Weighted>
2.4403

> <Gold.Chemscore.Rot.Weighted>
8.4265

> <Gold.Chemscore.Internal.Correction.Weighted>
   9.000000E+99

> <Gold.Protein.RotatedTorsions>
[ 6907 6896 6895 6894 ] final -154.39 input  -60.11 | X-H torsion
[ 7974 7965 7964 7962 ] final  -51.38 input  175.53 | X-H torsion
[ 8008 7997 7996 7995 ] final  105.11 input   59.86 | X-H torsion
[ 10167 10162 10161 10158 ] final   15.87 input  -65.29 | X-H torsion
[ 10718 10713 10712 10709 ] final   64.87 input   66.30 | X-H torsion
[ 10763 10752 10751 10750 ] final  -43.34 input  -60.55 | X-H torsion
[ 11005 11000 10999 10996 ] final  157.17 input  -57.11 | X-H torsion

> <Gold.Protein.ActiveResidues>
 VAL166  LYS551  ARG553  GLY616  TRP617  ASP618  TYR619  PRO620  LYS621  CYS622 
 ASP623  PHE694  ASN695  SER759  ASP760  ASP761  ALA762  ILE779  LEU786  VAL792 
 PHE793  MET794  SER795  GLU796  ALA797  LYS798  CYS799  TRP800  GLU811  SER814 

> <Gold.Protein.RotatedAtoms>
  151.2568  133.4322  159.2613 H   0  0  0  0  0  0  0  0  0  0  0  0  # atno 6907 bound_to 6896
  151.0567  134.9709  159.8249 H   0  0  0  0  0  0  0  0  0  0  0  0  # atno 6908 bound_to 6896
  152.5391  134.2520  159.8955 H   0  0  0  0  0  0  0  0  0  0  0  0  # atno 6909 bound_to 6896
  145.9195  140.7846  142.9654 H   0  0  0  0  0  0  0  0  0  0  0  0  # atno 7974 bound_to 7965
  156.1631  140.3136  155.8841 H   0  0  0  0  0  0  0  0  0  0  0  0  # atno 8008 bound_to 7997
  155.3742  140.0484  157.3062 H   0  0  0  0  0  0  0  0  0  0  0  0  # atno 8009 bound_to 7997
  154.5166  140.2183  155.9066 H   0  0  0  0  0  0  0  0  0  0  0  0  # atno 8010 bound_to 7997
  140.5837  143.8931  150.6812 H   0  0  0  0  0  0  0  0  0  0  0  0  # atno 10167 bound_to 10162
  157.6068  130.9183  149.9902 H   0  0  0  0  0  0  0  0  0  0  0  0  # atno 10718 bound_to 10713
  153.9940  135.6702  153.4755 H   0  0  0  0  0  0  0  0  0  0  0  0  # atno 10763 bound_to 10752
  153.0692  135.4984  154.8264 H   0  0  0  0  0  0  0  0  0  0  0  0  # atno 10764 bound_to 10752
  154.7092  135.3094  154.9186 H   0  0  0  0  0  0  0  0  0  0  0  0  # atno 10765 bound_to 10752
  140.1744  134.8520  157.2729 H   0  0  0  0  0  0  0  0  0  0  0  0  # atno 11005 bound_to 11000
  144.6751  140.1953  143.7392 LP  0  0  0  0  0  0  0  0  0  0  0  0  # atno 17320 bound_to 7965
  145.8568  139.2202  143.1740 LP  0  0  0  0  0  0  0  0  0  0  0  0  # atno 17321 bound_to 7965
  140.2437  143.3645  152.1465 LP  0  0  0  0  0  0  0  0  0  0  0  0  # atno 17342 bound_to 10162
  139.5185  144.7006  151.5504 LP  0  0  0  0  0  0  0  0  0  0  0  0  # atno 17343 bound_to 10162
  156.1157  130.3648  149.9972 LP  0  0  0  0  0  0  0  0  0  0  0  0  # atno 17370 bound_to 10713
  156.8062  130.9308  151.3645 LP  0  0  0  0  0  0  0  0  0  0  0  0  # atno 17371 bound_to 10713
  140.2340  134.3875  155.7509 LP  0  0  0  0  0  0  0  0  0  0  0  0  # atno 17394 bound_to 11000
  141.2219  133.7230  156.8685 LP  0  0  0  0  0  0  0  0  0  0  0  0  # atno 17395 bound_to 11000

$$$$
