AV-unprocessed.smi:1005|AV-procd|sdf|4380|dock2
  -GOLD-   22720 2303D 1   1.00000     0.00000
 Structure written by MMmdl.
 58 60  0  0  0  0  0  0  0  0  4 V2000
  152.5809  143.5943  161.6585 C   0  0  0  0  0  0  0  0  0  0  0  0
  152.3506  142.8404  160.3596 C   0  0  0  0  0  0  0  0  0  0  0  0
  151.4850  143.4048  159.3958 C   0  0  0  0  0  0  0  0  0  0  0  0
  151.2920  142.6897  158.2198 C   0  0  0  0  0  0  0  0  0  0  0  0
  150.5123  142.9720  157.0964 N   0  3  0  0  0  0  0  0  0  0  0  0
  150.6387  141.9637  156.1901 C   0  0  0  0  0  0  0  0  0  0  0  0
  151.4945  141.0444  156.7142 N   0  0  0  0  0  0  0  0  0  0  0  0
  151.9487  139.7647  156.1510 C   0  0  0  0  0  0  0  0  0  0  0  0
  150.8194  138.9627  155.4733 C   0  0  2  0  0  0  0  0  0  0  0  0
  150.5741  139.5703  154.2213 O   0  0  0  0  0  0  0  0  0  0  0  0
  149.5065  138.9384  156.2866 C   0  0  0  0  0  0  0  0  0  0  0  0
  148.3177  138.6076  155.4548 N   0  3  2  0  0  0  0  0  0  0  0  0
  147.0321  138.7172  156.1855 C   0  0  0  0  0  0  0  0  0  0  0  0
  146.8004  137.4928  157.0870 C   0  0  0  0  0  0  0  0  0  0  0  0
  146.8380  136.3131  156.2934 O   0  0  0  0  0  0  0  0  0  0  0  0
  148.1016  136.1108  155.6686 C   0  0  1  0  0  0  0  0  0  0  0  0
  148.0327  134.7873  154.8827 C   0  0  0  0  0  0  0  0  0  0  0  0
  149.2466  134.5347  154.0635 N   0  3  0  0  0  0  0  0  0  0  0  0
  149.1969  133.2599  153.3103 C   0  0  0  0  0  0  0  0  0  0  0  0
  150.4877  134.6418  154.8626 C   0  0  0  0  0  0  0  0  0  0  0  0
  148.3985  137.3091  154.7365 C   0  0  0  0  0  0  0  0  0  0  0  0
  151.9231  141.4525  157.9839 C   0  0  0  0  0  0  0  0  0  0  0  0
  152.7785  140.8822  158.9244 C   0  0  0  0  0  0  0  0  0  0  0  0
  152.9899  141.5955  160.1259 C   0  0  0  0  0  0  0  0  0  0  0  0
  153.9187  140.9979  161.1691 C   0  0  0  0  0  0  0  0  0  0  0  0
  152.0296  144.5348  161.6784 H   0  0  0  0  0  0  0  0  0  0  0  0
  153.6385  143.8264  161.7857 H   0  0  0  0  0  0  0  0  0  0  0  0
  152.2520  142.9982  162.5101 H   0  0  0  0  0  0  0  0  0  0  0  0
  150.9915  144.3501  159.5692 H   0  0  0  0  0  0  0  0  0  0  0  0
  150.1425  141.9010  155.2319 H   0  0  0  0  0  0  0  0  0  0  0  0
  152.7766  139.9427  155.4644 H   0  0  0  0  0  0  0  0  0  0  0  0
  152.3643  139.1893  156.9797 H   0  0  0  0  0  0  0  0  0  0  0  0
  151.1789  137.9502  155.2913 H   0  0  0  0  0  0  0  0  0  0  0  0
  150.1161  138.9604  153.6637 H   0  0  0  0  0  0  0  0  0  0  0  0
  149.5773  138.2321  157.1121 H   0  0  0  0  0  0  0  0  0  0  0  0
  149.3732  139.9202  156.7437 H   0  0  0  0  0  0  0  0  0  0  0  0
  146.9923  139.6410  156.7641 H   0  0  0  0  0  0  0  0  0  0  0  0
  146.2258  138.7815  155.4535 H   0  0  0  0  0  0  0  0  0  0  0  0
  147.5424  137.4394  157.8852 H   0  0  0  0  0  0  0  0  0  0  0  0
  145.8238  137.5620  157.5667 H   0  0  0  0  0  0  0  0  0  0  0  0
  148.8773  136.0450  156.4307 H   0  0  0  0  0  0  0  0  0  0  0  0
  147.9047  133.9726  155.5976 H   0  0  0  0  0  0  0  0  0  0  0  0
  147.1524  134.7686  154.2384 H   0  0  0  0  0  0  0  0  0  0  0  0
  149.1095  132.4090  153.9871 H   0  0  0  0  0  0  0  0  0  0  0  0
  150.1042  133.1290  152.7194 H   0  0  0  0  0  0  0  0  0  0  0  0
  148.3576  133.2334  152.6166 H   0  0  0  0  0  0  0  0  0  0  0  0
  150.5172  133.8812  155.6438 H   0  0  0  0  0  0  0  0  0  0  0  0
  150.5624  135.6219  155.3352 H   0  0  0  0  0  0  0  0  0  0  0  0
  151.3670  134.5160  154.2295 H   0  0  0  0  0  0  0  0  0  0  0  0
  147.6630  137.3301  153.9308 H   0  0  0  0  0  0  0  0  0  0  0  0
  149.3687  137.1898  154.2557 H   0  0  0  0  0  0  0  0  0  0  0  0
  153.2643  139.9332  158.7531 H   0  0  0  0  0  0  0  0  0  0  0  0
  154.3364  140.0474  160.8355 H   0  0  0  0  0  0  0  0  0  0  0  0
  153.3817  140.8169  162.1005 H   0  0  0  0  0  0  0  0  0  0  0  0
  154.7504  141.6726  161.3741 H   0  0  0  0  0  0  0  0  0  0  0  0
  149.2951  135.2786  153.3812 H   0  0  0  0  0  0  0  0  0  0  0  0
  148.2876  139.3290  154.7481 H   0  0  0  0  0  0  0  0  0  0  0  0
  149.9251  143.7856  156.9615 H   0  0  0  0  0  0  0  0  0  0  0  0
  1  2  1  0  0  0  0
  1 26  1  0  0  0  0
  1 27  1  0  0  0  0
  1 28  1  0  0  0  0
  2 24  1  0  0  0  0
  2  3  2  0  0  0  0
  3  4  1  0  0  0  0
  3 29  1  0  0  0  0
  4 22  2  0  0  0  0
  4  5  1  0  0  0  0
  5  6  2  0  0  0  0
  5 58  1  0  0  0  0
  6  7  1  0  0  0  0
  6 30  1  0  0  0  0
  7  8  1  0  0  0  0
  7 22  1  0  0  0  0
  8  9  1  0  0  0  0
  8 31  1  0  0  0  0
  8 32  1  0  0  0  0
  9 10  1  0  0  0  0
  9 11  1  0  0  0  0
  9 33  1  0  0  0  0
 10 34  1  0  0  0  0
 11 12  1  0  0  0  0
 11 35  1  0  0  0  0
 11 36  1  0  0  0  0
 12 21  1  0  0  0  0
 12 13  1  0  0  0  0
 12 57  1  0  0  0  0
 13 14  1  0  0  0  0
 13 37  1  0  0  0  0
 13 38  1  0  0  0  0
 14 15  1  0  0  0  0
 14 39  1  0  0  0  0
 14 40  1  0  0  0  0
 15 16  1  0  0  0  0
 16 17  1  0  0  0  0
 16 21  1  0  0  0  0
 16 41  1  0  0  0  0
 17 18  1  0  0  0  0
 17 42  1  0  0  0  0
 17 43  1  0  0  0  0
 18 19  1  0  0  0  0
 18 20  1  0  0  0  0
 18 56  1  0  0  0  0
 19 44  1  0  0  0  0
 19 45  1  0  0  0  0
 19 46  1  0  0  0  0
 20 47  1  0  0  0  0
 20 48  1  0  0  0  0
 20 49  1  0  0  0  0
 21 50  1  0  0  0  0
 21 51  1  0  0  0  0
 22 23  1  0  0  0  0
 23 24  2  0  0  0  0
 23 52  1  0  0  0  0
 24 25  1  0  0  0  0
 25 53  1  0  0  0  0
 25 54  1  0  0  0  0
 25 55  1  0  0  0  0
M  CHG  1   5   1
M  CHG  1  12   1
M  CHG  1  18   1
M  END
> <s_m_source_file>
AV-unprocessed.smi

> <i_m_source_file_index>
1005

> <i_lp_mmshare_version>
43012

> <i_f3d_flags>
0

> <s_epik_input>
W0NIM11jKFtjSF0xKWMoW0NIM10pW2NIXWMoYzEyKW4oW2NIXW4yKVtDSDJdW0NASF0oW09IXSlbQ0gyXU4zW0NIMl1bQ0gyXU9bQ0BIXShbQ0gyXTMpW0NIMl1OKFtDSDNdKVtDSDNd

> <s_epik_cmdline>
J2VwaWtfcHl0aG9uJywgJy1waCcsICc3LjAnLCAnLXRuJywgJzgnLCAnLW1hJywgJzIwMCcsICctbWV0YWxfYmluZGluZycsICctaW1hZScsICc8aW5maWxlLm1hZT4nLCAnLW9tYWUnLCAnPG91dGZpbGUubWFlPic=

> <r_epik_Ionization_Penalty>
2.30802

> <r_epik_Ionization_Penalty_Charging>
2.30798

> <r_epik_Ionization_Penalty_Neutral>
3.4851e-05

> <r_epik_State_Penalty>
2.52618

> <r_epik_Charging_Adjusted_Penalty>
4.83416

> <i_epik_Tot_Q>
3

> <i_epik_Tot_abs_Q>
3

> <r_epik_Metal_State_Penalty>
6.53149

> <b_epik_Metal_Only>
0

> <s_lp_Force_Field>
OPLS_2005

> <r_lp_Energy>
52.3538

> <b_lp_Chiralities_Consistent>
1

> <s_lp_Variant>
AV-unprocessed.smi:1005-19

> <Gold.Version>
5.8.1

> <Gold.Id.Protein>
6NUR|6NUR_protein|mol2

> <Gold.PLP.Fitness>
56.5825

> <Gold.PLP.PLP>
-42.5517

> <Gold.PLP.part.hbond>
-3.3894

> <Gold.PLP.part.metal>
0.0000

> <Gold.PLP.part.buried>
-5.1040

> <Gold.PLP.part.nonpolar>
-32.7931

> <Gold.PLP.part.repulsive>
0.0323

> <Gold.PLP.ligand.clash>
0.0000

> <Gold.PLP.ligand.torsion>
0.5979

> <Gold.PLP.Chemscore.Hbond>
4.9840

> <Gold.PLP.Chemscore.CHOScore>
0.0000

> <Gold.PLP.Chemscore.Metal>
0.0000

> <Gold.Chemscore.Hbonds>
donor molecule, donor type, donor heavy atom, donor atom, acceptor molecule, acceptor atom, score
      L1  H     5    58       P1  8028  1.76
      L1  H    18    56       P1  7948  1.80
      P1  H  7989  7998       L1    10  1.00

> <Gold.PLP.Chemscore.Internal.Correction>
0.2746

> <Gold.Rescore>
     Score         DG    S(hbond)    S(metal)    S(lipo)     H(rot)  DE(clash)    DE(int)     intcor
     20.54     -21.60       2.90        0.00     110.81       2.56       0.11       0.95       ----

> <Gold.Chemscore.Fitness>
20.5423

> <Gold.Chemscore.DG>
-21.5978

> <Gold.Chemscore.ZeroCoef>
-5.4800

> <Gold.Chemscore.Hbond>
2.9034

> <Gold.Chemscore.Metal>
0.0000

> <Gold.Chemscore.Lipo>
110.8142

> <Gold.Chemscore.Internal_Hbond>
0.0000

> <Gold.Chemscore.DEClash>
0.1098

> <Gold.Chemscore.DEInternal>
0.9457

> <Gold.Chemscore.Rot>
2.5566

> <Gold.Chemscore.Internal.Correction>
   9.000000E+99

> <Gold.Chemscore.Hbonds>
donor molecule, donor type, donor heavy atom, donor atom, acceptor molecule, acceptor atom, score
      L1  H     5    58       P1  8028  0.84
      L1  H    18    56       P1  7948  0.18
      P1  H  7989  7998       L1    10  0.97

> <Gold.Chemscore.Hbond.Weighted>
-9.6975

> <Gold.Chemscore.Metal.Weighted>
-0.0000

> <Gold.Chemscore.Lipo.Weighted>
-12.9653

> <Gold.Chemscore.Internal_Hbond.Weighted>
0.0000

> <Gold.Chemscore.DEClash.Weighted>
0.1098

> <Gold.Chemscore.DEInternal.Weighted>
0.9457

> <Gold.Chemscore.Rot.Weighted>
6.5450

> <Gold.Chemscore.Internal.Correction.Weighted>
   9.000000E+99

> <Gold.Protein.RotatedTorsions>
[ 6907 6896 6895 6894 ] final   44.24 input  -60.11 | X-H torsion
[ 7974 7965 7964 7962 ] final -100.86 input  175.53 | X-H torsion
[ 8008 7997 7996 7995 ] final -101.69 input   59.86 | X-H torsion
[ 10167 10162 10161 10158 ] final  132.78 input  -65.29 | X-H torsion
[ 10718 10713 10712 10709 ] final -156.92 input   66.30 | X-H torsion
[ 10763 10752 10751 10750 ] final -125.48 input  -60.55 | X-H torsion
[ 11005 11000 10999 10996 ] final   80.61 input  -57.11 | X-H torsion

> <Gold.Protein.ActiveResidues>
 VAL166  LYS551  ARG553  GLY616  TRP617  ASP618  TYR619  PRO620  LYS621  CYS622 
 ASP623  PHE694  ASN695  SER759  ASP760  ASP761  ALA762  ILE779  LEU786  VAL792 
 PHE793  MET794  SER795  GLU796  ALA797  LYS798  CYS799  TRP800  GLU811  SER814 

> <Gold.Protein.RotatedAtoms>
  152.2301  134.8330  160.0474 H   0  0  0  0  0  0  0  0  0  0  0  0  # atno 6907 bound_to 6896
  151.9082  133.3549  159.3862 H   0  0  0  0  0  0  0  0  0  0  0  0  # atno 6908 bound_to 6896
  150.7023  134.4685  159.5458 H   0  0  0  0  0  0  0  0  0  0  0  0  # atno 6909 bound_to 6896
  145.2890  140.9347  143.2888 H   0  0  0  0  0  0  0  0  0  0  0  0  # atno 7974 bound_to 7965
  154.8461  140.0433  157.1574 H   0  0  0  0  0  0  0  0  0  0  0  0  # atno 8008 bound_to 7997
  154.8993  140.2998  155.5306 H   0  0  0  0  0  0  0  0  0  0  0  0  # atno 8009 bound_to 7997
  156.2994  140.2379  156.4019 H   0  0  0  0  0  0  0  0  0  0  0  0  # atno 8010 bound_to 7997
  139.5325  144.6646  151.4902 H   0  0  0  0  0  0  0  0  0  0  0  0  # atno 10167 bound_to 10162
  156.5332  130.8530  151.2723 H   0  0  0  0  0  0  0  0  0  0  0  0  # atno 10718 bound_to 10713
  154.8736  135.4028  154.3276 H   0  0  0  0  0  0  0  0  0  0  0  0  # atno 10763 bound_to 10752
  153.4094  135.7020  153.6375 H   0  0  0  0  0  0  0  0  0  0  0  0  # atno 10764 bound_to 10752
  153.5084  135.3712  155.2545 H   0  0  0  0  0  0  0  0  0  0  0  0  # atno 10765 bound_to 10752
  139.9128  134.7933  156.1932 H   0  0  0  0  0  0  0  0  0  0  0  0  # atno 11005 bound_to 11000
  144.9188  139.4437  143.6551 LP  0  0  0  0  0  0  0  0  0  0  0  0  # atno 17320 bound_to 7965
  146.3191  139.8037  142.8960 LP  0  0  0  0  0  0  0  0  0  0  0  0  # atno 17321 bound_to 7965
  140.6511  143.8694  150.6787 LP  0  0  0  0  0  0  0  0  0  0  0  0  # atno 17342 bound_to 10162
  140.2059  143.3922  152.1756 LP  0  0  0  0  0  0  0  0  0  0  0  0  # atno 17343 bound_to 10162
  157.7418  130.9877  150.2472 LP  0  0  0  0  0  0  0  0  0  0  0  0  # atno 17370 bound_to 10713
  156.3040  130.3762  149.7723 LP  0  0  0  0  0  0  0  0  0  0  0  0  # atno 17371 bound_to 10713
  141.0571  133.6860  156.1881 LP  0  0  0  0  0  0  0  0  0  0  0  0  # atno 17394 bound_to 11000
  140.6720  134.4858  157.5587 LP  0  0  0  0  0  0  0  0  0  0  0  0  # atno 17395 bound_to 11000

$$$$
