AV-unprocessed.smi:160|AV-procd|sdf|1360|dock5
  -GOLD-   2262019 73D 1   1.00000     0.00000
 Structure written by MMmdl.
 28 29  0  0  0  0  0  0  0  0  2 V2000
  154.3010  135.7501  156.9398 N   0  5  0  0  0  0  0  0  0  0  0  0
  154.1008  136.9796  157.4617 C   0  0  0  0  0  0  0  0  0  0  0  0
  154.6161  137.4282  158.4852 O   0  0  0  0  0  0  0  0  0  0  0  0
  153.1446  137.8462  156.6771 C   0  0  0  0  0  0  0  0  0  0  0  0
  152.5079  137.3550  155.5703 N   0  0  0  0  0  0  0  0  0  0  0  0
  151.8082  138.4297  155.2333 C   0  0  0  0  0  0  0  0  0  0  0  0
  151.9933  139.4798  156.0380 N   0  0  0  0  0  0  0  0  0  0  0  0
  151.3859  140.8497  155.9774 C   0  0  1  0  0  0  0  0  0  0  0  0
  150.4634  140.8786  154.9287 O   0  0  0  0  0  0  0  0  0  0  0  0
  149.1392  140.8151  155.4491 C   0  0  2  0  0  0  0  0  0  0  0  0
  148.1477  141.3842  154.4225 C   0  0  0  0  0  0  0  0  0  0  0  0
  148.5057  142.7061  154.0808 O   0  0  0  0  0  0  0  0  0  0  0  0
  149.2715  141.6694  156.7113 C   0  0  1  0  0  0  0  0  0  0  0  0
  148.2031  141.4817  157.6209 O   0  0  0  0  0  0  0  0  0  0  0  0
  150.6319  141.2528  157.2680 C   0  0  1  0  0  0  0  0  0  0  0  0
  150.5338  140.2211  158.2385 O   0  0  0  0  0  0  0  0  0  0  0  0
  152.8705  139.1126  157.0054 N   0  0  0  0  0  0  0  0  0  0  0  0
  152.2249  141.5069  155.7464 H   0  0  0  0  0  0  0  0  0  0  0  0
  148.8861  139.7877  155.7189 H   0  0  0  0  0  0  0  0  0  0  0  0
  149.3128  142.7232  156.4310 H   0  0  0  0  0  0  0  0  0  0  0  0
  151.1388  142.1013  157.7282 H   0  0  0  0  0  0  0  0  0  0  0  0
  155.0469  135.1663  157.3372 H   0  0  0  0  0  0  0  0  0  0  0  0
  151.1488  138.4529  154.3783 H   0  0  0  0  0  0  0  0  0  0  0  0
  148.1753  140.7926  153.5070 H   0  0  0  0  0  0  0  0  0  0  0  0
  147.1246  141.3523  154.7979 H   0  0  0  0  0  0  0  0  0  0  0  0
  148.5875  143.2109  154.8750 H   0  0  0  0  0  0  0  0  0  0  0  0
  148.3759  140.7045  158.1295 H   0  0  0  0  0  0  0  0  0  0  0  0
  150.7316  140.5838  159.0881 H   0  0  0  0  0  0  0  0  0  0  0  0
  1  2  1  0  0  0  0
  1 22  1  0  0  0  0
  2  3  2  0  0  0  0
  2  4  1  0  0  0  0
  4 17  2  0  0  0  0
  4  5  1  0  0  0  0
  5  6  2  0  0  0  0
  6  7  1  0  0  0  0
  6 23  1  0  0  0  0
  7  8  1  0  0  0  0
  7 17  1  0  0  0  0
  8 18  1  0  0  0  0
  8 15  1  0  0  0  0
  8  9  1  0  0  0  0
  9 10  1  0  0  0  0
 10 19  1  0  0  0  0
 10 11  1  0  0  0  0
 10 13  1  0  0  0  0
 11 12  1  0  0  0  0
 11 24  1  0  0  0  0
 11 25  1  0  0  0  0
 12 26  1  0  0  0  0
 13 20  1  0  0  0  0
 13 14  1  0  0  0  0
 13 15  1  0  0  0  0
 14 27  1  0  0  0  0
 15 21  1  0  0  0  0
 15 16  1  0  0  0  0
 16 28  1  0  0  0  0
M  CHG  1   1  -1
M  END
> <s_m_source_file>
AV-unprocessed.smi

> <i_m_source_file_index>
160

> <i_lp_mmshare_version>
43012

> <i_f3d_flags>
0

> <s_epik_input>
W05IMl1DKD1PKWMxbltjSF1uKG4xKVtDQEBIXTJPW0NASF0oW0NIMl1bT0hdKVtDQEBIXShbT0hdKVtDQEhdMltPSF0=

> <s_epik_cmdline>
J2VwaWtfcHl0aG9uJywgJy1waCcsICc3LjAnLCAnLXRuJywgJzgnLCAnLW1hJywgJzIwMCcsICctbWV0YWxfYmluZGluZycsICctaW1hZScsICc8aW5maWxlLm1hZT4nLCAnLW9tYWUnLCAnPG91dGZpbGUubWFlPic=

> <r_lp_tautomer_probability>
1

> <r_epik_Ionization_Penalty>
6.6993

> <r_epik_Ionization_Penalty_Charging>
6.6993

> <r_epik_Ionization_Penalty_Neutral>
6.01698e-06

> <r_epik_State_Penalty>
6.69929

> <r_epik_Charging_Adjusted_Penalty>
13.3986

> <i_epik_Tot_Q>
-1

> <i_epik_Tot_abs_Q>
1

> <r_epik_Metal_State_Penalty>
2.62798

> <b_epik_Metal_Only>
1

> <s_epik_Chemistry_Notes>
This compound contains an acetal/aminal-like group ( X-CH(R)-Y where X, Y are N, S, or O) that may be acid/base labile, releasing an aldehyde.

> <s_lp_Force_Field>
OPLS_2005

> <r_lp_Energy>
50.1609

> <b_lp_Chiralities_Consistent>
1

> <s_lp_Variant>
AV-unprocessed.smi:160-18

> <Gold.Version>
5.8.1

> <Gold.Id.Protein>
6NUR|6NUR_protein|mol2

> <Gold.PLP.Fitness>
39.8423

> <Gold.PLP.PLP>
-24.5318

> <Gold.PLP.part.hbond>
-6.9713

> <Gold.PLP.part.metal>
0.0000

> <Gold.PLP.part.buried>
-1.7484

> <Gold.PLP.part.nonpolar>
-15.0841

> <Gold.PLP.part.repulsive>
0.1232

> <Gold.PLP.ligand.clash>
0.0000

> <Gold.PLP.ligand.torsion>
0.0367

> <Gold.PLP.Chemscore.Hbond>
5.1228

> <Gold.PLP.Chemscore.CHOScore>
0.0000

> <Gold.PLP.Chemscore.Metal>
0.0000

> <Gold.Chemscore.Hbonds>
donor molecule, donor type, donor heavy atom, donor atom, acceptor molecule, acceptor atom, score
      L1  H    12    26       P1  8028  0.98
      P1  H  7989  7998       L1     9  0.78
      P1  H  7997  8009       L1    17  1.00
      P1  H  8011  8017       L1    12  0.03
      P1  H 10752 10764       L1     5  0.41
      P1  H 10752 10765       L1     1  1.92

> <Gold.PLP.Chemscore.Internal.Correction>
0.0155

> <Gold.Rescore>
     Score         DG    S(hbond)    S(metal)    S(lipo)     H(rot)  DE(clash)    DE(int)     intcor
      8.99      -9.39       3.43        0.00      23.83       4.04       0.10       0.30       ----

> <Gold.Chemscore.Fitness>
8.9858

> <Gold.Chemscore.DG>
-9.3872

> <Gold.Chemscore.ZeroCoef>
-5.4800

> <Gold.Chemscore.Hbond>
3.4317

> <Gold.Chemscore.Metal>
0.0000

> <Gold.Chemscore.Lipo>
23.8314

> <Gold.Chemscore.Internal_Hbond>
0.0000

> <Gold.Chemscore.DEClash>
0.1004

> <Gold.Chemscore.DEInternal>
0.3010

> <Gold.Chemscore.Rot>
4.0403

> <Gold.Chemscore.Internal.Correction>
   9.000000E+99

> <Gold.Chemscore.Hbonds>
donor molecule, donor type, donor heavy atom, donor atom, acceptor molecule, acceptor atom, score
      L1  H    12    26       P1  8028  0.92
      P1  H  7989  7998       L1     9  0.20
      P1  H  7997  8009       L1    17  0.14
      P1  H  8011  8017       L1    12  0.02
      P1  H 10752 10764       L1     5  0.40
      P1  H 10752 10765       L1     1  0.28

> <Gold.Chemscore.Hbond.Weighted>
-11.4620

> <Gold.Chemscore.Metal.Weighted>
-0.0000

> <Gold.Chemscore.Lipo.Weighted>
-2.7883

> <Gold.Chemscore.Internal_Hbond.Weighted>
0.0000

> <Gold.Chemscore.DEClash.Weighted>
0.1004

> <Gold.Chemscore.DEInternal.Weighted>
0.3010

> <Gold.Chemscore.Rot.Weighted>
10.3431

> <Gold.Chemscore.Internal.Correction.Weighted>
   9.000000E+99

> <Gold.Protein.RotatedTorsions>
[ 6907 6896 6895 6894 ] final -140.14 input  -60.11 | X-H torsion
[ 7974 7965 7964 7962 ] final   23.74 input  175.53 | X-H torsion
[ 8008 7997 7996 7995 ] final -170.95 input   59.86 | X-H torsion
[ 10167 10162 10161 10158 ] final  135.26 input  -65.29 | X-H torsion
[ 10718 10713 10712 10709 ] final   -0.51 input   66.30 | X-H torsion
[ 10763 10752 10751 10750 ] final  -70.90 input  -60.55 | X-H torsion
[ 11005 11000 10999 10996 ] final   72.39 input  -57.11 | X-H torsion

> <Gold.Protein.ActiveResidues>
 VAL166  LYS551  ARG553  GLY616  TRP617  ASP618  TYR619  PRO620  LYS621  CYS622 
 ASP623  PHE694  ASN695  SER759  ASP760  ASP761  ALA762  ILE779  LEU786  VAL792 
 PHE793  MET794  SER795  GLU796  ALA797  LYS798  CYS799  TRP800  GLU811  SER814 

> <Gold.Protein.RotatedAtoms>
  151.0569  133.5577  159.2637 H   0  0  0  0  0  0  0  0  0  0  0  0  # atno 6907 bound_to 6896
  151.2567  135.0639  159.9092 H   0  0  0  0  0  0  0  0  0  0  0  0  # atno 6908 bound_to 6896
  152.5391  134.0320  159.8083 H   0  0  0  0  0  0  0  0  0  0  0  0  # atno 6909 bound_to 6896
  146.1970  139.7702  142.8790 H   0  0  0  0  0  0  0  0  0  0  0  0  # atno 7974 bound_to 7965
  155.9252  140.1081  157.1176 H   0  0  0  0  0  0  0  0  0  0  0  0  # atno 8008 bound_to 7997
  154.4061  140.1248  156.4796 H   0  0  0  0  0  0  0  0  0  0  0  0  # atno 8009 bound_to 7997
  155.7148  140.3470  155.4992 H   0  0  0  0  0  0  0  0  0  0  0  0  # atno 8010 bound_to 7997
  139.5224  144.6526  151.5257 H   0  0  0  0  0  0  0  0  0  0  0  0  # atno 10167 bound_to 10162
  156.8193  130.5451  149.5699 H   0  0  0  0  0  0  0  0  0  0  0  0  # atno 10718 bound_to 10713
  154.4242  135.5979  153.6028 H   0  0  0  0  0  0  0  0  0  0  0  0  # atno 10763 bound_to 10752
  152.9795  135.5959  154.3918 H   0  0  0  0  0  0  0  0  0  0  0  0  # atno 10764 bound_to 10752
  154.3747  135.2841  155.2224 H   0  0  0  0  0  0  0  0  0  0  0  0  # atno 10765 bound_to 10752
  139.9493  134.7255  156.0901 H   0  0  0  0  0  0  0  0  0  0  0  0  # atno 11005 bound_to 11000
  145.3610  141.0325  143.3285 LP  0  0  0  0  0  0  0  0  0  0  0  0  # atno 17320 bound_to 7965
  144.8602  139.5189  143.6816 LP  0  0  0  0  0  0  0  0  0  0  0  0  # atno 17321 bound_to 7965
  140.6337  143.9025  150.6628 LP  0  0  0  0  0  0  0  0  0  0  0  0  # atno 17342 bound_to 10162
  140.2338  143.3716  152.1544 LP  0  0  0  0  0  0  0  0  0  0  0  0  # atno 17343 bound_to 10162
  156.0998  130.5960  150.9875 LP  0  0  0  0  0  0  0  0  0  0  0  0  # atno 17370 bound_to 10713
  157.6465  131.0903  150.8142 LP  0  0  0  0  0  0  0  0  0  0  0  0  # atno 17371 bound_to 10713
  141.1152  133.6630  156.3077 LP  0  0  0  0  0  0  0  0  0  0  0  0  # atno 17394 bound_to 11000
  140.5757  134.5796  157.5468 LP  0  0  0  0  0  0  0  0  0  0  0  0  # atno 17395 bound_to 11000

$$$$
