AV-unprocessed.smi:3344|AV-procd|sdf|12898|dock1
  -GOLD-   2272019303D 1   1.00000     0.00000
 Structure written by MMmdl.
 43 44  0  0  0  0  0  0  0  0  2 V2000
  148.8259  141.4961  154.2105 C   0  0  0  0  0  0  0  0  0  0  0  0
  148.5892  140.1645  154.9515 C   0  0  1  0  0  0  0  0  0  0  0  0
  147.4142  139.3652  154.3663 C   0  0  0  0  0  0  0  0  0  0  0  0
  146.4359  139.0859  155.0602 O   0  0  0  0  0  0  0  0  0  0  0  0
  147.5226  139.0001  153.0788 N   0  0  0  0  0  0  0  0  0  0  0  0
  146.5117  138.2583  152.3344 C   0  0  0  0  0  0  0  0  0  0  0  0
  146.2242  136.8874  152.9790 C   0  0  0  0  0  0  0  0  0  0  0  0
  146.5388  135.7451  152.0790 N   0  3  0  0  0  0  0  0  0  0  0  0
  145.8682  135.8661  150.7540 C   0  0  0  0  0  0  0  0  0  0  0  0
  144.4357  135.3010  150.7056 C   0  0  0  0  0  0  0  0  0  0  0  0
  144.3978  133.8225  150.2891 C   0  0  0  0  0  0  0  0  0  0  0  0
  144.9544  132.8582  151.3449 C   0  0  0  0  0  0  0  0  0  0  0  0
  146.3758  133.1966  151.8253 C   0  0  0  0  0  0  0  0  0  0  0  0
  146.4184  134.4228  152.7584 C   0  0  0  0  0  0  0  0  0  0  0  0
  149.7896  139.3383  154.9944 N   0  0  0  0  0  0  0  0  0  0  0  0
  149.9718  138.0692  154.6227 C   0  0  0  0  0  0  0  0  0  0  0  0
  151.2189  137.6408  154.7601 N   0  0  0  0  0  0  0  0  0  0  0  0
  151.7982  138.7781  155.2471 C   0  0  0  0  0  0  0  0  0  0  0  0
  150.9897  139.8273  155.3959 N   0  0  0  0  0  0  0  0  0  0  0  0
  147.9324  142.1211  154.2306 H   0  0  0  0  0  0  0  0  0  0  0  0
  149.0974  141.3430  153.1650 H   0  0  0  0  0  0  0  0  0  0  0  0
  149.6308  142.0630  154.6793 H   0  0  0  0  0  0  0  0  0  0  0  0
  148.3347  140.4127  155.9835 H   0  0  0  0  0  0  0  0  0  0  0  0
  148.3569  139.2684  152.5770 H   0  0  0  0  0  0  0  0  0  0  0  0
  145.5964  138.8483  152.2603 H   0  0  0  0  0  0  0  0  0  0  0  0
  146.8888  138.1373  151.3192 H   0  0  0  0  0  0  0  0  0  0  0  0
  146.7777  136.7829  153.9132 H   0  0  0  0  0  0  0  0  0  0  0  0
  145.1667  136.8504  153.2429 H   0  0  0  0  0  0  0  0  0  0  0  0
  145.8519  136.9137  150.4506 H   0  0  0  0  0  0  0  0  0  0  0  0
  146.4876  135.3774  150.0011 H   0  0  0  0  0  0  0  0  0  0  0  0
  143.9083  135.4611  151.6467 H   0  0  0  0  0  0  0  0  0  0  0  0
  143.8781  135.8642  149.9563 H   0  0  0  0  0  0  0  0  0  0  0  0
  143.3662  133.5415  150.0736 H   0  0  0  0  0  0  0  0  0  0  0  0
  144.9412  133.6920  149.3524 H   0  0  0  0  0  0  0  0  0  0  0  0
  144.2772  132.8186  152.1991 H   0  0  0  0  0  0  0  0  0  0  0  0
  144.9554  131.8524  150.9233 H   0  0  0  0  0  0  0  0  0  0  0  0
  146.7340  132.3380  152.3948 H   0  0  0  0  0  0  0  0  0  0  0  0
  147.0695  133.2993  150.9902 H   0  0  0  0  0  0  0  0  0  0  0  0
  147.2842  134.3165  153.4120 H   0  0  0  0  0  0  0  0  0  0  0  0
  145.5454  134.4151  153.4128 H   0  0  0  0  0  0  0  0  0  0  0  0
  149.1767  137.4455  154.2406 H   0  0  0  0  0  0  0  0  0  0  0  0
  152.8484  138.8370  155.4927 H   0  0  0  0  0  0  0  0  0  0  0  0
  147.5203  135.8476  151.8630 H   0  0  0  0  0  0  0  0  0  0  0  0
  1  2  1  0  0  0  0
  1 20  1  0  0  0  0
  1 21  1  0  0  0  0
  1 22  1  0  0  0  0
  2  3  1  0  0  0  0
  2 15  1  0  0  0  0
  2 23  1  0  0  0  0
  3  4  2  0  0  0  0
  3  5  1  0  0  0  0
  5  6  1  0  0  0  0
  5 24  1  0  0  0  0
  6  7  1  0  0  0  0
  6 25  1  0  0  0  0
  6 26  1  0  0  0  0
  7  8  1  0  0  0  0
  7 27  1  0  0  0  0
  7 28  1  0  0  0  0
  8 14  1  0  0  0  0
  8  9  1  0  0  0  0
  8 43  1  0  0  0  0
  9 10  1  0  0  0  0
  9 29  1  0  0  0  0
  9 30  1  0  0  0  0
 10 11  1  0  0  0  0
 10 31  1  0  0  0  0
 10 32  1  0  0  0  0
 11 12  1  0  0  0  0
 11 33  1  0  0  0  0
 11 34  1  0  0  0  0
 12 13  1  0  0  0  0
 12 35  1  0  0  0  0
 12 36  1  0  0  0  0
 13 14  1  0  0  0  0
 13 37  1  0  0  0  0
 13 38  1  0  0  0  0
 14 39  1  0  0  0  0
 14 40  1  0  0  0  0
 15 19  1  0  0  0  0
 15 16  1  0  0  0  0
 16 17  2  0  0  0  0
 16 41  1  0  0  0  0
 17 18  1  0  0  0  0
 18 19  2  0  0  0  0
 18 42  1  0  0  0  0
M  CHG  1   8   1
M  END
> <s_m_source_file>
AV-unprocessed.smi

> <i_m_source_file_index>
3344

> <i_lp_mmshare_version>
43012

> <i_f3d_flags>
0

> <s_epik_input>
bjFbY0hdbltjSF1uMVtDQEhdKFtDSDNdKUMoPU8pW05IXVtDSDJdW0NIMl1OMltDSDJdW0NIMl1bQ0gyXVtDSDJdW0NIMl1bQ0gyXTI=

> <s_epik_cmdline>
J2VwaWtfcHl0aG9uJywgJy1waCcsICc3LjAnLCAnLXRuJywgJzgnLCAnLW1hJywgJzIwMCcsICctbWV0YWxfYmluZGluZycsICctaW1hZScsICc8aW5maWxlLm1hZT4nLCAnLW9tYWUnLCAnPG91dGZpbGUubWFlPic=

> <r_lp_tautomer_probability>
1

> <r_epik_Ionization_Penalty>
0.00266407

> <r_epik_Ionization_Penalty_Charging>
0.00265606

> <r_epik_Ionization_Penalty_Neutral>
8.01095e-06

> <r_epik_State_Penalty>
0.00184955

> <r_epik_Charging_Adjusted_Penalty>
0.00450561

> <i_epik_Tot_Q>
1

> <i_epik_Tot_abs_Q>
1

> <r_epik_Metal_State_Penalty>
-0

> <b_epik_Metal_Only>
0

> <s_lp_Force_Field>
OPLS_2005

> <r_lp_Energy>
28.0166

> <b_lp_Chiralities_Consistent>
1

> <s_lp_Variant>
AV-unprocessed.smi:3344-2

> <Gold.Version>
5.8.1

> <Gold.Id.Protein>
6NUR|6NUR_protein|mol2

> <Gold.PLP.Fitness>
46.2043

> <Gold.PLP.PLP>
-32.1020

> <Gold.PLP.part.hbond>
-3.0899

> <Gold.PLP.part.metal>
0.0000

> <Gold.PLP.part.buried>
-1.1686

> <Gold.PLP.part.nonpolar>
-29.1177

> <Gold.PLP.part.repulsive>
0.3723

> <Gold.PLP.ligand.clash>
0.0000

> <Gold.PLP.ligand.torsion>
0.5090

> <Gold.PLP.Chemscore.Hbond>
4.0000

> <Gold.PLP.Chemscore.CHOScore>
0.9704

> <Gold.PLP.Chemscore.Metal>
0.0000

> <Gold.Chemscore.Hbonds>
donor molecule, donor type, donor heavy atom, donor atom, acceptor molecule, acceptor atom, score
      L1  H     5    24       P1  7957  1.00
      L1  H     8    43       P1  7948  1.62
      P1  H  7989  7998       L1    19  0.33
      L1  C    16    41       P1  7948  0.65

> <Gold.PLP.Chemscore.Internal.Correction>
0.2092

> <Gold.Rescore>
     Score         DG    S(hbond)    S(metal)    S(lipo)     H(rot)  DE(clash)    DE(int)     intcor
     12.60     -14.78       2.42        0.00      66.03       2.54       1.53       0.65       ----

> <Gold.Chemscore.Fitness>
12.6010

> <Gold.Chemscore.DG>
-14.7763

> <Gold.Chemscore.ZeroCoef>
-5.4800

> <Gold.Chemscore.Hbond>
2.4154

> <Gold.Chemscore.Metal>
0.0000

> <Gold.Chemscore.Lipo>
66.0300

> <Gold.Chemscore.Internal_Hbond>
0.0000

> <Gold.Chemscore.DEClash>
1.5269

> <Gold.Chemscore.DEInternal>
0.6485

> <Gold.Chemscore.Rot>
2.5377

> <Gold.Chemscore.Internal.Correction>
   9.000000E+99

> <Gold.Chemscore.Hbonds>
donor molecule, donor type, donor heavy atom, donor atom, acceptor molecule, acceptor atom, score
      L1  H     5    24       P1  7957  0.93
      L1  H     8    43       P1  7948  0.79
      P1  H  7989  7998       L1    19  0.01

> <Gold.Chemscore.Hbond.Weighted>
-8.0673

> <Gold.Chemscore.Metal.Weighted>
-0.0000

> <Gold.Chemscore.Lipo.Weighted>
-7.7255

> <Gold.Chemscore.Internal_Hbond.Weighted>
0.0000

> <Gold.Chemscore.DEClash.Weighted>
1.5269

> <Gold.Chemscore.DEInternal.Weighted>
0.6485

> <Gold.Chemscore.Rot.Weighted>
6.4966

> <Gold.Chemscore.Internal.Correction.Weighted>
   9.000000E+99

> <Gold.Protein.RotatedTorsions>
[ 6907 6896 6895 6894 ] final   67.53 input  -60.11 | X-H torsion
[ 7974 7965 7964 7962 ] final  132.51 input  175.53 | X-H torsion
[ 8008 7997 7996 7995 ] final   95.88 input   59.86 | X-H torsion
[ 10167 10162 10161 10158 ] final  -14.87 input  -65.29 | X-H torsion
[ 10718 10713 10712 10709 ] final  -52.71 input   66.30 | X-H torsion
[ 10763 10752 10751 10750 ] final -105.35 input  -60.55 | X-H torsion
[ 11005 11000 10999 10996 ] final   64.73 input  -57.11 | X-H torsion

> <Gold.Protein.ActiveResidues>
 VAL166  LYS551  ARG553  GLY616  TRP617  ASP618  TYR619  PRO620  LYS621  CYS622 
 ASP623  PHE694  ASN695  SER759  ASP760  ASP761  ALA762  ILE779  LEU786  VAL792 
 PHE793  MET794  SER795  GLU796  ALA797  LYS798  CYS799  TRP800  GLU811  SER814 

> <Gold.Protein.RotatedAtoms>
  152.4558  134.5294  159.9806 H   0  0  0  0  0  0  0  0  0  0  0  0  # atno 6907 bound_to 6896
  151.5355  133.3436  159.2934 H   0  0  0  0  0  0  0  0  0  0  0  0  # atno 6908 bound_to 6896
  150.8502  134.7855  159.7066 H   0  0  0  0  0  0  0  0  0  0  0  0  # atno 6909 bound_to 6896
  144.9961  139.4358  143.5315 H   0  0  0  0  0  0  0  0  0  0  0  0  # atno 7974 bound_to 7965
  156.0737  140.3280  155.7607 H   0  0  0  0  0  0  0  0  0  0  0  0  # atno 8008 bound_to 7997
  155.5265  140.0589  157.2914 H   0  0  0  0  0  0  0  0  0  0  0  0  # atno 8009 bound_to 7997
  154.4544  140.1935  156.0441 H   0  0  0  0  0  0  0  0  0  0  0  0  # atno 8010 bound_to 7997
  140.7209  143.5277  150.9557 H   0  0  0  0  0  0  0  0  0  0  0  0  # atno 10167 bound_to 10162
  156.1597  130.4150  149.9812 H   0  0  0  0  0  0  0  0  0  0  0  0  # atno 10718 bound_to 10713
  154.7941  135.4752  154.0119 H   0  0  0  0  0  0  0  0  0  0  0  0  # atno 10763 bound_to 10752
  153.1675  135.6819  153.8661 H   0  0  0  0  0  0  0  0  0  0  0  0  # atno 10764 bound_to 10752
  153.8254  135.3198  155.3392 H   0  0  0  0  0  0  0  0  0  0  0  0  # atno 10765 bound_to 10752
  139.9940  134.6547  156.0042 H   0  0  0  0  0  0  0  0  0  0  0  0  # atno 11005 bound_to 11000
  146.3442  139.9322  142.8752 LP  0  0  0  0  0  0  0  0  0  0  0  0  # atno 17320 bound_to 7965
  145.2218  140.9938  143.4041 LP  0  0  0  0  0  0  0  0  0  0  0  0  # atno 17321 bound_to 7965
  139.8996  143.6852  152.3133 LP  0  0  0  0  0  0  0  0  0  0  0  0  # atno 17342 bound_to 10162
  139.7197  144.7605  151.0976 LP  0  0  0  0  0  0  0  0  0  0  0  0  # atno 17343 bound_to 10162
  156.7645  130.9163  151.3642 LP  0  0  0  0  0  0  0  0  0  0  0  0  # atno 17370 bound_to 10713
  157.6723  130.9062  150.0069 LP  0  0  0  0  0  0  0  0  0  0  0  0  # atno 17371 bound_to 10713
  141.1589  133.6540  156.4253 LP  0  0  0  0  0  0  0  0  0  0  0  0  # atno 17394 bound_to 11000
  140.4854  134.6625  157.5188 LP  0  0  0  0  0  0  0  0  0  0  0  0  # atno 17395 bound_to 11000

$$$$
