AV-unprocessed.smi:496|AV-procd|sdf|2720|dock8
  -GOLD-   2262023163D 1   1.00000     0.00000
 Structure written by MMmdl.
 41 43  0  0  0  0  0  0  0  0  2 V2000
  147.9535  141.5224  154.4093 C   0  0  0  0  0  0  0  0  0  0  0  0
  149.2990  141.1467  154.6409 O   0  0  0  0  0  0  0  0  0  0  0  0
  149.6137  141.0744  156.0223 C   0  0  0  0  0  0  0  0  0  0  0  0
  150.5239  142.2501  156.4093 C   0  0  0  0  0  0  0  0  0  0  0  0
  151.2228  142.0210  157.6771 N   0  0  0  0  0  0  0  0  0  0  0  0
  151.7305  140.8694  158.2167 C   0  0  0  0  0  0  0  0  0  0  0  0
  151.6641  139.5048  157.5512 C   0  0  2  0  0  0  0  0  0  0  0  0
  150.9143  138.4869  158.4233 C   0  0  0  0  0  0  0  0  0  0  0  0
  152.9921  138.9804  157.2254 N   0  5  0  0  0  0  0  0  0  0  0  0
  153.2067  137.8552  156.4861 C   0  0  0  0  0  0  0  0  0  0  0  0
  152.4167  137.2000  155.7974 O   0  0  0  0  0  0  0  0  0  0  0  0
  154.6039  137.3779  156.5954 C   0  0  0  0  0  0  0  0  0  0  0  0
  155.6336  137.7386  157.4273 C   0  0  0  0  0  0  0  0  0  0  0  0
  156.7601  136.9563  157.0510 C   0  0  0  0  0  0  0  0  0  0  0  0
  156.3444  136.1796  156.0085 C   0  0  0  0  0  0  0  0  0  0  0  0
  155.0396  136.4293  155.7143 O   0  0  0  0  0  0  0  0  0  0  0  0
  152.3314  141.0181  159.4024 N   0  0  0  0  0  0  0  0  0  0  0  0
  152.1904  142.3643  159.6646 C   0  0  0  0  0  0  0  0  0  0  0  0
  152.6120  143.1310  160.7745 C   0  0  0  0  0  0  0  0  0  0  0  0
  152.3475  144.5149  160.8282 C   0  0  0  0  0  0  0  0  0  0  0  0
  151.6588  145.1496  159.7747 C   0  0  0  0  0  0  0  0  0  0  0  0
  151.2320  144.4027  158.6596 C   0  0  0  0  0  0  0  0  0  0  0  0
  151.4995  143.0205  158.6095 C   0  0  0  0  0  0  0  0  0  0  0  0
  147.7642  141.5619  153.3368 H   0  0  0  0  0  0  0  0  0  0  0  0
  147.7431  142.5089  154.8244 H   0  0  0  0  0  0  0  0  0  0  0  0
  147.2619  140.8022  154.8480 H   0  0  0  0  0  0  0  0  0  0  0  0
  148.6978  141.0984  156.6141 H   0  0  0  0  0  0  0  0  0  0  0  0
  150.1159  140.1312  156.2413 H   0  0  0  0  0  0  0  0  0  0  0  0
  151.2445  142.4627  155.6193 H   0  0  0  0  0  0  0  0  0  0  0  0
  149.9254  143.1561  156.5022 H   0  0  0  0  0  0  0  0  0  0  0  0
  151.0694  139.6051  156.6434 H   0  0  0  0  0  0  0  0  0  0  0  0
  149.9050  138.8352  158.6442 H   0  0  0  0  0  0  0  0  0  0  0  0
  151.4229  138.3197  159.3735 H   0  0  0  0  0  0  0  0  0  0  0  0
  150.8265  137.5239  157.9193 H   0  0  0  0  0  0  0  0  0  0  0  0
  155.5807  138.4775  158.2135 H   0  0  0  0  0  0  0  0  0  0  0  0
  157.7486  136.9642  157.4855 H   0  0  0  0  0  0  0  0  0  0  0  0
  156.8229  135.4358  155.3886 H   0  0  0  0  0  0  0  0  0  0  0  0
  153.1390  142.6512  161.5857 H   0  0  0  0  0  0  0  0  0  0  0  0
  152.6733  145.0913  161.6814 H   0  0  0  0  0  0  0  0  0  0  0  0
  151.4578  146.2096  159.8226 H   0  0  0  0  0  0  0  0  0  0  0  0
  150.7018  144.8876  157.8538 H   0  0  0  0  0  0  0  0  0  0  0  0
  1  2  1  0  0  0  0
  1 24  1  0  0  0  0
  1 25  1  0  0  0  0
  1 26  1  0  0  0  0
  2  3  1  0  0  0  0
  3  4  1  0  0  0  0
  3 27  1  0  0  0  0
  3 28  1  0  0  0  0
  4  5  1  0  0  0  0
  4 29  1  0  0  0  0
  4 30  1  0  0  0  0
  5 23  1  0  0  0  0
  5  6  1  0  0  0  0
  6  7  1  0  0  0  0
  6 17  2  0  0  0  0
  7  8  1  0  0  0  0
  7  9  1  0  0  0  0
  7 31  1  0  0  0  0
  8 32  1  0  0  0  0
  8 33  1  0  0  0  0
  8 34  1  0  0  0  0
  9 10  1  0  0  0  0
 10 11  2  0  0  0  0
 10 12  1  0  0  0  0
 12 16  1  0  0  0  0
 12 13  2  0  0  0  0
 13 14  1  0  0  0  0
 13 35  1  0  0  0  0
 14 15  2  0  0  0  0
 14 36  1  0  0  0  0
 15 16  1  0  0  0  0
 15 37  1  0  0  0  0
 17 18  1  0  0  0  0
 18 23  2  0  0  0  0
 18 19  1  0  0  0  0
 19 20  2  0  0  0  0
 19 38  1  0  0  0  0
 20 21  1  0  0  0  0
 20 39  1  0  0  0  0
 21 22  2  0  0  0  0
 21 40  1  0  0  0  0
 22 23  1  0  0  0  0
 22 41  1  0  0  0  0
M  CHG  1   9  -1
M  END
> <s_m_source_file>
AV-unprocessed.smi

> <i_m_source_file_index>
496

> <i_lp_mmshare_version>
43012

> <i_f3d_flags>
0

> <s_epik_input>
W2NIXTFbY0hdW2NIXVtjSF1jKGMxMiluKFtDSDJdW0NIMl1PW0NIM10pYyhuMilbQ0BIXShbQ0gzXSlbTkhdQyg9TyljM1tjSF1bY0hdW2NIXW8z

> <s_epik_cmdline>
J2VwaWtfcHl0aG9uJywgJy1waCcsICc3LjAnLCAnLXRuJywgJzgnLCAnLW1hJywgJzIwMCcsICctbWV0YWxfYmluZGluZycsICctaW1hZScsICc8aW5maWxlLm1hZT4nLCAnLW9tYWUnLCAnPG91dGZpbGUubWFlPic=

> <r_epik_Ionization_Penalty>
7.3423

> <r_epik_Ionization_Penalty_Charging>
6.43826

> <r_epik_Ionization_Penalty_Neutral>
0.90404

> <r_epik_State_Penalty>
6.54438

> <r_epik_Charging_Adjusted_Penalty>
12.9826

> <i_epik_Tot_Q>
-1

> <i_epik_Tot_abs_Q>
1

> <r_epik_Metal_State_Penalty>
2.56942

> <b_epik_Metal_Only>
1

> <s_lp_Force_Field>
OPLS_2005

> <r_lp_Energy>
15.948

> <b_lp_Chiralities_Consistent>
1

> <s_lp_Variant>
AV-unprocessed.smi:496-5

> <Gold.Version>
5.8.1

> <Gold.Id.Protein>
6NUR|6NUR_protein|mol2

> <Gold.PLP.Fitness>
54.5144

> <Gold.PLP.PLP>
-43.3511

> <Gold.PLP.part.hbond>
-4.0000

> <Gold.PLP.part.metal>
0.0000

> <Gold.PLP.part.buried>
-7.4599

> <Gold.PLP.part.nonpolar>
-32.8952

> <Gold.PLP.part.repulsive>
0.1246

> <Gold.PLP.ligand.clash>
0.0000

> <Gold.PLP.ligand.torsion>
0.9203

> <Gold.PLP.Chemscore.Hbond>
4.2720

> <Gold.PLP.Chemscore.CHOScore>
0.0000

> <Gold.PLP.Chemscore.Metal>
0.0000

> <Gold.Chemscore.Hbonds>
donor molecule, donor type, donor heavy atom, donor atom, acceptor molecule, acceptor atom, score
      P1  H  7997  8008       L1     9  2.00
      P1  H 10752 10764       L1    11  0.77
      P1  H 10752 10765       L1    16  0.31

> <Gold.PLP.Chemscore.Internal.Correction>
0.1879

> <Gold.Rescore>
     Score         DG    S(hbond)    S(metal)    S(lipo)     H(rot)  DE(clash)    DE(int)     intcor
     20.03     -21.01       2.01        0.00     114.25       1.78       0.42       0.56       ----

> <Gold.Chemscore.Fitness>
20.0344

> <Gold.Chemscore.DG>
-21.0146

> <Gold.Chemscore.ZeroCoef>
-5.4800

> <Gold.Chemscore.Hbond>
2.0146

> <Gold.Chemscore.Metal>
0.0000

> <Gold.Chemscore.Lipo>
114.2514

> <Gold.Chemscore.Internal_Hbond>
0.0000

> <Gold.Chemscore.DEClash>
0.4185

> <Gold.Chemscore.DEInternal>
0.5617

> <Gold.Chemscore.Rot>
1.7819

> <Gold.Chemscore.Internal.Correction>
   9.000000E+99

> <Gold.Chemscore.Hbonds>
donor molecule, donor type, donor heavy atom, donor atom, acceptor molecule, acceptor atom, score
      P1  H  7997  8008       L1     9  0.45
      P1  H 10752 10764       L1    11  0.73
      P1  H 10752 10765       L1    16  0.10

> <Gold.Chemscore.Hbond.Weighted>
-6.7288

> <Gold.Chemscore.Metal.Weighted>
-0.0000

> <Gold.Chemscore.Lipo.Weighted>
-13.3674

> <Gold.Chemscore.Internal_Hbond.Weighted>
0.0000

> <Gold.Chemscore.DEClash.Weighted>
0.4185

> <Gold.Chemscore.DEInternal.Weighted>
0.5617

> <Gold.Chemscore.Rot.Weighted>
4.5617

> <Gold.Chemscore.Internal.Correction.Weighted>
   9.000000E+99

> <Gold.Protein.RotatedTorsions>
[ 6907 6896 6895 6894 ] final   17.83 input  -60.11 | X-H torsion
[ 7974 7965 7964 7962 ] final  -70.07 input  175.53 | X-H torsion
[ 8008 7997 7996 7995 ] final  -76.88 input   59.86 | X-H torsion
[ 10167 10162 10161 10158 ] final   -9.55 input  -65.29 | X-H torsion
[ 10718 10713 10712 10709 ] final  167.94 input   66.30 | X-H torsion
[ 10763 10752 10751 10750 ] final  -44.85 input  -60.55 | X-H torsion
[ 11005 11000 10999 10996 ] final  116.04 input  -57.11 | X-H torsion

> <Gold.Protein.ActiveResidues>
 VAL166  LYS551  ARG553  GLY616  TRP617  ASP618  TYR619  PRO620  LYS621  CYS622 
 ASP623  PHE694  ASN695  SER759  ASP760  ASP761  ALA762  ILE779  LEU786  VAL792 
 PHE793  MET794  SER795  GLU796  ALA797  LYS798  CYS799  TRP800  GLU811  SER814 

> <Gold.Protein.RotatedAtoms>
  151.8558  135.0542  160.0463 H   0  0  0  0  0  0  0  0  0  0  0  0  # atno 6907 bound_to 6896
  152.2701  133.5370  159.5442 H   0  0  0  0  0  0  0  0  0  0  0  0  # atno 6908 bound_to 6896
  150.7148  134.0625  159.3878 H   0  0  0  0  0  0  0  0  0  0  0  0  # atno 6909 bound_to 6896
  145.6957  140.9136  143.0758 H   0  0  0  0  0  0  0  0  0  0  0  0  # atno 7974 bound_to 7965
  154.5545  140.0719  156.8722 H   0  0  0  0  0  0  0  0  0  0  0  0  # atno 8008 bound_to 7997
  155.2928  140.3379  155.4233 H   0  0  0  0  0  0  0  0  0  0  0  0  # atno 8009 bound_to 7997
  156.1990  140.1714  156.7924 H   0  0  0  0  0  0  0  0  0  0  0  0  # atno 8010 bound_to 7997
  140.7090  143.5845  150.8957 H   0  0  0  0  0  0  0  0  0  0  0  0  # atno 10167 bound_to 10162
  157.0443  131.0295  151.2703 H   0  0  0  0  0  0  0  0  0  0  0  0  # atno 10718 bound_to 10713
  154.0189  135.6672  153.4771 H   0  0  0  0  0  0  0  0  0  0  0  0  # atno 10763 bound_to 10752
  153.0589  135.5040  154.8042 H   0  0  0  0  0  0  0  0  0  0  0  0  # atno 10764 bound_to 10752
  154.6950  135.3068  154.9390 H   0  0  0  0  0  0  0  0  0  0  0  0  # atno 10765 bound_to 10752
  139.9029  134.9592  156.7138 H   0  0  0  0  0  0  0  0  0  0  0  0  # atno 11005 bound_to 11000
  144.6983  139.8881  143.7451 LP  0  0  0  0  0  0  0  0  0  0  0  0  # atno 17320 bound_to 7965
  146.0842  139.3830  143.0445 LP  0  0  0  0  0  0  0  0  0  0  0  0  # atno 17321 bound_to 7965
  139.9571  143.6206  152.3013 LP  0  0  0  0  0  0  0  0  0  0  0  0  # atno 17342 bound_to 10162
  139.6745  144.7659  151.1721 LP  0  0  0  0  0  0  0  0  0  0  0  0  # atno 17343 bound_to 10162
  157.5080  130.7921  149.7675 LP  0  0  0  0  0  0  0  0  0  0  0  0  # atno 17370 bound_to 10713
  156.0028  130.3871  150.2542 LP  0  0  0  0  0  0  0  0  0  0  0  0  # atno 17371 bound_to 10713
  140.7055  133.9269  155.8051 LP  0  0  0  0  0  0  0  0  0  0  0  0  # atno 17394 bound_to 11000
  141.0340  134.0716  157.3981 LP  0  0  0  0  0  0  0  0  0  0  0  0  # atno 17395 bound_to 11000

$$$$
