AV-unprocessed.smi:21|AV-procd|sdf|139|dock3
  -GOLD-   2262015343D 1   1.00000     0.00000
 Structure written by MMmdl.
 62 65  0  0  0  0  0  0  0  0  2 V2000
  151.9405  144.0292  158.9564 C   0  0  0  0  0  0  0  0  0  0  0  0
  152.1454  142.7366  158.4082 O   0  0  0  0  0  0  0  0  0  0  0  0
  151.2021  141.7702  158.8528 C   0  0  1  0  0  0  0  0  0  0  0  0
  149.8179  142.1996  158.3835 C   0  0  0  0  0  0  0  0  0  0  0  0
  149.7431  141.6756  156.9462 C   0  0  2  0  0  0  0  0  0  0  0  0
  148.3043  141.4783  156.4243 C   0  0  0  0  0  0  0  0  0  0  0  0
  148.2528  140.6791  155.1985 N   0  0  0  0  0  0  0  0  0  0  0  0
  148.3664  141.3732  153.9221 C   0  0  0  0  0  0  0  0  0  0  0  0
  147.7091  139.4310  155.2413 C   0  0  0  0  0  0  0  0  0  0  0  0
  147.7193  138.7740  156.4312 N   0  0  0  0  0  0  0  0  0  0  0  0
  147.1930  137.5522  156.5414 C   0  0  0  0  0  0  0  0  0  0  0  0
  146.6020  136.8139  155.6028 N   0  0  0  0  0  0  0  0  0  0  0  0
  146.5737  137.4630  154.4050 C   0  0  0  0  0  0  0  0  0  0  0  0
  147.1081  138.7570  154.1340 C   0  0  0  0  0  0  0  0  0  0  0  0
  146.8878  139.0757  152.7981 N   0  0  0  0  0  0  0  0  0  0  0  0
  146.2707  138.0355  152.3111 C   0  0  0  0  0  0  0  0  0  0  0  0
  146.0189  137.0276  153.2128 N   0  0  0  0  0  0  0  0  0  0  0  0
  145.3312  135.7732  152.9385 C   0  0  0  0  0  0  0  0  0  0  0  0
  145.6931  135.1293  151.5706 C   0  0  2  0  0  0  0  0  0  0  0  0
  144.8777  135.7287  150.3996 C   0  0  0  0  0  0  0  0  0  0  0  0
  145.6562  136.6410  149.6532 O   0  0  0  0  0  0  0  0  0  0  0  0
  145.5778  133.5826  151.6024 C   0  0  2  0  0  0  0  0  0  0  0  0
  146.2658  132.8739  150.4471 C   0  0  0  0  0  0  0  0  0  0  0  0
  145.6278  131.4903  150.4908 C   0  0  0  0  0  0  0  0  0  0  0  0
  144.3014  131.6957  150.9635 O   0  0  0  0  0  0  0  0  0  0  0  0
  144.1574  133.0298  151.4397 C   0  0  0  0  0  0  0  0  0  0  0  0
  150.4931  140.3988  156.9744 N   0  3  1  0  0  0  0  0  0  0  0  0
  151.1541  140.0553  155.6959 C   0  0  0  0  0  0  0  0  0  0  0  0
  151.4181  140.4291  158.1334 C   0  0  0  0  0  0  0  0  0  0  0  0
  151.2306  141.6727  159.9395 H   0  0  0  0  0  0  0  0  0  0  0  0
  150.2806  142.3737  156.3015 H   0  0  0  0  0  0  0  0  0  0  0  0
  152.7094  144.7071  158.5862 H   0  0  0  0  0  0  0  0  0  0  0  0
  151.9970  144.0229  160.0452 H   0  0  0  0  0  0  0  0  0  0  0  0
  150.9708  144.4309  158.6600 H   0  0  0  0  0  0  0  0  0  0  0  0
  149.0609  141.7122  158.9998 H   0  0  0  0  0  0  0  0  0  0  0  0
  149.6613  143.2766  158.4554 H   0  0  0  0  0  0  0  0  0  0  0  0
  147.7162  140.9546  157.1783 H   0  0  0  0  0  0  0  0  0  0  0  0
  147.8108  142.4424  156.2998 H   0  0  0  0  0  0  0  0  0  0  0  0
  148.7603  140.7105  153.1507 H   0  0  0  0  0  0  0  0  0  0  0  0
  149.0475  142.2205  154.0057 H   0  0  0  0  0  0  0  0  0  0  0  0
  147.3964  141.7530  153.6002 H   0  0  0  0  0  0  0  0  0  0  0  0
  147.2502  137.1031  157.5221 H   0  0  0  0  0  0  0  0  0  0  0  0
  145.9664  137.9813  151.2756 H   0  0  0  0  0  0  0  0  0  0  0  0
  145.5726  135.0801  153.7449 H   0  0  0  0  0  0  0  0  0  0  0  0
  144.2576  135.9416  153.0177 H   0  0  0  0  0  0  0  0  0  0  0  0
  146.7412  135.3649  151.3794 H   0  0  0  0  0  0  0  0  0  0  0  0
  144.5571  134.9488  149.7097 H   0  0  0  0  0  0  0  0  0  0  0  0
  143.9733  136.2228  150.7546 H   0  0  0  0  0  0  0  0  0  0  0  0
  145.7758  136.2923  148.7828 H   0  0  0  0  0  0  0  0  0  0  0  0
  145.9789  133.2018  152.5425 H   0  0  0  0  0  0  0  0  0  0  0  0
  146.0253  133.3641  149.5024 H   0  0  0  0  0  0  0  0  0  0  0  0
  147.3503  132.8317  150.5366 H   0  0  0  0  0  0  0  0  0  0  0  0
  145.6347  130.9971  149.5187 H   0  0  0  0  0  0  0  0  0  0  0  0
  146.1552  130.8515  151.2003 H   0  0  0  0  0  0  0  0  0  0  0  0
  143.5914  133.0490  152.3713 H   0  0  0  0  0  0  0  0  0  0  0  0
  143.6024  133.6013  150.6943 H   0  0  0  0  0  0  0  0  0  0  0  0
  151.9106  140.7962  155.4333 H   0  0  0  0  0  0  0  0  0  0  0  0
  150.4275  140.0051  154.8847 H   0  0  0  0  0  0  0  0  0  0  0  0
  151.6402  139.0820  155.7692 H   0  0  0  0  0  0  0  0  0  0  0  0
  152.4585  140.2774  157.8428 H   0  0  0  0  0  0  0  0  0  0  0  0
  151.1466  139.6040  158.7927 H   0  0  0  0  0  0  0  0  0  0  0  0
  149.8192  139.6724  157.1714 H   0  0  0  0  0  0  0  0  0  0  0  0
  1  2  1  0  0  0  0
  1 32  1  0  0  0  0
  1 33  1  0  0  0  0
  1 34  1  0  0  0  0
  2  3  1  0  0  0  0
  3 30  1  0  0  0  0
  3 29  1  0  0  0  0
  3  4  1  0  0  0  0
  4  5  1  0  0  0  0
  4 35  1  0  0  0  0
  4 36  1  0  0  0  0
  5 31  1  0  0  0  0
  5  6  1  0  0  0  0
  5 27  1  0  0  0  0
  6  7  1  0  0  0  0
  6 37  1  0  0  0  0
  6 38  1  0  0  0  0
  7  8  1  0  0  0  0
  7  9  1  0  0  0  0
  8 39  1  0  0  0  0
  8 40  1  0  0  0  0
  8 41  1  0  0  0  0
  9 14  1  0  0  0  0
  9 10  2  0  0  0  0
 10 11  1  0  0  0  0
 11 12  2  0  0  0  0
 11 42  1  0  0  0  0
 12 13  1  0  0  0  0
 13 17  1  0  0  0  0
 13 14  2  0  0  0  0
 14 15  1  0  0  0  0
 15 16  2  0  0  0  0
 16 17  1  0  0  0  0
 16 43  1  0  0  0  0
 17 18  1  0  0  0  0
 18 19  1  0  0  0  0
 18 44  1  0  0  0  0
 18 45  1  0  0  0  0
 19 20  1  0  0  0  0
 19 22  1  0  0  0  0
 19 46  1  0  0  0  0
 20 21  1  0  0  0  0
 20 47  1  0  0  0  0
 20 48  1  0  0  0  0
 21 49  1  0  0  0  0
 22 26  1  0  0  0  0
 22 23  1  0  0  0  0
 22 50  1  0  0  0  0
 23 24  1  0  0  0  0
 23 51  1  0  0  0  0
 23 52  1  0  0  0  0
 24 25  1  0  0  0  0
 24 53  1  0  0  0  0
 24 54  1  0  0  0  0
 25 26  1  0  0  0  0
 26 55  1  0  0  0  0
 26 56  1  0  0  0  0
 27 28  1  0  0  0  0
 27 29  1  0  0  0  0
 27 62  1  0  0  0  0
 28 57  1  0  0  0  0
 28 58  1  0  0  0  0
 28 59  1  0  0  0  0
 29 60  1  0  0  0  0
 29 61  1  0  0  0  0
M  CHG  1  27   1
M  END
> <s_m_source_file>
AV-unprocessed.smi

> <i_m_source_file_index>
21

> <i_lp_mmshare_version>
43012

> <i_f3d_flags>
0

> <s_epik_input>
W0NIM11PW0NASF0xW0NIMl1bQ0BIXShOKFtDSDNdKVtDSDJdMSlbQ0gyXU4oW0NIM10pYyhuW2NIXW4yKWMoYzIzKW5bY0hdbjNbQ0gyXVtDQEhdKFtDSDJdW09IXSlbQ0BASF00W0NIMl1bQ0gyXU9bQ0gyXTQ=

> <s_epik_cmdline>
J2VwaWtfcHl0aG9uJywgJy1waCcsICc3LjAnLCAnLXRuJywgJzgnLCAnLW1hJywgJzIwMCcsICctbWV0YWxfYmluZGluZycsICctaW1hZScsICc8aW5maWxlLm1hZT4nLCAnLW9tYWUnLCAnPG91dGZpbGUubWFlPic=

> <r_lp_tautomer_probability>
1

> <r_epik_Ionization_Penalty>
0.0157465

> <r_epik_Ionization_Penalty_Charging>
0.015354

> <r_epik_Ionization_Penalty_Neutral>
0.000392529

> <r_epik_State_Penalty>
0.0120612

> <r_epik_Charging_Adjusted_Penalty>
0.0274152

> <i_epik_Tot_Q>
1

> <i_epik_Tot_abs_Q>
1

> <r_epik_Metal_State_Penalty>
0.0121253

> <b_epik_Metal_Only>
0

> <s_lp_Force_Field>
OPLS_2005

> <r_lp_Energy>
57.752

> <b_lp_Chiralities_Consistent>
1

> <s_lp_Variant>
AV-unprocessed.smi:21-19

> <Gold.Version>
5.8.1

> <Gold.Id.Protein>
6NUR|6NUR_protein|mol2

> <Gold.PLP.Fitness>
44.7094

> <Gold.PLP.PLP>
-42.0512

> <Gold.PLP.part.hbond>
-2.0000

> <Gold.PLP.part.metal>
0.0000

> <Gold.PLP.part.buried>
-5.3201

> <Gold.PLP.part.nonpolar>
-35.5978

> <Gold.PLP.part.repulsive>
0.5238

> <Gold.PLP.ligand.clash>
0.0000

> <Gold.PLP.ligand.torsion>
1.9227

> <Gold.PLP.Chemscore.Hbond>
1.0000

> <Gold.PLP.Chemscore.CHOScore>
0.9870

> <Gold.PLP.Chemscore.Metal>
0.0000

> <Gold.Chemscore.Hbonds>
donor molecule, donor type, donor heavy atom, donor atom, acceptor molecule, acceptor atom, score
      L1  H    21    49       P1  7921  1.00
      L1  C    16    43       P1 10171  0.78

> <Gold.PLP.Chemscore.Internal.Correction>
0.5427

> <Gold.Rescore>
     Score         DG    S(hbond)    S(metal)    S(lipo)     H(rot)  DE(clash)    DE(int)     intcor
      9.03     -13.29       0.99        0.00     105.75       3.08       0.08       4.18       ----

> <Gold.Chemscore.Fitness>
9.0347

> <Gold.Chemscore.DG>
-13.2897

> <Gold.Chemscore.ZeroCoef>
-5.4800

> <Gold.Chemscore.Hbond>
0.9915

> <Gold.Chemscore.Metal>
0.0000

> <Gold.Chemscore.Lipo>
105.7464

> <Gold.Chemscore.Internal_Hbond>
0.0000

> <Gold.Chemscore.DEClash>
0.0759

> <Gold.Chemscore.DEInternal>
4.1791

> <Gold.Chemscore.Rot>
3.0758

> <Gold.Chemscore.Internal.Correction>
   9.000000E+99

> <Gold.Chemscore.Hbonds>
donor molecule, donor type, donor heavy atom, donor atom, acceptor molecule, acceptor atom, score
      L1  H    21    49       P1  7921  0.95

> <Gold.Chemscore.Hbond.Weighted>
-3.3115

> <Gold.Chemscore.Metal.Weighted>
-0.0000

> <Gold.Chemscore.Lipo.Weighted>
-12.3723

> <Gold.Chemscore.Internal_Hbond.Weighted>
0.0000

> <Gold.Chemscore.DEClash.Weighted>
0.0759

> <Gold.Chemscore.DEInternal.Weighted>
4.1791

> <Gold.Chemscore.Rot.Weighted>
7.8741

> <Gold.Chemscore.Internal.Correction.Weighted>
   9.000000E+99

> <Gold.Protein.RotatedTorsions>
[ 6907 6896 6895 6894 ] final -133.81 input  -60.11 | X-H torsion
[ 7974 7965 7964 7962 ] final -146.92 input  175.53 | X-H torsion
[ 8008 7997 7996 7995 ] final  -65.15 input   59.86 | X-H torsion
[ 10167 10162 10161 10158 ] final  -72.03 input  -65.29 | X-H torsion
[ 10718 10713 10712 10709 ] final  -42.43 input   66.30 | X-H torsion
[ 10763 10752 10751 10750 ] final    2.90 input  -60.55 | X-H torsion
[ 11005 11000 10999 10996 ] final -123.03 input  -57.11 | X-H torsion

> <Gold.Protein.ActiveResidues>
 VAL166  LYS551  ARG553  GLY616  TRP617  ASP618  TYR619  PRO620  LYS621  CYS622 
 ASP623  PHE694  ASN695  SER759  ASP760  ASP761  ALA762  ILE779  LEU786  VAL792 
 PHE793  MET794  SER795  GLU796  ALA797  LYS798  CYS799  TRP800  GLU811  SER814 

> <Gold.Protein.RotatedAtoms>
  150.9785  133.6270  159.2726 H   0  0  0  0  0  0  0  0  0  0  0  0  # atno 6907 bound_to 6896
  151.3534  135.0888  159.9420 H   0  0  0  0  0  0  0  0  0  0  0  0  # atno 6908 bound_to 6896
  152.5207  133.9373  159.7664 H   0  0  0  0  0  0  0  0  0  0  0  0  # atno 6909 bound_to 6896
  144.8127  140.5394  143.5631 H   0  0  0  0  0  0  0  0  0  0  0  0  # atno 7974 bound_to 7965
  154.4654  140.0939  156.7006 H   0  0  0  0  0  0  0  0  0  0  0  0  # atno 8008 bound_to 7997
  155.4873  140.3469  155.4331 H   0  0  0  0  0  0  0  0  0  0  0  0  # atno 8009 bound_to 7997
  156.0947  140.1406  156.9535 H   0  0  0  0  0  0  0  0  0  0  0  0  # atno 8010 bound_to 7997
  140.5226  143.2330  151.7404 H   0  0  0  0  0  0  0  0  0  0  0  0  # atno 10167 bound_to 10162
  156.2597  130.4196  149.8556 H   0  0  0  0  0  0  0  0  0  0  0  0  # atno 10718 bound_to 10713
  153.2899  135.6947  153.7303 H   0  0  0  0  0  0  0  0  0  0  0  0  # atno 10763 bound_to 10752
  153.6258  135.3419  155.3026 H   0  0  0  0  0  0  0  0  0  0  0  0  # atno 10764 bound_to 10752
  154.8521  135.4397  154.1979 H   0  0  0  0  0  0  0  0  0  0  0  0  # atno 10765 bound_to 10752
  140.9950  134.0484  157.3608 H   0  0  0  0  0  0  0  0  0  0  0  0  # atno 11005 bound_to 11000
  145.5285  139.1475  143.3512 LP  0  0  0  0  0  0  0  0  0  0  0  0  # atno 17320 bound_to 7965
  146.2428  140.5426  142.8927 LP  0  0  0  0  0  0  0  0  0  0  0  0  # atno 17321 bound_to 7965
  139.4928  144.4233  151.9953 LP  0  0  0  0  0  0  0  0  0  0  0  0  # atno 17342 bound_to 10162
  140.3330  144.3293  150.5983 LP  0  0  0  0  0  0  0  0  0  0  0  0  # atno 17343 bound_to 10162
  156.6076  130.8573  151.3446 LP  0  0  0  0  0  0  0  0  0  0  0  0  # atno 17370 bound_to 10713
  157.7246  130.9604  150.1580 LP  0  0  0  0  0  0  0  0  0  0  0  0  # atno 17371 bound_to 10713
  139.9010  135.0164  156.7269 LP  0  0  0  0  0  0  0  0  0  0  0  0  # atno 17394 bound_to 11000
  140.6980  133.9332  155.8006 LP  0  0  0  0  0  0  0  0  0  0  0  0  # atno 17395 bound_to 11000

$$$$
