AV-unprocessed.smi:1464|AV-procd|sdf|5944|dock10
  -GOLD-   22720 6 23D 1   1.00000     0.00000
 Structure written by MMmdl.
 41 42  0  0  0  0  0  0  0  0  1 V2000
  151.8019  144.3548  158.0889 C   0  0  0  0  0  0  0  0  0  0  0  0
  152.5384  143.8550  159.3430 C   0  0  1  0  0  0  0  0  0  0  0  0
  151.7792  144.2188  160.6353 C   0  0  0  0  0  0  0  0  0  0  0  0
  152.5684  143.8059  161.8878 C   0  0  0  0  0  0  0  0  0  0  0  0
  152.9442  142.3170  161.8539 C   0  0  0  0  0  0  0  0  0  0  0  0
  153.7063  141.9627  160.5625 C   0  0  1  0  0  0  0  0  0  0  0  0
  154.0813  140.5505  160.5797 N   0  0  0  0  0  0  0  0  0  0  0  0
  155.3376  140.0794  160.5959 C   0  0  0  0  0  0  0  0  0  0  0  0
  156.3318  140.8069  160.5814 O   0  0  0  0  0  0  0  0  0  0  0  0
  155.4814  138.5506  160.6053 C   0  0  0  0  0  0  0  0  0  0  0  0
  155.0649  137.9334  161.8730 N   0  0  0  0  0  0  0  0  0  0  0  0
  155.6753  138.4743  162.9946 N   0  0  0  0  0  0  0  0  0  0  0  0
  155.3822  138.0244  164.1678 C   0  0  0  0  0  0  0  0  0  0  0  0
  156.0063  138.5914  165.2515 O   0  0  0  0  0  0  0  0  0  0  0  0
  154.4248  136.9543  164.3418 C   0  0  0  0  0  0  0  0  0  0  0  0
  153.8388  136.4306  163.2428 C   0  0  0  0  0  0  0  0  0  0  0  0
  154.1474  136.9180  161.8973 C   0  0  0  0  0  0  0  0  0  0  0  0
  153.6302  136.4588  160.8790 O   0  0  0  0  0  0  0  0  0  0  0  0
  152.8939  142.3449  159.2942 C   0  0  1  0  0  0  0  0  0  0  0  0
  151.6701  141.4295  159.0561 C   0  0  0  0  0  0  0  0  0  0  0  0
  156.3759  139.4005  164.9329 H   0  0  0  0  0  0  0  0  0  0  0  0
  150.7915  143.9512  158.0242 H   0  0  0  0  0  0  0  0  0  0  0  0
  152.3361  144.0754  157.1806 H   0  0  0  0  0  0  0  0  0  0  0  0
  151.7162  145.4418  158.0973 H   0  0  0  0  0  0  0  0  0  0  0  0
  153.4850  144.3974  159.3699 H   0  0  0  0  0  0  0  0  0  0  0  0
  151.5925  145.2929  160.6657 H   0  0  0  0  0  0  0  0  0  0  0  0
  150.7993  143.7409  160.6438 H   0  0  0  0  0  0  0  0  0  0  0  0
  153.4759  144.4070  161.9592 H   0  0  0  0  0  0  0  0  0  0  0  0
  151.9850  144.0224  162.7831 H   0  0  0  0  0  0  0  0  0  0  0  0
  153.5573  142.0795  162.7242 H   0  0  0  0  0  0  0  0  0  0  0  0
  152.0429  141.7094  161.9417 H   0  0  0  0  0  0  0  0  0  0  0  0
  154.6272  142.5498  160.5651 H   0  0  0  0  0  0  0  0  0  0  0  0
  153.3256  139.8808  160.5853 H   0  0  0  0  0  0  0  0  0  0  0  0
  154.9097  138.1237  159.7790 H   0  0  0  0  0  0  0  0  0  0  0  0
  156.5248  138.3098  160.3935 H   0  0  0  0  0  0  0  0  0  0  0  0
  154.1910  136.5895  165.3311 H   0  0  0  0  0  0  0  0  0  0  0  0
  153.1218  135.6311  163.3582 H   0  0  0  0  0  0  0  0  0  0  0  0
  153.5519  142.2025  158.4357 H   0  0  0  0  0  0  0  0  0  0  0  0
  150.9324  141.5145  159.8531 H   0  0  0  0  0  0  0  0  0  0  0  0
  151.9606  140.3811  158.9893 H   0  0  0  0  0  0  0  0  0  0  0  0
  151.1698  141.6672  158.1180 H   0  0  0  0  0  0  0  0  0  0  0  0
  1  2  1  0  0  0  0
  1 22  1  0  0  0  0
  1 23  1  0  0  0  0
  1 24  1  0  0  0  0
  2 19  1  0  0  0  0
  2  3  1  0  0  0  0
  2 25  1  0  0  0  0
  3  4  1  0  0  0  0
  3 26  1  0  0  0  0
  3 27  1  0  0  0  0
  4  5  1  0  0  0  0
  4 28  1  0  0  0  0
  4 29  1  0  0  0  0
  5  6  1  0  0  0  0
  5 30  1  0  0  0  0
  5 31  1  0  0  0  0
  6  7  1  0  0  0  0
  6 19  1  0  0  0  0
  6 32  1  0  0  0  0
  7  8  1  0  0  0  0
  7 33  1  0  0  0  0
  8  9  2  0  0  0  0
  8 10  1  0  0  0  0
 10 34  1  0  0  0  0
 10 35  1  0  0  0  0
 10 11  1  0  0  0  0
 11 12  1  0  0  0  0
 11 17  1  0  0  0  0
 12 13  2  0  0  0  0
 13 14  1  0  0  0  0
 13 15  1  0  0  0  0
 14 21  1  0  0  0  0
 15 36  1  0  0  0  0
 15 16  2  0  0  0  0
 16 37  1  0  0  0  0
 16 17  1  0  0  0  0
 17 18  2  0  0  0  0
 19 20  1  0  0  0  0
 19 38  1  0  0  0  0
 20 39  1  0  0  0  0
 20 40  1  0  0  0  0
 20 41  1  0  0  0  0
M  END
> <s_m_source_file>
AV-unprocessed.smi

> <i_m_source_file_index>
1464

> <i_lp_mmshare_version>
43012

> <i_f3d_flags>
0

> <s_epik_input>
W0NIM11bQ0BASF0xW0NIMl1bQ0gyXVtDSDJdW0NASF0oW0NASF0xW0NIM10pW05IXUMoPU8pW0NIMl1uMltuSF1jKD1PKVtjSF1bY0hdYzI9Tw==

> <s_epik_cmdline>
J2VwaWtfcHl0aG9uJywgJy1waCcsICc3LjAnLCAnLXRuJywgJzgnLCAnLW1hJywgJzIwMCcsICctbWV0YWxfYmluZGluZycsICctaW1hZScsICc8aW5maWxlLm1hZT4nLCAnLW9tYWUnLCAnPG91dGZpbGUubWFlPic=

> <r_lp_tautomer_probability>
0.9996

> <r_epik_Ionization_Penalty>
2.10335

> <r_epik_Ionization_Penalty_Charging>
3.98079e-08

> <r_epik_Ionization_Penalty_Neutral>
2.10335

> <r_epik_State_Penalty>
1.67957

> <r_epik_Charging_Adjusted_Penalty>
1.67957

> <i_epik_Tot_Q>
0

> <i_epik_Tot_abs_Q>
0

> <r_epik_Metal_State_Penalty>
1.67957

> <b_epik_Metal_Only>
0

> <s_lp_Force_Field>
OPLS_2005

> <r_lp_Energy>
25.7359

> <b_lp_Chiralities_Consistent>
1

> <s_lp_Variant>
AV-unprocessed.smi:1464-10

> <Gold.Version>
5.8.1

> <Gold.Id.Protein>
6NUR|6NUR_protein|mol2

> <Gold.PLP.Fitness>
50.5004

> <Gold.PLP.PLP>
-48.9665

> <Gold.PLP.part.hbond>
-1.4995

> <Gold.PLP.part.metal>
0.0000

> <Gold.PLP.part.buried>
-5.9991

> <Gold.PLP.part.nonpolar>
-40.7218

> <Gold.PLP.part.repulsive>
0.0362

> <Gold.PLP.ligand.clash>
0.0000

> <Gold.PLP.ligand.torsion>
0.1423

> <Gold.PLP.Chemscore.Hbond>
0.6012

> <Gold.PLP.Chemscore.CHOScore>
0.0000

> <Gold.PLP.Chemscore.Metal>
0.0000

> <Gold.Chemscore.Hbonds>
donor molecule, donor type, donor heavy atom, donor atom, acceptor molecule, acceptor atom, score
      P1  H  6896  6907       L1    18  0.50

> <Gold.PLP.Chemscore.Internal.Correction>
0.0147

> <Gold.Rescore>
     Score         DG    S(hbond)    S(metal)    S(lipo)     H(rot)  DE(clash)    DE(int)     intcor
     16.12     -16.24       1.00        0.00     112.21       2.22       0.02       0.11       ----

> <Gold.Chemscore.Fitness>
16.1221

> <Gold.Chemscore.DG>
-16.2437

> <Gold.Chemscore.ZeroCoef>
-5.4800

> <Gold.Chemscore.Hbond>
0.9953

> <Gold.Chemscore.Metal>
0.0000

> <Gold.Chemscore.Lipo>
112.2109

> <Gold.Chemscore.Internal_Hbond>
0.0000

> <Gold.Chemscore.DEClash>
0.0166

> <Gold.Chemscore.DEInternal>
0.1050

> <Gold.Chemscore.Rot>
2.2224

> <Gold.Chemscore.Internal.Correction>
   9.000000E+99

> <Gold.Chemscore.Hbonds>
donor molecule, donor type, donor heavy atom, donor atom, acceptor molecule, acceptor atom, score
      P1  H  6896  6907       L1    18  0.50

> <Gold.Chemscore.Hbond.Weighted>
-3.3244

> <Gold.Chemscore.Metal.Weighted>
-0.0000

> <Gold.Chemscore.Lipo.Weighted>
-13.1287

> <Gold.Chemscore.Internal_Hbond.Weighted>
0.0000

> <Gold.Chemscore.DEClash.Weighted>
0.0166

> <Gold.Chemscore.DEInternal.Weighted>
0.1050

> <Gold.Chemscore.Rot.Weighted>
5.6893

> <Gold.Chemscore.Internal.Correction.Weighted>
   9.000000E+99

> <Gold.Protein.RotatedTorsions>
[ 6907 6896 6895 6894 ] final   42.77 input  -60.11 | X-H torsion
[ 7974 7965 7964 7962 ] final  -48.85 input  175.53 | X-H torsion
[ 8008 7997 7996 7995 ] final   26.20 input   59.86 | X-H torsion
[ 10167 10162 10161 10158 ] final  -89.74 input  -65.29 | X-H torsion
[ 10718 10713 10712 10709 ] final   83.98 input   66.30 | X-H torsion
[ 10763 10752 10751 10750 ] final  -84.67 input  -60.55 | X-H torsion
[ 11005 11000 10999 10996 ] final -122.17 input  -57.11 | X-H torsion

> <Gold.Protein.ActiveResidues>
 VAL166  LYS551  ARG553  GLY616  TRP617  ASP618  TYR619  PRO620  LYS621  CYS622 
 ASP623  PHE694  ASN695  SER759  ASP760  ASP761  ALA762  ILE779  LEU786  VAL792 
 PHE793  MET794  SER795  GLU796  ALA797  LYS798  CYS799  TRP800  GLU811  SER814 

> <Gold.Protein.RotatedAtoms>
  152.2120  134.8492  160.0495 H   0  0  0  0  0  0  0  0  0  0  0  0  # atno 6907 bound_to 6896
  151.9307  133.3605  159.3938 H   0  0  0  0  0  0  0  0  0  0  0  0  # atno 6908 bound_to 6896
  150.6978  134.4465  159.5360 H   0  0  0  0  0  0  0  0  0  0  0  0  # atno 6909 bound_to 6896
  145.9468  140.7610  142.9524 H   0  0  0  0  0  0  0  0  0  0  0  0  # atno 7974 bound_to 7965
  155.0236  140.3150  155.4784 H   0  0  0  0  0  0  0  0  0  0  0  0  # atno 8008 bound_to 7997
  156.2887  140.2193  156.5297 H   0  0  0  0  0  0  0  0  0  0  0  0  # atno 8009 bound_to 7997
  154.7431  140.0472  157.0816 H   0  0  0  0  0  0  0  0  0  0  0  0  # atno 8010 bound_to 7997
  140.3618  143.2838  151.9605 H   0  0  0  0  0  0  0  0  0  0  0  0  # atno 10167 bound_to 10162
  157.6889  131.0114  150.2604 H   0  0  0  0  0  0  0  0  0  0  0  0  # atno 10718 bound_to 10713
  154.6022  135.5512  153.7386 H   0  0  0  0  0  0  0  0  0  0  0  0  # atno 10763 bound_to 10752
  153.0159  135.6369  154.1698 H   0  0  0  0  0  0  0  0  0  0  0  0  # atno 10764 bound_to 10752
  154.1638  135.2896  155.3081 H   0  0  0  0  0  0  0  0  0  0  0  0  # atno 10765 bound_to 10752
  141.0015  134.0395  157.3531 H   0  0  0  0  0  0  0  0  0  0  0  0  # atno 11005 bound_to 11000
  144.6788  140.2370  143.7348 LP  0  0  0  0  0  0  0  0  0  0  0  0  # atno 17320 bound_to 7965
  145.8225  139.2050  143.1929 LP  0  0  0  0  0  0  0  0  0  0  0  0  # atno 17321 bound_to 7965
  139.4813  144.5986  151.7647 LP  0  0  0  0  0  0  0  0  0  0  0  0  # atno 17342 bound_to 10162
  140.5119  144.1012  150.5997 LP  0  0  0  0  0  0  0  0  0  0  0  0  # atno 17343 bound_to 10162
  156.3184  130.3782  149.7597 LP  0  0  0  0  0  0  0  0  0  0  0  0  # atno 17370 bound_to 10713
  156.5175  130.8200  151.3191 LP  0  0  0  0  0  0  0  0  0  0  0  0  # atno 17371 bound_to 10713
  139.9041  135.0174  156.7406 LP  0  0  0  0  0  0  0  0  0  0  0  0  # atno 17394 bound_to 11000
  140.6881  133.9414  155.7950 LP  0  0  0  0  0  0  0  0  0  0  0  0  # atno 17395 bound_to 11000

$$$$
