AV-unprocessed.smi:3196|AV-procd|sdf|12222|dock7
  -GOLD-   2272018 53D 1   1.00000     0.00000
 Structure written by MMmdl.
 33 34  0  0  0  0  0  0  0  0  1 V2000
  150.5672  138.8768  154.4458 C   0  0  0  0  0  0  0  0  0  0  0  0
  150.9432  137.3959  154.5628 C   0  0  0  0  0  0  0  0  0  0  0  0
  149.9342  136.5975  155.3990 C   0  0  0  0  0  0  0  0  0  0  0  0
  150.4050  135.1801  155.6742 C   0  0  1  0  0  0  0  0  0  0  0  0
  149.4719  134.1542  156.2599 C   0  0  0  0  0  0  0  0  0  0  0  0
  149.9586  134.0000  154.8330 C   0  0  1  0  0  0  0  0  0  0  0  0
  148.9977  134.2079  153.7901 N   0  0  0  0  0  0  0  0  0  0  0  0
  148.0409  133.3617  153.3688 C   0  0  0  0  0  0  0  0  0  0  0  0
  147.8830  132.2704  153.9108 O   0  0  0  0  0  0  0  0  0  0  0  0
  147.2849  133.8435  152.3617 N   0  0  0  0  0  0  0  0  0  0  0  0
  146.1905  133.2493  151.6729 C   0  0  0  0  0  0  0  0  0  0  0  0
  145.9428  131.8566  151.5921 C   0  0  0  0  0  0  0  0  0  0  0  0
  144.8178  131.4114  150.8689 C   0  0  0  0  0  0  0  0  0  0  0  0
  143.9591  132.2417  150.2406 N   0  0  0  0  0  0  0  0  0  0  0  0
  144.2007  133.5674  150.3141 C   0  0  0  0  0  0  0  0  0  0  0  0
  145.2948  134.1170  151.0118 C   0  0  0  0  0  0  0  0  0  0  0  0
  145.4785  135.4593  151.0441 F   0  0  0  0  0  0  0  0  0  0  0  0
  151.3005  139.4176  153.8473 H   0  0  0  0  0  0  0  0  0  0  0  0
  150.5237  139.3503  155.4269 H   0  0  0  0  0  0  0  0  0  0  0  0
  149.5938  138.9994  153.9703 H   0  0  0  0  0  0  0  0  0  0  0  0
  151.0147  136.9638  153.5639 H   0  0  0  0  0  0  0  0  0  0  0  0
  151.9350  137.3107  155.0084 H   0  0  0  0  0  0  0  0  0  0  0  0
  149.7538  137.1127  156.3432 H   0  0  0  0  0  0  0  0  0  0  0  0
  148.9765  136.5473  154.8797 H   0  0  0  0  0  0  0  0  0  0  0  0
  151.4371  135.1333  156.0170 H   0  0  0  0  0  0  0  0  0  0  0  0
  149.8801  133.4762  157.0066 H   0  0  0  0  0  0  0  0  0  0  0  0
  148.4345  134.4450  156.4160 H   0  0  0  0  0  0  0  0  0  0  0  0
  150.6865  133.2033  154.6875 H   0  0  0  0  0  0  0  0  0  0  0  0
  149.0076  135.1228  153.3627 H   0  0  0  0  0  0  0  0  0  0  0  0
  147.5190  134.7765  152.0549 H   0  0  0  0  0  0  0  0  0  0  0  0
  146.5806  131.1217  152.0563 H   0  0  0  0  0  0  0  0  0  0  0  0
  144.6035  130.3557  150.7914 H   0  0  0  0  0  0  0  0  0  0  0  0
  143.5015  134.2102  149.8002 H   0  0  0  0  0  0  0  0  0  0  0  0
  1  2  1  0  0  0  0
  1 18  1  0  0  0  0
  1 19  1  0  0  0  0
  1 20  1  0  0  0  0
  2  3  1  0  0  0  0
  2 21  1  0  0  0  0
  2 22  1  0  0  0  0
  3  4  1  0  0  0  0
  3 23  1  0  0  0  0
  3 24  1  0  0  0  0
  4  6  1  0  0  0  0
  4  5  1  0  0  0  0
  4 25  1  0  0  0  0
  5  6  1  0  0  0  0
  5 26  1  0  0  0  0
  5 27  1  0  0  0  0
  6  7  1  0  0  0  0
  6 28  1  0  0  0  0
  7  8  1  0  0  0  0
  7 29  1  0  0  0  0
  8  9  2  0  0  0  0
  8 10  1  0  0  0  0
 10 11  1  0  0  0  0
 10 30  1  0  0  0  0
 11 16  1  0  0  0  0
 11 12  2  0  0  0  0
 12 13  1  0  0  0  0
 12 31  1  0  0  0  0
 13 14  2  0  0  0  0
 13 32  1  0  0  0  0
 14 15  1  0  0  0  0
 15 16  2  0  0  0  0
 15 33  1  0  0  0  0
 16 17  1  0  0  0  0
M  END
> <s_m_source_file>
AV-unprocessed.smi

> <i_m_source_file_index>
3196

> <i_lp_mmshare_version>
43012

> <i_f3d_flags>
0

> <s_epik_input>
W0NIM11bQ0gyXVtDSDJdW0NAQEhdMVtDSDJdW0NASF0xW05IXUMoPU8pW05IXWMyW2NIXVtjSF1uW2NIXWMyRg==

> <s_epik_cmdline>
J2VwaWtfcHl0aG9uJywgJy1waCcsICc3LjAnLCAnLXRuJywgJzgnLCAnLW1hJywgJzIwMCcsICctbWV0YWxfYmluZGluZycsICctaW1hZScsICc8aW5maWxlLm1hZT4nLCAnLW9tYWUnLCAnPG91dGZpbGUubWFlPic=

> <r_epik_Ionization_Penalty>
0.00341997

> <r_epik_Ionization_Penalty_Charging>
0

> <r_epik_Ionization_Penalty_Neutral>
0.00341997

> <r_epik_State_Penalty>
0.00239198

> <r_epik_Charging_Adjusted_Penalty>
0.00239198

> <i_epik_Tot_Q>
0

> <i_epik_Tot_abs_Q>
0

> <r_epik_Metal_State_Penalty>
-0

> <b_epik_Metal_Only>
0

> <s_lp_Force_Field>
OPLS_2005

> <r_lp_Energy>
35.1311

> <b_lp_Chiralities_Consistent>
1

> <s_lp_Variant>
AV-unprocessed.smi:3196-2

> <Gold.Version>
5.8.1

> <Gold.Id.Protein>
6NUR|6NUR_protein|mol2

> <Gold.PLP.Fitness>
40.7070

> <Gold.PLP.PLP>
-32.6883

> <Gold.PLP.part.hbond>
-2.0000

> <Gold.PLP.part.metal>
0.0000

> <Gold.PLP.part.buried>
-5.5325

> <Gold.PLP.part.nonpolar>
-25.7044

> <Gold.PLP.part.repulsive>
0.2848

> <Gold.PLP.ligand.clash>
0.0000

> <Gold.PLP.ligand.torsion>
0.7085

> <Gold.PLP.Chemscore.Hbond>
1.9600

> <Gold.PLP.Chemscore.CHOScore>
1.0000

> <Gold.PLP.Chemscore.Metal>
0.0000

> <Gold.Chemscore.Hbonds>
donor molecule, donor type, donor heavy atom, donor atom, acceptor molecule, acceptor atom, score
      L1  H     7    29       P1  7948  1.00
      L1  H    10    30       P1  7948  0.94
      L1  C    15    33       P1 10186  1.00

> <Gold.PLP.Chemscore.Internal.Correction>
0.5557

> <Gold.Rescore>
     Score         DG    S(hbond)    S(metal)    S(lipo)     H(rot)  DE(clash)    DE(int)     intcor
     12.99     -14.50       1.38        0.00      67.93       1.39       0.00       1.51       ----

> <Gold.Chemscore.Fitness>
12.9898

> <Gold.Chemscore.DG>
-14.4967

> <Gold.Chemscore.ZeroCoef>
-5.4800

> <Gold.Chemscore.Hbond>
1.3818

> <Gold.Chemscore.Metal>
0.0000

> <Gold.Chemscore.Lipo>
67.9271

> <Gold.Chemscore.Internal_Hbond>
0.0000

> <Gold.Chemscore.DEClash>
0.0015

> <Gold.Chemscore.DEInternal>
1.5054

> <Gold.Chemscore.Rot>
1.3852

> <Gold.Chemscore.Internal.Correction>
   9.000000E+99

> <Gold.Chemscore.Hbonds>
donor molecule, donor type, donor heavy atom, donor atom, acceptor molecule, acceptor atom, score
      L1  H     7    29       P1  7948  0.33
      L1  H    10    30       P1  7948  0.68

> <Gold.Chemscore.Hbond.Weighted>
-4.6153

> <Gold.Chemscore.Metal.Weighted>
-0.0000

> <Gold.Chemscore.Lipo.Weighted>
-7.9475

> <Gold.Chemscore.Internal_Hbond.Weighted>
0.0000

> <Gold.Chemscore.DEClash.Weighted>
0.0015

> <Gold.Chemscore.DEInternal.Weighted>
1.5054

> <Gold.Chemscore.Rot.Weighted>
3.5460

> <Gold.Chemscore.Internal.Correction.Weighted>
   9.000000E+99

> <Gold.Protein.RotatedTorsions>
[ 6907 6896 6895 6894 ] final  -75.15 input  -60.11 | X-H torsion
[ 7974 7965 7964 7962 ] final -135.47 input  175.53 | X-H torsion
[ 8008 7997 7996 7995 ] final  -89.55 input   59.86 | X-H torsion
[ 10167 10162 10161 10158 ] final  -27.24 input  -65.29 | X-H torsion
[ 10718 10713 10712 10709 ] final   35.84 input   66.30 | X-H torsion
[ 10763 10752 10751 10750 ] final  123.39 input  -60.55 | X-H torsion
[ 11005 11000 10999 10996 ] final  -33.76 input  -57.11 | X-H torsion

> <Gold.Protein.ActiveResidues>
 VAL166  LYS551  ARG553  GLY616  TRP617  ASP618  TYR619  PRO620  LYS621  CYS622 
 ASP623  PHE694  ASN695  SER759  ASP760  ASP761  ALA762  ILE779  LEU786  VAL792 
 PHE793  MET794  SER795  GLU796  ALA797  LYS798  CYS799  TRP800  GLU811  SER814 

> <Gold.Protein.RotatedAtoms>
  150.7068  134.4764  159.5449 H   0  0  0  0  0  0  0  0  0  0  0  0  # atno 6907 bound_to 6896
  152.2410  134.8226  160.0469 H   0  0  0  0  0  0  0  0  0  0  0  0  # atno 6908 bound_to 6896
  151.9008  133.3502  159.3867 H   0  0  0  0  0  0  0  0  0  0  0  0  # atno 6909 bound_to 6896
  144.9011  140.6772  143.5084 H   0  0  0  0  0  0  0  0  0  0  0  0  # atno 7974 bound_to 7965
  154.6880  140.0540  157.0334 H   0  0  0  0  0  0  0  0  0  0  0  0  # atno 8008 bound_to 7997
  155.0857  140.3214  155.4569 H   0  0  0  0  0  0  0  0  0  0  0  0  # atno 8009 bound_to 7997
  156.2718  140.2057  156.5985 H   0  0  0  0  0  0  0  0  0  0  0  0  # atno 8010 bound_to 7997
  140.7278  143.4110  151.1105 H   0  0  0  0  0  0  0  0  0  0  0  0  # atno 10167 bound_to 10162
  157.3276  130.7481  149.6826 H   0  0  0  0  0  0  0  0  0  0  0  0  # atno 10718 bound_to 10713
  153.6447  135.3373  155.3082 H   0  0  0  0  0  0  0  0  0  0  0  0  # atno 10763 bound_to 10752
  154.8551  135.4327  154.1967 H   0  0  0  0  0  0  0  0  0  0  0  0  # atno 10764 bound_to 10752
  153.2895  135.7016  153.7381 H   0  0  0  0  0  0  0  0  0  0  0  0  # atno 10765 bound_to 10752
  140.9661  133.7136  156.1448 H   0  0  0  0  0  0  0  0  0  0  0  0  # atno 11005 bound_to 11000
  145.3615  139.1680  143.4381 LP  0  0  0  0  0  0  0  0  0  0  0  0  # atno 17320 bound_to 7965
  146.3109  140.3678  142.8671 LP  0  0  0  0  0  0  0  0  0  0  0  0  # atno 17321 bound_to 7965
  139.7743  143.8448  152.3126 LP  0  0  0  0  0  0  0  0  0  0  0  0  # atno 17342 bound_to 10162
  139.8377  144.7224  150.9370 LP  0  0  0  0  0  0  0  0  0  0  0  0  # atno 17343 bound_to 10162
  155.9692  130.4205  150.4424 LP  0  0  0  0  0  0  0  0  0  0  0  0  # atno 17370 bound_to 10713
  157.2450  131.0534  151.2414 LP  0  0  0  0  0  0  0  0  0  0  0  0  # atno 17371 bound_to 10713
  140.7396  134.4164  157.5556 LP  0  0  0  0  0  0  0  0  0  0  0  0  # atno 17394 bound_to 11000
  139.8895  134.8828  156.2417 LP  0  0  0  0  0  0  0  0  0  0  0  0  # atno 17395 bound_to 11000

$$$$
