AV-unprocessed.smi:240|AV-procd|sdf|1836|dock7
  -GOLD-   2262020443D 1   1.00000     0.00000
 Structure written by MMmdl.
 55 59  0  0  0  0  0  0  0  0  1 V2000
  149.7596  142.1018  156.4407 O   0  0  0  0  0  0  0  0  0  0  0  0
  149.9093  140.9476  155.6405 C   0  0  2  0  0  0  0  0  0  0  0  0
  148.7509  140.8176  154.6535 C   0  0  0  0  0  0  0  0  0  0  0  0
  148.7751  139.3439  154.2462 C   0  0  0  0  0  0  0  0  0  0  0  0
  149.3443  138.5805  155.4522 C   0  0  0  0  0  0  0  0  0  0  0  0
  149.8414  139.6421  156.4552 C   0  0  1  0  0  0  0  0  0  0  0  0
  151.1212  139.2321  157.2533 C   0  0  1  0  0  0  0  0  0  0  0  0
  151.9433  140.4489  157.7533 C   0  0  0  0  0  0  0  0  0  0  0  0
  153.1094  140.0084  158.4371 O   0  0  0  0  0  0  0  0  0  0  0  0
  152.7799  139.2637  159.6012 C   0  0  0  0  0  0  0  0  0  0  0  0
  152.0158  138.0009  159.1834 C   0  0  0  0  0  0  0  0  0  0  0  0
  150.8376  138.3435  158.3920 N   0  0  0  0  0  0  0  0  0  0  0  0
  150.1144  137.2239  158.1518 C   0  0  0  0  0  0  0  0  0  0  0  0
  150.3069  136.5118  157.0091 N   0  0  0  0  0  0  0  0  0  0  0  0
  149.5902  135.4071  156.7815 C   0  0  0  0  0  0  0  0  0  0  0  0
  148.6542  134.8455  157.5504 N   0  0  0  0  0  0  0  0  0  0  0  0
  148.4731  135.5497  158.7049 C   0  0  0  0  0  0  0  0  0  0  0  0
  149.1606  136.7359  159.0833 C   0  0  0  0  0  0  0  0  0  0  0  0
  148.7170  137.1697  160.3257 N   0  0  0  0  0  0  0  0  0  0  0  0
  147.8120  136.2911  160.6617 C   0  0  0  0  0  0  0  0  0  0  0  0
  147.6056  135.2805  159.7492 N   0  0  0  0  0  0  0  0  0  0  0  0
  146.6603  134.1807  159.8643 C   0  0  0  0  0  0  0  0  0  0  0  0
  146.8557  133.3085  161.1308 C   0  0  2  0  0  0  0  0  0  0  0  0
  148.1433  132.7206  161.0951 O   0  0  0  0  0  0  0  0  0  0  0  0
  145.8070  132.2116  161.3029 C   0  0  0  0  0  0  0  0  0  0  0  0
  144.7429  132.9079  162.1367 C   0  0  0  0  0  0  0  0  0  0  0  0
  145.5142  133.6456  163.0704 O   0  0  0  0  0  0  0  0  0  0  0  0
  146.6831  134.1374  162.4197 C   0  0  0  0  0  0  0  0  0  0  0  0
  149.3388  142.7728  155.9254 H   0  0  0  0  0  0  0  0  0  0  0  0
  150.8377  141.0205  155.0766 H   0  0  0  0  0  0  0  0  0  0  0  0
  147.8050  141.0391  155.1507 H   0  0  0  0  0  0  0  0  0  0  0  0
  148.8452  141.4915  153.8014 H   0  0  0  0  0  0  0  0  0  0  0  0
  147.7879  138.9840  153.9550 H   0  0  0  0  0  0  0  0  0  0  0  0
  149.4368  139.2136  153.3889 H   0  0  0  0  0  0  0  0  0  0  0  0
  148.5796  137.9552  155.9145 H   0  0  0  0  0  0  0  0  0  0  0  0
  150.1347  137.9086  155.1217 H   0  0  0  0  0  0  0  0  0  0  0  0
  149.0119  139.7575  157.1531 H   0  0  0  0  0  0  0  0  0  0  0  0
  151.7637  138.6740  156.5706 H   0  0  0  0  0  0  0  0  0  0  0  0
  152.2635  141.0782  156.9249 H   0  0  0  0  0  0  0  0  0  0  0  0
  151.3642  141.0825  158.4248 H   0  0  0  0  0  0  0  0  0  0  0  0
  153.6984  138.9922  160.1218 H   0  0  0  0  0  0  0  0  0  0  0  0
  152.1894  139.8714  160.2889 H   0  0  0  0  0  0  0  0  0  0  0  0
  152.6697  137.3522  158.5985 H   0  0  0  0  0  0  0  0  0  0  0  0
  151.7226  137.4423  160.0736 H   0  0  0  0  0  0  0  0  0  0  0  0
  149.7958  134.9010  155.8497 H   0  0  0  0  0  0  0  0  0  0  0  0
  147.2674  136.3547  161.5927 H   0  0  0  0  0  0  0  0  0  0  0  0
  145.6524  134.5982  159.8487 H   0  0  0  0  0  0  0  0  0  0  0  0
  146.7445  133.5659  158.9673 H   0  0  0  0  0  0  0  0  0  0  0  0
  148.6362  133.0352  161.8376 H   0  0  0  0  0  0  0  0  0  0  0  0
  145.4188  131.8007  160.3720 H   0  0  0  0  0  0  0  0  0  0  0  0
  146.2127  131.3790  161.8804 H   0  0  0  0  0  0  0  0  0  0  0  0
  144.1480  133.5890  161.5261 H   0  0  0  0  0  0  0  0  0  0  0  0
  144.0696  132.2089  162.6332 H   0  0  0  0  0  0  0  0  0  0  0  0
  147.5310  134.0378  163.0988 H   0  0  0  0  0  0  0  0  0  0  0  0
  146.5628  135.2002  162.2054 H   0  0  0  0  0  0  0  0  0  0  0  0
  1  2  1  0  0  0  0
  1 29  1  0  0  0  0
  2  6  1  0  0  0  0
  2  3  1  0  0  0  0
  2 30  1  0  0  0  0
  3  4  1  0  0  0  0
  3 31  1  0  0  0  0
  3 32  1  0  0  0  0
  4  5  1  0  0  0  0
  4 33  1  0  0  0  0
  4 34  1  0  0  0  0
  5  6  1  0  0  0  0
  5 35  1  0  0  0  0
  5 36  1  0  0  0  0
  6  7  1  0  0  0  0
  6 37  1  0  0  0  0
  7 12  1  0  0  0  0
  7  8  1  0  0  0  0
  7 38  1  0  0  0  0
  8  9  1  0  0  0  0
  8 39  1  0  0  0  0
  8 40  1  0  0  0  0
  9 10  1  0  0  0  0
 10 11  1  0  0  0  0
 10 41  1  0  0  0  0
 10 42  1  0  0  0  0
 11 12  1  0  0  0  0
 11 43  1  0  0  0  0
 11 44  1  0  0  0  0
 12 13  1  0  0  0  0
 13 18  1  0  0  0  0
 13 14  2  0  0  0  0
 14 15  1  0  0  0  0
 15 16  2  0  0  0  0
 15 45  1  0  0  0  0
 16 17  1  0  0  0  0
 17 21  1  0  0  0  0
 17 18  2  0  0  0  0
 18 19  1  0  0  0  0
 19 20  2  0  0  0  0
 20 21  1  0  0  0  0
 20 46  1  0  0  0  0
 21 22  1  0  0  0  0
 22 23  1  0  0  0  0
 22 47  1  0  0  0  0
 22 48  1  0  0  0  0
 23 28  1  0  0  0  0
 23 24  1  0  0  0  0
 23 25  1  0  0  0  0
 24 49  1  0  0  0  0
 25 26  1  0  0  0  0
 25 50  1  0  0  0  0
 25 51  1  0  0  0  0
 26 27  1  0  0  0  0
 26 52  1  0  0  0  0
 26 53  1  0  0  0  0
 27 28  1  0  0  0  0
 28 54  1  0  0  0  0
 28 55  1  0  0  0  0
M  END
> <s_m_source_file>
AV-unprocessed.smi

> <i_m_source_file_index>
240

> <i_lp_mmshare_version>
43012

> <i_f3d_flags>
0

> <s_epik_input>
W09IXVtDQEBIXTFbQ0gyXVtDSDJdW0NIMl1bQ0BIXTFbQ0BASF0yW0NIMl1PW0NIMl1bQ0gyXU4yYyhuW2NIXW4zKWMoYzM0KW5bY0hdbjRbQ0gyXVtDQEBdNShbT0hdKVtDSDJdW0NIMl1PW0NIMl01

> <s_epik_cmdline>
J2VwaWtfcHl0aG9uJywgJy1waCcsICc3LjAnLCAnLXRuJywgJzgnLCAnLW1hJywgJzIwMCcsICctbWV0YWxfYmluZGluZycsICctaW1hZScsICc8aW5maWxlLm1hZT4nLCAnLW9tYWUnLCAnPG91dGZpbGUubWFlPic=

> <r_lp_tautomer_probability>
1

> <r_epik_Ionization_Penalty>
0.000130618

> <r_epik_Ionization_Penalty_Charging>
0

> <r_epik_Ionization_Penalty_Neutral>
0.000130618

> <r_epik_State_Penalty>
-0

> <r_epik_Charging_Adjusted_Penalty>
0

> <i_epik_Tot_Q>
0

> <i_epik_Tot_abs_Q>
0

> <r_epik_Metal_State_Penalty>
-0

> <b_epik_Metal_Only>
0

> <s_lp_Force_Field>
OPLS_2005

> <r_lp_Energy>
59.7423

> <b_lp_Chiralities_Consistent>
1

> <s_lp_Variant>
AV-unprocessed.smi:240-13

> <Gold.Version>
5.8.1

> <Gold.Id.Protein>
6NUR|6NUR_protein|mol2

> <Gold.PLP.Fitness>
42.4473

> <Gold.PLP.PLP>
-37.4149

> <Gold.PLP.part.hbond>
-5.0000

> <Gold.PLP.part.metal>
0.0000

> <Gold.PLP.part.buried>
-3.6800

> <Gold.PLP.part.nonpolar>
-28.5487

> <Gold.PLP.part.repulsive>
0.0541

> <Gold.PLP.ligand.clash>
0.0000

> <Gold.PLP.ligand.torsion>
1.2162

> <Gold.PLP.Chemscore.Hbond>
2.4304

> <Gold.PLP.Chemscore.CHOScore>
0.0000

> <Gold.PLP.Chemscore.Metal>
0.0000

> <Gold.Chemscore.Hbonds>
donor molecule, donor type, donor heavy atom, donor atom, acceptor molecule, acceptor atom, score
      L1  H     1    29       P1  8028  0.99
      P1  H  6931  6943       L1    19  0.64
      P1  H  7997  8008       L1     9  0.98

> <Gold.PLP.Chemscore.Internal.Correction>
0.1736

> <Gold.Rescore>
     Score         DG    S(hbond)    S(metal)    S(lipo)     H(rot)  DE(clash)    DE(int)     intcor
     11.59     -13.59       2.27        0.00      70.29       3.00       0.04       1.96       ----

> <Gold.Chemscore.Fitness>
11.5918

> <Gold.Chemscore.DG>
-13.5903

> <Gold.Chemscore.ZeroCoef>
-5.4800

> <Gold.Chemscore.Hbond>
2.2682

> <Gold.Chemscore.Metal>
0.0000

> <Gold.Chemscore.Lipo>
70.2934

> <Gold.Chemscore.Internal_Hbond>
0.0000

> <Gold.Chemscore.DEClash>
0.0414

> <Gold.Chemscore.DEInternal>
1.9572

> <Gold.Chemscore.Rot>
3.0039

> <Gold.Chemscore.Internal.Correction>
   9.000000E+99

> <Gold.Chemscore.Hbonds>
donor molecule, donor type, donor heavy atom, donor atom, acceptor molecule, acceptor atom, score
      L1  H     1    29       P1  8028  0.88
      P1  H  6931  6943       L1    19  0.38
      P1  H  7997  8008       L1     9  0.53

> <Gold.Chemscore.Hbond.Weighted>
-7.5759

> <Gold.Chemscore.Metal.Weighted>
-0.0000

> <Gold.Chemscore.Lipo.Weighted>
-8.2243

> <Gold.Chemscore.Internal_Hbond.Weighted>
0.0000

> <Gold.Chemscore.DEClash.Weighted>
0.0414

> <Gold.Chemscore.DEInternal.Weighted>
1.9572

> <Gold.Chemscore.Rot.Weighted>
7.6899

> <Gold.Chemscore.Internal.Correction.Weighted>
   9.000000E+99

> <Gold.Protein.RotatedTorsions>
[ 6907 6896 6895 6894 ] final   13.66 input  -60.11 | X-H torsion
[ 7974 7965 7964 7962 ] final   46.97 input  175.53 | X-H torsion
[ 8008 7997 7996 7995 ] final  -89.52 input   59.86 | X-H torsion
[ 10167 10162 10161 10158 ] final  122.85 input  -65.29 | X-H torsion
[ 10718 10713 10712 10709 ] final  151.68 input   66.30 | X-H torsion
[ 10763 10752 10751 10750 ] final  -35.60 input  -60.55 | X-H torsion
[ 11005 11000 10999 10996 ] final   -3.22 input  -57.11 | X-H torsion

> <Gold.Protein.ActiveResidues>
 VAL166  LYS551  ARG553  GLY616  TRP617  ASP618  TYR619  PRO620  LYS621  CYS622 
 ASP623  PHE694  ASN695  SER759  ASP760  ASP761  ALA762  ILE779  LEU786  VAL792 
 PHE793  MET794  SER795  GLU796  ALA797  LYS798  CYS799  TRP800  GLU811  SER814 

> <Gold.Protein.RotatedAtoms>
  151.7898  135.0739  160.0385 H   0  0  0  0  0  0  0  0  0  0  0  0  # atno 6907 bound_to 6896
  152.3164  133.5803  159.5724 H   0  0  0  0  0  0  0  0  0  0  0  0  # atno 6908 bound_to 6896
  150.7346  133.9992  159.3674 H   0  0  0  0  0  0  0  0  0  0  0  0  # atno 6909 bound_to 6896
  146.0341  139.4799  142.9819 H   0  0  0  0  0  0  0  0  0  0  0  0  # atno 7974 bound_to 7965
  154.6876  140.0541  157.0330 H   0  0  0  0  0  0  0  0  0  0  0  0  # atno 8008 bound_to 7997
  155.0862  140.3214  155.4568 H   0  0  0  0  0  0  0  0  0  0  0  0  # atno 8009 bound_to 7997
  156.2717  140.2056  156.5990 H   0  0  0  0  0  0  0  0  0  0  0  0  # atno 8010 bound_to 7997
  139.5834  144.6996  151.3470 H   0  0  0  0  0  0  0  0  0  0  0  0  # atno 10167 bound_to 10162
  157.2676  131.0810  151.1622 H   0  0  0  0  0  0  0  0  0  0  0  0  # atno 10718 bound_to 10713
  153.8659  135.6835  153.4778 H   0  0  0  0  0  0  0  0  0  0  0  0  # atno 10763 bound_to 10752
  153.1315  135.4696  154.9354 H   0  0  0  0  0  0  0  0  0  0  0  0  # atno 10764 bound_to 10752
  154.7737  135.3246  154.8087 H   0  0  0  0  0  0  0  0  0  0  0  0  # atno 10765 bound_to 10752
  140.6669  133.9271  155.8470 H   0  0  0  0  0  0  0  0  0  0  0  0  # atno 11005 bound_to 11000
  145.6992  141.0141  143.1513 LP  0  0  0  0  0  0  0  0  0  0  0  0  # atno 17320 bound_to 7965
  144.7044  139.8625  143.7434 LP  0  0  0  0  0  0  0  0  0  0  0  0  # atno 17321 bound_to 7965
  140.7109  143.7392  150.7566 LP  0  0  0  0  0  0  0  0  0  0  0  0  # atno 17342 bound_to 10162
  140.0930  143.4859  152.2468 LP  0  0  0  0  0  0  0  0  0  0  0  0  # atno 17343 bound_to 10162
  157.3107  130.6888  149.6214 LP  0  0  0  0  0  0  0  0  0  0  0  0  # atno 17370 bound_to 10713
  155.9663  130.4364  150.5133 LP  0  0  0  0  0  0  0  0  0  0  0  0  # atno 17371 bound_to 10713
  141.0422  134.0605  157.3888 LP  0  0  0  0  0  0  0  0  0  0  0  0  # atno 17394 bound_to 11000
  139.8994  135.0158  156.7195 LP  0  0  0  0  0  0  0  0  0  0  0  0  # atno 17395 bound_to 11000

$$$$
