AV-unprocessed.smi:1158|AV-procd|sdf|4913|dock7
  -GOLD-   22720 3493D 1   1.00000     0.00000
 Structure written by MMmdl.
 43 44  0  0  0  0  0  0  0  0  2 V2000
  152.3303  138.6074  154.6608 C   0  0  0  0  0  0  0  0  0  0  0  0
  150.9799  138.3538  154.2891 O   0  0  0  0  0  0  0  0  0  0  0  0
  150.0430  139.3508  154.4852 C   0  0  0  0  0  0  0  0  0  0  0  0
  150.4830  140.6049  154.7571 N   0  0  0  0  0  0  0  0  0  0  0  0
  149.5697  141.5774  154.9546 C   0  0  0  0  0  0  0  0  0  0  0  0
  148.1820  141.3534  154.8997 C   0  0  0  0  0  0  0  0  0  0  0  0
  147.7229  140.0538  154.6163 C   0  0  0  0  0  0  0  0  0  0  0  0
  148.6695  139.0246  154.3918 C   0  0  0  0  0  0  0  0  0  0  0  0
  148.3225  137.6734  154.1138 N   0  0  0  0  0  0  0  0  0  0  0  0
  147.3412  136.9263  154.6466 C   0  0  0  0  0  0  0  0  0  0  0  0
  146.5508  137.2949  155.5144 O   0  0  0  0  0  0  0  0  0  0  0  0
  147.3171  135.7040  154.0967 N   0  0  0  0  0  0  0  0  0  0  0  0
  146.3630  134.6443  154.4216 C   0  0  2  0  0  0  0  0  0  0  0  0
  146.6474  133.3502  153.6357 C   0  0  0  0  0  0  0  0  0  0  0  0
  146.3449  133.5124  152.1359 C   0  0  0  0  0  0  0  0  0  0  0  0
  144.9443  133.9558  151.9070 N   0  3  2  0  0  0  0  0  0  0  0  0
  144.6097  133.9924  150.4588 C   0  0  0  0  0  0  0  0  0  0  0  0
  144.2089  132.6211  149.8865 C   0  0  0  0  0  0  0  0  0  0  0  0
  143.7813  132.7137  148.6282 F   0  0  0  0  0  0  0  0  0  0  0  0
  145.2628  131.8065  149.9117 F   0  0  0  0  0  0  0  0  0  0  0  0
  144.6524  135.2297  152.6180 C   0  0  0  0  0  0  0  0  0  0  0  0
  144.9277  135.1107  154.1291 C   0  0  0  0  0  0  0  0  0  0  0  0
  152.9344  137.7258  154.4474 H   0  0  0  0  0  0  0  0  0  0  0  0
  152.4182  138.8175  155.7278 H   0  0  0  0  0  0  0  0  0  0  0  0
  152.7499  139.4407  154.0955 H   0  0  0  0  0  0  0  0  0  0  0  0
  149.9574  142.5622  155.1695 H   0  0  0  0  0  0  0  0  0  0  0  0
  147.4850  142.1592  155.0758 H   0  0  0  0  0  0  0  0  0  0  0  0
  146.6596  139.8739  154.5921 H   0  0  0  0  0  0  0  0  0  0  0  0
  148.8431  137.2476  153.3611 H   0  0  0  0  0  0  0  0  0  0  0  0
  147.9988  135.4981  153.3813 H   0  0  0  0  0  0  0  0  0  0  0  0
  146.4427  134.4356  155.4899 H   0  0  0  0  0  0  0  0  0  0  0  0
  147.6811  133.0323  153.7767 H   0  0  0  0  0  0  0  0  0  0  0  0
  146.0300  132.5460  154.0379 H   0  0  0  0  0  0  0  0  0  0  0  0
  147.0335  134.2293  151.6857 H   0  0  0  0  0  0  0  0  0  0  0  0
  146.5156  132.5575  151.6374 H   0  0  0  0  0  0  0  0  0  0  0  0
  143.8386  134.7389  150.2622 H   0  0  0  0  0  0  0  0  0  0  0  0
  145.4968  134.3211  149.9155 H   0  0  0  0  0  0  0  0  0  0  0  0
  143.4251  132.1445  150.4760 H   0  0  0  0  0  0  0  0  0  0  0  0
  145.2480  136.0349  152.1850 H   0  0  0  0  0  0  0  0  0  0  0  0
  143.6081  135.5056  152.4872 H   0  0  0  0  0  0  0  0  0  0  0  0
  144.2248  134.3985  154.5635 H   0  0  0  0  0  0  0  0  0  0  0  0
  144.7329  136.0645  154.6214 H   0  0  0  0  0  0  0  0  0  0  0  0
  144.3545  133.2472  152.3202 H   0  0  0  0  0  0  0  0  0  0  0  0
  1  2  1  0  0  0  0
  1 23  1  0  0  0  0
  1 24  1  0  0  0  0
  1 25  1  0  0  0  0
  2  3  1  0  0  0  0
  3  8  1  0  0  0  0
  3  4  2  0  0  0  0
  4  5  1  0  0  0  0
  5  6  2  0  0  0  0
  5 26  1  0  0  0  0
  6  7  1  0  0  0  0
  6 27  1  0  0  0  0
  7  8  2  0  0  0  0
  7 28  1  0  0  0  0
  8  9  1  0  0  0  0
  9 10  1  0  0  0  0
  9 29  1  0  0  0  0
 10 11  2  0  0  0  0
 10 12  1  0  0  0  0
 12 13  1  0  0  0  0
 12 30  1  0  0  0  0
 13 22  1  0  0  0  0
 13 14  1  0  0  0  0
 13 31  1  0  0  0  0
 14 15  1  0  0  0  0
 14 32  1  0  0  0  0
 14 33  1  0  0  0  0
 15 16  1  0  0  0  0
 15 34  1  0  0  0  0
 15 35  1  0  0  0  0
 16 17  1  0  0  0  0
 16 21  1  0  0  0  0
 16 43  1  0  0  0  0
 17 18  1  0  0  0  0
 17 36  1  0  0  0  0
 17 37  1  0  0  0  0
 18 19  1  0  0  0  0
 18 20  1  0  0  0  0
 18 38  1  0  0  0  0
 21 22  1  0  0  0  0
 21 39  1  0  0  0  0
 21 40  1  0  0  0  0
 22 41  1  0  0  0  0
 22 42  1  0  0  0  0
M  CHG  1  16   1
M  END
> <s_m_source_file>
AV-unprocessed.smi

> <i_m_source_file_index>
1158

> <i_lp_mmshare_version>
43012

> <i_f3d_flags>
0

> <s_epik_input>
W0NIM11PYzFuW2NIXVtjSF1bY0hdYzFbTkhdQyg9TylbTkhdW0NIXTJbQ0gyXVtDSDJdTihbQ0gyXVtDSF0oRilGKVtDSDJdW0NIMl0y

> <s_epik_cmdline>
J2VwaWtfcHl0aG9uJywgJy1waCcsICc3LjAnLCAnLXRuJywgJzgnLCAnLW1hJywgJzIwMCcsICctbWV0YWxfYmluZGluZycsICctaW1hZScsICc8aW5maWxlLm1hZT4nLCAnLW9tYWUnLCAnPG91dGZpbGUubWFlPic=

> <r_lp_tautomer_probability>
1

> <r_epik_Ionization_Penalty>
0.802109

> <r_epik_Ionization_Penalty_Charging>
0.802031

> <r_epik_Ionization_Penalty_Neutral>
7.83352e-05

> <r_epik_State_Penalty>
0.833408

> <r_epik_Charging_Adjusted_Penalty>
1.63544

> <i_epik_Tot_Q>
1

> <i_epik_Tot_abs_Q>
1

> <r_epik_Metal_State_Penalty>
0.833416

> <b_epik_Metal_Only>
0

> <s_lp_Force_Field>
OPLS_2005

> <r_lp_Energy>
20.396

> <b_lp_Chiralities_Consistent>
1

> <s_lp_Variant>
AV-unprocessed.smi:1158-3

> <Gold.Version>
5.8.1

> <Gold.Id.Protein>
6NUR|6NUR_protein|mol2

> <Gold.PLP.Fitness>
46.2024

> <Gold.PLP.PLP>
-36.1945

> <Gold.PLP.part.hbond>
-3.0000

> <Gold.PLP.part.metal>
0.0000

> <Gold.PLP.part.buried>
-5.9596

> <Gold.PLP.part.nonpolar>
-27.9559

> <Gold.PLP.part.repulsive>
0.3195

> <Gold.PLP.ligand.clash>
0.0000

> <Gold.PLP.ligand.torsion>
0.7933

> <Gold.PLP.Chemscore.Hbond>
2.8560

> <Gold.PLP.Chemscore.CHOScore>
1.0000

> <Gold.PLP.Chemscore.Metal>
0.0000

> <Gold.Chemscore.Hbonds>
donor molecule, donor type, donor heavy atom, donor atom, acceptor molecule, acceptor atom, score
      L1  H     9    29       P1  7948  1.00
      L1  H    12    30       P1  7948  0.91
      P1  H  7989  7998       L1     4  0.94
      L1  C     5    26       P1  8028  1.00

> <Gold.PLP.Chemscore.Internal.Correction>
0.0264

> <Gold.Rescore>
     Score         DG    S(hbond)    S(metal)    S(lipo)     H(rot)  DE(clash)    DE(int)     intcor
     15.27     -17.18       2.46        0.00      64.34       1.58       0.09       1.82       ----

> <Gold.Chemscore.Fitness>
15.2663

> <Gold.Chemscore.DG>
-17.1779

> <Gold.Chemscore.ZeroCoef>
-5.4800

> <Gold.Chemscore.Hbond>
2.4572

> <Gold.Chemscore.Metal>
0.0000

> <Gold.Chemscore.Lipo>
64.3424

> <Gold.Chemscore.Internal_Hbond>
0.0000

> <Gold.Chemscore.DEClash>
0.0910

> <Gold.Chemscore.DEInternal>
1.8207

> <Gold.Chemscore.Rot>
1.5770

> <Gold.Chemscore.Internal.Correction>
   9.000000E+99

> <Gold.Chemscore.Hbonds>
donor molecule, donor type, donor heavy atom, donor atom, acceptor molecule, acceptor atom, score
      L1  H     9    29       P1  7948  0.97
      L1  H    12    30       P1  7948  0.88
      P1  H  7989  7998       L1     4  0.33

> <Gold.Chemscore.Hbond.Weighted>
-8.2069

> <Gold.Chemscore.Metal.Weighted>
-0.0000

> <Gold.Chemscore.Lipo.Weighted>
-7.5281

> <Gold.Chemscore.Internal_Hbond.Weighted>
0.0000

> <Gold.Chemscore.DEClash.Weighted>
0.0910

> <Gold.Chemscore.DEInternal.Weighted>
1.8207

> <Gold.Chemscore.Rot.Weighted>
4.0371

> <Gold.Chemscore.Internal.Correction.Weighted>
   9.000000E+99

> <Gold.Protein.RotatedTorsions>
[ 6907 6896 6895 6894 ] final  125.79 input  -60.11 | X-H torsion
[ 7974 7965 7964 7962 ] final  -40.77 input  175.53 | X-H torsion
[ 8008 7997 7996 7995 ] final -110.44 input   59.86 | X-H torsion
[ 10167 10162 10161 10158 ] final -124.75 input  -65.29 | X-H torsion
[ 10718 10713 10712 10709 ] final  -91.92 input   66.30 | X-H torsion
[ 10763 10752 10751 10750 ] final  -82.74 input  -60.55 | X-H torsion
[ 11005 11000 10999 10996 ] final  129.99 input  -57.11 | X-H torsion

> <Gold.Protein.ActiveResidues>
 VAL166  LYS551  ARG553  GLY616  TRP617  ASP618  TYR619  PRO620  LYS621  CYS622 
 ASP623  PHE694  ASN695  SER759  ASP760  ASP761  ALA762  ILE779  LEU786  VAL792 
 PHE793  MET794  SER795  GLU796  ALA797  LYS798  CYS799  TRP800  GLU811  SER814 

> <Gold.Protein.RotatedAtoms>
  152.3961  133.6749  159.6277 H   0  0  0  0  0  0  0  0  0  0  0  0  # atno 6907 bound_to 6896
  150.7860  133.8871  159.3311 H   0  0  0  0  0  0  0  0  0  0  0  0  # atno 6908 bound_to 6896
  151.6648  135.0986  160.0238 H   0  0  0  0  0  0  0  0  0  0  0  0  # atno 6909 bound_to 6896
  146.0274  140.6775  142.9149 H   0  0  0  0  0  0  0  0  0  0  0  0  # atno 7974 bound_to 7965
  154.9745  140.0397  157.2249 H   0  0  0  0  0  0  0  0  0  0  0  0  # atno 8008 bound_to 7997
  154.7771  140.2812  155.6070 H   0  0  0  0  0  0  0  0  0  0  0  0  # atno 8009 bound_to 7997
  156.2930  140.2599  156.2587 H   0  0  0  0  0  0  0  0  0  0  0  0  # atno 8010 bound_to 7997
  139.9895  143.5656  152.2347 H   0  0  0  0  0  0  0  0  0  0  0  0  # atno 10167 bound_to 10162
  155.9997  130.4966  150.5547 H   0  0  0  0  0  0  0  0  0  0  0  0  # atno 10718 bound_to 10713
  154.5794  135.5580  153.7170 H   0  0  0  0  0  0  0  0  0  0  0  0  # atno 10763 bound_to 10752
  153.0076  135.6316  154.2004 H   0  0  0  0  0  0  0  0  0  0  0  0  # atno 10764 bound_to 10752
  154.1944  135.2881  155.2991 H   0  0  0  0  0  0  0  0  0  0  0  0  # atno 10765 bound_to 10752
  139.9647  134.9594  156.9229 H   0  0  0  0  0  0  0  0  0  0  0  0  # atno 11005 bound_to 11000
  144.7015  140.3674  143.7152 LP  0  0  0  0  0  0  0  0  0  0  0  0  # atno 17320 bound_to 7965
  145.7096  139.1681  143.2546 LP  0  0  0  0  0  0  0  0  0  0  0  0  # atno 17321 bound_to 7965
  139.6351  144.7649  151.2455 LP  0  0  0  0  0  0  0  0  0  0  0  0  # atno 17342 bound_to 10162
  140.7460  143.6413  150.8332 LP  0  0  0  0  0  0  0  0  0  0  0  0  # atno 17343 bound_to 10162
  157.3465  131.0726  151.1747 LP  0  0  0  0  0  0  0  0  0  0  0  0  # atno 17370 bound_to 10713
  157.2578  130.6644  149.5961 LP  0  0  0  0  0  0  0  0  0  0  0  0  # atno 17371 bound_to 10713
  140.5424  134.0707  155.7345 LP  0  0  0  0  0  0  0  0  0  0  0  0  # atno 17394 bound_to 11000
  141.1326  133.9277  157.2503 LP  0  0  0  0  0  0  0  0  0  0  0  0  # atno 17395 bound_to 11000

$$$$
