AV-unprocessed.smi:3351|AV-procd|sdf|12950|dock10
  -GOLD-   2272019383D 1   1.00000     0.00000
 Structure written by MMmdl.
 34 35  0  0  0  0  0  0  0  0  1 V2000
  145.8325  135.1666  153.0579 C   0  0  0  0  0  0  0  0  0  0  0  0
  146.5514  133.8707  152.6483 C   0  0  1  0  0  0  0  0  0  0  0  0
  146.6762  133.7027  151.1185 C   0  0  0  0  0  0  0  0  0  0  0  0
  145.5075  133.0811  150.5249 N   0  0  0  0  0  0  0  0  0  0  0  0
  144.1952  133.5286  150.5979 C   0  0  0  0  0  0  0  0  0  0  0  0
  143.4320  132.6252  149.8931 C   0  0  0  0  0  0  0  0  0  0  0  0
  144.2483  131.6171  149.3857 N   0  0  0  0  0  0  0  0  0  0  0  0
  145.4621  131.9527  149.8030 C   0  0  0  0  0  0  0  0  0  0  0  0
  147.8735  133.8417  153.2676 N   0  0  0  0  0  0  0  0  0  0  0  0
  148.3487  132.8524  154.0397 C   0  0  0  0  0  0  0  0  0  0  0  0
  147.7125  131.8288  154.2941 O   0  0  0  0  0  0  0  0  0  0  0  0
  149.7713  133.0440  154.5804 C   0  0  0  0  0  0  0  0  0  0  0  0
  150.2839  131.8589  155.2703 N   0  0  0  0  0  0  0  0  0  0  0  0
  150.2277  130.5641  154.6031 C   0  0  0  0  0  0  0  0  0  0  0  0
  151.1269  129.5972  155.3760 C   0  0  0  0  0  0  0  0  0  0  0  0
  151.2902  130.2276  157.0579 S   0  0  0  0  0  0  0  0  0  0  0  0
  150.7563  131.8729  156.5763 C   0  0  0  0  0  0  0  0  0  0  0  0
  150.8223  132.8348  157.3396 O   0  0  0  0  0  0  0  0  0  0  0  0
  144.8034  135.1839  152.6988 H   0  0  0  0  0  0  0  0  0  0  0  0
  146.3399  136.0448  152.6578 H   0  0  0  0  0  0  0  0  0  0  0  0
  145.7965  135.2680  154.1431 H   0  0  0  0  0  0  0  0  0  0  0  0
  145.9666  133.0377  153.0436 H   0  0  0  0  0  0  0  0  0  0  0  0
  146.8332  134.6722  150.6433 H   0  0  0  0  0  0  0  0  0  0  0  0
  147.5438  133.0896  150.8704 H   0  0  0  0  0  0  0  0  0  0  0  0
  143.9215  134.4287  151.1289 H   0  0  0  0  0  0  0  0  0  0  0  0
  142.3668  132.6222  149.7152 H   0  0  0  0  0  0  0  0  0  0  0  0
  146.3396  131.3658  149.5742 H   0  0  0  0  0  0  0  0  0  0  0  0
  148.4673  134.6430  153.1083 H   0  0  0  0  0  0  0  0  0  0  0  0
  150.4245  133.2995  153.7452 H   0  0  0  0  0  0  0  0  0  0  0  0
  149.7970  133.8958  155.2623 H   0  0  0  0  0  0  0  0  0  0  0  0
  149.1950  130.2138  154.6197 H   0  0  0  0  0  0  0  0  0  0  0  0
  150.5355  130.6358  153.5592 H   0  0  0  0  0  0  0  0  0  0  0  0
  150.7372  128.5792  155.3721 H   0  0  0  0  0  0  0  0  0  0  0  0
  152.1209  129.5753  154.9283 H   0  0  0  0  0  0  0  0  0  0  0  0
  1  2  1  0  0  0  0
  1 19  1  0  0  0  0
  1 20  1  0  0  0  0
  1 21  1  0  0  0  0
  2  3  1  0  0  0  0
  2  9  1  0  0  0  0
  2 22  1  0  0  0  0
  3  4  1  0  0  0  0
  3 23  1  0  0  0  0
  3 24  1  0  0  0  0
  4  8  1  0  0  0  0
  4  5  1  0  0  0  0
  5  6  2  0  0  0  0
  5 25  1  0  0  0  0
  6  7  1  0  0  0  0
  6 26  1  0  0  0  0
  7  8  2  0  0  0  0
  8 27  1  0  0  0  0
  9 10  1  0  0  0  0
  9 28  1  0  0  0  0
 10 11  2  0  0  0  0
 10 12  1  0  0  0  0
 12 13  1  0  0  0  0
 12 29  1  0  0  0  0
 12 30  1  0  0  0  0
 13 17  1  0  0  0  0
 13 14  1  0  0  0  0
 14 15  1  0  0  0  0
 14 31  1  0  0  0  0
 14 32  1  0  0  0  0
 15 16  1  0  0  0  0
 15 33  1  0  0  0  0
 15 34  1  0  0  0  0
 16 17  1  0  0  0  0
 17 18  2  0  0  0  0
M  END
> <s_m_source_file>
AV-unprocessed.smi

> <i_m_source_file_index>
3351

> <i_lp_mmshare_version>
43012

> <i_f3d_flags>
0

> <s_epik_input>
W2NIXTFuW2NIXVtjSF1uMVtDSDJdW0NAQEhdKFtDSDNdKVtOSF1DKD1PKVtDSDJdTjJbQ0gyXVtDSDJdU0MyPU8=

> <s_epik_cmdline>
J2VwaWtfcHl0aG9uJywgJy1waCcsICc3LjAnLCAnLXRuJywgJzgnLCAnLW1hJywgJzIwMCcsICctbWV0YWxfYmluZGluZycsICctaW1hZScsICc8aW5maWxlLm1hZT4nLCAnLW9tYWUnLCAnPG91dGZpbGUubWFlPic=

> <r_lp_tautomer_probability>
1

> <r_epik_Ionization_Penalty>
0.618163

> <r_epik_Ionization_Penalty_Charging>
0.618163

> <r_epik_Ionization_Penalty_Neutral>
6.6929e-08

> <r_epik_State_Penalty>
0.633954

> <r_epik_Charging_Adjusted_Penalty>
1.25212

> <i_epik_Tot_Q>
0

> <i_epik_Tot_abs_Q>
0

> <r_epik_Metal_State_Penalty>
0.305924

> <b_epik_Metal_Only>
0

> <s_lp_Force_Field>
OPLS_2005

> <r_lp_Energy>
4.61171

> <b_lp_Chiralities_Consistent>
1

> <s_lp_Variant>
AV-unprocessed.smi:3351-4

> <Gold.Version>
5.8.1

> <Gold.Id.Protein>
6NUR|6NUR_protein|mol2

> <Gold.PLP.Fitness>
45.0500

> <Gold.PLP.PLP>
-31.1425

> <Gold.PLP.part.hbond>
-3.0000

> <Gold.PLP.part.metal>
0.0000

> <Gold.PLP.part.buried>
-3.2982

> <Gold.PLP.part.nonpolar>
-26.2330

> <Gold.PLP.part.repulsive>
0.1774

> <Gold.PLP.ligand.clash>
0.0000

> <Gold.PLP.ligand.torsion>
0.4759

> <Gold.PLP.Chemscore.Hbond>
2.3520

> <Gold.PLP.Chemscore.CHOScore>
2.5875

> <Gold.PLP.Chemscore.Metal>
0.0000

> <Gold.Chemscore.Hbonds>
donor molecule, donor type, donor heavy atom, donor atom, acceptor molecule, acceptor atom, score
      L1  H     9    28       P1  7948  0.92
      P1  H  6896  6909       L1    18  1.00
      P1  H 10785 10796       L1     7  0.54
      L1  C     6    26       P1 10186  0.96
      L1  C     6    26       P1 10952  0.43
      L1  C     8    27       P1 10747  0.44

> <Gold.PLP.Chemscore.Internal.Correction>
0.0408

> <Gold.Rescore>
     Score         DG    S(hbond)    S(metal)    S(lipo)     H(rot)  DE(clash)    DE(int)     intcor
     10.57     -12.41       2.05        0.00      51.76       2.33       0.42       1.43       ----

> <Gold.Chemscore.Fitness>
10.5667

> <Gold.Chemscore.DG>
-12.4119

> <Gold.Chemscore.ZeroCoef>
-5.4800

> <Gold.Chemscore.Hbond>
2.0494

> <Gold.Chemscore.Metal>
0.0000

> <Gold.Chemscore.Lipo>
51.7624

> <Gold.Chemscore.Internal_Hbond>
0.0000

> <Gold.Chemscore.DEClash>
0.4202

> <Gold.Chemscore.DEInternal>
1.4250

> <Gold.Chemscore.Rot>
2.3317

> <Gold.Chemscore.Internal.Correction>
   9.000000E+99

> <Gold.Chemscore.Hbonds>
donor molecule, donor type, donor heavy atom, donor atom, acceptor molecule, acceptor atom, score
      L1  H     9    28       P1  7948  0.38
      P1  H  6896  6909       L1    18  0.95
      P1  H 10785 10796       L1     7  0.44

> <Gold.Chemscore.Hbond.Weighted>
-6.8450

> <Gold.Chemscore.Metal.Weighted>
-0.0000

> <Gold.Chemscore.Lipo.Weighted>
-6.0562

> <Gold.Chemscore.Internal_Hbond.Weighted>
0.0000

> <Gold.Chemscore.DEClash.Weighted>
0.4202

> <Gold.Chemscore.DEInternal.Weighted>
1.4250

> <Gold.Chemscore.Rot.Weighted>
5.9692

> <Gold.Chemscore.Internal.Correction.Weighted>
   9.000000E+99

> <Gold.Protein.RotatedTorsions>
[ 6907 6896 6895 6894 ] final  -31.75 input  -60.11 | X-H torsion
[ 7974 7965 7964 7962 ] final -178.61 input  175.53 | X-H torsion
[ 8008 7997 7996 7995 ] final  103.78 input   59.86 | X-H torsion
[ 10167 10162 10161 10158 ] final   81.35 input  -65.29 | X-H torsion
[ 10718 10713 10712 10709 ] final  149.27 input   66.30 | X-H torsion
[ 10763 10752 10751 10750 ] final  107.26 input  -60.55 | X-H torsion
[ 11005 11000 10999 10996 ] final    8.68 input  -57.11 | X-H torsion

> <Gold.Protein.ActiveResidues>
 VAL166  LYS551  ARG553  GLY616  TRP617  ASP618  TYR619  PRO620  LYS621  CYS622 
 ASP623  PHE694  ASN695  SER759  ASP760  ASP761  ALA762  ILE779  LEU786  VAL792 
 PHE793  MET794  SER795  GLU796  ALA797  LYS798  CYS799  TRP800  GLU811  SER814 

> <Gold.Protein.RotatedAtoms>
  151.0879  134.9898  159.8388 H   0  0  0  0  0  0  0  0  0  0  0  0  # atno 6907 bound_to 6896
  152.5426  134.2101  159.8756 H   0  0  0  0  0  0  0  0  0  0  0  0  # atno 6908 bound_to 6896
  151.2135  133.4498  159.2632 H   0  0  0  0  0  0  0  0  0  0  0  0  # atno 6909 bound_to 6896
  144.7132  140.0842  143.6424 H   0  0  0  0  0  0  0  0  0  0  0  0  # atno 7974 bound_to 7965
  156.1514  140.3159  155.8654 H   0  0  0  0  0  0  0  0  0  0  0  0  # atno 8008 bound_to 7997
  155.3963  140.0497  157.3056 H   0  0  0  0  0  0  0  0  0  0  0  0  # atno 8009 bound_to 7997
  154.5062  140.2148  155.9258 H   0  0  0  0  0  0  0  0  0  0  0  0  # atno 8010 bound_to 7997
  139.9401  144.6095  150.8260 H   0  0  0  0  0  0  0  0  0  0  0  0  # atno 10167 bound_to 10162
  157.2982  131.0866  151.1410 H   0  0  0  0  0  0  0  0  0  0  0  0  # atno 10718 bound_to 10713
  153.4043  135.3850  155.2008 H   0  0  0  0  0  0  0  0  0  0  0  0  # atno 10763 bound_to 10752
  154.8732  135.3779  154.4579 H   0  0  0  0  0  0  0  0  0  0  0  0  # atno 10764 bound_to 10752
  153.5080  135.7087  153.5858 H   0  0  0  0  0  0  0  0  0  0  0  0  # atno 10765 bound_to 10752
  140.5342  134.0436  155.7883 H   0  0  0  0  0  0  0  0  0  0  0  0  # atno 11005 bound_to 11000
  145.9676  139.2846  143.1118 LP  0  0  0  0  0  0  0  0  0  0  0  0  # atno 17320 bound_to 7965
  145.9152  140.9153  143.0433 LP  0  0  0  0  0  0  0  0  0  0  0  0  # atno 17321 bound_to 7965
  140.7613  143.3171  151.2707 LP  0  0  0  0  0  0  0  0  0  0  0  0  # atno 17342 bound_to 10162
  139.6711  144.0018  152.2753 LP  0  0  0  0  0  0  0  0  0  0  0  0  # atno 17343 bound_to 10162
  157.2779  130.6736  149.6051 LP  0  0  0  0  0  0  0  0  0  0  0  0  # atno 17370 bound_to 10713
  155.9670  130.4459  150.5518 LP  0  0  0  0  0  0  0  0  0  0  0  0  # atno 17371 bound_to 10713
  141.1264  133.9376  157.2627 LP  0  0  0  0  0  0  0  0  0  0  0  0  # atno 17394 bound_to 11000
  139.9538  135.0170  156.9069 LP  0  0  0  0  0  0  0  0  0  0  0  0  # atno 17395 bound_to 11000

$$$$
