AV-unprocessed.smi:1048|AV-procd|sdf|4607|dock9
  -GOLD-   22720 3103D 1   1.00000     0.00000
 Structure written by MMmdl.
 46 47  0  0  0  0  0  0  0  0  2 V2000
  143.7990  135.6018  155.0643 C   0  0  0  0  0  0  0  0  0  0  0  0
  145.1360  135.2632  154.3821 C   0  0  2  0  0  0  0  0  0  0  0  0
  146.3514  135.8405  155.1311 C   0  0  0  0  0  0  0  0  0  0  0  0
  146.4873  137.3616  154.9385 C   0  0  0  0  0  0  0  0  0  0  0  0
  146.5433  137.7163  153.4959 N   0  3  2  0  0  0  0  0  0  0  0  0
  146.8124  139.1574  153.2562 C   0  0  0  0  0  0  0  0  0  0  0  0
  148.0441  139.6629  154.0353 C   0  0  1  0  0  0  0  0  0  0  0  0
  149.1000  138.7625  153.7623 O   0  0  0  0  0  0  0  0  0  0  0  0
  148.4680  141.0705  153.5679 C   0  0  0  0  0  0  0  0  0  0  0  0
  149.0402  141.8616  154.6533 N   0  0  0  0  0  0  0  0  0  0  0  0
  150.0404  141.4616  155.4515 C   0  0  0  0  0  0  0  0  0  0  0  0
  150.5662  140.3521  155.3714 O   0  0  0  0  0  0  0  0  0  0  0  0
  150.3635  142.4128  156.3444 N   0  0  0  0  0  0  0  0  0  0  0  0
  151.3871  142.3885  157.3304 C   0  0  0  0  0  0  0  0  0  0  0  0
  152.0776  143.5890  157.5965 C   0  0  0  0  0  0  0  0  0  0  0  0
  153.1093  143.5905  158.5545 C   0  0  0  0  0  0  0  0  0  0  0  0
  153.4186  142.3814  159.2068 C   0  0  0  0  0  0  0  0  0  0  0  0
  152.7796  141.2201  158.9536 N   0  0  0  0  0  0  0  0  0  0  0  0
  151.7899  141.2261  158.0346 C   0  0  0  0  0  0  0  0  0  0  0  0
  145.3439  137.2331  152.7656 C   0  0  0  0  0  0  0  0  0  0  0  0
  145.1819  135.7091  152.9092 C   0  0  0  0  0  0  0  0  0  0  0  0
  143.6117  136.6748  155.0961 H   0  0  0  0  0  0  0  0  0  0  0  0
  143.7812  135.2335  156.0902 H   0  0  0  0  0  0  0  0  0  0  0  0
  142.9646  135.1381  154.5375 H   0  0  0  0  0  0  0  0  0  0  0  0
  145.2242  134.1760  154.4000 H   0  0  0  0  0  0  0  0  0  0  0  0
  146.2893  135.6010  156.1933 H   0  0  0  0  0  0  0  0  0  0  0  0
  147.2583  135.3567  154.7658 H   0  0  0  0  0  0  0  0  0  0  0  0
  145.6529  137.8809  155.4118 H   0  0  0  0  0  0  0  0  0  0  0  0
  147.3905  137.7013  155.4442 H   0  0  0  0  0  0  0  0  0  0  0  0
  146.9831  139.3326  152.1926 H   0  0  0  0  0  0  0  0  0  0  0  0
  145.9251  139.7364  153.5168 H   0  0  0  0  0  0  0  0  0  0  0  0
  147.8422  139.6752  155.1066 H   0  0  0  0  0  0  0  0  0  0  0  0
  149.5300  139.0356  152.9648 H   0  0  0  0  0  0  0  0  0  0  0  0
  149.1399  141.0241  152.7086 H   0  0  0  0  0  0  0  0  0  0  0  0
  147.5884  141.6197  153.2308 H   0  0  0  0  0  0  0  0  0  0  0  0
  148.6613  142.7870  154.7925 H   0  0  0  0  0  0  0  0  0  0  0  0
  149.7836  143.2390  156.3447 H   0  0  0  0  0  0  0  0  0  0  0  0
  151.8194  144.5006  157.0774 H   0  0  0  0  0  0  0  0  0  0  0  0
  153.6512  144.4961  158.7834 H   0  0  0  0  0  0  0  0  0  0  0  0
  154.2040  142.3450  159.9472 H   0  0  0  0  0  0  0  0  0  0  0  0
  151.3368  140.2635  157.8578 H   0  0  0  0  0  0  0  0  0  0  0  0
  144.4565  137.7523  153.1303 H   0  0  0  0  0  0  0  0  0  0  0  0
  145.4376  137.4777  151.7067 H   0  0  0  0  0  0  0  0  0  0  0  0
  146.0205  135.2177  152.4140 H   0  0  0  0  0  0  0  0  0  0  0  0
  144.2858  135.3763  152.3844 H   0  0  0  0  0  0  0  0  0  0  0  0
  147.3278  137.2187  153.0988 H   0  0  0  0  0  0  0  0  0  0  0  0
  1  2  1  0  0  0  0
  1 22  1  0  0  0  0
  1 23  1  0  0  0  0
  1 24  1  0  0  0  0
  2 21  1  0  0  0  0
  2  3  1  0  0  0  0
  2 25  1  0  0  0  0
  3  4  1  0  0  0  0
  3 26  1  0  0  0  0
  3 27  1  0  0  0  0
  4  5  1  0  0  0  0
  4 28  1  0  0  0  0
  4 29  1  0  0  0  0
  5  6  1  0  0  0  0
  5 20  1  0  0  0  0
  5 46  1  0  0  0  0
  6  7  1  0  0  0  0
  6 30  1  0  0  0  0
  6 31  1  0  0  0  0
  7  8  1  0  0  0  0
  7  9  1  0  0  0  0
  7 32  1  0  0  0  0
  8 33  1  0  0  0  0
  9 10  1  0  0  0  0
  9 34  1  0  0  0  0
  9 35  1  0  0  0  0
 10 11  1  0  0  0  0
 10 36  1  0  0  0  0
 11 12  2  0  0  0  0
 11 13  1  0  0  0  0
 13 14  1  0  0  0  0
 13 37  1  0  0  0  0
 14 19  1  0  0  0  0
 14 15  2  0  0  0  0
 15 16  1  0  0  0  0
 15 38  1  0  0  0  0
 16 17  2  0  0  0  0
 16 39  1  0  0  0  0
 17 18  1  0  0  0  0
 17 40  1  0  0  0  0
 18 19  2  0  0  0  0
 19 41  1  0  0  0  0
 20 21  1  0  0  0  0
 20 42  1  0  0  0  0
 20 43  1  0  0  0  0
 21 44  1  0  0  0  0
 21 45  1  0  0  0  0
M  CHG  1   5   1
M  END
> <s_m_source_file>
AV-unprocessed.smi

> <i_m_source_file_index>
1048

> <i_lp_mmshare_version>
43012

> <i_f3d_flags>
0

> <s_epik_input>
W0NIM11bQ0hdMVtDSDJdW0NIMl1OKFtDSDJdW0NIMl0xKVtDSDJdW0NASF0oW09IXSlbQ0gyXVtOSF1DKD1PKVtOSF1jMltjSF1bY0hdW2NIXW5bY0hdMg==

> <s_epik_cmdline>
J2VwaWtfcHl0aG9uJywgJy1waCcsICc3LjAnLCAnLXRuJywgJzgnLCAnLW1hJywgJzIwMCcsICctbWV0YWxfYmluZGluZycsICctaW1hZScsICc8aW5maWxlLm1hZT4nLCAnLW9tYWUnLCAnPG91dGZpbGUubWFlPic=

> <r_lp_tautomer_probability>
1

> <r_epik_Ionization_Penalty>
0.00581049

> <r_epik_Ionization_Penalty_Charging>
0.00147689

> <r_epik_Ionization_Penalty_Neutral>
0.0043336

> <r_epik_State_Penalty>
-0

> <r_epik_Charging_Adjusted_Penalty>
0.00147689

> <i_epik_Tot_Q>
1

> <i_epik_Tot_abs_Q>
1

> <r_epik_Metal_State_Penalty>
-0

> <b_epik_Metal_Only>
0

> <s_lp_Force_Field>
OPLS_2005

> <r_lp_Energy>
24.6749

> <b_lp_Chiralities_Consistent>
1

> <s_lp_Variant>
AV-unprocessed.smi:1048-4

> <Gold.Version>
5.8.1

> <Gold.Id.Protein>
6NUR|6NUR_protein|mol2

> <Gold.PLP.Fitness>
50.3721

> <Gold.PLP.PLP>
-36.0591

> <Gold.PLP.part.hbond>
-5.1298

> <Gold.PLP.part.metal>
0.0000

> <Gold.PLP.part.buried>
-1.2709

> <Gold.PLP.part.nonpolar>
-28.4694

> <Gold.PLP.part.repulsive>
0.3728

> <Gold.PLP.ligand.clash>
0.0000

> <Gold.PLP.ligand.torsion>
0.8042

> <Gold.PLP.Chemscore.Hbond>
5.2714

> <Gold.PLP.Chemscore.CHOScore>
0.0000

> <Gold.PLP.Chemscore.Metal>
0.0000

> <Gold.Chemscore.Hbonds>
donor molecule, donor type, donor heavy atom, donor atom, acceptor molecule, acceptor atom, score
      L1  H     5    46       P1  7948  0.81
      L1  H     8    33       P1  7957  0.93
      L1  H    10    36       P1  8028  0.78
      L1  H    13    37       P1  8028  1.00
      P1  H  7989  7998       L1    12  0.32

> <Gold.PLP.Chemscore.Internal.Correction>
0.1074

> <Gold.Rescore>
     Score         DG    S(hbond)    S(metal)    S(lipo)     H(rot)  DE(clash)    DE(int)     intcor
     17.59     -23.55       4.05        0.00      88.69       2.29       1.21       4.74       ----

> <Gold.Chemscore.Fitness>
17.5950

> <Gold.Chemscore.DG>
-23.5470

> <Gold.Chemscore.ZeroCoef>
-5.4800

> <Gold.Chemscore.Hbond>
4.0549

> <Gold.Chemscore.Metal>
0.0000

> <Gold.Chemscore.Lipo>
88.6928

> <Gold.Chemscore.Internal_Hbond>
0.0000

> <Gold.Chemscore.DEClash>
1.2123

> <Gold.Chemscore.DEInternal>
4.7398

> <Gold.Chemscore.Rot>
2.2865

> <Gold.Chemscore.Internal.Correction>
   9.000000E+99

> <Gold.Chemscore.Hbonds>
donor molecule, donor type, donor heavy atom, donor atom, acceptor molecule, acceptor atom, score
      L1  H     5    46       P1  7948  0.41
      L1  H     8    33       P1  7957  0.85
      L1  H    10    36       P1  8028  0.73
      L1  H    13    37       P1  8028  0.99
      P1  H  7989  7998       L1    12  0.02

> <Gold.Chemscore.Hbond.Weighted>
-13.5435

> <Gold.Chemscore.Metal.Weighted>
-0.0000

> <Gold.Chemscore.Lipo.Weighted>
-10.3771

> <Gold.Chemscore.Internal_Hbond.Weighted>
0.0000

> <Gold.Chemscore.DEClash.Weighted>
1.2123

> <Gold.Chemscore.DEInternal.Weighted>
4.7398

> <Gold.Chemscore.Rot.Weighted>
5.8536

> <Gold.Chemscore.Internal.Correction.Weighted>
   9.000000E+99

> <Gold.Protein.RotatedTorsions>
[ 6907 6896 6895 6894 ] final   39.63 input  -60.11 | X-H torsion
[ 7974 7965 7964 7962 ] final   59.99 input  175.53 | X-H torsion
[ 8008 7997 7996 7995 ] final  160.41 input   59.86 | X-H torsion
[ 10167 10162 10161 10158 ] final -114.23 input  -65.29 | X-H torsion
[ 10718 10713 10712 10709 ] final   16.15 input   66.30 | X-H torsion
[ 10763 10752 10751 10750 ] final   95.32 input  -60.55 | X-H torsion
[ 11005 11000 10999 10996 ] final    3.19 input  -57.11 | X-H torsion

> <Gold.Protein.ActiveResidues>
 VAL166  LYS551  ARG553  GLY616  TRP617  ASP618  TYR619  PRO620  LYS621  CYS622 
 ASP623  PHE694  ASN695  SER759  ASP760  ASP761  ALA762  ILE779  LEU786  VAL792 
 PHE793  MET794  SER795  GLU796  ALA797  LYS798  CYS799  TRP800  GLU811  SER814 

> <Gold.Protein.RotatedAtoms>
  152.1721  134.8825  160.0533 H   0  0  0  0  0  0  0  0  0  0  0  0  # atno 6907 bound_to 6896
  151.9781  133.3743  159.4105 H   0  0  0  0  0  0  0  0  0  0  0  0  # atno 6908 bound_to 6896
  150.6903  134.3990  159.5154 H   0  0  0  0  0  0  0  0  0  0  0  0  # atno 6909 bound_to 6896
  145.9011  139.3582  143.0592 H   0  0  0  0  0  0  0  0  0  0  0  0  # atno 7974 bound_to 7965
  156.2174  140.1805  156.7558 H   0  0  0  0  0  0  0  0  0  0  0  0  # atno 8008 bound_to 7997
  154.5812  140.0666  156.9135 H   0  0  0  0  0  0  0  0  0  0  0  0  # atno 8009 bound_to 7997
  155.2499  140.3328  155.4285 H   0  0  0  0  0  0  0  0  0  0  0  0  # atno 8010 bound_to 7997
  140.1032  143.4594  152.1799 H   0  0  0  0  0  0  0  0  0  0  0  0  # atno 10167 bound_to 10162
  157.0638  130.6319  149.5791 H   0  0  0  0  0  0  0  0  0  0  0  0  # atno 10718 bound_to 10713
  153.2518  135.4258  155.0806 H   0  0  0  0  0  0  0  0  0  0  0  0  # atno 10763 bound_to 10752
  154.8385  135.3428  154.6501 H   0  0  0  0  0  0  0  0  0  0  0  0  # atno 10764 bound_to 10752
  153.6922  135.7033  153.5143 H   0  0  0  0  0  0  0  0  0  0  0  0  # atno 10765 bound_to 10752
  140.5959  133.9881  155.8110 H   0  0  0  0  0  0  0  0  0  0  0  0  # atno 11005 bound_to 11000
  145.8790  140.9374  143.0611 LP  0  0  0  0  0  0  0  0  0  0  0  0  # atno 17320 bound_to 7965
  144.6736  140.0755  143.7471 LP  0  0  0  0  0  0  0  0  0  0  0  0  # atno 17321 bound_to 7965
  139.5659  144.7435  151.4023 LP  0  0  0  0  0  0  0  0  0  0  0  0  # atno 17342 bound_to 10162
  140.6966  143.7733  150.7336 LP  0  0  0  0  0  0  0  0  0  0  0  0  # atno 17343 bound_to 10162
  155.9970  130.5041  150.7520 LP  0  0  0  0  0  0  0  0  0  0  0  0  # atno 17370 bound_to 10713
  157.4934  131.0913  151.0400 LP  0  0  0  0  0  0  0  0  0  0  0  0  # atno 17371 bound_to 10713
  141.0904  133.9925  157.3246 LP  0  0  0  0  0  0  0  0  0  0  0  0  # atno 17394 bound_to 11000
  139.9253  135.0201  156.8213 LP  0  0  0  0  0  0  0  0  0  0  0  0  # atno 17395 bound_to 11000

$$$$
