AV-unprocessed.smi:1252|AV-procd|sdf|5264|dock7
  -GOLD-   22720 4373D 1   1.00000     0.00000
 Structure written by MMmdl.
 43 44  0  0  0  0  0  0  0  0  1 V2000
  156.7516  133.1613  155.8218 C   0  0  0  0  0  0  0  0  0  0  0  0
  157.3867  131.8724  155.2704 C   0  0  2  0  0  0  0  0  0  0  0  0
  157.9566  132.0638  153.8572 C   0  0  0  0  0  0  0  0  0  0  0  0
  157.5613  131.3634  152.9242 O   0  0  0  0  0  0  0  0  0  0  0  0
  158.8863  133.0217  153.7181 N   0  0  0  0  0  0  0  0  0  0  0  0
  159.5509  133.3989  152.4713 C   0  0  0  0  0  0  0  0  0  0  0  0
  159.9576  134.9027  152.4258 C   0  0  0  0  0  0  0  0  0  0  0  0
  160.9597  135.1373  153.5818 C   0  0  0  0  0  0  0  0  0  0  0  0
  160.7370  135.1145  151.1030 C   0  0  0  0  0  0  0  0  0  0  0  0
  158.7680  135.7981  152.4943 N   0  0  0  0  0  0  0  0  0  0  0  0
  157.6117  135.3503  151.7090 C   0  0  0  0  0  0  0  0  0  0  0  0
  156.4687  136.3795  151.7244 C   0  0  0  0  0  0  0  0  0  0  0  0
  156.0842  136.6481  153.0672 O   0  0  0  0  0  0  0  0  0  0  0  0
  157.1633  137.1421  153.8511 C   0  0  0  0  0  0  0  0  0  0  0  0
  158.3141  136.1213  153.8522 C   0  0  0  0  0  0  0  0  0  0  0  0
  156.4336  130.7714  155.2914 N   0  0  0  0  0  0  0  0  0  0  0  0
  155.2824  130.5926  154.6362 C   0  0  0  0  0  0  0  0  0  0  0  0
  154.6691  129.4542  154.9281 N   0  0  0  0  0  0  0  0  0  0  0  0
  155.5538  128.9459  155.8362 C   0  0  0  0  0  0  0  0  0  0  0  0
  156.6251  129.6964  156.0929 N   0  0  0  0  0  0  0  0  0  0  0  0
  157.4586  133.9916  155.7973 H   0  0  0  0  0  0  0  0  0  0  0  0
  156.4410  133.0263  156.8583 H   0  0  0  0  0  0  0  0  0  0  0  0
  155.8710  133.4570  155.2502 H   0  0  0  0  0  0  0  0  0  0  0  0
  158.2176  131.6112  155.9291 H   0  0  0  0  0  0  0  0  0  0  0  0
  159.1433  133.5483  154.5404 H   0  0  0  0  0  0  0  0  0  0  0  0
  160.4250  132.7581  152.3591 H   0  0  0  0  0  0  0  0  0  0  0  0
  158.9219  133.1479  151.6150 H   0  0  0  0  0  0  0  0  0  0  0  0
  161.8208  134.4738  153.4926 H   0  0  0  0  0  0  0  0  0  0  0  0
  160.5150  134.9443  154.5578 H   0  0  0  0  0  0  0  0  0  0  0  0
  161.3488  136.1552  153.5901 H   0  0  0  0  0  0  0  0  0  0  0  0
  161.4933  134.3425  150.9560 H   0  0  0  0  0  0  0  0  0  0  0  0
  161.2686  136.0658  151.0845 H   0  0  0  0  0  0  0  0  0  0  0  0
  160.0753  135.0913  150.2366 H   0  0  0  0  0  0  0  0  0  0  0  0
  157.8883  135.1786  150.6704 H   0  0  0  0  0  0  0  0  0  0  0  0
  157.2358  134.4037  152.0975 H   0  0  0  0  0  0  0  0  0  0  0  0
  156.7750  137.3046  151.2331 H   0  0  0  0  0  0  0  0  0  0  0  0
  155.6073  135.9963  151.1773 H   0  0  0  0  0  0  0  0  0  0  0  0
  157.4995  138.1024  153.4572 H   0  0  0  0  0  0  0  0  0  0  0  0
  156.8133  137.3185  154.8683 H   0  0  0  0  0  0  0  0  0  0  0  0
  157.9812  135.2184  154.3640 H   0  0  0  0  0  0  0  0  0  0  0  0
  159.1254  136.5406  154.4442 H   0  0  0  0  0  0  0  0  0  0  0  0
  154.8850  131.3106  153.9336 H   0  0  0  0  0  0  0  0  0  0  0  0
  155.4024  127.9946  156.3250 H   0  0  0  0  0  0  0  0  0  0  0  0
  1  2  1  0  0  0  0
  1 21  1  0  0  0  0
  1 22  1  0  0  0  0
  1 23  1  0  0  0  0
  2  3  1  0  0  0  0
  2 16  1  0  0  0  0
  2 24  1  0  0  0  0
  3  4  2  0  0  0  0
  3  5  1  0  0  0  0
  5  6  1  0  0  0  0
  5 25  1  0  0  0  0
  6  7  1  0  0  0  0
  6 26  1  0  0  0  0
  6 27  1  0  0  0  0
  7  8  1  0  0  0  0
  7  9  1  0  0  0  0
  7 10  1  0  0  0  0
  8 28  1  0  0  0  0
  8 29  1  0  0  0  0
  8 30  1  0  0  0  0
  9 31  1  0  0  0  0
  9 32  1  0  0  0  0
  9 33  1  0  0  0  0
 10 15  1  0  0  0  0
 10 11  1  0  0  0  0
 11 12  1  0  0  0  0
 11 34  1  0  0  0  0
 11 35  1  0  0  0  0
 12 13  1  0  0  0  0
 12 36  1  0  0  0  0
 12 37  1  0  0  0  0
 13 14  1  0  0  0  0
 14 15  1  0  0  0  0
 14 38  1  0  0  0  0
 14 39  1  0  0  0  0
 15 40  1  0  0  0  0
 15 41  1  0  0  0  0
 16 20  1  0  0  0  0
 16 17  1  0  0  0  0
 17 18  2  0  0  0  0
 17 42  1  0  0  0  0
 18 19  1  0  0  0  0
 19 20  2  0  0  0  0
 19 43  1  0  0  0  0
M  END
> <s_m_source_file>
AV-unprocessed.smi

> <i_m_source_file_index>
1252

> <i_lp_mmshare_version>
43012

> <i_f3d_flags>
0

> <s_epik_input>
bjFbY0hdbltjSF1uMVtDQEhdKFtDSDNdKUMoPU8pW05IXVtDSDJdQyhbQ0gzXSkoW0NIM10pTjJbQ0gyXVtDSDJdT1tDSDJdW0NIMl0y

> <s_epik_cmdline>
J2VwaWtfcHl0aG9uJywgJy1waCcsICc3LjAnLCAnLXRuJywgJzgnLCAnLW1hJywgJzIwMCcsICctbWV0YWxfYmluZGluZycsICctaW1hZScsICc8aW5maWxlLm1hZT4nLCAnLW9tYWUnLCAnPG91dGZpbGUubWFlPic=

> <r_lp_tautomer_probability>
1

> <r_epik_Ionization_Penalty>
0.211373

> <r_epik_Ionization_Penalty_Charging>
0

> <r_epik_Ionization_Penalty_Neutral>
0.211373

> <r_epik_State_Penalty>
0.201459

> <r_epik_Charging_Adjusted_Penalty>
0.201459

> <i_epik_Tot_Q>
0

> <i_epik_Tot_abs_Q>
0

> <r_epik_Metal_State_Penalty>
0.201458

> <b_epik_Metal_Only>
0

> <s_lp_Force_Field>
OPLS_2005

> <r_lp_Energy>
48.0219

> <b_lp_Chiralities_Consistent>
1

> <s_lp_Variant>
AV-unprocessed.smi:1252-1

> <Gold.Version>
5.8.1

> <Gold.Id.Protein>
6NUR|6NUR_protein|mol2

> <Gold.PLP.Fitness>
33.9771

> <Gold.PLP.PLP>
-29.6895

> <Gold.PLP.part.hbond>
-2.0000

> <Gold.PLP.part.metal>
0.0000

> <Gold.PLP.part.buried>
-2.6653

> <Gold.PLP.part.nonpolar>
-25.8221

> <Gold.PLP.part.repulsive>
0.2048

> <Gold.PLP.ligand.clash>
0.0000

> <Gold.PLP.ligand.torsion>
0.9237

> <Gold.PLP.Chemscore.Hbond>
2.0000

> <Gold.PLP.Chemscore.CHOScore>
0.0000

> <Gold.PLP.Chemscore.Metal>
0.0000

> <Gold.Chemscore.Hbonds>
donor molecule, donor type, donor heavy atom, donor atom, acceptor molecule, acceptor atom, score
      P1  H 10713 10718       L1     4  1.00
      P1  H 10752 10765       L1    13  1.00

> <Gold.PLP.Chemscore.Internal.Correction>
0.1351

> <Gold.Rescore>
     Score         DG    S(hbond)    S(metal)    S(lipo)     H(rot)  DE(clash)    DE(int)     intcor
     14.09     -15.39       1.93        0.00      84.57       2.52       0.10       1.19       ----

> <Gold.Chemscore.Fitness>
14.0932

> <Gold.Chemscore.DG>
-15.3860

> <Gold.Chemscore.ZeroCoef>
-5.4800

> <Gold.Chemscore.Hbond>
1.9313

> <Gold.Chemscore.Metal>
0.0000

> <Gold.Chemscore.Lipo>
84.5678

> <Gold.Chemscore.Internal_Hbond>
0.0000

> <Gold.Chemscore.DEClash>
0.1046

> <Gold.Chemscore.DEInternal>
1.1881

> <Gold.Chemscore.Rot>
2.5153

> <Gold.Chemscore.Internal.Correction>
   9.000000E+99

> <Gold.Chemscore.Hbonds>
donor molecule, donor type, donor heavy atom, donor atom, acceptor molecule, acceptor atom, score
      P1  H 10713 10718       L1     4  1.00
      P1  H 10752 10765       L1    13  0.94

> <Gold.Chemscore.Hbond.Weighted>
-6.4507

> <Gold.Chemscore.Metal.Weighted>
-0.0000

> <Gold.Chemscore.Lipo.Weighted>
-9.8944

> <Gold.Chemscore.Internal_Hbond.Weighted>
0.0000

> <Gold.Chemscore.DEClash.Weighted>
0.1046

> <Gold.Chemscore.DEInternal.Weighted>
1.1881

> <Gold.Chemscore.Rot.Weighted>
6.4392

> <Gold.Chemscore.Internal.Correction.Weighted>
   9.000000E+99

> <Gold.Protein.RotatedTorsions>
[ 6907 6896 6895 6894 ] final  101.93 input  -60.11 | X-H torsion
[ 7974 7965 7964 7962 ] final   43.49 input  175.53 | X-H torsion
[ 8008 7997 7996 7995 ] final   43.51 input   59.86 | X-H torsion
[ 10167 10162 10161 10158 ] final  107.72 input  -65.29 | X-H torsion
[ 10718 10713 10712 10709 ] final  156.94 input   66.30 | X-H torsion
[ 10763 10752 10751 10750 ] final   25.63 input  -60.55 | X-H torsion
[ 11005 11000 10999 10996 ] final  123.97 input  -57.11 | X-H torsion

> <Gold.Protein.ActiveResidues>
 VAL166  LYS551  ARG553  GLY616  TRP617  ASP618  TYR619  PRO620  LYS621  CYS622 
 ASP623  PHE694  ASN695  SER759  ASP760  ASP761  ALA762  ILE779  LEU786  VAL792 
 PHE793  MET794  SER795  GLU796  ALA797  LYS798  CYS799  TRP800  GLU811  SER814 

> <Gold.Protein.RotatedAtoms>
  152.5337  134.0052  159.7912 H   0  0  0  0  0  0  0  0  0  0  0  0  # atno 6907 bound_to 6896
  151.0264  133.5822  159.2672 H   0  0  0  0  0  0  0  0  0  0  0  0  # atno 6908 bound_to 6896
  151.2843  135.0730  159.9234 H   0  0  0  0  0  0  0  0  0  0  0  0  # atno 6909 bound_to 6896
  146.0651  139.5181  142.9633 H   0  0  0  0  0  0  0  0  0  0  0  0  # atno 7974 bound_to 7965
  155.3040  140.3387  155.4246 H   0  0  0  0  0  0  0  0  0  0  0  0  # atno 8008 bound_to 7997
  156.1988  140.1725  156.7982 H   0  0  0  0  0  0  0  0  0  0  0  0  # atno 8009 bound_to 7997
  154.5532  140.0701  156.8685 H   0  0  0  0  0  0  0  0  0  0  0  0  # atno 8010 bound_to 7997
  139.6904  144.7108  151.1358 H   0  0  0  0  0  0  0  0  0  0  0  0  # atno 10167 bound_to 10162
  157.1981  131.0670  151.2041 H   0  0  0  0  0  0  0  0  0  0  0  0  # atno 10718 bound_to 10713
  153.0678  135.6578  154.0314 H   0  0  0  0  0  0  0  0  0  0  0  0  # atno 10763 bound_to 10752
  153.9967  135.2941  155.3408 H   0  0  0  0  0  0  0  0  0  0  0  0  # atno 10764 bound_to 10752
  154.7043  135.5232  153.8641 H   0  0  0  0  0  0  0  0  0  0  0  0  # atno 10765 bound_to 10752
  139.9337  134.9640  156.8339 H   0  0  0  0  0  0  0  0  0  0  0  0  # atno 11005 bound_to 11000
  145.6491  141.0267  143.1770 LP  0  0  0  0  0  0  0  0  0  0  0  0  # atno 17320 bound_to 7965
  144.7197  139.8071  143.7386 LP  0  0  0  0  0  0  0  0  0  0  0  0  # atno 17321 bound_to 7965
  140.7681  143.5567  150.9144 LP  0  0  0  0  0  0  0  0  0  0  0  0  # atno 17342 bound_to 10162
  139.9244  143.6567  152.3090 LP  0  0  0  0  0  0  0  0  0  0  0  0  # atno 17343 bound_to 10162
  157.3794  130.7223  149.6619 LP  0  0  0  0  0  0  0  0  0  0  0  0  # atno 17370 bound_to 10713
  155.9703  130.4177  150.4290 LP  0  0  0  0  0  0  0  0  0  0  0  0  # atno 17371 bound_to 10713
  140.6133  134.0062  155.7586 LP  0  0  0  0  0  0  0  0  0  0  0  0  # atno 17394 bound_to 11000
  141.0939  133.9873  157.3191 LP  0  0  0  0  0  0  0  0  0  0  0  0  # atno 17395 bound_to 11000

$$$$
