AV-unprocessed.smi:2923|AV-procd|sdf|11214|dock6
  -GOLD-   2272016103D 1   1.00000     0.00000
 Structure written by MMmdl.
 46 48  0  0  0  0  0  0  0  0  1 V2000
  145.9709  132.0218  149.5690 C   0  0  0  0  0  0  0  0  0  0  0  0
  145.1132  132.3329  150.7018 N   0  0  0  0  0  0  0  0  0  0  0  0
  143.6976  132.0412  150.5358 C   0  0  0  0  0  0  0  0  0  0  0  0
  145.3544  133.6077  151.2303 C   0  0  0  0  0  0  0  0  0  0  0  0
  145.0269  134.7772  150.5074 C   0  0  0  0  0  0  0  0  0  0  0  0
  145.2951  136.0314  151.0882 C   0  0  0  0  0  0  0  0  0  0  0  0
  145.8898  136.0771  152.3716 C   0  0  0  0  0  0  0  0  0  0  0  0
  146.1946  137.2752  153.0723 N   0  0  0  0  0  0  0  0  0  0  0  0
  146.6282  138.4479  152.5794 C   0  0  0  0  0  0  0  0  0  0  0  0
  146.8445  138.6863  151.3916 O   0  0  0  0  0  0  0  0  0  0  0  0
  146.8171  139.3392  153.5605 N   0  0  0  0  0  0  0  0  0  0  0  0
  147.2889  140.7135  153.3779 C   0  0  2  0  0  0  0  0  0  0  0  0
  148.6844  140.9573  153.9956 C   0  0  2  0  0  0  0  0  0  0  0  0
  149.5738  139.8388  154.4818 C   0  0  0  0  0  0  0  0  0  0  0  0
  149.2884  139.8090  155.9861 C   0  0  0  0  0  0  0  0  0  0  0  0
  148.0219  140.4490  156.1300 O   0  0  0  0  0  0  0  0  0  0  0  0
  147.9771  141.5374  155.2098 C   0  0  2  0  0  0  0  0  0  0  0  0
  146.6726  141.7027  154.4017 C   0  0  0  0  0  0  0  0  0  0  0  0
  146.4523  143.1154  153.8527 C   0  0  0  0  0  0  0  0  0  0  0  0
  145.3721  141.3114  155.1170 C   0  0  0  0  0  0  0  0  0  0  0  0
  146.1637  134.8506  153.0117 C   0  0  0  0  0  0  0  0  0  0  0  0
  145.9112  133.6449  152.4599 N   0  0  0  0  0  0  0  0  0  0  0  0
  147.0106  132.2670  149.7895 H   0  0  0  0  0  0  0  0  0  0  0  0
  145.6647  132.5792  148.6831 H   0  0  0  0  0  0  0  0  0  0  0  0
  145.9183  130.9576  149.3385 H   0  0  0  0  0  0  0  0  0  0  0  0
  143.1419  132.2931  151.4401 H   0  0  0  0  0  0  0  0  0  0  0  0
  143.5538  130.9788  150.3379 H   0  0  0  0  0  0  0  0  0  0  0  0
  143.2754  132.6038  149.7023 H   0  0  0  0  0  0  0  0  0  0  0  0
  144.5760  134.7189  149.5276 H   0  0  0  0  0  0  0  0  0  0  0  0
  145.0282  136.9243  150.5452 H   0  0  0  0  0  0  0  0  0  0  0  0
  146.1323  137.2141  154.0781 H   0  0  0  0  0  0  0  0  0  0  0  0
  146.6172  139.0543  154.5083 H   0  0  0  0  0  0  0  0  0  0  0  0
  147.2262  141.0771  152.3506 H   0  0  0  0  0  0  0  0  0  0  0  0
  149.2192  141.7346  153.4476 H   0  0  0  0  0  0  0  0  0  0  0  0
  149.3305  138.8858  154.0123 H   0  0  0  0  0  0  0  0  0  0  0  0
  150.6281  140.0365  154.2864 H   0  0  0  0  0  0  0  0  0  0  0  0
  149.2743  138.7975  156.3921 H   0  0  0  0  0  0  0  0  0  0  0  0
  150.0392  140.3846  156.5295 H   0  0  0  0  0  0  0  0  0  0  0  0
  148.4280  142.4538  155.5934 H   0  0  0  0  0  0  0  0  0  0  0  0
  146.2552  143.8301  154.6524 H   0  0  0  0  0  0  0  0  0  0  0  0
  145.6074  143.1494  153.1640 H   0  0  0  0  0  0  0  0  0  0  0  0
  147.3252  143.4771  153.3082 H   0  0  0  0  0  0  0  0  0  0  0  0
  145.0954  142.0464  155.8734 H   0  0  0  0  0  0  0  0  0  0  0  0
  145.4544  140.3530  155.6297 H   0  0  0  0  0  0  0  0  0  0  0  0
  144.5407  141.2319  154.4159 H   0  0  0  0  0  0  0  0  0  0  0  0
  146.6052  134.8334  153.9975 H   0  0  0  0  0  0  0  0  0  0  0  0
  1  2  1  0  0  0  0
  1 23  1  0  0  0  0
  1 24  1  0  0  0  0
  1 25  1  0  0  0  0
  2  3  1  0  0  0  0
  2  4  1  0  0  0  0
  3 26  1  0  0  0  0
  3 27  1  0  0  0  0
  3 28  1  0  0  0  0
  4 22  1  0  0  0  0
  4  5  2  0  0  0  0
  5  6  1  0  0  0  0
  5 29  1  0  0  0  0
  6  7  2  0  0  0  0
  6 30  1  0  0  0  0
  7  8  1  0  0  0  0
  7 21  1  0  0  0  0
  8  9  1  0  0  0  0
  8 31  1  0  0  0  0
  9 10  2  0  0  0  0
  9 11  1  0  0  0  0
 11 12  1  0  0  0  0
 11 32  1  0  0  0  0
 12 18  1  0  0  0  0
 12 13  1  0  0  0  0
 12 33  1  0  0  0  0
 13 17  1  0  0  0  0
 13 14  1  0  0  0  0
 13 34  1  0  0  0  0
 14 15  1  0  0  0  0
 14 35  1  0  0  0  0
 14 36  1  0  0  0  0
 15 16  1  0  0  0  0
 15 37  1  0  0  0  0
 15 38  1  0  0  0  0
 16 17  1  0  0  0  0
 17 18  1  0  0  0  0
 17 39  1  0  0  0  0
 18 19  1  0  0  0  0
 18 20  1  0  0  0  0
 19 40  1  0  0  0  0
 19 41  1  0  0  0  0
 19 42  1  0  0  0  0
 20 43  1  0  0  0  0
 20 44  1  0  0  0  0
 20 45  1  0  0  0  0
 21 22  2  0  0  0  0
 21 46  1  0  0  0  0
M  END
> <s_m_source_file>
AV-unprocessed.smi

> <i_m_source_file_index>
2923

> <i_lp_mmshare_version>
43012

> <i_f3d_flags>
0

> <s_epik_input>
W0NIM11OKFtDSDNdKWMxW2NIXVtjSF1jKFtjSF1uMSlbTkhdQyg9TylbTkhdW0NASF0yQyhbQ0gzXSkoW0NIM10pW0NAQEhdKFtDQEhdMjMpT1tDSDJdW0NIMl0z

> <s_epik_cmdline>
J2VwaWtfcHl0aG9uJywgJy1waCcsICc3LjAnLCAnLXRuJywgJzgnLCAnLW1hJywgJzIwMCcsICctbWV0YWxfYmluZGluZycsICctaW1hZScsICc8aW5maWxlLm1hZT4nLCAnLW9tYWUnLCAnPG91dGZpbGUubWFlPic=

> <r_lp_tautomer_probability>
1

> <r_epik_Ionization_Penalty>
0.628785

> <r_epik_Ionization_Penalty_Charging>
0

> <r_epik_Ionization_Penalty_Neutral>
0.628785

> <r_epik_State_Penalty>
0.644286

> <r_epik_Charging_Adjusted_Penalty>
0.644286

> <i_epik_Tot_Q>
0

> <i_epik_Tot_abs_Q>
0

> <r_epik_Metal_State_Penalty>
0.308404

> <b_epik_Metal_Only>
0

> <s_lp_Force_Field>
OPLS_2005

> <r_lp_Energy>
44.9088

> <b_lp_Chiralities_Consistent>
1

> <s_lp_Variant>
AV-unprocessed.smi:2923-13

> <Gold.Version>
5.8.1

> <Gold.Id.Protein>
6NUR|6NUR_protein|mol2

> <Gold.PLP.Fitness>
38.4825

> <Gold.PLP.PLP>
-37.2485

> <Gold.PLP.part.hbond>
-1.3278

> <Gold.PLP.part.metal>
0.0000

> <Gold.PLP.part.buried>
-1.2448

> <Gold.PLP.part.nonpolar>
-35.3185

> <Gold.PLP.part.repulsive>
0.9853

> <Gold.PLP.ligand.clash>
0.0000

> <Gold.PLP.ligand.torsion>
0.5563

> <Gold.PLP.Chemscore.Hbond>
0.6500

> <Gold.PLP.Chemscore.CHOScore>
0.0000

> <Gold.PLP.Chemscore.Metal>
0.0000

> <Gold.Chemscore.Hbonds>
donor molecule, donor type, donor heavy atom, donor atom, acceptor molecule, acceptor atom, score
      P1  H  7954  7966       L1    10  0.70

> <Gold.PLP.Chemscore.Internal.Correction>
0.3967

> <Gold.Rescore>
     Score         DG    S(hbond)    S(metal)    S(lipo)     H(rot)  DE(clash)    DE(int)     intcor
     14.56     -15.89       0.84        0.00      91.18       1.19       0.74       0.60       ----

> <Gold.Chemscore.Fitness>
14.5578

> <Gold.Chemscore.DG>
-15.8949

> <Gold.Chemscore.ZeroCoef>
-5.4800

> <Gold.Chemscore.Hbond>
0.8391

> <Gold.Chemscore.Metal>
0.0000

> <Gold.Chemscore.Lipo>
91.1817

> <Gold.Chemscore.Internal_Hbond>
0.0000

> <Gold.Chemscore.DEClash>
0.7351

> <Gold.Chemscore.DEInternal>
0.6020

> <Gold.Chemscore.Rot>
1.1937

> <Gold.Chemscore.Internal.Correction>
   9.000000E+99

> <Gold.Chemscore.Hbonds>
donor molecule, donor type, donor heavy atom, donor atom, acceptor molecule, acceptor atom, score
      P1  H  7954  7966       L1    10  0.67

> <Gold.Chemscore.Hbond.Weighted>
-2.8025

> <Gold.Chemscore.Metal.Weighted>
-0.0000

> <Gold.Chemscore.Lipo.Weighted>
-10.6683

> <Gold.Chemscore.Internal_Hbond.Weighted>
0.0000

> <Gold.Chemscore.DEClash.Weighted>
0.7351

> <Gold.Chemscore.DEInternal.Weighted>
0.6020

> <Gold.Chemscore.Rot.Weighted>
3.0559

> <Gold.Chemscore.Internal.Correction.Weighted>
   9.000000E+99

> <Gold.Protein.RotatedTorsions>
[ 6907 6896 6895 6894 ] final  -55.37 input  -60.11 | X-H torsion
[ 7974 7965 7964 7962 ] final  -85.35 input  175.53 | X-H torsion
[ 8008 7997 7996 7995 ] final  179.80 input   59.86 | X-H torsion
[ 10167 10162 10161 10158 ] final -167.02 input  -65.29 | X-H torsion
[ 10718 10713 10712 10709 ] final -104.08 input   66.30 | X-H torsion
[ 10763 10752 10751 10750 ] final  -70.20 input  -60.55 | X-H torsion
[ 11005 11000 10999 10996 ] final -102.10 input  -57.11 | X-H torsion

> <Gold.Protein.ActiveResidues>
 VAL166  LYS551  ARG553  GLY616  TRP617  ASP618  TYR619  PRO620  LYS621  CYS622 
 ASP623  PHE694  ASN695  SER759  ASP760  ASP761  ALA762  ILE779  LEU786  VAL792 
 PHE793  MET794  SER795  GLU796  ALA797  LYS798  CYS799  TRP800  GLU811  SER814 

> <Gold.Protein.RotatedAtoms>
  150.8258  134.7488  159.6810 H   0  0  0  0  0  0  0  0  0  0  0  0  # atno 6907 bound_to 6896
  152.4369  134.5666  159.9919 H   0  0  0  0  0  0  0  0  0  0  0  0  # atno 6908 bound_to 6896
  151.5839  133.3337  159.3050 H   0  0  0  0  0  0  0  0  0  0  0  0  # atno 6909 bound_to 6896
  145.4945  140.9551  143.1794 H   0  0  0  0  0  0  0  0  0  0  0  0  # atno 7974 bound_to 7965
  156.0393  140.1300  157.0173 H   0  0  0  0  0  0  0  0  0  0  0  0  # atno 8008 bound_to 7997
  154.4384  140.1033  156.6284 H   0  0  0  0  0  0  0  0  0  0  0  0  # atno 8009 bound_to 7997
  155.5691  140.3466  155.4513 H   0  0  0  0  0  0  0  0  0  0  0  0  # atno 8010 bound_to 7997
  139.6077  144.0879  152.1810 H   0  0  0  0  0  0  0  0  0  0  0  0  # atno 10167 bound_to 10162
  156.0290  130.5498  150.7346 H   0  0  0  0  0  0  0  0  0  0  0  0  # atno 10718 bound_to 10713
  154.4143  135.6001  153.5971 H   0  0  0  0  0  0  0  0  0  0  0  0  # atno 10763 bound_to 10752
  152.9791  135.5937  154.4032 H   0  0  0  0  0  0  0  0  0  0  0  0  # atno 10764 bound_to 10752
  154.3848  135.2841  155.2168 H   0  0  0  0  0  0  0  0  0  0  0  0  # atno 10765 bound_to 10752
  141.1203  133.8531  157.1316 H   0  0  0  0  0  0  0  0  0  0  0  0  # atno 11005 bound_to 11000
  144.7815  139.6516  143.7152 LP  0  0  0  0  0  0  0  0  0  0  0  0  # atno 17320 bound_to 7965
  146.2264  139.5731  142.9584 LP  0  0  0  0  0  0  0  0  0  0  0  0  # atno 17321 bound_to 7965
  140.0491  144.5947  150.7350 LP  0  0  0  0  0  0  0  0  0  0  0  0  # atno 17342 bound_to 10162
  140.7296  143.2675  151.3997 LP  0  0  0  0  0  0  0  0  0  0  0  0  # atno 17343 bound_to 10162
  157.4930  131.0912  151.0405 LP  0  0  0  0  0  0  0  0  0  0  0  0  # atno 17370 bound_to 10713
  157.0806  130.5901  149.5420 LP  0  0  0  0  0  0  0  0  0  0  0  0  # atno 17371 bound_to 10713
  140.0156  134.9969  157.0486 LP  0  0  0  0  0  0  0  0  0  0  0  0  # atno 17394 bound_to 11000
  140.4526  134.1567  155.7183 LP  0  0  0  0  0  0  0  0  0  0  0  0  # atno 17395 bound_to 11000

$$$$
