AV-unprocessed.smi:977|AV-procd|sdf|4304|dock4
  -GOLD-   22720 2213D 1   1.00000     0.00000
 Structure written by MMmdl.
 37 38  0  0  0  0  0  0  0  0  1 V2000
  147.2644  141.4194  153.8956 C   0  0  0  0  0  0  0  0  0  0  0  0
  148.5557  140.7107  154.1970 C   0  0  0  0  0  0  0  0  0  0  0  0
  149.5654  141.4023  154.7049 N   0  0  0  0  0  0  0  0  0  0  0  0
  150.6467  140.5144  154.8173 O   0  0  0  0  0  0  0  0  0  0  0  0
  150.2600  139.2915  154.3691 C   0  0  0  0  0  0  0  0  0  0  0  0
  151.2827  138.2060  154.3907 C   0  0  0  0  0  0  0  0  0  0  0  0
  148.9500  139.3550  153.9962 C   0  0  0  0  0  0  0  0  0  0  0  0
  148.2140  138.2732  153.4519 N   0  0  0  0  0  0  0  0  0  0  0  0
  146.9349  137.9613  153.7079 C   0  0  0  0  0  0  0  0  0  0  0  0
  146.2129  138.5572  154.5067 O   0  0  0  0  0  0  0  0  0  0  0  0
  146.5398  136.8987  152.9922 N   0  0  0  0  0  0  0  0  0  0  0  0
  145.2120  136.2871  153.0288 C   0  0  2  0  0  0  0  0  0  0  0  0
  145.0109  135.6316  154.4031 C   0  0  0  0  0  0  0  0  0  0  0  0
  145.0504  135.2700  151.8794 C   0  0  2  0  0  0  0  0  0  0  0  0
  143.8036  134.3869  151.9618 C   0  0  0  0  0  0  0  0  0  0  0  0
  144.2084  133.2085  151.1071 C   0  0  0  0  0  0  0  0  0  0  0  0
  145.6841  133.0525  151.4638 C   0  0  0  0  0  0  0  0  0  0  0  0
  146.1332  134.3427  151.8730 O   0  0  0  0  0  0  0  0  0  0  0  0
  146.7819  141.0030  153.0114 H   0  0  0  0  0  0  0  0  0  0  0  0
  147.4267  142.4809  153.7062 H   0  0  0  0  0  0  0  0  0  0  0  0
  146.5682  141.3366  154.7299 H   0  0  0  0  0  0  0  0  0  0  0  0
  150.9451  137.3372  153.8254 H   0  0  0  0  0  0  0  0  0  0  0  0
  151.4835  137.8870  155.4135 H   0  0  0  0  0  0  0  0  0  0  0  0
  152.2202  138.5490  153.9529 H   0  0  0  0  0  0  0  0  0  0  0  0
  148.7340  137.6282  152.8750 H   0  0  0  0  0  0  0  0  0  0  0  0
  147.2103  136.4777  152.3660 H   0  0  0  0  0  0  0  0  0  0  0  0
  144.4477  137.0586  152.9190 H   0  0  0  0  0  0  0  0  0  0  0  0
  144.0149  135.1969  154.4905 H   0  0  0  0  0  0  0  0  0  0  0  0
  145.1194  136.3620  155.2055 H   0  0  0  0  0  0  0  0  0  0  0  0
  145.7366  134.8361  154.5753 H   0  0  0  0  0  0  0  0  0  0  0  0
  145.0528  135.7880  150.9185 H   0  0  0  0  0  0  0  0  0  0  0  0
  143.6298  134.0599  152.9880 H   0  0  0  0  0  0  0  0  0  0  0  0
  142.9021  134.8842  151.6024 H   0  0  0  0  0  0  0  0  0  0  0  0
  143.6230  132.3107  151.3072 H   0  0  0  0  0  0  0  0  0  0  0  0
  144.1007  133.4598  150.0510 H   0  0  0  0  0  0  0  0  0  0  0  0
  145.8057  132.3642  152.3010 H   0  0  0  0  0  0  0  0  0  0  0  0
  146.2717  132.6749  150.6268 H   0  0  0  0  0  0  0  0  0  0  0  0
  1  2  1  0  0  0  0
  1 19  1  0  0  0  0
  1 20  1  0  0  0  0
  1 21  1  0  0  0  0
  2  7  1  0  0  0  0
  2  3  2  0  0  0  0
  3  4  1  0  0  0  0
  4  5  1  0  0  0  0
  5  6  1  0  0  0  0
  5  7  2  0  0  0  0
  6 22  1  0  0  0  0
  6 23  1  0  0  0  0
  6 24  1  0  0  0  0
  7  8  1  0  0  0  0
  8  9  1  0  0  0  0
  8 25  1  0  0  0  0
  9 10  2  0  0  0  0
  9 11  1  0  0  0  0
 11 12  1  0  0  0  0
 11 26  1  0  0  0  0
 12 13  1  0  0  0  0
 12 14  1  0  0  0  0
 12 27  1  0  0  0  0
 13 28  1  0  0  0  0
 13 29  1  0  0  0  0
 13 30  1  0  0  0  0
 14 18  1  0  0  0  0
 14 15  1  0  0  0  0
 14 31  1  0  0  0  0
 15 16  1  0  0  0  0
 15 32  1  0  0  0  0
 15 33  1  0  0  0  0
 16 17  1  0  0  0  0
 16 34  1  0  0  0  0
 16 35  1  0  0  0  0
 17 18  1  0  0  0  0
 17 36  1  0  0  0  0
 17 37  1  0  0  0  0
M  END
> <s_m_source_file>
AV-unprocessed.smi

> <i_m_source_file_index>
977

> <i_lp_mmshare_version>
43012

> <i_f3d_flags>
0

> <s_epik_input>
W0NIM11jMW5vYyhbQ0gzXSljMVtOSF1DKD1PKVtOSF1bQ0BIXShbQ0gzXSlbQ0BASF0yW0NIMl1bQ0gyXVtDSDJdTzI=

> <s_epik_cmdline>
J2VwaWtfcHl0aG9uJywgJy1waCcsICc3LjAnLCAnLXRuJywgJzgnLCAnLW1hJywgJzIwMCcsICctbWV0YWxfYmluZGluZycsICctaW1hZScsICc8aW5maWxlLm1hZT4nLCAnLW9tYWUnLCAnPG91dGZpbGUubWFlPic=

> <r_lp_tautomer_probability>
1

> <r_epik_Ionization_Penalty>
3.41601e-05

> <r_epik_Ionization_Penalty_Charging>
0

> <r_epik_Ionization_Penalty_Neutral>
3.41601e-05

> <r_epik_State_Penalty>
-0

> <r_epik_Charging_Adjusted_Penalty>
0

> <i_epik_Tot_Q>
0

> <i_epik_Tot_abs_Q>
0

> <r_epik_Metal_State_Penalty>
-0

> <b_epik_Metal_Only>
0

> <s_lp_Force_Field>
OPLS_2005

> <r_lp_Energy>
19.4667

> <b_lp_Chiralities_Consistent>
1

> <s_lp_Variant>
AV-unprocessed.smi:977-1

> <Gold.Version>
5.8.1

> <Gold.Id.Protein>
6NUR|6NUR_protein|mol2

> <Gold.PLP.Fitness>
37.3466

> <Gold.PLP.PLP>
-29.5325

> <Gold.PLP.part.hbond>
-4.8096

> <Gold.PLP.part.metal>
0.0000

> <Gold.PLP.part.buried>
-3.0605

> <Gold.PLP.part.nonpolar>
-22.1659

> <Gold.PLP.part.repulsive>
0.5384

> <Gold.PLP.ligand.clash>
0.0000

> <Gold.PLP.ligand.torsion>
0.5131

> <Gold.PLP.Chemscore.Hbond>
2.8500

> <Gold.PLP.Chemscore.CHOScore>
0.0000

> <Gold.PLP.Chemscore.Metal>
0.0000

> <Gold.Chemscore.Hbonds>
donor molecule, donor type, donor heavy atom, donor atom, acceptor molecule, acceptor atom, score
      L1  H     8    25       P1  7948  1.00
      L1  H    11    26       P1  7948  1.00
      P1  H  7989  7998       L1     4  0.80

> <Gold.PLP.Chemscore.Internal.Correction>
0.2903

> <Gold.Rescore>
     Score         DG    S(hbond)    S(metal)    S(lipo)     H(rot)  DE(clash)    DE(int)     intcor
     16.05     -16.54       1.93        0.00      66.29       1.22       0.00       0.49       ----

> <Gold.Chemscore.Fitness>
16.0484

> <Gold.Chemscore.DG>
-16.5448

> <Gold.Chemscore.ZeroCoef>
-5.4800

> <Gold.Chemscore.Hbond>
1.9258

> <Gold.Chemscore.Metal>
0.0000

> <Gold.Chemscore.Lipo>
66.2905

> <Gold.Chemscore.Internal_Hbond>
0.0000

> <Gold.Chemscore.DEClash>
0.0029

> <Gold.Chemscore.DEInternal>
0.4935

> <Gold.Chemscore.Rot>
1.2200

> <Gold.Chemscore.Internal.Correction>
   9.000000E+99

> <Gold.Chemscore.Hbonds>
donor molecule, donor type, donor heavy atom, donor atom, acceptor molecule, acceptor atom, score
      L1  H     8    25       P1  7948  0.99
      L1  H    11    26       P1  7948  0.94
      P1  H  7989  7998       L1     4  0.05

> <Gold.Chemscore.Hbond.Weighted>
-6.4320

> <Gold.Chemscore.Metal.Weighted>
-0.0000

> <Gold.Chemscore.Lipo.Weighted>
-7.7560

> <Gold.Chemscore.Internal_Hbond.Weighted>
0.0000

> <Gold.Chemscore.DEClash.Weighted>
0.0029

> <Gold.Chemscore.DEInternal.Weighted>
0.4935

> <Gold.Chemscore.Rot.Weighted>
3.1232

> <Gold.Chemscore.Internal.Correction.Weighted>
   9.000000E+99

> <Gold.Protein.RotatedTorsions>
[ 6907 6896 6895 6894 ] final -117.02 input  -60.11 | X-H torsion
[ 7974 7965 7964 7962 ] final  -91.31 input  175.53 | X-H torsion
[ 8008 7997 7996 7995 ] final -170.76 input   59.86 | X-H torsion
[ 10167 10162 10161 10158 ] final  -33.69 input  -65.29 | X-H torsion
[ 10718 10713 10712 10709 ] final  136.51 input   66.30 | X-H torsion
[ 10763 10752 10751 10750 ] final -118.38 input  -60.55 | X-H torsion
[ 11005 11000 10999 10996 ] final  -80.66 input  -57.11 | X-H torsion

> <Gold.Protein.ActiveResidues>
 VAL166  LYS551  ARG553  GLY616  TRP617  ASP618  TYR619  PRO620  LYS621  CYS622 
 ASP623  PHE694  ASN695  SER759  ASP760  ASP761  ALA762  ILE779  LEU786  VAL792 
 PHE793  MET794  SER795  GLU796  ALA797  LYS798  CYS799  TRP800  GLU811  SER814 

> <Gold.Protein.RotatedAtoms>
  150.8102  133.8435  159.3185 H   0  0  0  0  0  0  0  0  0  0  0  0  # atno 6907 bound_to 6896
  151.6223  135.1029  160.0113 H   0  0  0  0  0  0  0  0  0  0  0  0  # atno 6908 bound_to 6896
  152.4194  133.7051  159.6503 H   0  0  0  0  0  0  0  0  0  0  0  0  # atno 6909 bound_to 6896
  145.4148  140.9547  143.2214 H   0  0  0  0  0  0  0  0  0  0  0  0  # atno 7974 bound_to 7965
  155.9226  140.1077  157.1195 H   0  0  0  0  0  0  0  0  0  0  0  0  # atno 8008 bound_to 7997
  154.4057  140.1253  156.4764 H   0  0  0  0  0  0  0  0  0  0  0  0  # atno 8009 bound_to 7997
  155.7177  140.3470  155.5004 H   0  0  0  0  0  0  0  0  0  0  0  0  # atno 8010 bound_to 7997
  140.7200  143.3602  151.1978 H   0  0  0  0  0  0  0  0  0  0  0  0  # atno 10167 bound_to 10162
  157.4458  131.1062  151.0090 H   0  0  0  0  0  0  0  0  0  0  0  0  # atno 10718 bound_to 10713
  154.8585  135.4276  154.2130 H   0  0  0  0  0  0  0  0  0  0  0  0  # atno 10763 bound_to 10752
  153.3152  135.6978  153.7086 H   0  0  0  0  0  0  0  0  0  0  0  0  # atno 10764 bound_to 10752
  153.6163  135.3510  155.2969 H   0  0  0  0  0  0  0  0  0  0  0  0  # atno 10765 bound_to 10752
  141.1667  133.7160  156.8306 H   0  0  0  0  0  0  0  0  0  0  0  0  # atno 11005 bound_to 11000
  144.8285  139.5669  143.6954 LP  0  0  0  0  0  0  0  0  0  0  0  0  # atno 17320 bound_to 7965
  146.2687  139.6581  142.9311 LP  0  0  0  0  0  0  0  0  0  0  0  0  # atno 17321 bound_to 7965
  139.7152  143.9311  152.2964 LP  0  0  0  0  0  0  0  0  0  0  0  0  # atno 17342 bound_to 10162
  139.9050  144.6890  150.8624 LP  0  0  0  0  0  0  0  0  0  0  0  0  # atno 17343 bound_to 10162
  157.0937  130.5953  149.5445 LP  0  0  0  0  0  0  0  0  0  0  0  0  # atno 17370 bound_to 10713
  155.9967  130.5037  150.7506 LP  0  0  0  0  0  0  0  0  0  0  0  0  # atno 17371 bound_to 10713
  140.2054  134.8866  157.3215 LP  0  0  0  0  0  0  0  0  0  0  0  0  # atno 17394 bound_to 11000
  140.2143  134.4100  155.7597 LP  0  0  0  0  0  0  0  0  0  0  0  0  # atno 17395 bound_to 11000

$$$$
