AV-unprocessed.smi:2091|AV-procd|sdf|8538|dock3
  -GOLD-   2272011263D 1   1.00000     0.00000
 Structure written by MMmdl.
 36 37  0  0  0  0  0  0  0  0  1 V2000
  150.9273  140.4591  154.9590 O   0  0  0  0  0  0  0  0  0  0  0  0
  151.0218  139.6342  155.8688 C   0  0  0  0  0  0  0  0  0  0  0  0
  150.6691  138.1606  155.6261 C   0  0  0  0  0  0  0  0  0  0  0  0
  149.2651  137.9717  155.2352 N   0  0  0  0  0  0  0  0  0  0  0  0
  148.7081  138.7402  154.2229 C   0  0  0  0  0  0  0  0  0  0  0  0
  147.4211  138.6212  153.8189 C   0  0  0  0  0  0  0  0  0  0  0  0
  146.5356  137.6489  154.4506 C   0  0  0  0  0  0  0  0  0  0  0  0
  145.3577  137.4648  154.1531 O   0  0  0  0  0  0  0  0  0  0  0  0
  147.1319  136.8977  155.4666 N   0  0  0  0  0  0  0  0  0  0  0  0
  148.4567  137.0166  155.8893 C   0  0  0  0  0  0  0  0  0  0  0  0
  148.8821  136.3051  156.7988 O   0  0  0  0  0  0  0  0  0  0  0  0
  151.4481  139.9457  157.1032 N   0  0  0  0  0  0  0  0  0  0  0  0
  151.8253  141.2841  157.5629 C   0  0  2  0  0  0  0  0  0  0  0  0
  151.9877  141.2181  159.0990 C   0  0  0  0  0  0  0  0  0  0  0  0
  152.8720  142.3348  159.6802 C   0  0  0  0  0  0  0  0  0  0  0  0
  152.3082  143.7552  159.5257 C   0  0  0  0  0  0  0  0  0  0  0  0
  152.1457  144.1989  158.0620 C   0  0  0  0  0  0  0  0  0  0  0  0
  150.9627  143.6180  157.4411 N   0  0  0  0  0  0  0  0  0  0  0  0
  150.7291  142.3172  157.2091 C   0  0  0  0  0  0  0  0  0  0  0  0
  149.6559  141.9560  156.7263 O   0  0  0  0  0  0  0  0  0  0  0  0
  146.5570  136.2126  155.9351 H   0  0  0  0  0  0  0  0  0  0  0  0
  151.3342  137.7785  154.8505 H   0  0  0  0  0  0  0  0  0  0  0  0
  150.8931  137.5671  156.5151 H   0  0  0  0  0  0  0  0  0  0  0  0
  149.3264  139.4764  153.7289 H   0  0  0  0  0  0  0  0  0  0  0  0
  147.0446  139.2491  153.0244 H   0  0  0  0  0  0  0  0  0  0  0  0
  151.4901  139.2045  157.7873 H   0  0  0  0  0  0  0  0  0  0  0  0
  152.7707  141.5661  157.0959 H   0  0  0  0  0  0  0  0  0  0  0  0
  151.0155  141.2099  159.5950 H   0  0  0  0  0  0  0  0  0  0  0  0
  152.4580  140.2704  159.3661 H   0  0  0  0  0  0  0  0  0  0  0  0
  153.0254  142.1379  160.7416 H   0  0  0  0  0  0  0  0  0  0  0  0
  153.8618  142.2861  159.2249 H   0  0  0  0  0  0  0  0  0  0  0  0
  151.3580  143.8446  160.0545 H   0  0  0  0  0  0  0  0  0  0  0  0
  152.9913  144.4452  160.0221 H   0  0  0  0  0  0  0  0  0  0  0  0
  152.0258  145.2821  158.0276 H   0  0  0  0  0  0  0  0  0  0  0  0
  153.0378  143.9706  157.4771 H   0  0  0  0  0  0  0  0  0  0  0  0
  150.2301  144.2656  157.1888 H   0  0  0  0  0  0  0  0  0  0  0  0
  1  2  2  0  0  0  0
  2  3  1  0  0  0  0
  2 12  1  0  0  0  0
  3  4  1  0  0  0  0
  3 22  1  0  0  0  0
  3 23  1  0  0  0  0
  4 10  1  0  0  0  0
  4  5  1  0  0  0  0
  5  6  2  0  0  0  0
  5 24  1  0  0  0  0
  6  7  1  0  0  0  0
  6 25  1  0  0  0  0
  7  8  2  0  0  0  0
  7  9  1  0  0  0  0
  9 21  1  0  0  0  0
  9 10  1  0  0  0  0
 10 11  2  0  0  0  0
 12 13  1  0  0  0  0
 12 26  1  0  0  0  0
 13 19  1  0  0  0  0
 13 14  1  0  0  0  0
 13 27  1  0  0  0  0
 14 15  1  0  0  0  0
 14 28  1  0  0  0  0
 14 29  1  0  0  0  0
 15 16  1  0  0  0  0
 15 30  1  0  0  0  0
 15 31  1  0  0  0  0
 16 17  1  0  0  0  0
 16 32  1  0  0  0  0
 16 33  1  0  0  0  0
 17 18  1  0  0  0  0
 17 34  1  0  0  0  0
 17 35  1  0  0  0  0
 18 19  1  0  0  0  0
 18 36  1  0  0  0  0
 19 20  2  0  0  0  0
M  END
> <s_m_source_file>
AV-unprocessed.smi

> <i_m_source_file_index>
2091

> <i_lp_mmshare_version>
43012

> <i_f3d_flags>
0

> <s_epik_input>
Tz1jMVtuSF1jKD1PKVtjSF1bY0hdbjFbQ0gyXUMoPU8pW05IXVtDQEBIXTJbQ0gyXVtDSDJdW0NIMl1bQ0gyXVtOSF1DMj1P

> <s_epik_cmdline>
J2VwaWtfcHl0aG9uJywgJy1waCcsICc3LjAnLCAnLXRuJywgJzgnLCAnLW1hJywgJzIwMCcsICctbWV0YWxfYmluZGluZycsICctaW1hZScsICc8aW5maWxlLm1hZT4nLCAnLW9tYWUnLCAnPG91dGZpbGUubWFlPic=

> <r_lp_tautomer_probability>
0.999537

> <r_epik_Ionization_Penalty>
0.00356328

> <r_epik_Ionization_Penalty_Charging>
0.00356323

> <r_epik_Ionization_Penalty_Neutral>
5.33217e-08

> <r_epik_State_Penalty>
0.00253125

> <r_epik_Charging_Adjusted_Penalty>
0.00609448

> <i_epik_Tot_Q>
0

> <i_epik_Tot_abs_Q>
0

> <r_epik_Metal_State_Penalty>
0.368636

> <b_epik_Metal_Only>
0

> <s_lp_Force_Field>
OPLS_2005

> <r_lp_Energy>
10.0871

> <b_lp_Chiralities_Consistent>
1

> <s_lp_Variant>
AV-unprocessed.smi:2091-1

> <Gold.Version>
5.8.1

> <Gold.Id.Protein>
6NUR|6NUR_protein|mol2

> <Gold.PLP.Fitness>
37.4436

> <Gold.PLP.PLP>
-29.2146

> <Gold.PLP.part.hbond>
-2.0000

> <Gold.PLP.part.metal>
0.0000

> <Gold.PLP.part.buried>
-4.9378

> <Gold.PLP.part.nonpolar>
-23.7097

> <Gold.PLP.part.repulsive>
1.1993

> <Gold.PLP.ligand.clash>
0.0000

> <Gold.PLP.ligand.torsion>
0.2024

> <Gold.PLP.Chemscore.Hbond>
1.9280

> <Gold.PLP.Chemscore.CHOScore>
0.9495

> <Gold.PLP.Chemscore.Metal>
0.0000

> <Gold.Chemscore.Hbonds>
donor molecule, donor type, donor heavy atom, donor atom, acceptor molecule, acceptor atom, score
      L1  H    18    36       P1  8028  0.80
      P1  H  7989  7998       L1     1  1.00
      L1  C     5    24       P1  7957  0.72

> <Gold.PLP.Chemscore.Internal.Correction>
0.0015

> <Gold.Rescore>
     Score         DG    S(hbond)    S(metal)    S(lipo)     H(rot)  DE(clash)    DE(int)     intcor
     10.67     -14.37       1.80        0.00      65.82       1.88       0.20       3.50       ----

> <Gold.Chemscore.Fitness>
10.6657

> <Gold.Chemscore.DG>
-14.3660

> <Gold.Chemscore.ZeroCoef>
-5.4800

> <Gold.Chemscore.Hbond>
1.7993

> <Gold.Chemscore.Metal>
0.0000

> <Gold.Chemscore.Lipo>
65.8153

> <Gold.Chemscore.Internal_Hbond>
0.0000

> <Gold.Chemscore.DEClash>
0.2015

> <Gold.Chemscore.DEInternal>
3.4988

> <Gold.Chemscore.Rot>
1.8844

> <Gold.Chemscore.Internal.Correction>
   9.000000E+99

> <Gold.Chemscore.Hbonds>
donor molecule, donor type, donor heavy atom, donor atom, acceptor molecule, acceptor atom, score
      L1  H    18    36       P1  8028  0.60
      P1  H  7989  7998       L1     1  0.97

> <Gold.Chemscore.Hbond.Weighted>
-6.0098

> <Gold.Chemscore.Metal.Weighted>
-0.0000

> <Gold.Chemscore.Lipo.Weighted>
-7.7004

> <Gold.Chemscore.Internal_Hbond.Weighted>
0.0000

> <Gold.Chemscore.DEClash.Weighted>
0.2015

> <Gold.Chemscore.DEInternal.Weighted>
3.4988

> <Gold.Chemscore.Rot.Weighted>
4.8242

> <Gold.Chemscore.Internal.Correction.Weighted>
   9.000000E+99

> <Gold.Protein.RotatedTorsions>
[ 6907 6896 6895 6894 ] final   37.25 input  -60.11 | X-H torsion
[ 7974 7965 7964 7962 ] final  -61.07 input  175.53 | X-H torsion
[ 8008 7997 7996 7995 ] final  -23.94 input   59.86 | X-H torsion
[ 10167 10162 10161 10158 ] final  105.30 input  -65.29 | X-H torsion
[ 10718 10713 10712 10709 ] final   70.74 input   66.30 | X-H torsion
[ 10763 10752 10751 10750 ] final  -74.78 input  -60.55 | X-H torsion
[ 11005 11000 10999 10996 ] final   39.92 input  -57.11 | X-H torsion

> <Gold.Protein.ActiveResidues>
 VAL166  LYS551  ARG553  GLY616  TRP617  ASP618  TYR619  PRO620  LYS621  CYS622 
 ASP623  PHE694  ASN695  SER759  ASP760  ASP761  ALA762  ILE779  LEU786  VAL792 
 PHE793  MET794  SER795  GLU796  ALA797  LYS798  CYS799  TRP800  GLU811  SER814 

> <Gold.Protein.RotatedAtoms>
  152.1407  134.9064  160.0553 H   0  0  0  0  0  0  0  0  0  0  0  0  # atno 6907 bound_to 6896
  152.0133  133.3865  159.4237 H   0  0  0  0  0  0  0  0  0  0  0  0  # atno 6908 bound_to 6896
  150.6865  134.3628  159.5001 H   0  0  0  0  0  0  0  0  0  0  0  0  # atno 6909 bound_to 6896
  145.8079  140.8616  143.0197 H   0  0  0  0  0  0  0  0  0  0  0  0  # atno 7974 bound_to 7965
  154.4557  140.1967  156.0387 H   0  0  0  0  0  0  0  0  0  0  0  0  # atno 8008 bound_to 7997
  156.0741  140.3280  155.7584 H   0  0  0  0  0  0  0  0  0  0  0  0  # atno 8009 bound_to 7997
  155.5217  140.0570  157.2896 H   0  0  0  0  0  0  0  0  0  0  0  0  # atno 8010 bound_to 7997
  139.7104  144.7078  151.1036 H   0  0  0  0  0  0  0  0  0  0  0  0  # atno 10167 bound_to 10162
  157.6415  130.9492  150.0692 H   0  0  0  0  0  0  0  0  0  0  0  0  # atno 10718 bound_to 10713
  154.4778  135.5853  153.6367 H   0  0  0  0  0  0  0  0  0  0  0  0  # atno 10763 bound_to 10752
  152.9843  135.6082  154.3285 H   0  0  0  0  0  0  0  0  0  0  0  0  # atno 10764 bound_to 10752
  154.3173  135.2844  155.2516 H   0  0  0  0  0  0  0  0  0  0  0  0  # atno 10765 bound_to 10752
  140.1981  134.3904  155.8110 H   0  0  0  0  0  0  0  0  0  0  0  0  # atno 11005 bound_to 11000
  144.6761  140.0354  143.7482 LP  0  0  0  0  0  0  0  0  0  0  0  0  # atno 17320 bound_to 7965
  145.9808  139.2940  143.1043 LP  0  0  0  0  0  0  0  0  0  0  0  0  # atno 17321 bound_to 7965
  140.7732  143.5300  150.9434 LP  0  0  0  0  0  0  0  0  0  0  0  0  # atno 17342 bound_to 10162
  139.8985  143.6865  152.3135 LP  0  0  0  0  0  0  0  0  0  0  0  0  # atno 17343 bound_to 10162
  156.1701  130.3646  149.9177 LP  0  0  0  0  0  0  0  0  0  0  0  0  # atno 17370 bound_to 10713
  156.7154  130.8986  151.3613 LP  0  0  0  0  0  0  0  0  0  0  0  0  # atno 17371 bound_to 10713
  141.2227  133.7080  156.8211 LP  0  0  0  0  0  0  0  0  0  0  0  0  # atno 17394 bound_to 11000
  140.2084  134.8845  157.3248 LP  0  0  0  0  0  0  0  0  0  0  0  0  # atno 17395 bound_to 11000

$$$$
