AV-unprocessed.smi:3128|AV-procd|sdf|11921|dock9
  -GOLD-   2272017303D 1   1.00000     0.00000
 Structure written by MMmdl.
 39 39  0  0  0  0  0  0  0  0  1 V2000
  150.2048  137.8546  154.9136 C   0  0  0  0  0  0  0  0  0  0  0  0
  150.2858  139.3723  154.6563 C   0  0  0  0  0  0  0  0  0  0  0  0
  151.1050  140.0376  155.7771 C   0  0  0  0  0  0  0  0  0  0  0  0
  148.8841  140.0162  154.4854 C   0  0  1  0  0  0  0  0  0  0  0  0
  148.9327  141.5488  154.3327 C   0  0  0  0  0  0  0  0  0  0  0  0
  148.2070  139.4446  153.3219 N   0  0  0  0  0  0  0  0  0  0  0  0
  147.0975  138.6897  153.3536 C   0  0  0  0  0  0  0  0  0  0  0  0
  146.5041  138.3967  154.3916 O   0  0  0  0  0  0  0  0  0  0  0  0
  146.5795  138.1851  152.0079 C   0  0  0  0  0  0  0  0  0  0  0  0
  146.6586  136.7243  151.9175 N   0  0  0  0  0  0  0  0  0  0  0  0
  145.3717  136.1659  151.5326 C   0  0  0  0  0  0  0  0  0  0  0  0
  145.1686  134.8133  152.2310 C   0  0  0  0  0  0  0  0  0  0  0  0
  145.2059  133.7133  151.2866 N   0  0  0  0  0  0  0  0  0  0  0  0
  144.3157  133.4216  150.2748 C   0  0  0  0  0  0  0  0  0  0  0  0
  144.7620  132.2900  149.6545 C   0  0  0  0  0  0  0  0  0  0  0  0
  145.9486  131.9599  150.3671 C   0  0  0  0  0  0  0  0  0  0  0  0
  146.2120  132.8139  151.3429 N   0  0  0  0  0  0  0  0  0  0  0  0
  149.6258  137.6371  155.8115 H   0  0  0  0  0  0  0  0  0  0  0  0
  151.1983  137.4262  155.0490 H   0  0  0  0  0  0  0  0  0  0  0  0
  149.7422  137.3228  154.0820 H   0  0  0  0  0  0  0  0  0  0  0  0
  150.8371  139.5119  153.7252 H   0  0  0  0  0  0  0  0  0  0  0  0
  150.5783  139.9964  156.7310 H   0  0  0  0  0  0  0  0  0  0  0  0
  151.3215  141.0825  155.5569 H   0  0  0  0  0  0  0  0  0  0  0  0
  152.0660  139.5397  155.9087 H   0  0  0  0  0  0  0  0  0  0  0  0
  148.2986  139.7813  155.3767 H   0  0  0  0  0  0  0  0  0  0  0  0
  149.3172  142.0327  155.2299 H   0  0  0  0  0  0  0  0  0  0  0  0
  147.9379  141.9603  154.1589 H   0  0  0  0  0  0  0  0  0  0  0  0
  149.5638  141.8447  153.4940 H   0  0  0  0  0  0  0  0  0  0  0  0
  148.6234  139.6295  152.4210 H   0  0  0  0  0  0  0  0  0  0  0  0
  145.5433  138.5077  151.8956 H   0  0  0  0  0  0  0  0  0  0  0  0
  147.1484  138.6374  151.1932 H   0  0  0  0  0  0  0  0  0  0  0  0
  147.3611  136.4337  151.2528 H   0  0  0  0  0  0  0  0  0  0  0  0
  144.5710  136.8543  151.8081 H   0  0  0  0  0  0  0  0  0  0  0  0
  145.3356  136.0362  150.4498 H   0  0  0  0  0  0  0  0  0  0  0  0
  145.9441  134.6499  152.9808 H   0  0  0  0  0  0  0  0  0  0  0  0
  144.2114  134.7905  152.7546 H   0  0  0  0  0  0  0  0  0  0  0  0
  143.4479  134.0356  150.0834 H   0  0  0  0  0  0  0  0  0  0  0  0
  144.3099  131.7763  148.8191 H   0  0  0  0  0  0  0  0  0  0  0  0
  146.6218  131.1309  150.2055 H   0  0  0  0  0  0  0  0  0  0  0  0
  1  2  1  0  0  0  0
  1 18  1  0  0  0  0
  1 19  1  0  0  0  0
  1 20  1  0  0  0  0
  2  3  1  0  0  0  0
  2  4  1  0  0  0  0
  2 21  1  0  0  0  0
  3 22  1  0  0  0  0
  3 23  1  0  0  0  0
  3 24  1  0  0  0  0
  4  5  1  0  0  0  0
  4  6  1  0  0  0  0
  4 25  1  0  0  0  0
  5 26  1  0  0  0  0
  5 27  1  0  0  0  0
  5 28  1  0  0  0  0
  6  7  1  0  0  0  0
  6 29  1  0  0  0  0
  7  8  2  0  0  0  0
  7  9  1  0  0  0  0
  9 10  1  0  0  0  0
  9 30  1  0  0  0  0
  9 31  1  0  0  0  0
 10 11  1  0  0  0  0
 10 32  1  0  0  0  0
 11 12  1  0  0  0  0
 11 33  1  0  0  0  0
 11 34  1  0  0  0  0
 12 13  1  0  0  0  0
 12 35  1  0  0  0  0
 12 36  1  0  0  0  0
 13 17  1  0  0  0  0
 13 14  1  0  0  0  0
 14 15  2  0  0  0  0
 14 37  1  0  0  0  0
 15 16  1  0  0  0  0
 15 38  1  0  0  0  0
 16 17  2  0  0  0  0
 16 39  1  0  0  0  0
M  END
> <s_m_source_file>
AV-unprocessed.smi

> <i_m_source_file_index>
3128

> <i_lp_mmshare_version>
43012

> <i_f3d_flags>
0

> <s_epik_input>
W0NIM11bQ0hdKFtDSDNdKVtDQEhdKFtDSDNdKVtOSF1DKD1PKVtDSDJdW05IXVtDSDJdW0NIMl1uMVtjSF1bY0hdW2NIXW4x

> <s_epik_cmdline>
J2VwaWtfcHl0aG9uJywgJy1waCcsICc3LjAnLCAnLXRuJywgJzgnLCAnLW1hJywgJzIwMCcsICctbWV0YWxfYmluZGluZycsICctaW1hZScsICc8aW5maWxlLm1hZT4nLCAnLW9tYWUnLCAnPG91dGZpbGUubWFlPic=

> <r_lp_tautomer_probability>
1

> <r_epik_Ionization_Penalty>
0.724947

> <r_epik_Ionization_Penalty_Charging>
0

> <r_epik_Ionization_Penalty_Neutral>
0.724947

> <r_epik_State_Penalty>
0.747959

> <r_epik_Charging_Adjusted_Penalty>
0.747959

> <i_epik_Tot_Q>
0

> <i_epik_Tot_abs_Q>
0

> <r_epik_Metal_State_Penalty>
0.746178

> <b_epik_Metal_Only>
0

> <s_lp_Force_Field>
OPLS_2005

> <r_lp_Energy>
7.09657

> <b_lp_Chiralities_Consistent>
1

> <s_lp_Variant>
AV-unprocessed.smi:3128-4

> <Gold.Version>
5.8.1

> <Gold.Id.Protein>
6NUR|6NUR_protein|mol2

> <Gold.PLP.Fitness>
43.7516

> <Gold.PLP.PLP>
-36.0431

> <Gold.PLP.part.hbond>
-1.5374

> <Gold.PLP.part.metal>
0.0000

> <Gold.PLP.part.buried>
-2.8682

> <Gold.PLP.part.nonpolar>
-32.5189

> <Gold.PLP.part.repulsive>
0.3641

> <Gold.PLP.ligand.clash>
0.0000

> <Gold.PLP.ligand.torsion>
1.0650

> <Gold.PLP.Chemscore.Hbond>
1.2240

> <Gold.PLP.Chemscore.CHOScore>
2.0000

> <Gold.PLP.Chemscore.Metal>
0.0000

> <Gold.Chemscore.Hbonds>
donor molecule, donor type, donor heavy atom, donor atom, acceptor molecule, acceptor atom, score
      L1  H     6    29       P1  7957  1.00
      L1  H    10    32       P1  7948  0.37
      L1  C    14    37       P1 10186  1.00
      L1  C    16    39       P1 10747  1.00

> <Gold.PLP.Chemscore.Internal.Correction>
0.1665

> <Gold.Rescore>
     Score         DG    S(hbond)    S(metal)    S(lipo)     H(rot)  DE(clash)    DE(int)     intcor
     12.99     -14.18       1.26        0.00      85.34       2.15       0.07       1.11       ----

> <Gold.Chemscore.Fitness>
12.9943

> <Gold.Chemscore.DG>
-14.1777

> <Gold.Chemscore.ZeroCoef>
-5.4800

> <Gold.Chemscore.Hbond>
1.2616

> <Gold.Chemscore.Metal>
0.0000

> <Gold.Chemscore.Lipo>
85.3410

> <Gold.Chemscore.Internal_Hbond>
0.0000

> <Gold.Chemscore.DEClash>
0.0722

> <Gold.Chemscore.DEInternal>
1.1112

> <Gold.Chemscore.Rot>
2.1488

> <Gold.Chemscore.Internal.Correction>
   9.000000E+99

> <Gold.Chemscore.Hbonds>
donor molecule, donor type, donor heavy atom, donor atom, acceptor molecule, acceptor atom, score
      L1  H     6    29       P1  7957  1.00
      L1  H    10    32       P1  7948  0.38

> <Gold.Chemscore.Hbond.Weighted>
-4.2139

> <Gold.Chemscore.Metal.Weighted>
-0.0000

> <Gold.Chemscore.Lipo.Weighted>
-9.9849

> <Gold.Chemscore.Internal_Hbond.Weighted>
0.0000

> <Gold.Chemscore.DEClash.Weighted>
0.0722

> <Gold.Chemscore.DEInternal.Weighted>
1.1112

> <Gold.Chemscore.Rot.Weighted>
5.5010

> <Gold.Chemscore.Internal.Correction.Weighted>
   9.000000E+99

> <Gold.Protein.RotatedTorsions>
[ 6907 6896 6895 6894 ] final -152.19 input  -60.11 | X-H torsion
[ 7974 7965 7964 7962 ] final  -53.98 input  175.53 | X-H torsion
[ 8008 7997 7996 7995 ] final -133.16 input   59.86 | X-H torsion
[ 10167 10162 10161 10158 ] final  122.94 input  -65.29 | X-H torsion
[ 10718 10713 10712 10709 ] final  -12.82 input   66.30 | X-H torsion
[ 10763 10752 10751 10750 ] final  -19.90 input  -60.55 | X-H torsion
[ 11005 11000 10999 10996 ] final   12.78 input  -57.11 | X-H torsion

> <Gold.Protein.ActiveResidues>
 VAL166  LYS551  ARG553  GLY616  TRP617  ASP618  TYR619  PRO620  LYS621  CYS622 
 ASP623  PHE694  ASN695  SER759  ASP760  ASP761  ALA762  ILE779  LEU786  VAL792 
 PHE793  MET794  SER795  GLU796  ALA797  LYS798  CYS799  TRP800  GLU811  SER814 

> <Gold.Protein.RotatedAtoms>
  151.2241  133.4486  159.2601 H   0  0  0  0  0  0  0  0  0  0  0  0  # atno 6907 bound_to 6896
  151.0857  134.9885  159.8388 H   0  0  0  0  0  0  0  0  0  0  0  0  # atno 6908 bound_to 6896
  152.5429  134.2178  159.8828 H   0  0  0  0  0  0  0  0  0  0  0  0  # atno 6909 bound_to 6896
  145.8907  140.8072  142.9793 H   0  0  0  0  0  0  0  0  0  0  0  0  # atno 7974 bound_to 7965
  155.3409  140.0472  157.3045 H   0  0  0  0  0  0  0  0  0  0  0  0  # atno 8008 bound_to 7997
  154.5277  140.2246  155.8824 H   0  0  0  0  0  0  0  0  0  0  0  0  # atno 8009 bound_to 7997
  156.1757  140.3085  155.9061 H   0  0  0  0  0  0  0  0  0  0  0  0  # atno 8010 bound_to 7997
  139.5828  144.6994  151.3484 H   0  0  0  0  0  0  0  0  0  0  0  0  # atno 10167 bound_to 10162
  156.6391  130.4923  149.6101 H   0  0  0  0  0  0  0  0  0  0  0  0  # atno 10718 bound_to 10713
  153.6121  135.6996  153.5343 H   0  0  0  0  0  0  0  0  0  0  0  0  # atno 10763 bound_to 10752
  153.3008  135.4129  155.1250 H   0  0  0  0  0  0  0  0  0  0  0  0  # atno 10764 bound_to 10752
  154.8561  135.3648  154.5659 H   0  0  0  0  0  0  0  0  0  0  0  0  # atno 10765 bound_to 10752
  140.4881  134.0868  155.7765 H   0  0  0  0  0  0  0  0  0  0  0  0  # atno 11005 bound_to 11000
  144.6730  140.1526  143.7429 LP  0  0  0  0  0  0  0  0  0  0  0  0  # atno 17320 bound_to 7965
  145.8911  139.2376  143.1549 LP  0  0  0  0  0  0  0  0  0  0  0  0  # atno 17321 bound_to 7965
  140.7104  143.7404  150.7557 LP  0  0  0  0  0  0  0  0  0  0  0  0  # atno 17342 bound_to 10162
  140.0941  143.4850  152.2462 LP  0  0  0  0  0  0  0  0  0  0  0  0  # atno 17343 bound_to 10162
  156.2173  130.6715  151.1332 LP  0  0  0  0  0  0  0  0  0  0  0  0  # atno 17370 bound_to 10713
  157.7176  131.0700  150.6264 LP  0  0  0  0  0  0  0  0  0  0  0  0  # atno 17371 bound_to 10713
  141.1498  133.8990  157.2126 LP  0  0  0  0  0  0  0  0  0  0  0  0  # atno 17394 bound_to 11000
  139.9786  135.0106  156.9693 LP  0  0  0  0  0  0  0  0  0  0  0  0  # atno 17395 bound_to 11000

$$$$
