AV-unprocessed.smi:2206|AV-procd|sdf|8942|dock2
  -GOLD-   2272012163D 1   1.00000     0.00000
 Structure written by MMmdl.
 26 27  0  0  0  0  0  0  0  0  2 V2000
  153.2482  139.1675  154.6020 O   0  0  0  0  0  0  0  0  0  0  0  0
  152.5734  138.1482  154.8676 C   0  0  0  0  0  0  0  0  0  0  0  0
  152.8540  137.2959  155.7389 O   0  5  0  0  0  0  0  0  0  0  0  0
  151.2921  137.9271  154.0613 C   0  0  0  0  0  0  0  0  0  0  0  0
  150.3598  139.0681  154.3499 C   0  0  0  0  0  0  0  0  0  0  0  0
  149.0551  139.1962  153.9378 C   0  0  0  0  0  0  0  0  0  0  0  0
  148.3337  140.6813  154.4986 S   0  0  0  0  0  0  0  0  0  0  0  0
  149.8585  141.0880  155.2707 C   0  0  0  0  0  0  0  0  0  0  0  0
  150.0285  142.2954  156.0077 N   0  0  0  0  0  0  0  0  0  0  0  0
  151.0186  142.6922  156.8360 C   0  0  0  0  0  0  0  0  0  0  0  0
  151.9778  141.9602  157.0760 O   0  0  0  0  0  0  0  0  0  0  0  0
  150.8744  143.9107  157.3816 N   0  0  0  0  0  0  0  0  0  0  0  0
  151.7775  144.5386  158.2886 C   0  0  0  0  0  0  0  0  0  0  0  0
  152.4224  143.6688  159.3463 C   0  0  0  0  0  0  0  0  0  0  0  0
  151.3493  144.6469  159.7360 C   0  0  0  0  0  0  0  0  0  0  0  0
  150.7963  140.1449  155.1280 N   0  0  0  0  0  0  0  0  0  0  0  0
  151.5310  137.8736  152.9985 H   0  0  0  0  0  0  0  0  0  0  0  0
  150.8429  136.9714  154.3347 H   0  0  0  0  0  0  0  0  0  0  0  0
  148.4804  138.5088  153.3353 H   0  0  0  0  0  0  0  0  0  0  0  0
  149.2762  142.9599  155.9003 H   0  0  0  0  0  0  0  0  0  0  0  0
  150.0506  144.4385  157.1281 H   0  0  0  0  0  0  0  0  0  0  0  0
  152.3872  145.3551  157.9043 H   0  0  0  0  0  0  0  0  0  0  0  0
  152.1649  142.6111  159.3636 H   0  0  0  0  0  0  0  0  0  0  0  0
  153.4447  143.9039  159.6352 H   0  0  0  0  0  0  0  0  0  0  0  0
  151.6546  145.5355  160.2847 H   0  0  0  0  0  0  0  0  0  0  0  0
  150.3773  144.2409  160.0111 H   0  0  0  0  0  0  0  0  0  0  0  0
  1  2  2  0  0  0  0
  2  3  1  0  0  0  0
  2  4  1  0  0  0  0
  4  5  1  0  0  0  0
  4 17  1  0  0  0  0
  4 18  1  0  0  0  0
  5 16  1  0  0  0  0
  5  6  2  0  0  0  0
  6  7  1  0  0  0  0
  6 19  1  0  0  0  0
  7  8  1  0  0  0  0
  8  9  1  0  0  0  0
  8 16  2  0  0  0  0
  9 10  1  0  0  0  0
  9 20  1  0  0  0  0
 10 11  2  0  0  0  0
 10 12  1  0  0  0  0
 12 13  1  0  0  0  0
 12 21  1  0  0  0  0
 13 15  1  0  0  0  0
 13 14  1  0  0  0  0
 13 22  1  0  0  0  0
 14 15  1  0  0  0  0
 14 23  1  0  0  0  0
 14 24  1  0  0  0  0
 15 25  1  0  0  0  0
 15 26  1  0  0  0  0
M  CHG  1   3  -1
M  END
> <s_m_source_file>
AV-unprocessed.smi

> <i_m_source_file_index>
2206

> <i_lp_mmshare_version>
43012

> <i_f3d_flags>
0

> <s_epik_input>
Tz1DKFtPSF0pW0NIMl1jMVtjSF1zYyhuMSlbTkhdQyg9TylbTkhdW0NIXTJbQ0gyXVtDSDJdMg==

> <s_epik_cmdline>
J2VwaWtfcHl0aG9uJywgJy1waCcsICc3LjAnLCAnLXRuJywgJzgnLCAnLW1hJywgJzIwMCcsICctbWV0YWxfYmluZGluZycsICctaW1hZScsICc8aW5maWxlLm1hZT4nLCAnLW9tYWUnLCAnPG91dGZpbGUubWFlPic=

> <r_lp_tautomer_probability>
0.999

> <r_epik_Ionization_Penalty>
0.000960535

> <r_epik_Ionization_Penalty_Charging>
0.000722293

> <r_epik_Ionization_Penalty_Neutral>
0.000238243

> <r_epik_State_Penalty>
0.000460635

> <r_epik_Charging_Adjusted_Penalty>
0.00118293

> <i_epik_Tot_Q>
-1

> <i_epik_Tot_abs_Q>
1

> <r_epik_Metal_State_Penalty>
0.0174946

> <b_epik_Metal_Only>
0

> <s_lp_Force_Field>
OPLS_2005

> <r_lp_Energy>
19.4031

> <b_lp_Chiralities_Consistent>
1

> <s_lp_Variant>
AV-unprocessed.smi:2206-1

> <Gold.Version>
5.8.1

> <Gold.Id.Protein>
6NUR|6NUR_protein|mol2

> <Gold.PLP.Fitness>
50.8613

> <Gold.PLP.PLP>
-32.9269

> <Gold.PLP.part.hbond>
-5.0000

> <Gold.PLP.part.metal>
0.0000

> <Gold.PLP.part.buried>
2.1673

> <Gold.PLP.part.nonpolar>
-30.0600

> <Gold.PLP.part.repulsive>
0.2258

> <Gold.PLP.ligand.clash>
0.0000

> <Gold.PLP.ligand.torsion>
0.2984

> <Gold.PLP.Chemscore.Hbond>
5.4380

> <Gold.PLP.Chemscore.CHOScore>
0.7241

> <Gold.PLP.Chemscore.Metal>
0.0000

> <Gold.Chemscore.Hbonds>
donor molecule, donor type, donor heavy atom, donor atom, acceptor molecule, acceptor atom, score
      L1  H     9    20       P1  8028  0.90
      L1  H    12    21       P1  8028  0.83
      P1  H  7989  7998       L1    16  0.34
      P1  H  7997  8008       L1     1  1.92
      P1  H 10752 10764       L1     3  1.06
      L1  C     6    19       P1  7948  0.49
      L1  C     6    19       P1  7957  0.01

> <Gold.PLP.Chemscore.Internal.Correction>
0.0448

> <Gold.Rescore>
     Score         DG    S(hbond)    S(metal)    S(lipo)     H(rot)  DE(clash)    DE(int)     intcor
     10.61     -18.30       2.86        0.00      70.66       1.95       3.26       4.43       ----

> <Gold.Chemscore.Fitness>
10.6135

> <Gold.Chemscore.DG>
-18.3039

> <Gold.Chemscore.ZeroCoef>
-5.4800

> <Gold.Chemscore.Hbond>
2.8612

> <Gold.Chemscore.Metal>
0.0000

> <Gold.Chemscore.Lipo>
70.6593

> <Gold.Chemscore.Internal_Hbond>
0.0000

> <Gold.Chemscore.DEClash>
3.2606

> <Gold.Chemscore.DEInternal>
4.4299

> <Gold.Chemscore.Rot>
1.9530

> <Gold.Chemscore.Internal.Correction>
   9.000000E+99

> <Gold.Chemscore.Hbonds>
donor molecule, donor type, donor heavy atom, donor atom, acceptor molecule, acceptor atom, score
      L1  H     9    20       P1  8028  0.87
      L1  H    12    21       P1  8028  0.46
      P1  H  7997  8008       L1     1  0.91
      P1  H 10752 10764       L1     3  0.33

> <Gold.Chemscore.Hbond.Weighted>
-9.5564

> <Gold.Chemscore.Metal.Weighted>
-0.0000

> <Gold.Chemscore.Lipo.Weighted>
-8.2671

> <Gold.Chemscore.Internal_Hbond.Weighted>
0.0000

> <Gold.Chemscore.DEClash.Weighted>
3.2606

> <Gold.Chemscore.DEInternal.Weighted>
4.4299

> <Gold.Chemscore.Rot.Weighted>
4.9996

> <Gold.Chemscore.Internal.Correction.Weighted>
   9.000000E+99

> <Gold.Protein.RotatedTorsions>
[ 6907 6896 6895 6894 ] final  -91.27 input  -60.11 | X-H torsion
[ 7974 7965 7964 7962 ] final  -53.80 input  175.53 | X-H torsion
[ 8008 7997 7996 7995 ] final    3.74 input   59.86 | X-H torsion
[ 10167 10162 10161 10158 ] final  -45.24 input  -65.29 | X-H torsion
[ 10718 10713 10712 10709 ] final -160.60 input   66.30 | X-H torsion
[ 10763 10752 10751 10750 ] final  -44.93 input  -60.55 | X-H torsion
[ 11005 11000 10999 10996 ] final   90.88 input  -57.11 | X-H torsion

> <Gold.Protein.ActiveResidues>
 VAL166  LYS551  ARG553  GLY616  TRP617  ASP618  TYR619  PRO620  LYS621  CYS622 
 ASP623  PHE694  ASN695  SER759  ASP760  ASP761  ALA762  ILE779  LEU786  VAL792 
 PHE793  MET794  SER795  GLU796  ALA797  LYS798  CYS799  TRP800  GLU811  SER814 

> <Gold.Protein.RotatedAtoms>
  150.6890  134.2303  159.4431 H   0  0  0  0  0  0  0  0  0  0  0  0  # atno 6907 bound_to 6896
  152.0254  134.9796  160.0581 H   0  0  0  0  0  0  0  0  0  0  0  0  # atno 6908 bound_to 6896
  152.1357  133.4399  159.4779 H   0  0  0  0  0  0  0  0  0  0  0  0  # atno 6909 bound_to 6896
  145.8928  140.8057  142.9783 H   0  0  0  0  0  0  0  0  0  0  0  0  # atno 7974 bound_to 7965
  154.7074  140.2685  155.6662 H   0  0  0  0  0  0  0  0  0  0  0  0  # atno 8008 bound_to 7997
  156.2784  140.2760  156.1628 H   0  0  0  0  0  0  0  0  0  0  0  0  # atno 8009 bound_to 7997
  155.0682  140.0372  157.2589 H   0  0  0  0  0  0  0  0  0  0  0  0  # atno 8010 bound_to 7997
  140.6865  143.2889  151.3611 H   0  0  0  0  0  0  0  0  0  0  0  0  # atno 10167 bound_to 10162
  156.5844  130.8743  151.2873 H   0  0  0  0  0  0  0  0  0  0  0  0  # atno 10718 bound_to 10713
  154.0202  135.6670  153.4772 H   0  0  0  0  0  0  0  0  0  0  0  0  # atno 10763 bound_to 10752
  153.0583  135.5043  154.8030 H   0  0  0  0  0  0  0  0  0  0  0  0  # atno 10764 bound_to 10752
  154.6942  135.3067  154.9401 H   0  0  0  0  0  0  0  0  0  0  0  0  # atno 10765 bound_to 10752
  139.8848  134.8640  156.3348 H   0  0  0  0  0  0  0  0  0  0  0  0  # atno 11005 bound_to 11000
  144.6731  140.1556  143.7426 LP  0  0  0  0  0  0  0  0  0  0  0  0  # atno 17320 bound_to 7965
  145.8887  139.2363  143.1562 LP  0  0  0  0  0  0  0  0  0  0  0  0  # atno 17321 bound_to 7965
  139.6229  144.0871  152.2408 LP  0  0  0  0  0  0  0  0  0  0  0  0  # atno 17342 bound_to 10162
  140.0321  144.6073  150.7479 LP  0  0  0  0  0  0  0  0  0  0  0  0  # atno 17343 bound_to 10162
  157.7319  130.9707  150.1901 LP  0  0  0  0  0  0  0  0  0  0  0  0  # atno 17370 bound_to 10713
  156.2604  130.3710  149.8137 LP  0  0  0  0  0  0  0  0  0  0  0  0  # atno 17371 bound_to 10713
  140.9698  133.7334  156.0519 LP  0  0  0  0  0  0  0  0  0  0  0  0  # atno 17394 bound_to 11000
  140.7884  134.3645  157.5470 LP  0  0  0  0  0  0  0  0  0  0  0  0  # atno 17395 bound_to 11000

$$$$
