AV-unprocessed.smi:102|AV-procd|sdf|949|dock2
  -GOLD-   2262017473D 1   1.00000     0.00000
 Structure written by MMmdl.
 44 45  0  0  0  0  0  0  0  0  1 V2000
  145.6804  137.0793  162.2443 C   0  0  0  0  0  0  0  0  0  0  0  0
  147.0764  136.5207  161.9992 C   0  0  0  0  0  0  0  0  0  0  0  0
  148.0693  137.0181  162.5308 O   0  0  0  0  0  0  0  0  0  0  0  0
  147.0712  135.4669  161.1690 O   0  0  0  0  0  0  0  0  0  0  0  0
  148.2744  134.7542  160.9344 C   0  0  0  0  0  0  0  0  0  0  0  0
  149.0133  135.3869  159.7513 C   0  0  2  0  0  0  0  0  0  0  0  0
  148.8930  136.8016  159.7972 O   0  0  0  0  0  0  0  0  0  0  0  0
  149.1488  137.3100  158.5282 C   0  0  1  0  0  0  0  0  0  0  0  0
  150.6339  137.6312  158.4381 N   0  0  0  0  0  0  0  0  0  0  0  0
  151.5129  137.4400  159.5012 C   0  0  0  0  0  0  0  0  0  0  0  0
  152.8182  137.7967  159.4584 C   0  0  0  0  0  0  0  0  0  0  0  0
  153.6003  137.5793  160.5295 F   0  0  0  0  0  0  0  0  0  0  0  0
  153.3768  138.4393  158.2740 C   0  0  0  0  0  0  0  0  0  0  0  0
  154.5481  138.7856  158.1355 O   0  0  0  0  0  0  0  0  0  0  0  0
  152.4503  138.6668  157.2543 N   0  0  0  0  0  0  0  0  0  0  0  0
  151.0999  138.3159  157.2908 C   0  0  0  0  0  0  0  0  0  0  0  0
  150.3717  138.6058  156.3424 O   0  0  0  0  0  0  0  0  0  0  0  0
  148.6787  136.2485  157.5141 C   0  0  2  0  0  0  0  0  0  0  0  0
  147.4771  136.6557  156.8717 O   0  0  0  0  0  0  0  0  0  0  0  0
  146.4336  137.0875  157.6010 C   0  0  0  0  0  0  0  0  0  0  0  0
  145.2230  137.4266  156.7417 C   0  0  0  0  0  0  0  0  0  0  0  0
  146.4065  137.2066  158.8259 O   0  0  0  0  0  0  0  0  0  0  0  0
  148.3996  135.0282  158.3927 C   0  0  1  0  0  0  0  0  0  0  0  0
  149.0220  133.8674  157.8576 O   0  0  0  0  0  0  0  0  0  0  0  0
  150.3612  133.8086  157.7464 C   0  0  0  0  0  0  0  0  0  0  0  0
  150.8287  132.5832  156.9725 C   0  0  0  0  0  0  0  0  0  0  0  0
  151.1629  134.6221  158.2057 O   0  0  0  0  0  0  0  0  0  0  0  0
  152.7835  139.1362  156.4246 H   0  0  0  0  0  0  0  0  0  0  0  0
  144.9946  136.7690  161.4556 H   0  0  0  0  0  0  0  0  0  0  0  0
  145.7073  138.1689  162.2672 H   0  0  0  0  0  0  0  0  0  0  0  0
  145.2944  136.7223  163.1990 H   0  0  0  0  0  0  0  0  0  0  0  0
  148.8961  134.8099  161.8291 H   0  0  0  0  0  0  0  0  0  0  0  0
  148.0699  133.7002  160.7402 H   0  0  0  0  0  0  0  0  0  0  0  0
  150.0690  135.1122  159.7740 H   0  0  0  0  0  0  0  0  0  0  0  0
  148.6277  138.2584  158.3858 H   0  0  0  0  0  0  0  0  0  0  0  0
  151.1663  137.0070  160.4264 H   0  0  0  0  0  0  0  0  0  0  0  0
  149.4460  136.0486  156.7669 H   0  0  0  0  0  0  0  0  0  0  0  0
  145.5359  137.8712  155.7966 H   0  0  0  0  0  0  0  0  0  0  0  0
  144.5765  138.1367  157.2580 H   0  0  0  0  0  0  0  0  0  0  0  0
  144.6471  136.5259  156.5287 H   0  0  0  0  0  0  0  0  0  0  0  0
  147.3240  134.8858  158.5133 H   0  0  0  0  0  0  0  0  0  0  0  0
  150.0926  132.2989  156.2202 H   0  0  0  0  0  0  0  0  0  0  0  0
  150.9739  131.7424  157.6508 H   0  0  0  0  0  0  0  0  0  0  0  0
  151.7735  132.7891  156.4688 H   0  0  0  0  0  0  0  0  0  0  0  0
  1  2  1  0  0  0  0
  1 29  1  0  0  0  0
  1 30  1  0  0  0  0
  1 31  1  0  0  0  0
  2  3  2  0  0  0  0
  2  4  1  0  0  0  0
  4  5  1  0  0  0  0
  5  6  1  0  0  0  0
  5 32  1  0  0  0  0
  5 33  1  0  0  0  0
  6 23  1  0  0  0  0
  6  7  1  0  0  0  0
  6 34  1  0  0  0  0
  7  8  1  0  0  0  0
  8  9  1  0  0  0  0
  8 18  1  0  0  0  0
  8 35  1  0  0  0  0
  9 16  1  0  0  0  0
  9 10  1  0  0  0  0
 10 11  2  0  0  0  0
 10 36  1  0  0  0  0
 11 12  1  0  0  0  0
 11 13  1  0  0  0  0
 13 14  2  0  0  0  0
 13 15  1  0  0  0  0
 15 28  1  0  0  0  0
 15 16  1  0  0  0  0
 16 17  2  0  0  0  0
 18 19  1  0  0  0  0
 18 23  1  0  0  0  0
 18 37  1  0  0  0  0
 19 20  1  0  0  0  0
 20 21  1  0  0  0  0
 20 22  2  0  0  0  0
 21 38  1  0  0  0  0
 21 39  1  0  0  0  0
 21 40  1  0  0  0  0
 23 24  1  0  0  0  0
 23 41  1  0  0  0  0
 24 25  1  0  0  0  0
 25 26  1  0  0  0  0
 25 27  2  0  0  0  0
 26 42  1  0  0  0  0
 26 43  1  0  0  0  0
 26 44  1  0  0  0  0
M  END
> <s_m_source_file>
AV-unprocessed.smi

> <i_m_source_file_index>
102

> <i_lp_mmshare_version>
43012

> <i_f3d_flags>
0

> <s_epik_input>
W0NIM11DKD1PKU9bQ0gyXVtDQEBIXTFPW0NASF0oW0NAQEhdKE9DKD1PKVtDSDNdKVtDQEhdMU9DKD1PKVtDSDNdKW4yW2NIXWMoRiljKD1PKVtuSF1jMj1P

> <s_epik_cmdline>
J2VwaWtfcHl0aG9uJywgJy1waCcsICc3LjAnLCAnLXRuJywgJzgnLCAnLW1hJywgJzIwMCcsICctbWV0YWxfYmluZGluZycsICctaW1hZScsICc8aW5maWxlLm1hZT4nLCAnLW9tYWUnLCAnPG91dGZpbGUubWFlPic=

> <r_lp_tautomer_probability>
0.999537

> <r_epik_Ionization_Penalty>
0.058267

> <r_epik_Ionization_Penalty_Charging>
0.058267

> <r_epik_Ionization_Penalty_Neutral>
6.57791e-16

> <r_epik_State_Penalty>
0.0503774

> <r_epik_Charging_Adjusted_Penalty>
0.108644

> <i_epik_Tot_Q>
0

> <i_epik_Tot_abs_Q>
0

> <r_epik_Metal_State_Penalty>
2.6644

> <b_epik_Metal_Only>
0

> <s_epik_Chemistry_Notes>
This compound has an ester and may undergo hydrolysis at high or low pH. This compound contains an acetal/aminal-like group ( X-CH(R)-Y where X, Y are N, S, or O) that may be acid/base labile, releasing an aldehyde.

> <s_lp_Force_Field>
OPLS_2005

> <r_lp_Energy>
9.37948

> <b_lp_Chiralities_Consistent>
1

> <s_lp_Variant>
AV-unprocessed.smi:102-5

> <Gold.Version>
5.8.1

> <Gold.Id.Protein>
6NUR|6NUR_protein|mol2

> <Gold.PLP.Fitness>
36.3729

> <Gold.PLP.PLP>
-28.4279

> <Gold.PLP.part.hbond>
-5.4771

> <Gold.PLP.part.metal>
0.0000

> <Gold.PLP.part.buried>
-6.3297

> <Gold.PLP.part.nonpolar>
-18.4621

> <Gold.PLP.part.repulsive>
0.0966

> <Gold.PLP.ligand.clash>
0.0000

> <Gold.PLP.ligand.torsion>
0.5616

> <Gold.PLP.Chemscore.Hbond>
2.9102

> <Gold.PLP.Chemscore.CHOScore>
0.0000

> <Gold.PLP.Chemscore.Metal>
0.0000

> <Gold.Chemscore.Hbonds>
donor molecule, donor type, donor heavy atom, donor atom, acceptor molecule, acceptor atom, score
      P1  H  6931  6943       L1     3  0.99
      P1  H  7997  8009       L1    14  1.00

> <Gold.PLP.Chemscore.Internal.Correction>
0.3378

> <Gold.Rescore>
     Score         DG    S(hbond)    S(metal)    S(lipo)     H(rot)  DE(clash)    DE(int)     intcor
     -1.77      -8.20       2.63        0.00      36.83       4.05       0.30       9.67       ----

> <Gold.Chemscore.Fitness>
-1.7706

> <Gold.Chemscore.DG>
-8.2002

> <Gold.Chemscore.ZeroCoef>
-5.4800

> <Gold.Chemscore.Hbond>
2.6300

> <Gold.Chemscore.Metal>
0.0000

> <Gold.Chemscore.Lipo>
36.8314

> <Gold.Chemscore.Internal_Hbond>
0.0000

> <Gold.Chemscore.DEClash>
0.3019

> <Gold.Chemscore.DEInternal>
9.6690

> <Gold.Chemscore.Rot>
4.0520

> <Gold.Chemscore.Internal.Correction>
   9.000000E+99

> <Gold.Chemscore.Hbonds>
donor molecule, donor type, donor heavy atom, donor atom, acceptor molecule, acceptor atom, score
      P1  H  6896  6907       L1    27  0.01
      P1  H  6931  6943       L1     3  0.94
      P1  H  7997  8009       L1    14  0.93

> <Gold.Chemscore.Hbond.Weighted>
-8.7841

> <Gold.Chemscore.Metal.Weighted>
-0.0000

> <Gold.Chemscore.Lipo.Weighted>
-4.3093

> <Gold.Chemscore.Internal_Hbond.Weighted>
0.0000

> <Gold.Chemscore.DEClash.Weighted>
0.3019

> <Gold.Chemscore.DEInternal.Weighted>
9.6690

> <Gold.Chemscore.Rot.Weighted>
10.3732

> <Gold.Chemscore.Internal.Correction.Weighted>
   9.000000E+99

> <Gold.Protein.RotatedTorsions>
[ 6907 6896 6895 6894 ] final  -64.78 input  -60.11 | X-H torsion
[ 7974 7965 7964 7962 ] final  133.05 input  175.53 | X-H torsion
[ 8008 7997 7996 7995 ] final  118.05 input   59.86 | X-H torsion
[ 10167 10162 10161 10158 ] final  -96.58 input  -65.29 | X-H torsion
[ 10718 10713 10712 10709 ] final -124.07 input   66.30 | X-H torsion
[ 10763 10752 10751 10750 ] final   57.31 input  -60.55 | X-H torsion
[ 11005 11000 10999 10996 ] final -158.68 input  -57.11 | X-H torsion

> <Gold.Protein.ActiveResidues>
 VAL166  LYS551  ARG553  GLY616  TRP617  ASP618  TYR619  PRO620  LYS621  CYS622 
 ASP623  PHE694  ASN695  SER759  ASP760  ASP761  ALA762  ILE779  LEU786  VAL792 
 PHE793  MET794  SER795  GLU796  ALA797  LYS798  CYS799  TRP800  GLU811  SER814 

> <Gold.Protein.RotatedAtoms>
  150.7564  134.6251  159.6156 H   0  0  0  0  0  0  0  0  0  0  0  0  # atno 6907 bound_to 6896
  152.3546  134.6955  160.0235 H   0  0  0  0  0  0  0  0  0  0  0  0  # atno 6908 bound_to 6896
  151.7365  133.3284  159.3391 H   0  0  0  0  0  0  0  0  0  0  0  0  # atno 6909 bound_to 6896
  144.9906  139.4411  143.5341 H   0  0  0  0  0  0  0  0  0  0  0  0  # atno 7974 bound_to 7965
  156.2526  140.2883  156.0774 H   0  0  0  0  0  0  0  0  0  0  0  0  # atno 8008 bound_to 7997
  155.1604  140.0399  157.2858 H   0  0  0  0  0  0  0  0  0  0  0  0  # atno 8009 bound_to 7997
  154.6397  140.2519  155.7343 H   0  0  0  0  0  0  0  0  0  0  0  0  # atno 8010 bound_to 7997
  140.2923  143.3214  152.0333 H   0  0  0  0  0  0  0  0  0  0  0  0  # atno 10167 bound_to 10162
  156.1556  130.6566  150.9977 H   0  0  0  0  0  0  0  0  0  0  0  0  # atno 10718 bound_to 10713
  152.9847  135.5646  154.5370 H   0  0  0  0  0  0  0  0  0  0  0  0  # atno 10763 bound_to 10752
  154.4831  135.2789  155.1557 H   0  0  0  0  0  0  0  0  0  0  0  0  # atno 10764 bound_to 10752
  154.3057  135.6298  153.5497 H   0  0  0  0  0  0  0  0  0  0  0  0  # atno 10765 bound_to 10752
  140.6510  134.4451  157.5235 H   0  0  0  0  0  0  0  0  0  0  0  0  # atno 11005 bound_to 11000
  146.3430  139.9234  142.8763 LP  0  0  0  0  0  0  0  0  0  0  0  0  # atno 17320 bound_to 7965
  145.2292  140.9966  143.4001 LP  0  0  0  0  0  0  0  0  0  0  0  0  # atno 17321 bound_to 7965
  139.4935  144.6516  151.6663 LP  0  0  0  0  0  0  0  0  0  0  0  0  # atno 17342 bound_to 10162
  140.5722  144.0090  150.6222 LP  0  0  0  0  0  0  0  0  0  0  0  0  # atno 17343 bound_to 10162
  157.6692  131.0865  150.7653 LP  0  0  0  0  0  0  0  0  0  0  0  0  # atno 17370 bound_to 10713
  156.7719  130.4831  149.5417 LP  0  0  0  0  0  0  0  0  0  0  0  0  # atno 17371 bound_to 10713
  139.9046  134.8478  156.1758 LP  0  0  0  0  0  0  0  0  0  0  0  0  # atno 17394 bound_to 11000
  141.0537  133.6876  156.1819 LP  0  0  0  0  0  0  0  0  0  0  0  0  # atno 17395 bound_to 11000

$$$$
