AV-unprocessed.smi:171|AV-procd|sdf|1419|dock2
  -GOLD-   2262019183D 1   1.00000     0.00000
 Structure written by MMmdl.
 56 59  0  0  0  0  0  0  0  0  1 V2000
  152.3435  144.6172  158.6748 C   0  0  0  0  0  0  0  0  0  0  0  0
  151.6586  143.2421  158.5988 C   0  0  0  0  0  0  0  0  0  0  0  0
  152.5587  142.1592  159.2127 C   0  0  0  0  0  0  0  0  0  0  0  0
  151.2540  142.8573  157.1560 C   0  0  0  0  0  0  0  0  0  0  0  0
  150.4488  141.5417  157.0201 C   0  0  1  0  0  0  0  0  0  0  0  0
  149.0269  141.7218  157.5988 C   0  0  0  0  0  0  0  0  0  0  0  0
  148.8801  141.8688  158.8103 O   0  0  0  0  0  0  0  0  0  0  0  0
  147.9715  141.7124  156.7642 N   0  0  0  0  0  0  0  0  0  0  0  0
  148.0280  141.5244  155.3150 C   0  0  0  0  0  0  0  0  0  0  0  0
  149.4397  141.7382  154.7434 C   0  0  0  0  0  0  0  0  0  0  0  0
  150.4304  141.1122  155.6134 N   0  0  0  0  0  0  0  0  0  0  0  0
  150.7226  139.8219  155.3141 C   0  0  0  0  0  0  0  0  0  0  0  0
  151.1079  139.4804  154.0560 N   0  0  0  0  0  0  0  0  0  0  0  0
  151.4063  138.2106  153.7656 C   0  0  0  0  0  0  0  0  0  0  0  0
  151.3896  137.1443  154.5684 N   0  0  0  0  0  0  0  0  0  0  0  0
  151.0051  137.4834  155.8323 C   0  0  0  0  0  0  0  0  0  0  0  0
  150.6564  138.7862  156.2855 C   0  0  0  0  0  0  0  0  0  0  0  0
  150.3064  138.7447  157.6296 N   0  0  0  0  0  0  0  0  0  0  0  0
  150.4471  137.4887  157.9547 C   0  0  0  0  0  0  0  0  0  0  0  0
  150.8707  136.6623  156.9381 N   0  0  0  0  0  0  0  0  0  0  0  0
  151.1142  135.2310  157.0223 C   0  0  0  0  0  0  0  0  0  0  0  0
  150.0960  134.3875  156.2192 C   0  0  1  0  0  0  0  0  0  0  0  0
  148.8095  134.5644  156.7917 O   0  0  0  0  0  0  0  0  0  0  0  0
  150.0125  134.7565  154.7447 C   0  0  0  0  0  0  0  0  0  0  0  0
  149.4951  133.4709  154.1136 C   0  0  0  0  0  0  0  0  0  0  0  0
  150.1524  132.4388  154.8352 O   0  0  0  0  0  0  0  0  0  0  0  0
  150.4719  132.8882  156.1516 C   0  0  2  0  0  0  0  0  0  0  0  0
  149.8345  131.9700  157.2075 C   0  0  0  0  0  0  0  0  0  0  0  0
  153.2260  144.6570  158.0353 H   0  0  0  0  0  0  0  0  0  0  0  0
  152.6611  144.8406  159.6937 H   0  0  0  0  0  0  0  0  0  0  0  0
  151.6708  145.4185  158.3695 H   0  0  0  0  0  0  0  0  0  0  0  0
  150.7587  143.2867  159.2133 H   0  0  0  0  0  0  0  0  0  0  0  0
  153.4888  142.0526  158.6532 H   0  0  0  0  0  0  0  0  0  0  0  0
  152.0606  141.1893  159.2186 H   0  0  0  0  0  0  0  0  0  0  0  0
  152.8172  142.3999  160.2443 H   0  0  0  0  0  0  0  0  0  0  0  0
  150.6757  143.6773  156.7270 H   0  0  0  0  0  0  0  0  0  0  0  0
  152.1567  142.7890  156.5470 H   0  0  0  0  0  0  0  0  0  0  0  0
  150.9405  140.7939  157.6430 H   0  0  0  0  0  0  0  0  0  0  0  0
  147.0547  141.8337  157.1697 H   0  0  0  0  0  0  0  0  0  0  0  0
  147.6991  140.5062  155.1040 H   0  0  0  0  0  0  0  0  0  0  0  0
  147.3150  142.1922  154.8312 H   0  0  0  0  0  0  0  0  0  0  0  0
  149.4902  141.3659  153.7195 H   0  0  0  0  0  0  0  0  0  0  0  0
  149.6584  142.8048  154.6853 H   0  0  0  0  0  0  0  0  0  0  0  0
  151.7014  138.0221  152.7439 H   0  0  0  0  0  0  0  0  0  0  0  0
  150.2488  137.1287  158.9538 H   0  0  0  0  0  0  0  0  0  0  0  0
  152.1273  135.0422  156.6648 H   0  0  0  0  0  0  0  0  0  0  0  0
  151.1028  134.9383  158.0731 H   0  0  0  0  0  0  0  0  0  0  0  0
  148.8819  134.4638  157.7287 H   0  0  0  0  0  0  0  0  0  0  0  0
  149.3773  135.6199  154.5420 H   0  0  0  0  0  0  0  0  0  0  0  0
  151.0072  134.9726  154.3522 H   0  0  0  0  0  0  0  0  0  0  0  0
  148.4179  133.3772  154.2577 H   0  0  0  0  0  0  0  0  0  0  0  0
  149.7039  133.4098  153.0455 H   0  0  0  0  0  0  0  0  0  0  0  0
  151.5554  132.7937  156.2330 H   0  0  0  0  0  0  0  0  0  0  0  0
  150.0650  132.3126  158.2165 H   0  0  0  0  0  0  0  0  0  0  0  0
  150.2112  130.9517  157.1091 H   0  0  0  0  0  0  0  0  0  0  0  0
  148.7498  131.9274  157.1026 H   0  0  0  0  0  0  0  0  0  0  0  0
  1  2  1  0  0  0  0
  1 29  1  0  0  0  0
  1 30  1  0  0  0  0
  1 31  1  0  0  0  0
  2  3  1  0  0  0  0
  2  4  1  0  0  0  0
  2 32  1  0  0  0  0
  3 33  1  0  0  0  0
  3 34  1  0  0  0  0
  3 35  1  0  0  0  0
  4  5  1  0  0  0  0
  4 36  1  0  0  0  0
  4 37  1  0  0  0  0
  5 11  1  0  0  0  0
  5  6  1  0  0  0  0
  5 38  1  0  0  0  0
  6  7  2  0  0  0  0
  6  8  1  0  0  0  0
  8  9  1  0  0  0  0
  8 39  1  0  0  0  0
  9 10  1  0  0  0  0
  9 40  1  0  0  0  0
  9 41  1  0  0  0  0
 10 11  1  0  0  0  0
 10 42  1  0  0  0  0
 10 43  1  0  0  0  0
 11 12  1  0  0  0  0
 12 17  1  0  0  0  0
 12 13  2  0  0  0  0
 13 14  1  0  0  0  0
 14 15  2  0  0  0  0
 14 44  1  0  0  0  0
 15 16  1  0  0  0  0
 16 20  1  0  0  0  0
 16 17  2  0  0  0  0
 17 18  1  0  0  0  0
 18 19  2  0  0  0  0
 19 20  1  0  0  0  0
 19 45  1  0  0  0  0
 20 21  1  0  0  0  0
 21 22  1  0  0  0  0
 21 46  1  0  0  0  0
 21 47  1  0  0  0  0
 22 27  1  0  0  0  0
 22 23  1  0  0  0  0
 22 24  1  0  0  0  0
 23 48  1  0  0  0  0
 24 25  1  0  0  0  0
 24 49  1  0  0  0  0
 24 50  1  0  0  0  0
 25 26  1  0  0  0  0
 25 51  1  0  0  0  0
 25 52  1  0  0  0  0
 26 27  1  0  0  0  0
 27 28  1  0  0  0  0
 27 53  1  0  0  0  0
 28 54  1  0  0  0  0
 28 55  1  0  0  0  0
 28 56  1  0  0  0  0
M  END
> <s_m_source_file>
AV-unprocessed.smi

> <i_m_source_file_index>
171

> <i_lp_mmshare_version>
43012

> <i_f3d_flags>
0

> <s_epik_input>
W0NIM11bQ0hdKFtDSDNdKVtDSDJdW0NAQEhdMUMoPU8pW05IXVtDSDJdW0NIMl1OMWMobltjSF1uMiljKGMyMyluW2NIXW4zW0NIMl1bQ0BAXTQoW09IXSlbQ0gyXVtDSDJdT1tDQEhdNFtDSDNd

> <s_epik_cmdline>
J2VwaWtfcHl0aG9uJywgJy1waCcsICc3LjAnLCAnLXRuJywgJzgnLCAnLW1hJywgJzIwMCcsICctbWV0YWxfYmluZGluZycsICctaW1hZScsICc8aW5maWxlLm1hZT4nLCAnLW9tYWUnLCAnPG91dGZpbGUubWFlPic=

> <r_lp_tautomer_probability>
1

> <r_epik_Ionization_Penalty>
0.000670584

> <r_epik_Ionization_Penalty_Charging>
0

> <r_epik_Ionization_Penalty_Neutral>
0.000670584

> <r_epik_State_Penalty>
0.000304767

> <r_epik_Charging_Adjusted_Penalty>
0.000304767

> <i_epik_Tot_Q>
0

> <i_epik_Tot_abs_Q>
0

> <r_epik_Metal_State_Penalty>
-0

> <b_epik_Metal_Only>
0

> <s_lp_Force_Field>
OPLS_2005

> <r_lp_Energy>
42.7998

> <b_lp_Chiralities_Consistent>
1

> <s_lp_Variant>
AV-unprocessed.smi:171-6

> <Gold.Version>
5.8.1

> <Gold.Id.Protein>
6NUR|6NUR_protein|mol2

> <Gold.PLP.Fitness>
47.3553

> <Gold.PLP.PLP>
-39.3835

> <Gold.PLP.part.hbond>
-3.3776

> <Gold.PLP.part.metal>
0.0000

> <Gold.PLP.part.buried>
1.4165

> <Gold.PLP.part.nonpolar>
-36.4349

> <Gold.PLP.part.repulsive>
0.3984

> <Gold.PLP.ligand.clash>
0.0000

> <Gold.PLP.ligand.torsion>
0.7449

> <Gold.PLP.Chemscore.Hbond>
2.0000

> <Gold.PLP.Chemscore.CHOScore>
1.0000

> <Gold.PLP.Chemscore.Metal>
0.0000

> <Gold.Chemscore.Hbonds>
donor molecule, donor type, donor heavy atom, donor atom, acceptor molecule, acceptor atom, score
      P1  H  7989  7998       L1    13  1.00
      P1  H 10752 10765       L1    15  0.65
      L1  C    14    44       P1  7949  0.91

> <Gold.PLP.Chemscore.Internal.Correction>
0.4616

> <Gold.Rescore>
     Score         DG    S(hbond)    S(metal)    S(lipo)     H(rot)  DE(clash)    DE(int)     intcor
     10.82     -15.89       1.74        0.00      89.45       2.29       1.66       3.41       ----

> <Gold.Chemscore.Fitness>
10.8218

> <Gold.Chemscore.DG>
-15.8896

> <Gold.Chemscore.ZeroCoef>
-5.4800

> <Gold.Chemscore.Hbond>
1.7407

> <Gold.Chemscore.Metal>
0.0000

> <Gold.Chemscore.Lipo>
89.4466

> <Gold.Chemscore.Internal_Hbond>
0.0000

> <Gold.Chemscore.DEClash>
1.6594

> <Gold.Chemscore.DEInternal>
3.4085

> <Gold.Chemscore.Rot>
2.2928

> <Gold.Chemscore.Internal.Correction>
   9.000000E+99

> <Gold.Chemscore.Hbonds>
donor molecule, donor type, donor heavy atom, donor atom, acceptor molecule, acceptor atom, score
      P1  H  7989  7998       L1    13  0.38
      P1  H 10752 10765       L1    15  0.54

> <Gold.Chemscore.Hbond.Weighted>
-5.8140

> <Gold.Chemscore.Metal.Weighted>
-0.0000

> <Gold.Chemscore.Lipo.Weighted>
-10.4653

> <Gold.Chemscore.Internal_Hbond.Weighted>
0.0000

> <Gold.Chemscore.DEClash.Weighted>
1.6594

> <Gold.Chemscore.DEInternal.Weighted>
3.4085

> <Gold.Chemscore.Rot.Weighted>
5.8696

> <Gold.Chemscore.Internal.Correction.Weighted>
   9.000000E+99

> <Gold.Protein.RotatedTorsions>
[ 6907 6896 6895 6894 ] final -134.85 input  -60.11 | X-H torsion
[ 7974 7965 7964 7962 ] final -135.24 input  175.53 | X-H torsion
[ 8008 7997 7996 7995 ] final -110.37 input   59.86 | X-H torsion
[ 10167 10162 10161 10158 ] final  -86.74 input  -65.29 | X-H torsion
[ 10718 10713 10712 10709 ] final -173.26 input   66.30 | X-H torsion
[ 10763 10752 10751 10750 ] final  177.36 input  -60.55 | X-H torsion
[ 11005 11000 10999 10996 ] final  106.47 input  -57.11 | X-H torsion

> <Gold.Protein.ActiveResidues>
 VAL166  LYS551  ARG553  GLY616  TRP617  ASP618  TYR619  PRO620  LYS621  CYS622 
 ASP623  PHE694  ASN695  SER759  ASP760  ASP761  ALA762  ILE779  LEU786  VAL792 
 PHE793  MET794  SER795  GLU796  ALA797  LYS798  CYS799  TRP800  GLU811  SER814 

> <Gold.Protein.RotatedAtoms>
  150.9907  133.6152  159.2708 H   0  0  0  0  0  0  0  0  0  0  0  0  # atno 6907 bound_to 6896
  151.3374  135.0855  159.9369 H   0  0  0  0  0  0  0  0  0  0  0  0  # atno 6908 bound_to 6896
  152.5245  133.9525  159.7733 H   0  0  0  0  0  0  0  0  0  0  0  0  # atno 6909 bound_to 6896
  144.9031  140.6797  143.5072 H   0  0  0  0  0  0  0  0  0  0  0  0  # atno 7974 bound_to 7965
  154.9734  140.0397  157.2245 H   0  0  0  0  0  0  0  0  0  0  0  0  # atno 8008 bound_to 7997
  154.7780  140.2813  155.6063 H   0  0  0  0  0  0  0  0  0  0  0  0  # atno 8009 bound_to 7997
  156.2932  140.2597  156.2598 H   0  0  0  0  0  0  0  0  0  0  0  0  # atno 8010 bound_to 7997
  140.3912  143.2704  151.9262 H   0  0  0  0  0  0  0  0  0  0  0  0  # atno 10167 bound_to 10162
  156.7677  130.9437  151.3119 H   0  0  0  0  0  0  0  0  0  0  0  0  # atno 10718 bound_to 10713
  154.4935  135.2780  155.1478 H   0  0  0  0  0  0  0  0  0  0  0  0  # atno 10763 bound_to 10752
  154.3140  135.6223  153.5482 H   0  0  0  0  0  0  0  0  0  0  0  0  # atno 10764 bound_to 10752
  152.9891  135.5726  154.5361 H   0  0  0  0  0  0  0  0  0  0  0  0  # atno 10765 bound_to 10752
  139.8814  134.9370  156.5671 H   0  0  0  0  0  0  0  0  0  0  0  0  # atno 11005 bound_to 11000
  145.3582  139.1688  143.4398 LP  0  0  0  0  0  0  0  0  0  0  0  0  # atno 17320 bound_to 7965
  146.3119  140.3641  142.8668 LP  0  0  0  0  0  0  0  0  0  0  0  0  # atno 17321 bound_to 7965
  139.4789  144.5726  151.8064 LP  0  0  0  0  0  0  0  0  0  0  0  0  # atno 17342 bound_to 10162
  140.4838  144.1411  150.5937 LP  0  0  0  0  0  0  0  0  0  0  0  0  # atno 17343 bound_to 10162
  157.6705  130.9047  150.0030 LP  0  0  0  0  0  0  0  0  0  0  0  0  # atno 17370 bound_to 10713
  156.1298  130.3643  149.9751 LP  0  0  0  0  0  0  0  0  0  0  0  0  # atno 17371 bound_to 10713
  140.8126  133.8417  155.8823 LP  0  0  0  0  0  0  0  0  0  0  0  0  # atno 17394 bound_to 11000
  140.9492  134.1801  157.4740 LP  0  0  0  0  0  0  0  0  0  0  0  0  # atno 17395 bound_to 11000

$$$$
