AV-unprocessed.smi:123|AV-procd|sdf|1143|dock5
  -GOLD-   2262018273D 1   1.00000     0.00000
 Structure written by MMmdl.
 43 45  0  0  0  0  0  0  0  0  1 V2000
  145.6028  142.5283  157.0660 C   0  0  0  0  0  0  0  0  0  0  0  0
  145.8184  142.7633  155.5596 C   0  0  2  0  0  0  0  0  0  0  0  0
  147.2308  142.6273  155.2000 N   0  0  0  0  0  0  0  0  0  0  0  0
  147.9569  141.4966  155.2025 C   0  0  0  0  0  0  0  0  0  0  0  0
  147.5040  140.4004  155.5358 O   0  0  0  0  0  0  0  0  0  0  0  0
  149.4224  141.6449  154.7661 C   0  0  0  0  0  0  0  0  0  0  0  0
  150.3834  141.0747  155.7359 N   0  0  0  0  0  0  0  0  0  0  0  0
  151.1181  139.9223  155.3592 C   0  0  0  0  0  0  0  0  0  0  0  0
  150.9728  139.4072  154.2495 O   0  0  0  0  0  0  0  0  0  0  0  0
  152.0360  139.4027  156.3665 C   0  0  0  0  0  0  0  0  0  0  0  0
  152.7847  138.3212  156.0911 F   0  0  0  0  0  0  0  0  0  0  0  0
  152.1468  139.9932  157.5737 C   0  0  0  0  0  0  0  0  0  0  0  0
  151.4108  141.1057  157.9339 N   0  0  0  0  0  0  0  0  0  0  0  0
  151.5748  141.7175  159.3049 C   0  0  2  0  0  0  0  0  0  0  0  0
  151.9902  143.1902  159.1906 C   0  0  0  0  0  0  0  0  0  0  0  0
  153.4637  143.1411  159.5394 C   0  0  0  0  0  0  0  0  0  0  0  0
  153.5146  141.9700  160.5123 C   0  0  0  0  0  0  0  0  0  0  0  0
  152.5900  141.0312  159.9777 O   0  0  0  0  0  0  0  0  0  0  0  0
  150.5094  141.6790  157.0102 C   0  0  0  0  0  0  0  0  0  0  0  0
  149.8524  142.6799  157.3036 O   0  0  0  0  0  0  0  0  0  0  0  0
  145.2157  144.0419  155.0540 C   0  0  0  0  0  0  0  0  0  0  0  0
  144.6127  145.1123  155.6576 C   0  0  0  0  0  0  0  0  0  0  0  0
  144.2507  146.0119  154.6176 C   0  0  0  0  0  0  0  0  0  0  0  0
  144.6523  145.4219  153.4536 C   0  0  0  0  0  0  0  0  0  0  0  0
  145.2391  144.2198  153.7015 O   0  0  0  0  0  0  0  0  0  0  0  0
  144.5401  142.4900  157.3067 H   0  0  0  0  0  0  0  0  0  0  0  0
  146.0475  143.3213  157.6682 H   0  0  0  0  0  0  0  0  0  0  0  0
  146.0442  141.5828  157.3828 H   0  0  0  0  0  0  0  0  0  0  0  0
  145.3148  141.9467  155.0413 H   0  0  0  0  0  0  0  0  0  0  0  0
  147.6989  143.4755  154.9158 H   0  0  0  0  0  0  0  0  0  0  0  0
  149.5474  141.1814  153.7860 H   0  0  0  0  0  0  0  0  0  0  0  0
  149.6179  142.7025  154.5836 H   0  0  0  0  0  0  0  0  0  0  0  0
  152.8417  139.5712  158.2841 H   0  0  0  0  0  0  0  0  0  0  0  0
  150.6367  141.5752  159.8425 H   0  0  0  0  0  0  0  0  0  0  0  0
  151.7836  143.6049  158.2029 H   0  0  0  0  0  0  0  0  0  0  0  0
  151.4390  143.7640  159.9364 H   0  0  0  0  0  0  0  0  0  0  0  0
  154.0564  142.9207  158.6509 H   0  0  0  0  0  0  0  0  0  0  0  0
  153.8317  144.0712  159.9729 H   0  0  0  0  0  0  0  0  0  0  0  0
  154.5125  141.5413  160.6070 H   0  0  0  0  0  0  0  0  0  0  0  0
  153.1782  142.2796  161.5028 H   0  0  0  0  0  0  0  0  0  0  0  0
  144.4559  145.2359  156.7189 H   0  0  0  0  0  0  0  0  0  0  0  0
  143.7587  146.9689  154.7090 H   0  0  0  0  0  0  0  0  0  0  0  0
  144.6003  145.7043  152.4125 H   0  0  0  0  0  0  0  0  0  0  0  0
  1  2  1  0  0  0  0
  1 26  1  0  0  0  0
  1 27  1  0  0  0  0
  1 28  1  0  0  0  0
  2  3  1  0  0  0  0
  2 21  1  0  0  0  0
  2 29  1  0  0  0  0
  3  4  1  0  0  0  0
  3 30  1  0  0  0  0
  4  5  2  0  0  0  0
  4  6  1  0  0  0  0
  6  7  1  0  0  0  0
  6 31  1  0  0  0  0
  6 32  1  0  0  0  0
  7 19  1  0  0  0  0
  7  8  1  0  0  0  0
  8  9  2  0  0  0  0
  8 10  1  0  0  0  0
 10 11  1  0  0  0  0
 10 12  2  0  0  0  0
 12 13  1  0  0  0  0
 12 33  1  0  0  0  0
 13 14  1  0  0  0  0
 13 19  1  0  0  0  0
 14 18  1  0  0  0  0
 14 15  1  0  0  0  0
 14 34  1  0  0  0  0
 15 16  1  0  0  0  0
 15 35  1  0  0  0  0
 15 36  1  0  0  0  0
 16 17  1  0  0  0  0
 16 37  1  0  0  0  0
 16 38  1  0  0  0  0
 17 18  1  0  0  0  0
 17 39  1  0  0  0  0
 17 40  1  0  0  0  0
 19 20  2  0  0  0  0
 21 25  1  0  0  0  0
 21 22  2  0  0  0  0
 22 23  1  0  0  0  0
 22 41  1  0  0  0  0
 23 24  2  0  0  0  0
 23 42  1  0  0  0  0
 24 25  1  0  0  0  0
 24 43  1  0  0  0  0
M  END
> <s_m_source_file>
AV-unprocessed.smi

> <i_m_source_file_index>
123

> <i_lp_mmshare_version>
43012

> <i_f3d_flags>
0

> <s_epik_input>
bzFbY0hdW2NIXVtjSF1jMVtDQEhdKFtDSDNdKVtOSF1DKD1PKVtDSDJdbjJjKD1PKWMoRilbY0hdbihjMj1PKVtDQEBIXTNbQ0gyXVtDSDJdW0NIMl1PMw==

> <s_epik_cmdline>
J2VwaWtfcHl0aG9uJywgJy1waCcsICc3LjAnLCAnLXRuJywgJzgnLCAnLW1hJywgJzIwMCcsICctbWV0YWxfYmluZGluZycsICctaW1hZScsICc8aW5maWxlLm1hZT4nLCAnLW9tYWUnLCAnPG91dGZpbGUubWFlPic=

> <r_lp_tautomer_probability>
1

> <r_epik_Ionization_Penalty>
2.31906e-08

> <r_epik_Ionization_Penalty_Charging>
3.85846e-09

> <r_epik_Ionization_Penalty_Neutral>
1.93321e-08

> <r_epik_State_Penalty>
-0

> <r_epik_Charging_Adjusted_Penalty>
3.85846e-09

> <i_epik_Tot_Q>
0

> <i_epik_Tot_abs_Q>
0

> <r_epik_Metal_State_Penalty>
-0

> <b_epik_Metal_Only>
0

> <s_epik_Chemistry_Notes>
This compound contains an acetal/aminal-like group ( X-CH(R)-Y where X, Y are N, S, or O) that may be acid/base labile, releasing an aldehyde.

> <s_lp_Force_Field>
OPLS_2005

> <r_lp_Energy>
21.3093

> <b_lp_Chiralities_Consistent>
1

> <s_lp_Variant>
AV-unprocessed.smi:123-1

> <Gold.Version>
5.8.1

> <Gold.Id.Protein>
6NUR|6NUR_protein|mol2

> <Gold.PLP.Fitness>
47.4933

> <Gold.PLP.PLP>
-43.8702

> <Gold.PLP.part.hbond>
-2.0000

> <Gold.PLP.part.metal>
0.0000

> <Gold.PLP.part.buried>
-5.5298

> <Gold.PLP.part.nonpolar>
-39.4322

> <Gold.PLP.part.repulsive>
2.4366

> <Gold.PLP.ligand.clash>
0.0000

> <Gold.PLP.ligand.torsion>
0.3431

> <Gold.PLP.Chemscore.Hbond>
1.3980

> <Gold.PLP.Chemscore.CHOScore>
0.0000

> <Gold.PLP.Chemscore.Metal>
0.0000

> <Gold.Chemscore.Hbonds>
donor molecule, donor type, donor heavy atom, donor atom, acceptor molecule, acceptor atom, score
      L1  H     3    30       P1  8028  0.78
      P1  H  7989  7998       L1     9  0.50

> <Gold.PLP.Chemscore.Internal.Correction>
0.1151

> <Gold.Rescore>
     Score         DG    S(hbond)    S(metal)    S(lipo)     H(rot)  DE(clash)    DE(int)     intcor
      8.82     -11.06       0.54        0.00      81.16       2.23       0.73       1.50       ----

> <Gold.Chemscore.Fitness>
8.8245

> <Gold.Chemscore.DG>
-11.0561

> <Gold.Chemscore.ZeroCoef>
-5.4800

> <Gold.Chemscore.Hbond>
0.5394

> <Gold.Chemscore.Metal>
0.0000

> <Gold.Chemscore.Lipo>
81.1568

> <Gold.Chemscore.Internal_Hbond>
0.0000

> <Gold.Chemscore.DEClash>
0.7347

> <Gold.Chemscore.DEInternal>
1.4969

> <Gold.Chemscore.Rot>
2.2347

> <Gold.Chemscore.Internal.Correction>
   9.000000E+99

> <Gold.Chemscore.Hbonds>
donor molecule, donor type, donor heavy atom, donor atom, acceptor molecule, acceptor atom, score
      L1  H     3    30       P1  8028  0.27
      P1  H  7989  7998       L1     9  0.02

> <Gold.Chemscore.Hbond.Weighted>
-1.8016

> <Gold.Chemscore.Metal.Weighted>
-0.0000

> <Gold.Chemscore.Lipo.Weighted>
-9.4953

> <Gold.Chemscore.Internal_Hbond.Weighted>
0.0000

> <Gold.Chemscore.DEClash.Weighted>
0.7347

> <Gold.Chemscore.DEInternal.Weighted>
1.4969

> <Gold.Chemscore.Rot.Weighted>
5.7208

> <Gold.Chemscore.Internal.Correction.Weighted>
   9.000000E+99

> <Gold.Protein.RotatedTorsions>
[ 6907 6896 6895 6894 ] final  152.98 input  -60.11 | X-H torsion
[ 7974 7965 7964 7962 ] final   56.53 input  175.53 | X-H torsion
[ 8008 7997 7996 7995 ] final   67.68 input   59.86 | X-H torsion
[ 10167 10162 10161 10158 ] final   31.55 input  -65.29 | X-H torsion
[ 10718 10713 10712 10709 ] final   48.17 input   66.30 | X-H torsion
[ 10763 10752 10751 10750 ] final   40.87 input  -60.55 | X-H torsion
[ 11005 11000 10999 10996 ] final   68.30 input  -57.11 | X-H torsion

> <Gold.Protein.ActiveResidues>
 VAL166  LYS551  ARG553  GLY616  TRP617  ASP618  TYR619  PRO620  LYS621  CYS622 
 ASP623  PHE694  ASN695  SER759  ASP760  ASP761  ALA762  ILE779  LEU786  VAL792 
 PHE793  MET794  SER795  GLU796  ALA797  LYS798  CYS799  TRP800  GLU811  SER814 

> <Gold.Protein.RotatedAtoms>
  152.0791  133.4144  159.4492 H   0  0  0  0  0  0  0  0  0  0  0  0  # atno 6907 bound_to 6896
  150.6862  134.3003  159.4712 H   0  0  0  0  0  0  0  0  0  0  0  0  # atno 6908 bound_to 6896
  152.0843  134.9450  160.0623 H   0  0  0  0  0  0  0  0  0  0  0  0  # atno 6909 bound_to 6896
  145.9388  139.3870  143.0376 H   0  0  0  0  0  0  0  0  0  0  0  0  # atno 7974 bound_to 7965
  155.6966  140.3495  155.4915 H   0  0  0  0  0  0  0  0  0  0  0  0  # atno 8008 bound_to 7997
  155.9478  140.1113  157.1025 H   0  0  0  0  0  0  0  0  0  0  0  0  # atno 8009 bound_to 7997
  154.4115  140.1200  156.4998 H   0  0  0  0  0  0  0  0  0  0  0  0  # atno 8010 bound_to 7997
  140.4579  144.0951  150.6206 H   0  0  0  0  0  0  0  0  0  0  0  0  # atno 10167 bound_to 10162
  157.4659  130.8225  149.7936 H   0  0  0  0  0  0  0  0  0  0  0  0  # atno 10718 bound_to 10713
  152.9924  135.6178  154.2696 H   0  0  0  0  0  0  0  0  0  0  0  0  # atno 10763 bound_to 10752
  154.2429  135.2788  155.2848 H   0  0  0  0  0  0  0  0  0  0  0  0  # atno 10764 bound_to 10752
  154.5354  135.5776  153.6851 H   0  0  0  0  0  0  0  0  0  0  0  0  # atno 10765 bound_to 10752
  139.9720  134.6885  156.0429 H   0  0  0  0  0  0  0  0  0  0  0  0  # atno 11005 bound_to 11000
  145.8328  140.9622  143.0840 LP  0  0  0  0  0  0  0  0  0  0  0  0  # atno 17320 bound_to 7965
  144.6776  140.0184  143.7484 LP  0  0  0  0  0  0  0  0  0  0  0  0  # atno 17321 bound_to 7965
  140.4129  143.2648  151.9811 LP  0  0  0  0  0  0  0  0  0  0  0  0  # atno 17342 bound_to 10162
  139.4803  144.5899  151.7789 LP  0  0  0  0  0  0  0  0  0  0  0  0  # atno 17343 bound_to 10162
  156.0050  130.3860  150.2464 LP  0  0  0  0  0  0  0  0  0  0  0  0  # atno 17370 bound_to 10713
  157.0644  131.0099  151.3212 LP  0  0  0  0  0  0  0  0  0  0  0  0  # atno 17371 bound_to 10713
  141.1399  133.6567  156.3699 LP  0  0  0  0  0  0  0  0  0  0  0  0  # atno 17394 bound_to 11000
  140.5274  134.6245  157.5338 LP  0  0  0  0  0  0  0  0  0  0  0  0  # atno 17395 bound_to 11000

$$$$
