AV-unprocessed.smi:52|AV-procd|sdf|512|dock8
  -GOLD-   2262016383D 1   1.00000     0.00000
 Structure written by MMmdl.
 26 27  0  0  0  0  0  0  0  0  2 V2000
  154.1392  136.1890  157.2019 O   0  0  0  0  0  0  0  0  0  0  0  0
  153.6419  136.4831  158.3117 C   0  0  0  0  0  0  0  0  0  0  0  0
  153.7926  135.7529  159.3161 O   0  5  0  0  0  0  0  0  0  0  0  0
  152.8508  137.7350  158.4382 C   0  0  0  0  0  0  0  0  0  0  0  0
  151.9394  138.0336  159.4196 C   0  0  0  0  0  0  0  0  0  0  0  0
  151.4200  139.2786  159.1885 O   0  0  0  0  0  0  0  0  0  0  0  0
  152.0461  139.6971  158.0554 C   0  0  0  0  0  0  0  0  0  0  0  0
  151.7043  141.0380  157.4942 C   0  0  0  0  0  0  0  0  0  0  0  0
  151.4231  142.0333  158.5233 N   0  0  0  0  0  0  0  0  0  0  0  0
  152.5957  142.7687  158.9692 C   0  0  0  0  0  0  0  0  0  0  0  0
  152.0800  144.0582  159.6236 C   0  0  0  0  0  0  0  0  0  0  0  0
  150.6233  144.1640  159.1430 C   0  0  1  0  0  0  0  0  0  0  0  0
  150.3086  145.4380  158.6221 O   0  0  0  0  0  0  0  0  0  0  0  0
  150.5137  143.0690  158.0809 C   0  0  0  0  0  0  0  0  0  0  0  0
  152.9135  138.8143  157.5652 N   0  0  0  0  0  0  0  0  0  0  0  0
  149.9487  143.9395  159.9706 H   0  0  0  0  0  0  0  0  0  0  0  0
  151.5742  137.5047  160.2876 H   0  0  0  0  0  0  0  0  0  0  0  0
  152.5218  141.3713  156.8533 H   0  0  0  0  0  0  0  0  0  0  0  0
  150.8307  140.9199  156.8521 H   0  0  0  0  0  0  0  0  0  0  0  0
  153.2043  142.1742  159.6515 H   0  0  0  0  0  0  0  0  0  0  0  0
  153.2199  143.0292  158.1127 H   0  0  0  0  0  0  0  0  0  0  0  0
  152.1197  143.9925  160.7116 H   0  0  0  0  0  0  0  0  0  0  0  0
  152.6865  144.9119  159.3186 H   0  0  0  0  0  0  0  0  0  0  0  0
  149.4605  145.3916  158.2075 H   0  0  0  0  0  0  0  0  0  0  0  0
  150.8354  143.4549  157.1117 H   0  0  0  0  0  0  0  0  0  0  0  0
  149.4955  142.6939  157.9718 H   0  0  0  0  0  0  0  0  0  0  0  0
  1  2  2  0  0  0  0
  2  3  1  0  0  0  0
  2  4  1  0  0  0  0
  4 15  1  0  0  0  0
  4  5  2  0  0  0  0
  5  6  1  0  0  0  0
  5 17  1  0  0  0  0
  6  7  1  0  0  0  0
  7  8  1  0  0  0  0
  7 15  2  0  0  0  0
  8  9  1  0  0  0  0
  8 18  1  0  0  0  0
  8 19  1  0  0  0  0
  9 14  1  0  0  0  0
  9 10  1  0  0  0  0
 10 11  1  0  0  0  0
 10 20  1  0  0  0  0
 10 21  1  0  0  0  0
 11 12  1  0  0  0  0
 11 22  1  0  0  0  0
 11 23  1  0  0  0  0
 12 16  1  0  0  0  0
 12 13  1  0  0  0  0
 12 14  1  0  0  0  0
 13 24  1  0  0  0  0
 14 25  1  0  0  0  0
 14 26  1  0  0  0  0
M  CHG  1   3  -1
M  END
> <s_m_source_file>
AV-unprocessed.smi

> <i_m_source_file_index>
52

> <i_lp_mmshare_version>
43012

> <i_f3d_flags>
0

> <s_epik_input>
Tz1DKFtPSF0pYzFbY0hdb2MobjEpW0NIMl1OMltDSDJdW0NIMl1bQ0BIXShbT0hdKVtDSDJdMg==

> <s_epik_cmdline>
J2VwaWtfcHl0aG9uJywgJy1waCcsICc3LjAnLCAnLXRuJywgJzgnLCAnLW1hJywgJzIwMCcsICctbWV0YWxfYmluZGluZycsICctaW1hZScsICc8aW5maWxlLm1hZT4nLCAnLW9tYWUnLCAnPG91dGZpbGUubWFlPic=

> <r_epik_Ionization_Penalty>
1.6537

> <r_epik_Ionization_Penalty_Charging>
0.000221913

> <r_epik_Ionization_Penalty_Neutral>
1.65348

> <r_epik_State_Penalty>
1.75577

> <r_epik_Charging_Adjusted_Penalty>
1.75599

> <i_epik_Tot_Q>
-1

> <i_epik_Tot_abs_Q>
1

> <r_epik_Metal_State_Penalty>
1.75577

> <b_epik_Metal_Only>
0

> <s_lp_Force_Field>
OPLS_2005

> <r_lp_Energy>
35.559

> <b_lp_Chiralities_Consistent>
1

> <s_lp_Variant>
AV-unprocessed.smi:52-6

> <Gold.Version>
5.8.1

> <Gold.Id.Protein>
6NUR|6NUR_protein|mol2

> <Gold.PLP.Fitness>
39.5765

> <Gold.PLP.PLP>
-23.3131

> <Gold.PLP.part.hbond>
-4.4184

> <Gold.PLP.part.metal>
0.0000

> <Gold.PLP.part.buried>
-3.6149

> <Gold.PLP.part.nonpolar>
-15.2635

> <Gold.PLP.part.repulsive>
0.0094

> <Gold.PLP.ligand.clash>
0.0000

> <Gold.PLP.ligand.torsion>
0.8694

> <Gold.PLP.Chemscore.Hbond>
6.0000

> <Gold.PLP.Chemscore.CHOScore>
0.0000

> <Gold.PLP.Chemscore.Metal>
0.0000

> <Gold.Chemscore.Hbonds>
donor molecule, donor type, donor heavy atom, donor atom, acceptor molecule, acceptor atom, score
      L1  H    13    24       P1  8029  1.00
      P1  H  6896  6908       L1     3  2.00
      P1  H  7997  8008       L1    15  0.81
      P1  H 10752 10763       L1     1  1.85

> <Gold.PLP.Chemscore.Internal.Correction>
0.0021

> <Gold.Rescore>
     Score         DG    S(hbond)    S(metal)    S(lipo)     H(rot)  DE(clash)    DE(int)     intcor
     17.32     -18.17       3.37        0.00      54.88       1.95       0.02       0.82       ----

> <Gold.Chemscore.Fitness>
17.3188

> <Gold.Chemscore.DG>
-18.1673

> <Gold.Chemscore.ZeroCoef>
-5.4800

> <Gold.Chemscore.Hbond>
3.3707

> <Gold.Chemscore.Metal>
0.0000

> <Gold.Chemscore.Lipo>
54.8764

> <Gold.Chemscore.Internal_Hbond>
0.0000

> <Gold.Chemscore.DEClash>
0.0249

> <Gold.Chemscore.DEInternal>
0.8237

> <Gold.Chemscore.Rot>
1.9497

> <Gold.Chemscore.Internal.Correction>
   9.000000E+99

> <Gold.Chemscore.Hbonds>
donor molecule, donor type, donor heavy atom, donor atom, acceptor molecule, acceptor atom, score
      L1  H    13    24       P1  8029  0.55
      P1  H  6896  6908       L1     3  0.98
      P1  H  7997  8008       L1    15  0.31
      P1  H 10752 10763       L1     1  0.84

> <Gold.Chemscore.Hbond.Weighted>
-11.2580

> <Gold.Chemscore.Metal.Weighted>
-0.0000

> <Gold.Chemscore.Lipo.Weighted>
-6.4205

> <Gold.Chemscore.Internal_Hbond.Weighted>
0.0000

> <Gold.Chemscore.DEClash.Weighted>
0.0249

> <Gold.Chemscore.DEInternal.Weighted>
0.8237

> <Gold.Chemscore.Rot.Weighted>
4.9912

> <Gold.Chemscore.Internal.Correction.Weighted>
   9.000000E+99

> <Gold.Protein.RotatedTorsions>
[ 6907 6896 6895 6894 ] final  -55.94 input  -60.11 | X-H torsion
[ 7974 7965 7964 7962 ] final   22.38 input  175.53 | X-H torsion
[ 8008 7997 7996 7995 ] final  -72.54 input   59.86 | X-H torsion
[ 10167 10162 10161 10158 ] final  143.24 input  -65.29 | X-H torsion
[ 10718 10713 10712 10709 ] final  152.21 input   66.30 | X-H torsion
[ 10763 10752 10751 10750 ] final  160.65 input  -60.55 | X-H torsion
[ 11005 11000 10999 10996 ] final  -69.98 input  -57.11 | X-H torsion

> <Gold.Protein.ActiveResidues>
 VAL166  LYS551  ARG553  GLY616  TRP617  ASP618  TYR619  PRO620  LYS621  CYS622 
 ASP623  PHE694  ASN695  SER759  ASP760  ASP761  ALA762  ILE779  LEU786  VAL792 
 PHE793  MET794  SER795  GLU796  ALA797  LYS798  CYS799  TRP800  GLU811  SER814 

> <Gold.Protein.RotatedAtoms>
  150.8209  134.7416  159.6771 H   0  0  0  0  0  0  0  0  0  0  0  0  # atno 6907 bound_to 6896
  152.4325  134.5747  159.9941 H   0  0  0  0  0  0  0  0  0  0  0  0  # atno 6908 bound_to 6896
  151.5932  133.3327  159.3068 H   0  0  0  0  0  0  0  0  0  0  0  0  # atno 6909 bound_to 6896
  146.2031  139.7894  142.8746 H   0  0  0  0  0  0  0  0  0  0  0  0  # atno 7974 bound_to 7965
  154.5174  140.0795  156.8107 H   0  0  0  0  0  0  0  0  0  0  0  0  # atno 8008 bound_to 7997
  155.3650  140.3420  155.4223 H   0  0  0  0  0  0  0  0  0  0  0  0  # atno 8009 bound_to 7997
  156.1643  140.1599  156.8545 H   0  0  0  0  0  0  0  0  0  0  0  0  # atno 8010 bound_to 7997
  139.4974  144.6054  151.6390 H   0  0  0  0  0  0  0  0  0  0  0  0  # atno 10167 bound_to 10162
  157.2607  131.0797  151.1668 H   0  0  0  0  0  0  0  0  0  0  0  0  # atno 10718 bound_to 10713
  154.2508  135.2771  155.2817 H   0  0  0  0  0  0  0  0  0  0  0  0  # atno 10763 bound_to 10752
  154.5467  135.5687  153.6889 H   0  0  0  0  0  0  0  0  0  0  0  0  # atno 10764 bound_to 10752
  152.9981  135.6264  154.2655 H   0  0  0  0  0  0  0  0  0  0  0  0  # atno 10765 bound_to 10752
  141.1565  133.6778  156.6682 H   0  0  0  0  0  0  0  0  0  0  0  0  # atno 11005 bound_to 11000
  145.3414  141.0288  143.3390 LP  0  0  0  0  0  0  0  0  0  0  0  0  # atno 17320 bound_to 7965
  144.8729  139.5012  143.6759 LP  0  0  0  0  0  0  0  0  0  0  0  0  # atno 17321 bound_to 7965
  140.5714  144.0102  150.6219 LP  0  0  0  0  0  0  0  0  0  0  0  0  # atno 17342 bound_to 10162
  140.3221  143.3130  152.0773 LP  0  0  0  0  0  0  0  0  0  0  0  0  # atno 17343 bound_to 10162
  157.3179  130.6922  149.6252 LP  0  0  0  0  0  0  0  0  0  0  0  0  # atno 17370 bound_to 10713
  155.9664  130.4344  150.5048 LP  0  0  0  0  0  0  0  0  0  0  0  0  # atno 17371 bound_to 10713
  140.3195  134.8019  157.4241 LP  0  0  0  0  0  0  0  0  0  0  0  0  # atno 17394 bound_to 11000
  140.1109  134.5347  155.8267 LP  0  0  0  0  0  0  0  0  0  0  0  0  # atno 17395 bound_to 11000

$$$$
