AV-unprocessed.smi:1829|AV-procd|sdf|7430|dock7
  -GOLD-   22720 9113D 1   1.00000     0.00000
 Structure written by MMmdl.
 46 48  0  0  0  0  0  0  0  0  2 V2000
  150.2832  131.7140  155.2588 C   0  0  0  0  0  0  0  0  0  0  0  0
  150.3839  132.6433  156.4782 C   0  0  0  0  0  0  0  0  0  0  0  0
  149.3416  132.2900  157.5513 C   0  0  0  0  0  0  0  0  0  0  0  0
  150.3018  134.1077  156.0675 C   0  0  0  0  0  0  0  0  0  0  0  0
  149.1601  134.5871  155.3911 C   0  0  0  0  0  0  0  0  0  0  0  0
  149.0682  135.9431  155.0249 C   0  0  0  0  0  0  0  0  0  0  0  0
  150.1162  136.8367  155.3295 C   0  0  0  0  0  0  0  0  0  0  0  0
  149.9816  138.3095  154.9695 C   0  0  2  0  0  0  0  0  0  0  0  0
  149.7875  138.5113  153.5852 O   0  0  0  0  0  0  0  0  0  0  0  0
  151.2125  139.1308  155.4073 C   0  0  0  0  0  0  0  0  0  0  0  0
  150.8499  140.4079  156.0431 N   0  0  0  0  0  0  0  0  0  0  0  0
  149.9555  141.3668  155.6624 C   0  0  0  0  0  0  0  0  0  0  0  0
  149.0687  141.3484  154.4615 C   0  0  0  0  0  0  0  0  0  0  0  0
  148.3000  142.5246  154.3447 O   0  0  0  0  0  0  0  0  0  0  0  0
  150.0110  142.3614  156.5922 N   0  3  0  0  0  0  0  0  0  0  0  0
  150.9443  142.0370  157.5771 C   0  0  0  0  0  0  0  0  0  0  0  0
  151.3475  142.7298  158.7144 C   0  0  0  0  0  0  0  0  0  0  0  0
  152.3281  142.1111  159.5173 C   0  0  0  0  0  0  0  0  0  0  0  0
  152.8673  140.8526  159.1794 C   0  0  0  0  0  0  0  0  0  0  0  0
  152.4507  140.1600  158.0234 C   0  0  0  0  0  0  0  0  0  0  0  0
  151.4830  140.7802  157.2339 C   0  0  0  0  0  0  0  0  0  0  0  0
  151.2629  136.3569  155.9983 C   0  0  0  0  0  0  0  0  0  0  0  0
  151.3535  135.0012  156.3670 C   0  0  0  0  0  0  0  0  0  0  0  0
  151.0650  131.9370  154.5319 H   0  0  0  0  0  0  0  0  0  0  0  0
  149.3217  131.8150  154.7546 H   0  0  0  0  0  0  0  0  0  0  0  0
  150.3950  130.6697  155.5512 H   0  0  0  0  0  0  0  0  0  0  0  0
  151.3659  132.4803  156.9246 H   0  0  0  0  0  0  0  0  0  0  0  0
  149.4513  132.9290  158.4281 H   0  0  0  0  0  0  0  0  0  0  0  0
  149.4554  131.2573  157.8813 H   0  0  0  0  0  0  0  0  0  0  0  0
  148.3229  132.4053  157.1801 H   0  0  0  0  0  0  0  0  0  0  0  0
  148.3446  133.9188  155.1560 H   0  0  0  0  0  0  0  0  0  0  0  0
  148.1817  136.2983  154.5205 H   0  0  0  0  0  0  0  0  0  0  0  0
  149.0913  138.7027  155.4613 H   0  0  0  0  0  0  0  0  0  0  0  0
  149.4204  137.7223  153.2158 H   0  0  0  0  0  0  0  0  0  0  0  0
  151.8190  138.5631  156.1141 H   0  0  0  0  0  0  0  0  0  0  0  0
  151.8588  139.3490  154.5559 H   0  0  0  0  0  0  0  0  0  0  0  0
  149.6775  141.2332  153.5645 H   0  0  0  0  0  0  0  0  0  0  0  0
  148.4029  140.4879  154.5061 H   0  0  0  0  0  0  0  0  0  0  0  0
  148.7314  143.2145  154.8255 H   0  0  0  0  0  0  0  0  0  0  0  0
  150.9353  143.6934  158.9758 H   0  0  0  0  0  0  0  0  0  0  0  0
  152.6732  142.6118  160.4105 H   0  0  0  0  0  0  0  0  0  0  0  0
  153.6161  140.4091  159.8197 H   0  0  0  0  0  0  0  0  0  0  0  0
  152.8697  139.1966  157.7728 H   0  0  0  0  0  0  0  0  0  0  0  0
  152.0703  137.0299  156.2473 H   0  0  0  0  0  0  0  0  0  0  0  0
  152.2324  134.6529  156.8893 H   0  0  0  0  0  0  0  0  0  0  0  0
  149.4457  143.1999  156.5530 H   0  0  0  0  0  0  0  0  0  0  0  0
  1  2  1  0  0  0  0
  1 24  1  0  0  0  0
  1 25  1  0  0  0  0
  1 26  1  0  0  0  0
  2  3  1  0  0  0  0
  2  4  1  0  0  0  0
  2 27  1  0  0  0  0
  3 28  1  0  0  0  0
  3 29  1  0  0  0  0
  3 30  1  0  0  0  0
  4 23  1  0  0  0  0
  4  5  2  0  0  0  0
  5  6  1  0  0  0  0
  5 31  1  0  0  0  0
  6  7  2  0  0  0  0
  6 32  1  0  0  0  0
  7  8  1  0  0  0  0
  7 22  1  0  0  0  0
  8  9  1  0  0  0  0
  8 10  1  0  0  0  0
  8 33  1  0  0  0  0
  9 34  1  0  0  0  0
 10 11  1  0  0  0  0
 10 35  1  0  0  0  0
 10 36  1  0  0  0  0
 11 21  1  0  0  0  0
 11 12  1  0  0  0  0
 12 13  1  0  0  0  0
 12 15  2  0  0  0  0
 13 14  1  0  0  0  0
 13 37  1  0  0  0  0
 13 38  1  0  0  0  0
 14 39  1  0  0  0  0
 15 16  1  0  0  0  0
 15 46  1  0  0  0  0
 16 21  2  0  0  0  0
 16 17  1  0  0  0  0
 17 18  2  0  0  0  0
 17 40  1  0  0  0  0
 18 19  1  0  0  0  0
 18 41  1  0  0  0  0
 19 20  2  0  0  0  0
 19 42  1  0  0  0  0
 20 21  1  0  0  0  0
 20 43  1  0  0  0  0
 22 23  2  0  0  0  0
 22 44  1  0  0  0  0
 23 45  1  0  0  0  0
M  CHG  1  15   1
M  END
> <s_m_source_file>
AV-unprocessed.smi

> <i_m_source_file_index>
1829

> <i_lp_mmshare_version>
43012

> <i_f3d_flags>
0

> <s_epik_input>
W0NIM11bQ0hdKFtDSDNdKWMxW2NIXVtjSF1jKFtjSF1bY0hdMSlbQ0BIXShbT0hdKVtDSDJdbihjKG4yKVtDSDJdW09IXSljKGMyMylbY0hdW2NIXVtjSF1bY0hdMw==

> <s_epik_cmdline>
J2VwaWtfcHl0aG9uJywgJy1waCcsICc3LjAnLCAnLXRuJywgJzgnLCAnLW1hJywgJzIwMCcsICctbWV0YWxfYmluZGluZycsICctaW1hZScsICc8aW5maWxlLm1hZT4nLCAnLW9tYWUnLCAnPG91dGZpbGUubWFlPic=

> <r_epik_Ionization_Penalty>
1.35642

> <r_epik_Ionization_Penalty_Charging>
1.35557

> <r_epik_Ionization_Penalty_Neutral>
0.000856322

> <r_epik_State_Penalty>
1.43401

> <r_epik_Charging_Adjusted_Penalty>
2.78958

> <i_epik_Tot_Q>
1

> <i_epik_Tot_abs_Q>
1

> <r_epik_Metal_State_Penalty>
5.47166

> <b_epik_Metal_Only>
0

> <s_lp_Force_Field>
OPLS_2005

> <r_lp_Energy>
15.3194

> <b_lp_Chiralities_Consistent>
1

> <s_lp_Variant>
AV-unprocessed.smi:1829-3

> <Gold.Version>
5.8.1

> <Gold.Id.Protein>
6NUR|6NUR_protein|mol2

> <Gold.PLP.Fitness>
53.0255

> <Gold.PLP.PLP>
-42.5306

> <Gold.PLP.part.hbond>
-5.3604

> <Gold.PLP.part.metal>
0.0000

> <Gold.PLP.part.buried>
-2.2303

> <Gold.PLP.part.nonpolar>
-34.1802

> <Gold.PLP.part.repulsive>
0.0653

> <Gold.PLP.ligand.clash>
0.0000

> <Gold.PLP.ligand.torsion>
0.7999

> <Gold.PLP.Chemscore.Hbond>
3.9913

> <Gold.PLP.Chemscore.CHOScore>
0.0000

> <Gold.PLP.Chemscore.Metal>
0.0000

> <Gold.Chemscore.Hbonds>
donor molecule, donor type, donor heavy atom, donor atom, acceptor molecule, acceptor atom, score
      L1  H     9    34       P1  7948  0.99
      L1  H    14    39       P1  8028  1.00
      L1  H    15    46       P1  8028  2.00

> <Gold.PLP.Chemscore.Internal.Correction>
0.1208

> <Gold.Rescore>
     Score         DG    S(hbond)    S(metal)    S(lipo)     H(rot)  DE(clash)    DE(int)     intcor
     19.53     -20.55       2.91        0.00     105.96       2.75       0.10       0.93       ----

> <Gold.Chemscore.Fitness>
19.5276

> <Gold.Chemscore.DG>
-20.5543

> <Gold.Chemscore.ZeroCoef>
-5.4800

> <Gold.Chemscore.Hbond>
2.9129

> <Gold.Chemscore.Metal>
0.0000

> <Gold.Chemscore.Lipo>
105.9639

> <Gold.Chemscore.Internal_Hbond>
0.0000

> <Gold.Chemscore.DEClash>
0.1009

> <Gold.Chemscore.DEInternal>
0.9259

> <Gold.Chemscore.Rot>
2.7550

> <Gold.Chemscore.Internal.Correction>
   9.000000E+99

> <Gold.Chemscore.Hbonds>
donor molecule, donor type, donor heavy atom, donor atom, acceptor molecule, acceptor atom, score
      L1  H     9    34       P1  7948  0.87
      L1  H    14    39       P1  8028  0.98
      L1  H    15    46       P1  8028  0.95

> <Gold.Chemscore.Hbond.Weighted>
-9.7292

> <Gold.Chemscore.Metal.Weighted>
-0.0000

> <Gold.Chemscore.Lipo.Weighted>
-12.3978

> <Gold.Chemscore.Internal_Hbond.Weighted>
0.0000

> <Gold.Chemscore.DEClash.Weighted>
0.1009

> <Gold.Chemscore.DEInternal.Weighted>
0.9259

> <Gold.Chemscore.Rot.Weighted>
7.0527

> <Gold.Chemscore.Internal.Correction.Weighted>
   9.000000E+99

> <Gold.Protein.RotatedTorsions>
[ 6907 6896 6895 6894 ] final -168.94 input  -60.11 | X-H torsion
[ 7974 7965 7964 7962 ] final   88.39 input  175.53 | X-H torsion
[ 8008 7997 7996 7995 ] final -130.96 input   59.86 | X-H torsion
[ 10167 10162 10161 10158 ] final -122.17 input  -65.29 | X-H torsion
[ 10718 10713 10712 10709 ] final   -1.73 input   66.30 | X-H torsion
[ 10763 10752 10751 10750 ] final   53.23 input  -60.55 | X-H torsion
[ 11005 11000 10999 10996 ] final   14.44 input  -57.11 | X-H torsion

> <Gold.Protein.ActiveResidues>
 VAL166  LYS551  ARG553  GLY616  TRP617  ASP618  TYR619  PRO620  LYS621  CYS622 
 ASP623  PHE694  ASN695  SER759  ASP760  ASP761  ALA762  ILE779  LEU786  VAL792 
 PHE793  MET794  SER795  GLU796  ALA797  LYS798  CYS799  TRP800  GLU811  SER814 

> <Gold.Protein.RotatedAtoms>
  151.4836  133.3541  159.2841 H   0  0  0  0  0  0  0  0  0  0  0  0  # atno 6907 bound_to 6896
  150.8881  134.8283  159.7284 H   0  0  0  0  0  0  0  0  0  0  0  0  # atno 6908 bound_to 6896
  152.4805  134.4742  159.9697 H   0  0  0  0  0  0  0  0  0  0  0  0  # atno 6909 bound_to 6896
  145.5463  139.2292  143.2538 H   0  0  0  0  0  0  0  0  0  0  0  0  # atno 7974 bound_to 7965
  155.3044  140.0454  157.3031 H   0  0  0  0  0  0  0  0  0  0  0  0  # atno 8008 bound_to 7997
  154.5468  140.2305  155.8516 H   0  0  0  0  0  0  0  0  0  0  0  0  # atno 8009 bound_to 7997
  156.1931  140.3045  155.9380 H   0  0  0  0  0  0  0  0  0  0  0  0  # atno 8010 bound_to 7997
  140.0171  143.5382  152.2237 H   0  0  0  0  0  0  0  0  0  0  0  0  # atno 10167 bound_to 10162
  156.8013  130.5394  149.5721 H   0  0  0  0  0  0  0  0  0  0  0  0  # atno 10718 bound_to 10713
  152.9794  135.5786  154.4708 H   0  0  0  0  0  0  0  0  0  0  0  0  # atno 10763 bound_to 10752
  154.4270  135.2773  155.1939 H   0  0  0  0  0  0  0  0  0  0  0  0  # atno 10764 bound_to 10752
  154.3664  135.6177  153.5771 H   0  0  0  0  0  0  0  0  0  0  0  0  # atno 10765 bound_to 10752
  140.4695  134.1045  155.7730 H   0  0  0  0  0  0  0  0  0  0  0  0  # atno 11005 bound_to 11000
  146.1947  140.6284  142.9129 LP  0  0  0  0  0  0  0  0  0  0  0  0  # atno 17320 bound_to 7965
  144.7552  140.5289  143.6774 LP  0  0  0  0  0  0  0  0  0  0  0  0  # atno 17321 bound_to 7965
  139.6165  144.7620  151.2835 LP  0  0  0  0  0  0  0  0  0  0  0  0  # atno 17342 bound_to 10162
  140.7357  143.6727  150.8067 LP  0  0  0  0  0  0  0  0  0  0  0  0  # atno 17343 bound_to 10162
  156.1100  130.6033  151.0031 LP  0  0  0  0  0  0  0  0  0  0  0  0  # atno 17370 bound_to 10713
  157.6552  131.0890  150.7962 LP  0  0  0  0  0  0  0  0  0  0  0  0  # atno 17371 bound_to 10713
  141.1583  133.8840  157.1917 LP  0  0  0  0  0  0  0  0  0  0  0  0  # atno 17394 bound_to 11000
  139.9894  135.0070  156.9939 LP  0  0  0  0  0  0  0  0  0  0  0  0  # atno 17395 bound_to 11000

$$$$
