AV-unprocessed.smi:2463|AV-procd|sdf|9720|dock1
  -GOLD-   2272013363D 1   1.00000     0.00000
 Structure written by MMmdl.
 47 48  0  0  0  0  0  0  0  0  1 V2000
  150.7578  142.2983  157.1027 C   0  0  0  0  0  0  0  0  0  0  0  0
  150.2101  141.3160  156.0618 C   0  0  0  0  0  0  0  0  0  0  0  0
  148.9874  141.8721  155.3170 C   0  0  0  0  0  0  0  0  0  0  0  0
  148.1782  140.8130  154.7460 N   0  0  0  0  0  0  0  0  0  0  0  0
  148.5980  139.7180  154.0173 C   0  0  0  0  0  0  0  0  0  0  0  0
  147.4628  139.0241  153.7068 C   0  0  0  0  0  0  0  0  0  0  0  0
  147.3172  137.8189  152.9746 N   0  0  0  0  0  0  0  0  0  0  0  0
  146.1724  137.2387  152.5798 C   0  0  0  0  0  0  0  0  0  0  0  0
  145.0431  137.6695  152.8137 O   0  0  0  0  0  0  0  0  0  0  0  0
  146.4101  136.1125  151.8937 N   0  0  0  0  0  0  0  0  0  0  0  0
  145.3830  135.2299  151.3441 C   0  0  1  0  0  0  0  0  0  0  0  0
  145.9812  133.9481  150.7988 C   0  0  0  0  0  0  0  0  0  0  0  0
  144.8019  132.9685  150.8426 C   0  0  0  0  0  0  0  0  0  0  0  0
  143.9865  132.9917  149.5382 C   0  0  0  0  0  0  0  0  0  0  0  0
  145.2442  131.5387  151.1893 C   0  0  0  0  0  0  0  0  0  0  0  0
  143.9504  133.4452  151.8839 O   0  0  0  0  0  0  0  0  0  0  0  0
  144.3793  134.7069  152.3944 C   0  0  0  0  0  0  0  0  0  0  0  0
  144.9963  134.4311  153.7818 C   0  0  0  0  0  0  0  0  0  0  0  0
  143.1426  135.6103  152.5204 C   0  0  0  0  0  0  0  0  0  0  0  0
  146.3916  139.7575  154.2797 C   0  0  0  0  0  0  0  0  0  0  0  0
  146.8317  140.8387  154.9050 N   0  0  0  0  0  0  0  0  0  0  0  0
  151.6228  141.8779  157.6163 H   0  0  0  0  0  0  0  0  0  0  0  0
  150.0054  142.5346  157.8560 H   0  0  0  0  0  0  0  0  0  0  0  0
  151.0703  143.2326  156.6351 H   0  0  0  0  0  0  0  0  0  0  0  0
  150.9983  141.0746  155.3472 H   0  0  0  0  0  0  0  0  0  0  0  0
  149.9440  140.3804  156.5554 H   0  0  0  0  0  0  0  0  0  0  0  0
  148.3635  142.4558  155.9954 H   0  0  0  0  0  0  0  0  0  0  0  0
  149.3001  142.5447  154.5167 H   0  0  0  0  0  0  0  0  0  0  0  0
  149.6401  139.5419  153.7959 H   0  0  0  0  0  0  0  0  0  0  0  0
  148.1755  137.3506  152.7237 H   0  0  0  0  0  0  0  0  0  0  0  0
  147.3702  135.8356  151.7506 H   0  0  0  0  0  0  0  0  0  0  0  0
  144.8507  135.7260  150.5302 H   0  0  0  0  0  0  0  0  0  0  0  0
  146.4027  134.0686  149.8001 H   0  0  0  0  0  0  0  0  0  0  0  0
  146.7842  133.6040  151.4526 H   0  0  0  0  0  0  0  0  0  0  0  0
  144.5856  132.6534  148.6923 H   0  0  0  0  0  0  0  0  0  0  0  0
  143.6260  133.9947  149.3084 H   0  0  0  0  0  0  0  0  0  0  0  0
  143.1152  132.3399  149.6080 H   0  0  0  0  0  0  0  0  0  0  0  0
  145.9171  131.1390  150.4301 H   0  0  0  0  0  0  0  0  0  0  0  0
  144.3873  130.8683  151.2611 H   0  0  0  0  0  0  0  0  0  0  0  0
  145.7656  131.5066  152.1465 H   0  0  0  0  0  0  0  0  0  0  0  0
  145.3152  135.3521  154.2703 H   0  0  0  0  0  0  0  0  0  0  0  0
  145.8621  133.7722  153.7142 H   0  0  0  0  0  0  0  0  0  0  0  0
  144.2727  133.9494  154.4400 H   0  0  0  0  0  0  0  0  0  0  0  0
  143.4080  136.5929  152.9107 H   0  0  0  0  0  0  0  0  0  0  0  0
  142.4046  135.1748  153.1946 H   0  0  0  0  0  0  0  0  0  0  0  0
  142.6584  135.7554  151.5543 H   0  0  0  0  0  0  0  0  0  0  0  0
  145.3325  139.5468  154.2633 H   0  0  0  0  0  0  0  0  0  0  0  0
  1  2  1  0  0  0  0
  1 22  1  0  0  0  0
  1 23  1  0  0  0  0
  1 24  1  0  0  0  0
  2  3  1  0  0  0  0
  2 25  1  0  0  0  0
  2 26  1  0  0  0  0
  3  4  1  0  0  0  0
  3 27  1  0  0  0  0
  3 28  1  0  0  0  0
  4 21  1  0  0  0  0
  4  5  1  0  0  0  0
  5  6  2  0  0  0  0
  5 29  1  0  0  0  0
  6  7  1  0  0  0  0
  6 20  1  0  0  0  0
  7  8  1  0  0  0  0
  7 30  1  0  0  0  0
  8  9  2  0  0  0  0
  8 10  1  0  0  0  0
 10 11  1  0  0  0  0
 10 31  1  0  0  0  0
 11 17  1  0  0  0  0
 11 12  1  0  0  0  0
 11 32  1  0  0  0  0
 12 13  1  0  0  0  0
 12 33  1  0  0  0  0
 12 34  1  0  0  0  0
 13 14  1  0  0  0  0
 13 15  1  0  0  0  0
 13 16  1  0  0  0  0
 14 35  1  0  0  0  0
 14 36  1  0  0  0  0
 14 37  1  0  0  0  0
 15 38  1  0  0  0  0
 15 39  1  0  0  0  0
 15 40  1  0  0  0  0
 16 17  1  0  0  0  0
 17 18  1  0  0  0  0
 17 19  1  0  0  0  0
 18 41  1  0  0  0  0
 18 42  1  0  0  0  0
 18 43  1  0  0  0  0
 19 44  1  0  0  0  0
 19 45  1  0  0  0  0
 19 46  1  0  0  0  0
 20 21  2  0  0  0  0
 20 47  1  0  0  0  0
M  END
> <s_m_source_file>
AV-unprocessed.smi

> <i_m_source_file_index>
2463

> <i_lp_mmshare_version>
43012

> <i_f3d_flags>
0

> <s_epik_input>
W0NIM11bQ0gyXVtDSDJdbjFbY0hdYyhbY0hdbjEpW05IXUMoPU8pW05IXVtDQEBIXShDKE8yKShbQ0gzXSlbQ0gzXSlbQ0gyXUMyKFtDSDNdKVtDSDNd

> <s_epik_cmdline>
J2VwaWtfcHl0aG9uJywgJy1waCcsICc3LjAnLCAnLXRuJywgJzgnLCAnLW1hJywgJzIwMCcsICctbWV0YWxfYmluZGluZycsICctaW1hZScsICc8aW5maWxlLm1hZT4nLCAnLW9tYWUnLCAnPG91dGZpbGUubWFlPic=

> <r_lp_tautomer_probability>
1

> <r_epik_Ionization_Penalty>
3.69628e-05

> <r_epik_Ionization_Penalty_Charging>
0

> <r_epik_Ionization_Penalty_Neutral>
3.69628e-05

> <r_epik_State_Penalty>
-0

> <r_epik_Charging_Adjusted_Penalty>
0

> <i_epik_Tot_Q>
0

> <i_epik_Tot_abs_Q>
0

> <r_epik_Metal_State_Penalty>
-0

> <b_epik_Metal_Only>
0

> <s_lp_Force_Field>
OPLS_2005

> <r_lp_Energy>
21.7925

> <b_lp_Chiralities_Consistent>
1

> <s_lp_Variant>
AV-unprocessed.smi:2463-2

> <Gold.Version>
5.8.1

> <Gold.Id.Protein>
6NUR|6NUR_protein|mol2

> <Gold.PLP.Fitness>
41.0780

> <Gold.PLP.PLP>
-31.9364

> <Gold.PLP.part.hbond>
-1.5709

> <Gold.PLP.part.metal>
0.0000

> <Gold.PLP.part.buried>
0.1280

> <Gold.PLP.part.nonpolar>
-31.7545

> <Gold.PLP.part.repulsive>
1.0426

> <Gold.PLP.ligand.clash>
0.0000

> <Gold.PLP.ligand.torsion>
0.3235

> <Gold.PLP.Chemscore.Hbond>
1.9353

> <Gold.PLP.Chemscore.CHOScore>
1.3201

> <Gold.PLP.Chemscore.Metal>
0.0000

> <Gold.Chemscore.Hbonds>
donor molecule, donor type, donor heavy atom, donor atom, acceptor molecule, acceptor atom, score
      L1  H     7    30       P1  7948  1.00
      L1  H    10    31       P1  7948  0.98
      L1  C     5    29       P1  7957  0.24
      L1  C    20    47       P1 10175  0.73

> <Gold.PLP.Chemscore.Internal.Correction>
0.0226

> <Gold.Rescore>
     Score         DG    S(hbond)    S(metal)    S(lipo)     H(rot)  DE(clash)    DE(int)     intcor
     14.06     -18.00       1.93        0.00      80.13       1.29       0.19       3.75       ----

> <Gold.Chemscore.Fitness>
14.0620

> <Gold.Chemscore.DG>
-17.9994

> <Gold.Chemscore.ZeroCoef>
-5.4800

> <Gold.Chemscore.Hbond>
1.9269

> <Gold.Chemscore.Metal>
0.0000

> <Gold.Chemscore.Lipo>
80.1312

> <Gold.Chemscore.Internal_Hbond>
0.0000

> <Gold.Chemscore.DEClash>
0.1863

> <Gold.Chemscore.DEInternal>
3.7510

> <Gold.Chemscore.Rot>
1.2859

> <Gold.Chemscore.Internal.Correction>
   9.000000E+99

> <Gold.Chemscore.Hbonds>
donor molecule, donor type, donor heavy atom, donor atom, acceptor molecule, acceptor atom, score
      L1  H     7    30       P1  7948  0.93
      L1  H    10    31       P1  7948  0.92

> <Gold.Chemscore.Hbond.Weighted>
-6.4360

> <Gold.Chemscore.Metal.Weighted>
-0.0000

> <Gold.Chemscore.Lipo.Weighted>
-9.3753

> <Gold.Chemscore.Internal_Hbond.Weighted>
0.0000

> <Gold.Chemscore.DEClash.Weighted>
0.1863

> <Gold.Chemscore.DEInternal.Weighted>
3.7510

> <Gold.Chemscore.Rot.Weighted>
3.2919

> <Gold.Chemscore.Internal.Correction.Weighted>
   9.000000E+99

> <Gold.Protein.RotatedTorsions>
[ 6907 6896 6895 6894 ] final  -28.57 input  -60.11 | X-H torsion
[ 7974 7965 7964 7962 ] final -116.41 input  175.53 | X-H torsion
[ 8008 7997 7996 7995 ] final  -81.73 input   59.86 | X-H torsion
[ 10167 10162 10161 10158 ] final -171.79 input  -65.29 | X-H torsion
[ 10718 10713 10712 10709 ] final -121.14 input   66.30 | X-H torsion
[ 10763 10752 10751 10750 ] final   35.01 input  -60.55 | X-H torsion
[ 11005 11000 10999 10996 ] final   67.90 input  -57.11 | X-H torsion

> <Gold.Protein.ActiveResidues>
 VAL166  LYS551  ARG553  GLY616  TRP617  ASP618  TYR619  PRO620  LYS621  CYS622 
 ASP623  PHE694  ASN695  SER759  ASP760  ASP761  ALA762  ILE779  LEU786  VAL792 
 PHE793  MET794  SER795  GLU796  ALA797  LYS798  CYS799  TRP800  GLU811  SER814 

> <Gold.Protein.RotatedAtoms>
  151.1311  135.0131  159.8582 H   0  0  0  0  0  0  0  0  0  0  0  0  # atno 6907 bound_to 6896
  152.5451  134.1609  159.8567 H   0  0  0  0  0  0  0  0  0  0  0  0  # atno 6908 bound_to 6896
  151.1676  133.4760  159.2627 H   0  0  0  0  0  0  0  0  0  0  0  0  # atno 6909 bound_to 6896
  145.0971  140.8528  143.3948 H   0  0  0  0  0  0  0  0  0  0  0  0  # atno 7974 bound_to 7965
  154.6013  140.0643  156.9373 H   0  0  0  0  0  0  0  0  0  0  0  0  # atno 8008 bound_to 7997
  155.2127  140.3324  155.4308 H   0  0  0  0  0  0  0  0  0  0  0  0  # atno 8009 bound_to 7997
  156.2320  140.1845  156.7201 H   0  0  0  0  0  0  0  0  0  0  0  0  # atno 8010 bound_to 7997
  139.5782  144.1484  152.1479 H   0  0  0  0  0  0  0  0  0  0  0  0  # atno 10167 bound_to 10162
  156.1313  130.6397  150.9626 H   0  0  0  0  0  0  0  0  0  0  0  0  # atno 10718 bound_to 10713
  153.0138  135.6345  154.1759 H   0  0  0  0  0  0  0  0  0  0  0  0  # atno 10763 bound_to 10752
  154.1499  135.2829  155.3139 H   0  0  0  0  0  0  0  0  0  0  0  0  # atno 10764 bound_to 10752
  154.6061  135.5571  153.7485 H   0  0  0  0  0  0  0  0  0  0  0  0  # atno 10765 bound_to 10752
  139.9743  134.6848  156.0385 H   0  0  0  0  0  0  0  0  0  0  0  0  # atno 11005 bound_to 11000
  145.0999  139.2830  143.5692 LP  0  0  0  0  0  0  0  0  0  0  0  0  # atno 17320 bound_to 7965
  146.3530  140.0562  142.8632 LP  0  0  0  0  0  0  0  0  0  0  0  0  # atno 17321 bound_to 7965
  140.1031  144.5522  150.6975 LP  0  0  0  0  0  0  0  0  0  0  0  0  # atno 17342 bound_to 10162
  140.7063  143.2470  151.4717 LP  0  0  0  0  0  0  0  0  0  0  0  0  # atno 17343 bound_to 10162
  157.6491  131.0899  150.8090 LP  0  0  0  0  0  0  0  0  0  0  0  0  # atno 17370 bound_to 10713
  156.8175  130.4973  149.5347 LP  0  0  0  0  0  0  0  0  0  0  0  0  # atno 17371 bound_to 10713
  141.1421  133.6563  156.3760 LP  0  0  0  0  0  0  0  0  0  0  0  0  # atno 17394 bound_to 11000
  140.5227  134.6288  157.5324 LP  0  0  0  0  0  0  0  0  0  0  0  0  # atno 17395 bound_to 11000

$$$$
