AV-unprocessed.smi:213|AV-procd|sdf|1639|dock4
  -GOLD-   2262020 03D 1   1.00000     0.00000
 Structure written by MMmdl.
 59 62  0  0  0  0  0  0  0  0  2 V2000
  147.8957  136.8183  156.4491 C   0  0  0  0  0  0  0  0  0  0  0  0
  148.6934  136.1447  155.3206 C   0  0  2  0  0  0  0  0  0  0  0  0
  147.9579  134.8951  154.7787 C   0  0  0  0  0  0  0  0  0  0  0  0
  147.2147  135.1576  153.5200 N   0  3  0  0  0  0  0  0  0  0  0  0
  146.5622  133.9485  152.9677 C   0  0  0  0  0  0  0  0  0  0  0  0
  145.8967  134.2747  151.6202 C   0  0  0  0  0  0  0  0  0  0  0  0
  144.9653  135.3365  151.7903 O   0  0  0  0  0  0  0  0  0  0  0  0
  145.5922  136.5289  152.2473 C   0  0  0  0  0  0  0  0  0  0  0  0
  146.2437  136.2747  153.6167 C   0  0  0  0  0  0  0  0  0  0  0  0
  150.0733  135.8520  155.7372 N   0  0  0  0  0  0  0  0  0  0  0  0
  150.6700  134.5600  155.3998 C   0  0  0  0  0  0  0  0  0  0  0  0
  150.9183  136.9135  155.8243 C   0  0  0  0  0  0  0  0  0  0  0  0
  151.7642  137.1781  154.7920 N   0  0  0  0  0  0  0  0  0  0  0  0
  152.5707  138.2423  154.8333 C   0  0  0  0  0  0  0  0  0  0  0  0
  152.6868  139.1627  155.7915 N   0  0  0  0  0  0  0  0  0  0  0  0
  151.8515  138.8973  156.8361 C   0  0  0  0  0  0  0  0  0  0  0  0
  150.9446  137.8045  156.9349 C   0  0  0  0  0  0  0  0  0  0  0  0
  150.2663  137.8635  158.1470 N   0  0  0  0  0  0  0  0  0  0  0  0
  150.7436  138.9292  158.7300 C   0  0  0  0  0  0  0  0  0  0  0  0
  151.6990  139.6102  158.0116 N   0  0  0  0  0  0  0  0  0  0  0  0
  152.3981  140.8151  158.4215 C   0  0  0  0  0  0  0  0  0  0  0  0
  151.5594  142.0875  158.1895 C   0  0  1  0  0  0  0  0  0  0  0  0
  150.2508  141.9275  158.7042 O   0  0  0  0  0  0  0  0  0  0  0  0
  152.2176  143.3532  158.7753 C   0  0  1  0  0  0  0  0  0  0  0  0
  151.6481  144.6964  158.3085 C   0  0  0  0  0  0  0  0  0  0  0  0
  152.0449  145.6006  159.4537 C   0  0  0  0  0  0  0  0  0  0  0  0
  151.8495  144.6820  160.6570 C   0  0  0  0  0  0  0  0  0  0  0  0
  152.1630  143.3691  160.2002 O   0  0  0  0  0  0  0  0  0  0  0  0
  146.9168  137.1392  156.0925 H   0  0  0  0  0  0  0  0  0  0  0  0
  148.4137  137.7034  156.8200 H   0  0  0  0  0  0  0  0  0  0  0  0
  147.7293  136.1481  157.2924 H   0  0  0  0  0  0  0  0  0  0  0  0
  148.7166  136.8744  154.5142 H   0  0  0  0  0  0  0  0  0  0  0  0
  148.6941  134.1098  154.6008 H   0  0  0  0  0  0  0  0  0  0  0  0
  147.2711  134.5000  155.5286 H   0  0  0  0  0  0  0  0  0  0  0  0
  147.3011  133.1586  152.8276 H   0  0  0  0  0  0  0  0  0  0  0  0
  145.8202  133.5750  153.6754 H   0  0  0  0  0  0  0  0  0  0  0  0
  146.6443  134.5477  150.8733 H   0  0  0  0  0  0  0  0  0  0  0  0
  145.3703  133.3993  151.2394 H   0  0  0  0  0  0  0  0  0  0  0  0
  146.3322  136.8676  151.5205 H   0  0  0  0  0  0  0  0  0  0  0  0
  144.8421  137.3158  152.3270 H   0  0  0  0  0  0  0  0  0  0  0  0
  145.4786  136.0346  154.3563 H   0  0  0  0  0  0  0  0  0  0  0  0
  146.7379  137.1858  153.9523 H   0  0  0  0  0  0  0  0  0  0  0  0
  151.5704  134.3851  155.9903 H   0  0  0  0  0  0  0  0  0  0  0  0
  150.9389  134.5193  154.3437 H   0  0  0  0  0  0  0  0  0  0  0  0
  149.9840  133.7396  155.6056 H   0  0  0  0  0  0  0  0  0  0  0  0
  153.2099  138.3803  153.9734 H   0  0  0  0  0  0  0  0  0  0  0  0
  150.4122  139.2481  159.7079 H   0  0  0  0  0  0  0  0  0  0  0  0
  152.6694  140.7178  159.4735 H   0  0  0  0  0  0  0  0  0  0  0  0
  153.3334  140.8745  157.8634 H   0  0  0  0  0  0  0  0  0  0  0  0
  151.4509  142.2356  157.1143 H   0  0  0  0  0  0  0  0  0  0  0  0
  150.1985  141.0837  159.1269 H   0  0  0  0  0  0  0  0  0  0  0  0
  153.2784  143.3368  158.5196 H   0  0  0  0  0  0  0  0  0  0  0  0
  152.0518  145.0188  157.3485 H   0  0  0  0  0  0  0  0  0  0  0  0
  150.5610  144.6690  158.2275 H   0  0  0  0  0  0  0  0  0  0  0  0
  153.0941  145.8839  159.3619 H   0  0  0  0  0  0  0  0  0  0  0  0
  151.4470  146.5106  159.5101 H   0  0  0  0  0  0  0  0  0  0  0  0
  152.4694  144.9683  161.5065 H   0  0  0  0  0  0  0  0  0  0  0  0
  150.8072  144.6955  160.9784 H   0  0  0  0  0  0  0  0  0  0  0  0
  147.9083  135.4329  152.8384 H   0  0  0  0  0  0  0  0  0  0  0  0
  1  2  1  0  0  0  0
  1 29  1  0  0  0  0
  1 30  1  0  0  0  0
  1 31  1  0  0  0  0
  2  3  1  0  0  0  0
  2 10  1  0  0  0  0
  2 32  1  0  0  0  0
  3  4  1  0  0  0  0
  3 33  1  0  0  0  0
  3 34  1  0  0  0  0
  4  9  1  0  0  0  0
  4  5  1  0  0  0  0
  4 59  1  0  0  0  0
  5  6  1  0  0  0  0
  5 35  1  0  0  0  0
  5 36  1  0  0  0  0
  6  7  1  0  0  0  0
  6 37  1  0  0  0  0
  6 38  1  0  0  0  0
  7  8  1  0  0  0  0
  8  9  1  0  0  0  0
  8 39  1  0  0  0  0
  8 40  1  0  0  0  0
  9 41  1  0  0  0  0
  9 42  1  0  0  0  0
 10 11  1  0  0  0  0
 10 12  1  0  0  0  0
 11 43  1  0  0  0  0
 11 44  1  0  0  0  0
 11 45  1  0  0  0  0
 12 17  1  0  0  0  0
 12 13  2  0  0  0  0
 13 14  1  0  0  0  0
 14 15  2  0  0  0  0
 14 46  1  0  0  0  0
 15 16  1  0  0  0  0
 16 20  1  0  0  0  0
 16 17  2  0  0  0  0
 17 18  1  0  0  0  0
 18 19  2  0  0  0  0
 19 20  1  0  0  0  0
 19 47  1  0  0  0  0
 20 21  1  0  0  0  0
 21 22  1  0  0  0  0
 21 48  1  0  0  0  0
 21 49  1  0  0  0  0
 22 23  1  0  0  0  0
 22 24  1  0  0  0  0
 22 50  1  0  0  0  0
 23 51  1  0  0  0  0
 24 28  1  0  0  0  0
 24 25  1  0  0  0  0
 24 52  1  0  0  0  0
 25 26  1  0  0  0  0
 25 53  1  0  0  0  0
 25 54  1  0  0  0  0
 26 27  1  0  0  0  0
 26 55  1  0  0  0  0
 26 56  1  0  0  0  0
 27 28  1  0  0  0  0
 27 57  1  0  0  0  0
 27 58  1  0  0  0  0
M  CHG  1   4   1
M  END
> <s_m_source_file>
AV-unprocessed.smi

> <i_m_source_file_index>
213

> <i_lp_mmshare_version>
43012

> <i_f3d_flags>
0

> <s_epik_input>
W0NIMl0xW0NIMl1PW0NIMl1bQ0gyXU4xW0NIMl1bQ0BASF0oW0NIM10pTihbQ0gzXSljKG5bY0hdbjIpYyhjMjMpbltjSF1uM1tDSDJdW0NASF0oW09IXSlbQ0BASF00W0NIMl1bQ0gyXVtDSDJdTzQ=

> <s_epik_cmdline>
J2VwaWtfcHl0aG9uJywgJy1waCcsICc3LjAnLCAnLXRuJywgJzgnLCAnLW1hJywgJzIwMCcsICctbWV0YWxfYmluZGluZycsICctaW1hZScsICc8aW5maWxlLm1hZT4nLCAnLW9tYWUnLCAnPG91dGZpbGUubWFlPic=

> <r_lp_tautomer_probability>
1

> <r_epik_Ionization_Penalty>
0.399679

> <r_epik_Ionization_Penalty_Charging>
0.399433

> <r_epik_Ionization_Penalty_Neutral>
0.000246213

> <r_epik_State_Penalty>
0.286032

> <r_epik_Charging_Adjusted_Penalty>
0.685465

> <i_epik_Tot_Q>
1

> <i_epik_Tot_abs_Q>
1

> <r_epik_Metal_State_Penalty>
0.286072

> <b_epik_Metal_Only>
0

> <s_lp_Force_Field>
OPLS_2005

> <r_lp_Energy>
47.0923

> <b_lp_Chiralities_Consistent>
1

> <s_lp_Variant>
AV-unprocessed.smi:213-7

> <Gold.Version>
5.8.1

> <Gold.Id.Protein>
6NUR|6NUR_protein|mol2

> <Gold.PLP.Fitness>
52.3469

> <Gold.PLP.PLP>
-44.3255

> <Gold.PLP.part.hbond>
-3.2825

> <Gold.PLP.part.metal>
0.0000

> <Gold.PLP.part.buried>
-7.7722

> <Gold.PLP.part.nonpolar>
-32.9142

> <Gold.PLP.part.repulsive>
0.3195

> <Gold.PLP.ligand.clash>
0.0000

> <Gold.PLP.ligand.torsion>
2.6407

> <Gold.PLP.Chemscore.Hbond>
3.9588

> <Gold.PLP.Chemscore.CHOScore>
0.0000

> <Gold.PLP.Chemscore.Metal>
0.0000

> <Gold.Chemscore.Hbonds>
donor molecule, donor type, donor heavy atom, donor atom, acceptor molecule, acceptor atom, score
      L1  H     4    59       P1  7948  2.00
      P1  H  7997  8009       L1    15  1.00
      P1  H 10752 10765       L1    13  1.00

> <Gold.PLP.Chemscore.Internal.Correction>
1.4266

> <Gold.Rescore>
     Score         DG    S(hbond)    S(metal)    S(lipo)     H(rot)  DE(clash)    DE(int)     intcor
     15.15     -17.92       2.50        0.00      96.89       2.83       0.02       2.75       ----

> <Gold.Chemscore.Fitness>
15.1495

> <Gold.Chemscore.DG>
-17.9199

> <Gold.Chemscore.ZeroCoef>
-5.4800

> <Gold.Chemscore.Hbond>
2.4959

> <Gold.Chemscore.Metal>
0.0000

> <Gold.Chemscore.Lipo>
96.8939

> <Gold.Chemscore.Internal_Hbond>
0.0000

> <Gold.Chemscore.DEClash>
0.0182

> <Gold.Chemscore.DEInternal>
2.7521

> <Gold.Chemscore.Rot>
2.8254

> <Gold.Chemscore.Internal.Correction>
   9.000000E+99

> <Gold.Chemscore.Hbonds>
donor molecule, donor type, donor heavy atom, donor atom, acceptor molecule, acceptor atom, score
      L1  H     4    59       P1  7948  0.99
      P1  H  7997  8009       L1    15  0.91
      P1  H 10752 10765       L1    13  0.38

> <Gold.Chemscore.Hbond.Weighted>
-8.3362

> <Gold.Chemscore.Metal.Weighted>
-0.0000

> <Gold.Chemscore.Lipo.Weighted>
-11.3366

> <Gold.Chemscore.Internal_Hbond.Weighted>
0.0000

> <Gold.Chemscore.DEClash.Weighted>
0.0182

> <Gold.Chemscore.DEInternal.Weighted>
2.7521

> <Gold.Chemscore.Rot.Weighted>
7.2330

> <Gold.Chemscore.Internal.Correction.Weighted>
   9.000000E+99

> <Gold.Protein.RotatedTorsions>
[ 6907 6896 6895 6894 ] final  145.80 input  -60.11 | X-H torsion
[ 7974 7965 7964 7962 ] final -152.16 input  175.53 | X-H torsion
[ 8008 7997 7996 7995 ] final -157.67 input   59.86 | X-H torsion
[ 10167 10162 10161 10158 ] final    3.85 input  -65.29 | X-H torsion
[ 10718 10713 10712 10709 ] final -140.23 input   66.30 | X-H torsion
[ 10763 10752 10751 10750 ] final  169.75 input  -60.55 | X-H torsion
[ 11005 11000 10999 10996 ] final  -83.36 input  -57.11 | X-H torsion

> <Gold.Protein.ActiveResidues>
 VAL166  LYS551  ARG553  GLY616  TRP617  ASP618  TYR619  PRO620  LYS621  CYS622 
 ASP623  PHE694  ASN695  SER759  ASP760  ASP761  ALA762  ILE779  LEU786  VAL792 
 PHE793  MET794  SER795  GLU796  ALA797  LYS798  CYS799  TRP800  GLU811  SER814 

> <Gold.Protein.RotatedAtoms>
  152.1761  133.4676  159.4933 H   0  0  0  0  0  0  0  0  0  0  0  0  # atno 6907 bound_to 6896
  150.6927  134.1892  159.4287 H   0  0  0  0  0  0  0  0  0  0  0  0  # atno 6908 bound_to 6896
  151.9801  135.0033  160.0607 H   0  0  0  0  0  0  0  0  0  0  0  0  # atno 6909 bound_to 6896
  144.7809  140.4700  143.5840 H   0  0  0  0  0  0  0  0  0  0  0  0  # atno 7974 bound_to 7965
  155.7359  140.0808  157.2268 H   0  0  0  0  0  0  0  0  0  0  0  0  # atno 8008 bound_to 7997
  154.4027  140.1587  156.2616 H   0  0  0  0  0  0  0  0  0  0  0  0  # atno 8009 bound_to 7997
  155.9066  140.3406  155.6069 H   0  0  0  0  0  0  0  0  0  0  0  0  # atno 8010 bound_to 7997
  140.6565  143.7415  150.7662 H   0  0  0  0  0  0  0  0  0  0  0  0  # atno 10167 bound_to 10162
  156.3199  130.7528  151.1623 H   0  0  0  0  0  0  0  0  0  0  0  0  # atno 10718 bound_to 10713
  154.3877  135.2754  155.2173 H   0  0  0  0  0  0  0  0  0  0  0  0  # atno 10763 bound_to 10752
  154.4253  135.5990  153.6038 H   0  0  0  0  0  0  0  0  0  0  0  0  # atno 10764 bound_to 10752
  152.9833  135.5982  154.4128 H   0  0  0  0  0  0  0  0  0  0  0  0  # atno 10765 bound_to 10752
  141.1658  133.7291  156.8709 H   0  0  0  0  0  0  0  0  0  0  0  0  # atno 11005 bound_to 11000
  145.6052  139.1507  143.3107 LP  0  0  0  0  0  0  0  0  0  0  0  0  # atno 17320 bound_to 7965
  146.2017  140.6171  142.9099 LP  0  0  0  0  0  0  0  0  0  0  0  0  # atno 17321 bound_to 7965
  140.1075  143.4730  152.2389 LP  0  0  0  0  0  0  0  0  0  0  0  0  # atno 17342 bound_to 10162
  139.5788  144.7501  151.3693 LP  0  0  0  0  0  0  0  0  0  0  0  0  # atno 17343 bound_to 10162
  157.7409  131.0510  150.5131 LP  0  0  0  0  0  0  0  0  0  0  0  0  # atno 17370 bound_to 10713
  156.5282  130.4178  149.6215 LP  0  0  0  0  0  0  0  0  0  0  0  0  # atno 17371 bound_to 10713
  140.1782  134.9052  157.2916 LP  0  0  0  0  0  0  0  0  0  0  0  0  # atno 17394 bound_to 11000
  140.2425  134.3779  155.7475 LP  0  0  0  0  0  0  0  0  0  0  0  0  # atno 17395 bound_to 11000

$$$$
