AV-unprocessed.smi:3234|AV-procd|sdf|12357|dock10
  -GOLD-   2272018213D 1   1.00000     0.00000
 Structure written by MMmdl.
 37 39  0  0  0  0  0  0  0  0  4 V2000
  152.4243  139.8678  156.3796 O   0  0  0  0  0  0  0  0  0  0  0  0
  151.4839  140.5122  155.9011 C   0  0  0  0  0  0  0  0  0  0  0  0
  151.0578  141.6393  156.4991 N   0  0  0  0  0  0  0  0  0  0  0  0
  151.5002  142.2334  157.7122 C   0  0  0  0  0  0  0  0  0  0  0  0
  151.5066  143.6438  157.7864 C   0  0  0  0  0  0  0  0  0  0  0  0
  151.9184  144.2754  158.9776 C   0  0  0  0  0  0  0  0  0  0  0  0
  152.2906  143.5296  160.0403 N   0  3  0  0  0  0  0  0  0  0  0  0
  152.2829  142.1793  160.0230 C   0  0  0  0  0  0  0  0  0  0  0  0
  151.8806  141.4924  158.8598 C   0  0  0  0  0  0  0  0  0  0  0  0
  150.7881  140.2391  154.7640 N   0  5  0  0  0  0  0  0  0  0  0  0
  150.4314  138.8941  154.3082 C   0  0  1  0  0  0  0  0  0  0  0  0
  150.9992  137.8147  155.2312 C   0  0  0  0  0  0  0  0  0  0  0  0
  150.0343  136.6297  155.0715 C   0  0  0  0  0  0  0  0  0  0  0  0
  148.8150  137.1586  154.4159 N   0  3  1  0  0  0  0  0  0  0  0  0
  147.5458  136.6536  154.9818 C   0  0  0  0  0  0  0  0  0  0  0  0
  147.0764  135.3639  154.3525 C   0  0  0  0  0  0  0  0  0  0  0  0
  146.3989  136.6707  153.9999 C   0  0  0  0  0  0  0  0  0  0  0  0
  148.9276  138.6296  154.3949 C   0  0  0  0  0  0  0  0  0  0  0  0
  150.3619  142.1613  155.9870 H   0  0  0  0  0  0  0  0  0  0  0  0
  151.2044  144.2387  156.9364 H   0  0  0  0  0  0  0  0  0  0  0  0
  151.9575  145.3464  159.1121 H   0  0  0  0  0  0  0  0  0  0  0  0
  152.5892  141.6910  160.9365 H   0  0  0  0  0  0  0  0  0  0  0  0
  151.8575  140.4134  158.8720 H   0  0  0  0  0  0  0  0  0  0  0  0
  150.7683  138.6927  153.2897 H   0  0  0  0  0  0  0  0  0  0  0  0
  152.0286  137.5529  154.9839 H   0  0  0  0  0  0  0  0  0  0  0  0
  150.9841  138.1506  156.2699 H   0  0  0  0  0  0  0  0  0  0  0  0
  150.4622  135.8463  154.4442 H   0  0  0  0  0  0  0  0  0  0  0  0
  149.8122  136.1857  156.0434 H   0  0  0  0  0  0  0  0  0  0  0  0
  147.3715  136.8512  156.0382 H   0  0  0  0  0  0  0  0  0  0  0  0
  147.7059  134.9028  153.5933 H   0  0  0  0  0  0  0  0  0  0  0  0
  146.5236  134.6698  154.9824 H   0  0  0  0  0  0  0  0  0  0  0  0
  145.4004  136.8389  154.3985 H   0  0  0  0  0  0  0  0  0  0  0  0
  146.5777  137.0791  153.0067 H   0  0  0  0  0  0  0  0  0  0  0  0
  148.5178  139.0397  155.3205 H   0  0  0  0  0  0  0  0  0  0  0  0
  148.3759  139.0607  153.5589 H   0  0  0  0  0  0  0  0  0  0  0  0
  148.8625  136.8618  153.4518 H   0  0  0  0  0  0  0  0  0  0  0  0
  152.5834  144.0057  160.8938 H   0  0  0  0  0  0  0  0  0  0  0  0
  1  2  2  0  0  0  0
  2  3  1  0  0  0  0
  2 10  1  0  0  0  0
  3  4  1  0  0  0  0
  3 19  1  0  0  0  0
  4  9  1  0  0  0  0
  4  5  2  0  0  0  0
  5  6  1  0  0  0  0
  5 20  1  0  0  0  0
  6  7  2  0  0  0  0
  6 21  1  0  0  0  0
  7  8  1  0  0  0  0
  7 37  1  0  0  0  0
  8  9  2  0  0  0  0
  8 22  1  0  0  0  0
  9 23  1  0  0  0  0
 10 11  1  0  0  0  0
 11 18  1  0  0  0  0
 11 12  1  0  0  0  0
 11 24  1  0  0  0  0
 12 13  1  0  0  0  0
 12 25  1  0  0  0  0
 12 26  1  0  0  0  0
 13 14  1  0  0  0  0
 13 27  1  0  0  0  0
 13 28  1  0  0  0  0
 14 15  1  0  0  0  0
 14 18  1  0  0  0  0
 14 36  1  0  0  0  0
 15 17  1  0  0  0  0
 15 16  1  0  0  0  0
 15 29  1  0  0  0  0
 16 17  1  0  0  0  0
 16 30  1  0  0  0  0
 16 31  1  0  0  0  0
 17 32  1  0  0  0  0
 17 33  1  0  0  0  0
 18 34  1  0  0  0  0
 18 35  1  0  0  0  0
M  CHG  1   7   1
M  CHG  1  10  -1
M  CHG  1  14   1
M  END
> <s_m_source_file>
AV-unprocessed.smi

> <i_m_source_file_index>
3234

> <i_lp_mmshare_version>
43012

> <i_f3d_flags>
0

> <s_epik_input>
W2NIXTFbY0hdbltjSF1bY0hdYzFbTkhdQyg9TylbTkhdW0NAQEhdMltDSDJdW0NIMl1OKFtDSDJdMilbQ0hdM1tDSDJdW0NIMl0z

> <s_epik_cmdline>
J2VwaWtfcHl0aG9uJywgJy1waCcsICc3LjAnLCAnLXRuJywgJzgnLCAnLW1hJywgJzIwMCcsICctbWV0YWxfYmluZGluZycsICctaW1hZScsICc8aW5maWxlLm1hZT4nLCAnLW9tYWUnLCAnPG91dGZpbGUubWFlPic=

> <r_epik_Ionization_Penalty>
8.3234

> <r_epik_Ionization_Penalty_Charging>
8.3234

> <r_epik_Ionization_Penalty_Neutral>
3.58513e-06

> <r_epik_State_Penalty>
7.99376

> <r_epik_Charging_Adjusted_Penalty>
16.3172

> <i_epik_Tot_Q>
1

> <i_epik_Tot_abs_Q>
3

> <r_epik_Metal_State_Penalty>
3.98956

> <b_epik_Metal_Only>
1

> <s_lp_Force_Field>
OPLS_2005

> <r_lp_Energy>
39.5194

> <b_lp_Chiralities_Consistent>
1

> <s_lp_Variant>
AV-unprocessed.smi:3234-10

> <Gold.Version>
5.8.1

> <Gold.Id.Protein>
6NUR|6NUR_protein|mol2

> <Gold.PLP.Fitness>
43.2534

> <Gold.PLP.PLP>
-32.3717

> <Gold.PLP.part.hbond>
-3.0000

> <Gold.PLP.part.metal>
0.0000

> <Gold.PLP.part.buried>
-4.0081

> <Gold.PLP.part.nonpolar>
-24.3540

> <Gold.PLP.part.repulsive>
0.2244

> <Gold.PLP.ligand.clash>
0.0000

> <Gold.PLP.ligand.torsion>
1.1989

> <Gold.PLP.Chemscore.Hbond>
4.0000

> <Gold.PLP.Chemscore.CHOScore>
0.0000

> <Gold.PLP.Chemscore.Metal>
0.0000

> <Gold.Chemscore.Hbonds>
donor molecule, donor type, donor heavy atom, donor atom, acceptor molecule, acceptor atom, score
      L1  H    14    36       P1  7948  2.00
      P1  H  7989  7998       L1    10  1.00
      P1  H  7997  8008       L1     1  1.00

> <Gold.PLP.Chemscore.Internal.Correction>
1.2796

> <Gold.Rescore>
     Score         DG    S(hbond)    S(metal)    S(lipo)     H(rot)  DE(clash)    DE(int)     intcor
     16.54     -20.40       2.52        0.00      81.99       1.21       0.11       3.75       ----

> <Gold.Chemscore.Fitness>
16.5407

> <Gold.Chemscore.DG>
-20.3991

> <Gold.Chemscore.ZeroCoef>
-5.4800

> <Gold.Chemscore.Hbond>
2.5228

> <Gold.Chemscore.Metal>
0.0000

> <Gold.Chemscore.Lipo>
81.9890

> <Gold.Chemscore.Internal_Hbond>
0.0000

> <Gold.Chemscore.DEClash>
0.1115

> <Gold.Chemscore.DEInternal>
3.7469

> <Gold.Chemscore.Rot>
1.2108

> <Gold.Chemscore.Internal.Correction>
   9.000000E+99

> <Gold.Chemscore.Hbonds>
donor molecule, donor type, donor heavy atom, donor atom, acceptor molecule, acceptor atom, score
      L1  H    14    36       P1  7948  1.00
      P1  H  7989  7998       L1    10  0.29
      P1  H  7997  8008       L1     1  0.99

> <Gold.Chemscore.Hbond.Weighted>
-8.4260

> <Gold.Chemscore.Metal.Weighted>
-0.0000

> <Gold.Chemscore.Lipo.Weighted>
-9.5927

> <Gold.Chemscore.Internal_Hbond.Weighted>
0.0000

> <Gold.Chemscore.DEClash.Weighted>
0.1115

> <Gold.Chemscore.DEInternal.Weighted>
3.7469

> <Gold.Chemscore.Rot.Weighted>
3.0996

> <Gold.Chemscore.Internal.Correction.Weighted>
   9.000000E+99

> <Gold.Protein.RotatedTorsions>
[ 6907 6896 6895 6894 ] final   -8.19 input  -60.11 | X-H torsion
[ 7974 7965 7964 7962 ] final  111.73 input  175.53 | X-H torsion
[ 8008 7997 7996 7995 ] final  -40.72 input   59.86 | X-H torsion
[ 10167 10162 10161 10158 ] final  -76.90 input  -65.29 | X-H torsion
[ 10718 10713 10712 10709 ] final  133.41 input   66.30 | X-H torsion
[ 10763 10752 10751 10750 ] final  -11.12 input  -60.55 | X-H torsion
[ 11005 11000 10999 10996 ] final -134.55 input  -57.11 | X-H torsion

> <Gold.Protein.ActiveResidues>
 VAL166  LYS551  ARG553  GLY616  TRP617  ASP618  TYR619  PRO620  LYS621  CYS622 
 ASP623  PHE694  ASN695  SER759  ASP760  ASP761  ALA762  ILE779  LEU786  VAL792 
 PHE793  MET794  SER795  GLU796  ALA797  LYS798  CYS799  TRP800  GLU811  SER814 

> <Gold.Protein.RotatedAtoms>
  151.4376  135.1016  159.9660 H   0  0  0  0  0  0  0  0  0  0  0  0  # atno 6907 bound_to 6896
  152.4934  133.8559  159.7236 H   0  0  0  0  0  0  0  0  0  0  0  0  # atno 6908 bound_to 6896
  150.9111  133.6938  159.2882 H   0  0  0  0  0  0  0  0  0  0  0  0  # atno 6909 bound_to 6896
  145.2386  139.2788  143.4130 H   0  0  0  0  0  0  0  0  0  0  0  0  # atno 7974 bound_to 7965
  154.4009  140.1518  156.3073 H   0  0  0  0  0  0  0  0  0  0  0  0  # atno 8008 bound_to 7997
  155.8647  140.3452  155.5758 H   0  0  0  0  0  0  0  0  0  0  0  0  # atno 8009 bound_to 7997
  155.7841  140.0847  157.2034 H   0  0  0  0  0  0  0  0  0  0  0  0  # atno 8010 bound_to 7997
  140.4817  143.2401  151.8048 H   0  0  0  0  0  0  0  0  0  0  0  0  # atno 10167 bound_to 10162
  157.4775  131.1084  150.9724 H   0  0  0  0  0  0  0  0  0  0  0  0  # atno 10718 bound_to 10713
  153.4792  135.7017  153.5948 H   0  0  0  0  0  0  0  0  0  0  0  0  # atno 10763 bound_to 10752
  153.4169  135.3835  155.2086 H   0  0  0  0  0  0  0  0  0  0  0  0  # atno 10764 bound_to 10752
  154.8722  135.3918  154.4239 H   0  0  0  0  0  0  0  0  0  0  0  0  # atno 10765 bound_to 10752
  140.8980  134.1727  157.4481 H   0  0  0  0  0  0  0  0  0  0  0  0  # atno 11005 bound_to 11000
  146.3334  140.2742  142.8607 LP  0  0  0  0  0  0  0  0  0  0  0  0  # atno 17320 bound_to 7965
  144.9610  140.8275  143.5513 LP  0  0  0  0  0  0  0  0  0  0  0  0  # atno 17321 bound_to 7965
  139.4834  144.4764  151.9361 LP  0  0  0  0  0  0  0  0  0  0  0  0  # atno 17342 bound_to 10162
  140.3850  144.2688  150.5905 LP  0  0  0  0  0  0  0  0  0  0  0  0  # atno 17343 bound_to 10162
  157.0468  130.5771  149.5364 LP  0  0  0  0  0  0  0  0  0  0  0  0  # atno 17370 bound_to 10713
  156.0104  130.5195  150.7971 LP  0  0  0  0  0  0  0  0  0  0  0  0  # atno 17371 bound_to 10713
  139.8738  134.9886  156.5420 LP  0  0  0  0  0  0  0  0  0  0  0  0  # atno 17394 bound_to 11000
  140.8265  133.8312  155.8944 LP  0  0  0  0  0  0  0  0  0  0  0  0  # atno 17395 bound_to 11000

$$$$
