AV-unprocessed.smi:197|AV-procd|sdf|1548|dock1
  -GOLD-   2262019413D 1   1.00000     0.00000
 Structure written by MMmdl.
 54 57  0  0  0  0  0  0  0  0  1 V2000
  152.3799  144.6741  158.6116 C   0  0  0  0  0  0  0  0  0  0  0  0
  151.2850  144.2492  159.4084 O   0  0  0  0  0  0  0  0  0  0  0  0
  150.5170  143.1983  158.8359 C   0  0  0  0  0  0  0  0  0  0  0  0
  151.3997  142.0913  158.2282 C   0  0  0  0  0  0  0  0  0  0  0  0
  152.1248  141.2043  159.2751 C   0  0  2  0  0  0  0  0  0  0  0  0
  153.0228  142.0544  160.2051 C   0  0  0  0  0  0  0  0  0  0  0  0
  153.7057  141.2246  161.1380 O   0  0  0  0  0  0  0  0  0  0  0  0
  154.5629  140.2931  160.4920 C   0  0  0  0  0  0  0  0  0  0  0  0
  153.7160  139.3707  159.6057 C   0  0  0  0  0  0  0  0  0  0  0  0
  152.9442  140.1570  158.6505 N   0  0  0  0  0  0  0  0  0  0  0  0
  152.3265  139.3495  157.7588 C   0  0  0  0  0  0  0  0  0  0  0  0
  152.7370  139.4321  156.4696 N   0  0  0  0  0  0  0  0  0  0  0  0
  152.1587  138.6726  155.5345 C   0  0  0  0  0  0  0  0  0  0  0  0
  151.1751  137.7812  155.6732 N   0  0  0  0  0  0  0  0  0  0  0  0
  150.7713  137.6840  156.9725 C   0  0  0  0  0  0  0  0  0  0  0  0
  151.2892  138.4247  158.0721 C   0  0  0  0  0  0  0  0  0  0  0  0
  150.6327  138.0573  159.2406 N   0  0  0  0  0  0  0  0  0  0  0  0
  149.7667  137.1623  158.8517 C   0  0  0  0  0  0  0  0  0  0  0  0
  149.7892  136.8678  157.5070 N   0  0  0  0  0  0  0  0  0  0  0  0
  148.9363  135.9168  156.8093 C   0  0  0  0  0  0  0  0  0  0  0  0
  149.5272  134.4853  156.6935 C   0  0  1  0  0  0  0  0  0  0  0  0
  149.8856  134.0393  157.9900 O   0  0  0  0  0  0  0  0  0  0  0  0
  148.5688  133.4688  156.0789 C   0  0  0  0  0  0  0  0  0  0  0  0
  148.8461  133.6179  154.5924 C   0  0  0  0  0  0  0  0  0  0  0  0
  150.2572  133.7476  154.5454 O   0  0  0  0  0  0  0  0  0  0  0  0
  150.7176  134.4553  155.6964 C   0  0  2  0  0  0  0  0  0  0  0  0
  151.9928  133.7477  156.1854 C   0  0  0  0  0  0  0  0  0  0  0  0
  152.9342  145.4474  159.1429 H   0  0  0  0  0  0  0  0  0  0  0  0
  152.0548  145.0981  157.6620 H   0  0  0  0  0  0  0  0  0  0  0  0
  153.0652  143.8497  158.4110 H   0  0  0  0  0  0  0  0  0  0  0  0
  149.8385  142.7789  159.5801 H   0  0  0  0  0  0  0  0  0  0  0  0
  149.8780  143.6291  158.0659 H   0  0  0  0  0  0  0  0  0  0  0  0
  150.7721  141.4865  157.5755 H   0  0  0  0  0  0  0  0  0  0  0  0
  152.1398  142.5469  157.5695 H   0  0  0  0  0  0  0  0  0  0  0  0
  151.3759  140.7168  159.8990 H   0  0  0  0  0  0  0  0  0  0  0  0
  153.7449  142.6355  159.6288 H   0  0  0  0  0  0  0  0  0  0  0  0
  152.4262  142.7653  160.7754 H   0  0  0  0  0  0  0  0  0  0  0  0
  155.3183  140.8166  159.9036 H   0  0  0  0  0  0  0  0  0  0  0  0
  155.0907  139.7109  161.2474 H   0  0  0  0  0  0  0  0  0  0  0  0
  154.3649  138.6698  159.0784 H   0  0  0  0  0  0  0  0  0  0  0  0
  153.0395  138.7805  160.2258 H   0  0  0  0  0  0  0  0  0  0  0  0
  152.5382  138.7970  154.5310 H   0  0  0  0  0  0  0  0  0  0  0  0
  149.0874  136.6832  159.5418 H   0  0  0  0  0  0  0  0  0  0  0  0
  147.9757  135.8893  157.3250 H   0  0  0  0  0  0  0  0  0  0  0  0
  148.7295  136.3150  155.8147 H   0  0  0  0  0  0  0  0  0  0  0  0
  149.1279  134.1084  158.5505 H   0  0  0  0  0  0  0  0  0  0  0  0
  148.8396  132.4565  156.3839 H   0  0  0  0  0  0  0  0  0  0  0  0
  147.5210  133.6141  156.3363 H   0  0  0  0  0  0  0  0  0  0  0  0
  148.5032  132.7623  154.0106 H   0  0  0  0  0  0  0  0  0  0  0  0
  148.3778  134.5182  154.1922 H   0  0  0  0  0  0  0  0  0  0  0  0
  150.9785  135.4689  155.3886 H   0  0  0  0  0  0  0  0  0  0  0  0
  152.4202  134.2541  157.0514 H   0  0  0  0  0  0  0  0  0  0  0  0
  152.7529  133.7386  155.4041 H   0  0  0  0  0  0  0  0  0  0  0  0
  151.7918  132.7123  156.4621 H   0  0  0  0  0  0  0  0  0  0  0  0
  1  2  1  0  0  0  0
  1 28  1  0  0  0  0
  1 29  1  0  0  0  0
  1 30  1  0  0  0  0
  2  3  1  0  0  0  0
  3  4  1  0  0  0  0
  3 31  1  0  0  0  0
  3 32  1  0  0  0  0
  4  5  1  0  0  0  0
  4 33  1  0  0  0  0
  4 34  1  0  0  0  0
  5 10  1  0  0  0  0
  5  6  1  0  0  0  0
  5 35  1  0  0  0  0
  6  7  1  0  0  0  0
  6 36  1  0  0  0  0
  6 37  1  0  0  0  0
  7  8  1  0  0  0  0
  8  9  1  0  0  0  0
  8 38  1  0  0  0  0
  8 39  1  0  0  0  0
  9 10  1  0  0  0  0
  9 40  1  0  0  0  0
  9 41  1  0  0  0  0
 10 11  1  0  0  0  0
 11 16  1  0  0  0  0
 11 12  2  0  0  0  0
 12 13  1  0  0  0  0
 13 14  2  0  0  0  0
 13 42  1  0  0  0  0
 14 15  1  0  0  0  0
 15 19  1  0  0  0  0
 15 16  2  0  0  0  0
 16 17  1  0  0  0  0
 17 18  2  0  0  0  0
 18 19  1  0  0  0  0
 18 43  1  0  0  0  0
 19 20  1  0  0  0  0
 20 21  1  0  0  0  0
 20 44  1  0  0  0  0
 20 45  1  0  0  0  0
 21 26  1  0  0  0  0
 21 22  1  0  0  0  0
 21 23  1  0  0  0  0
 22 46  1  0  0  0  0
 23 24  1  0  0  0  0
 23 47  1  0  0  0  0
 23 48  1  0  0  0  0
 24 25  1  0  0  0  0
 24 49  1  0  0  0  0
 24 50  1  0  0  0  0
 25 26  1  0  0  0  0
 26 27  1  0  0  0  0
 26 51  1  0  0  0  0
 27 52  1  0  0  0  0
 27 53  1  0  0  0  0
 27 54  1  0  0  0  0
M  END
> <s_m_source_file>
AV-unprocessed.smi

> <i_m_source_file_index>
197

> <i_lp_mmshare_version>
43012

> <i_f3d_flags>
0

> <s_epik_input>
W0NIM11PW0NIMl1bQ0gyXVtDQEBIXTFbQ0gyXU9bQ0gyXVtDSDJdTjFjKG5bY0hdbjIpYyhjMjMpbltjSF1uM1tDSDJdW0NAQF00KFtPSF0pW0NIMl1bQ0gyXU9bQ0BIXTRbQ0gzXQ==

> <s_epik_cmdline>
J2VwaWtfcHl0aG9uJywgJy1waCcsICc3LjAnLCAnLXRuJywgJzgnLCAnLW1hJywgJzIwMCcsICctbWV0YWxfYmluZGluZycsICctaW1hZScsICc8aW5maWxlLm1hZT4nLCAnLW9tYWUnLCAnPG91dGZpbGUubWFlPic=

> <r_lp_tautomer_probability>
1

> <r_epik_Ionization_Penalty>
0.000106218

> <r_epik_Ionization_Penalty_Charging>
0

> <r_epik_Ionization_Penalty_Neutral>
0.000106218

> <r_epik_State_Penalty>
-0

> <r_epik_Charging_Adjusted_Penalty>
0

> <i_epik_Tot_Q>
0

> <i_epik_Tot_abs_Q>
0

> <r_epik_Metal_State_Penalty>
-0

> <b_epik_Metal_Only>
0

> <s_lp_Force_Field>
OPLS_2005

> <r_lp_Energy>
44.1389

> <b_lp_Chiralities_Consistent>
1

> <s_lp_Variant>
AV-unprocessed.smi:197-5

> <Gold.Version>
5.8.1

> <Gold.Id.Protein>
6NUR|6NUR_protein|mol2

> <Gold.PLP.Fitness>
42.4981

> <Gold.PLP.PLP>
-37.3303

> <Gold.PLP.part.hbond>
-3.2225

> <Gold.PLP.part.metal>
0.0000

> <Gold.PLP.part.buried>
-7.9932

> <Gold.PLP.part.nonpolar>
-25.5300

> <Gold.PLP.part.repulsive>
0.2139

> <Gold.PLP.ligand.clash>
0.0000

> <Gold.PLP.ligand.torsion>
0.5925

> <Gold.PLP.Chemscore.Hbond>
2.0000

> <Gold.PLP.Chemscore.CHOScore>
0.0000

> <Gold.PLP.Chemscore.Metal>
0.0000

> <Gold.Chemscore.Hbonds>
donor molecule, donor type, donor heavy atom, donor atom, acceptor molecule, acceptor atom, score
      P1  H  6896  6908       L1    22  0.40
      P1  H  7997  8008       L1    12  1.00

> <Gold.PLP.Chemscore.Internal.Correction>
0.3528

> <Gold.Rescore>
     Score         DG    S(hbond)    S(metal)    S(lipo)     H(rot)  DE(clash)    DE(int)     intcor
     13.49     -15.48       1.87        0.00      94.03       2.84       0.13       1.86       ----

> <Gold.Chemscore.Fitness>
13.4919

> <Gold.Chemscore.DG>
-15.4829

> <Gold.Chemscore.ZeroCoef>
-5.4800

> <Gold.Chemscore.Hbond>
1.8744

> <Gold.Chemscore.Metal>
0.0000

> <Gold.Chemscore.Lipo>
94.0327

> <Gold.Chemscore.Internal_Hbond>
0.0000

> <Gold.Chemscore.DEClash>
0.1263

> <Gold.Chemscore.DEInternal>
1.8647

> <Gold.Chemscore.Rot>
2.8358

> <Gold.Chemscore.Internal.Correction>
   9.000000E+99

> <Gold.Chemscore.Hbonds>
donor molecule, donor type, donor heavy atom, donor atom, acceptor molecule, acceptor atom, score
      P1  H  6896  6908       L1    22  0.01
      P1  H  7997  8008       L1    12  0.30

> <Gold.Chemscore.Hbond.Weighted>
-6.2606

> <Gold.Chemscore.Metal.Weighted>
-0.0000

> <Gold.Chemscore.Lipo.Weighted>
-11.0018

> <Gold.Chemscore.Internal_Hbond.Weighted>
0.0000

> <Gold.Chemscore.DEClash.Weighted>
0.1263

> <Gold.Chemscore.DEInternal.Weighted>
1.8647

> <Gold.Chemscore.Rot.Weighted>
7.2596

> <Gold.Chemscore.Internal.Correction.Weighted>
   9.000000E+99

> <Gold.Protein.RotatedTorsions>
[ 6907 6896 6895 6894 ] final  125.30 input  -60.11 | X-H torsion
[ 7974 7965 7964 7962 ] final  133.45 input  175.53 | X-H torsion
[ 8008 7997 7996 7995 ] final  -64.57 input   59.86 | X-H torsion
[ 10167 10162 10161 10158 ] final   85.36 input  -65.29 | X-H torsion
[ 10718 10713 10712 10709 ] final  118.68 input   66.30 | X-H torsion
[ 10763 10752 10751 10750 ] final   52.10 input  -60.55 | X-H torsion
[ 11005 11000 10999 10996 ] final   48.11 input  -57.11 | X-H torsion

> <Gold.Protein.ActiveResidues>
 VAL166  LYS551  ARG553  GLY616  TRP617  ASP618  TYR619  PRO620  LYS621  CYS622 
 ASP623  PHE694  ASN695  SER759  ASP760  ASP761  ALA762  ILE779  LEU786  VAL792 
 PHE793  MET794  SER795  GLU796  ALA797  LYS798  CYS799  TRP800  GLU811  SER814 

> <Gold.Protein.RotatedAtoms>
  152.4004  133.6809  159.6311 H   0  0  0  0  0  0  0  0  0  0  0  0  # atno 6907 bound_to 6896
  150.7896  133.8801  159.3292 H   0  0  0  0  0  0  0  0  0  0  0  0  # atno 6908 bound_to 6896
  151.6568  135.0996  160.0223 H   0  0  0  0  0  0  0  0  0  0  0  0  # atno 6909 bound_to 6896
  144.9864  139.4451  143.5361 H   0  0  0  0  0  0  0  0  0  0  0  0  # atno 7974 bound_to 7965
  154.4619  140.0951  156.6917 H   0  0  0  0  0  0  0  0  0  0  0  0  # atno 8008 bound_to 7997
  155.4969  140.3472  155.4346 H   0  0  0  0  0  0  0  0  0  0  0  0  # atno 8009 bound_to 7997
  156.0886  140.1391  156.9609 H   0  0  0  0  0  0  0  0  0  0  0  0  # atno 8010 bound_to 7997
  139.8986  144.6343  150.8661 H   0  0  0  0  0  0  0  0  0  0  0  0  # atno 10167 bound_to 10162
  157.6014  131.1050  150.7790 H   0  0  0  0  0  0  0  0  0  0  0  0  # atno 10718 bound_to 10713
  152.9787  135.5823  154.4524 H   0  0  0  0  0  0  0  0  0  0  0  0  # atno 10763 bound_to 10752
  154.4111  135.2770  155.2038 H   0  0  0  0  0  0  0  0  0  0  0  0  # atno 10764 bound_to 10752
  154.3828  135.6143  153.5854 H   0  0  0  0  0  0  0  0  0  0  0  0  # atno 10765 bound_to 10752
  140.1220  134.4818  155.8590 H   0  0  0  0  0  0  0  0  0  0  0  0  # atno 11005 bound_to 11000
  146.3421  139.9168  142.8772 LP  0  0  0  0  0  0  0  0  0  0  0  0  # atno 17320 bound_to 7965
  145.2348  140.9987  143.3970 LP  0  0  0  0  0  0  0  0  0  0  0  0  # atno 17321 bound_to 7965
  140.7711  143.3454  151.2122 LP  0  0  0  0  0  0  0  0  0  0  0  0  # atno 17342 bound_to 10162
  139.7045  143.9477  152.2921 LP  0  0  0  0  0  0  0  0  0  0  0  0  # atno 17343 bound_to 10162
  156.8188  130.4977  149.5346 LP  0  0  0  0  0  0  0  0  0  0  0  0  # atno 17370 bound_to 10713
  156.1088  130.6024  151.0014 LP  0  0  0  0  0  0  0  0  0  0  0  0  # atno 17371 bound_to 10713
  141.2153  133.6764  156.6906 LP  0  0  0  0  0  0  0  0  0  0  0  0  # atno 17394 bound_to 11000
  140.2953  134.8207  157.4052 LP  0  0  0  0  0  0  0  0  0  0  0  0  # atno 17395 bound_to 11000

$$$$
