AV-unprocessed.smi:21|AV-procd|sdf|143|dock5
  -GOLD-   2262015353D 1   1.00000     0.00000
 Structure written by MMmdl.
 62 65  0  0  0  0  0  0  0  0  2 V2000
  143.6200  132.7151  148.3074 C   0  0  0  0  0  0  0  0  0  0  0  0
  144.5117  132.6481  149.4091 O   0  0  0  0  0  0  0  0  0  0  0  0
  144.0842  131.7678  150.4403 C   0  0  1  0  0  0  0  0  0  0  0  0
  145.2917  131.4129  151.2978 C   0  0  0  0  0  0  0  0  0  0  0  0
  145.3986  132.5847  152.2784 C   0  0  2  0  0  0  0  0  0  0  0  0
  146.1508  132.2477  153.5834 C   0  0  0  0  0  0  0  0  0  0  0  0
  147.6049  132.3147  153.4345 N   0  0  0  0  0  0  0  0  0  0  0  0
  148.1830  133.4779  152.7741 C   0  0  0  0  0  0  0  0  0  0  0  0
  148.3138  131.1555  153.4834 C   0  0  0  0  0  0  0  0  0  0  0  0
  147.8035  130.0738  152.8386 N   0  0  0  0  0  0  0  0  0  0  0  0
  148.4586  128.9101  152.8399 C   0  0  0  0  0  0  0  0  0  0  0  0
  149.6298  128.6155  153.4035 N   0  0  0  0  0  0  0  0  0  0  0  0
  150.1600  129.6966  154.0425 C   0  0  0  0  0  0  0  0  0  0  0  0
  149.5704  130.9904  154.1404 C   0  0  0  0  0  0  0  0  0  0  0  0
  150.4100  131.8283  154.8654 N   0  0  0  0  0  0  0  0  0  0  0  0
  151.4258  131.0751  155.1833 C   0  0  0  0  0  0  0  0  0  0  0  0
  151.3703  129.7837  154.7106 N   0  0  0  0  0  0  0  0  0  0  0  0
  152.3675  128.7391  154.9026 C   0  0  0  0  0  0  0  0  0  0  0  0
  153.6180  129.1834  155.7118 C   0  0  1  0  0  0  0  0  0  0  0  0
  154.5930  128.0109  155.9721 C   0  0  0  0  0  0  0  0  0  0  0  0
  153.9942  127.0328  156.7962 O   0  0  0  0  0  0  0  0  0  0  0  0
  154.3449  130.3916  155.0637 C   0  0  2  0  0  0  0  0  0  0  0  0
  154.8605  130.1544  153.6536 C   0  0  0  0  0  0  0  0  0  0  0  0
  155.9034  131.2563  153.4879 C   0  0  0  0  0  0  0  0  0  0  0  0
  156.3887  131.5377  154.7960 O   0  0  0  0  0  0  0  0  0  0  0  0
  155.6534  130.7878  155.7553 C   0  0  0  0  0  0  0  0  0  0  0  0
  143.9963  132.9788  152.5458 N   0  3  1  0  0  0  0  0  0  0  0  0
  143.8171  134.4171  152.8422 C   0  0  0  0  0  0  0  0  0  0  0  0
  143.1545  132.4930  151.4254 C   0  0  0  0  0  0  0  0  0  0  0  0
  143.6301  130.8696  150.0179 H   0  0  0  0  0  0  0  0  0  0  0  0
  145.8944  133.4114  151.7661 H   0  0  0  0  0  0  0  0  0  0  0  0
  144.0090  133.4148  147.5678 H   0  0  0  0  0  0  0  0  0  0  0  0
  142.6301  133.0610  148.6052 H   0  0  0  0  0  0  0  0  0  0  0  0
  143.5182  131.7423  147.8248 H   0  0  0  0  0  0  0  0  0  0  0  0
  145.0922  130.4874  151.8400 H   0  0  0  0  0  0  0  0  0  0  0  0
  146.1974  131.2645  150.7087 H   0  0  0  0  0  0  0  0  0  0  0  0
  145.8696  132.9621  154.3575 H   0  0  0  0  0  0  0  0  0  0  0  0
  145.8327  131.2754  153.9604 H   0  0  0  0  0  0  0  0  0  0  0  0
  149.2383  133.5875  153.0267 H   0  0  0  0  0  0  0  0  0  0  0  0
  147.6722  134.3876  153.0902 H   0  0  0  0  0  0  0  0  0  0  0  0
  148.0877  133.3967  151.6909 H   0  0  0  0  0  0  0  0  0  0  0  0
  147.9771  128.1005  152.3114 H   0  0  0  0  0  0  0  0  0  0  0  0
  152.2520  131.4512  155.7676 H   0  0  0  0  0  0  0  0  0  0  0  0
  151.8821  127.8931  155.3893 H   0  0  0  0  0  0  0  0  0  0  0  0
  152.6673  128.3714  153.9208 H   0  0  0  0  0  0  0  0  0  0  0  0
  153.2578  129.5167  156.6865 H   0  0  0  0  0  0  0  0  0  0  0  0
  154.9269  127.5549  155.0402 H   0  0  0  0  0  0  0  0  0  0  0  0
  155.4871  128.3529  156.4917 H   0  0  0  0  0  0  0  0  0  0  0  0
  153.2213  126.7046  156.3626 H   0  0  0  0  0  0  0  0  0  0  0  0
  153.6802  131.2562  155.0370 H   0  0  0  0  0  0  0  0  0  0  0  0
  155.3382  129.1760  153.5829 H   0  0  0  0  0  0  0  0  0  0  0  0
  154.0812  130.2091  152.8929 H   0  0  0  0  0  0  0  0  0  0  0  0
  156.7121  130.9620  152.8185 H   0  0  0  0  0  0  0  0  0  0  0  0
  155.4440  132.1608  153.0876 H   0  0  0  0  0  0  0  0  0  0  0  0
  155.5006  131.3670  156.6648 H   0  0  0  0  0  0  0  0  0  0  0  0
  156.2343  129.9023  156.0167 H   0  0  0  0  0  0  0  0  0  0  0  0
  144.1040  135.0321  151.9881 H   0  0  0  0  0  0  0  0  0  0  0  0
  144.4230  134.7150  153.6979 H   0  0  0  0  0  0  0  0  0  0  0  0
  142.7744  134.6288  153.0811 H   0  0  0  0  0  0  0  0  0  0  0  0
  142.5865  133.2932  150.9498 H   0  0  0  0  0  0  0  0  0  0  0  0
  142.4308  131.7903  151.8393 H   0  0  0  0  0  0  0  0  0  0  0  0
  143.7016  132.4634  153.3630 H   0  0  0  0  0  0  0  0  0  0  0  0
  1  2  1  0  0  0  0
  1 32  1  0  0  0  0
  1 33  1  0  0  0  0
  1 34  1  0  0  0  0
  2  3  1  0  0  0  0
  3 30  1  0  0  0  0
  3 29  1  0  0  0  0
  3  4  1  0  0  0  0
  4  5  1  0  0  0  0
  4 35  1  0  0  0  0
  4 36  1  0  0  0  0
  5 31  1  0  0  0  0
  5  6  1  0  0  0  0
  5 27  1  0  0  0  0
  6  7  1  0  0  0  0
  6 37  1  0  0  0  0
  6 38  1  0  0  0  0
  7  8  1  0  0  0  0
  7  9  1  0  0  0  0
  8 39  1  0  0  0  0
  8 40  1  0  0  0  0
  8 41  1  0  0  0  0
  9 14  1  0  0  0  0
  9 10  2  0  0  0  0
 10 11  1  0  0  0  0
 11 12  2  0  0  0  0
 11 42  1  0  0  0  0
 12 13  1  0  0  0  0
 13 17  1  0  0  0  0
 13 14  2  0  0  0  0
 14 15  1  0  0  0  0
 15 16  2  0  0  0  0
 16 17  1  0  0  0  0
 16 43  1  0  0  0  0
 17 18  1  0  0  0  0
 18 19  1  0  0  0  0
 18 44  1  0  0  0  0
 18 45  1  0  0  0  0
 19 20  1  0  0  0  0
 19 22  1  0  0  0  0
 19 46  1  0  0  0  0
 20 21  1  0  0  0  0
 20 47  1  0  0  0  0
 20 48  1  0  0  0  0
 21 49  1  0  0  0  0
 22 26  1  0  0  0  0
 22 23  1  0  0  0  0
 22 50  1  0  0  0  0
 23 24  1  0  0  0  0
 23 51  1  0  0  0  0
 23 52  1  0  0  0  0
 24 25  1  0  0  0  0
 24 53  1  0  0  0  0
 24 54  1  0  0  0  0
 25 26  1  0  0  0  0
 26 55  1  0  0  0  0
 26 56  1  0  0  0  0
 27 28  1  0  0  0  0
 27 29  1  0  0  0  0
 27 62  1  0  0  0  0
 28 57  1  0  0  0  0
 28 58  1  0  0  0  0
 28 59  1  0  0  0  0
 29 60  1  0  0  0  0
 29 61  1  0  0  0  0
M  CHG  1  27   1
M  END
> <s_m_source_file>
AV-unprocessed.smi

> <i_m_source_file_index>
21

> <i_lp_mmshare_version>
43012

> <i_f3d_flags>
0

> <s_epik_input>
W0NIM11PW0NASF0xW0NIMl1bQ0BIXShOKFtDSDNdKVtDSDJdMSlbQ0gyXU4oW0NIM10pYyhuW2NIXW4yKWMoYzIzKW5bY0hdbjNbQ0gyXVtDQEhdKFtDSDJdW09IXSlbQ0BASF00W0NIMl1bQ0gyXU9bQ0gyXTQ=

> <s_epik_cmdline>
J2VwaWtfcHl0aG9uJywgJy1waCcsICc3LjAnLCAnLXRuJywgJzgnLCAnLW1hJywgJzIwMCcsICctbWV0YWxfYmluZGluZycsICctaW1hZScsICc8aW5maWxlLm1hZT4nLCAnLW9tYWUnLCAnPG91dGZpbGUubWFlPic=

> <r_lp_tautomer_probability>
1

> <r_epik_Ionization_Penalty>
0.0157465

> <r_epik_Ionization_Penalty_Charging>
0.015354

> <r_epik_Ionization_Penalty_Neutral>
0.000392529

> <r_epik_State_Penalty>
0.0120612

> <r_epik_Charging_Adjusted_Penalty>
0.0274152

> <i_epik_Tot_Q>
1

> <i_epik_Tot_abs_Q>
1

> <r_epik_Metal_State_Penalty>
0.0121253

> <b_epik_Metal_Only>
0

> <s_lp_Force_Field>
OPLS_2005

> <r_lp_Energy>
58.9185

> <b_lp_Chiralities_Consistent>
1

> <s_lp_Variant>
AV-unprocessed.smi:21-23

> <Gold.Version>
5.8.1

> <Gold.Id.Protein>
6NUR|6NUR_protein|mol2

> <Gold.PLP.Fitness>
48.9592

> <Gold.PLP.PLP>
-45.3709

> <Gold.PLP.part.hbond>
-1.0000

> <Gold.PLP.part.metal>
0.0000

> <Gold.PLP.part.buried>
-4.1894

> <Gold.PLP.part.nonpolar>
-40.0289

> <Gold.PLP.part.repulsive>
1.1825

> <Gold.PLP.ligand.clash>
0.0000

> <Gold.PLP.ligand.torsion>
1.5830

> <Gold.PLP.Chemscore.Hbond>
2.0000

> <Gold.PLP.Chemscore.CHOScore>
0.0000

> <Gold.PLP.Chemscore.Metal>
0.0000

> <Gold.Chemscore.Hbonds>
donor molecule, donor type, donor heavy atom, donor atom, acceptor molecule, acceptor atom, score
      L1  H    27    62       P1 10957  1.80

> <Gold.PLP.Chemscore.Internal.Correction>
0.7544

> <Gold.Rescore>
     Score         DG    S(hbond)    S(metal)    S(lipo)     H(rot)  DE(clash)    DE(int)     intcor
      8.49     -11.12       0.87        0.00      90.66       3.08       0.20       2.42       ----

> <Gold.Chemscore.Fitness>
8.4946

> <Gold.Chemscore.DG>
-11.1153

> <Gold.Chemscore.ZeroCoef>
-5.4800

> <Gold.Chemscore.Hbond>
0.8690

> <Gold.Chemscore.Metal>
0.0000

> <Gold.Chemscore.Lipo>
90.6587

> <Gold.Chemscore.Internal_Hbond>
0.0000

> <Gold.Chemscore.DEClash>
0.1963

> <Gold.Chemscore.DEInternal>
2.4244

> <Gold.Chemscore.Rot>
3.0758

> <Gold.Chemscore.Internal.Correction>
   9.000000E+99

> <Gold.Chemscore.Hbonds>
donor molecule, donor type, donor heavy atom, donor atom, acceptor molecule, acceptor atom, score
      L1  H    27    62       P1 10957  0.18

> <Gold.Chemscore.Hbond.Weighted>
-2.9023

> <Gold.Chemscore.Metal.Weighted>
-0.0000

> <Gold.Chemscore.Lipo.Weighted>
-10.6071

> <Gold.Chemscore.Internal_Hbond.Weighted>
0.0000

> <Gold.Chemscore.DEClash.Weighted>
0.1963

> <Gold.Chemscore.DEInternal.Weighted>
2.4244

> <Gold.Chemscore.Rot.Weighted>
7.8741

> <Gold.Chemscore.Internal.Correction.Weighted>
   9.000000E+99

> <Gold.Protein.RotatedTorsions>
[ 6907 6896 6895 6894 ] final   53.17 input  -60.11 | X-H torsion
[ 7974 7965 7964 7962 ] final  158.83 input  175.53 | X-H torsion
[ 8008 7997 7996 7995 ] final  148.71 input   59.86 | X-H torsion
[ 10167 10162 10161 10158 ] final  -79.82 input  -65.29 | X-H torsion
[ 10718 10713 10712 10709 ] final  158.81 input   66.30 | X-H torsion
[ 10763 10752 10751 10750 ] final  -85.02 input  -60.55 | X-H torsion
[ 11005 11000 10999 10996 ] final -106.95 input  -57.11 | X-H torsion

> <Gold.Protein.ActiveResidues>
 VAL166  LYS551  ARG553  GLY616  TRP617  ASP618  TYR619  PRO620  LYS621  CYS622 
 ASP623  PHE694  ASN695  SER759  ASP760  ASP761  ALA762  ILE779  LEU786  VAL792 
 PHE793  MET794  SER795  GLU796  ALA797  LYS798  CYS799  TRP800  GLU811  SER814 

> <Gold.Protein.RotatedAtoms>
  152.3309  134.7260  160.0289 H   0  0  0  0  0  0  0  0  0  0  0  0  # atno 6907 bound_to 6896
  151.7677  133.3333  159.3443 H   0  0  0  0  0  0  0  0  0  0  0  0  # atno 6908 bound_to 6896
  150.7422  134.5979  159.6066 H   0  0  0  0  0  0  0  0  0  0  0  0  # atno 6909 bound_to 6896
  144.7824  139.7532  143.6254 H   0  0  0  0  0  0  0  0  0  0  0  0  # atno 7974 bound_to 7965
  156.2781  140.2121  156.5742 H   0  0  0  0  0  0  0  0  0  0  0  0  # atno 8008 bound_to 7997
  154.7111  140.0512  157.0573 H   0  0  0  0  0  0  0  0  0  0  0  0  # atno 8009 bound_to 7997
  155.0605  140.3166  155.4665 H   0  0  0  0  0  0  0  0  0  0  0  0  # atno 8010 bound_to 7997
  140.4558  143.2468  151.8421 H   0  0  0  0  0  0  0  0  0  0  0  0  # atno 10167 bound_to 10162
  157.1728  131.0614  151.2174 H   0  0  0  0  0  0  0  0  0  0  0  0  # atno 10718 bound_to 10713
  154.6062  135.5500  153.7425 H   0  0  0  0  0  0  0  0  0  0  0  0  # atno 10763 bound_to 10752
  153.0175  135.6378  154.1644 H   0  0  0  0  0  0  0  0  0  0  0  0  # atno 10764 bound_to 10752
  154.1582  135.2899  155.3096 H   0  0  0  0  0  0  0  0  0  0  0  0  # atno 10765 bound_to 10752
  141.0979  133.8938  157.1917 H   0  0  0  0  0  0  0  0  0  0  0  0  # atno 11005 bound_to 11000
  146.2039  139.5351  142.9725 LP  0  0  0  0  0  0  0  0  0  0  0  0  # atno 17320 bound_to 7965
  145.6014  141.0354  143.2016 LP  0  0  0  0  0  0  0  0  0  0  0  0  # atno 17321 bound_to 7965
  139.4801  144.5066  151.8989 LP  0  0  0  0  0  0  0  0  0  0  0  0  # atno 17342 bound_to 10162
  140.4152  144.2316  150.5888 LP  0  0  0  0  0  0  0  0  0  0  0  0  # atno 17343 bound_to 10162
  157.4027  130.7342  149.6779 LP  0  0  0  0  0  0  0  0  0  0  0  0  # atno 17370 bound_to 10713
  155.9736  130.4116  150.3991 LP  0  0  0  0  0  0  0  0  0  0  0  0  # atno 17371 bound_to 10713
  139.9821  135.0095  156.9774 LP  0  0  0  0  0  0  0  0  0  0  0  0  # atno 17394 bound_to 11000
  140.5095  134.1016  155.7267 LP  0  0  0  0  0  0  0  0  0  0  0  0  # atno 17395 bound_to 11000

$$$$
