AV-unprocessed.smi:2083|AV-procd|sdf|8504|dock3
  -GOLD-   2272011213D 1   1.00000     0.00000
 Structure written by MMmdl.
 44 45  0  0  0  0  0  0  0  0  3 V2000
  146.1640  133.8483  162.5457 C   0  0  0  0  0  0  0  0  0  0  0  0
  146.8617  134.7757  161.6101 C   0  0  0  0  0  0  0  0  0  0  0  0
  147.1311  136.1141  161.6596 C   0  0  0  0  0  0  0  0  0  0  0  0
  147.8308  136.3498  160.4447 C   0  0  0  0  0  0  0  0  0  0  0  0
  148.2997  137.5329  160.0191 N   0  5  0  0  0  0  0  0  0  0  0  0
  149.3844  137.5874  159.2133 C   0  0  0  0  0  0  0  0  0  0  0  0
  150.2022  136.6851  159.0201 O   0  0  0  0  0  0  0  0  0  0  0  0
  149.5305  138.7638  158.5905 N   0  0  0  0  0  0  0  0  0  0  0  0
  150.6011  139.0983  157.6589 C   0  0  0  0  0  0  0  0  0  0  0  0
  150.4164  140.5085  157.0497 C   0  0  2  0  0  0  0  0  0  0  0  0
  151.1006  140.5845  155.6623 C   0  0  0  0  0  0  0  0  0  0  0  0
  150.8895  141.5460  158.0246 N   0  3  2  0  0  0  0  0  0  0  0  0
  150.9682  142.8972  157.3996 C   0  0  0  0  0  0  0  0  0  0  0  0
  151.2507  143.9889  158.4416 C   0  0  0  0  0  0  0  0  0  0  0  0
  152.5492  143.6931  159.1970 C   0  0  0  0  0  0  0  0  0  0  0  0
  152.4795  142.2948  159.8281 C   0  0  2  0  0  0  0  0  0  0  0  0
  153.7753  141.9557  160.5791 C   0  0  0  0  0  0  0  0  0  0  0  0
  152.1509  141.2309  158.7594 C   0  0  0  0  0  0  0  0  0  0  0  0
  147.9600  135.2547  159.7148 N   0  0  0  0  0  0  0  0  0  0  0  0
  147.3470  134.2391  160.4583 O   0  0  0  0  0  0  0  0  0  0  0  0
  145.1437  134.1839  162.7314 H   0  0  0  0  0  0  0  0  0  0  0  0
  146.6849  133.8028  163.5018 H   0  0  0  0  0  0  0  0  0  0  0  0
  146.1180  132.8382  162.1378 H   0  0  0  0  0  0  0  0  0  0  0  0
  146.8722  136.8127  162.4410 H   0  0  0  0  0  0  0  0  0  0  0  0
  148.8403  139.4767  158.7773 H   0  0  0  0  0  0  0  0  0  0  0  0
  151.5428  139.0116  158.1996 H   0  0  0  0  0  0  0  0  0  0  0  0
  150.6319  138.3573  156.8579 H   0  0  0  0  0  0  0  0  0  0  0  0
  149.3516  140.6758  156.8777 H   0  0  0  0  0  0  0  0  0  0  0  0
  150.7325  139.8103  154.9890 H   0  0  0  0  0  0  0  0  0  0  0  0
  152.1805  140.4558  155.7415 H   0  0  0  0  0  0  0  0  0  0  0  0
  150.9022  141.5306  155.1583 H   0  0  0  0  0  0  0  0  0  0  0  0
  151.7518  142.8994  156.6399 H   0  0  0  0  0  0  0  0  0  0  0  0
  150.0409  143.1440  156.8852 H   0  0  0  0  0  0  0  0  0  0  0  0
  151.3201  144.9608  157.9520 H   0  0  0  0  0  0  0  0  0  0  0  0
  150.4185  144.0536  159.1438 H   0  0  0  0  0  0  0  0  0  0  0  0
  153.3965  143.7538  158.5125 H   0  0  0  0  0  0  0  0  0  0  0  0
  152.7126  144.4496  159.9653 H   0  0  0  0  0  0  0  0  0  0  0  0
  151.6695  142.2971  160.5593 H   0  0  0  0  0  0  0  0  0  0  0  0
  154.6308  141.9285  159.9032 H   0  0  0  0  0  0  0  0  0  0  0  0
  153.7048  140.9827  161.0659 H   0  0  0  0  0  0  0  0  0  0  0  0
  153.9856  142.6949  161.3525 H   0  0  0  0  0  0  0  0  0  0  0  0
  152.0616  140.2777  159.2793 H   0  0  0  0  0  0  0  0  0  0  0  0
  152.9730  141.1380  158.0477 H   0  0  0  0  0  0  0  0  0  0  0  0
  150.1730  141.5959  158.7349 H   0  0  0  0  0  0  0  0  0  0  0  0
  1  2  1  0  0  0  0
  1 21  1  0  0  0  0
  1 22  1  0  0  0  0
  1 23  1  0  0  0  0
  2 20  1  0  0  0  0
  2  3  2  0  0  0  0
  3  4  1  0  0  0  0
  3 24  1  0  0  0  0
  4  5  1  0  0  0  0
  4 19  2  0  0  0  0
  5  6  1  0  0  0  0
  6  7  2  0  0  0  0
  6  8  1  0  0  0  0
  8  9  1  0  0  0  0
  8 25  1  0  0  0  0
  9 10  1  0  0  0  0
  9 26  1  0  0  0  0
  9 27  1  0  0  0  0
 10 11  1  0  0  0  0
 10 12  1  0  0  0  0
 10 28  1  0  0  0  0
 11 29  1  0  0  0  0
 11 30  1  0  0  0  0
 11 31  1  0  0  0  0
 12 18  1  0  0  0  0
 12 13  1  0  0  0  0
 12 44  1  0  0  0  0
 13 14  1  0  0  0  0
 13 32  1  0  0  0  0
 13 33  1  0  0  0  0
 14 15  1  0  0  0  0
 14 34  1  0  0  0  0
 14 35  1  0  0  0  0
 15 16  1  0  0  0  0
 15 36  1  0  0  0  0
 15 37  1  0  0  0  0
 16 17  1  0  0  0  0
 16 18  1  0  0  0  0
 16 38  1  0  0  0  0
 17 39  1  0  0  0  0
 17 40  1  0  0  0  0
 17 41  1  0  0  0  0
 18 42  1  0  0  0  0
 18 43  1  0  0  0  0
 19 20  1  0  0  0  0
M  CHG  1   5  -1
M  CHG  1  12   1
M  END
> <s_m_source_file>
AV-unprocessed.smi

> <i_m_source_file_index>
2083

> <i_lp_mmshare_version>
43012

> <i_f3d_flags>
0

> <s_epik_input>
W0NIM11jMVtjSF1jKG5vMSlbTkhdQyg9TylbTkhdW0NIMl1bQ0BIXShbQ0gzXSlOMltDSDJdW0NIMl1bQ0gyXVtDQEBIXShbQ0gzXSlbQ0gyXTI=

> <s_epik_cmdline>
J2VwaWtfcHl0aG9uJywgJy1waCcsICc3LjAnLCAnLXRuJywgJzgnLCAnLW1hJywgJzIwMCcsICctbWV0YWxfYmluZGluZycsICctaW1hZScsICc8aW5maWxlLm1hZT4nLCAnLW9tYWUnLCAnPG91dGZpbGUubWFlPic=

> <r_epik_Ionization_Penalty>
6.22434

> <r_epik_Ionization_Penalty_Charging>
6.22425

> <r_epik_Ionization_Penalty_Neutral>
9.62407e-05

> <r_epik_State_Penalty>
6.22423

> <r_epik_Charging_Adjusted_Penalty>
12.4485

> <i_epik_Tot_Q>
0

> <i_epik_Tot_abs_Q>
2

> <r_epik_Metal_State_Penalty>
2.16764

> <b_epik_Metal_Only>
1

> <s_lp_Force_Field>
OPLS_2005

> <r_lp_Energy>
11.4066

> <b_lp_Chiralities_Consistent>
1

> <s_lp_Variant>
AV-unprocessed.smi:2083-15

> <Gold.Version>
5.8.1

> <Gold.Id.Protein>
6NUR|6NUR_protein|mol2

> <Gold.PLP.Fitness>
45.4257

> <Gold.PLP.PLP>
-39.1978

> <Gold.PLP.part.hbond>
-3.0000

> <Gold.PLP.part.metal>
0.0000

> <Gold.PLP.part.buried>
-2.8891

> <Gold.PLP.part.nonpolar>
-33.8380

> <Gold.PLP.part.repulsive>
0.2893

> <Gold.PLP.ligand.clash>
0.0000

> <Gold.PLP.ligand.torsion>
0.7791

> <Gold.PLP.Chemscore.Hbond>
2.5600

> <Gold.PLP.Chemscore.CHOScore>
0.0000

> <Gold.PLP.Chemscore.Metal>
0.0000

> <Gold.Chemscore.Hbonds>
donor molecule, donor type, donor heavy atom, donor atom, acceptor molecule, acceptor atom, score
      P1  H  6896  6909       L1     7  0.94
      P1  H  6931  6943       L1     5  0.64
      P1  H  6934  6947       L1     5  0.93

> <Gold.PLP.Chemscore.Internal.Correction>
0.1061

> <Gold.Rescore>
     Score         DG    S(hbond)    S(metal)    S(lipo)     H(rot)  DE(clash)    DE(int)     intcor
     15.89     -17.98       1.44        0.00      98.84       1.52       0.01       2.08       ----

> <Gold.Chemscore.Fitness>
15.8945

> <Gold.Chemscore.DG>
-17.9804

> <Gold.Chemscore.ZeroCoef>
-5.4800

> <Gold.Chemscore.Hbond>
1.4446

> <Gold.Chemscore.Metal>
0.0000

> <Gold.Chemscore.Lipo>
98.8390

> <Gold.Chemscore.Internal_Hbond>
0.0000

> <Gold.Chemscore.DEClash>
0.0069

> <Gold.Chemscore.DEInternal>
2.0790

> <Gold.Chemscore.Rot>
1.5190

> <Gold.Chemscore.Internal.Correction>
   9.000000E+99

> <Gold.Chemscore.Hbonds>
donor molecule, donor type, donor heavy atom, donor atom, acceptor molecule, acceptor atom, score
      P1  H  6896  6909       L1     7  0.88
      P1  H  6931  6943       L1     5  0.03
      P1  H  6934  6947       L1     5  0.31

> <Gold.Chemscore.Hbond.Weighted>
-4.8248

> <Gold.Chemscore.Metal.Weighted>
-0.0000

> <Gold.Chemscore.Lipo.Weighted>
-11.5642

> <Gold.Chemscore.Internal_Hbond.Weighted>
0.0000

> <Gold.Chemscore.DEClash.Weighted>
0.0069

> <Gold.Chemscore.DEInternal.Weighted>
2.0790

> <Gold.Chemscore.Rot.Weighted>
3.8886

> <Gold.Chemscore.Internal.Correction.Weighted>
   9.000000E+99

> <Gold.Protein.RotatedTorsions>
[ 6907 6896 6895 6894 ] final   67.34 input  -60.11 | X-H torsion
[ 7974 7965 7964 7962 ] final  -28.59 input  175.53 | X-H torsion
[ 8008 7997 7996 7995 ] final -156.62 input   59.86 | X-H torsion
[ 10167 10162 10161 10158 ] final   57.86 input  -65.29 | X-H torsion
[ 10718 10713 10712 10709 ] final    0.60 input   66.30 | X-H torsion
[ 10763 10752 10751 10750 ] final  171.87 input  -60.55 | X-H torsion
[ 11005 11000 10999 10996 ] final   72.12 input  -57.11 | X-H torsion

> <Gold.Protein.ActiveResidues>
 VAL166  LYS551  ARG553  GLY616  TRP617  ASP618  TYR619  PRO620  LYS621  CYS622 
 ASP623  PHE694  ASN695  SER759  ASP760  ASP761  ALA762  ILE779  LEU786  VAL792 
 PHE793  MET794  SER795  GLU796  ALA797  LYS798  CYS799  TRP800  GLU811  SER814 

> <Gold.Protein.RotatedAtoms>
  152.4545  134.5321  159.9813 H   0  0  0  0  0  0  0  0  0  0  0  0  # atno 6907 bound_to 6896
  151.5385  133.3431  159.2939 H   0  0  0  0  0  0  0  0  0  0  0  0  # atno 6908 bound_to 6896
  150.8485  134.7833  159.7052 H   0  0  0  0  0  0  0  0  0  0  0  0  # atno 6909 bound_to 6896
  146.1277  140.5303  142.8707 H   0  0  0  0  0  0  0  0  0  0  0  0  # atno 7974 bound_to 7965
  155.7199  140.0789  157.2335 H   0  0  0  0  0  0  0  0  0  0  0  0  # atno 8008 bound_to 7997
  154.4046  140.1614  156.2444 H   0  0  0  0  0  0  0  0  0  0  0  0  # atno 8009 bound_to 7997
  155.9206  140.3398  155.6172 H   0  0  0  0  0  0  0  0  0  0  0  0  # atno 8010 bound_to 7997
  140.1934  144.4062  150.6561 H   0  0  0  0  0  0  0  0  0  0  0  0  # atno 10167 bound_to 10162
  156.8357  130.5504  149.5682 H   0  0  0  0  0  0  0  0  0  0  0  0  # atno 10718 bound_to 10713
  154.4180  135.2757  155.1994 H   0  0  0  0  0  0  0  0  0  0  0  0  # atno 10763 bound_to 10752
  154.3951  135.6057  153.5869 H   0  0  0  0  0  0  0  0  0  0  0  0  # atno 10764 bound_to 10752
  152.9832  135.5913  154.4472 H   0  0  0  0  0  0  0  0  0  0  0  0  # atno 10765 bound_to 10752
  139.9508  134.7231  156.0868 H   0  0  0  0  0  0  0  0  0  0  0  0  # atno 11005 bound_to 11000
  144.7659  140.5529  143.6703 LP  0  0  0  0  0  0  0  0  0  0  0  0  # atno 17320 bound_to 7965
  145.5329  139.1475  143.3489 LP  0  0  0  0  0  0  0  0  0  0  0  0  # atno 17321 bound_to 7965
  140.6440  143.2209  151.6227 LP  0  0  0  0  0  0  0  0  0  0  0  0  # atno 17342 bound_to 10162
  139.5246  144.3098  152.1003 LP  0  0  0  0  0  0  0  0  0  0  0  0  # atno 17343 bound_to 10162
  156.0909  130.5895  150.9730 LP  0  0  0  0  0  0  0  0  0  0  0  0  # atno 17370 bound_to 10713
  157.6383  131.0913  150.8304 LP  0  0  0  0  0  0  0  0  0  0  0  0  # atno 17371 bound_to 10713
  141.1170  133.6625  156.3118 LP  0  0  0  0  0  0  0  0  0  0  0  0  # atno 17394 bound_to 11000
  140.5725  134.5826  157.5461 LP  0  0  0  0  0  0  0  0  0  0  0  0  # atno 17395 bound_to 11000

$$$$
