AV-unprocessed.smi:2385|AV-procd|sdf|9463|dock5
  -GOLD-   2272013 93D 1   1.00000     0.00000
 Structure written by MMmdl.
 50 52  0  0  0  0  0  0  0  0  2 V2000
  152.0455  145.0521  160.1532 C   0  0  0  0  0  0  0  0  0  0  0  0
  151.5721  143.9521  159.2267 C   0  0  0  0  0  0  0  0  0  0  0  0
  152.3730  142.8237  158.9684 C   0  0  0  0  0  0  0  0  0  0  0  0
  151.8841  141.8293  158.0994 C   0  0  0  0  0  0  0  0  0  0  0  0
  150.6104  141.9868  157.5080 C   0  0  0  0  0  0  0  0  0  0  0  0
  150.2107  140.9268  156.6511 N   0  0  0  0  0  0  0  0  0  0  0  0
  148.9822  140.6633  156.1718 C   0  0  0  0  0  0  0  0  0  0  0  0
  147.9752  141.3365  156.3921 O   0  0  0  0  0  0  0  0  0  0  0  0
  148.9881  139.5573  155.4091 N   0  0  0  0  0  0  0  0  0  0  0  0
  147.8518  138.9461  154.7156 C   0  0  2  0  0  0  0  0  0  0  0  0
  147.8149  137.4126  154.8653 C   0  0  0  0  0  0  0  0  0  0  0  0
  146.5890  136.8222  154.1486 C   0  0  0  0  0  0  0  0  0  0  0  0
  146.5632  137.2186  152.7160 N   0  3  1  0  0  0  0  0  0  0  0  0
  145.4858  136.5421  151.9483 C   0  0  0  0  0  0  0  0  0  0  0  0
  145.8789  135.1090  151.5420 C   0  0  2  0  0  0  0  0  0  0  0  0
  144.8729  134.3736  150.6769 C   0  0  0  0  0  0  0  0  0  0  0  0
  145.2729  132.9145  150.8803 C   0  0  0  0  0  0  0  0  0  0  0  0
  145.8581  132.8437  152.1771 O   0  0  0  0  0  0  0  0  0  0  0  0
  145.9794  134.1503  152.7280 C   0  0  0  0  0  0  0  0  0  0  0  0
  146.5483  138.6975  152.5588 C   0  0  0  0  0  0  0  0  0  0  0  0
  147.7767  139.3368  153.2265 C   0  0  0  0  0  0  0  0  0  0  0  0
  149.8475  143.0793  157.7607 N   0  0  0  0  0  0  0  0  0  0  0  0
  150.3162  144.0315  158.5947 C   0  0  0  0  0  0  0  0  0  0  0  0
  152.8223  144.6897  160.8273 H   0  0  0  0  0  0  0  0  0  0  0  0
  151.2189  145.4256  160.7585 H   0  0  0  0  0  0  0  0  0  0  0  0
  152.4515  145.8823  159.5751 H   0  0  0  0  0  0  0  0  0  0  0  0
  153.3450  142.7174  159.4272 H   0  0  0  0  0  0  0  0  0  0  0  0
  152.4851  140.9555  157.8932 H   0  0  0  0  0  0  0  0  0  0  0  0
  150.9455  140.2905  156.3793 H   0  0  0  0  0  0  0  0  0  0  0  0
  149.8739  139.0857  155.2967 H   0  0  0  0  0  0  0  0  0  0  0  0
  146.9644  139.3473  155.2072 H   0  0  0  0  0  0  0  0  0  0  0  0
  148.7162  136.9626  154.4485 H   0  0  0  0  0  0  0  0  0  0  0  0
  147.7922  137.1386  155.9206 H   0  0  0  0  0  0  0  0  0  0  0  0
  146.6228  135.7349  154.2294 H   0  0  0  0  0  0  0  0  0  0  0  0
  145.6697  137.1505  154.6363 H   0  0  0  0  0  0  0  0  0  0  0  0
  144.5890  136.4720  152.5656 H   0  0  0  0  0  0  0  0  0  0  0  0
  145.1959  137.1355  151.0794 H   0  0  0  0  0  0  0  0  0  0  0  0
  146.8434  135.1240  151.0311 H   0  0  0  0  0  0  0  0  0  0  0  0
  143.8599  134.5356  151.0480 H   0  0  0  0  0  0  0  0  0  0  0  0
  144.9070  134.6721  149.6287 H   0  0  0  0  0  0  0  0  0  0  0  0
  144.4241  132.2363  150.7891 H   0  0  0  0  0  0  0  0  0  0  0  0
  146.0227  132.6179  150.1461 H   0  0  0  0  0  0  0  0  0  0  0  0
  146.9129  134.2631  153.2803 H   0  0  0  0  0  0  0  0  0  0  0  0
  145.1545  134.3088  153.4243 H   0  0  0  0  0  0  0  0  0  0  0  0
  146.5352  138.9647  151.5030 H   0  0  0  0  0  0  0  0  0  0  0  0
  145.6333  139.1016  152.9952 H   0  0  0  0  0  0  0  0  0  0  0  0
  147.7289  140.4217  153.1252 H   0  0  0  0  0  0  0  0  0  0  0  0
  148.6730  139.0156  152.6951 H   0  0  0  0  0  0  0  0  0  0  0  0
  149.6685  144.8797  158.7614 H   0  0  0  0  0  0  0  0  0  0  0  0
  147.4347  136.8910  152.3241 H   0  0  0  0  0  0  0  0  0  0  0  0
  1  2  1  0  0  0  0
  1 24  1  0  0  0  0
  1 25  1  0  0  0  0
  1 26  1  0  0  0  0
  2 23  1  0  0  0  0
  2  3  2  0  0  0  0
  3  4  1  0  0  0  0
  3 27  1  0  0  0  0
  4  5  2  0  0  0  0
  4 28  1  0  0  0  0
  5  6  1  0  0  0  0
  5 22  1  0  0  0  0
  6  7  1  0  0  0  0
  6 29  1  0  0  0  0
  7  8  2  0  0  0  0
  7  9  1  0  0  0  0
  9 10  1  0  0  0  0
  9 30  1  0  0  0  0
 10 21  1  0  0  0  0
 10 11  1  0  0  0  0
 10 31  1  0  0  0  0
 11 12  1  0  0  0  0
 11 32  1  0  0  0  0
 11 33  1  0  0  0  0
 12 13  1  0  0  0  0
 12 34  1  0  0  0  0
 12 35  1  0  0  0  0
 13 14  1  0  0  0  0
 13 20  1  0  0  0  0
 13 50  1  0  0  0  0
 14 15  1  0  0  0  0
 14 36  1  0  0  0  0
 14 37  1  0  0  0  0
 15 19  1  0  0  0  0
 15 16  1  0  0  0  0
 15 38  1  0  0  0  0
 16 17  1  0  0  0  0
 16 39  1  0  0  0  0
 16 40  1  0  0  0  0
 17 18  1  0  0  0  0
 17 41  1  0  0  0  0
 17 42  1  0  0  0  0
 18 19  1  0  0  0  0
 19 43  1  0  0  0  0
 19 44  1  0  0  0  0
 20 21  1  0  0  0  0
 20 45  1  0  0  0  0
 20 46  1  0  0  0  0
 21 47  1  0  0  0  0
 21 48  1  0  0  0  0
 22 23  2  0  0  0  0
 23 49  1  0  0  0  0
M  CHG  1  13   1
M  END
> <s_m_source_file>
AV-unprocessed.smi

> <i_m_source_file_index>
2385

> <i_lp_mmshare_version>
43012

> <i_f3d_flags>
0

> <s_epik_input>
W0NIM11jMVtjSF1bY0hdYyhuW2NIXTEpW05IXUMoPU8pW05IXVtDSF0yW0NIMl1bQ0gyXU4oW0NIMl1bQ0gyXTIpW0NIMl1bQ0BASF0zW0NIMl1bQ0gyXU9bQ0gyXTM=

> <s_epik_cmdline>
J2VwaWtfcHl0aG9uJywgJy1waCcsICc3LjAnLCAnLXRuJywgJzgnLCAnLW1hJywgJzIwMCcsICctbWV0YWxfYmluZGluZycsICctaW1hZScsICc8aW5maWxlLm1hZT4nLCAnLW9tYWUnLCAnPG91dGZpbGUubWFlPic=

> <r_epik_Ionization_Penalty>
0.00752367

> <r_epik_Ionization_Penalty_Charging>
0.00747775

> <r_epik_Ionization_Penalty_Neutral>
4.59207e-05

> <r_epik_State_Penalty>
0.00558817

> <r_epik_Charging_Adjusted_Penalty>
0.0130659

> <i_epik_Tot_Q>
1

> <i_epik_Tot_abs_Q>
1

> <r_epik_Metal_State_Penalty>
-0

> <b_epik_Metal_Only>
0

> <s_lp_Force_Field>
OPLS_2005

> <r_lp_Energy>
37.2882

> <b_lp_Chiralities_Consistent>
1

> <s_lp_Variant>
AV-unprocessed.smi:2385-1

> <Gold.Version>
5.8.1

> <Gold.Id.Protein>
6NUR|6NUR_protein|mol2

> <Gold.PLP.Fitness>
40.1825

> <Gold.PLP.PLP>
-32.3183

> <Gold.PLP.part.hbond>
-1.0000

> <Gold.PLP.part.metal>
0.0000

> <Gold.PLP.part.buried>
-3.6395

> <Gold.PLP.part.nonpolar>
-30.6707

> <Gold.PLP.part.repulsive>
2.3536

> <Gold.PLP.ligand.clash>
0.0000

> <Gold.PLP.ligand.torsion>
0.5957

> <Gold.PLP.Chemscore.Hbond>
2.0000

> <Gold.PLP.Chemscore.CHOScore>
0.9999

> <Gold.PLP.Chemscore.Metal>
0.0000

> <Gold.Chemscore.Hbonds>
donor molecule, donor type, donor heavy atom, donor atom, acceptor molecule, acceptor atom, score
      L1  H    13    50       P1  7948  2.00
      L1  C    23    49       P1  8029  0.97

> <Gold.PLP.Chemscore.Internal.Correction>
0.0559

> <Gold.Rescore>
     Score         DG    S(hbond)    S(metal)    S(lipo)     H(rot)  DE(clash)    DE(int)     intcor
     14.56     -16.58       1.00        0.00      97.08       1.41       0.20       1.81       ----

> <Gold.Chemscore.Fitness>
14.5640

> <Gold.Chemscore.DG>
-16.5786

> <Gold.Chemscore.ZeroCoef>
-5.4800

> <Gold.Chemscore.Hbond>
0.9994

> <Gold.Chemscore.Metal>
0.0000

> <Gold.Chemscore.Lipo>
97.0825

> <Gold.Chemscore.Internal_Hbond>
0.0000

> <Gold.Chemscore.DEClash>
0.2033

> <Gold.Chemscore.DEInternal>
1.8112

> <Gold.Chemscore.Rot>
1.4056

> <Gold.Chemscore.Internal.Correction>
   9.000000E+99

> <Gold.Chemscore.Hbonds>
donor molecule, donor type, donor heavy atom, donor atom, acceptor molecule, acceptor atom, score
      L1  H    13    50       P1  7948  1.00

> <Gold.Chemscore.Hbond.Weighted>
-3.3381

> <Gold.Chemscore.Metal.Weighted>
-0.0000

> <Gold.Chemscore.Lipo.Weighted>
-11.3587

> <Gold.Chemscore.Internal_Hbond.Weighted>
0.0000

> <Gold.Chemscore.DEClash.Weighted>
0.2033

> <Gold.Chemscore.DEInternal.Weighted>
1.8112

> <Gold.Chemscore.Rot.Weighted>
3.5982

> <Gold.Chemscore.Internal.Correction.Weighted>
   9.000000E+99

> <Gold.Protein.RotatedTorsions>
[ 6907 6896 6895 6894 ] final  106.46 input  -60.11 | X-H torsion
[ 7974 7965 7964 7962 ] final  141.72 input  175.53 | X-H torsion
[ 8008 7997 7996 7995 ] final   48.91 input   59.86 | X-H torsion
[ 10167 10162 10161 10158 ] final  138.46 input  -65.29 | X-H torsion
[ 10718 10713 10712 10709 ] final   93.81 input   66.30 | X-H torsion
[ 10763 10752 10751 10750 ] final  -38.64 input  -60.55 | X-H torsion
[ 11005 11000 10999 10996 ] final  -26.67 input  -57.11 | X-H torsion

> <Gold.Protein.ActiveResidues>
 VAL166  LYS551  ARG553  GLY616  TRP617  ASP618  TYR619  PRO620  LYS621  CYS622 
 ASP623  PHE694  ASN695  SER759  ASP760  ASP761  ALA762  ILE779  LEU786  VAL792 
 PHE793  MET794  SER795  GLU796  ALA797  LYS798  CYS799  TRP800  GLU811  SER814 

> <Gold.Protein.RotatedAtoms>
  152.5193  133.9378  159.7611 H   0  0  0  0  0  0  0  0  0  0  0  0  # atno 6907 bound_to 6896
  150.9714  133.6331  159.2744 H   0  0  0  0  0  0  0  0  0  0  0  0  # atno 6908 bound_to 6896
  151.3541  135.0896  159.9466 H   0  0  0  0  0  0  0  0  0  0  0  0  # atno 6909 bound_to 6896
  144.9071  139.5343  143.5726 H   0  0  0  0  0  0  0  0  0  0  0  0  # atno 7974 bound_to 7965
  155.3935  140.3434  155.4252 H   0  0  0  0  0  0  0  0  0  0  0  0  # atno 8008 bound_to 7997
  156.1544  140.1581  156.8749 H   0  0  0  0  0  0  0  0  0  0  0  0  # atno 8009 bound_to 7997
  154.5081  140.0797  156.7917 H   0  0  0  0  0  0  0  0  0  0  0  0  # atno 8010 bound_to 7997
  139.5110  144.6352  151.5715 H   0  0  0  0  0  0  0  0  0  0  0  0  # atno 10167 bound_to 10162
  157.6952  131.0491  150.4091 H   0  0  0  0  0  0  0  0  0  0  0  0  # atno 10718 bound_to 10713
  153.9162  135.6787  153.4749 H   0  0  0  0  0  0  0  0  0  0  0  0  # atno 10763 bound_to 10752
  153.1052  135.4809  154.8936 H   0  0  0  0  0  0  0  0  0  0  0  0  # atno 10764 bound_to 10752
  154.7501  135.3182  154.8528 H   0  0  0  0  0  0  0  0  0  0  0  0  # atno 10765 bound_to 10752
  140.9050  133.7499  156.0594 H   0  0  0  0  0  0  0  0  0  0  0  0  # atno 11005 bound_to 11000
  146.3139  139.7848  142.8998 LP  0  0  0  0  0  0  0  0  0  0  0  0  # atno 17320 bound_to 7965
  145.3517  141.0309  143.3335 LP  0  0  0  0  0  0  0  0  0  0  0  0  # atno 17321 bound_to 7965
  140.6098  143.9456  150.6445 LP  0  0  0  0  0  0  0  0  0  0  0  0  # atno 17342 bound_to 10162
  140.2695  143.3466  152.1250 LP  0  0  0  0  0  0  0  0  0  0  0  0  # atno 17343 bound_to 10162
  156.4477  130.4005  149.6656 LP  0  0  0  0  0  0  0  0  0  0  0  0  # atno 17370 bound_to 10713
  156.3817  130.7582  151.2575 LP  0  0  0  0  0  0  0  0  0  0  0  0  # atno 17371 bound_to 10713
  140.8182  134.3320  157.5390 LP  0  0  0  0  0  0  0  0  0  0  0  0  # atno 17394 bound_to 11000
  139.8748  134.9294  156.3475 LP  0  0  0  0  0  0  0  0  0  0  0  0  # atno 17395 bound_to 11000

$$$$
