AV-unprocessed.smi:1769|AV-procd|sdf|7151|dock8
  -GOLD-   22720 8393D 1   1.00000     0.00000
 Structure written by MMmdl.
 41 42  0  0  0  0  0  0  0  0  1 V2000
  145.9232  140.0473  157.9112 C   0  0  0  0  0  0  0  0  0  0  0  0
  145.4237  140.7542  156.6491 C   0  0  0  0  0  0  0  0  0  0  0  0
  144.2821  140.5061  156.2608 O   0  0  0  0  0  0  0  0  0  0  0  0
  146.2426  141.6229  156.0083 N   0  0  0  0  0  0  0  0  0  0  0  0
  145.9330  142.3078  154.7467 C   0  0  0  0  0  0  0  0  0  0  0  0
  146.7993  141.6970  153.6309 C   0  0  0  0  0  0  0  0  0  0  0  0
  148.2960  141.7821  153.9869 C   0  0  0  0  0  0  0  0  0  0  0  0
  148.5846  141.2224  155.4005 C   0  0  1  0  0  0  0  0  0  0  0  0
  150.0498  141.4478  155.7965 C   0  0  0  0  0  0  0  0  0  0  0  0
  150.9281  140.6891  155.3847 O   0  0  0  0  0  0  0  0  0  0  0  0
  150.3002  142.4939  156.5990 N   0  0  0  0  0  0  0  0  0  0  0  0
  151.6182  142.8697  157.0957 C   0  0  0  0  0  0  0  0  0  0  0  0
  151.5231  143.9571  158.1778 C   0  0  0  0  0  0  0  0  0  0  0  0
  152.0753  143.4854  159.5082 C   0  0  0  0  0  0  0  0  0  0  0  0
  151.9561  144.2844  160.6637 C   0  0  0  0  0  0  0  0  0  0  0  0
  152.4797  143.8016  161.8785 C   0  0  0  0  0  0  0  0  0  0  0  0
  153.1001  142.5363  161.8859 C   0  0  0  0  0  0  0  0  0  0  0  0
  153.2192  141.7623  160.7857 N   0  0  0  0  0  0  0  0  0  0  0  0
  152.7157  142.2331  159.6244 C   0  0  0  0  0  0  0  0  0  0  0  0
  147.6280  141.8661  156.4301 C   0  0  0  0  0  0  0  0  0  0  0  0
  146.2059  140.7723  158.6753 H   0  0  0  0  0  0  0  0  0  0  0  0
  146.7827  139.4155  157.6850 H   0  0  0  0  0  0  0  0  0  0  0  0
  145.1428  139.4106  158.3298 H   0  0  0  0  0  0  0  0  0  0  0  0
  144.8812  142.2603  154.4690 H   0  0  0  0  0  0  0  0  0  0  0  0
  146.1571  143.3703  154.8521 H   0  0  0  0  0  0  0  0  0  0  0  0
  146.5169  140.6542  153.4805 H   0  0  0  0  0  0  0  0  0  0  0  0
  146.6114  142.2086  152.6866 H   0  0  0  0  0  0  0  0  0  0  0  0
  148.8833  141.2459  153.2405 H   0  0  0  0  0  0  0  0  0  0  0  0
  148.6079  142.8263  153.9299 H   0  0  0  0  0  0  0  0  0  0  0  0
  148.3927  140.1477  155.3857 H   0  0  0  0  0  0  0  0  0  0  0  0
  149.5219  143.0683  156.8884 H   0  0  0  0  0  0  0  0  0  0  0  0
  152.1384  141.9906  157.4805 H   0  0  0  0  0  0  0  0  0  0  0  0
  152.2067  143.2338  156.2531 H   0  0  0  0  0  0  0  0  0  0  0  0
  152.0674  144.8484  157.8627 H   0  0  0  0  0  0  0  0  0  0  0  0
  150.4855  144.2636  158.3174 H   0  0  0  0  0  0  0  0  0  0  0  0
  151.4709  145.2487  160.6219 H   0  0  0  0  0  0  0  0  0  0  0  0
  152.4069  144.3865  162.7833 H   0  0  0  0  0  0  0  0  0  0  0  0
  153.5112  142.1350  162.8004 H   0  0  0  0  0  0  0  0  0  0  0  0
  152.8246  141.5897  158.7636 H   0  0  0  0  0  0  0  0  0  0  0  0
  147.7965  142.9427  156.4915 H   0  0  0  0  0  0  0  0  0  0  0  0
  147.8329  141.4799  157.4300 H   0  0  0  0  0  0  0  0  0  0  0  0
  1  2  1  0  0  0  0
  1 21  1  0  0  0  0
  1 22  1  0  0  0  0
  1 23  1  0  0  0  0
  2  3  2  0  0  0  0
  2  4  1  0  0  0  0
  4 20  1  0  0  0  0
  4  5  1  0  0  0  0
  5  6  1  0  0  0  0
  5 24  1  0  0  0  0
  5 25  1  0  0  0  0
  6  7  1  0  0  0  0
  6 26  1  0  0  0  0
  6 27  1  0  0  0  0
  7  8  1  0  0  0  0
  7 28  1  0  0  0  0
  7 29  1  0  0  0  0
  8  9  1  0  0  0  0
  8 20  1  0  0  0  0
  8 30  1  0  0  0  0
  9 10  2  0  0  0  0
  9 11  1  0  0  0  0
 11 12  1  0  0  0  0
 11 31  1  0  0  0  0
 12 13  1  0  0  0  0
 12 32  1  0  0  0  0
 12 33  1  0  0  0  0
 13 14  1  0  0  0  0
 13 34  1  0  0  0  0
 13 35  1  0  0  0  0
 14 19  1  0  0  0  0
 14 15  2  0  0  0  0
 15 16  1  0  0  0  0
 15 36  1  0  0  0  0
 16 17  2  0  0  0  0
 16 37  1  0  0  0  0
 17 18  1  0  0  0  0
 17 38  1  0  0  0  0
 18 19  2  0  0  0  0
 19 39  1  0  0  0  0
 20 40  1  0  0  0  0
 20 41  1  0  0  0  0
M  END
> <s_m_source_file>
AV-unprocessed.smi

> <i_m_source_file_index>
1769

> <i_lp_mmshare_version>
43012

> <i_f3d_flags>
0

> <s_epik_input>
W0NIM11DKD1PKU4xW0NIMl1bQ0gyXVtDSDJdW0NASF0oW0NIMl0xKUMoPU8pW05IXVtDSDJdW0NIMl1jMltjSF1bY0hdW2NIXW5bY0hdMg==

> <s_epik_cmdline>
J2VwaWtfcHl0aG9uJywgJy1waCcsICc3LjAnLCAnLXRuJywgJzgnLCAnLW1hJywgJzIwMCcsICctbWV0YWxfYmluZGluZycsICctaW1hZScsICc8aW5maWxlLm1hZT4nLCAnLW9tYWUnLCAnPG91dGZpbGUubWFlPic=

> <r_epik_Ionization_Penalty>
0.0134099

> <r_epik_Ionization_Penalty_Charging>
0

> <r_epik_Ionization_Penalty_Neutral>
0.0134099

> <r_epik_State_Penalty>
0.010434

> <r_epik_Charging_Adjusted_Penalty>
0.010434

> <i_epik_Tot_Q>
0

> <i_epik_Tot_abs_Q>
0

> <r_epik_Metal_State_Penalty>
0.0102025

> <b_epik_Metal_Only>
0

> <s_lp_Force_Field>
OPLS_2005

> <r_lp_Energy>
22.5889

> <b_lp_Chiralities_Consistent>
1

> <s_lp_Variant>
AV-unprocessed.smi:1769-1

> <Gold.Version>
5.8.1

> <Gold.Id.Protein>
6NUR|6NUR_protein|mol2

> <Gold.PLP.Fitness>
43.4220

> <Gold.PLP.PLP>
-41.9453

> <Gold.PLP.part.hbond>
-2.0000

> <Gold.PLP.part.metal>
0.0000

> <Gold.PLP.part.buried>
-5.2513

> <Gold.PLP.part.nonpolar>
-33.4413

> <Gold.PLP.part.repulsive>
0.1781

> <Gold.PLP.ligand.clash>
0.0000

> <Gold.PLP.ligand.torsion>
1.0888

> <Gold.PLP.Chemscore.Hbond>
1.2099

> <Gold.PLP.Chemscore.CHOScore>
0.0000

> <Gold.PLP.Chemscore.Metal>
0.0000

> <Gold.Chemscore.Hbonds>
donor molecule, donor type, donor heavy atom, donor atom, acceptor molecule, acceptor atom, score
      L1  H    11    31       P1  8028  0.29
      P1  H  7989  7998       L1    10  0.86

> <Gold.PLP.Chemscore.Internal.Correction>
0.0245

> <Gold.Rescore>
     Score         DG    S(hbond)    S(metal)    S(lipo)     H(rot)  DE(clash)    DE(int)     intcor
     16.63     -19.10       1.28        0.00     113.09       1.52       1.34       1.13       ----

> <Gold.Chemscore.Fitness>
16.6338

> <Gold.Chemscore.DG>
-19.1011

> <Gold.Chemscore.ZeroCoef>
-5.4800

> <Gold.Chemscore.Hbond>
1.2821

> <Gold.Chemscore.Metal>
0.0000

> <Gold.Chemscore.Lipo>
113.0895

> <Gold.Chemscore.Internal_Hbond>
0.0000

> <Gold.Chemscore.DEClash>
1.3369

> <Gold.Chemscore.DEInternal>
1.1304

> <Gold.Chemscore.Rot>
1.5205

> <Gold.Chemscore.Internal.Correction>
   9.000000E+99

> <Gold.Chemscore.Hbonds>
donor molecule, donor type, donor heavy atom, donor atom, acceptor molecule, acceptor atom, score
      L1  H    11    31       P1  8028  0.29
      P1  H  7989  7998       L1    10  0.78

> <Gold.Chemscore.Hbond.Weighted>
-4.2822

> <Gold.Chemscore.Metal.Weighted>
-0.0000

> <Gold.Chemscore.Lipo.Weighted>
-13.2315

> <Gold.Chemscore.Internal_Hbond.Weighted>
0.0000

> <Gold.Chemscore.DEClash.Weighted>
1.3369

> <Gold.Chemscore.DEInternal.Weighted>
1.1304

> <Gold.Chemscore.Rot.Weighted>
3.8926

> <Gold.Chemscore.Internal.Correction.Weighted>
   9.000000E+99

> <Gold.Protein.RotatedTorsions>
[ 6907 6896 6895 6894 ] final  102.03 input  -60.11 | X-H torsion
[ 7974 7965 7964 7962 ] final  -18.36 input  175.53 | X-H torsion
[ 8008 7997 7996 7995 ] final  -45.97 input   59.86 | X-H torsion
[ 10167 10162 10161 10158 ] final  -80.62 input  -65.29 | X-H torsion
[ 10718 10713 10712 10709 ] final   71.90 input   66.30 | X-H torsion
[ 10763 10752 10751 10750 ] final   39.45 input  -60.55 | X-H torsion
[ 11005 11000 10999 10996 ] final  130.21 input  -57.11 | X-H torsion

> <Gold.Protein.ActiveResidues>
 VAL166  LYS551  ARG553  GLY616  TRP617  ASP618  TYR619  PRO620  LYS621  CYS622 
 ASP623  PHE694  ASN695  SER759  ASP760  ASP761  ALA762  ILE779  LEU786  VAL792 
 PHE793  MET794  SER795  GLU796  ALA797  LYS798  CYS799  TRP800  GLU811  SER814 

> <Gold.Protein.RotatedAtoms>
  152.5334  134.0037  159.7906 H   0  0  0  0  0  0  0  0  0  0  0  0  # atno 6907 bound_to 6896
  151.0251  133.5833  159.2674 H   0  0  0  0  0  0  0  0  0  0  0  0  # atno 6908 bound_to 6896
  151.2858  135.0734  159.9240 H   0  0  0  0  0  0  0  0  0  0  0  0  # atno 6909 bound_to 6896
  146.1896  140.3910  142.8463 H   0  0  0  0  0  0  0  0  0  0  0  0  # atno 7974 bound_to 7965
  154.4004  140.1383  156.3935 H   0  0  0  0  0  0  0  0  0  0  0  0  # atno 8008 bound_to 7997
  155.7892  140.3479  155.5319 H   0  0  0  0  0  0  0  0  0  0  0  0  # atno 8009 bound_to 7997
  155.8596  140.0954  157.1612 H   0  0  0  0  0  0  0  0  0  0  0  0  # atno 8010 bound_to 7997
  140.4487  143.2490  151.8521 H   0  0  0  0  0  0  0  0  0  0  0  0  # atno 10167 bound_to 10162
  157.6475  130.9552  150.0854 H   0  0  0  0  0  0  0  0  0  0  0  0  # atno 10718 bound_to 10713
  152.9967  135.6220  154.2466 H   0  0  0  0  0  0  0  0  0  0  0  0  # atno 10763 bound_to 10752
  154.2206  135.2796  155.2928 H   0  0  0  0  0  0  0  0  0  0  0  0  # atno 10764 bound_to 10752
  154.5532  135.5727  153.6999 H   0  0  0  0  0  0  0  0  0  0  0  0  # atno 10765 bound_to 10752
  139.9659  134.9590  156.9261 H   0  0  0  0  0  0  0  0  0  0  0  0  # atno 11005 bound_to 11000
  144.8461  140.6931  143.6198 LP  0  0  0  0  0  0  0  0  0  0  0  0  # atno 17320 bound_to 7965
  145.3834  139.1632  143.4268 LP  0  0  0  0  0  0  0  0  0  0  0  0  # atno 17321 bound_to 7965
  139.4795  144.5145  151.8886 LP  0  0  0  0  0  0  0  0  0  0  0  0  # atno 17342 bound_to 10162
  140.4233  144.2214  150.5887 LP  0  0  0  0  0  0  0  0  0  0  0  0  # atno 17343 bound_to 10162
  156.1818  130.3650  149.9025 LP  0  0  0  0  0  0  0  0  0  0  0  0  # atno 17370 bound_to 10713
  156.6975  130.8920  151.3595 LP  0  0  0  0  0  0  0  0  0  0  0  0  # atno 17371 bound_to 10713
  140.5398  134.0731  155.7338 LP  0  0  0  0  0  0  0  0  0  0  0  0  # atno 17394 bound_to 11000
  141.1338  133.9256  157.2477 LP  0  0  0  0  0  0  0  0  0  0  0  0  # atno 17395 bound_to 11000

$$$$
