AV-unprocessed.smi:1354|AV-procd|sdf|5534|dock3
  -GOLD-   22720 5123D 1   1.00000     0.00000
 Structure written by MMmdl.
 39 41  0  0  0  0  0  0  0  0  1 V2000
  150.6946  137.1887  153.9469 O   0  0  0  0  0  0  0  0  0  0  0  0
  151.6518  137.5236  154.9296 C   0  0  0  0  0  0  0  0  0  0  0  0
  151.8429  139.0475  155.0243 C   0  0  0  0  0  0  0  0  0  0  0  0
  150.5480  139.8094  155.0679 C   0  0  0  0  0  0  0  0  0  0  0  0
  149.7761  139.9213  153.9853 N   0  0  0  0  0  0  0  0  0  0  0  0
  148.7243  140.6933  154.4356 C   0  0  0  0  0  0  0  0  0  0  0  0
  147.5847  141.1787  153.7551 C   0  0  0  0  0  0  0  0  0  0  0  0
  146.6312  141.9669  154.4318 C   0  0  0  0  0  0  0  0  0  0  0  0
  146.8021  142.2781  155.7960 C   0  0  0  0  0  0  0  0  0  0  0  0
  147.9283  141.8005  156.4934 C   0  0  0  0  0  0  0  0  0  0  0  0
  148.8784  141.0148  155.8131 C   0  0  0  0  0  0  0  0  0  0  0  0
  150.0704  140.4034  156.1933 N   0  0  0  0  0  0  0  0  0  0  0  0
  150.6487  140.4330  157.5311 C   0  0  0  0  0  0  0  0  0  0  0  0
  152.0592  141.0378  157.5432 C   0  0  0  0  0  0  0  0  0  0  0  0
  152.7118  140.6547  158.7462 O   0  0  0  0  0  0  0  0  0  0  0  0
  152.6816  141.5190  159.8185 C   0  0  0  0  0  0  0  0  0  0  0  0
  152.0234  142.7747  159.8025 C   0  0  0  0  0  0  0  0  0  0  0  0
  152.0390  143.6029  160.9415 C   0  0  0  0  0  0  0  0  0  0  0  0
  152.7109  143.1896  162.1064 C   0  0  0  0  0  0  0  0  0  0  0  0
  153.3691  141.9463  162.1311 C   0  0  0  0  0  0  0  0  0  0  0  0
  153.3552  141.1160  160.9930 C   0  0  0  0  0  0  0  0  0  0  0  0
  154.1650  139.5907  161.0483 Cl  0  0  0  0  0  0  0  0  0  0  0  0
  151.1494  136.9078  153.1675 H   0  0  0  0  0  0  0  0  0  0  0  0
  151.3583  137.1011  155.8909 H   0  0  0  0  0  0  0  0  0  0  0  0
  152.5944  137.0525  154.6498 H   0  0  0  0  0  0  0  0  0  0  0  0
  152.3887  139.2786  155.9397 H   0  0  0  0  0  0  0  0  0  0  0  0
  152.4770  139.3893  154.2083 H   0  0  0  0  0  0  0  0  0  0  0  0
  147.4461  140.9470  152.7094 H   0  0  0  0  0  0  0  0  0  0  0  0
  145.7656  142.3358  153.9016 H   0  0  0  0  0  0  0  0  0  0  0  0
  146.0689  142.8846  156.3071 H   0  0  0  0  0  0  0  0  0  0  0  0
  148.0626  142.0420  157.5370 H   0  0  0  0  0  0  0  0  0  0  0  0
  149.9966  141.0260  158.1726 H   0  0  0  0  0  0  0  0  0  0  0  0
  150.6469  139.4295  157.9559 H   0  0  0  0  0  0  0  0  0  0  0  0
  152.6217  140.6843  156.6781 H   0  0  0  0  0  0  0  0  0  0  0  0
  151.9896  142.1227  157.4730 H   0  0  0  0  0  0  0  0  0  0  0  0
  151.5016  143.1266  158.9257 H   0  0  0  0  0  0  0  0  0  0  0  0
  151.5345  144.5577  160.9205 H   0  0  0  0  0  0  0  0  0  0  0  0
  152.7221  143.8253  162.9795 H   0  0  0  0  0  0  0  0  0  0  0  0
  153.8849  141.6290  163.0254 H   0  0  0  0  0  0  0  0  0  0  0  0
  1  2  1  0  0  0  0
  1 23  1  0  0  0  0
  2  3  1  0  0  0  0
  2 24  1  0  0  0  0
  2 25  1  0  0  0  0
  3  4  1  0  0  0  0
  3 26  1  0  0  0  0
  3 27  1  0  0  0  0
  4 12  1  0  0  0  0
  4  5  2  0  0  0  0
  5  6  1  0  0  0  0
  6 11  2  0  0  0  0
  6  7  1  0  0  0  0
  7  8  2  0  0  0  0
  7 28  1  0  0  0  0
  8  9  1  0  0  0  0
  8 29  1  0  0  0  0
  9 10  2  0  0  0  0
  9 30  1  0  0  0  0
 10 11  1  0  0  0  0
 10 31  1  0  0  0  0
 11 12  1  0  0  0  0
 12 13  1  0  0  0  0
 13 14  1  0  0  0  0
 13 32  1  0  0  0  0
 13 33  1  0  0  0  0
 14 15  1  0  0  0  0
 14 34  1  0  0  0  0
 14 35  1  0  0  0  0
 15 16  1  0  0  0  0
 16 21  1  0  0  0  0
 16 17  2  0  0  0  0
 17 18  1  0  0  0  0
 17 36  1  0  0  0  0
 18 19  2  0  0  0  0
 18 37  1  0  0  0  0
 19 20  1  0  0  0  0
 19 38  1  0  0  0  0
 20 21  2  0  0  0  0
 20 39  1  0  0  0  0
 21 22  1  0  0  0  0
M  END
> <s_m_source_file>
AV-unprocessed.smi

> <i_m_source_file_index>
1354

> <i_lp_mmshare_version>
43012

> <i_f3d_flags>
0

> <s_epik_input>
W2NIXTFbY0hdW2NIXVtjSF1jKGMxMiluKGMobjIpW0NIMl1bQ0gyXVtPSF0pW0NIMl1bQ0gyXU9jM1tjSF1bY0hdW2NIXVtjSF1jM0Ns

> <s_epik_cmdline>
J2VwaWtfcHl0aG9uJywgJy1waCcsICc3LjAnLCAnLXRuJywgJzgnLCAnLW1hJywgJzIwMCcsICctbWV0YWxfYmluZGluZycsICctaW1hZScsICc8aW5maWxlLm1hZT4nLCAnLW9tYWUnLCAnPG91dGZpbGUubWFlPic=

> <r_lp_tautomer_probability>
1

> <r_epik_Ionization_Penalty>
0.195126

> <r_epik_Ionization_Penalty_Charging>
0

> <r_epik_Ionization_Penalty_Neutral>
0.195126

> <r_epik_State_Penalty>
0.184862

> <r_epik_Charging_Adjusted_Penalty>
0.184862

> <i_epik_Tot_Q>
0

> <i_epik_Tot_abs_Q>
0

> <r_epik_Metal_State_Penalty>
0.000216911

> <b_epik_Metal_Only>
0

> <s_lp_Force_Field>
OPLS_2005

> <r_lp_Energy>
15.3671

> <b_lp_Chiralities_Consistent>
1

> <s_lp_Variant>
AV-unprocessed.smi:1354-1

> <Gold.Version>
5.8.1

> <Gold.Id.Protein>
6NUR|6NUR_protein|mol2

> <Gold.PLP.Fitness>
51.5653

> <Gold.PLP.PLP>
-49.6494

> <Gold.PLP.part.hbond>
-3.0000

> <Gold.PLP.part.metal>
0.0000

> <Gold.PLP.part.buried>
-5.0239

> <Gold.PLP.part.nonpolar>
-42.8795

> <Gold.PLP.part.repulsive>
2.2909

> <Gold.PLP.ligand.clash>
0.0000

> <Gold.PLP.ligand.torsion>
0.5076

> <Gold.PLP.Chemscore.Hbond>
0.9425

> <Gold.PLP.Chemscore.CHOScore>
0.0000

> <Gold.PLP.Chemscore.Metal>
0.0000

> <Gold.Chemscore.Hbonds>
donor molecule, donor type, donor heavy atom, donor atom, acceptor molecule, acceptor atom, score
      L1  H     1    23       P1  7949  1.00

> <Gold.PLP.Chemscore.Internal.Correction>
0.1035

> <Gold.Rescore>
     Score         DG    S(hbond)    S(metal)    S(lipo)     H(rot)  DE(clash)    DE(int)     intcor
     13.72     -17.01       0.61        0.00     131.68       2.31       1.49       1.80       ----

> <Gold.Chemscore.Fitness>
13.7184

> <Gold.Chemscore.DG>
-17.0098

> <Gold.Chemscore.ZeroCoef>
-5.4800

> <Gold.Chemscore.Hbond>
0.6097

> <Gold.Chemscore.Metal>
0.0000

> <Gold.Chemscore.Lipo>
131.6802

> <Gold.Chemscore.Internal_Hbond>
0.0000

> <Gold.Chemscore.DEClash>
1.4864

> <Gold.Chemscore.DEInternal>
1.8050

> <Gold.Chemscore.Rot>
2.3098

> <Gold.Chemscore.Internal.Correction>
   9.000000E+99

> <Gold.Chemscore.Hbonds>
donor molecule, donor type, donor heavy atom, donor atom, acceptor molecule, acceptor atom, score
      L1  H     1    23       P1  7949  0.48

> <Gold.Chemscore.Hbond.Weighted>
-2.0363

> <Gold.Chemscore.Metal.Weighted>
-0.0000

> <Gold.Chemscore.Lipo.Weighted>
-15.4066

> <Gold.Chemscore.Internal_Hbond.Weighted>
0.0000

> <Gold.Chemscore.DEClash.Weighted>
1.4864

> <Gold.Chemscore.DEInternal.Weighted>
1.8050

> <Gold.Chemscore.Rot.Weighted>
5.9131

> <Gold.Chemscore.Internal.Correction.Weighted>
   9.000000E+99

> <Gold.Protein.RotatedTorsions>
[ 6907 6896 6895 6894 ] final -154.31 input  -60.11 | X-H torsion
[ 7974 7965 7964 7962 ] final  -83.81 input  175.53 | X-H torsion
[ 8008 7997 7996 7995 ] final   68.89 input   59.86 | X-H torsion
[ 10167 10162 10161 10158 ] final  167.01 input  -65.29 | X-H torsion
[ 10718 10713 10712 10709 ] final   26.97 input   66.30 | X-H torsion
[ 10763 10752 10751 10750 ] final   47.91 input  -60.55 | X-H torsion
[ 11005 11000 10999 10996 ] final  171.39 input  -57.11 | X-H torsion

> <Gold.Protein.ActiveResidues>
 VAL166  LYS551  ARG553  GLY616  TRP617  ASP618  TYR619  PRO620  LYS621  CYS622 
 ASP623  PHE694  ASN695  SER759  ASP760  ASP761  ALA762  ILE779  LEU786  VAL792 
 PHE793  MET794  SER795  GLU796  ALA797  LYS798  CYS799  TRP800  GLU811  SER814 

> <Gold.Protein.RotatedAtoms>
  151.2557  133.4327  159.2613 H   0  0  0  0  0  0  0  0  0  0  0  0  # atno 6907 bound_to 6896
  151.0577  134.9716  159.8254 H   0  0  0  0  0  0  0  0  0  0  0  0  # atno 6908 bound_to 6896
  152.5393  134.2508  159.8951 H   0  0  0  0  0  0  0  0  0  0  0  0  # atno 6909 bound_to 6896
  145.5150  140.9536  143.1686 H   0  0  0  0  0  0  0  0  0  0  0  0  # atno 7974 bound_to 7965
  155.7152  140.3494  155.4991 H   0  0  0  0  0  0  0  0  0  0  0  0  # atno 8008 bound_to 7997
  155.9319  140.1086  157.1147 H   0  0  0  0  0  0  0  0  0  0  0  0  # atno 8009 bound_to 7997
  154.4087  140.1229  156.4801 H   0  0  0  0  0  0  0  0  0  0  0  0  # atno 8010 bound_to 7997
  139.4936  144.3967  151.9456 H   0  0  0  0  0  0  0  0  0  0  0  0  # atno 10167 bound_to 10162
  157.2140  130.6947  149.6240 H   0  0  0  0  0  0  0  0  0  0  0  0  # atno 10718 bound_to 10713
  152.9796  135.5961  154.3840 H   0  0  0  0  0  0  0  0  0  0  0  0  # atno 10763 bound_to 10752
  154.3502  135.2767  155.2378 H   0  0  0  0  0  0  0  0  0  0  0  0  # atno 10764 bound_to 10752
  154.4421  135.6011  153.6191 H   0  0  0  0  0  0  0  0  0  0  0  0  # atno 10765 bound_to 10752
  140.3185  134.7457  157.4046 H   0  0  0  0  0  0  0  0  0  0  0  0  # atno 11005 bound_to 11000
  144.7706  139.6743  143.7196 LP  0  0  0  0  0  0  0  0  0  0  0  0  # atno 17320 bound_to 7965
  146.2142  139.5520  142.9661 LP  0  0  0  0  0  0  0  0  0  0  0  0  # atno 17321 bound_to 7965
  140.3405  144.3209  150.5968 LP  0  0  0  0  0  0  0  0  0  0  0  0  # atno 17342 bound_to 10162
  140.5570  143.2197  151.7831 LP  0  0  0  0  0  0  0  0  0  0  0  0  # atno 17343 bound_to 10162
  155.9688  130.4542  150.5840 LP  0  0  0  0  0  0  0  0  0  0  0  0  # atno 17370 bound_to 10713
  157.3644  131.0755  151.1610 LP  0  0  0  0  0  0  0  0  0  0  0  0  # atno 17371 bound_to 10713
  140.0962  134.5534  155.8396 LP  0  0  0  0  0  0  0  0  0  0  0  0  # atno 17394 bound_to 11000
  141.2092  133.6681  156.6423 LP  0  0  0  0  0  0  0  0  0  0  0  0  # atno 17395 bound_to 11000

$$$$
