AV-unprocessed.smi:888|AV-procd|sdf|4055|dock7
  -GOLD-   22720 1543D 1   1.00000     0.00000
 Structure written by MMmdl.
 45 46  0  0  0  0  0  0  0  0  1 V2000
  149.7070  141.6085  155.1293 C   0  0  0  0  0  0  0  0  0  0  0  0
  150.8343  140.9636  155.9426 C   0  0  0  0  0  0  0  0  0  0  0  0
  151.4282  139.7704  155.2598 C   0  0  0  0  0  0  0  0  0  0  0  0
  152.7365  139.6425  155.0073 N   0  0  0  0  0  0  0  0  0  0  0  0
  152.8791  138.4148  154.3916 N   0  0  0  0  0  0  0  0  0  0  0  0
  151.6432  137.9199  154.3415 C   0  0  0  0  0  0  0  0  0  0  0  0
  150.6935  138.7080  154.8681 N   0  0  0  0  0  0  0  0  0  0  0  0
  149.2684  138.4535  154.9698 C   0  0  0  0  0  0  0  0  0  0  0  0
  148.9839  137.0095  155.4034 C   0  0  0  0  0  0  0  0  0  0  0  0
  148.3305  136.2728  154.3256 N   0  0  0  0  0  0  0  0  0  0  0  0
  147.0904  135.7553  154.3321 C   0  0  0  0  0  0  0  0  0  0  0  0
  146.3504  135.8560  155.3087 O   0  0  0  0  0  0  0  0  0  0  0  0
  146.7461  135.1235  153.1964 N   0  0  0  0  0  0  0  0  0  0  0  0
  145.4626  134.4711  152.9308 C   0  0  1  0  0  0  0  0  0  0  0  0
  144.3362  135.5144  153.0495 C   0  0  0  0  0  0  0  0  0  0  0  0
  143.9321  135.8993  151.6196 C   0  0  0  0  0  0  0  0  0  0  0  0
  144.8721  135.1292  150.6873 C   0  0  0  0  0  0  0  0  0  0  0  0
  145.3568  133.9099  151.4881 C   0  0  0  0  0  0  0  0  0  0  0  0
  146.6761  133.3471  150.9160 C   0  0  0  0  0  0  0  0  0  0  0  0
  144.2926  132.7918  151.4387 C   0  0  0  0  0  0  0  0  0  0  0  0
  149.2933  142.4692  155.6549 H   0  0  0  0  0  0  0  0  0  0  0  0
  148.8949  140.9022  154.9544 H   0  0  0  0  0  0  0  0  0  0  0  0
  150.0673  141.9518  154.1595 H   0  0  0  0  0  0  0  0  0  0  0  0
  151.6139  141.6965  156.1495 H   0  0  0  0  0  0  0  0  0  0  0  0
  150.4496  140.6501  156.9136 H   0  0  0  0  0  0  0  0  0  0  0  0
  151.4249  136.9538  153.9103 H   0  0  0  0  0  0  0  0  0  0  0  0
  148.8437  139.1555  155.6889 H   0  0  0  0  0  0  0  0  0  0  0  0
  148.8009  138.6693  154.0084 H   0  0  0  0  0  0  0  0  0  0  0  0
  149.9153  136.5093  155.6735 H   0  0  0  0  0  0  0  0  0  0  0  0
  148.3441  137.0058  156.2874 H   0  0  0  0  0  0  0  0  0  0  0  0
  148.8754  136.1366  153.4862 H   0  0  0  0  0  0  0  0  0  0  0  0
  147.4283  135.0913  152.4532 H   0  0  0  0  0  0  0  0  0  0  0  0
  145.3035  133.6796  153.6657 H   0  0  0  0  0  0  0  0  0  0  0  0
  143.4784  135.0783  153.5630 H   0  0  0  0  0  0  0  0  0  0  0  0
  144.6372  136.3872  153.6310 H   0  0  0  0  0  0  0  0  0  0  0  0
  142.8978  135.6059  151.4364 H   0  0  0  0  0  0  0  0  0  0  0  0
  143.9990  136.9747  151.4521 H   0  0  0  0  0  0  0  0  0  0  0  0
  144.3921  134.8573  149.7465 H   0  0  0  0  0  0  0  0  0  0  0  0
  145.7205  135.7688  150.4395 H   0  0  0  0  0  0  0  0  0  0  0  0
  146.5285  132.9461  149.9127 H   0  0  0  0  0  0  0  0  0  0  0  0
  147.0623  132.5397  151.5390 H   0  0  0  0  0  0  0  0  0  0  0  0
  147.4526  134.1089  150.8415 H   0  0  0  0  0  0  0  0  0  0  0  0
  144.1328  132.4415  150.4185 H   0  0  0  0  0  0  0  0  0  0  0  0
  143.3278  133.1244  151.8226 H   0  0  0  0  0  0  0  0  0  0  0  0
  144.5994  131.9317  152.0347 H   0  0  0  0  0  0  0  0  0  0  0  0
  1  2  1  0  0  0  0
  1 21  1  0  0  0  0
  1 22  1  0  0  0  0
  1 23  1  0  0  0  0
  2  3  1  0  0  0  0
  2 24  1  0  0  0  0
  2 25  1  0  0  0  0
  3  7  1  0  0  0  0
  3  4  2  0  0  0  0
  4  5  1  0  0  0  0
  5  6  2  0  0  0  0
  6  7  1  0  0  0  0
  6 26  1  0  0  0  0
  7  8  1  0  0  0  0
  8  9  1  0  0  0  0
  8 27  1  0  0  0  0
  8 28  1  0  0  0  0
  9 10  1  0  0  0  0
  9 29  1  0  0  0  0
  9 30  1  0  0  0  0
 10 11  1  0  0  0  0
 10 31  1  0  0  0  0
 11 12  2  0  0  0  0
 11 13  1  0  0  0  0
 13 14  1  0  0  0  0
 13 32  1  0  0  0  0
 14 18  1  0  0  0  0
 14 15  1  0  0  0  0
 14 33  1  0  0  0  0
 15 16  1  0  0  0  0
 15 34  1  0  0  0  0
 15 35  1  0  0  0  0
 16 17  1  0  0  0  0
 16 36  1  0  0  0  0
 16 37  1  0  0  0  0
 17 18  1  0  0  0  0
 17 38  1  0  0  0  0
 17 39  1  0  0  0  0
 18 19  1  0  0  0  0
 18 20  1  0  0  0  0
 19 40  1  0  0  0  0
 19 41  1  0  0  0  0
 19 42  1  0  0  0  0
 20 43  1  0  0  0  0
 20 44  1  0  0  0  0
 20 45  1  0  0  0  0
M  END
> <s_m_source_file>
AV-unprocessed.smi

> <i_m_source_file_index>
888

> <i_lp_mmshare_version>
43012

> <i_f3d_flags>
0

> <s_epik_input>
W0NIM11bQ0gyXWMxbm5bY0hdbjFbQ0gyXVtDSDJdW05IXUMoPU8pW05IXVtDQEBIXShDMihbQ0gzXSlbQ0gzXSlbQ0gyXVtDSDJdW0NIMl0y

> <s_epik_cmdline>
J2VwaWtfcHl0aG9uJywgJy1waCcsICc3LjAnLCAnLXRuJywgJzgnLCAnLW1hJywgJzIwMCcsICctbWV0YWxfYmluZGluZycsICctaW1hZScsICc8aW5maWxlLm1hZT4nLCAnLW9tYWUnLCAnPG91dGZpbGUubWFlPic=

> <r_lp_tautomer_probability>
1

> <r_epik_Ionization_Penalty>
0.000379534

> <r_epik_Ionization_Penalty_Charging>
0

> <r_epik_Ionization_Penalty_Neutral>
0.000379534

> <r_epik_State_Penalty>
-0

> <r_epik_Charging_Adjusted_Penalty>
0

> <i_epik_Tot_Q>
0

> <i_epik_Tot_abs_Q>
0

> <r_epik_Metal_State_Penalty>
-0

> <b_epik_Metal_Only>
0

> <s_lp_Force_Field>
OPLS_2005

> <r_lp_Energy>
32.1677

> <b_lp_Chiralities_Consistent>
1

> <s_lp_Variant>
AV-unprocessed.smi:888-2

> <Gold.Version>
5.8.1

> <Gold.Id.Protein>
6NUR|6NUR_protein|mol2

> <Gold.PLP.Fitness>
44.5451

> <Gold.PLP.PLP>
-34.8146

> <Gold.PLP.part.hbond>
-4.2996

> <Gold.PLP.part.metal>
0.0000

> <Gold.PLP.part.buried>
-3.9326

> <Gold.PLP.part.nonpolar>
-26.5460

> <Gold.PLP.part.repulsive>
0.0861

> <Gold.PLP.ligand.clash>
0.0000

> <Gold.PLP.ligand.torsion>
0.6381

> <Gold.PLP.Chemscore.Hbond>
2.7280

> <Gold.PLP.Chemscore.CHOScore>
0.9328

> <Gold.PLP.Chemscore.Metal>
0.0000

> <Gold.Chemscore.Hbonds>
donor molecule, donor type, donor heavy atom, donor atom, acceptor molecule, acceptor atom, score
      L1  H    10    31       P1  7948  0.99
      L1  H    13    32       P1  7948  0.75
      P1  H  7997  8008       L1     4  1.00
      L1  C     6    26       P1  7949  0.78

> <Gold.PLP.Chemscore.Internal.Correction>
0.0242

> <Gold.Rescore>
     Score         DG    S(hbond)    S(metal)    S(lipo)     H(rot)  DE(clash)    DE(int)     intcor
     15.34     -15.99       2.69        0.00      57.54       2.03       0.07       0.59       ----

> <Gold.Chemscore.Fitness>
15.3373

> <Gold.Chemscore.DG>
-15.9942

> <Gold.Chemscore.ZeroCoef>
-5.4800

> <Gold.Chemscore.Hbond>
2.6876

> <Gold.Chemscore.Metal>
0.0000

> <Gold.Chemscore.Lipo>
57.5443

> <Gold.Chemscore.Internal_Hbond>
0.0000

> <Gold.Chemscore.DEClash>
0.0700

> <Gold.Chemscore.DEInternal>
0.5869

> <Gold.Chemscore.Rot>
2.0293

> <Gold.Chemscore.Internal.Correction>
   9.000000E+99

> <Gold.Chemscore.Hbonds>
donor molecule, donor type, donor heavy atom, donor atom, acceptor molecule, acceptor atom, score
      L1  H    10    31       P1  7948  0.92
      L1  H    13    32       P1  7948  0.72
      P1  H  7997  8008       L1     4  0.75

> <Gold.Chemscore.Hbond.Weighted>
-8.9766

> <Gold.Chemscore.Metal.Weighted>
-0.0000

> <Gold.Chemscore.Lipo.Weighted>
-6.7327

> <Gold.Chemscore.Internal_Hbond.Weighted>
0.0000

> <Gold.Chemscore.DEClash.Weighted>
0.0700

> <Gold.Chemscore.DEInternal.Weighted>
0.5869

> <Gold.Chemscore.Rot.Weighted>
5.1950

> <Gold.Chemscore.Internal.Correction.Weighted>
   9.000000E+99

> <Gold.Protein.RotatedTorsions>
[ 6907 6896 6895 6894 ] final   36.52 input  -60.11 | X-H torsion
[ 7974 7965 7964 7962 ] final  165.24 input  175.53 | X-H torsion
[ 8008 7997 7996 7995 ] final  -19.66 input   59.86 | X-H torsion
[ 10167 10162 10161 10158 ] final  -83.51 input  -65.29 | X-H torsion
[ 10718 10713 10712 10709 ] final -102.26 input   66.30 | X-H torsion
[ 10763 10752 10751 10750 ] final  -14.49 input  -60.55 | X-H torsion
[ 11005 11000 10999 10996 ] final   63.18 input  -57.11 | X-H torsion

> <Gold.Protein.ActiveResidues>
 VAL166  LYS551  ARG553  GLY616  TRP617  ASP618  TYR619  PRO620  LYS621  CYS622 
 ASP623  PHE694  ASN695  SER759  ASP760  ASP761  ALA762  ILE779  LEU786  VAL792 
 PHE793  MET794  SER795  GLU796  ALA797  LYS798  CYS799  TRP800  GLU811  SER814 

> <Gold.Protein.RotatedAtoms>
  152.1309  134.9136  160.0558 H   0  0  0  0  0  0  0  0  0  0  0  0  # atno 6907 bound_to 6896
  152.0241  133.3905  159.4278 H   0  0  0  0  0  0  0  0  0  0  0  0  # atno 6908 bound_to 6896
  150.6856  134.3515  159.4955 H   0  0  0  0  0  0  0  0  0  0  0  0  # atno 6909 bound_to 6896
  144.7511  139.8441  143.6366 H   0  0  0  0  0  0  0  0  0  0  0  0  # atno 7974 bound_to 7965
  154.4821  140.2083  155.9738 H   0  0  0  0  0  0  0  0  0  0  0  0  # atno 8008 bound_to 7997
  156.1181  140.3218  155.8138 H   0  0  0  0  0  0  0  0  0  0  0  0  # atno 8009 bound_to 7997
  155.4516  140.0517  157.2991 H   0  0  0  0  0  0  0  0  0  0  0  0  # atno 8010 bound_to 7997
  140.4220  143.2581  151.8877 H   0  0  0  0  0  0  0  0  0  0  0  0  # atno 10167 bound_to 10162
  156.0223  130.5412  150.7083 H   0  0  0  0  0  0  0  0  0  0  0  0  # atno 10718 bound_to 10713
  153.5290  135.7015  153.5693 H   0  0  0  0  0  0  0  0  0  0  0  0  # atno 10763 bound_to 10752
  153.3709  135.3945  155.1787 H   0  0  0  0  0  0  0  0  0  0  0  0  # atno 10764 bound_to 10752
  154.8687  135.3811  154.4785 H   0  0  0  0  0  0  0  0  0  0  0  0  # atno 10765 bound_to 10752
  140.0042  134.6396  155.9882 H   0  0  0  0  0  0  0  0  0  0  0  0  # atno 11005 bound_to 11000
  146.1462  139.4532  143.0078 LP  0  0  0  0  0  0  0  0  0  0  0  0  # atno 17320 bound_to 7965
  145.6942  141.0155  143.1539 LP  0  0  0  0  0  0  0  0  0  0  0  0  # atno 17321 bound_to 7965
  139.4783  144.5427  151.8503 LP  0  0  0  0  0  0  0  0  0  0  0  0  # atno 17342 bound_to 10162
  140.4523  144.1837  150.5898 LP  0  0  0  0  0  0  0  0  0  0  0  0  # atno 17343 bound_to 10162
  157.4727  131.0895  151.0624 LP  0  0  0  0  0  0  0  0  0  0  0  0  # atno 17370 bound_to 10713
  157.1080  130.6009  149.5475 LP  0  0  0  0  0  0  0  0  0  0  0  0  # atno 17371 bound_to 10713
  141.1664  133.6537  156.4496 LP  0  0  0  0  0  0  0  0  0  0  0  0  # atno 17394 bound_to 11000
  140.4672  134.6786  157.5113 LP  0  0  0  0  0  0  0  0  0  0  0  0  # atno 17395 bound_to 11000

$$$$
