AV-unprocessed.smi:2157|AV-procd|sdf|8783|dock1
  -GOLD-   2272011563D 1   1.00000     0.00000
 Structure written by MMmdl.
 41 42  0  0  0  0  0  0  0  0  1 V2000
  144.0019  146.1939  157.8929 C   0  0  0  0  0  0  0  0  0  0  0  0
  145.0928  145.4351  158.6617 C   0  0  2  0  0  0  0  0  0  0  0  0
  144.6950  143.9655  158.8969 C   0  0  0  0  0  0  0  0  0  0  0  0
  145.7818  143.2033  159.6706 C   0  0  0  0  0  0  0  0  0  0  0  0
  146.1049  143.8947  161.0055 C   0  0  0  0  0  0  0  0  0  0  0  0
  146.4956  145.3755  160.8133 C   0  0  1  0  0  0  0  0  0  0  0  0
  147.8026  145.5059  160.1712 N   0  0  0  0  0  0  0  0  0  0  0  0
  148.9447  144.9548  160.6088 C   0  0  0  0  0  0  0  0  0  0  0  0
  149.0116  144.2505  161.6172 O   0  0  0  0  0  0  0  0  0  0  0  0
  150.1917  145.2285  159.7570 C   0  0  0  0  0  0  0  0  0  0  0  0
  150.9282  144.0077  159.4056 N   0  0  0  0  0  0  0  0  0  0  0  0
  150.6396  143.3485  158.2249 C   0  0  0  0  0  0  0  0  0  0  0  0
  151.2572  142.2115  157.8364 C   0  0  0  0  0  0  0  0  0  0  0  0
  152.2916  141.6002  158.6625 C   0  0  0  0  0  0  0  0  0  0  0  0
  152.8714  140.5605  158.3481 O   0  0  0  0  0  0  0  0  0  0  0  0
  152.5720  142.2994  159.8614 N   0  0  0  0  0  0  0  0  0  0  0  0
  153.5757  141.7770  160.7651 C   0  0  0  0  0  0  0  0  0  0  0  0
  151.9175  143.4838  160.2648 C   0  0  0  0  0  0  0  0  0  0  0  0
  152.1895  144.0457  161.3289 O   0  0  0  0  0  0  0  0  0  0  0  0
  145.4231  146.1284  160.0005 C   0  0  0  0  0  0  0  0  0  0  0  0
  143.0677  146.2225  158.4546 H   0  0  0  0  0  0  0  0  0  0  0  0
  143.7978  145.7215  156.9318 H   0  0  0  0  0  0  0  0  0  0  0  0
  144.3036  147.2230  157.6960 H   0  0  0  0  0  0  0  0  0  0  0  0
  145.9910  145.4446  158.0428 H   0  0  0  0  0  0  0  0  0  0  0  0
  143.7566  143.9215  159.4516 H   0  0  0  0  0  0  0  0  0  0  0  0
  144.5122  143.4705  157.9426 H   0  0  0  0  0  0  0  0  0  0  0  0
  145.4558  142.1794  159.8555 H   0  0  0  0  0  0  0  0  0  0  0  0
  146.6846  143.1334  159.0630 H   0  0  0  0  0  0  0  0  0  0  0  0
  145.2286  143.8400  161.6526 H   0  0  0  0  0  0  0  0  0  0  0  0
  146.8955  143.3529  161.5257 H   0  0  0  0  0  0  0  0  0  0  0  0
  146.5567  145.8476  161.7954 H   0  0  0  0  0  0  0  0  0  0  0  0
  147.8402  146.0639  159.3305 H   0  0  0  0  0  0  0  0  0  0  0  0
  149.8763  145.7460  158.8503 H   0  0  0  0  0  0  0  0  0  0  0  0
  150.8498  145.9251  160.2796 H   0  0  0  0  0  0  0  0  0  0  0  0
  149.8766  143.7588  157.5795 H   0  0  0  0  0  0  0  0  0  0  0  0
  150.9802  141.7457  156.9023 H   0  0  0  0  0  0  0  0  0  0  0  0
  154.2842  142.5813  160.9716 H   0  0  0  0  0  0  0  0  0  0  0  0
  154.1093  140.9368  160.3223 H   0  0  0  0  0  0  0  0  0  0  0  0
  153.0555  141.4614  161.6709 H   0  0  0  0  0  0  0  0  0  0  0  0
  145.7462  147.1552  159.8221 H   0  0  0  0  0  0  0  0  0  0  0  0
  144.5140  146.1994  160.5994 H   0  0  0  0  0  0  0  0  0  0  0  0
  1  2  1  0  0  0  0
  1 21  1  0  0  0  0
  1 22  1  0  0  0  0
  1 23  1  0  0  0  0
  2 20  1  0  0  0  0
  2  3  1  0  0  0  0
  2 24  1  0  0  0  0
  3  4  1  0  0  0  0
  3 25  1  0  0  0  0
  3 26  1  0  0  0  0
  4  5  1  0  0  0  0
  4 27  1  0  0  0  0
  4 28  1  0  0  0  0
  5  6  1  0  0  0  0
  5 29  1  0  0  0  0
  5 30  1  0  0  0  0
  6  7  1  0  0  0  0
  6 20  1  0  0  0  0
  6 31  1  0  0  0  0
  7  8  1  0  0  0  0
  7 32  1  0  0  0  0
  8  9  2  0  0  0  0
  8 10  1  0  0  0  0
 10 11  1  0  0  0  0
 10 33  1  0  0  0  0
 10 34  1  0  0  0  0
 11 18  1  0  0  0  0
 11 12  1  0  0  0  0
 12 13  2  0  0  0  0
 12 35  1  0  0  0  0
 13 14  1  0  0  0  0
 13 36  1  0  0  0  0
 14 15  2  0  0  0  0
 14 16  1  0  0  0  0
 16 17  1  0  0  0  0
 16 18  1  0  0  0  0
 17 37  1  0  0  0  0
 17 38  1  0  0  0  0
 17 39  1  0  0  0  0
 18 19  2  0  0  0  0
 20 40  1  0  0  0  0
 20 41  1  0  0  0  0
M  END
> <s_m_source_file>
AV-unprocessed.smi

> <i_m_source_file_index>
2157

> <i_lp_mmshare_version>
43012

> <i_f3d_flags>
0

> <s_epik_input>
W0NIM11bQ0BASF0xW0NIMl1bQ0gyXVtDSDJdW0NASF0oW0NIMl0xKVtOSF1DKD1PKVtDSDJdbjJbY0hdW2NIXWMoPU8pbihbQ0gzXSljMj1P

> <s_epik_cmdline>
J2VwaWtfcHl0aG9uJywgJy1waCcsICc3LjAnLCAnLXRuJywgJzgnLCAnLW1hJywgJzIwMCcsICctbWV0YWxfYmluZGluZycsICctaW1hZScsICc8aW5maWxlLm1hZT4nLCAnLW9tYWUnLCAnPG91dGZpbGUubWFlPic=

> <r_lp_tautomer_probability>
1

> <r_epik_Ionization_Penalty>
3.1838e-08

> <r_epik_Ionization_Penalty_Charging>
1.27911e-08

> <r_epik_Ionization_Penalty_Neutral>
1.90469e-08

> <r_epik_State_Penalty>
-0

> <r_epik_Charging_Adjusted_Penalty>
1.27911e-08

> <i_epik_Tot_Q>
0

> <i_epik_Tot_abs_Q>
0

> <r_epik_Metal_State_Penalty>
-0

> <b_epik_Metal_Only>
0

> <s_lp_Force_Field>
OPLS_2005

> <r_lp_Energy>
16.0352

> <b_lp_Chiralities_Consistent>
1

> <s_lp_Variant>
AV-unprocessed.smi:2157-1

> <Gold.Version>
5.8.1

> <Gold.Id.Protein>
6NUR|6NUR_protein|mol2

> <Gold.PLP.Fitness>
44.4745

> <Gold.PLP.PLP>
-37.8086

> <Gold.PLP.part.hbond>
-2.6331

> <Gold.PLP.part.metal>
0.0000

> <Gold.PLP.part.buried>
-6.1458

> <Gold.PLP.part.nonpolar>
-30.3897

> <Gold.PLP.part.repulsive>
0.9303

> <Gold.PLP.ligand.clash>
0.0000

> <Gold.PLP.ligand.torsion>
0.4680

> <Gold.PLP.Chemscore.Hbond>
1.5304

> <Gold.PLP.Chemscore.CHOScore>
1.0000

> <Gold.PLP.Chemscore.Metal>
0.0000

> <Gold.Chemscore.Hbonds>
donor molecule, donor type, donor heavy atom, donor atom, acceptor molecule, acceptor atom, score
      L1  H     7    32       P1  8029  0.86
      P1  H  6933  6944       L1     9  0.51
      P1  H  7997  8009       L1    15  0.09
      L1  C    12    35       P1  8028  1.00

> <Gold.PLP.Chemscore.Internal.Correction>
0.0107

> <Gold.Rescore>
     Score         DG    S(hbond)    S(metal)    S(lipo)     H(rot)  DE(clash)    DE(int)     intcor
     15.55     -16.12       2.31        0.00      58.31       1.52       0.14       0.43       ----

> <Gold.Chemscore.Fitness>
15.5462

> <Gold.Chemscore.DG>
-16.1156

> <Gold.Chemscore.ZeroCoef>
-5.4800

> <Gold.Chemscore.Hbond>
2.3099

> <Gold.Chemscore.Metal>
0.0000

> <Gold.Chemscore.Lipo>
58.3106

> <Gold.Chemscore.Internal_Hbond>
0.0000

> <Gold.Chemscore.DEClash>
0.1441

> <Gold.Chemscore.DEInternal>
0.4252

> <Gold.Chemscore.Rot>
1.5242

> <Gold.Chemscore.Internal.Correction>
   9.000000E+99

> <Gold.Chemscore.Hbonds>
donor molecule, donor type, donor heavy atom, donor atom, acceptor molecule, acceptor atom, score
      L1  H     7    32       P1  8029  0.80
      P1  H  6933  6944       L1     9  0.50
      P1  H  7997  8009       L1    15  0.10

> <Gold.Chemscore.Hbond.Weighted>
-7.7151

> <Gold.Chemscore.Metal.Weighted>
-0.0000

> <Gold.Chemscore.Lipo.Weighted>
-6.8223

> <Gold.Chemscore.Internal_Hbond.Weighted>
0.0000

> <Gold.Chemscore.DEClash.Weighted>
0.1441

> <Gold.Chemscore.DEInternal.Weighted>
0.4252

> <Gold.Chemscore.Rot.Weighted>
3.9019

> <Gold.Chemscore.Internal.Correction.Weighted>
   9.000000E+99

> <Gold.Protein.RotatedTorsions>
[ 6907 6896 6895 6894 ] final   89.48 input  -60.11 | X-H torsion
[ 7974 7965 7964 7962 ] final  -66.73 input  175.53 | X-H torsion
[ 8008 7997 7996 7995 ] final -173.57 input   59.86 | X-H torsion
[ 10167 10162 10161 10158 ] final   44.09 input  -65.29 | X-H torsion
[ 10718 10713 10712 10709 ] final   97.18 input   66.30 | X-H torsion
[ 10763 10752 10751 10750 ] final -145.91 input  -60.55 | X-H torsion
[ 11005 11000 10999 10996 ] final  173.23 input  -57.11 | X-H torsion

> <Gold.Protein.ActiveResidues>
 VAL166  LYS551  ARG553  GLY616  TRP617  ASP618  TYR619  PRO620  LYS621  CYS622 
 ASP623  PHE694  ASN695  SER759  ASP760  ASP761  ALA762  ILE779  LEU786  VAL792 
 PHE793  MET794  SER795  GLU796  ALA797  LYS798  CYS799  TRP800  GLU811  SER814 

> <Gold.Protein.RotatedAtoms>
  152.5436  134.1960  159.8692 H   0  0  0  0  0  0  0  0  0  0  0  0  # atno 6907 bound_to 6896
  151.1952  133.4637  159.2603 H   0  0  0  0  0  0  0  0  0  0  0  0  # atno 6908 bound_to 6896
  151.1044  135.0003  159.8519 H   0  0  0  0  0  0  0  0  0  0  0  0  # atno 6909 bound_to 6896
  145.7381  140.8966  143.0544 H   0  0  0  0  0  0  0  0  0  0  0  0  # atno 7974 bound_to 7965
  155.9591  140.1141  157.0911 H   0  0  0  0  0  0  0  0  0  0  0  0  # atno 8008 bound_to 7997
  154.4127  140.1185  156.5221 H   0  0  0  0  0  0  0  0  0  0  0  0  # atno 8009 bound_to 7997
  155.6744  140.3473  155.4833 H   0  0  0  0  0  0  0  0  0  0  0  0  # atno 8010 bound_to 7997
  140.3378  144.2508  150.6159 H   0  0  0  0  0  0  0  0  0  0  0  0  # atno 10167 bound_to 10162
  157.6916  131.0601  150.4604 H   0  0  0  0  0  0  0  0  0  0  0  0  # atno 10718 bound_to 10713
  154.8361  135.3400  154.6578 H   0  0  0  0  0  0  0  0  0  0  0  0  # atno 10763 bound_to 10752
  153.7193  135.6959  153.5021 H   0  0  0  0  0  0  0  0  0  0  0  0  # atno 10764 bound_to 10752
  153.2393  135.4390  155.0634 H   0  0  0  0  0  0  0  0  0  0  0  0  # atno 10765 bound_to 10752
  140.3383  134.7299  157.4184 H   0  0  0  0  0  0  0  0  0  0  0  0  # atno 11005 bound_to 11000
  144.6877  139.9423  143.7475 LP  0  0  0  0  0  0  0  0  0  0  0  0  # atno 17320 bound_to 7965
  146.0474  139.3478  143.0660 LP  0  0  0  0  0  0  0  0  0  0  0  0  # atno 17321 bound_to 7965
  140.5337  143.2238  151.8197 LP  0  0  0  0  0  0  0  0  0  0  0  0  # atno 17342 bound_to 10162
  139.4845  144.4688  151.9451 LP  0  0  0  0  0  0  0  0  0  0  0  0  # atno 17343 bound_to 10162
  156.4949  130.4104  149.6385 LP  0  0  0  0  0  0  0  0  0  0  0  0  # atno 17370 bound_to 10713
  156.3382  130.7368  151.2309 LP  0  0  0  0  0  0  0  0  0  0  0  0  # atno 17371 bound_to 10713
  140.0803  134.5741  155.8548 LP  0  0  0  0  0  0  0  0  0  0  0  0  # atno 17394 bound_to 11000
  141.2045  133.6640  156.6127 LP  0  0  0  0  0  0  0  0  0  0  0  0  # atno 17395 bound_to 11000

$$$$
