AV-unprocessed.smi:2300|AV-procd|sdf|9232|dock1
  -GOLD-   2272012453D 1   1.00000     0.00000
 Structure written by MMmdl.
 51 52  0  0  0  0  0  0  0  0  1 V2000
  146.1121  143.2831  156.3171 C   0  0  0  0  0  0  0  0  0  0  0  0
  146.6743  142.2171  155.3827 C   0  0  0  0  0  0  0  0  0  0  0  0
  145.9496  141.3108  154.9728 O   0  0  0  0  0  0  0  0  0  0  0  0
  147.9694  142.3365  155.0551 N   0  0  0  0  0  0  0  0  0  0  0  0
  148.6969  141.4321  154.1711 C   0  0  0  0  0  0  0  0  0  0  0  0
  149.6393  140.5037  154.9554 C   0  0  2  0  0  0  0  0  0  0  0  0
  150.5507  141.2941  155.9132 C   0  0  0  0  0  0  0  0  0  0  0  0
  151.5039  140.4012  156.5695 N   0  0  0  0  0  0  0  0  0  0  0  0
  152.2350  140.9094  157.6649 C   0  0  0  0  0  0  0  0  0  0  0  0
  151.9283  142.1740  158.2211 C   0  0  0  0  0  0  0  0  0  0  0  0
  152.7123  142.6011  159.3138 C   0  0  0  0  0  0  0  0  0  0  0  0
  152.4694  143.9466  159.9828 C   0  0  0  0  0  0  0  0  0  0  0  0
  152.7194  145.1165  159.0183 C   0  0  0  0  0  0  0  0  0  0  0  0
  153.2665  144.0858  161.2892 C   0  0  0  0  0  0  0  0  0  0  0  0
  153.7117  141.8381  159.8084 N   0  0  0  0  0  0  0  0  0  0  0  0
  153.9285  140.6622  159.2128 C   0  0  0  0  0  0  0  0  0  0  0  0
  155.0572  139.8032  159.7672 C   0  0  0  0  0  0  0  0  0  0  0  0
  154.5763  138.3925  160.1406 C   0  0  0  0  0  0  0  0  0  0  0  0
  155.8066  140.5060  160.9098 C   0  0  0  0  0  0  0  0  0  0  0  0
  153.2477  140.1662  158.1755 N   0  0  0  0  0  0  0  0  0  0  0  0
  152.2548  139.5658  155.6359 C   0  0  0  0  0  0  0  0  0  0  0  0
  151.2978  138.8449  154.6717 C   0  0  0  0  0  0  0  0  0  0  0  0
  150.4573  139.7956  154.0268 O   0  0  0  0  0  0  0  0  0  0  0  0
  146.4338  144.2778  156.0066 H   0  0  0  0  0  0  0  0  0  0  0  0
  146.4560  143.1109  157.3372 H   0  0  0  0  0  0  0  0  0  0  0  0
  145.0217  143.2630  156.3151 H   0  0  0  0  0  0  0  0  0  0  0  0
  148.4862  143.1162  155.4348 H   0  0  0  0  0  0  0  0  0  0  0  0
  147.9726  140.8420  153.6091 H   0  0  0  0  0  0  0  0  0  0  0  0
  149.2599  142.0108  153.4368 H   0  0  0  0  0  0  0  0  0  0  0  0
  149.0451  139.7920  155.5321 H   0  0  0  0  0  0  0  0  0  0  0  0
  151.0969  142.0639  155.3662 H   0  0  0  0  0  0  0  0  0  0  0  0
  149.9349  141.7981  156.6594 H   0  0  0  0  0  0  0  0  0  0  0  0
  151.1436  142.8007  157.8252 H   0  0  0  0  0  0  0  0  0  0  0  0
  151.4135  143.9841  160.2543 H   0  0  0  0  0  0  0  0  0  0  0  0
  152.0958  145.0294  158.1279 H   0  0  0  0  0  0  0  0  0  0  0  0
  153.7600  145.1517  158.6941 H   0  0  0  0  0  0  0  0  0  0  0  0
  152.4878  146.0711  159.4911 H   0  0  0  0  0  0  0  0  0  0  0  0
  153.0254  143.2792  161.9820 H   0  0  0  0  0  0  0  0  0  0  0  0
  153.0396  145.0282  161.7883 H   0  0  0  0  0  0  0  0  0  0  0  0
  154.3414  144.0585  161.1069 H   0  0  0  0  0  0  0  0  0  0  0  0
  155.7849  139.6719  158.9640 H   0  0  0  0  0  0  0  0  0  0  0  0
  154.1228  137.8947  159.2830 H   0  0  0  0  0  0  0  0  0  0  0  0
  153.8351  138.4223  160.9398 H   0  0  0  0  0  0  0  0  0  0  0  0
  155.4060  137.7730  160.4819 H   0  0  0  0  0  0  0  0  0  0  0  0
  156.1989  141.4700  160.5851 H   0  0  0  0  0  0  0  0  0  0  0  0
  156.6492  139.9057  161.2537 H   0  0  0  0  0  0  0  0  0  0  0  0
  155.1542  140.6822  161.7657 H   0  0  0  0  0  0  0  0  0  0  0  0
  152.9429  140.1985  155.0739 H   0  0  0  0  0  0  0  0  0  0  0  0
  152.8589  138.8221  156.1534 H   0  0  0  0  0  0  0  0  0  0  0  0
  151.8660  138.3036  153.9154 H   0  0  0  0  0  0  0  0  0  0  0  0
  150.6923  138.1082  155.2021 H   0  0  0  0  0  0  0  0  0  0  0  0
  1  2  1  0  0  0  0
  1 24  1  0  0  0  0
  1 25  1  0  0  0  0
  1 26  1  0  0  0  0
  2  3  2  0  0  0  0
  2  4  1  0  0  0  0
  4  5  1  0  0  0  0
  4 27  1  0  0  0  0
  5  6  1  0  0  0  0
  5 28  1  0  0  0  0
  5 29  1  0  0  0  0
  6 23  1  0  0  0  0
  6  7  1  0  0  0  0
  6 30  1  0  0  0  0
  7  8  1  0  0  0  0
  7 31  1  0  0  0  0
  7 32  1  0  0  0  0
  8  9  1  0  0  0  0
  8 21  1  0  0  0  0
  9 20  1  0  0  0  0
  9 10  2  0  0  0  0
 10 11  1  0  0  0  0
 10 33  1  0  0  0  0
 11 12  1  0  0  0  0
 11 15  2  0  0  0  0
 12 13  1  0  0  0  0
 12 14  1  0  0  0  0
 12 34  1  0  0  0  0
 13 35  1  0  0  0  0
 13 36  1  0  0  0  0
 13 37  1  0  0  0  0
 14 38  1  0  0  0  0
 14 39  1  0  0  0  0
 14 40  1  0  0  0  0
 15 16  1  0  0  0  0
 16 17  1  0  0  0  0
 16 20  2  0  0  0  0
 17 18  1  0  0  0  0
 17 19  1  0  0  0  0
 17 41  1  0  0  0  0
 18 42  1  0  0  0  0
 18 43  1  0  0  0  0
 18 44  1  0  0  0  0
 19 45  1  0  0  0  0
 19 46  1  0  0  0  0
 19 47  1  0  0  0  0
 21 22  1  0  0  0  0
 21 48  1  0  0  0  0
 21 49  1  0  0  0  0
 22 23  1  0  0  0  0
 22 50  1  0  0  0  0
 22 51  1  0  0  0  0
M  END
> <s_m_source_file>
AV-unprocessed.smi

> <i_m_source_file_index>
2300

> <i_lp_mmshare_version>
43012

> <i_f3d_flags>
0

> <s_epik_input>
W0NIM11DKD1PKVtOSF1bQ0gyXVtDQEBIXTFbQ0gyXU4oW0NIMl1bQ0gyXU8xKWMyW2NIXWMoW0NIXShbQ0gzXSlbQ0gzXSluYyhuMilbQ0hdKFtDSDNdKVtDSDNd

> <s_epik_cmdline>
J2VwaWtfcHl0aG9uJywgJy1waCcsICc3LjAnLCAnLXRuJywgJzgnLCAnLW1hJywgJzIwMCcsICctbWV0YWxfYmluZGluZycsICctaW1hZScsICc8aW5maWxlLm1hZT4nLCAnLW9tYWUnLCAnPG91dGZpbGUubWFlPic=

> <r_lp_tautomer_probability>
1

> <r_epik_Ionization_Penalty>
0.0035465

> <r_epik_Ionization_Penalty_Charging>
0

> <r_epik_Ionization_Penalty_Neutral>
0.0035465

> <r_epik_State_Penalty>
0.00247846

> <r_epik_Charging_Adjusted_Penalty>
0.00247846

> <i_epik_Tot_Q>
0

> <i_epik_Tot_abs_Q>
0

> <r_epik_Metal_State_Penalty>
-0

> <b_epik_Metal_Only>
0

> <s_lp_Force_Field>
OPLS_2005

> <r_lp_Energy>
0.953056

> <b_lp_Chiralities_Consistent>
1

> <s_lp_Variant>
AV-unprocessed.smi:2300-1

> <Gold.Version>
5.8.1

> <Gold.Id.Protein>
6NUR|6NUR_protein|mol2

> <Gold.PLP.Fitness>
54.4669

> <Gold.PLP.PLP>
-47.3734

> <Gold.PLP.part.hbond>
-2.7632

> <Gold.PLP.part.metal>
0.0000

> <Gold.PLP.part.buried>
-5.0441

> <Gold.PLP.part.nonpolar>
-39.2017

> <Gold.PLP.part.repulsive>
1.0726

> <Gold.PLP.ligand.clash>
0.0000

> <Gold.PLP.ligand.torsion>
0.7125

> <Gold.PLP.Chemscore.Hbond>
2.6500

> <Gold.PLP.Chemscore.CHOScore>
0.0000

> <Gold.PLP.Chemscore.Metal>
0.0000

> <Gold.Chemscore.Hbonds>
donor molecule, donor type, donor heavy atom, donor atom, acceptor molecule, acceptor atom, score
      L1  H     4    27       P1  8028  1.00
      P1  H  7989  7998       L1    23  1.00
      P1  H  7997  8010       L1    20  0.93

> <Gold.PLP.Chemscore.Internal.Correction>
0.5684

> <Gold.Rescore>
     Score         DG    S(hbond)    S(metal)    S(lipo)     H(rot)  DE(clash)    DE(int)     intcor
     18.79     -19.46       1.61        0.00     113.35       1.82       0.09       0.59       ----

> <Gold.Chemscore.Fitness>
18.7919

> <Gold.Chemscore.DG>
-19.4644

> <Gold.Chemscore.ZeroCoef>
-5.4800

> <Gold.Chemscore.Hbond>
1.6080

> <Gold.Chemscore.Metal>
0.0000

> <Gold.Chemscore.Lipo>
113.3478

> <Gold.Chemscore.Internal_Hbond>
0.0000

> <Gold.Chemscore.DEClash>
0.0862

> <Gold.Chemscore.DEInternal>
0.5863

> <Gold.Chemscore.Rot>
1.8156

> <Gold.Chemscore.Internal.Correction>
   9.000000E+99

> <Gold.Chemscore.Hbonds>
donor molecule, donor type, donor heavy atom, donor atom, acceptor molecule, acceptor atom, score
      L1  H     4    27       P1  8028  0.98
      P1  H  7989  7998       L1    23  0.15
      P1  H  7997  8010       L1    20  0.15

> <Gold.Chemscore.Hbond.Weighted>
-5.3708

> <Gold.Chemscore.Metal.Weighted>
-0.0000

> <Gold.Chemscore.Lipo.Weighted>
-13.2617

> <Gold.Chemscore.Internal_Hbond.Weighted>
0.0000

> <Gold.Chemscore.DEClash.Weighted>
0.0862

> <Gold.Chemscore.DEInternal.Weighted>
0.5863

> <Gold.Chemscore.Rot.Weighted>
4.6481

> <Gold.Chemscore.Internal.Correction.Weighted>
   9.000000E+99

> <Gold.Protein.RotatedTorsions>
[ 6907 6896 6895 6894 ] final -165.08 input  -60.11 | X-H torsion
[ 7974 7965 7964 7962 ] final  157.10 input  175.53 | X-H torsion
[ 8008 7997 7996 7995 ] final   36.61 input   59.86 | X-H torsion
[ 10167 10162 10161 10158 ] final   16.56 input  -65.29 | X-H torsion
[ 10718 10713 10712 10709 ] final  -17.35 input   66.30 | X-H torsion
[ 10763 10752 10751 10750 ] final  118.81 input  -60.55 | X-H torsion
[ 11005 11000 10999 10996 ] final -158.63 input  -57.11 | X-H torsion

> <Gold.Protein.ActiveResidues>
 VAL166  LYS551  ARG553  GLY616  TRP617  ASP618  TYR619  PRO620  LYS621  CYS622 
 ASP623  PHE694  ASN695  SER759  ASP760  ASP761  ALA762  ILE779  LEU786  VAL792 
 PHE793  MET794  SER795  GLU796  ALA797  LYS798  CYS799  TRP800  GLU811  SER814 

> <Gold.Protein.RotatedAtoms>
  151.4221  133.3695  159.2757 H   0  0  0  0  0  0  0  0  0  0  0  0  # atno 6907 bound_to 6896
  150.9286  134.8703  159.7547 H   0  0  0  0  0  0  0  0  0  0  0  0  # atno 6908 bound_to 6896
  152.5017  134.4164  159.9518 H   0  0  0  0  0  0  0  0  0  0  0  0  # atno 6909 bound_to 6896
  144.7923  139.7295  143.6216 H   0  0  0  0  0  0  0  0  0  0  0  0  # atno 7974 bound_to 7965
  155.1903  140.3307  155.4360 H   0  0  0  0  0  0  0  0  0  0  0  0  # atno 8008 bound_to 7997
  156.2445  140.1911  156.6946 H   0  0  0  0  0  0  0  0  0  0  0  0  # atno 8009 bound_to 7997
  154.6210  140.0595  156.9601 H   0  0  0  0  0  0  0  0  0  0  0  0  # atno 8010 bound_to 7997
  140.5788  143.9020  150.6772 H   0  0  0  0  0  0  0  0  0  0  0  0  # atno 10167 bound_to 10162
  156.5747  130.4758  149.6347 H   0  0  0  0  0  0  0  0  0  0  0  0  # atno 10718 bound_to 10713
  153.5734  135.3498  155.2846 H   0  0  0  0  0  0  0  0  0  0  0  0  # atno 10763 bound_to 10752
  154.8678  135.4164  154.2700 H   0  0  0  0  0  0  0  0  0  0  0  0  # atno 10764 bound_to 10752
  153.3471  135.7053  153.6889 H   0  0  0  0  0  0  0  0  0  0  0  0  # atno 10765 bound_to 10752
  140.6514  134.4446  157.5235 H   0  0  0  0  0  0  0  0  0  0  0  0  # atno 11005 bound_to 11000
  146.2179  139.5583  142.9637 LP  0  0  0  0  0  0  0  0  0  0  0  0  # atno 17320 bound_to 7965
  145.5762  141.0388  143.2147 LP  0  0  0  0  0  0  0  0  0  0  0  0  # atno 17321 bound_to 7965
  140.2514  143.3590  152.1402 LP  0  0  0  0  0  0  0  0  0  0  0  0  # atno 17342 bound_to 10162
  139.5158  144.6968  151.5608 LP  0  0  0  0  0  0  0  0  0  0  0  0  # atno 17343 bound_to 10162
  156.2684  130.7002  151.1792 LP  0  0  0  0  0  0  0  0  0  0  0  0  # atno 17370 bound_to 10713
  157.7340  131.0586  150.5546 LP  0  0  0  0  0  0  0  0  0  0  0  0  # atno 17371 bound_to 10713
  139.9044  134.8482  156.1764 LP  0  0  0  0  0  0  0  0  0  0  0  0  # atno 17394 bound_to 11000
  141.0533  133.6877  156.1814 LP  0  0  0  0  0  0  0  0  0  0  0  0  # atno 17395 bound_to 11000

$$$$
