AV-unprocessed.smi:2363|AV-procd|sdf|9415|dock3
  -GOLD-   2272013 53D 1   1.00000     0.00000
 Structure written by MMmdl.
 44 45  0  0  0  0  0  0  0  0  1 V2000
  151.8276  138.9283  156.4851 C   0  0  0  0  0  0  0  0  0  0  0  0
  152.0227  138.4115  155.0559 C   0  0  0  0  0  0  0  0  0  0  0  0
  150.6918  138.0877  154.3616 C   0  0  0  0  0  0  0  0  0  0  0  0
  149.8408  139.2606  154.2619 N   0  0  0  0  0  0  0  0  0  0  0  0
  150.2467  140.4317  154.8003 N   0  0  0  0  0  0  0  0  0  0  0  0
  149.2624  141.2852  154.5491 C   0  0  0  0  0  0  0  0  0  0  0  0
  148.1779  140.6936  153.8408 C   0  0  0  0  0  0  0  0  0  0  0  0
  148.5964  139.4004  153.6842 C   0  0  0  0  0  0  0  0  0  0  0  0
  147.9539  138.3624  153.0852 N   0  0  0  0  0  0  0  0  0  0  0  0
  146.6331  138.1745  152.9188 C   0  0  0  0  0  0  0  0  0  0  0  0
  145.7500  138.9565  153.2709 O   0  0  0  0  0  0  0  0  0  0  0  0
  146.3865  137.0075  152.3061 N   0  0  0  0  0  0  0  0  0  0  0  0
  145.0638  136.4944  151.9502 C   0  0  2  0  0  0  0  0  0  0  0  0
  144.2153  136.3683  153.2300 C   0  0  0  0  0  0  0  0  0  0  0  0
  145.2053  135.1591  151.1730 C   0  0  0  0  0  0  0  0  0  0  0  0
  143.8371  134.5289  150.8338 C   0  0  0  0  0  0  0  0  0  0  0  0
  144.0051  133.1746  150.1269 C   0  0  0  0  0  0  0  0  0  0  0  0
  144.7740  132.2947  150.9371 O   0  0  0  0  0  0  0  0  0  0  0  0
  146.0913  132.7763  151.1712 C   0  0  0  0  0  0  0  0  0  0  0  0
  146.0384  134.1091  151.9357 C   0  0  0  0  0  0  0  0  0  0  0  0
  152.7869  139.1520  156.9521 H   0  0  0  0  0  0  0  0  0  0  0  0
  151.3215  138.1875  157.1047 H   0  0  0  0  0  0  0  0  0  0  0  0
  151.2303  139.8403  156.4966 H   0  0  0  0  0  0  0  0  0  0  0  0
  152.5673  139.1572  154.4754 H   0  0  0  0  0  0  0  0  0  0  0  0
  152.6504  137.5197  155.0794 H   0  0  0  0  0  0  0  0  0  0  0  0
  150.8724  137.6970  153.3589 H   0  0  0  0  0  0  0  0  0  0  0  0
  150.1543  137.3118  154.9079 H   0  0  0  0  0  0  0  0  0  0  0  0
  149.3626  142.3052  154.8899 H   0  0  0  0  0  0  0  0  0  0  0  0
  147.2580  141.1568  153.5174 H   0  0  0  0  0  0  0  0  0  0  0  0
  148.5549  137.6359  152.7251 H   0  0  0  0  0  0  0  0  0  0  0  0
  147.1756  136.4303  152.0544 H   0  0  0  0  0  0  0  0  0  0  0  0
  144.5770  137.2145  151.2893 H   0  0  0  0  0  0  0  0  0  0  0  0
  143.1818  136.1060  153.0062 H   0  0  0  0  0  0  0  0  0  0  0  0
  144.1855  137.3108  153.7777 H   0  0  0  0  0  0  0  0  0  0  0  0
  144.6175  135.6086  153.9010 H   0  0  0  0  0  0  0  0  0  0  0  0
  145.7165  135.3685  150.2318 H   0  0  0  0  0  0  0  0  0  0  0  0
  143.2596  134.3883  151.7485 H   0  0  0  0  0  0  0  0  0  0  0  0
  143.2503  135.1897  150.1955 H   0  0  0  0  0  0  0  0  0  0  0  0
  143.0291  132.7233  149.9478 H   0  0  0  0  0  0  0  0  0  0  0  0
  144.4806  133.2997  149.1529 H   0  0  0  0  0  0  0  0  0  0  0  0
  146.6384  132.0337  151.7522 H   0  0  0  0  0  0  0  0  0  0  0  0
  146.6217  132.8920  150.2246 H   0  0  0  0  0  0  0  0  0  0  0  0
  147.0576  134.4610  152.0917 H   0  0  0  0  0  0  0  0  0  0  0  0
  145.6092  133.9426  152.9245 H   0  0  0  0  0  0  0  0  0  0  0  0
  1  2  1  0  0  0  0
  1 21  1  0  0  0  0
  1 22  1  0  0  0  0
  1 23  1  0  0  0  0
  2  3  1  0  0  0  0
  2 24  1  0  0  0  0
  2 25  1  0  0  0  0
  3  4  1  0  0  0  0
  3 26  1  0  0  0  0
  3 27  1  0  0  0  0
  4  8  1  0  0  0  0
  4  5  1  0  0  0  0
  5  6  2  0  0  0  0
  6  7  1  0  0  0  0
  6 28  1  0  0  0  0
  7  8  2  0  0  0  0
  7 29  1  0  0  0  0
  8  9  1  0  0  0  0
  9 10  1  0  0  0  0
  9 30  1  0  0  0  0
 10 11  2  0  0  0  0
 10 12  1  0  0  0  0
 12 13  1  0  0  0  0
 12 31  1  0  0  0  0
 13 14  1  0  0  0  0
 13 15  1  0  0  0  0
 13 32  1  0  0  0  0
 14 33  1  0  0  0  0
 14 34  1  0  0  0  0
 14 35  1  0  0  0  0
 15 20  1  0  0  0  0
 15 16  1  0  0  0  0
 15 36  1  0  0  0  0
 16 17  1  0  0  0  0
 16 37  1  0  0  0  0
 16 38  1  0  0  0  0
 17 18  1  0  0  0  0
 17 39  1  0  0  0  0
 17 40  1  0  0  0  0
 18 19  1  0  0  0  0
 19 20  1  0  0  0  0
 19 41  1  0  0  0  0
 19 42  1  0  0  0  0
 20 43  1  0  0  0  0
 20 44  1  0  0  0  0
M  END
> <s_m_source_file>
AV-unprocessed.smi

> <i_m_source_file_index>
2363

> <i_lp_mmshare_version>
43012

> <i_f3d_flags>
0

> <s_epik_input>
W0NIM11bQ0gyXVtDSDJdbjFuW2NIXVtjSF1jMVtOSF1DKD1PKVtOSF1bQ0BIXShbQ0gzXSlbQ0hdMltDSDJdW0NIMl1PW0NIMl1bQ0gyXTI=

> <s_epik_cmdline>
J2VwaWtfcHl0aG9uJywgJy1waCcsICc3LjAnLCAnLXRuJywgJzgnLCAnLW1hJywgJzIwMCcsICctbWV0YWxfYmluZGluZycsICctaW1hZScsICc8aW5maWxlLm1hZT4nLCAnLW9tYWUnLCAnPG91dGZpbGUubWFlPic=

> <r_lp_tautomer_probability>
1

> <r_epik_Ionization_Penalty>
3.26671e-05

> <r_epik_Ionization_Penalty_Charging>
0

> <r_epik_Ionization_Penalty_Neutral>
3.26671e-05

> <r_epik_State_Penalty>
-0

> <r_epik_Charging_Adjusted_Penalty>
0

> <i_epik_Tot_Q>
0

> <i_epik_Tot_abs_Q>
0

> <r_epik_Metal_State_Penalty>
-0

> <b_epik_Metal_Only>
0

> <s_lp_Force_Field>
OPLS_2005

> <r_lp_Energy>
15.2489

> <b_lp_Chiralities_Consistent>
1

> <s_lp_Variant>
AV-unprocessed.smi:2363-1

> <Gold.Version>
5.8.1

> <Gold.Id.Protein>
6NUR|6NUR_protein|mol2

> <Gold.PLP.Fitness>
46.7056

> <Gold.PLP.PLP>
-35.5426

> <Gold.PLP.part.hbond>
-3.8069

> <Gold.PLP.part.metal>
0.0000

> <Gold.PLP.part.buried>
-3.0549

> <Gold.PLP.part.nonpolar>
-31.4666

> <Gold.PLP.part.repulsive>
1.5695

> <Gold.PLP.ligand.clash>
0.0000

> <Gold.PLP.ligand.torsion>
0.1903

> <Gold.PLP.Chemscore.Hbond>
2.8296

> <Gold.PLP.Chemscore.CHOScore>
0.9905

> <Gold.PLP.Chemscore.Metal>
0.0000

> <Gold.Chemscore.Hbonds>
donor molecule, donor type, donor heavy atom, donor atom, acceptor molecule, acceptor atom, score
      L1  H     9    30       P1  7948  1.00
      L1  H    12    31       P1  7948  1.00
      P1  H  7989  7998       L1     5  0.89
      L1  C     6    28       P1  8028  0.90

> <Gold.PLP.Chemscore.Internal.Correction>
0.0834

> <Gold.Rescore>
     Score         DG    S(hbond)    S(metal)    S(lipo)     H(rot)  DE(clash)    DE(int)     intcor
     14.30     -17.71       2.06        0.00      78.87       1.52       1.14       2.27       ----

> <Gold.Chemscore.Fitness>
14.3009

> <Gold.Chemscore.DG>
-17.7114

> <Gold.Chemscore.ZeroCoef>
-5.4800

> <Gold.Chemscore.Hbond>
2.0627

> <Gold.Chemscore.Metal>
0.0000

> <Gold.Chemscore.Lipo>
78.8654

> <Gold.Chemscore.Internal_Hbond>
0.0000

> <Gold.Chemscore.DEClash>
1.1382

> <Gold.Chemscore.DEInternal>
2.2723

> <Gold.Chemscore.Rot>
1.5176

> <Gold.Chemscore.Internal.Correction>
   9.000000E+99

> <Gold.Chemscore.Hbonds>
donor molecule, donor type, donor heavy atom, donor atom, acceptor molecule, acceptor atom, score
      L1  H     9    30       P1  7948  0.99
      L1  H    12    31       P1  7948  0.94
      P1  H  7989  7998       L1     5  0.08

> <Gold.Chemscore.Hbond.Weighted>
-6.8893

> <Gold.Chemscore.Metal.Weighted>
-0.0000

> <Gold.Chemscore.Lipo.Weighted>
-9.2272

> <Gold.Chemscore.Internal_Hbond.Weighted>
0.0000

> <Gold.Chemscore.DEClash.Weighted>
1.1382

> <Gold.Chemscore.DEInternal.Weighted>
2.2723

> <Gold.Chemscore.Rot.Weighted>
3.8851

> <Gold.Chemscore.Internal.Correction.Weighted>
   9.000000E+99

> <Gold.Protein.RotatedTorsions>
[ 6907 6896 6895 6894 ] final   29.11 input  -60.11 | X-H torsion
[ 7974 7965 7964 7962 ] final  145.24 input  175.53 | X-H torsion
[ 8008 7997 7996 7995 ] final  -69.42 input   59.86 | X-H torsion
[ 10167 10162 10161 10158 ] final -141.38 input  -65.29 | X-H torsion
[ 10718 10713 10712 10709 ] final  -68.98 input   66.30 | X-H torsion
[ 10763 10752 10751 10750 ] final  -72.42 input  -60.55 | X-H torsion
[ 11005 11000 10999 10996 ] final  125.14 input  -57.11 | X-H torsion

> <Gold.Protein.ActiveResidues>
 VAL166  LYS551  ARG553  GLY616  TRP617  ASP618  TYR619  PRO620  LYS621  CYS622 
 ASP623  PHE694  ASN695  SER759  ASP760  ASP761  ALA762  ILE779  LEU786  VAL792 
 PHE793  MET794  SER795  GLU796  ALA797  LYS798  CYS799  TRP800  GLU811  SER814 

> <Gold.Protein.RotatedAtoms>
  152.0267  134.9791  160.0571 H   0  0  0  0  0  0  0  0  0  0  0  0  # atno 6907 bound_to 6896
  152.1284  133.4389  159.4717 H   0  0  0  0  0  0  0  0  0  0  0  0  # atno 6908 bound_to 6896
  150.6854  134.2369  159.4500 H   0  0  0  0  0  0  0  0  0  0  0  0  # atno 6909 bound_to 6896
  144.8769  139.5759  143.5861 H   0  0  0  0  0  0  0  0  0  0  0  0  # atno 7974 bound_to 7965
  154.4937  140.0854  156.7651 H   0  0  0  0  0  0  0  0  0  0  0  0  # atno 8008 bound_to 7997
  155.4168  140.3444  155.4250 H   0  0  0  0  0  0  0  0  0  0  0  0  # atno 8009 bound_to 7997
  156.1365  140.1516  156.8974 H   0  0  0  0  0  0  0  0  0  0  0  0  # atno 8010 bound_to 7997
  139.8190  143.7600  152.2665 H   0  0  0  0  0  0  0  0  0  0  0  0  # atno 10167 bound_to 10162
  156.0478  130.4304  150.2081 H   0  0  0  0  0  0  0  0  0  0  0  0  # atno 10718 bound_to 10713
  154.4454  135.5930  153.6157 H   0  0  0  0  0  0  0  0  0  0  0  0  # atno 10763 bound_to 10752
  152.9809  135.6008  154.3670 H   0  0  0  0  0  0  0  0  0  0  0  0  # atno 10764 bound_to 10752
  154.3525  135.2841  155.2343 H   0  0  0  0  0  0  0  0  0  0  0  0  # atno 10765 bound_to 10752
  139.9392  134.9637  156.8514 H   0  0  0  0  0  0  0  0  0  0  0  0  # atno 11005 bound_to 11000
  146.2968  139.7303  142.9120 LP  0  0  0  0  0  0  0  0  0  0  0  0  # atno 17320 bound_to 7965
  145.4027  141.0387  143.3061 LP  0  0  0  0  0  0  0  0  0  0  0  0  # atno 17321 bound_to 7965
  139.7772  144.7457  151.0140 LP  0  0  0  0  0  0  0  0  0  0  0  0  # atno 17342 bound_to 10162
  140.7814  143.4581  151.0317 LP  0  0  0  0  0  0  0  0  0  0  0  0  # atno 17343 bound_to 10162
  157.0168  130.9967  151.3351 LP  0  0  0  0  0  0  0  0  0  0  0  0  # atno 17370 bound_to 10713
  157.5372  130.8096  149.7985 LP  0  0  0  0  0  0  0  0  0  0  0  0  # atno 17371 bound_to 10713
  140.5996  134.0185  155.7532 LP  0  0  0  0  0  0  0  0  0  0  0  0  # atno 17394 bound_to 11000
  141.1019  133.9754  157.3063 LP  0  0  0  0  0  0  0  0  0  0  0  0  # atno 17395 bound_to 11000

$$$$
