AV-unprocessed.smi:3292|AV-procd|sdf|12621|dock2
  -GOLD-   2272018553D 1   1.00000     0.00000
 Structure written by MMmdl.
 39 40  0  0  0  0  0  0  0  0  2 V2000
  148.0057  131.6593  153.6091 C   0  0  0  0  0  0  0  0  0  0  0  0
  147.2809  132.9282  153.1400 C   0  0  2  0  0  0  0  0  0  0  0  0
  146.8521  132.8110  151.6608 C   0  0  0  0  0  0  0  0  0  0  0  0
  145.7617  133.7256  151.3039 N   0  0  0  0  0  0  0  0  0  0  0  0
  145.7822  135.0962  151.3409 C   0  0  0  0  0  0  0  0  0  0  0  0
  144.5507  135.5177  150.9101 C   0  0  0  0  0  0  0  0  0  0  0  0
  143.8275  134.3877  150.6383 N   0  3  0  0  0  0  0  0  0  0  0  0
  144.5634  133.2989  150.8843 C   0  0  0  0  0  0  0  0  0  0  0  0
  148.1608  134.0782  153.3475 N   0  0  0  0  0  0  0  0  0  0  0  0
  148.9073  134.3023  154.4387 C   0  0  0  0  0  0  0  0  0  0  0  0
  148.9366  133.5572  155.4184 O   0  0  0  0  0  0  0  0  0  0  0  0
  149.5957  135.4484  154.3457 N   0  0  0  0  0  0  0  0  0  0  0  0
  150.4475  136.0052  155.3923 C   0  0  0  0  0  0  0  0  0  0  0  0
  151.1827  137.2720  154.9143 C   0  0  2  0  0  0  0  0  0  0  0  0
  151.9652  137.9767  156.0029 C   0  0  0  0  0  0  0  0  0  0  0  0
  152.1804  139.3576  155.3906 C   0  0  0  0  0  0  0  0  0  0  0  0
  151.0366  139.6040  154.5779 O   0  0  0  0  0  0  0  0  0  0  0  0
  150.2802  138.4071  154.4255 C   0  0  0  0  0  0  0  0  0  0  0  0
  147.3668  130.7819  153.5060 H   0  0  0  0  0  0  0  0  0  0  0  0
  148.2912  131.7343  154.6590 H   0  0  0  0  0  0  0  0  0  0  0  0
  148.9117  131.4805  153.0289 H   0  0  0  0  0  0  0  0  0  0  0  0
  146.3883  133.0348  153.7596 H   0  0  0  0  0  0  0  0  0  0  0  0
  147.6973  132.9936  150.9950 H   0  0  0  0  0  0  0  0  0  0  0  0
  146.4983  131.8009  151.4499 H   0  0  0  0  0  0  0  0  0  0  0  0
  146.6525  135.6551  151.6528 H   0  0  0  0  0  0  0  0  0  0  0  0
  144.1460  136.5107  150.7799 H   0  0  0  0  0  0  0  0  0  0  0  0
  144.2531  132.2772  150.7553 H   0  0  0  0  0  0  0  0  0  0  0  0
  148.2076  134.7524  152.5971 H   0  0  0  0  0  0  0  0  0  0  0  0
  149.5096  135.9880  153.4966 H   0  0  0  0  0  0  0  0  0  0  0  0
  149.8707  136.2119  156.2956 H   0  0  0  0  0  0  0  0  0  0  0  0
  151.1775  135.2432  155.6668 H   0  0  0  0  0  0  0  0  0  0  0  0
  151.8739  137.0065  154.1123 H   0  0  0  0  0  0  0  0  0  0  0  0
  151.3661  138.0603  156.9111 H   0  0  0  0  0  0  0  0  0  0  0  0
  152.8994  137.4743  156.2550 H   0  0  0  0  0  0  0  0  0  0  0  0
  152.3093  140.1333  156.1456 H   0  0  0  0  0  0  0  0  0  0  0  0
  153.0649  139.3565  154.7520 H   0  0  0  0  0  0  0  0  0  0  0  0
  149.9653  138.2698  153.3915 H   0  0  0  0  0  0  0  0  0  0  0  0
  149.3856  138.4871  155.0445 H   0  0  0  0  0  0  0  0  0  0  0  0
  142.8741  134.3753  150.2976 H   0  0  0  0  0  0  0  0  0  0  0  0
  1  2  1  0  0  0  0
  1 19  1  0  0  0  0
  1 20  1  0  0  0  0
  1 21  1  0  0  0  0
  2  3  1  0  0  0  0
  2  9  1  0  0  0  0
  2 22  1  0  0  0  0
  3  4  1  0  0  0  0
  3 23  1  0  0  0  0
  3 24  1  0  0  0  0
  4  8  1  0  0  0  0
  4  5  1  0  0  0  0
  5  6  2  0  0  0  0
  5 25  1  0  0  0  0
  6  7  1  0  0  0  0
  6 26  1  0  0  0  0
  7  8  2  0  0  0  0
  7 39  1  0  0  0  0
  8 27  1  0  0  0  0
  9 10  1  0  0  0  0
  9 28  1  0  0  0  0
 10 11  2  0  0  0  0
 10 12  1  0  0  0  0
 12 13  1  0  0  0  0
 12 29  1  0  0  0  0
 13 14  1  0  0  0  0
 13 30  1  0  0  0  0
 13 31  1  0  0  0  0
 14 18  1  0  0  0  0
 14 15  1  0  0  0  0
 14 32  1  0  0  0  0
 15 16  1  0  0  0  0
 15 33  1  0  0  0  0
 15 34  1  0  0  0  0
 16 17  1  0  0  0  0
 16 35  1  0  0  0  0
 16 36  1  0  0  0  0
 17 18  1  0  0  0  0
 18 37  1  0  0  0  0
 18 38  1  0  0  0  0
M  CHG  1   7   1
M  END
> <s_m_source_file>
AV-unprocessed.smi

> <i_m_source_file_index>
3292

> <i_lp_mmshare_version>
43012

> <i_f3d_flags>
0

> <s_epik_input>
W2NIXTFuW2NIXVtjSF1uMVtDSDJdW0NAQEhdKFtDSDNdKVtOSF1DKD1PKVtOSF1bQ0gyXVtDQEBIXTJbQ0gyXVtDSDJdT1tDSDJdMg==

> <s_epik_cmdline>
J2VwaWtfcHl0aG9uJywgJy1waCcsICc3LjAnLCAnLXRuJywgJzgnLCAnLW1hJywgJzIwMCcsICctbWV0YWxfYmluZGluZycsICctaW1hZScsICc8aW5maWxlLm1hZT4nLCAnLW9tYWUnLCAnPG91dGZpbGUubWFlPic=

> <r_lp_tautomer_probability>
1

> <r_epik_Ionization_Penalty>
0.255703

> <r_epik_Ionization_Penalty_Charging>
0

> <r_epik_Ionization_Penalty_Neutral>
0.255703

> <r_epik_State_Penalty>
0.247169

> <r_epik_Charging_Adjusted_Penalty>
0.247169

> <i_epik_Tot_Q>
1

> <i_epik_Tot_abs_Q>
1

> <r_epik_Metal_State_Penalty>
0.536791

> <b_epik_Metal_Only>
0

> <s_lp_Force_Field>
OPLS_2005

> <r_lp_Energy>
18.5781

> <b_lp_Chiralities_Consistent>
1

> <s_lp_Variant>
AV-unprocessed.smi:3292-1

> <Gold.Version>
5.8.1

> <Gold.Id.Protein>
6NUR|6NUR_protein|mol2

> <Gold.PLP.Fitness>
50.5477

> <Gold.PLP.PLP>
-33.2929

> <Gold.PLP.part.hbond>
-4.1828

> <Gold.PLP.part.metal>
0.0000

> <Gold.PLP.part.buried>
-3.8827

> <Gold.PLP.part.nonpolar>
-25.8598

> <Gold.PLP.part.repulsive>
0.1687

> <Gold.PLP.ligand.clash>
0.0000

> <Gold.PLP.ligand.torsion>
0.4211

> <Gold.PLP.Chemscore.Hbond>
5.0000

> <Gold.PLP.Chemscore.CHOScore>
1.0000

> <Gold.PLP.Chemscore.Metal>
0.0000

> <Gold.Chemscore.Hbonds>
donor molecule, donor type, donor heavy atom, donor atom, acceptor molecule, acceptor atom, score
      L1  H     7    39       P1 10186  2.00
      L1  H     9    28       P1  7948  1.00
      L1  H    12    29       P1  7948  1.00
      P1  H  7989  7998       L1    17  1.00
      L1  C     5    25       P1  7948  1.00

> <Gold.PLP.Chemscore.Internal.Correction>
0.0971

> <Gold.Rescore>
     Score         DG    S(hbond)    S(metal)    S(lipo)     H(rot)  DE(clash)    DE(int)     intcor
     16.25     -18.38       3.63        0.00      55.63       2.24       0.05       2.09       ----

> <Gold.Chemscore.Fitness>
16.2479

> <Gold.Chemscore.DG>
-18.3821

> <Gold.Chemscore.ZeroCoef>
-5.4800

> <Gold.Chemscore.Hbond>
3.6285

> <Gold.Chemscore.Metal>
0.0000

> <Gold.Chemscore.Lipo>
55.6304

> <Gold.Chemscore.Internal_Hbond>
0.0000

> <Gold.Chemscore.DEClash>
0.0456

> <Gold.Chemscore.DEInternal>
2.0885

> <Gold.Chemscore.Rot>
2.2367

> <Gold.Chemscore.Internal.Correction>
   9.000000E+99

> <Gold.Chemscore.Hbonds>
donor molecule, donor type, donor heavy atom, donor atom, acceptor molecule, acceptor atom, score
      L1  H     7    39       P1 10186  0.75
      L1  H     9    28       P1  7948  0.47
      L1  H    12    29       P1  7948  0.38
      P1  H  7989  7998       L1    17  0.35

> <Gold.Chemscore.Hbond.Weighted>
-12.1192

> <Gold.Chemscore.Metal.Weighted>
-0.0000

> <Gold.Chemscore.Lipo.Weighted>
-6.5088

> <Gold.Chemscore.Internal_Hbond.Weighted>
0.0000

> <Gold.Chemscore.DEClash.Weighted>
0.0456

> <Gold.Chemscore.DEInternal.Weighted>
2.0885

> <Gold.Chemscore.Rot.Weighted>
5.7259

> <Gold.Chemscore.Internal.Correction.Weighted>
   9.000000E+99

> <Gold.Protein.RotatedTorsions>
[ 6907 6896 6895 6894 ] final   -6.85 input  -60.11 | X-H torsion
[ 7974 7965 7964 7962 ] final  135.77 input  175.53 | X-H torsion
[ 8008 7997 7996 7995 ] final  -12.29 input   59.86 | X-H torsion
[ 10167 10162 10161 10158 ] final -158.57 input  -65.29 | X-H torsion
[ 10718 10713 10712 10709 ] final  -46.76 input   66.30 | X-H torsion
[ 10763 10752 10751 10750 ] final    7.71 input  -60.55 | X-H torsion
[ 11005 11000 10999 10996 ] final   15.15 input  -57.11 | X-H torsion

> <Gold.Protein.ActiveResidues>
 VAL166  LYS551  ARG553  GLY616  TRP617  ASP618  TYR619  PRO620  LYS621  CYS622 
 ASP623  PHE694  ASN695  SER759  ASP760  ASP761  ALA762  ILE779  LEU786  VAL792 
 PHE793  MET794  SER795  GLU796  ALA797  LYS798  CYS799  TRP800  GLU811  SER814 

> <Gold.Protein.RotatedAtoms>
  151.4589  135.1036  159.9718 H   0  0  0  0  0  0  0  0  0  0  0  0  # atno 6907 bound_to 6896
  152.4860  133.8370  159.7143 H   0  0  0  0  0  0  0  0  0  0  0  0  # atno 6908 bound_to 6896
  150.8970  133.7108  159.2916 H   0  0  0  0  0  0  0  0  0  0  0  0  # atno 6909 bound_to 6896
  144.9630  139.4689  143.5470 H   0  0  0  0  0  0  0  0  0  0  0  0  # atno 7974 bound_to 7965
  154.5390  140.2280  155.8674 H   0  0  0  0  0  0  0  0  0  0  0  0  # atno 8008 bound_to 7997
  156.1840  140.3093  155.9164 H   0  0  0  0  0  0  0  0  0  0  0  0  # atno 8009 bound_to 7997
  155.3296  140.0444  157.3033 H   0  0  0  0  0  0  0  0  0  0  0  0  # atno 8010 bound_to 7997
  139.6682  143.9792  152.2268 H   0  0  0  0  0  0  0  0  0  0  0  0  # atno 10167 bound_to 10162
  156.2151  130.4163  149.9064 H   0  0  0  0  0  0  0  0  0  0  0  0  # atno 10718 bound_to 10713
  153.2332  135.6895  153.7867 H   0  0  0  0  0  0  0  0  0  0  0  0  # atno 10763 bound_to 10752
  153.7023  135.3295  155.3228 H   0  0  0  0  0  0  0  0  0  0  0  0  # atno 10764 bound_to 10752
  154.8323  135.4571  154.1225 H   0  0  0  0  0  0  0  0  0  0  0  0  # atno 10765 bound_to 10752
  140.4615  134.1123  155.7717 H   0  0  0  0  0  0  0  0  0  0  0  0  # atno 11005 bound_to 11000
  146.3359  139.8792  142.8827 LP  0  0  0  0  0  0  0  0  0  0  0  0  # atno 17320 bound_to 7965
  145.2671  141.0096  143.3793 LP  0  0  0  0  0  0  0  0  0  0  0  0  # atno 17321 bound_to 7965
  139.9549  144.6596  150.8136 LP  0  0  0  0  0  0  0  0  0  0  0  0  # atno 17342 bound_to 10162
  140.7608  143.3159  151.2735 LP  0  0  0  0  0  0  0  0  0  0  0  0  # atno 17343 bound_to 10162
  156.6729  130.8827  151.3565 LP  0  0  0  0  0  0  0  0  0  0  0  0  # atno 17370 bound_to 10713
  157.7059  130.9384  150.0929 LP  0  0  0  0  0  0  0  0  0  0  0  0  # atno 17371 bound_to 10713
  141.1619  133.8776  157.1824 LP  0  0  0  0  0  0  0  0  0  0  0  0  # atno 17394 bound_to 11000
  139.9942  135.0053  157.0045 LP  0  0  0  0  0  0  0  0  0  0  0  0  # atno 17395 bound_to 11000

$$$$
