AV-unprocessed.smi:3014|AV-procd|sdf|11467|dock3
  -GOLD-   2272016403D 1   1.00000     0.00000
 Structure written by MMmdl.
 45 46  0  0  0  0  0  0  0  0  1 V2000
  151.6166  145.2112  157.9607 C   0  0  0  0  0  0  0  0  0  0  0  0
  152.2744  143.8324  158.1166 C   0  0  1  0  0  0  0  0  0  0  0  0
  152.9319  143.6770  159.5017 C   0  0  0  0  0  0  0  0  0  0  0  0
  153.5787  142.2929  159.6693 C   0  0  0  0  0  0  0  0  0  0  0  0
  152.5605  141.1707  159.4156 C   0  0  0  0  0  0  0  0  0  0  0  0
  151.9197  141.3063  158.0246 C   0  0  1  0  0  0  0  0  0  0  0  0
  150.9467  140.2780  157.8952 O   0  0  0  0  0  0  0  0  0  0  0  0
  151.4651  138.9628  158.0560 C   0  0  0  0  0  0  0  0  0  0  0  0
  150.4762  138.1049  158.8477 C   0  0  0  0  0  0  0  0  0  0  0  0
  150.8907  137.4483  159.8028 O   0  0  0  0  0  0  0  0  0  0  0  0
  149.1870  138.1554  158.4605 N   0  0  0  0  0  0  0  0  0  0  0  0
  148.0719  137.4754  159.0167 C   0  0  0  0  0  0  0  0  0  0  0  0
  147.0615  136.9234  158.1907 C   0  0  0  0  0  0  0  0  0  0  0  0
  145.9831  136.2886  158.8349 C   0  0  0  0  0  0  0  0  0  0  0  0
  145.9015  136.2152  160.1785 N   0  0  0  0  0  0  0  0  0  0  0  0
  146.8879  136.7787  160.8857 C   0  0  0  0  0  0  0  0  0  0  0  0
  146.8016  136.7105  162.2795 N   0  0  0  0  0  0  0  0  0  0  0  0
  147.1353  137.8604  163.1150 C   0  0  0  0  0  0  0  0  0  0  0  0
  146.3774  135.4853  162.9515 C   0  0  0  0  0  0  0  0  0  0  0  0
  147.9516  137.4038  160.3623 N   0  0  0  0  0  0  0  0  0  0  0  0
  151.2654  142.6944  157.8646 C   0  0  0  0  0  0  0  0  0  0  0  0
  150.8259  145.3594  158.6972 H   0  0  0  0  0  0  0  0  0  0  0  0
  151.1752  145.3269  156.9705 H   0  0  0  0  0  0  0  0  0  0  0  0
  152.3466  146.0107  158.0907 H   0  0  0  0  0  0  0  0  0  0  0  0
  153.0587  143.7561  157.3622 H   0  0  0  0  0  0  0  0  0  0  0  0
  153.6859  144.4516  159.6454 H   0  0  0  0  0  0  0  0  0  0  0  0
  152.1852  143.8248  160.2833 H   0  0  0  0  0  0  0  0  0  0  0  0
  154.4144  142.1928  158.9754 H   0  0  0  0  0  0  0  0  0  0  0  0
  153.9963  142.1967  160.6718 H   0  0  0  0  0  0  0  0  0  0  0  0
  153.0487  140.1999  159.5073 H   0  0  0  0  0  0  0  0  0  0  0  0
  151.7861  141.2013  160.1835 H   0  0  0  0  0  0  0  0  0  0  0  0
  152.7029  141.1773  157.2749 H   0  0  0  0  0  0  0  0  0  0  0  0
  151.6455  138.4935  157.0886 H   0  0  0  0  0  0  0  0  0  0  0  0
  152.4135  138.9937  158.5942 H   0  0  0  0  0  0  0  0  0  0  0  0
  148.9722  138.8206  157.7317 H   0  0  0  0  0  0  0  0  0  0  0  0
  147.0889  136.9843  157.1133 H   0  0  0  0  0  0  0  0  0  0  0  0
  145.1780  135.8436  158.2691 H   0  0  0  0  0  0  0  0  0  0  0  0
  148.1521  138.1977  162.9113 H   0  0  0  0  0  0  0  0  0  0  0  0
  147.0716  137.6248  164.1773 H   0  0  0  0  0  0  0  0  0  0  0  0
  146.4517  138.6861  162.9144 H   0  0  0  0  0  0  0  0  0  0  0  0
  145.3931  135.1771  162.5971 H   0  0  0  0  0  0  0  0  0  0  0  0
  146.3142  135.6131  164.0322 H   0  0  0  0  0  0  0  0  0  0  0  0
  147.0831  134.6785  162.7511 H   0  0  0  0  0  0  0  0  0  0  0  0
  150.4300  142.7845  158.5605 H   0  0  0  0  0  0  0  0  0  0  0  0
  150.8447  142.8014  156.8650 H   0  0  0  0  0  0  0  0  0  0  0  0
  1  2  1  0  0  0  0
  1 22  1  0  0  0  0
  1 23  1  0  0  0  0
  1 24  1  0  0  0  0
  2 21  1  0  0  0  0
  2  3  1  0  0  0  0
  2 25  1  0  0  0  0
  3  4  1  0  0  0  0
  3 26  1  0  0  0  0
  3 27  1  0  0  0  0
  4  5  1  0  0  0  0
  4 28  1  0  0  0  0
  4 29  1  0  0  0  0
  5  6  1  0  0  0  0
  5 30  1  0  0  0  0
  5 31  1  0  0  0  0
  6  7  1  0  0  0  0
  6 21  1  0  0  0  0
  6 32  1  0  0  0  0
  7  8  1  0  0  0  0
  8  9  1  0  0  0  0
  8 33  1  0  0  0  0
  8 34  1  0  0  0  0
  9 10  2  0  0  0  0
  9 11  1  0  0  0  0
 11 12  1  0  0  0  0
 11 35  1  0  0  0  0
 12 20  1  0  0  0  0
 12 13  2  0  0  0  0
 13 14  1  0  0  0  0
 13 36  1  0  0  0  0
 14 15  2  0  0  0  0
 14 37  1  0  0  0  0
 15 16  1  0  0  0  0
 16 17  1  0  0  0  0
 16 20  2  0  0  0  0
 17 18  1  0  0  0  0
 17 19  1  0  0  0  0
 18 38  1  0  0  0  0
 18 39  1  0  0  0  0
 18 40  1  0  0  0  0
 19 41  1  0  0  0  0
 19 42  1  0  0  0  0
 19 43  1  0  0  0  0
 21 44  1  0  0  0  0
 21 45  1  0  0  0  0
M  END
> <s_m_source_file>
AV-unprocessed.smi

> <i_m_source_file_index>
3014

> <i_lp_mmshare_version>
43012

> <i_f3d_flags>
0

> <s_epik_input>
W0NIM11bQ0BASF0xW0NIMl1bQ0gyXVtDSDJdW0NASF0oW0NIMl0xKU9bQ0gyXUMoPU8pW05IXWMyW2NIXVtjSF1uYyhuMilOKFtDSDNdKVtDSDNd

> <s_epik_cmdline>
J2VwaWtfcHl0aG9uJywgJy1waCcsICc3LjAnLCAnLXRuJywgJzgnLCAnLW1hJywgJzIwMCcsICctbWV0YWxfYmluZGluZycsICctaW1hZScsICc8aW5maWxlLm1hZT4nLCAnLW9tYWUnLCAnPG91dGZpbGUubWFlPic=

> <r_lp_tautomer_probability>
1

> <r_epik_Ionization_Penalty>
0.000308195

> <r_epik_Ionization_Penalty_Charging>
0

> <r_epik_Ionization_Penalty_Neutral>
0.000308195

> <r_epik_State_Penalty>
-0

> <r_epik_Charging_Adjusted_Penalty>
0

> <i_epik_Tot_Q>
0

> <i_epik_Tot_abs_Q>
0

> <r_epik_Metal_State_Penalty>
-0

> <b_epik_Metal_Only>
0

> <s_lp_Force_Field>
OPLS_2005

> <r_lp_Energy>
10.093

> <b_lp_Chiralities_Consistent>
1

> <s_lp_Variant>
AV-unprocessed.smi:3014-2

> <Gold.Version>
5.8.1

> <Gold.Id.Protein>
6NUR|6NUR_protein|mol2

> <Gold.PLP.Fitness>
46.6707

> <Gold.PLP.PLP>
-43.8876

> <Gold.PLP.part.hbond>
-2.3667

> <Gold.PLP.part.metal>
0.0000

> <Gold.PLP.part.buried>
-5.0720

> <Gold.PLP.part.nonpolar>
-37.6219

> <Gold.PLP.part.repulsive>
0.1816

> <Gold.PLP.ligand.clash>
0.0000

> <Gold.PLP.ligand.torsion>
1.4040

> <Gold.PLP.Chemscore.Hbond>
1.8564

> <Gold.PLP.Chemscore.CHOScore>
0.0000

> <Gold.PLP.Chemscore.Metal>
0.0000

> <Gold.Chemscore.Hbonds>
donor molecule, donor type, donor heavy atom, donor atom, acceptor molecule, acceptor atom, score
      P1  H  6896  6909       L1    10  0.23
      P1  H  6931  6943       L1    20  0.59
      P1  H  6934  6947       L1    20  0.33

> <Gold.PLP.Chemscore.Internal.Correction>
0.0219

> <Gold.Rescore>
     Score         DG    S(hbond)    S(metal)    S(lipo)     H(rot)  DE(clash)    DE(int)     intcor
     17.93     -19.91       1.78        0.00     103.73       1.43       0.05       1.93       ----

> <Gold.Chemscore.Fitness>
17.9314

> <Gold.Chemscore.DG>
-19.9137

> <Gold.Chemscore.ZeroCoef>
-5.4800

> <Gold.Chemscore.Hbond>
1.7845

> <Gold.Chemscore.Metal>
0.0000

> <Gold.Chemscore.Lipo>
103.7342

> <Gold.Chemscore.Internal_Hbond>
0.0000

> <Gold.Chemscore.DEClash>
0.0525

> <Gold.Chemscore.DEInternal>
1.9298

> <Gold.Chemscore.Rot>
1.4310

> <Gold.Chemscore.Internal.Correction>
   9.000000E+99

> <Gold.Chemscore.Hbonds>
donor molecule, donor type, donor heavy atom, donor atom, acceptor molecule, acceptor atom, score
      P1  H  6896  6909       L1    10  0.23
      P1  H  6931  6943       L1    20  0.39
      P1  H  6934  6947       L1    20  0.01

> <Gold.Chemscore.Hbond.Weighted>
-5.9601

> <Gold.Chemscore.Metal.Weighted>
-0.0000

> <Gold.Chemscore.Lipo.Weighted>
-12.1369

> <Gold.Chemscore.Internal_Hbond.Weighted>
0.0000

> <Gold.Chemscore.DEClash.Weighted>
0.0525

> <Gold.Chemscore.DEInternal.Weighted>
1.9298

> <Gold.Chemscore.Rot.Weighted>
3.6632

> <Gold.Chemscore.Internal.Correction.Weighted>
   9.000000E+99

> <Gold.Protein.RotatedTorsions>
[ 6907 6896 6895 6894 ] final  104.23 input  -60.11 | X-H torsion
[ 7974 7965 7964 7962 ] final   -8.79 input  175.53 | X-H torsion
[ 8008 7997 7996 7995 ] final -106.01 input   59.86 | X-H torsion
[ 10167 10162 10161 10158 ] final   74.96 input  -65.29 | X-H torsion
[ 10718 10713 10712 10709 ] final  -14.29 input   66.30 | X-H torsion
[ 10763 10752 10751 10750 ] final  130.07 input  -60.55 | X-H torsion
[ 11005 11000 10999 10996 ] final  -66.19 input  -57.11 | X-H torsion

> <Gold.Protein.ActiveResidues>
 VAL166  LYS551  ARG553  GLY616  TRP617  ASP618  TYR619  PRO620  LYS621  CYS622 
 ASP623  PHE694  ASN695  SER759  ASP760  ASP761  ALA762  ILE779  LEU786  VAL792 
 PHE793  MET794  SER795  GLU796  ALA797  LYS798  CYS799  TRP800  GLU811  SER814 

> <Gold.Protein.RotatedAtoms>
  152.5271  133.9707  159.7760 H   0  0  0  0  0  0  0  0  0  0  0  0  # atno 6907 bound_to 6896
  150.9980  133.6076  159.2706 H   0  0  0  0  0  0  0  0  0  0  0  0  # atno 6908 bound_to 6896
  151.3196  135.0821  159.9354 H   0  0  0  0  0  0  0  0  0  0  0  0  # atno 6909 bound_to 6896
  146.2270  140.2520  142.8348 H   0  0  0  0  0  0  0  0  0  0  0  0  # atno 7974 bound_to 7965
  154.9082  140.0411  157.1931 H   0  0  0  0  0  0  0  0  0  0  0  0  # atno 8008 bound_to 7997
  154.8374  140.2909  155.5660 H   0  0  0  0  0  0  0  0  0  0  0  0  # atno 8009 bound_to 7997
  156.2990  140.2489  156.3311 H   0  0  0  0  0  0  0  0  0  0  0  0  # atno 8010 bound_to 7997
  140.0081  144.5635  150.7681 H   0  0  0  0  0  0  0  0  0  0  0  0  # atno 10167 bound_to 10162
  156.6181  130.4868  149.6175 H   0  0  0  0  0  0  0  0  0  0  0  0  # atno 10718 bound_to 10713
  153.7521  135.3208  155.3323 H   0  0  0  0  0  0  0  0  0  0  0  0  # atno 10763 bound_to 10752
  154.8259  135.4570  154.0921 H   0  0  0  0  0  0  0  0  0  0  0  0  # atno 10764 bound_to 10752
  153.2127  135.6938  153.8177 H   0  0  0  0  0  0  0  0  0  0  0  0  # atno 10765 bound_to 10752
  141.1475  133.6695  156.6101 H   0  0  0  0  0  0  0  0  0  0  0  0  # atno 11005 bound_to 11000
  144.9404  140.8072  143.5634 LP  0  0  0  0  0  0  0  0  0  0  0  0  # atno 17320 bound_to 7965
  145.2471  139.2047  143.4962 LP  0  0  0  0  0  0  0  0  0  0  0  0  # atno 17321 bound_to 7965
  140.7392  143.2789  151.3659 LP  0  0  0  0  0  0  0  0  0  0  0  0  # atno 17342 bound_to 10162
  139.6224  144.0880  152.2404 LP  0  0  0  0  0  0  0  0  0  0  0  0  # atno 17343 bound_to 10162
  156.2334  130.6808  151.1486 LP  0  0  0  0  0  0  0  0  0  0  0  0  # atno 17370 bound_to 10713
  157.7235  131.0666  150.6033 LP  0  0  0  0  0  0  0  0  0  0  0  0  # atno 17371 bound_to 10713
  140.3621  134.7678  157.4541 LP  0  0  0  0  0  0  0  0  0  0  0  0  # atno 17394 bound_to 11000
  140.0777  134.5775  155.8574 LP  0  0  0  0  0  0  0  0  0  0  0  0  # atno 17395 bound_to 11000

$$$$
