AV-unprocessed.smi:524|AV-procd|sdf|2805|dock5
  -GOLD-   2262023283D 1   1.00000     0.00000
 Structure written by MMmdl.
 43 45  0  0  0  0  0  0  0  0  1 V2000
  149.9804  139.6050  155.0236 C   0  0  0  0  0  0  0  0  0  0  0  0
  150.7401  140.7801  155.2423 O   0  0  0  0  0  0  0  0  0  0  0  0
  151.7704  140.5907  156.1984 C   0  0  0  0  0  0  0  0  0  0  0  0
  151.3089  141.1034  157.5697 C   0  0  0  0  0  0  0  0  0  0  0  0
  152.2019  140.6675  158.6418 N   0  0  0  0  0  0  0  0  0  0  0  0
  152.7897  141.4195  159.6137 C   0  0  0  0  0  0  0  0  0  0  0  0
  152.6249  142.8039  159.6910 N   0  0  0  0  0  0  0  0  0  0  0  0
  152.8188  143.7618  158.6013 C   0  0  0  0  0  0  0  0  0  0  0  0
  151.6200  144.7179  158.4642 C   0  0  0  0  0  0  0  0  0  0  0  0
  151.3814  145.4707  159.7804 C   0  0  0  0  0  0  0  0  0  0  0  0
  151.2891  144.4754  160.9456 C   0  0  0  0  0  0  0  0  0  0  0  0
  152.5044  143.5308  160.9542 C   0  0  0  0  0  0  0  0  0  0  0  0
  153.4902  140.7204  160.5112 N   0  0  0  0  0  0  0  0  0  0  0  0
  153.3585  139.4160  160.0639 C   0  0  0  0  0  0  0  0  0  0  0  0
  152.5835  139.3591  158.9515 C   0  0  0  0  0  0  0  0  0  0  0  0
  152.2426  138.0858  158.3000 C   0  0  0  0  0  0  0  0  0  0  0  0
  151.5338  137.9990  157.3001 O   0  0  0  0  0  0  0  0  0  0  0  0
  152.7837  137.0094  158.9206 N   0  0  0  0  0  0  0  0  0  0  0  0
  153.5730  137.0007  160.0378 C   0  0  0  0  0  0  0  0  0  0  0  0
  153.9796  135.9304  160.4891 O   0  0  0  0  0  0  0  0  0  0  0  0
  153.8745  138.2096  160.6129 N   0  0  0  0  0  0  0  0  0  0  0  0
  154.7087  138.3058  161.8127 C   0  0  0  0  0  0  0  0  0  0  0  0
  152.5753  136.1088  158.5148 H   0  0  0  0  0  0  0  0  0  0  0  0
  149.2008  139.8050  154.2887 H   0  0  0  0  0  0  0  0  0  0  0  0
  149.4989  139.2697  155.9430 H   0  0  0  0  0  0  0  0  0  0  0  0
  150.6057  138.7977  154.6398 H   0  0  0  0  0  0  0  0  0  0  0  0
  152.0279  139.5329  156.2665 H   0  0  0  0  0  0  0  0  0  0  0  0
  152.6692  141.1243  155.8858 H   0  0  0  0  0  0  0  0  0  0  0  0
  151.2435  142.1891  157.5630 H   0  0  0  0  0  0  0  0  0  0  0  0
  150.2949  140.7709  157.7701 H   0  0  0  0  0  0  0  0  0  0  0  0
  153.7239  144.3370  158.8015 H   0  0  0  0  0  0  0  0  0  0  0  0
  153.0083  143.2403  157.6641 H   0  0  0  0  0  0  0  0  0  0  0  0
  151.7972  145.4275  157.6556 H   0  0  0  0  0  0  0  0  0  0  0  0
  150.7248  144.1571  158.1942 H   0  0  0  0  0  0  0  0  0  0  0  0
  152.2045  146.1637  159.9584 H   0  0  0  0  0  0  0  0  0  0  0  0
  150.4733  146.0707  159.7178 H   0  0  0  0  0  0  0  0  0  0  0  0
  151.2257  145.0129  161.8920 H   0  0  0  0  0  0  0  0  0  0  0  0
  150.3725  143.8906  160.8580 H   0  0  0  0  0  0  0  0  0  0  0  0
  152.4047  142.8206  161.7760 H   0  0  0  0  0  0  0  0  0  0  0  0
  153.4218  144.0916  161.1382 H   0  0  0  0  0  0  0  0  0  0  0  0
  155.2418  137.3851  162.0528 H   0  0  0  0  0  0  0  0  0  0  0  0
  154.0922  138.5689  162.6728 H   0  0  0  0  0  0  0  0  0  0  0  0
  155.4614  139.0852  161.6879 H   0  0  0  0  0  0  0  0  0  0  0  0
  1  2  1  0  0  0  0
  1 24  1  0  0  0  0
  1 25  1  0  0  0  0
  1 26  1  0  0  0  0
  2  3  1  0  0  0  0
  3  4  1  0  0  0  0
  3 27  1  0  0  0  0
  3 28  1  0  0  0  0
  4  5  1  0  0  0  0
  4 29  1  0  0  0  0
  4 30  1  0  0  0  0
  5 15  1  0  0  0  0
  5  6  1  0  0  0  0
  6  7  1  0  0  0  0
  6 13  2  0  0  0  0
  7 12  1  0  0  0  0
  7  8  1  0  0  0  0
  8  9  1  0  0  0  0
  8 31  1  0  0  0  0
  8 32  1  0  0  0  0
  9 10  1  0  0  0  0
  9 33  1  0  0  0  0
  9 34  1  0  0  0  0
 10 11  1  0  0  0  0
 10 35  1  0  0  0  0
 10 36  1  0  0  0  0
 11 12  1  0  0  0  0
 11 37  1  0  0  0  0
 11 38  1  0  0  0  0
 12 39  1  0  0  0  0
 12 40  1  0  0  0  0
 13 14  1  0  0  0  0
 14 21  1  0  0  0  0
 14 15  2  0  0  0  0
 15 16  1  0  0  0  0
 16 17  2  0  0  0  0
 16 18  1  0  0  0  0
 18 23  1  0  0  0  0
 18 19  1  0  0  0  0
 19 20  2  0  0  0  0
 19 21  1  0  0  0  0
 21 22  1  0  0  0  0
 22 41  1  0  0  0  0
 22 42  1  0  0  0  0
 22 43  1  0  0  0  0
M  END
> <s_m_source_file>
AV-unprocessed.smi

> <i_m_source_file_index>
524

> <i_lp_mmshare_version>
43012

> <i_f3d_flags>
0

> <s_epik_input>
W0NIM11uMWMoPU8pW25IXWMoPU8pYyhjMTIpbihbQ0gyXVtDSDJdT1tDSDNdKWMobjIpTjNbQ0gyXVtDSDJdW0NIMl1bQ0gyXVtDSDJdMw==

> <s_epik_cmdline>
J2VwaWtfcHl0aG9uJywgJy1waCcsICc3LjAnLCAnLXRuJywgJzgnLCAnLW1hJywgJzIwMCcsICctbWV0YWxfYmluZGluZycsICctaW1hZScsICc8aW5maWxlLm1hZT4nLCAnLW9tYWUnLCAnPG91dGZpbGUubWFlPic=

> <r_lp_tautomer_probability>
1

> <r_epik_Ionization_Penalty>
0.000298119

> <r_epik_Ionization_Penalty_Charging>
0.000125384

> <r_epik_Ionization_Penalty_Neutral>
0.000172735

> <r_epik_State_Penalty>
-0

> <r_epik_Charging_Adjusted_Penalty>
0.000125384

> <i_epik_Tot_Q>
0

> <i_epik_Tot_abs_Q>
0

> <r_epik_Metal_State_Penalty>
0.0954001

> <b_epik_Metal_Only>
0

> <s_lp_Force_Field>
OPLS_2005

> <r_lp_Energy>
37.2528

> <b_lp_Chiralities_Consistent>
1

> <s_lp_Variant>
AV-unprocessed.smi:524-1

> <Gold.Version>
5.8.1

> <Gold.Id.Protein>
6NUR|6NUR_protein|mol2

> <Gold.PLP.Fitness>
48.9543

> <Gold.PLP.PLP>
-45.0403

> <Gold.PLP.part.hbond>
-1.9918

> <Gold.PLP.part.metal>
0.0000

> <Gold.PLP.part.buried>
-5.7303

> <Gold.PLP.part.nonpolar>
-37.5729

> <Gold.PLP.part.repulsive>
0.1595

> <Gold.PLP.ligand.clash>
0.0000

> <Gold.PLP.ligand.torsion>
1.0539

> <Gold.PLP.Chemscore.Hbond>
1.8393

> <Gold.PLP.Chemscore.CHOScore>
0.0000

> <Gold.PLP.Chemscore.Metal>
0.0000

> <Gold.Chemscore.Hbonds>
donor molecule, donor type, donor heavy atom, donor atom, acceptor molecule, acceptor atom, score
      P1  H  6896  6908       L1    20  1.00
      P1  H  7989  7998       L1     2  0.81

> <Gold.PLP.Chemscore.Internal.Correction>
0.5041

> <Gold.Rescore>
     Score         DG    S(hbond)    S(metal)    S(lipo)     H(rot)  DE(clash)    DE(int)     intcor
     14.43     -16.99       1.28        0.00      94.27       1.48       0.40       2.16       ----

> <Gold.Chemscore.Fitness>
14.4308

> <Gold.Chemscore.DG>
-16.9869

> <Gold.Chemscore.ZeroCoef>
-5.4800

> <Gold.Chemscore.Hbond>
1.2796

> <Gold.Chemscore.Metal>
0.0000

> <Gold.Chemscore.Lipo>
94.2738

> <Gold.Chemscore.Internal_Hbond>
0.0000

> <Gold.Chemscore.DEClash>
0.3960

> <Gold.Chemscore.DEInternal>
2.1600

> <Gold.Chemscore.Rot>
1.4832

> <Gold.Chemscore.Internal.Correction>
   9.000000E+99

> <Gold.Chemscore.Hbonds>
donor molecule, donor type, donor heavy atom, donor atom, acceptor molecule, acceptor atom, score
      P1  H  6896  6908       L1    20  0.28
      P1  H  7989  7998       L1     2  0.10

> <Gold.Chemscore.Hbond.Weighted>
-4.2738

> <Gold.Chemscore.Metal.Weighted>
-0.0000

> <Gold.Chemscore.Lipo.Weighted>
-11.0300

> <Gold.Chemscore.Internal_Hbond.Weighted>
0.0000

> <Gold.Chemscore.DEClash.Weighted>
0.3960

> <Gold.Chemscore.DEInternal.Weighted>
2.1600

> <Gold.Chemscore.Rot.Weighted>
3.7970

> <Gold.Chemscore.Internal.Correction.Weighted>
   9.000000E+99

> <Gold.Protein.RotatedTorsions>
[ 6907 6896 6895 6894 ] final  -61.60 input  -60.11 | X-H torsion
[ 7974 7965 7964 7962 ] final  130.77 input  175.53 | X-H torsion
[ 8008 7997 7996 7995 ] final -145.91 input   59.86 | X-H torsion
[ 10167 10162 10161 10158 ] final  -30.51 input  -65.29 | X-H torsion
[ 10718 10713 10712 10709 ] final  149.65 input   66.30 | X-H torsion
[ 10763 10752 10751 10750 ] final   32.50 input  -60.55 | X-H torsion
[ 11005 11000 10999 10996 ] final -172.24 input  -57.11 | X-H torsion

> <Gold.Protein.ActiveResidues>
 VAL166  LYS551  ARG553  GLY616  TRP617  ASP618  TYR619  PRO620  LYS621  CYS622 
 ASP623  PHE694  ASN695  SER759  ASP760  ASP761  ALA762  ILE779  LEU786  VAL792 
 PHE793  MET794  SER795  GLU796  ALA797  LYS798  CYS799  TRP800  GLU811  SER814 

> <Gold.Protein.RotatedAtoms>
  150.7773  134.6682  159.6376 H   0  0  0  0  0  0  0  0  0  0  0  0  # atno 6907 bound_to 6896
  152.3847  134.6533  160.0139 H   0  0  0  0  0  0  0  0  0  0  0  0  # atno 6908 bound_to 6896
  151.6852  133.3275  159.3265 H   0  0  0  0  0  0  0  0  0  0  0  0  # atno 6909 bound_to 6896
  145.0144  139.4190  143.5229 H   0  0  0  0  0  0  0  0  0  0  0  0  # atno 7974 bound_to 7965
  155.5509  140.0616  157.2850 H   0  0  0  0  0  0  0  0  0  0  0  0  # atno 8008 bound_to 7997
  154.4421  140.1902  156.0730 H   0  0  0  0  0  0  0  0  0  0  0  0  # atno 8009 bound_to 7997
  156.0517  140.3283  155.7362 H   0  0  0  0  0  0  0  0  0  0  0  0  # atno 8010 bound_to 7997
  140.7248  143.3843  151.1543 H   0  0  0  0  0  0  0  0  0  0  0  0  # atno 10167 bound_to 10162
  157.2934  131.0857  151.1444 H   0  0  0  0  0  0  0  0  0  0  0  0  # atno 10718 bound_to 10713
  153.0259  135.6411  154.1365 H   0  0  0  0  0  0  0  0  0  0  0  0  # atno 10763 bound_to 10752
  154.1094  135.2854  155.3235 H   0  0  0  0  0  0  0  0  0  0  0  0  # atno 10764 bound_to 10752
  154.6342  135.5482  153.7778 H   0  0  0  0  0  0  0  0  0  0  0  0  # atno 10765 bound_to 10752
  140.4992  134.5910  157.4982 H   0  0  0  0  0  0  0  0  0  0  0  0  # atno 11005 bound_to 11000
  146.3475  139.9606  142.8718 LP  0  0  0  0  0  0  0  0  0  0  0  0  # atno 17320 bound_to 7965
  145.1980  140.9841  143.4172 LP  0  0  0  0  0  0  0  0  0  0  0  0  # atno 17321 bound_to 7965
  139.7438  143.8884  152.3057 LP  0  0  0  0  0  0  0  0  0  0  0  0  # atno 17342 bound_to 10162
  139.8714  144.7066  150.8983 LP  0  0  0  0  0  0  0  0  0  0  0  0  # atno 17343 bound_to 10162
  157.2832  130.6760  149.6076 LP  0  0  0  0  0  0  0  0  0  0  0  0  # atno 17370 bound_to 10713
  155.9668  130.4443  150.5457 LP  0  0  0  0  0  0  0  0  0  0  0  0  # atno 17371 bound_to 10713
  139.9723  134.7272  156.0017 LP  0  0  0  0  0  0  0  0  0  0  0  0  # atno 17394 bound_to 11000
  141.1444  133.6558  156.3824 LP  0  0  0  0  0  0  0  0  0  0  0  0  # atno 17395 bound_to 11000

$$$$
