AV-unprocessed.smi:1231|AV-procd|sdf|5162|dock5
  -GOLD-   22720 4233D 1   1.00000     0.00000
 Structure written by MMmdl.
 42 43  0  0  0  0  0  0  0  0  1 V2000
  150.7200  137.6135  155.8573 C   0  0  0  0  0  0  0  0  0  0  0  0
  150.9327  138.6173  154.7114 C   0  0  1  0  0  0  0  0  0  0  0  0
  149.6906  138.7994  153.8160 C   0  0  0  0  0  0  0  0  0  0  0  0
  148.6345  139.5759  154.4579 N   0  0  0  0  0  0  0  0  0  0  0  0
  147.4886  139.7329  153.5631 C   0  0  0  0  0  0  0  0  0  0  0  0
  146.3758  138.6819  153.7369 C   0  0  0  0  0  0  0  0  0  0  0  0
  146.6113  137.5163  152.8935 N   0  0  0  0  0  0  0  0  0  0  0  0
  145.6893  136.5999  152.5660 C   0  0  0  0  0  0  0  0  0  0  0  0
  144.5200  136.6466  152.9493 O   0  0  0  0  0  0  0  0  0  0  0  0
  146.2142  135.6435  151.7796 N   0  0  0  0  0  0  0  0  0  0  0  0
  145.5679  134.5051  151.2284 C   0  0  0  0  0  0  0  0  0  0  0  0
  146.4342  133.5313  150.6822 C   0  0  0  0  0  0  0  0  0  0  0  0
  145.8922  132.3632  150.1119 C   0  0  0  0  0  0  0  0  0  0  0  0
  144.4957  132.1995  150.1016 C   0  0  0  0  0  0  0  0  0  0  0  0
  143.7044  133.2171  150.6657 C   0  0  0  0  0  0  0  0  0  0  0  0
  144.2218  134.3370  151.2134 N   0  0  0  0  0  0  0  0  0  0  0  0
  149.1860  140.8568  154.8910 C   0  0  0  0  0  0  0  0  0  0  0  0
  150.3889  140.6783  155.8348 C   0  0  2  0  0  0  0  0  0  0  0  0
  151.0248  142.0191  156.2168 C   0  0  0  0  0  0  0  0  0  0  0  0
  151.3841  139.8838  155.1931 O   0  0  0  0  0  0  0  0  0  0  0  0
  150.4946  136.6215  155.4657 H   0  0  0  0  0  0  0  0  0  0  0  0
  149.8945  137.9016  156.5077 H   0  0  0  0  0  0  0  0  0  0  0  0
  151.6166  137.5299  156.4718 H   0  0  0  0  0  0  0  0  0  0  0  0
  151.7374  138.2230  154.0903 H   0  0  0  0  0  0  0  0  0  0  0  0
  149.9943  139.2986  152.8941 H   0  0  0  0  0  0  0  0  0  0  0  0
  149.3084  137.8212  153.5220 H   0  0  0  0  0  0  0  0  0  0  0  0
  147.0678  140.7330  153.6779 H   0  0  0  0  0  0  0  0  0  0  0  0
  147.8421  139.6744  152.5326 H   0  0  0  0  0  0  0  0  0  0  0  0
  146.2941  138.3803  154.7825 H   0  0  0  0  0  0  0  0  0  0  0  0
  145.4064  139.0889  153.4524 H   0  0  0  0  0  0  0  0  0  0  0  0
  147.5473  137.3991  152.5341 H   0  0  0  0  0  0  0  0  0  0  0  0
  147.1923  135.7395  151.5504 H   0  0  0  0  0  0  0  0  0  0  0  0
  147.5052  133.6731  150.6982 H   0  0  0  0  0  0  0  0  0  0  0  0
  146.5378  131.6069  149.6900 H   0  0  0  0  0  0  0  0  0  0  0  0
  144.0426  131.3178  149.6730 H   0  0  0  0  0  0  0  0  0  0  0  0
  142.6280  133.1304  150.6780 H   0  0  0  0  0  0  0  0  0  0  0  0
  149.4878  141.4414  154.0205 H   0  0  0  0  0  0  0  0  0  0  0  0
  148.4263  141.4392  155.4105 H   0  0  0  0  0  0  0  0  0  0  0  0
  150.0630  140.1814  156.7489 H   0  0  0  0  0  0  0  0  0  0  0  0
  150.3038  142.6677  156.7149 H   0  0  0  0  0  0  0  0  0  0  0  0
  151.3965  142.5444  155.3366 H   0  0  0  0  0  0  0  0  0  0  0  0
  151.8647  141.8721  156.8963 H   0  0  0  0  0  0  0  0  0  0  0  0
  1  2  1  0  0  0  0
  1 21  1  0  0  0  0
  1 22  1  0  0  0  0
  1 23  1  0  0  0  0
  2 20  1  0  0  0  0
  2  3  1  0  0  0  0
  2 24  1  0  0  0  0
  3  4  1  0  0  0  0
  3 25  1  0  0  0  0
  3 26  1  0  0  0  0
  4  5  1  0  0  0  0
  4 17  1  0  0  0  0
  5  6  1  0  0  0  0
  5 27  1  0  0  0  0
  5 28  1  0  0  0  0
  6  7  1  0  0  0  0
  6 29  1  0  0  0  0
  6 30  1  0  0  0  0
  7  8  1  0  0  0  0
  7 31  1  0  0  0  0
  8  9  2  0  0  0  0
  8 10  1  0  0  0  0
 10 11  1  0  0  0  0
 10 32  1  0  0  0  0
 11 16  1  0  0  0  0
 11 12  2  0  0  0  0
 12 13  1  0  0  0  0
 12 33  1  0  0  0  0
 13 14  2  0  0  0  0
 13 34  1  0  0  0  0
 14 15  1  0  0  0  0
 14 35  1  0  0  0  0
 15 16  2  0  0  0  0
 15 36  1  0  0  0  0
 17 18  1  0  0  0  0
 17 37  1  0  0  0  0
 17 38  1  0  0  0  0
 18 19  1  0  0  0  0
 18 20  1  0  0  0  0
 18 39  1  0  0  0  0
 19 40  1  0  0  0  0
 19 41  1  0  0  0  0
 19 42  1  0  0  0  0
M  END
> <s_m_source_file>
AV-unprocessed.smi

> <i_m_source_file_index>
1231

> <i_lp_mmshare_version>
43012

> <i_f3d_flags>
0

> <s_epik_input>
W0NIM11bQ0BASF0xW0NIMl1OKFtDSDJdW0NASF0oTzEpW0NIM10pW0NIMl1bQ0gyXVtOSF1DKD1PKVtOSF1jMltjSF1bY0hdW2NIXVtjSF1uMg==

> <s_epik_cmdline>
J2VwaWtfcHl0aG9uJywgJy1waCcsICc3LjAnLCAnLXRuJywgJzgnLCAnLW1hJywgJzIwMCcsICctbWV0YWxfYmluZGluZycsICctaW1hZScsICc8aW5maWxlLm1hZT4nLCAnLW9tYWUnLCAnPG91dGZpbGUubWFlPic=

> <r_epik_Ionization_Penalty>
0.266037

> <r_epik_Ionization_Penalty_Charging>
0

> <r_epik_Ionization_Penalty_Neutral>
0.266037

> <r_epik_State_Penalty>
0.257924

> <r_epik_Charging_Adjusted_Penalty>
0.257924

> <i_epik_Tot_Q>
0

> <i_epik_Tot_abs_Q>
0

> <r_epik_Metal_State_Penalty>
0.257923

> <b_epik_Metal_Only>
0

> <s_lp_Force_Field>
OPLS_2005

> <r_lp_Energy>
24.2682

> <b_lp_Chiralities_Consistent>
1

> <s_lp_Variant>
AV-unprocessed.smi:1231-3

> <Gold.Version>
5.8.1

> <Gold.Id.Protein>
6NUR|6NUR_protein|mol2

> <Gold.PLP.Fitness>
43.8480

> <Gold.PLP.PLP>
-33.4774

> <Gold.PLP.part.hbond>
-3.0000

> <Gold.PLP.part.metal>
0.0000

> <Gold.PLP.part.buried>
-4.9496

> <Gold.PLP.part.nonpolar>
-26.5858

> <Gold.PLP.part.repulsive>
0.5185

> <Gold.PLP.ligand.clash>
0.0000

> <Gold.PLP.ligand.torsion>
0.8088

> <Gold.PLP.Chemscore.Hbond>
3.0000

> <Gold.PLP.Chemscore.CHOScore>
0.9908

> <Gold.PLP.Chemscore.Metal>
0.0000

> <Gold.Chemscore.Hbonds>
donor molecule, donor type, donor heavy atom, donor atom, acceptor molecule, acceptor atom, score
      L1  H     7    31       P1  7948  1.00
      L1  H    10    32       P1  7948  1.00
      P1  H  7989  7998       L1    20  1.00
      L1  C    15    36       P1 10186  1.00

> <Gold.PLP.Chemscore.Internal.Correction>
0.0159

> <Gold.Rescore>
     Score         DG    S(hbond)    S(metal)    S(lipo)     H(rot)  DE(clash)    DE(int)     intcor
     16.54     -18.83       2.09        0.00      87.68       1.52       0.24       2.05       ----

> <Gold.Chemscore.Fitness>
16.5419

> <Gold.Chemscore.DG>
-18.8322

> <Gold.Chemscore.ZeroCoef>
-5.4800

> <Gold.Chemscore.Hbond>
2.0883

> <Gold.Chemscore.Metal>
0.0000

> <Gold.Chemscore.Lipo>
87.6818

> <Gold.Chemscore.Internal_Hbond>
0.0000

> <Gold.Chemscore.DEClash>
0.2442

> <Gold.Chemscore.DEInternal>
2.0461

> <Gold.Chemscore.Rot>
1.5162

> <Gold.Chemscore.Internal.Correction>
   9.000000E+99

> <Gold.Chemscore.Hbonds>
donor molecule, donor type, donor heavy atom, donor atom, acceptor molecule, acceptor atom, score
      L1  H     7    31       P1  7948  0.94
      L1  H    10    32       P1  7948  0.99
      P1  H  7989  7998       L1    20  0.10

> <Gold.Chemscore.Hbond.Weighted>
-6.9748

> <Gold.Chemscore.Metal.Weighted>
-0.0000

> <Gold.Chemscore.Lipo.Weighted>
-10.2588

> <Gold.Chemscore.Internal_Hbond.Weighted>
0.0000

> <Gold.Chemscore.DEClash.Weighted>
0.2442

> <Gold.Chemscore.DEInternal.Weighted>
2.0461

> <Gold.Chemscore.Rot.Weighted>
3.8814

> <Gold.Chemscore.Internal.Correction.Weighted>
   9.000000E+99

> <Gold.Protein.RotatedTorsions>
[ 6907 6896 6895 6894 ] final  166.45 input  -60.11 | X-H torsion
[ 7974 7965 7964 7962 ] final  -25.19 input  175.53 | X-H torsion
[ 8008 7997 7996 7995 ] final   66.86 input   59.86 | X-H torsion
[ 10167 10162 10161 10158 ] final   62.82 input  -65.29 | X-H torsion
[ 10718 10713 10712 10709 ] final  145.42 input   66.30 | X-H torsion
[ 10763 10752 10751 10750 ] final  -87.19 input  -60.55 | X-H torsion
[ 11005 11000 10999 10996 ] final  166.28 input  -57.11 | X-H torsion

> <Gold.Protein.ActiveResidues>
 VAL166  LYS551  ARG553  GLY616  TRP617  ASP618  TYR619  PRO620  LYS621  CYS622 
 ASP623  PHE694  ASN695  SER759  ASP760  ASP761  ALA762  ILE779  LEU786  VAL792 
 PHE793  MET794  SER795  GLU796  ALA797  LYS798  CYS799  TRP800  GLU811  SER814 

> <Gold.Protein.RotatedAtoms>
  151.8787  133.3490  159.3758 H   0  0  0  0  0  0  0  0  0  0  0  0  # atno 6907 bound_to 6896
  150.7133  134.5041  159.5584 H   0  0  0  0  0  0  0  0  0  0  0  0  # atno 6908 bound_to 6896
  152.2588  134.8056  160.0485 H   0  0  0  0  0  0  0  0  0  0  0  0  # atno 6909 bound_to 6896
  146.1507  140.4853  142.8612 H   0  0  0  0  0  0  0  0  0  0  0  0  # atno 7974 bound_to 7965
  155.6839  140.3496  155.4866 H   0  0  0  0  0  0  0  0  0  0  0  0  # atno 8008 bound_to 7997
  155.9583  140.1132  157.0940 H   0  0  0  0  0  0  0  0  0  0  0  0  # atno 8009 bound_to 7997
  154.4137  140.1180  156.5130 H   0  0  0  0  0  0  0  0  0  0  0  0  # atno 8010 bound_to 7997
  140.1397  144.4565  150.6818 H   0  0  0  0  0  0  0  0  0  0  0  0  # atno 10167 bound_to 10162
  157.3455  131.0942  151.1045 H   0  0  0  0  0  0  0  0  0  0  0  0  # atno 10718 bound_to 10713
  154.6309  135.5422  153.7679 H   0  0  0  0  0  0  0  0  0  0  0  0  # atno 10763 bound_to 10752
  153.0284  135.6435  154.1303 H   0  0  0  0  0  0  0  0  0  0  0  0  # atno 10764 bound_to 10752
  154.1233  135.2919  155.3183 H   0  0  0  0  0  0  0  0  0  0  0  0  # atno 10765 bound_to 10752
  140.2648  134.7874  157.3622 H   0  0  0  0  0  0  0  0  0  0  0  0  # atno 11005 bound_to 11000
  144.7900  140.6014  143.6547 LP  0  0  0  0  0  0  0  0  0  0  0  0  # atno 17320 bound_to 7965
  145.4830  139.1494  143.3751 LP  0  0  0  0  0  0  0  0  0  0  0  0  # atno 17321 bound_to 7965
  140.6768  143.2308  151.5488 LP  0  0  0  0  0  0  0  0  0  0  0  0  # atno 17342 bound_to 10162
  139.5478  144.2475  152.1474 LP  0  0  0  0  0  0  0  0  0  0  0  0  # atno 17343 bound_to 10162
  157.2241  130.6495  149.5823 LP  0  0  0  0  0  0  0  0  0  0  0  0  # atno 17370 bound_to 10713
  155.9713  130.4620  150.6128 LP  0  0  0  0  0  0  0  0  0  0  0  0  # atno 17371 bound_to 10713
  140.1430  134.4947  155.8017 LP  0  0  0  0  0  0  0  0  0  0  0  0  # atno 17394 bound_to 11000
  141.2185  133.6832  156.7244 LP  0  0  0  0  0  0  0  0  0  0  0  0  # atno 17395 bound_to 11000

$$$$
