AV-unprocessed.smi:703|AV-procd|sdf|3439|dock7
  -GOLD-   22720 0423D 1   1.00000     0.00000
 Structure written by MMmdl.
 37 38  0  0  0  0  0  0  0  0  3 V2000
  146.1012  134.3844  151.7179 C   0  0  0  0  0  0  0  0  0  0  0  0
  147.0876  133.3050  152.1841 C   0  0  0  0  0  0  0  0  0  0  0  0
  148.0479  133.8196  153.1894 N   0  3  2  0  0  0  0  0  0  0  0  0
  149.1658  132.8950  153.4970 C   0  0  0  0  0  0  0  0  0  0  0  0
  149.2740  132.8152  155.0290 C   0  0  1  0  0  0  0  0  0  0  0  0
  150.7200  132.6297  155.5300 C   0  0  0  0  0  0  0  0  0  0  0  0
  148.5634  134.0901  155.5078 C   0  0  2  0  0  0  0  0  0  0  0  0
  148.0420  133.9338  156.8564 N   0  5  0  0  0  0  0  0  0  0  0  0
  148.2611  135.1128  157.9491 S   0  0  0  0  0  0  0  0  0  0  0  0
  149.6863  135.4205  158.1488 O   0  0  0  0  0  0  0  0  0  0  0  0
  147.3521  136.2527  157.7426 O   0  0  0  0  0  0  0  0  0  0  0  0
  147.7059  134.2645  159.4935 C   0  0  0  0  0  0  0  0  0  0  0  0
  147.5961  135.2455  160.6280 C   0  0  0  0  0  0  0  0  0  0  0  0
  147.3904  134.9780  162.0101 C   0  0  0  0  0  0  0  0  0  0  0  0
  147.3722  136.2197  162.5763 C   0  0  0  0  0  0  0  0  0  0  0  0
  147.5429  137.1765  161.6296 O   0  0  0  0  0  0  0  0  0  0  0  0
  147.6799  136.5452  160.3882 N   0  0  0  0  0  0  0  0  0  0  0  0
  147.4456  134.2382  154.4735 C   0  0  0  0  0  0  0  0  0  0  0  0
  145.4431  133.9945  150.9413 H   0  0  0  0  0  0  0  0  0  0  0  0
  146.6262  135.2466  151.3055 H   0  0  0  0  0  0  0  0  0  0  0  0
  145.4704  134.7334  152.5359 H   0  0  0  0  0  0  0  0  0  0  0  0
  146.5492  132.4468  152.5895 H   0  0  0  0  0  0  0  0  0  0  0  0
  147.6470  132.9461  151.3193 H   0  0  0  0  0  0  0  0  0  0  0  0
  149.0101  131.9019  153.0724 H   0  0  0  0  0  0  0  0  0  0  0  0
  150.0754  133.2979  153.0471 H   0  0  0  0  0  0  0  0  0  0  0  0
  148.6879  131.9511  155.3498 H   0  0  0  0  0  0  0  0  0  0  0  0
  151.3723  133.4505  155.2264 H   0  0  0  0  0  0  0  0  0  0  0  0
  151.1475  131.7118  155.1261 H   0  0  0  0  0  0  0  0  0  0  0  0
  150.7654  132.5519  156.6178 H   0  0  0  0  0  0  0  0  0  0  0  0
  149.2489  134.9341  155.4167 H   0  0  0  0  0  0  0  0  0  0  0  0
  146.7630  133.7535  159.2974 H   0  0  0  0  0  0  0  0  0  0  0  0
  148.4460  133.5012  159.7320 H   0  0  0  0  0  0  0  0  0  0  0  0
  147.2810  134.0255  162.5068 H   0  0  0  0  0  0  0  0  0  0  0  0
  147.2517  136.5713  163.5903 H   0  0  0  0  0  0  0  0  0  0  0  0
  147.0642  135.2581  154.4165 H   0  0  0  0  0  0  0  0  0  0  0  0
  146.6101  133.5787  154.7186 H   0  0  0  0  0  0  0  0  0  0  0  0
  148.4781  134.6455  152.7986 H   0  0  0  0  0  0  0  0  0  0  0  0
  1  2  1  0  0  0  0
  1 19  1  0  0  0  0
  1 20  1  0  0  0  0
  1 21  1  0  0  0  0
  2  3  1  0  0  0  0
  2 22  1  0  0  0  0
  2 23  1  0  0  0  0
  3 18  1  0  0  0  0
  3  4  1  0  0  0  0
  3 37  1  0  0  0  0
  4  5  1  0  0  0  0
  4 24  1  0  0  0  0
  4 25  1  0  0  0  0
  5  6  1  0  0  0  0
  5  7  1  0  0  0  0
  5 26  1  0  0  0  0
  6 27  1  0  0  0  0
  6 28  1  0  0  0  0
  6 29  1  0  0  0  0
  7  8  1  0  0  0  0
  7 18  1  0  0  0  0
  7 30  1  0  0  0  0
  8  9  1  0  0  0  0
  9 10  2  0  0  0  0
  9 11  2  0  0  0  0
  9 12  1  0  0  0  0
 12 13  1  0  0  0  0
 12 31  1  0  0  0  0
 12 32  1  0  0  0  0
 13 17  2  0  0  0  0
 13 14  1  0  0  0  0
 14 15  2  0  0  0  0
 14 33  1  0  0  0  0
 15 16  1  0  0  0  0
 15 34  1  0  0  0  0
 16 17  1  0  0  0  0
 18 35  1  0  0  0  0
 18 36  1  0  0  0  0
M  CHG  1   3   1
M  CHG  1   8  -1
M  END
> <s_m_source_file>
AV-unprocessed.smi

> <i_m_source_file_index>
703

> <i_lp_mmshare_version>
43012

> <i_f3d_flags>
0

> <s_epik_input>
W0NIM11bQ0gyXU4xW0NIMl1bQ0BASF0oW0NIM10pW0NASF0oW0NIMl0xKVtOSF1TKD1PKSg9TylbQ0gyXWMyW2NIXVtjSF1vbjI=

> <s_epik_cmdline>
J2VwaWtfcHl0aG9uJywgJy1waCcsICc3LjAnLCAnLXRuJywgJzgnLCAnLW1hJywgJzIwMCcsICctbWV0YWxfYmluZGluZycsICctaW1hZScsICc8aW5maWxlLm1hZT4nLCAnLW9tYWUnLCAnPG91dGZpbGUubWFlPic=

> <r_epik_Ionization_Penalty>
3.62494

> <r_epik_Ionization_Penalty_Charging>
3.62494

> <r_epik_Ionization_Penalty_Neutral>
2.0321e-10

> <r_epik_State_Penalty>
3.62558

> <r_epik_Charging_Adjusted_Penalty>
7.25052

> <i_epik_Tot_Q>
0

> <i_epik_Tot_abs_Q>
2

> <r_epik_Metal_State_Penalty>
0.530836

> <b_epik_Metal_Only>
1

> <s_lp_Force_Field>
OPLS_2005

> <r_lp_Energy>
15.0444

> <b_lp_Chiralities_Consistent>
1

> <s_lp_Variant>
AV-unprocessed.smi:703-14

> <Gold.Version>
5.8.1

> <Gold.Id.Protein>
6NUR|6NUR_protein|mol2

> <Gold.PLP.Fitness>
42.2178

> <Gold.PLP.PLP>
-29.1112

> <Gold.PLP.part.hbond>
-4.0000

> <Gold.PLP.part.metal>
0.0000

> <Gold.PLP.part.buried>
-4.2726

> <Gold.PLP.part.nonpolar>
-20.7161

> <Gold.PLP.part.repulsive>
0.0000

> <Gold.PLP.ligand.clash>
0.0000

> <Gold.PLP.ligand.torsion>
1.0300

> <Gold.PLP.Chemscore.Hbond>
4.7120

> <Gold.PLP.Chemscore.CHOScore>
0.0000

> <Gold.PLP.Chemscore.Metal>
0.0000

> <Gold.Chemscore.Hbonds>
donor molecule, donor type, donor heavy atom, donor atom, acceptor molecule, acceptor atom, score
      L1  H     3    37       P1  7948  2.00
      P1  H  6896  6909       L1    10  1.00
      P1  H  6931  6943       L1    16  0.98
      P1  H  6934  6947       L1    16  0.72

> <Gold.PLP.Chemscore.Internal.Correction>
1.0306

> <Gold.Rescore>
     Score         DG    S(hbond)    S(metal)    S(lipo)     H(rot)  DE(clash)    DE(int)     intcor
     15.24     -17.83       2.87        0.00      59.27       1.63       0.02       2.56       ----

> <Gold.Chemscore.Fitness>
15.2431

> <Gold.Chemscore.DG>
-17.8268

> <Gold.Chemscore.ZeroCoef>
-5.4800

> <Gold.Chemscore.Hbond>
2.8726

> <Gold.Chemscore.Metal>
0.0000

> <Gold.Chemscore.Lipo>
59.2715

> <Gold.Chemscore.Internal_Hbond>
0.0000

> <Gold.Chemscore.DEClash>
0.0207

> <Gold.Chemscore.DEInternal>
2.5630

> <Gold.Chemscore.Rot>
1.6338

> <Gold.Chemscore.Internal.Correction>
   9.000000E+99

> <Gold.Chemscore.Hbonds>
donor molecule, donor type, donor heavy atom, donor atom, acceptor molecule, acceptor atom, score
      L1  H     3    37       P1  7948  0.26
      P1  H  6896  6909       L1    10  0.94
      P1  H  6931  6943       L1    16  0.58
      P1  H  6934  6947       L1    16  0.14

> <Gold.Chemscore.Hbond.Weighted>
-9.5945

> <Gold.Chemscore.Metal.Weighted>
-0.0000

> <Gold.Chemscore.Lipo.Weighted>
-6.9348

> <Gold.Chemscore.Internal_Hbond.Weighted>
0.0000

> <Gold.Chemscore.DEClash.Weighted>
0.0207

> <Gold.Chemscore.DEInternal.Weighted>
2.5630

> <Gold.Chemscore.Rot.Weighted>
4.1825

> <Gold.Chemscore.Internal.Correction.Weighted>
   9.000000E+99

> <Gold.Protein.RotatedTorsions>
[ 6907 6896 6895 6894 ] final   42.15 input  -60.11 | X-H torsion
[ 7974 7965 7964 7962 ] final  159.74 input  175.53 | X-H torsion
[ 8008 7997 7996 7995 ] final   46.14 input   59.86 | X-H torsion
[ 10167 10162 10161 10158 ] final  -46.30 input  -65.29 | X-H torsion
[ 10718 10713 10712 10709 ] final -135.98 input   66.30 | X-H torsion
[ 10763 10752 10751 10750 ] final  -15.54 input  -60.55 | X-H torsion
[ 11005 11000 10999 10996 ] final -127.87 input  -57.11 | X-H torsion

> <Gold.Protein.ActiveResidues>
 VAL166  LYS551  ARG553  GLY616  TRP617  ASP618  TYR619  PRO620  LYS621  CYS622 
 ASP623  PHE694  ASN695  SER759  ASP760  ASP761  ALA762  ILE779  LEU786  VAL792 
 PHE793  MET794  SER795  GLU796  ALA797  LYS798  CYS799  TRP800  GLU811  SER814 

> <Gold.Protein.RotatedAtoms>
  152.2042  134.8560  160.0504 H   0  0  0  0  0  0  0  0  0  0  0  0  # atno 6907 bound_to 6896
  151.9403  133.3631  159.3971 H   0  0  0  0  0  0  0  0  0  0  0  0  # atno 6908 bound_to 6896
  150.6961  134.4371  159.5319 H   0  0  0  0  0  0  0  0  0  0  0  0  # atno 6909 bound_to 6896
  144.7774  139.7660  143.6273 H   0  0  0  0  0  0  0  0  0  0  0  0  # atno 7974 bound_to 7965
  155.3476  140.3411  155.4239 H   0  0  0  0  0  0  0  0  0  0  0  0  # atno 8008 bound_to 7997
  156.1781  140.1654  156.8361 H   0  0  0  0  0  0  0  0  0  0  0  0  # atno 8009 bound_to 7997
  154.5303  140.0746  156.8316 H   0  0  0  0  0  0  0  0  0  0  0  0  # atno 8010 bound_to 7997
  140.6823  143.2837  151.3763 H   0  0  0  0  0  0  0  0  0  0  0  0  # atno 10167 bound_to 10162
  156.2720  130.7271  151.1241 H   0  0  0  0  0  0  0  0  0  0  0  0  # atno 10718 bound_to 10713
  153.5450  135.7012  153.5618 H   0  0  0  0  0  0  0  0  0  0  0  0  # atno 10763 bound_to 10752
  153.3568  135.3980  155.1688 H   0  0  0  0  0  0  0  0  0  0  0  0  # atno 10764 bound_to 10752
  154.8669  135.3779  154.4957 H   0  0  0  0  0  0  0  0  0  0  0  0  # atno 10765 bound_to 10752
  140.9563  134.0997  157.4013 H   0  0  0  0  0  0  0  0  0  0  0  0  # atno 11005 bound_to 11000
  146.1961  139.5229  142.9773 LP  0  0  0  0  0  0  0  0  0  0  0  0  # atno 17320 bound_to 7965
  145.6148  141.0333  143.1947 LP  0  0  0  0  0  0  0  0  0  0  0  0  # atno 17321 bound_to 7965
  139.6155  144.1012  152.2341 LP  0  0  0  0  0  0  0  0  0  0  0  0  # atno 17342 bound_to 10162
  140.0440  144.5985  150.7388 LP  0  0  0  0  0  0  0  0  0  0  0  0  # atno 17343 bound_to 10162
  157.7287  131.0630  150.5808 LP  0  0  0  0  0  0  0  0  0  0  0  0  # atno 17370 bound_to 10713
  156.5905  130.4328  149.5938 LP  0  0  0  0  0  0  0  0  0  0  0  0  # atno 17371 bound_to 10713
  139.8863  135.0080  156.6492 LP  0  0  0  0  0  0  0  0  0  0  0  0  # atno 17394 bound_to 11000
  140.7531  133.8880  155.8362 LP  0  0  0  0  0  0  0  0  0  0  0  0  # atno 17395 bound_to 11000

$$$$
