AV-unprocessed.smi:187|AV-procd|sdf|1470|dock9
  -GOLD-   2262019283D 1   1.00000     0.00000
 Structure written by MMmdl.
 53 56  0  0  0  0  0  0  0  0  1 V2000
  149.4921  138.7136  154.4056 C   0  0  0  0  0  0  0  0  0  0  0  0
  148.4603  139.8257  154.1221 C   0  0  2  0  0  0  0  0  0  0  0  0
  149.0276  141.1870  154.5757 C   0  0  0  0  0  0  0  0  0  0  0  0
  148.0143  142.3271  154.3747 C   0  0  0  0  0  0  0  0  0  0  0  0
  146.6486  142.0169  155.0233 C   0  0  2  0  0  0  0  0  0  0  0  0
  146.6759  142.1528  156.5581 C   0  0  0  0  0  0  0  0  0  0  0  0
  147.7880  142.6569  157.0997 N   0  0  0  0  0  0  0  0  0  0  0  0
  145.7139  141.8222  157.2491 O   0  0  0  0  0  0  0  0  0  0  0  0
  146.1584  140.6283  154.5595 C   0  0  0  0  0  0  0  0  0  0  0  0
  147.1613  139.5811  154.7654 N   0  0  0  0  0  0  0  0  0  0  0  0
  146.6416  138.3496  154.5644 C   0  0  0  0  0  0  0  0  0  0  0  0
  146.3284  137.5618  155.6267 N   0  0  0  0  0  0  0  0  0  0  0  0
  145.8001  136.3516  155.4214 C   0  0  0  0  0  0  0  0  0  0  0  0
  145.5075  135.7536  154.2644 N   0  0  0  0  0  0  0  0  0  0  0  0
  145.8203  136.5457  153.1977 C   0  0  0  0  0  0  0  0  0  0  0  0
  146.3901  137.8474  153.2617 C   0  0  0  0  0  0  0  0  0  0  0  0
  146.5714  138.3562  151.9830 N   0  0  0  0  0  0  0  0  0  0  0  0
  146.1305  137.4074  151.2027 C   0  0  0  0  0  0  0  0  0  0  0  0
  145.6588  136.2836  151.8459 N   0  0  0  0  0  0  0  0  0  0  0  0
  145.1175  135.1081  151.2228 C   0  0  0  0  0  0  0  0  0  0  0  0
  144.4606  134.0002  152.0506 C   0  0  0  0  0  0  0  0  0  0  0  0
  144.9917  132.9495  151.0468 C   0  0  0  0  0  0  0  0  0  0  0  0
  145.5557  131.6393  151.6315 C   0  0  0  0  0  0  0  0  0  0  0  0
  146.2665  130.8802  150.6737 O   0  0  0  0  0  0  0  0  0  0  0  0
  144.0151  132.5640  149.9201 C   0  0  0  0  0  0  0  0  0  0  0  0
  142.6766  132.5438  150.3740 O   0  0  0  0  0  0  0  0  0  0  0  0
  146.0281  134.0239  150.6400 C   0  0  0  0  0  0  0  0  0  0  0  0
  150.4591  138.9567  153.9644 H   0  0  0  0  0  0  0  0  0  0  0  0
  149.1857  137.7545  153.9872 H   0  0  0  0  0  0  0  0  0  0  0  0
  149.6419  138.5781  155.4774 H   0  0  0  0  0  0  0  0  0  0  0  0
  148.2935  139.8702  153.0447 H   0  0  0  0  0  0  0  0  0  0  0  0
  149.3204  141.1339  155.6247 H   0  0  0  0  0  0  0  0  0  0  0  0
  149.9398  141.4122  154.0220 H   0  0  0  0  0  0  0  0  0  0  0  0
  148.4216  143.2600  154.7670 H   0  0  0  0  0  0  0  0  0  0  0  0
  147.8702  142.4883  153.3057 H   0  0  0  0  0  0  0  0  0  0  0  0
  145.9324  142.7517  154.6523 H   0  0  0  0  0  0  0  0  0  0  0  0
  147.8570  142.7674  158.1009 H   0  0  0  0  0  0  0  0  0  0  0  0
  148.5569  142.9266  156.5034 H   0  0  0  0  0  0  0  0  0  0  0  0
  145.2411  140.3658  155.0897 H   0  0  0  0  0  0  0  0  0  0  0  0
  145.9009  140.6744  153.5001 H   0  0  0  0  0  0  0  0  0  0  0  0
  145.5773  135.7812  156.3110 H   0  0  0  0  0  0  0  0  0  0  0  0
  146.1369  137.5056  150.1268 H   0  0  0  0  0  0  0  0  0  0  0  0
  144.4219  135.4565  150.4570 H   0  0  0  0  0  0  0  0  0  0  0  0
  144.8901  133.9050  153.0484 H   0  0  0  0  0  0  0  0  0  0  0  0
  143.3742  134.0730  152.1083 H   0  0  0  0  0  0  0  0  0  0  0  0
  146.2354  131.8394  152.4602 H   0  0  0  0  0  0  0  0  0  0  0  0
  144.7543  131.0138  152.0257 H   0  0  0  0  0  0  0  0  0  0  0  0
  147.1781  130.8606  150.9212 H   0  0  0  0  0  0  0  0  0  0  0  0
  144.0736  133.2676  149.0893 H   0  0  0  0  0  0  0  0  0  0  0  0
  144.2596  131.5844  149.5076 H   0  0  0  0  0  0  0  0  0  0  0  0
  142.2057  133.2472  149.9534 H   0  0  0  0  0  0  0  0  0  0  0  0
  146.1956  134.1123  149.5663 H   0  0  0  0  0  0  0  0  0  0  0  0
  146.9785  133.9434  151.1686 H   0  0  0  0  0  0  0  0  0  0  0  0
  1  2  1  0  0  0  0
  1 28  1  0  0  0  0
  1 29  1  0  0  0  0
  1 30  1  0  0  0  0
  2 10  1  0  0  0  0
  2  3  1  0  0  0  0
  2 31  1  0  0  0  0
  3  4  1  0  0  0  0
  3 32  1  0  0  0  0
  3 33  1  0  0  0  0
  4  5  1  0  0  0  0
  4 34  1  0  0  0  0
  4 35  1  0  0  0  0
  5  6  1  0  0  0  0
  5  9  1  0  0  0  0
  5 36  1  0  0  0  0
  6  7  1  0  0  0  0
  6  8  2  0  0  0  0
  7 37  1  0  0  0  0
  7 38  1  0  0  0  0
  9 10  1  0  0  0  0
  9 39  1  0  0  0  0
  9 40  1  0  0  0  0
 10 11  1  0  0  0  0
 11 16  1  0  0  0  0
 11 12  2  0  0  0  0
 12 13  1  0  0  0  0
 13 14  2  0  0  0  0
 13 41  1  0  0  0  0
 14 15  1  0  0  0  0
 15 19  1  0  0  0  0
 15 16  2  0  0  0  0
 16 17  1  0  0  0  0
 17 18  2  0  0  0  0
 18 19  1  0  0  0  0
 18 42  1  0  0  0  0
 19 20  1  0  0  0  0
 20 27  1  0  0  0  0
 20 21  1  0  0  0  0
 20 43  1  0  0  0  0
 21 22  1  0  0  0  0
 21 44  1  0  0  0  0
 21 45  1  0  0  0  0
 22 23  1  0  0  0  0
 22 25  1  0  0  0  0
 22 27  1  0  0  0  0
 23 24  1  0  0  0  0
 23 46  1  0  0  0  0
 23 47  1  0  0  0  0
 24 48  1  0  0  0  0
 25 26  1  0  0  0  0
 25 49  1  0  0  0  0
 25 50  1  0  0  0  0
 26 51  1  0  0  0  0
 27 52  1  0  0  0  0
 27 53  1  0  0  0  0
M  END
> <s_m_source_file>
AV-unprocessed.smi

> <i_m_source_file_index>
187

> <i_lp_mmshare_version>
43012

> <i_f3d_flags>
0

> <s_epik_input>
W0NIM11bQ0BASF0xW0NIMl1bQ0gyXVtDQEBIXShDKD1PKVtOSDJdKVtDSDJdTjFjKG5bY0hdbjIpYyhjMjMpbltjSF1uM1tDSF0oW0NIMl00KVtDSDJdQzQoW0NIMl1bT0hdKVtDSDJdW09IXQ==

> <s_epik_cmdline>
J2VwaWtfcHl0aG9uJywgJy1waCcsICc3LjAnLCAnLXRuJywgJzgnLCAnLW1hJywgJzIwMCcsICctbWV0YWxfYmluZGluZycsICctaW1hZScsICc8aW5maWxlLm1hZT4nLCAnLW9tYWUnLCAnPG91dGZpbGUubWFlPic=

> <r_lp_tautomer_probability>
1

> <r_epik_Ionization_Penalty>
0.0017711

> <r_epik_Ionization_Penalty_Charging>
0

> <r_epik_Ionization_Penalty_Neutral>
0.0017711

> <r_epik_State_Penalty>
0.00107211

> <r_epik_Charging_Adjusted_Penalty>
0.00107211

> <i_epik_Tot_Q>
0

> <i_epik_Tot_abs_Q>
0

> <r_epik_Metal_State_Penalty>
-0

> <b_epik_Metal_Only>
0

> <s_lp_Force_Field>
OPLS_2005

> <r_lp_Energy>
40.7321

> <b_lp_Chiralities_Consistent>
1

> <s_lp_Variant>
AV-unprocessed.smi:187-3

> <Gold.Version>
5.8.1

> <Gold.Id.Protein>
6NUR|6NUR_protein|mol2

> <Gold.PLP.Fitness>
43.0740

> <Gold.PLP.PLP>
-36.2419

> <Gold.PLP.part.hbond>
-4.1726

> <Gold.PLP.part.metal>
0.0000

> <Gold.PLP.part.buried>
0.8177

> <Gold.PLP.part.nonpolar>
-33.7301

> <Gold.PLP.part.repulsive>
0.5075

> <Gold.PLP.ligand.clash>
0.0000

> <Gold.PLP.ligand.torsion>
1.5195

> <Gold.PLP.Chemscore.Hbond>
2.5920

> <Gold.PLP.Chemscore.CHOScore>
0.4907

> <Gold.PLP.Chemscore.Metal>
0.0000

> <Gold.Chemscore.Hbonds>
donor molecule, donor type, donor heavy atom, donor atom, acceptor molecule, acceptor atom, score
      L1  H     7    38       P1  8028  0.53
      L1  H    24    48       P1 10747  0.90
      L1  H    26    51       P1 10186  1.00
      L1  C    18    42       P1 10171  0.40

> <Gold.PLP.Chemscore.Internal.Correction>
0.6230

> <Gold.Rescore>
     Score         DG    S(hbond)    S(metal)    S(lipo)     H(rot)  DE(clash)    DE(int)     intcor
      7.29     -12.16       2.33        0.00      77.90       3.99       2.62       2.25       ----

> <Gold.Chemscore.Fitness>
7.2869

> <Gold.Chemscore.DG>
-12.1582

> <Gold.Chemscore.ZeroCoef>
-5.4800

> <Gold.Chemscore.Hbond>
2.3288

> <Gold.Chemscore.Metal>
0.0000

> <Gold.Chemscore.Lipo>
77.9026

> <Gold.Chemscore.Internal_Hbond>
0.0000

> <Gold.Chemscore.DEClash>
2.6193

> <Gold.Chemscore.DEInternal>
2.2520

> <Gold.Chemscore.Rot>
3.9902

> <Gold.Chemscore.Internal.Correction>
   9.000000E+99

> <Gold.Chemscore.Hbonds>
donor molecule, donor type, donor heavy atom, donor atom, acceptor molecule, acceptor atom, score
      L1  H     7    38       P1  8028  0.46
      L1  H    24    48       P1 10747  0.88
      L1  H    26    51       P1 10186  1.00

> <Gold.Chemscore.Hbond.Weighted>
-7.7784

> <Gold.Chemscore.Metal.Weighted>
-0.0000

> <Gold.Chemscore.Lipo.Weighted>
-9.1146

> <Gold.Chemscore.Internal_Hbond.Weighted>
0.0000

> <Gold.Chemscore.DEClash.Weighted>
2.6193

> <Gold.Chemscore.DEInternal.Weighted>
2.2520

> <Gold.Chemscore.Rot.Weighted>
10.2148

> <Gold.Chemscore.Internal.Correction.Weighted>
   9.000000E+99

> <Gold.Protein.RotatedTorsions>
[ 6907 6896 6895 6894 ] final  -23.81 input  -60.11 | X-H torsion
[ 7974 7965 7964 7962 ] final   54.49 input  175.53 | X-H torsion
[ 8008 7997 7996 7995 ] final -135.12 input   59.86 | X-H torsion
[ 10167 10162 10161 10158 ] final -144.82 input  -65.29 | X-H torsion
[ 10718 10713 10712 10709 ] final  110.98 input   66.30 | X-H torsion
[ 10763 10752 10751 10750 ] final -147.34 input  -60.55 | X-H torsion
[ 11005 11000 10999 10996 ] final -175.35 input  -57.11 | X-H torsion

> <Gold.Protein.ActiveResidues>
 VAL166  LYS551  ARG553  GLY616  TRP617  ASP618  TYR619  PRO620  LYS621  CYS622 
 ASP623  PHE694  ASN695  SER759  ASP760  ASP761  ALA762  ILE779  LEU786  VAL792 
 PHE793  MET794  SER795  GLU796  ALA797  LYS798  CYS799  TRP800  GLU811  SER814 

> <Gold.Protein.RotatedAtoms>
  151.1986  135.0433  159.8862 H   0  0  0  0  0  0  0  0  0  0  0  0  # atno 6907 bound_to 6896
  152.5434  134.0875  159.8272 H   0  0  0  0  0  0  0  0  0  0  0  0  # atno 6908 bound_to 6896
  151.1013  133.5194  159.2642 H   0  0  0  0  0  0  0  0  0  0  0  0  # atno 6909 bound_to 6896
  145.9603  139.4052  143.0252 H   0  0  0  0  0  0  0  0  0  0  0  0  # atno 7974 bound_to 7965
  155.3733  140.0489  157.3045 H   0  0  0  0  0  0  0  0  0  0  0  0  # atno 8008 bound_to 7997
  154.5119  140.2194  155.9103 H   0  0  0  0  0  0  0  0  0  0  0  0  # atno 8009 bound_to 7997
  156.1592  140.3120  155.8783 H   0  0  0  0  0  0  0  0  0  0  0  0  # atno 8010 bound_to 7997
  139.7863  143.8029  152.2645 H   0  0  0  0  0  0  0  0  0  0  0  0  # atno 10167 bound_to 10162
  157.6468  131.0942  150.6681 H   0  0  0  0  0  0  0  0  0  0  0  0  # atno 10718 bound_to 10713
  154.8291  135.3363  154.6802 H   0  0  0  0  0  0  0  0  0  0  0  0  # atno 10763 bound_to 10752
  153.7424  135.6945  153.4968 H   0  0  0  0  0  0  0  0  0  0  0  0  # atno 10764 bound_to 10752
  153.2234  135.4441  155.0466 H   0  0  0  0  0  0  0  0  0  0  0  0  # atno 10765 bound_to 10752
  140.4643  134.6225  157.4856 H   0  0  0  0  0  0  0  0  0  0  0  0  # atno 11005 bound_to 11000
  145.8050  140.9753  143.0979 LP  0  0  0  0  0  0  0  0  0  0  0  0  # atno 17320 bound_to 7965
  144.6813  139.9849  143.7484 LP  0  0  0  0  0  0  0  0  0  0  0  0  # atno 17321 bound_to 7965
  139.8107  144.7337  150.9702 LP  0  0  0  0  0  0  0  0  0  0  0  0  # atno 17342 bound_to 10162
  140.7819  143.4254  151.0776 LP  0  0  0  0  0  0  0  0  0  0  0  0  # atno 17343 bound_to 10162
  156.6997  130.4619  149.5576 LP  0  0  0  0  0  0  0  0  0  0  0  0  # atno 17370 bound_to 10713
  156.1804  130.6495  151.0944 LP  0  0  0  0  0  0  0  0  0  0  0  0  # atno 17371 bound_to 10713
  139.9925  134.6962  155.9664 LP  0  0  0  0  0  0  0  0  0  0  0  0  # atno 17394 bound_to 11000
  141.1607  133.6539  156.4309 LP  0  0  0  0  0  0  0  0  0  0  0  0  # atno 17395 bound_to 11000

$$$$
