AV-unprocessed.smi:3043|AV-procd|sdf|11603|dock7
  -GOLD-   2272016583D 1   1.00000     0.00000
 Structure written by MMmdl.
 44 45  0  0  0  0  0  0  0  0  2 V2000
  150.2297  140.0652  157.1706 C   0  0  0  0  0  0  0  0  0  0  0  0
  149.3699  140.9849  156.3005 C   0  0  0  0  0  0  0  0  0  0  0  0
  148.9033  141.9996  156.8180 O   0  0  0  0  0  0  0  0  0  0  0  0
  149.1551  140.6604  155.0026 N   0  0  0  0  0  0  0  0  0  0  0  0
  149.6568  139.4186  154.4022 C   0  0  0  0  0  0  0  0  0  0  0  0
  148.4640  138.4923  154.1042 C   0  0  0  0  0  0  0  0  0  0  0  0
  147.4277  139.1836  153.1904 C   0  0  0  0  0  0  0  0  0  0  0  0
  146.1978  138.2854  152.9661 C   0  0  0  0  0  0  0  0  0  0  0  0
  146.5796  136.8598  152.8701 N   0  3  0  0  0  0  0  0  0  0  0  0
  145.7610  136.0417  151.9476 C   0  0  2  0  0  0  0  0  0  0  0  0
  144.2581  136.3089  152.1615 C   0  0  0  0  0  0  0  0  0  0  0  0
  146.1326  134.5553  152.1275 C   0  0  0  0  0  0  0  0  0  0  0  0
  145.5134  133.6906  151.1387 N   0  0  0  0  0  0  0  0  0  0  0  0
  146.1126  132.7476  150.3302 C   0  0  0  0  0  0  0  0  0  0  0  0
  145.1310  132.1870  149.5642 C   0  0  0  0  0  0  0  0  0  0  0  0
  143.9487  132.8582  149.9847 C   0  0  0  0  0  0  0  0  0  0  0  0
  144.1810  133.7565  150.9284 N   0  0  0  0  0  0  0  0  0  0  0  0
  147.0496  140.5717  153.7598 C   0  0  0  0  0  0  0  0  0  0  0  0
  148.3042  141.4084  154.0688 C   0  0  0  0  0  0  0  0  0  0  0  0
  151.2279  139.9514  156.7470 H   0  0  0  0  0  0  0  0  0  0  0  0
  149.7690  139.0816  157.2669 H   0  0  0  0  0  0  0  0  0  0  0  0
  150.3407  140.4800  158.1729 H   0  0  0  0  0  0  0  0  0  0  0  0
  150.1918  139.6527  153.4807 H   0  0  0  0  0  0  0  0  0  0  0  0
  150.3763  138.9014  155.0385 H   0  0  0  0  0  0  0  0  0  0  0  0
  148.8217  137.5736  153.6380 H   0  0  0  0  0  0  0  0  0  0  0  0
  147.9926  138.1981  155.0433 H   0  0  0  0  0  0  0  0  0  0  0  0
  147.9090  139.3406  152.2233 H   0  0  0  0  0  0  0  0  0  0  0  0
  145.5018  138.4141  153.7948 H   0  0  0  0  0  0  0  0  0  0  0  0
  145.6710  138.5872  152.0596 H   0  0  0  0  0  0  0  0  0  0  0  0
  147.5335  136.8308  152.5394 H   0  0  0  0  0  0  0  0  0  0  0  0
  146.0205  136.3241  150.9260 H   0  0  0  0  0  0  0  0  0  0  0  0
  143.6476  135.7496  151.4522 H   0  0  0  0  0  0  0  0  0  0  0  0
  144.0074  137.3603  152.0258 H   0  0  0  0  0  0  0  0  0  0  0  0
  143.9456  136.0199  153.1655 H   0  0  0  0  0  0  0  0  0  0  0  0
  147.2135  134.4270  152.0543 H   0  0  0  0  0  0  0  0  0  0  0  0
  145.8477  134.2112  153.1237 H   0  0  0  0  0  0  0  0  0  0  0  0
  147.1753  132.5573  150.3652 H   0  0  0  0  0  0  0  0  0  0  0  0
  145.2400  131.4140  148.8178 H   0  0  0  0  0  0  0  0  0  0  0  0
  142.9361  132.7203  149.6351 H   0  0  0  0  0  0  0  0  0  0  0  0
  146.4183  141.1124  153.0543 H   0  0  0  0  0  0  0  0  0  0  0  0
  146.4627  140.4522  154.6718 H   0  0  0  0  0  0  0  0  0  0  0  0
  148.0119  142.3913  154.4353 H   0  0  0  0  0  0  0  0  0  0  0  0
  148.8618  141.5968  153.1502 H   0  0  0  0  0  0  0  0  0  0  0  0
  146.5478  136.4425  153.7894 H   0  0  0  0  0  0  0  0  0  0  0  0
  1  2  1  0  0  0  0
  1 20  1  0  0  0  0
  1 21  1  0  0  0  0
  1 22  1  0  0  0  0
  2  3  2  0  0  0  0
  2  4  1  0  0  0  0
  4 19  1  0  0  0  0
  4  5  1  0  0  0  0
  5  6  1  0  0  0  0
  5 23  1  0  0  0  0
  5 24  1  0  0  0  0
  6  7  1  0  0  0  0
  6 25  1  0  0  0  0
  6 26  1  0  0  0  0
  7  8  1  0  0  0  0
  7 18  1  0  0  0  0
  7 27  1  0  0  0  0
  8  9  1  0  0  0  0
  8 28  1  0  0  0  0
  8 29  1  0  0  0  0
  9 10  1  0  0  0  0
  9 30  1  0  0  0  0
  9 44  1  0  0  0  0
 10 11  1  0  0  0  0
 10 12  1  0  0  0  0
 10 31  1  0  0  0  0
 11 32  1  0  0  0  0
 11 33  1  0  0  0  0
 11 34  1  0  0  0  0
 12 13  1  0  0  0  0
 12 35  1  0  0  0  0
 12 36  1  0  0  0  0
 13 17  1  0  0  0  0
 13 14  1  0  0  0  0
 14 15  2  0  0  0  0
 14 37  1  0  0  0  0
 15 16  1  0  0  0  0
 15 38  1  0  0  0  0
 16 17  2  0  0  0  0
 16 39  1  0  0  0  0
 18 19  1  0  0  0  0
 18 40  1  0  0  0  0
 18 41  1  0  0  0  0
 19 42  1  0  0  0  0
 19 43  1  0  0  0  0
M  CHG  1   9   1
M  END
> <s_m_source_file>
AV-unprocessed.smi

> <i_m_source_file_index>
3043

> <i_lp_mmshare_version>
43012

> <i_f3d_flags>
0

> <s_epik_input>
W0NIM11DKD1PKU4xW0NIMl1bQ0gyXVtDSF0oW0NIMl1bQ0gyXTEpW0NIMl1bTkhdW0NASF0oW0NIM10pW0NIMl1uMltjSF1bY0hdW2NIXW4y

> <s_epik_cmdline>
J2VwaWtfcHl0aG9uJywgJy1waCcsICc3LjAnLCAnLXRuJywgJzgnLCAnLW1hJywgJzIwMCcsICctbWV0YWxfYmluZGluZycsICctaW1hZScsICc8aW5maWxlLm1hZT4nLCAnLW9tYWUnLCAnPG91dGZpbGUubWFlPic=

> <r_lp_tautomer_probability>
1

> <r_epik_Ionization_Penalty>
0.00300549

> <r_epik_Ionization_Penalty_Charging>
0.00299781

> <r_epik_Ionization_Penalty_Neutral>
7.6831e-06

> <r_epik_State_Penalty>
0.00210473

> <r_epik_Charging_Adjusted_Penalty>
0.00510254

> <i_epik_Tot_Q>
1

> <i_epik_Tot_abs_Q>
1

> <r_epik_Metal_State_Penalty>
-0

> <b_epik_Metal_Only>
0

> <s_lp_Force_Field>
OPLS_2005

> <r_lp_Energy>
29.3743

> <b_lp_Chiralities_Consistent>
1

> <s_lp_Variant>
AV-unprocessed.smi:3043-1

> <Gold.Version>
5.8.1

> <Gold.Id.Protein>
6NUR|6NUR_protein|mol2

> <Gold.PLP.Fitness>
44.2397

> <Gold.PLP.PLP>
-33.4124

> <Gold.PLP.part.hbond>
-1.0000

> <Gold.PLP.part.metal>
0.0000

> <Gold.PLP.part.buried>
-3.2075

> <Gold.PLP.part.nonpolar>
-30.9081

> <Gold.PLP.part.repulsive>
1.4636

> <Gold.PLP.ligand.clash>
0.0000

> <Gold.PLP.ligand.torsion>
0.6000

> <Gold.PLP.Chemscore.Hbond>
2.0000

> <Gold.PLP.Chemscore.CHOScore>
1.9944

> <Gold.PLP.Chemscore.Metal>
0.0000

> <Gold.Chemscore.Hbonds>
donor molecule, donor type, donor heavy atom, donor atom, acceptor molecule, acceptor atom, score
      L1  H     9    30       P1  7948  2.00
      L1  C    14    37       P1 10747  1.00
      L1  C    16    39       P1 10186  0.89

> <Gold.PLP.Chemscore.Internal.Correction>
0.0439

> <Gold.Rescore>
     Score         DG    S(hbond)    S(metal)    S(lipo)     H(rot)  DE(clash)    DE(int)     intcor
     12.47     -14.38       1.00        0.00      85.67       1.74       0.03       1.88       ----

> <Gold.Chemscore.Fitness>
12.4747

> <Gold.Chemscore.DG>
-14.3815

> <Gold.Chemscore.ZeroCoef>
-5.4800

> <Gold.Chemscore.Hbond>
0.9994

> <Gold.Chemscore.Metal>
0.0000

> <Gold.Chemscore.Lipo>
85.6691

> <Gold.Chemscore.Internal_Hbond>
0.0000

> <Gold.Chemscore.DEClash>
0.0272

> <Gold.Chemscore.DEInternal>
1.8796

> <Gold.Chemscore.Rot>
1.7422

> <Gold.Chemscore.Internal.Correction>
   9.000000E+99

> <Gold.Chemscore.Hbonds>
donor molecule, donor type, donor heavy atom, donor atom, acceptor molecule, acceptor atom, score
      L1  H     9    30       P1  7948  0.99

> <Gold.Chemscore.Hbond.Weighted>
-3.3381

> <Gold.Chemscore.Metal.Weighted>
-0.0000

> <Gold.Chemscore.Lipo.Weighted>
-10.0233

> <Gold.Chemscore.Internal_Hbond.Weighted>
0.0000

> <Gold.Chemscore.DEClash.Weighted>
0.0272

> <Gold.Chemscore.DEInternal.Weighted>
1.8796

> <Gold.Chemscore.Rot.Weighted>
4.4600

> <Gold.Chemscore.Internal.Correction.Weighted>
   9.000000E+99

> <Gold.Protein.RotatedTorsions>
[ 6907 6896 6895 6894 ] final  122.12 input  -60.11 | X-H torsion
[ 7974 7965 7964 7962 ] final   31.03 input  175.53 | X-H torsion
[ 8008 7997 7996 7995 ] final -171.02 input   59.86 | X-H torsion
[ 10167 10162 10161 10158 ] final -104.70 input  -65.29 | X-H torsion
[ 10718 10713 10712 10709 ] final -155.36 input   66.30 | X-H torsion
[ 10763 10752 10751 10750 ] final    7.22 input  -60.55 | X-H torsion
[ 11005 11000 10999 10996 ] final   39.19 input  -57.11 | X-H torsion

> <Gold.Protein.ActiveResidues>
 VAL166  LYS551  ARG553  GLY616  TRP617  ASP618  TYR619  PRO620  LYS621  CYS622 
 ASP623  PHE694  ASN695  SER759  ASP760  ASP761  ALA762  ILE779  LEU786  VAL792 
 PHE793  MET794  SER795  GLU796  ALA797  LYS798  CYS799  TRP800  GLU811  SER814 

> <Gold.Protein.RotatedAtoms>
  152.4268  133.7209  159.6532 H   0  0  0  0  0  0  0  0  0  0  0  0  # atno 6907 bound_to 6896
  150.8145  133.8351  159.3173 H   0  0  0  0  0  0  0  0  0  0  0  0  # atno 6908 bound_to 6896
  151.6051  135.1046  160.0120 H   0  0  0  0  0  0  0  0  0  0  0  0  # atno 6909 bound_to 6896
  146.1575  139.6710  142.9056 H   0  0  0  0  0  0  0  0  0  0  0  0  # atno 7974 bound_to 7965
  155.9261  140.1083  157.1169 H   0  0  0  0  0  0  0  0  0  0  0  0  # atno 8008 bound_to 7997
  154.4062  140.1246  156.4807 H   0  0  0  0  0  0  0  0  0  0  0  0  # atno 8009 bound_to 7997
  155.7137  140.3470  155.4987 H   0  0  0  0  0  0  0  0  0  0  0  0  # atno 8010 bound_to 7997
  140.2065  143.3779  152.1086 H   0  0  0  0  0  0  0  0  0  0  0  0  # atno 10167 bound_to 10162
  156.5118  130.8438  151.2649 H   0  0  0  0  0  0  0  0  0  0  0  0  # atno 10718 bound_to 10713
  153.2388  135.6901  153.7806 H   0  0  0  0  0  0  0  0  0  0  0  0  # atno 10763 bound_to 10752
  153.6944  135.3307  155.3210 H   0  0  0  0  0  0  0  0  0  0  0  0  # atno 10764 bound_to 10752
  154.8346  135.4553  154.1302 H   0  0  0  0  0  0  0  0  0  0  0  0  # atno 10765 bound_to 10752
  140.2052  134.3822  155.8076 H   0  0  0  0  0  0  0  0  0  0  0  0  # atno 11005 bound_to 11000
  145.4671  141.0435  143.2719 LP  0  0  0  0  0  0  0  0  0  0  0  0  # atno 17320 bound_to 7965
  144.7983  139.6191  143.7083 LP  0  0  0  0  0  0  0  0  0  0  0  0  # atno 17321 bound_to 7965
  139.5196  144.7022  151.5459 LP  0  0  0  0  0  0  0  0  0  0  0  0  # atno 17342 bound_to 10162
  140.6354  143.8995  150.6642 LP  0  0  0  0  0  0  0  0  0  0  0  0  # atno 17343 bound_to 10162
  157.7449  130.9947  150.2717 LP  0  0  0  0  0  0  0  0  0  0  0  0  # atno 17370 bound_to 10713
  156.3233  130.3789  149.7555 LP  0  0  0  0  0  0  0  0  0  0  0  0  # atno 17371 bound_to 10713
  141.2227  133.7114  156.8325 LP  0  0  0  0  0  0  0  0  0  0  0  0  # atno 17394 bound_to 11000
  140.2010  134.8897  157.3169 LP  0  0  0  0  0  0  0  0  0  0  0  0  # atno 17395 bound_to 11000

$$$$
