AV-unprocessed.smi:2302|AV-procd|sdf|9237|dock7
  -GOLD-   2272012453D 1   1.00000     0.00000
 Structure written by MMmdl.
 40 41  0  0  0  0  0  0  0  0  2 V2000
  153.0278  142.3021  161.4084 C   0  0  0  0  0  0  0  0  0  0  0  0
  152.2645  143.3018  160.5652 C   0  0  0  0  0  0  0  0  0  0  0  0
  152.0825  144.6280  161.0033 C   0  0  0  0  0  0  0  0  0  0  0  0
  151.3613  145.5065  160.1753 C   0  0  0  0  0  0  0  0  0  0  0  0
  150.8532  145.0255  158.9531 C   0  0  0  0  0  0  0  0  0  0  0  0
  151.0782  143.6791  158.5885 C   0  0  0  0  0  0  0  0  0  0  0  0
  150.5240  143.2917  157.3392 N   0  0  0  0  0  0  0  0  0  0  0  0
  150.2375  142.0508  156.9077 C   0  0  0  0  0  0  0  0  0  0  0  0
  150.4180  141.0132  157.5462 O   0  0  0  0  0  0  0  0  0  0  0  0
  149.7207  142.0706  155.6706 N   0  0  0  0  0  0  0  0  0  0  0  0
  149.2914  140.8898  154.9284 C   0  0  0  0  0  0  0  0  0  0  0  0
  150.2934  139.7288  155.0603 C   0  0  1  0  0  0  0  0  0  0  0  0
  150.1700  138.7321  153.8879 C   0  0  0  0  0  0  0  0  0  0  0  0
  151.2037  137.6717  153.9628 N   0  3  2  0  0  0  0  0  0  0  0  0
  150.9013  136.6110  154.9520 C   0  0  0  0  0  0  0  0  0  0  0  0
  152.5582  138.2551  154.1088 C   0  0  0  0  0  0  0  0  0  0  0  0
  152.6080  139.2753  155.2614 C   0  0  0  0  0  0  0  0  0  0  0  0
  151.6112  140.2704  155.0619 O   0  0  0  0  0  0  0  0  0  0  0  0
  151.7771  142.8402  159.3934 N   0  0  0  0  0  0  0  0  0  0  0  0
  153.6294  142.8053  162.1660 H   0  0  0  0  0  0  0  0  0  0  0  0
  153.6971  141.7055  160.7875 H   0  0  0  0  0  0  0  0  0  0  0  0
  152.3346  141.6285  161.9127 H   0  0  0  0  0  0  0  0  0  0  0  0
  152.4830  144.9651  161.9483 H   0  0  0  0  0  0  0  0  0  0  0  0
  151.1990  146.5321  160.4724 H   0  0  0  0  0  0  0  0  0  0  0  0
  150.2953  145.6870  158.3063 H   0  0  0  0  0  0  0  0  0  0  0  0
  150.3163  144.0482  156.7042 H   0  0  0  0  0  0  0  0  0  0  0  0
  149.6075  142.9635  155.2129 H   0  0  0  0  0  0  0  0  0  0  0  0
  148.3059  140.5810  155.2811 H   0  0  0  0  0  0  0  0  0  0  0  0
  149.1713  141.1653  153.8802 H   0  0  0  0  0  0  0  0  0  0  0  0
  150.1144  139.2079  156.0021 H   0  0  0  0  0  0  0  0  0  0  0  0
  149.1756  138.2845  153.8611 H   0  0  0  0  0  0  0  0  0  0  0  0
  150.2956  139.2633  152.9433 H   0  0  0  0  0  0  0  0  0  0  0  0
  150.8953  136.9941  155.9724 H   0  0  0  0  0  0  0  0  0  0  0  0
  151.6430  135.8141  154.8945 H   0  0  0  0  0  0  0  0  0  0  0  0
  149.9259  136.1673  154.7506 H   0  0  0  0  0  0  0  0  0  0  0  0
  153.2991  137.4678  154.2536 H   0  0  0  0  0  0  0  0  0  0  0  0
  152.8166  138.7555  153.1746 H   0  0  0  0  0  0  0  0  0  0  0  0
  152.4692  138.7908  156.2288 H   0  0  0  0  0  0  0  0  0  0  0  0
  153.5847  139.7586  155.2896 H   0  0  0  0  0  0  0  0  0  0  0  0
  151.1928  137.2043  153.0671 H   0  0  0  0  0  0  0  0  0  0  0  0
  1  2  1  0  0  0  0
  1 20  1  0  0  0  0
  1 21  1  0  0  0  0
  1 22  1  0  0  0  0
  2 19  1  0  0  0  0
  2  3  2  0  0  0  0
  3  4  1  0  0  0  0
  3 23  1  0  0  0  0
  4  5  2  0  0  0  0
  4 24  1  0  0  0  0
  5  6  1  0  0  0  0
  5 25  1  0  0  0  0
  6  7  1  0  0  0  0
  6 19  2  0  0  0  0
  7  8  1  0  0  0  0
  7 26  1  0  0  0  0
  8  9  2  0  0  0  0
  8 10  1  0  0  0  0
 10 11  1  0  0  0  0
 10 27  1  0  0  0  0
 11 12  1  0  0  0  0
 11 28  1  0  0  0  0
 11 29  1  0  0  0  0
 12 18  1  0  0  0  0
 12 13  1  0  0  0  0
 12 30  1  0  0  0  0
 13 14  1  0  0  0  0
 13 31  1  0  0  0  0
 13 32  1  0  0  0  0
 14 15  1  0  0  0  0
 14 16  1  0  0  0  0
 14 40  1  0  0  0  0
 15 33  1  0  0  0  0
 15 34  1  0  0  0  0
 15 35  1  0  0  0  0
 16 17  1  0  0  0  0
 16 36  1  0  0  0  0
 16 37  1  0  0  0  0
 17 18  1  0  0  0  0
 17 38  1  0  0  0  0
 17 39  1  0  0  0  0
M  CHG  1  14   1
M  END
> <s_m_source_file>
AV-unprocessed.smi

> <i_m_source_file_index>
2302

> <i_lp_mmshare_version>
43012

> <i_f3d_flags>
0

> <s_epik_input>
W0NIM11jMVtjSF1bY0hdW2NIXWMobjEpW05IXUMoPU8pW05IXVtDSDJdW0NAQEhdMltDSDJdTihbQ0gzXSlbQ0gyXVtDSDJdTzI=

> <s_epik_cmdline>
J2VwaWtfcHl0aG9uJywgJy1waCcsICc3LjAnLCAnLXRuJywgJzgnLCAnLW1hJywgJzIwMCcsICctbWV0YWxfYmluZGluZycsICctaW1hZScsICc8aW5maWxlLm1hZT4nLCAnLW9tYWUnLCAnPG91dGZpbGUubWFlPic=

> <r_epik_Ionization_Penalty>
0.204647

> <r_epik_Ionization_Penalty_Charging>
0.204578

> <r_epik_Ionization_Penalty_Neutral>
6.91954e-05

> <r_epik_State_Penalty>
0.194513

> <r_epik_Charging_Adjusted_Penalty>
0.399091

> <i_epik_Tot_Q>
1

> <i_epik_Tot_abs_Q>
1

> <r_epik_Metal_State_Penalty>
0.194515

> <b_epik_Metal_Only>
0

> <s_lp_Force_Field>
OPLS_2005

> <r_lp_Energy>
17.5871

> <b_lp_Chiralities_Consistent>
1

> <s_lp_Variant>
AV-unprocessed.smi:2302-2

> <Gold.Version>
5.8.1

> <Gold.Id.Protein>
6NUR|6NUR_protein|mol2

> <Gold.PLP.Fitness>
57.1169

> <Gold.PLP.PLP>
-44.0534

> <Gold.PLP.part.hbond>
-4.3045

> <Gold.PLP.part.metal>
0.0000

> <Gold.PLP.part.buried>
-7.5868

> <Gold.PLP.part.nonpolar>
-33.3285

> <Gold.PLP.part.repulsive>
0.3117

> <Gold.PLP.ligand.clash>
0.0000

> <Gold.PLP.ligand.torsion>
0.4417

> <Gold.PLP.Chemscore.Hbond>
4.6480

> <Gold.PLP.Chemscore.CHOScore>
0.0000

> <Gold.PLP.Chemscore.Metal>
0.0000

> <Gold.Chemscore.Hbonds>
donor molecule, donor type, donor heavy atom, donor atom, acceptor molecule, acceptor atom, score
      L1  H     7    26       P1  8028  0.83
      L1  H    10    27       P1  8028  0.77
      L1  H    14    40       P1  7949  2.00
      P1  H  7989  7998       L1    18  0.94

> <Gold.PLP.Chemscore.Internal.Correction>
0.0029

> <Gold.Rescore>
     Score         DG    S(hbond)    S(metal)    S(lipo)     H(rot)  DE(clash)    DE(int)     intcor
     16.32     -22.16       2.43        0.00     101.14       1.27       0.08       5.76       ----

> <Gold.Chemscore.Fitness>
16.3232

> <Gold.Chemscore.DG>
-22.1623

> <Gold.Chemscore.ZeroCoef>
-5.4800

> <Gold.Chemscore.Hbond>
2.4281

> <Gold.Chemscore.Metal>
0.0000

> <Gold.Chemscore.Lipo>
101.1353

> <Gold.Chemscore.Internal_Hbond>
0.0000

> <Gold.Chemscore.DEClash>
0.0778

> <Gold.Chemscore.DEInternal>
5.7613

> <Gold.Chemscore.Rot>
1.2736

> <Gold.Chemscore.Internal.Correction>
   9.000000E+99

> <Gold.Chemscore.Hbonds>
donor molecule, donor type, donor heavy atom, donor atom, acceptor molecule, acceptor atom, score
      L1  H     7    26       P1  8028  0.81
      L1  H    10    27       P1  8028  0.75
      L1  H    14    40       P1  7949  0.53
      P1  H  7989  7998       L1    18  0.18

> <Gold.Chemscore.Hbond.Weighted>
-8.1098

> <Gold.Chemscore.Metal.Weighted>
-0.0000

> <Gold.Chemscore.Lipo.Weighted>
-11.8328

> <Gold.Chemscore.Internal_Hbond.Weighted>
0.0000

> <Gold.Chemscore.DEClash.Weighted>
0.0778

> <Gold.Chemscore.DEInternal.Weighted>
5.7613

> <Gold.Chemscore.Rot.Weighted>
3.2603

> <Gold.Chemscore.Internal.Correction.Weighted>
   9.000000E+99

> <Gold.Protein.RotatedTorsions>
[ 6907 6896 6895 6894 ] final -136.19 input  -60.11 | X-H torsion
[ 7974 7965 7964 7962 ] final  138.25 input  175.53 | X-H torsion
[ 8008 7997 7996 7995 ] final   66.84 input   59.86 | X-H torsion
[ 10167 10162 10161 10158 ] final  -63.37 input  -65.29 | X-H torsion
[ 10718 10713 10712 10709 ] final  -68.52 input   66.30 | X-H torsion
[ 10763 10752 10751 10750 ] final   61.68 input  -60.55 | X-H torsion
[ 11005 11000 10999 10996 ] final  -33.12 input  -57.11 | X-H torsion

> <Gold.Protein.ActiveResidues>
 VAL166  LYS551  ARG553  GLY616  TRP617  ASP618  TYR619  PRO620  LYS621  CYS622 
 ASP623  PHE694  ASN695  SER759  ASP760  ASP761  ALA762  ILE779  LEU786  VAL792 
 PHE793  MET794  SER795  GLU796  ALA797  LYS798  CYS799  TRP800  GLU811  SER814 

> <Gold.Protein.RotatedAtoms>
  151.0071  133.6000  159.2687 H   0  0  0  0  0  0  0  0  0  0  0  0  # atno 6907 bound_to 6896
  151.3166  135.0807  159.9301 H   0  0  0  0  0  0  0  0  0  0  0  0  # atno 6908 bound_to 6896
  152.5289  133.9726  159.7823 H   0  0  0  0  0  0  0  0  0  0  0  0  # atno 6909 bound_to 6896
  144.9390  139.4953  143.5581 H   0  0  0  0  0  0  0  0  0  0  0  0  # atno 7974 bound_to 7965
  155.6837  140.3496  155.4865 H   0  0  0  0  0  0  0  0  0  0  0  0  # atno 8008 bound_to 7997
  155.9585  140.1133  157.0939 H   0  0  0  0  0  0  0  0  0  0  0  0  # atno 8009 bound_to 7997
  154.4137  140.1180  156.5133 H   0  0  0  0  0  0  0  0  0  0  0  0  # atno 8010 bound_to 7997
  140.5875  143.2336  151.6211 H   0  0  0  0  0  0  0  0  0  0  0  0  # atno 10167 bound_to 10162
  156.0501  130.4296  150.2012 H   0  0  0  0  0  0  0  0  0  0  0  0  # atno 10718 bound_to 10713
  152.9958  135.5492  154.6073 H   0  0  0  0  0  0  0  0  0  0  0  0  # atno 10763 bound_to 10752
  154.5401  135.2819  155.1105 H   0  0  0  0  0  0  0  0  0  0  0  0  # atno 10764 bound_to 10752
  154.2386  135.6420  153.5252 H   0  0  0  0  0  0  0  0  0  0  0  0  # atno 10765 bound_to 10752
  140.9609  133.7165  156.1367 H   0  0  0  0  0  0  0  0  0  0  0  0  # atno 11005 bound_to 11000
  146.3278  139.8396  142.8893 LP  0  0  0  0  0  0  0  0  0  0  0  0  # atno 17320 bound_to 7965
  145.3020  141.0197  143.3603 LP  0  0  0  0  0  0  0  0  0  0  0  0  # atno 17321 bound_to 7965
  139.5207  144.3216  152.0905 LP  0  0  0  0  0  0  0  0  0  0  0  0  # atno 17342 bound_to 10162
  140.2375  144.4304  150.6274 LP  0  0  0  0  0  0  0  0  0  0  0  0  # atno 17343 bound_to 10162
  157.0097  130.9947  151.3369 LP  0  0  0  0  0  0  0  0  0  0  0  0  # atno 17370 bound_to 10713
  157.5419  130.8125  149.8039 LP  0  0  0  0  0  0  0  0  0  0  0  0  # atno 17371 bound_to 10713
  140.7469  134.4088  157.5547 LP  0  0  0  0  0  0  0  0  0  0  0  0  # atno 17394 bound_to 11000
  139.8878  134.8874  156.2511 LP  0  0  0  0  0  0  0  0  0  0  0  0  # atno 17395 bound_to 11000

$$$$
