AV-unprocessed.smi:1036|AV-procd|sdf|4519|dock4
  -GOLD-   22720 2533D 1   1.00000     0.00000
 Structure written by MMmdl.
 41 43  0  0  0  0  0  0  0  0  1 V2000
  153.5796  135.5943  157.1295 O   0  0  0  0  0  0  0  0  0  0  0  0
  154.5675  136.4112  157.7210 C   0  0  0  0  0  0  0  0  0  0  0  0
  153.9642  137.2026  158.8899 C   0  0  0  0  0  0  0  0  0  0  0  0
  152.9848  138.1742  158.4396 N   0  0  0  0  0  0  0  0  0  0  0  0
  152.7597  139.5021  158.7819 C   0  0  0  0  0  0  0  0  0  0  0  0
  153.4896  140.1740  159.6707 N   0  0  0  0  0  0  0  0  0  0  0  0
  152.8963  141.4224  159.6536 C   0  0  0  0  0  0  0  0  0  0  0  0
  153.2051  142.5959  160.3784 C   0  0  0  0  0  0  0  0  0  0  0  0
  152.4488  143.7714  160.1903 C   0  0  0  0  0  0  0  0  0  0  0  0
  151.3753  143.7915  159.2763 C   0  0  0  0  0  0  0  0  0  0  0  0
  151.0495  142.6338  158.5438 C   0  0  0  0  0  0  0  0  0  0  0  0
  151.8062  141.4625  158.7361 C   0  0  0  0  0  0  0  0  0  0  0  0
  151.7506  140.1845  158.1892 N   0  0  0  0  0  0  0  0  0  0  0  0
  150.7988  139.7178  157.1890 C   0  0  0  0  0  0  0  0  0  0  0  0
  150.9406  140.4602  155.8458 C   0  0  1  0  0  0  0  0  0  0  0  0
  152.0799  139.9884  155.1510 O   0  0  0  0  0  0  0  0  0  0  0  0
  149.6660  140.3476  155.0201 C   0  0  0  0  0  0  0  0  0  0  0  0
  148.8774  141.4912  154.7593 C   0  0  0  0  0  0  0  0  0  0  0  0
  147.7038  141.3864  153.9878 C   0  0  0  0  0  0  0  0  0  0  0  0
  146.9533  142.4868  153.7443 F   0  0  0  0  0  0  0  0  0  0  0  0
  147.3121  140.1386  153.4677 C   0  0  0  0  0  0  0  0  0  0  0  0
  148.0969  138.9967  153.7164 C   0  0  0  0  0  0  0  0  0  0  0  0
  149.2714  139.0991  154.4876 C   0  0  0  0  0  0  0  0  0  0  0  0
  150.0196  137.9915  154.7086 F   0  0  0  0  0  0  0  0  0  0  0  0
  153.5774  134.7591  157.5714 H   0  0  0  0  0  0  0  0  0  0  0  0
  155.3561  135.7562  158.0915 H   0  0  0  0  0  0  0  0  0  0  0  0
  155.0194  137.0669  156.9757 H   0  0  0  0  0  0  0  0  0  0  0  0
  153.5177  136.5363  159.6285 H   0  0  0  0  0  0  0  0  0  0  0  0
  154.7563  137.7503  159.4013 H   0  0  0  0  0  0  0  0  0  0  0  0
  152.4018  137.8343  157.6883 H   0  0  0  0  0  0  0  0  0  0  0  0
  154.0259  142.5915  161.0805 H   0  0  0  0  0  0  0  0  0  0  0  0
  152.6941  144.6623  160.7497 H   0  0  0  0  0  0  0  0  0  0  0  0
  150.8015  144.6962  159.1378 H   0  0  0  0  0  0  0  0  0  0  0  0
  150.2283  142.6463  157.8426 H   0  0  0  0  0  0  0  0  0  0  0  0
  150.9107  138.6419  157.0498 H   0  0  0  0  0  0  0  0  0  0  0  0
  149.7948  139.8659  157.5887 H   0  0  0  0  0  0  0  0  0  0  0  0
  151.1278  141.5155  156.0476 H   0  0  0  0  0  0  0  0  0  0  0  0
  152.1601  139.0590  155.3021 H   0  0  0  0  0  0  0  0  0  0  0  0
  149.1703  142.4561  155.1468 H   0  0  0  0  0  0  0  0  0  0  0  0
  146.4124  140.0578  152.8759 H   0  0  0  0  0  0  0  0  0  0  0  0
  147.7988  138.0403  153.3129 H   0  0  0  0  0  0  0  0  0  0  0  0
  1  2  1  0  0  0  0
  1 25  1  0  0  0  0
  2  3  1  0  0  0  0
  2 26  1  0  0  0  0
  2 27  1  0  0  0  0
  3  4  1  0  0  0  0
  3 28  1  0  0  0  0
  3 29  1  0  0  0  0
  4  5  1  0  0  0  0
  4 30  1  0  0  0  0
  5 13  1  0  0  0  0
  5  6  2  0  0  0  0
  6  7  1  0  0  0  0
  7 12  2  0  0  0  0
  7  8  1  0  0  0  0
  8  9  2  0  0  0  0
  8 31  1  0  0  0  0
  9 10  1  0  0  0  0
  9 32  1  0  0  0  0
 10 11  2  0  0  0  0
 10 33  1  0  0  0  0
 11 12  1  0  0  0  0
 11 34  1  0  0  0  0
 12 13  1  0  0  0  0
 13 14  1  0  0  0  0
 14 15  1  0  0  0  0
 14 35  1  0  0  0  0
 14 36  1  0  0  0  0
 15 16  1  0  0  0  0
 15 17  1  0  0  0  0
 15 37  1  0  0  0  0
 16 38  1  0  0  0  0
 17 23  1  0  0  0  0
 17 18  2  0  0  0  0
 18 19  1  0  0  0  0
 18 39  1  0  0  0  0
 19 20  1  0  0  0  0
 19 21  2  0  0  0  0
 21 22  1  0  0  0  0
 21 40  1  0  0  0  0
 22 23  2  0  0  0  0
 22 41  1  0  0  0  0
 23 24  1  0  0  0  0
M  END
> <s_m_source_file>
AV-unprocessed.smi

> <i_m_source_file_index>
1036

> <i_lp_mmshare_version>
43012

> <i_f3d_flags>
0

> <s_epik_input>
W09IXVtDSDJdW0NIMl1bTkhdYyhuMSluKGMoYzEyKVtjSF1bY0hdW2NIXVtjSF0yKVtDSDJdW0NASF0oW09IXSljM1tjSF1jKEYpW2NIXVtjSF1jM0Y=

> <s_epik_cmdline>
J2VwaWtfcHl0aG9uJywgJy1waCcsICc3LjAnLCAnLXRuJywgJzgnLCAnLW1hJywgJzIwMCcsICctbWV0YWxfYmluZGluZycsICctaW1hZScsICc8aW5maWxlLm1hZT4nLCAnLW9tYWUnLCAnPG91dGZpbGUubWFlPic=

> <r_epik_Ionization_Penalty>
1.30972

> <r_epik_Ionization_Penalty_Charging>
0

> <r_epik_Ionization_Penalty_Neutral>
1.30972

> <r_epik_State_Penalty>
1.38438

> <r_epik_Charging_Adjusted_Penalty>
1.38438

> <i_epik_Tot_Q>
0

> <i_epik_Tot_abs_Q>
0

> <r_epik_Metal_State_Penalty>
0.00551145

> <b_epik_Metal_Only>
0

> <s_lp_Force_Field>
OPLS_2005

> <r_lp_Energy>
10.9481

> <b_lp_Chiralities_Consistent>
1

> <s_lp_Variant>
AV-unprocessed.smi:1036-4

> <Gold.Version>
5.8.1

> <Gold.Id.Protein>
6NUR|6NUR_protein|mol2

> <Gold.PLP.Fitness>
52.3377

> <Gold.PLP.PLP>
-47.6580

> <Gold.PLP.part.hbond>
-1.9198

> <Gold.PLP.part.metal>
0.0000

> <Gold.PLP.part.buried>
-6.1135

> <Gold.PLP.part.nonpolar>
-40.3770

> <Gold.PLP.part.repulsive>
0.0864

> <Gold.PLP.ligand.clash>
0.0000

> <Gold.PLP.ligand.torsion>
0.3578

> <Gold.PLP.Chemscore.Hbond>
1.7840

> <Gold.PLP.Chemscore.CHOScore>
0.0000

> <Gold.PLP.Chemscore.Metal>
0.0000

> <Gold.Chemscore.Hbonds>
donor molecule, donor type, donor heavy atom, donor atom, acceptor molecule, acceptor atom, score
      P1  H  7989  7998       L1    16  0.64
      P1  H 10752 10765       L1     1  1.00

> <Gold.PLP.Chemscore.Internal.Correction>
0.0434

> <Gold.Rescore>
     Score         DG    S(hbond)    S(metal)    S(lipo)     H(rot)  DE(clash)    DE(int)     intcor
     13.41     -15.16       1.57        0.00     108.31       3.22       0.02       1.73       ----

> <Gold.Chemscore.Fitness>
13.4088

> <Gold.Chemscore.DG>
-15.1616

> <Gold.Chemscore.ZeroCoef>
-5.4800

> <Gold.Chemscore.Hbond>
1.5722

> <Gold.Chemscore.Metal>
0.0000

> <Gold.Chemscore.Lipo>
108.3070

> <Gold.Chemscore.Internal_Hbond>
0.0000

> <Gold.Chemscore.DEClash>
0.0215

> <Gold.Chemscore.DEInternal>
1.7313

> <Gold.Chemscore.Rot>
3.2194

> <Gold.Chemscore.Internal.Correction>
   9.000000E+99

> <Gold.Chemscore.Hbonds>
donor molecule, donor type, donor heavy atom, donor atom, acceptor molecule, acceptor atom, score
      P1  H  7989  7998       L1    16  0.09
      P1  H 10752 10765       L1     1  0.45

> <Gold.Chemscore.Hbond.Weighted>
-5.2513

> <Gold.Chemscore.Metal.Weighted>
-0.0000

> <Gold.Chemscore.Lipo.Weighted>
-12.6719

> <Gold.Chemscore.Internal_Hbond.Weighted>
0.0000

> <Gold.Chemscore.DEClash.Weighted>
0.0215

> <Gold.Chemscore.DEInternal.Weighted>
1.7313

> <Gold.Chemscore.Rot.Weighted>
8.2416

> <Gold.Chemscore.Internal.Correction.Weighted>
   9.000000E+99

> <Gold.Protein.RotatedTorsions>
[ 6907 6896 6895 6894 ] final   44.76 input  -60.11 | X-H torsion
[ 7974 7965 7964 7962 ] final  105.82 input  175.53 | X-H torsion
[ 8008 7997 7996 7995 ] final  -20.76 input   59.86 | X-H torsion
[ 10167 10162 10161 10158 ] final   99.11 input  -65.29 | X-H torsion
[ 10718 10713 10712 10709 ] final  -51.35 input   66.30 | X-H torsion
[ 10763 10752 10751 10750 ] final  -92.98 input  -60.55 | X-H torsion
[ 11005 11000 10999 10996 ] final   51.58 input  -57.11 | X-H torsion

> <Gold.Protein.ActiveResidues>
 VAL166  LYS551  ARG553  GLY616  TRP617  ASP618  TYR619  PRO620  LYS621  CYS622 
 ASP623  PHE694  ASN695  SER759  ASP760  ASP761  ALA762  ILE779  LEU786  VAL792 
 PHE793  MET794  SER795  GLU796  ALA797  LYS798  CYS799  TRP800  GLU811  SER814 

> <Gold.Protein.RotatedAtoms>
  152.2364  134.8271  160.0466 H   0  0  0  0  0  0  0  0  0  0  0  0  # atno 6907 bound_to 6896
  151.9001  133.3531  159.3836 H   0  0  0  0  0  0  0  0  0  0  0  0  # atno 6908 bound_to 6896
  150.7041  134.4762  159.5493 H   0  0  0  0  0  0  0  0  0  0  0  0  # atno 6909 bound_to 6896
  145.3146  139.2530  143.3744 H   0  0  0  0  0  0  0  0  0  0  0  0  # atno 7974 bound_to 7965
  154.4749  140.2053  155.9904 H   0  0  0  0  0  0  0  0  0  0  0  0  # atno 8008 bound_to 7997
  156.1072  140.3235  155.7992 H   0  0  0  0  0  0  0  0  0  0  0  0  # atno 8009 bound_to 7997
  155.4697  140.0530  157.2972 H   0  0  0  0  0  0  0  0  0  0  0  0  # atno 8010 bound_to 7997
  139.7647  144.6942  151.0241 H   0  0  0  0  0  0  0  0  0  0  0  0  # atno 10167 bound_to 10162
  156.1718  130.4149  149.9636 H   0  0  0  0  0  0  0  0  0  0  0  0  # atno 10718 bound_to 10713
  154.6915  135.5211  153.8398 H   0  0  0  0  0  0  0  0  0  0  0  0  # atno 10763 bound_to 10752
  153.0635  135.6577  154.0417 H   0  0  0  0  0  0  0  0  0  0  0  0  # atno 10764 bound_to 10752
  154.0290  135.2987  155.3351 H   0  0  0  0  0  0  0  0  0  0  0  0  # atno 10765 bound_to 10752
  140.0921  134.5196  155.8842 H   0  0  0  0  0  0  0  0  0  0  0  0  # atno 11005 bound_to 11000
  146.3105  140.3690  142.8672 LP  0  0  0  0  0  0  0  0  0  0  0  0  # atno 17320 bound_to 7965
  144.8988  140.7616  143.5880 LP  0  0  0  0  0  0  0  0  0  0  0  0  # atno 17321 bound_to 7965
  140.7810  143.4656  151.0217 LP  0  0  0  0  0  0  0  0  0  0  0  0  # atno 17342 bound_to 10162
  139.8341  143.7651  152.3180 LP  0  0  0  0  0  0  0  0  0  0  0  0  # atno 17343 bound_to 10162
  156.7434  130.9088  151.3633 LP  0  0  0  0  0  0  0  0  0  0  0  0  # atno 17370 bound_to 10713
  157.6808  130.9138  150.0262 LP  0  0  0  0  0  0  0  0  0  0  0  0  # atno 17371 bound_to 10713
  141.2081  133.6670  156.6348 LP  0  0  0  0  0  0  0  0  0  0  0  0  # atno 17394 bound_to 11000
  140.3338  134.7906  157.4346 LP  0  0  0  0  0  0  0  0  0  0  0  0  # atno 17395 bound_to 11000

$$$$
