AV-unprocessed.smi:1510|AV-procd|sdf|6096|dock7
  -GOLD-   22720 6223D 1   1.00000     0.00000
 Structure written by MMmdl.
 33 34  0  0  0  0  0  0  0  0  1 V2000
  153.0227  139.3284  156.0129 O   0  0  0  0  0  0  0  0  0  0  0  0
  151.8457  139.6342  155.8177 C   0  0  0  0  0  0  0  0  0  0  0  0
  151.0999  139.1123  154.5822 C   0  0  0  0  0  0  0  0  0  0  0  0
  149.7058  139.5734  154.5240 N   0  0  0  0  0  0  0  0  0  0  0  0
  149.5661  140.9438  154.3647 N   0  0  0  0  0  0  0  0  0  0  0  0
  148.3891  141.4664  154.2869 C   0  0  0  0  0  0  0  0  0  0  0  0
  148.2959  142.8267  154.1238 O   0  0  0  0  0  0  0  0  0  0  0  0
  147.1993  140.6481  154.3688 C   0  0  0  0  0  0  0  0  0  0  0  0
  147.3456  139.3144  154.5276 C   0  0  0  0  0  0  0  0  0  0  0  0
  148.6658  138.6881  154.6161 C   0  0  0  0  0  0  0  0  0  0  0  0
  148.8293  137.4764  154.7590 O   0  0  0  0  0  0  0  0  0  0  0  0
  151.1476  140.4353  156.6363 N   0  0  0  0  0  0  0  0  0  0  0  0
  151.6505  141.0099  157.8790 C   0  0  0  0  0  0  0  0  0  0  0  0
  151.4988  142.5414  157.9139 C   0  0  2  0  0  0  0  0  0  0  0  0
  152.5881  143.2791  158.6899 C   0  0  0  0  0  0  0  0  0  0  0  0
  151.9165  144.5908  159.0594 C   0  0  0  0  0  0  0  0  0  0  0  0
  150.4186  144.2947  158.9254 C   0  0  0  0  0  0  0  0  0  0  0  0
  150.3251  142.9090  158.6194 O   0  0  0  0  0  0  0  0  0  0  0  0
  148.6672  143.1991  154.9088 H   0  0  0  0  0  0  0  0  0  0  0  0
  151.6262  139.4089  153.6727 H   0  0  0  0  0  0  0  0  0  0  0  0
  151.1394  138.0217  154.6008 H   0  0  0  0  0  0  0  0  0  0  0  0
  146.2215  141.1024  154.3038 H   0  0  0  0  0  0  0  0  0  0  0  0
  146.4657  138.6912  154.5904 H   0  0  0  0  0  0  0  0  0  0  0  0
  150.1889  140.6406  156.3950 H   0  0  0  0  0  0  0  0  0  0  0  0
  151.1404  140.5591  158.7318 H   0  0  0  0  0  0  0  0  0  0  0  0
  152.7029  140.7401  157.9705 H   0  0  0  0  0  0  0  0  0  0  0  0
  151.4319  142.9417  156.9006 H   0  0  0  0  0  0  0  0  0  0  0  0
  152.8430  142.7290  159.5966 H   0  0  0  0  0  0  0  0  0  0  0  0
  153.5012  143.4173  158.1098 H   0  0  0  0  0  0  0  0  0  0  0  0
  152.1855  144.9051  160.0682 H   0  0  0  0  0  0  0  0  0  0  0  0
  152.2074  145.3853  158.3715 H   0  0  0  0  0  0  0  0  0  0  0  0
  149.8654  144.5248  159.8361 H   0  0  0  0  0  0  0  0  0  0  0  0
  149.9846  144.8739  158.1094 H   0  0  0  0  0  0  0  0  0  0  0  0
  1  2  2  0  0  0  0
  2  3  1  0  0  0  0
  2 12  1  0  0  0  0
  3 20  1  0  0  0  0
  3 21  1  0  0  0  0
  3  4  1  0  0  0  0
  4  5  1  0  0  0  0
  4 10  1  0  0  0  0
  5  6  2  0  0  0  0
  6  7  1  0  0  0  0
  6  8  1  0  0  0  0
  7 19  1  0  0  0  0
  8 22  1  0  0  0  0
  8  9  2  0  0  0  0
  9 23  1  0  0  0  0
  9 10  1  0  0  0  0
 10 11  2  0  0  0  0
 12 13  1  0  0  0  0
 12 24  1  0  0  0  0
 13 14  1  0  0  0  0
 13 25  1  0  0  0  0
 13 26  1  0  0  0  0
 14 18  1  0  0  0  0
 14 15  1  0  0  0  0
 14 27  1  0  0  0  0
 15 16  1  0  0  0  0
 15 28  1  0  0  0  0
 15 29  1  0  0  0  0
 16 17  1  0  0  0  0
 16 30  1  0  0  0  0
 16 31  1  0  0  0  0
 17 18  1  0  0  0  0
 17 32  1  0  0  0  0
 17 33  1  0  0  0  0
M  END
> <s_m_source_file>
AV-unprocessed.smi

> <i_m_source_file_index>
1510

> <i_lp_mmshare_version>
43012

> <i_f3d_flags>
0

> <s_epik_input>
TzFbQ0gyXVtDSDJdW0NIMl1bQ0BIXTFbQ0gyXVtOSF1DKD1PKVtDSDJdbjJbbkhdYyg9TylbY0hdW2NIXWMyPU8=

> <s_epik_cmdline>
J2VwaWtfcHl0aG9uJywgJy1waCcsICc3LjAnLCAnLXRuJywgJzgnLCAnLW1hJywgJzIwMCcsICctbWV0YWxfYmluZGluZycsICctaW1hZScsICc8aW5maWxlLm1hZT4nLCAnLW9tYWUnLCAnPG91dGZpbGUubWFlPic=

> <r_lp_tautomer_probability>
0.9996

> <r_epik_Ionization_Penalty>
2.13037

> <r_epik_Ionization_Penalty_Charging>
3.76e-08

> <r_epik_Ionization_Penalty_Neutral>
2.13037

> <r_epik_State_Penalty>
1.70753

> <r_epik_Charging_Adjusted_Penalty>
1.70753

> <i_epik_Tot_Q>
0

> <i_epik_Tot_abs_Q>
0

> <r_epik_Metal_State_Penalty>
1.70753

> <b_epik_Metal_Only>
0

> <s_lp_Force_Field>
OPLS_2005

> <r_lp_Energy>
28.2415

> <b_lp_Chiralities_Consistent>
1

> <s_lp_Variant>
AV-unprocessed.smi:1510-3

> <Gold.Version>
5.8.1

> <Gold.Id.Protein>
6NUR|6NUR_protein|mol2

> <Gold.PLP.Fitness>
39.9641

> <Gold.PLP.PLP>
-35.3010

> <Gold.PLP.part.hbond>
-4.7093

> <Gold.PLP.part.metal>
0.0000

> <Gold.PLP.part.buried>
-3.6700

> <Gold.PLP.part.nonpolar>
-26.4503

> <Gold.PLP.part.repulsive>
0.5098

> <Gold.PLP.ligand.clash>
0.0000

> <Gold.PLP.ligand.torsion>
0.5059

> <Gold.PLP.Chemscore.Hbond>
1.8887

> <Gold.PLP.Chemscore.CHOScore>
0.0000

> <Gold.PLP.Chemscore.Metal>
0.0000

> <Gold.Chemscore.Hbonds>
donor molecule, donor type, donor heavy atom, donor atom, acceptor molecule, acceptor atom, score
      L1  H     7    19       P1  8028  0.77
      P1  H  7989  7998       L1     5  0.09
      P1  H  7997  8008       L1     1  1.00

> <Gold.PLP.Chemscore.Internal.Correction>
0.0090

> <Gold.Rescore>
     Score         DG    S(hbond)    S(metal)    S(lipo)     H(rot)  DE(clash)    DE(int)     intcor
     12.37     -12.87       1.89        0.00      68.20       2.69       0.01       0.49       ----

> <Gold.Chemscore.Fitness>
12.3746

> <Gold.Chemscore.DG>
-12.8701

> <Gold.Chemscore.ZeroCoef>
-5.4800

> <Gold.Chemscore.Hbond>
1.8883

> <Gold.Chemscore.Metal>
0.0000

> <Gold.Chemscore.Lipo>
68.1985

> <Gold.Chemscore.Internal_Hbond>
0.0000

> <Gold.Chemscore.DEClash>
0.0073

> <Gold.Chemscore.DEInternal>
0.4882

> <Gold.Chemscore.Rot>
2.6937

> <Gold.Chemscore.Internal.Correction>
   9.000000E+99

> <Gold.Chemscore.Hbonds>
donor molecule, donor type, donor heavy atom, donor atom, acceptor molecule, acceptor atom, score
      L1  H     7    19       P1  8028  0.76
      P1  H  7997  8008       L1     1  0.97

> <Gold.Chemscore.Hbond.Weighted>
-6.3068

> <Gold.Chemscore.Metal.Weighted>
-0.0000

> <Gold.Chemscore.Lipo.Weighted>
-7.9792

> <Gold.Chemscore.Internal_Hbond.Weighted>
0.0000

> <Gold.Chemscore.DEClash.Weighted>
0.0073

> <Gold.Chemscore.DEInternal.Weighted>
0.4882

> <Gold.Chemscore.Rot.Weighted>
6.8959

> <Gold.Chemscore.Internal.Correction.Weighted>
   9.000000E+99

> <Gold.Protein.RotatedTorsions>
[ 6907 6896 6895 6894 ] final  156.14 input  -60.11 | X-H torsion
[ 7974 7965 7964 7962 ] final  153.21 input  175.53 | X-H torsion
[ 8008 7997 7996 7995 ] final  -22.15 input   59.86 | X-H torsion
[ 10167 10162 10161 10158 ] final   66.39 input  -65.29 | X-H torsion
[ 10718 10713 10712 10709 ] final -156.20 input   66.30 | X-H torsion
[ 10763 10752 10751 10750 ] final  101.35 input  -60.55 | X-H torsion
[ 11005 11000 10999 10996 ] final   72.76 input  -57.11 | X-H torsion

> <Gold.Protein.ActiveResidues>
 VAL166  LYS551  ARG553  GLY616  TRP617  ASP618  TYR619  PRO620  LYS621  CYS622 
 ASP623  PHE694  ASN695  SER759  ASP760  ASP761  ALA762  ILE779  LEU786  VAL792 
 PHE793  MET794  SER795  GLU796  ALA797  LYS798  CYS799  TRP800  GLU811  SER814 

> <Gold.Protein.RotatedAtoms>
  152.0340  133.3949  159.4308 H   0  0  0  0  0  0  0  0  0  0  0  0  # atno 6907 bound_to 6896
  150.6880  134.3489  159.4910 H   0  0  0  0  0  0  0  0  0  0  0  0  # atno 6908 bound_to 6896
  152.1279  134.9156  160.0611 H   0  0  0  0  0  0  0  0  0  0  0  0  # atno 6909 bound_to 6896
  144.8170  139.6770  143.6117 H   0  0  0  0  0  0  0  0  0  0  0  0  # atno 7974 bound_to 7965
  154.4662  140.2015  156.0114 H   0  0  0  0  0  0  0  0  0  0  0  0  # atno 8008 bound_to 7997
  156.0930  140.3255  155.7811 H   0  0  0  0  0  0  0  0  0  0  0  0  # atno 8009 bound_to 7997
  155.4925  140.0547  157.2942 H   0  0  0  0  0  0  0  0  0  0  0  0  # atno 8010 bound_to 7997
  140.1009  144.4905  150.7038 H   0  0  0  0  0  0  0  0  0  0  0  0  # atno 10167 bound_to 10162
  156.5232  130.8487  151.2690 H   0  0  0  0  0  0  0  0  0  0  0  0  # atno 10718 bound_to 10713
  153.3255  135.4047  155.1452 H   0  0  0  0  0  0  0  0  0  0  0  0  # atno 10763 bound_to 10752
  154.8611  135.3598  154.5539 H   0  0  0  0  0  0  0  0  0  0  0  0  # atno 10764 bound_to 10752
  153.5975  135.7072  153.5457 H   0  0  0  0  0  0  0  0  0  0  0  0  # atno 10765 bound_to 10752
  139.9474  134.7288  156.0945 H   0  0  0  0  0  0  0  0  0  0  0  0  # atno 11005 bound_to 11000
  146.2473  139.6126  142.9451 LP  0  0  0  0  0  0  0  0  0  0  0  0  # atno 17320 bound_to 7965
  145.5192  141.0432  143.2445 LP  0  0  0  0  0  0  0  0  0  0  0  0  # atno 17321 bound_to 7965
  140.6978  143.2415  151.4950 LP  0  0  0  0  0  0  0  0  0  0  0  0  # atno 17342 bound_to 10162
  139.5672  144.2014  152.1782 LP  0  0  0  0  0  0  0  0  0  0  0  0  # atno 17343 bound_to 10162
  157.7433  130.9910  150.2585 LP  0  0  0  0  0  0  0  0  0  0  0  0  # atno 17370 bound_to 10713
  156.3129  130.3774  149.7645 LP  0  0  0  0  0  0  0  0  0  0  0  0  # atno 17371 bound_to 10713
  141.1128  133.6637  156.3021 LP  0  0  0  0  0  0  0  0  0  0  0  0  # atno 17394 bound_to 11000
  140.5801  134.5754  157.5477 LP  0  0  0  0  0  0  0  0  0  0  0  0  # atno 17395 bound_to 11000

$$$$
