AV-unprocessed.smi:2895|AV-procd|sdf|11132|dock8
  -GOLD-   2272016 03D 1   1.00000     0.00000
 Structure written by MMmdl.
 54 57  0  0  0  0  0  0  0  0  3 V2000
  145.8288  131.7833  155.7187 O   0  0  0  0  0  0  0  0  0  0  0  0
  146.5283  132.7941  155.7972 C   0  0  0  0  0  0  0  0  0  0  0  0
  147.3958  133.1339  154.8284 N   0  0  0  0  0  0  0  0  0  0  0  0
  147.6144  132.3869  153.5947 C   0  0  0  0  0  0  0  0  0  0  0  0
  147.6916  133.3133  152.3690 C   0  0  0  0  0  0  0  0  0  0  0  0
  146.3283  133.5635  151.7529 C   0  0  0  0  0  0  0  0  0  0  0  0
  145.8860  134.8830  151.5117 C   0  0  0  0  0  0  0  0  0  0  0  0
  144.6155  135.0890  150.9360 C   0  0  0  0  0  0  0  0  0  0  0  0
  143.8385  134.0285  150.6240 N   0  3  0  0  0  0  0  0  0  0  0  0
  144.2232  132.7511  150.8386 C   0  0  0  0  0  0  0  0  0  0  0  0
  145.4842  132.4839  151.4103 C   0  0  0  0  0  0  0  0  0  0  0  0
  146.4677  133.6602  156.8412 N   0  0  0  0  0  0  0  0  0  0  0  0
  147.4156  134.7488  157.1298 C   0  0  0  0  0  0  0  0  0  0  0  0
  148.1950  134.4227  158.4215 C   0  0  0  0  0  0  0  0  0  0  0  0
  147.2906  134.1450  159.5749 N   0  3  0  0  0  0  0  0  0  0  0  0
  146.7405  135.3813  160.2100 C   0  0  2  0  0  0  0  0  0  0  0  0
  147.8236  136.3553  160.7368 C   0  0  0  0  0  0  0  0  0  0  0  0
  147.3639  136.6493  162.1772 C   0  0  2  0  0  0  0  0  0  0  0  0
  147.6822  135.4290  163.0580 C   0  0  0  0  0  0  0  0  0  0  0  0
  146.6600  134.3884  162.5677 C   0  0  0  0  0  0  0  0  0  0  0  0
  145.8785  135.1553  161.4786 C   0  0  1  0  0  0  0  0  0  0  0  0
  145.8470  136.5635  162.0638 C   0  0  0  0  0  0  0  0  0  0  0  0
  146.2646  133.1218  159.2236 C   0  0  0  0  0  0  0  0  0  0  0  0
  145.5046  133.4891  157.9348 C   0  0  0  0  0  0  0  0  0  0  0  0
  147.9290  133.9831  154.9473 H   0  0  0  0  0  0  0  0  0  0  0  0
  148.5228  131.7882  153.6822 H   0  0  0  0  0  0  0  0  0  0  0  0
  146.7896  131.6836  153.4763 H   0  0  0  0  0  0  0  0  0  0  0  0
  148.1422  134.2666  152.6491 H   0  0  0  0  0  0  0  0  0  0  0  0
  148.3395  132.8815  151.6053 H   0  0  0  0  0  0  0  0  0  0  0  0
  146.5126  135.7269  151.7627 H   0  0  0  0  0  0  0  0  0  0  0  0
  144.2009  136.0622  150.7173 H   0  0  0  0  0  0  0  0  0  0  0  0
  143.5160  131.9877  150.5486 H   0  0  0  0  0  0  0  0  0  0  0  0
  145.7958  131.4638  151.5825 H   0  0  0  0  0  0  0  0  0  0  0  0
  148.1264  134.9434  156.3272 H   0  0  0  0  0  0  0  0  0  0  0  0
  146.8580  135.6788  157.2456 H   0  0  0  0  0  0  0  0  0  0  0  0
  148.8035  133.5333  158.2524 H   0  0  0  0  0  0  0  0  0  0  0  0
  148.8990  135.2228  158.6474 H   0  0  0  0  0  0  0  0  0  0  0  0
  146.1260  135.9055  159.4769 H   0  0  0  0  0  0  0  0  0  0  0  0
  148.8295  135.9339  160.7281 H   0  0  0  0  0  0  0  0  0  0  0  0
  147.8408  137.2661  160.1369 H   0  0  0  0  0  0  0  0  0  0  0  0
  147.7461  137.5885  162.5781 H   0  0  0  0  0  0  0  0  0  0  0  0
  148.7121  135.0888  162.9446 H   0  0  0  0  0  0  0  0  0  0  0  0
  147.5205  135.6583  164.1122 H   0  0  0  0  0  0  0  0  0  0  0  0
  147.1369  133.4827  162.1930 H   0  0  0  0  0  0  0  0  0  0  0  0
  145.9966  134.0965  163.3828 H   0  0  0  0  0  0  0  0  0  0  0  0
  144.8889  134.7450  161.2756 H   0  0  0  0  0  0  0  0  0  0  0  0
  145.3369  136.6214  163.0272 H   0  0  0  0  0  0  0  0  0  0  0  0
  145.4204  137.3076  161.3888 H   0  0  0  0  0  0  0  0  0  0  0  0
  146.7805  132.1728  159.0705 H   0  0  0  0  0  0  0  0  0  0  0  0
  145.5710  132.9417  160.0430 H   0  0  0  0  0  0  0  0  0  0  0  0
  144.9444  134.4152  158.0701 H   0  0  0  0  0  0  0  0  0  0  0  0
  144.7554  132.7247  157.7245 H   0  0  0  0  0  0  0  0  0  0  0  0
  147.8658  133.7241  160.2907 H   0  0  0  0  0  0  0  0  0  0  0  0
  142.9223  134.1995  150.2086 H   0  0  0  0  0  0  0  0  0  0  0  0
  1  2  2  0  0  0  0
  2  3  1  0  0  0  0
  2 12  1  0  0  0  0
  3  4  1  0  0  0  0
  3 25  1  0  0  0  0
  4  5  1  0  0  0  0
  4 26  1  0  0  0  0
  4 27  1  0  0  0  0
  5  6  1  0  0  0  0
  5 28  1  0  0  0  0
  5 29  1  0  0  0  0
  6 11  1  0  0  0  0
  6  7  2  0  0  0  0
  7  8  1  0  0  0  0
  7 30  1  0  0  0  0
  8  9  2  0  0  0  0
  8 31  1  0  0  0  0
  9 10  1  0  0  0  0
  9 54  1  0  0  0  0
 10 11  2  0  0  0  0
 10 32  1  0  0  0  0
 11 33  1  0  0  0  0
 12 24  1  0  0  0  0
 12 13  1  0  0  0  0
 13 14  1  0  0  0  0
 13 34  1  0  0  0  0
 13 35  1  0  0  0  0
 14 15  1  0  0  0  0
 14 36  1  0  0  0  0
 14 37  1  0  0  0  0
 15 16  1  0  0  0  0
 15 23  1  0  0  0  0
 15 53  1  0  0  0  0
 16 21  1  0  0  0  0
 16 17  1  0  0  0  0
 16 38  1  0  0  0  0
 17 18  1  0  0  0  0
 17 39  1  0  0  0  0
 17 40  1  0  0  0  0
 18 22  1  0  0  0  0
 18 19  1  0  0  0  0
 18 41  1  0  0  0  0
 19 20  1  0  0  0  0
 19 42  1  0  0  0  0
 19 43  1  0  0  0  0
 20 21  1  0  0  0  0
 20 44  1  0  0  0  0
 20 45  1  0  0  0  0
 21 22  1  0  0  0  0
 21 46  1  0  0  0  0
 22 47  1  0  0  0  0
 22 48  1  0  0  0  0
 23 24  1  0  0  0  0
 23 49  1  0  0  0  0
 23 50  1  0  0  0  0
 24 51  1  0  0  0  0
 24 52  1  0  0  0  0
M  CHG  1   9   1
M  CHG  1  15   1
M  END
> <s_m_source_file>
AV-unprocessed.smi

> <i_m_source_file_index>
2895

> <i_lp_mmshare_version>
43012

> <i_f3d_flags>
0

> <s_epik_input>
W0NIMl0xW0NIMl1bQ0BASF0oW0NIMl0yKVtDQEBIXShbQ0gyXVtDQEhdMTIpTihbQ0gyXVtDSDJdMylbQ0gyXVtDSDJdTjNDKD1PKVtOSF1bQ0gyXVtDSDJdYzRbY0hdW2NIXW5bY0hdW2NIXTQ=

> <s_epik_cmdline>
J2VwaWtfcHl0aG9uJywgJy1waCcsICc3LjAnLCAnLXRuJywgJzgnLCAnLW1hJywgJzIwMCcsICctbWV0YWxfYmluZGluZycsICctaW1hZScsICc8aW5maWxlLm1hZT4nLCAnLW9tYWUnLCAnPG91dGZpbGUubWFlPic=

> <r_epik_Ionization_Penalty>
1.44916

> <r_epik_Ionization_Penalty_Charging>
1.44913

> <r_epik_Ionization_Penalty_Neutral>
2.64641e-05

> <r_epik_State_Penalty>
1.53218

> <r_epik_Charging_Adjusted_Penalty>
2.98131

> <i_epik_Tot_Q>
2

> <i_epik_Tot_abs_Q>
2

> <r_epik_Metal_State_Penalty>
1.58241

> <b_epik_Metal_Only>
0

> <s_lp_Force_Field>
OPLS_2005

> <r_lp_Energy>
107.451

> <b_lp_Chiralities_Consistent>
1

> <s_lp_Variant>
AV-unprocessed.smi:2895-5

> <Gold.Version>
5.8.1

> <Gold.Id.Protein>
6NUR|6NUR_protein|mol2

> <Gold.PLP.Fitness>
42.2906

> <Gold.PLP.PLP>
-37.0096

> <Gold.PLP.part.hbond>
-0.9825

> <Gold.PLP.part.metal>
0.0000

> <Gold.PLP.part.buried>
-5.0548

> <Gold.PLP.part.nonpolar>
-30.5157

> <Gold.PLP.part.repulsive>
0.2072

> <Gold.PLP.ligand.clash>
0.0000

> <Gold.PLP.ligand.torsion>
0.4019

> <Gold.PLP.Chemscore.Hbond>
2.0000

> <Gold.PLP.Chemscore.CHOScore>
0.0000

> <Gold.PLP.Chemscore.Metal>
0.0000

> <Gold.Chemscore.Hbonds>
donor molecule, donor type, donor heavy atom, donor atom, acceptor molecule, acceptor atom, score
      L1  H     9    54       P1 10186  1.98

> <Gold.PLP.Chemscore.Internal.Correction>
0.0849

> <Gold.Rescore>
     Score         DG    S(hbond)    S(metal)    S(lipo)     H(rot)  DE(clash)    DE(int)     intcor
     16.05     -16.42       0.98        0.00      97.32       1.46       0.00       0.36       ----

> <Gold.Chemscore.Fitness>
16.0527

> <Gold.Chemscore.DG>
-16.4173

> <Gold.Chemscore.ZeroCoef>
-5.4800

> <Gold.Chemscore.Hbond>
0.9823

> <Gold.Chemscore.Metal>
0.0000

> <Gold.Chemscore.Lipo>
97.3231

> <Gold.Chemscore.Internal_Hbond>
0.0000

> <Gold.Chemscore.DEClash>
0.0000

> <Gold.Chemscore.DEInternal>
0.3646

> <Gold.Chemscore.Rot>
1.4572

> <Gold.Chemscore.Internal.Correction>
   9.000000E+99

> <Gold.Chemscore.Hbonds>
donor molecule, donor type, donor heavy atom, donor atom, acceptor molecule, acceptor atom, score
      L1  H     9    54       P1 10186  0.86

> <Gold.Chemscore.Hbond.Weighted>
-3.2810

> <Gold.Chemscore.Metal.Weighted>
-0.0000

> <Gold.Chemscore.Lipo.Weighted>
-11.3868

> <Gold.Chemscore.Internal_Hbond.Weighted>
0.0000

> <Gold.Chemscore.DEClash.Weighted>
0.0000

> <Gold.Chemscore.DEInternal.Weighted>
0.3646

> <Gold.Chemscore.Rot.Weighted>
3.7305

> <Gold.Chemscore.Internal.Correction.Weighted>
   9.000000E+99

> <Gold.Protein.RotatedTorsions>
[ 6907 6896 6895 6894 ] final  159.86 input  -60.11 | X-H torsion
[ 7974 7965 7964 7962 ] final  -13.46 input  175.53 | X-H torsion
[ 8008 7997 7996 7995 ] final -146.37 input   59.86 | X-H torsion
[ 10167 10162 10161 10158 ] final   86.94 input  -65.29 | X-H torsion
[ 10718 10713 10712 10709 ] final   85.59 input   66.30 | X-H torsion
[ 10763 10752 10751 10750 ] final -127.77 input  -60.55 | X-H torsion
[ 11005 11000 10999 10996 ] final  -76.13 input  -57.11 | X-H torsion

> <Gold.Protein.ActiveResidues>
 VAL166  LYS551  ARG553  GLY616  TRP617  ASP618  TYR619  PRO620  LYS621  CYS622 
 ASP623  PHE694  ASN695  SER759  ASP760  ASP761  ALA762  ILE779  LEU786  VAL792 
 PHE793  MET794  SER795  GLU796  ALA797  LYS798  CYS799  TRP800  GLU811  SER814 

> <Gold.Protein.RotatedAtoms>
  151.9793  133.3752  159.4100 H   0  0  0  0  0  0  0  0  0  0  0  0  # atno 6907 bound_to 6896
  150.6937  134.4056  159.5148 H   0  0  0  0  0  0  0  0  0  0  0  0  # atno 6908 bound_to 6896
  152.1773  134.8784  160.0580 H   0  0  0  0  0  0  0  0  0  0  0  0  # atno 6909 bound_to 6896
  146.2113  140.3206  142.8390 H   0  0  0  0  0  0  0  0  0  0  0  0  # atno 7974 bound_to 7965
  155.5583  140.0623  157.2834 H   0  0  0  0  0  0  0  0  0  0  0  0  # atno 8008 bound_to 7997
  154.4398  140.1890  156.0801 H   0  0  0  0  0  0  0  0  0  0  0  0  # atno 8009 bound_to 7997
  156.0465  140.3289  155.7307 H   0  0  0  0  0  0  0  0  0  0  0  0  # atno 8010 bound_to 7997
  139.8824  144.6432  150.8829 H   0  0  0  0  0  0  0  0  0  0  0  0  # atno 10167 bound_to 10162
  157.6917  131.0181  150.2845 H   0  0  0  0  0  0  0  0  0  0  0  0  # atno 10718 bound_to 10713
  154.8754  135.3950  154.3648 H   0  0  0  0  0  0  0  0  0  0  0  0  # atno 10763 bound_to 10752
  153.4416  135.7027  153.6171 H   0  0  0  0  0  0  0  0  0  0  0  0  # atno 10764 bound_to 10752
  153.4749  135.3782  155.2380 H   0  0  0  0  0  0  0  0  0  0  0  0  # atno 10765 bound_to 10752
  141.1651  133.6972  156.7621 H   0  0  0  0  0  0  0  0  0  0  0  0  # atno 11005 bound_to 11000
  144.8923  140.7539  143.5919 LP  0  0  0  0  0  0  0  0  0  0  0  0  # atno 17320 bound_to 7965
  145.3129  139.1813  143.4629 LP  0  0  0  0  0  0  0  0  0  0  0  0  # atno 17321 bound_to 7965
  140.7742  143.3575  151.1892 LP  0  0  0  0  0  0  0  0  0  0  0  0  # atno 17342 bound_to 10162
  139.7184  143.9263  152.2976 LP  0  0  0  0  0  0  0  0  0  0  0  0  # atno 17343 bound_to 10162
  156.3386  130.3812  149.7428 LP  0  0  0  0  0  0  0  0  0  0  0  0  # atno 17370 bound_to 10713
  156.4944  130.8100  151.3108 LP  0  0  0  0  0  0  0  0  0  0  0  0  # atno 17371 bound_to 10713
  140.2526  134.8529  157.3682 LP  0  0  0  0  0  0  0  0  0  0  0  0  # atno 17394 bound_to 11000
  140.1688  134.4635  155.7845 LP  0  0  0  0  0  0  0  0  0  0  0  0  # atno 17395 bound_to 11000

$$$$
