AV-unprocessed.smi:68|AV-procd|sdf|639|dock1
  -GOLD-   2262016533D 1   1.00000     0.00000
 Structure written by MMmdl.
 23 24  0  0  0  0  0  0  0  0  1 V2000
  150.9084  139.3781  154.3300 O   0  0  0  0  0  0  0  0  0  0  0  0
  150.9847  140.0925  155.3275 C   0  0  0  0  0  0  0  0  0  0  0  0
  151.9413  139.8261  156.3117 N   0  0  0  0  0  0  0  0  0  0  0  0
  152.1269  140.5621  157.4836 C   0  0  0  0  0  0  0  0  0  0  0  0
  152.9912  140.2228  158.2906 O   0  0  0  0  0  0  0  0  0  0  0  0
  151.2839  141.6780  157.6844 N   0  0  0  0  0  0  0  0  0  0  0  0
  151.4394  142.5054  158.9402 C   0  0  2  0  0  0  0  0  0  0  0  0
  150.3498  143.5808  159.0189 C   0  0  0  0  0  0  0  0  0  0  0  0
  151.1269  144.7686  159.5435 C   0  0  0  0  0  0  0  0  0  0  0  0
  152.4835  144.5638  158.8819 C   0  0  0  0  0  0  0  0  0  0  0  0
  152.6797  143.1534  158.9183 O   0  0  0  0  0  0  0  0  0  0  0  0
  150.3085  141.9707  156.7402 C   0  0  0  0  0  0  0  0  0  0  0  0
  150.1357  141.2461  155.6096 C   0  0  0  0  0  0  0  0  0  0  0  0
  149.1691  141.5903  154.7418 F   0  0  0  0  0  0  0  0  0  0  0  0
  152.5462  139.0314  156.1640 H   0  0  0  0  0  0  0  0  0  0  0  0
  151.4421  141.8225  159.7913 H   0  0  0  0  0  0  0  0  0  0  0  0
  149.9601  143.7938  158.0222 H   0  0  0  0  0  0  0  0  0  0  0  0
  149.5293  143.2678  159.6649 H   0  0  0  0  0  0  0  0  0  0  0  0
  150.6689  145.7258  159.2928 H   0  0  0  0  0  0  0  0  0  0  0  0
  151.2239  144.7057  160.6283 H   0  0  0  0  0  0  0  0  0  0  0  0
  152.4607  144.9077  157.8474 H   0  0  0  0  0  0  0  0  0  0  0  0
  153.2863  145.0910  159.3975 H   0  0  0  0  0  0  0  0  0  0  0  0
  149.6462  142.8072  156.9016 H   0  0  0  0  0  0  0  0  0  0  0  0
  1  2  2  0  0  0  0
  2 13  1  0  0  0  0
  2  3  1  0  0  0  0
  3 15  1  0  0  0  0
  3  4  1  0  0  0  0
  4  5  2  0  0  0  0
  4  6  1  0  0  0  0
  6  7  1  0  0  0  0
  6 12  1  0  0  0  0
  7 11  1  0  0  0  0
  7  8  1  0  0  0  0
  7 16  1  0  0  0  0
  8  9  1  0  0  0  0
  8 17  1  0  0  0  0
  8 18  1  0  0  0  0
  9 10  1  0  0  0  0
  9 19  1  0  0  0  0
  9 20  1  0  0  0  0
 10 11  1  0  0  0  0
 10 21  1  0  0  0  0
 10 22  1  0  0  0  0
 12 13  2  0  0  0  0
 12 23  1  0  0  0  0
 13 14  1  0  0  0  0
M  END
> <s_m_source_file>
AV-unprocessed.smi

> <i_m_source_file_index>
68

> <i_lp_mmshare_version>
43012

> <i_f3d_flags>
0

> <s_epik_input>
Tz1jMVtuSF1jKD1PKW4oW2NIXWMxRilbQ0BASF0yW0NIMl1bQ0gyXVtDSDJdTzI=

> <s_epik_cmdline>
J2VwaWtfcHl0aG9uJywgJy1waCcsICc3LjAnLCAnLXRuJywgJzgnLCAnLW1hJywgJzIwMCcsICctbWV0YWxfYmluZGluZycsICctaW1hZScsICc8aW5maWxlLm1hZT4nLCAnLW9tYWUnLCAnPG91dGZpbGUubWFlPic=

> <r_lp_tautomer_probability>
0.999537

> <r_epik_Ionization_Penalty>
0.0350763

> <r_epik_Ionization_Penalty_Charging>
0.0350763

> <r_epik_Ionization_Penalty_Neutral>
6.20402e-12

> <r_epik_State_Penalty>
0.0292209

> <r_epik_Charging_Adjusted_Penalty>
0.0642972

> <i_epik_Tot_Q>
0

> <i_epik_Tot_abs_Q>
0

> <r_epik_Metal_State_Penalty>
2.33597

> <b_epik_Metal_Only>
0

> <s_epik_Chemistry_Notes>
This compound contains an acetal/aminal-like group ( X-CH(R)-Y where X, Y are N, S, or O) that may be acid/base labile, releasing an aldehyde.

> <s_lp_Force_Field>
OPLS_2005

> <r_lp_Energy>
24.14

> <b_lp_Chiralities_Consistent>
1

> <s_lp_Variant>
AV-unprocessed.smi:68-1

> <Gold.Version>
5.8.1

> <Gold.Id.Protein>
6NUR|6NUR_protein|mol2

> <Gold.PLP.Fitness>
36.1255

> <Gold.PLP.PLP>
-29.7408

> <Gold.PLP.part.hbond>
-2.0000

> <Gold.PLP.part.metal>
0.0000

> <Gold.PLP.part.buried>
-2.7544

> <Gold.PLP.part.nonpolar>
-24.4940

> <Gold.PLP.part.repulsive>
0.2844

> <Gold.PLP.ligand.clash>
0.0000

> <Gold.PLP.ligand.torsion>
0.0530

> <Gold.PLP.Chemscore.Hbond>
1.1620

> <Gold.PLP.Chemscore.CHOScore>
1.0000

> <Gold.PLP.Chemscore.Metal>
0.0000

> <Gold.Chemscore.Hbonds>
donor molecule, donor type, donor heavy atom, donor atom, acceptor molecule, acceptor atom, score
      P1  H  7989  7998       L1     1  0.15
      P1  H  7997  8010       L1     5  0.87
      L1  C    12    23       P1  8028  1.00

> <Gold.PLP.Chemscore.Internal.Correction>
0.0047

> <Gold.Rescore>
     Score         DG    S(hbond)    S(metal)    S(lipo)     H(rot)  DE(clash)    DE(int)     intcor
     10.43     -10.73       0.68        0.00      47.32       1.00       0.10       0.21       ----

> <Gold.Chemscore.Fitness>
10.4268

> <Gold.Chemscore.DG>
-10.7333

> <Gold.Chemscore.ZeroCoef>
-5.4800

> <Gold.Chemscore.Hbond>
0.6818

> <Gold.Chemscore.Metal>
0.0000

> <Gold.Chemscore.Lipo>
47.3158

> <Gold.Chemscore.Internal_Hbond>
0.0000

> <Gold.Chemscore.DEClash>
0.0959

> <Gold.Chemscore.DEInternal>
0.2106

> <Gold.Chemscore.Rot>
1.0000

> <Gold.Chemscore.Internal.Correction>
   9.000000E+99

> <Gold.Chemscore.Hbonds>
donor molecule, donor type, donor heavy atom, donor atom, acceptor molecule, acceptor atom, score
      P1  H  7997  8010       L1     5  0.28

> <Gold.Chemscore.Hbond.Weighted>
-2.2774

> <Gold.Chemscore.Metal.Weighted>
-0.0000

> <Gold.Chemscore.Lipo.Weighted>
-5.5360

> <Gold.Chemscore.Internal_Hbond.Weighted>
0.0000

> <Gold.Chemscore.DEClash.Weighted>
0.0959

> <Gold.Chemscore.DEInternal.Weighted>
0.2106

> <Gold.Chemscore.Rot.Weighted>
2.5600

> <Gold.Chemscore.Internal.Correction.Weighted>
   9.000000E+99

> <Gold.Protein.RotatedTorsions>
[ 6907 6896 6895 6894 ] final  132.41 input  -60.11 | X-H torsion
[ 7974 7965 7964 7962 ] final  -66.58 input  175.53 | X-H torsion
[ 8008 7997 7996 7995 ] final   29.34 input   59.86 | X-H torsion
[ 10167 10162 10161 10158 ] final -133.98 input  -65.29 | X-H torsion
[ 10718 10713 10712 10709 ] final  -30.54 input   66.30 | X-H torsion
[ 10763 10752 10751 10750 ] final  156.89 input  -60.55 | X-H torsion
[ 11005 11000 10999 10996 ] final   97.38 input  -57.11 | X-H torsion

> <Gold.Protein.ActiveResidues>
 VAL166  LYS551  ARG553  GLY616  TRP617  ASP618  TYR619  PRO620  LYS621  CYS622 
 ASP623  PHE694  ASN695  SER759  ASP760  ASP761  ALA762  ILE779  LEU786  VAL792 
 PHE793  MET794  SER795  GLU796  ALA797  LYS798  CYS799  TRP800  GLU811  SER814 

> <Gold.Protein.RotatedAtoms>
  152.3327  133.5976  159.5820 H   0  0  0  0  0  0  0  0  0  0  0  0  # atno 6907 bound_to 6896
  150.7432  133.9844  159.3595 H   0  0  0  0  0  0  0  0  0  0  0  0  # atno 6908 bound_to 6896
  151.7717  135.0785  160.0412 H   0  0  0  0  0  0  0  0  0  0  0  0  # atno 6909 bound_to 6896
  145.7399  140.8958  143.0535 H   0  0  0  0  0  0  0  0  0  0  0  0  # atno 7974 bound_to 7965
  155.0730  140.3202  155.4624 H   0  0  0  0  0  0  0  0  0  0  0  0  # atno 8008 bound_to 7997
  156.2786  140.2108  156.5803 H   0  0  0  0  0  0  0  0  0  0  0  0  # atno 8009 bound_to 7997
  154.7040  140.0504  157.0473 H   0  0  0  0  0  0  0  0  0  0  0  0  # atno 8010 bound_to 7997
  139.8927  143.6702  152.2609 H   0  0  0  0  0  0  0  0  0  0  0  0  # atno 10167 bound_to 10162
  156.3985  130.4386  149.7340 H   0  0  0  0  0  0  0  0  0  0  0  0  # atno 10718 bound_to 10713
  154.1915  135.2794  155.3020 H   0  0  0  0  0  0  0  0  0  0  0  0  # atno 10763 bound_to 10752
  154.5925  135.5555  153.7296 H   0  0  0  0  0  0  0  0  0  0  0  0  # atno 10764 bound_to 10752
  153.0111  135.6372  154.2054 H   0  0  0  0  0  0  0  0  0  0  0  0  # atno 10765 bound_to 10752
  139.8776  134.8998  156.4299 H   0  0  0  0  0  0  0  0  0  0  0  0  # atno 11005 bound_to 11000
  144.6873  139.9447  143.7476 LP  0  0  0  0  0  0  0  0  0  0  0  0  # atno 17320 bound_to 7965
  146.0457  139.3463  143.0670 LP  0  0  0  0  0  0  0  0  0  0  0  0  # atno 17321 bound_to 7965
  139.7095  144.7622  151.1136 LP  0  0  0  0  0  0  0  0  0  0  0  0  # atno 17342 bound_to 10162
  140.7723  143.5350  150.9379 LP  0  0  0  0  0  0  0  0  0  0  0  0  # atno 17343 bound_to 10162
  156.4366  130.7841  151.2861 LP  0  0  0  0  0  0  0  0  0  0  0  0  # atno 17370 bound_to 10713
  157.7503  131.0137  150.3437 LP  0  0  0  0  0  0  0  0  0  0  0  0  # atno 17371 bound_to 10713
  140.9074  133.7736  155.9751 LP  0  0  0  0  0  0  0  0  0  0  0  0  # atno 17394 bound_to 11000
  140.8584  134.2870  157.5245 LP  0  0  0  0  0  0  0  0  0  0  0  0  # atno 17395 bound_to 11000

$$$$
