AV-unprocessed.smi:102|AV-procd|sdf|968|dock2
  -GOLD-   2262017513D 1   1.00000     0.00000
 Structure written by MMmdl.
 43 44  0  0  0  0  0  0  0  0  2 V2000
  150.8738  141.7555  156.9377 C   0  0  0  0  0  0  0  0  0  0  0  0
  151.6243  140.4451  156.7367 C   0  0  0  0  0  0  0  0  0  0  0  0
  152.5357  140.1065  157.4919 O   0  0  0  0  0  0  0  0  0  0  0  0
  151.1771  139.7509  155.6789 O   0  0  0  0  0  0  0  0  0  0  0  0
  151.7746  138.5064  155.3552 C   0  0  0  0  0  0  0  0  0  0  0  0
  150.7472  137.6208  154.6232 C   0  0  1  0  0  0  0  0  0  0  0  0
  151.2744  136.3057  154.5059 O   0  0  0  0  0  0  0  0  0  0  0  0
  150.9837  135.5782  155.6623 C   0  0  2  0  0  0  0  0  0  0  0  0
  150.6945  134.1450  155.2705 N   0  0  0  0  0  0  0  0  0  0  0  0
  149.7432  133.8615  154.3057 C   0  0  0  0  0  0  0  0  0  0  0  0
  149.4528  132.5896  153.9642 C   0  0  0  0  0  0  0  0  0  0  0  0
  148.5223  132.3448  153.0256 F   0  0  0  0  0  0  0  0  0  0  0  0
  150.1491  131.4868  154.6245 C   0  0  0  0  0  0  0  0  0  0  0  0
  149.8869  130.3289  154.3024 O   0  0  0  0  0  0  0  0  0  0  0  0
  151.0688  131.7962  155.5843 N   0  5  0  0  0  0  0  0  0  0  0  0
  151.3587  133.0820  155.9408 C   0  0  0  0  0  0  0  0  0  0  0  0
  152.1626  133.3694  156.8278 O   0  0  0  0  0  0  0  0  0  0  0  0
  149.7911  136.2641  156.3646 C   0  0  2  0  0  0  0  0  0  0  0  0
  148.6823  135.3862  156.5358 O   0  0  0  0  0  0  0  0  0  0  0  0
  148.6894  134.4626  157.5091 C   0  0  0  0  0  0  0  0  0  0  0  0
  147.4120  133.6347  157.5271 C   0  0  0  0  0  0  0  0  0  0  0  0
  149.5942  134.2699  158.3217 O   0  0  0  0  0  0  0  0  0  0  0  0
  149.4433  137.3867  155.3972 C   0  0  1  0  0  0  0  0  0  0  0  0
  148.9967  138.5348  156.1081 O   0  0  0  0  0  0  0  0  0  0  0  0
  148.3927  139.5415  155.4560 C   0  0  0  0  0  0  0  0  0  0  0  0
  148.0400  140.6997  156.3792 C   0  0  0  0  0  0  0  0  0  0  0  0
  148.1366  139.5760  154.2524 O   0  0  0  0  0  0  0  0  0  0  0  0
  149.9422  141.7618  156.3709 H   0  0  0  0  0  0  0  0  0  0  0  0
  151.4861  142.5942  156.6066 H   0  0  0  0  0  0  0  0  0  0  0  0
  150.6358  141.8961  157.9921 H   0  0  0  0  0  0  0  0  0  0  0  0
  152.6689  138.6576  154.7494 H   0  0  0  0  0  0  0  0  0  0  0  0
  152.0877  138.0256  156.2830 H   0  0  0  0  0  0  0  0  0  0  0  0
  150.5353  138.0381  153.6381 H   0  0  0  0  0  0  0  0  0  0  0  0
  151.8828  135.5600  156.2798 H   0  0  0  0  0  0  0  0  0  0  0  0
  149.2134  134.6671  153.8198 H   0  0  0  0  0  0  0  0  0  0  0  0
  150.1558  136.6565  157.3155 H   0  0  0  0  0  0  0  0  0  0  0  0
  147.2053  133.2360  156.5335 H   0  0  0  0  0  0  0  0  0  0  0  0
  146.5675  134.2504  157.8363 H   0  0  0  0  0  0  0  0  0  0  0  0
  147.5057  132.7996  158.2215 H   0  0  0  0  0  0  0  0  0  0  0  0
  148.6792  137.0259  154.7061 H   0  0  0  0  0  0  0  0  0  0  0  0
  147.4048  140.3535  157.1946 H   0  0  0  0  0  0  0  0  0  0  0  0
  147.5069  141.4777  155.8323 H   0  0  0  0  0  0  0  0  0  0  0  0
  148.9449  141.1337  156.8044 H   0  0  0  0  0  0  0  0  0  0  0  0
  1  2  1  0  0  0  0
  1 28  1  0  0  0  0
  1 29  1  0  0  0  0
  1 30  1  0  0  0  0
  2  3  2  0  0  0  0
  2  4  1  0  0  0  0
  4  5  1  0  0  0  0
  5  6  1  0  0  0  0
  5 31  1  0  0  0  0
  5 32  1  0  0  0  0
  6 23  1  0  0  0  0
  6  7  1  0  0  0  0
  6 33  1  0  0  0  0
  7  8  1  0  0  0  0
  8  9  1  0  0  0  0
  8 18  1  0  0  0  0
  8 34  1  0  0  0  0
  9 16  1  0  0  0  0
  9 10  1  0  0  0  0
 10 11  2  0  0  0  0
 10 35  1  0  0  0  0
 11 12  1  0  0  0  0
 11 13  1  0  0  0  0
 13 14  2  0  0  0  0
 13 15  1  0  0  0  0
 15 16  1  0  0  0  0
 16 17  2  0  0  0  0
 18 19  1  0  0  0  0
 18 23  1  0  0  0  0
 18 36  1  0  0  0  0
 19 20  1  0  0  0  0
 20 21  1  0  0  0  0
 20 22  2  0  0  0  0
 21 37  1  0  0  0  0
 21 38  1  0  0  0  0
 21 39  1  0  0  0  0
 23 24  1  0  0  0  0
 23 40  1  0  0  0  0
 24 25  1  0  0  0  0
 25 26  1  0  0  0  0
 25 27  2  0  0  0  0
 26 41  1  0  0  0  0
 26 42  1  0  0  0  0
 26 43  1  0  0  0  0
M  CHG  1  15  -1
M  END
> <s_m_source_file>
AV-unprocessed.smi

> <i_m_source_file_index>
102

> <i_lp_mmshare_version>
43012

> <i_f3d_flags>
0

> <s_epik_input>
W0NIM11DKD1PKU9bQ0gyXVtDQEBIXTFPW0NASF0oW0NAQEhdKE9DKD1PKVtDSDNdKVtDQEhdMU9DKD1PKVtDSDNdKW4yW2NIXWMoRiljKD1PKVtuSF1jMj1P

> <s_epik_cmdline>
J2VwaWtfcHl0aG9uJywgJy1waCcsICc3LjAnLCAnLXRuJywgJzgnLCAnLW1hJywgJzIwMCcsICctbWV0YWxfYmluZGluZycsICctaW1hZScsICc8aW5maWxlLm1hZT4nLCAnLW9tYWUnLCAnPG91dGZpbGUubWFlPic=

> <r_epik_Ionization_Penalty>
1.40304

> <r_epik_Ionization_Penalty_Charging>
1.43915e-08

> <r_epik_Ionization_Penalty_Neutral>
1.40304

> <r_epik_State_Penalty>
1.48536

> <r_epik_Charging_Adjusted_Penalty>
1.48536

> <i_epik_Tot_Q>
-1

> <i_epik_Tot_abs_Q>
1

> <r_epik_Metal_State_Penalty>
0.00663881

> <b_epik_Metal_Only>
0

> <s_epik_Chemistry_Notes>
This compound has an ester and may undergo hydrolysis at high or low pH. This compound contains an acetal/aminal-like group ( X-CH(R)-Y where X, Y are N, S, or O) that may be acid/base labile, releasing an aldehyde.

> <s_lp_Force_Field>
OPLS_2005

> <r_lp_Energy>
24.6661

> <b_lp_Chiralities_Consistent>
1

> <s_lp_Variant>
AV-unprocessed.smi:102-24

> <Gold.Version>
5.8.1

> <Gold.Id.Protein>
6NUR|6NUR_protein|mol2

> <Gold.PLP.Fitness>
46.8722

> <Gold.PLP.PLP>
-34.5994

> <Gold.PLP.part.hbond>
-4.4421

> <Gold.PLP.part.metal>
0.0000

> <Gold.PLP.part.buried>
-7.3298

> <Gold.PLP.part.nonpolar>
-25.2596

> <Gold.PLP.part.repulsive>
1.7631

> <Gold.PLP.ligand.clash>
0.0000

> <Gold.PLP.ligand.torsion>
0.5320

> <Gold.PLP.Chemscore.Hbond>
3.3770

> <Gold.PLP.Chemscore.CHOScore>
1.0000

> <Gold.PLP.Chemscore.Metal>
0.0000

> <Gold.Chemscore.Hbonds>
donor molecule, donor type, donor heavy atom, donor atom, acceptor molecule, acceptor atom, score
      P1  H  6896  6908       L1    22  0.69
      P1  H  7997  8010       L1     3  1.00
      P1  H 10752 10764       L1     7  0.55
      L1  C    10    35       P1  7948  0.85

> <Gold.PLP.Chemscore.Internal.Correction>
0.2057

> <Gold.Rescore>
     Score         DG    S(hbond)    S(metal)    S(lipo)     H(rot)  DE(clash)    DE(int)     intcor
      6.74     -11.64       3.44        0.00      41.75       4.00       0.03       4.86       ----

> <Gold.Chemscore.Fitness>
6.7432

> <Gold.Chemscore.DG>
-11.6351

> <Gold.Chemscore.ZeroCoef>
-5.4800

> <Gold.Chemscore.Hbond>
3.4425

> <Gold.Chemscore.Metal>
0.0000

> <Gold.Chemscore.Lipo>
41.7498

> <Gold.Chemscore.Internal_Hbond>
0.0000

> <Gold.Chemscore.DEClash>
0.0276

> <Gold.Chemscore.DEInternal>
4.8643

> <Gold.Chemscore.Rot>
3.9951

> <Gold.Chemscore.Internal.Correction>
   9.000000E+99

> <Gold.Chemscore.Hbonds>
donor molecule, donor type, donor heavy atom, donor atom, acceptor molecule, acceptor atom, score
      P1  H  6896  6907       L1    17  0.02
      P1  H  6896  6908       L1    22  0.68
      P1  H  7997  8010       L1     3  0.87
      P1  H 10752 10764       L1     7  0.03

> <Gold.Chemscore.Hbond.Weighted>
-11.4978

> <Gold.Chemscore.Metal.Weighted>
-0.0000

> <Gold.Chemscore.Lipo.Weighted>
-4.8847

> <Gold.Chemscore.Internal_Hbond.Weighted>
0.0000

> <Gold.Chemscore.DEClash.Weighted>
0.0276

> <Gold.Chemscore.DEInternal.Weighted>
4.8643

> <Gold.Chemscore.Rot.Weighted>
10.2274

> <Gold.Chemscore.Internal.Correction.Weighted>
   9.000000E+99

> <Gold.Protein.RotatedTorsions>
[ 6907 6896 6895 6894 ] final  172.55 input  -60.11 | X-H torsion
[ 7974 7965 7964 7962 ] final   46.64 input  175.53 | X-H torsion
[ 8008 7997 7996 7995 ] final   55.81 input   59.86 | X-H torsion
[ 10167 10162 10161 10158 ] final  -34.84 input  -65.29 | X-H torsion
[ 10718 10713 10712 10709 ] final  -35.62 input   66.30 | X-H torsion
[ 10763 10752 10751 10750 ] final  -67.94 input  -60.55 | X-H torsion
[ 11005 11000 10999 10996 ] final  -49.94 input  -57.11 | X-H torsion

> <Gold.Protein.ActiveResidues>
 VAL166  LYS551  ARG553  GLY616  TRP617  ASP618  TYR619  PRO620  LYS621  CYS622 
 ASP623  PHE694  ASN695  SER759  ASP760  ASP761  ALA762  ILE779  LEU786  VAL792 
 PHE793  MET794  SER795  GLU796  ALA797  LYS798  CYS799  TRP800  GLU811  SER814 

> <Gold.Protein.RotatedAtoms>
  151.7825  133.3351  159.3475 H   0  0  0  0  0  0  0  0  0  0  0  0  # atno 6907 bound_to 6896
  150.7421  134.5917  159.6000 H   0  0  0  0  0  0  0  0  0  0  0  0  # atno 6908 bound_to 6896
  152.3266  134.7314  160.0351 H   0  0  0  0  0  0  0  0  0  0  0  0  # atno 6909 bound_to 6896
  146.0371  139.4834  142.9801 H   0  0  0  0  0  0  0  0  0  0  0  0  # atno 7974 bound_to 7965
  155.5072  140.3476  155.4382 H   0  0  0  0  0  0  0  0  0  0  0  0  # atno 8008 bound_to 7997
  156.0874  140.1402  156.9664 H   0  0  0  0  0  0  0  0  0  0  0  0  # atno 8009 bound_to 7997
  154.4614  140.0933  156.6881 H   0  0  0  0  0  0  0  0  0  0  0  0  # atno 8010 bound_to 7997
  140.7177  143.3519  151.2138 H   0  0  0  0  0  0  0  0  0  0  0  0  # atno 10167 bound_to 10162
  156.3364  130.4287  149.7826 H   0  0  0  0  0  0  0  0  0  0  0  0  # atno 10718 bound_to 10713
  154.3818  135.6072  153.5795 H   0  0  0  0  0  0  0  0  0  0  0  0  # atno 10763 bound_to 10752
  152.9788  135.5862  154.4401 H   0  0  0  0  0  0  0  0  0  0  0  0  # atno 10764 bound_to 10752
  154.4171  135.2845  155.1977 H   0  0  0  0  0  0  0  0  0  0  0  0  # atno 10765 bound_to 10752
  141.0787  133.6659  156.3658 H   0  0  0  0  0  0  0  0  0  0  0  0  # atno 11005 bound_to 11000
  145.6945  141.0154  143.1537 LP  0  0  0  0  0  0  0  0  0  0  0  0  # atno 17320 bound_to 7965
  144.7057  139.8572  143.7430 LP  0  0  0  0  0  0  0  0  0  0  0  0  # atno 17321 bound_to 7965
  139.7052  143.9468  152.2923 LP  0  0  0  0  0  0  0  0  0  0  0  0  # atno 17342 bound_to 10162
  139.9174  144.6820  150.8498 LP  0  0  0  0  0  0  0  0  0  0  0  0  # atno 17343 bound_to 10162
  156.5079  130.8158  151.3157 LP  0  0  0  0  0  0  0  0  0  0  0  0  # atno 17370 bound_to 10713
  157.7439  130.9923  150.2633 LP  0  0  0  0  0  0  0  0  0  0  0  0  # atno 17371 bound_to 10713
  140.5515  134.6023  157.5409 LP  0  0  0  0  0  0  0  0  0  0  0  0  # atno 17394 bound_to 11000
  139.9600  134.7468  156.0257 LP  0  0  0  0  0  0  0  0  0  0  0  0  # atno 17395 bound_to 11000

$$$$
