AV-unprocessed.smi:651|AV-procd|sdf|3189|dock9
  -GOLD-   22720 0113D 1   1.00000     0.00000
 Structure written by MMmdl.
 39 40  0  0  0  0  0  0  0  0  2 V2000
  144.3820  131.6849  150.9526 C   0  0  0  0  0  0  0  0  0  0  0  0
  144.3699  133.1351  151.3868 C   0  0  0  0  0  0  0  0  0  0  0  0
  144.9613  134.1583  150.6151 C   0  0  0  0  0  0  0  0  0  0  0  0
  144.9120  135.4884  151.0816 C   0  0  0  0  0  0  0  0  0  0  0  0
  144.2715  135.7697  152.3089 C   0  0  0  0  0  0  0  0  0  0  0  0
  144.1934  137.1940  152.8336 C   0  0  0  0  0  0  0  0  0  0  0  0
  145.5745  137.7069  153.2494 C   0  0  0  0  0  0  0  0  0  0  0  0
  146.4887  136.9096  153.4545 O   0  0  0  0  0  0  0  0  0  0  0  0
  145.7078  139.0357  153.3843 N   0  0  0  0  0  0  0  0  0  0  0  0
  146.9289  139.7319  153.7931 C   0  0  1  0  0  0  0  0  0  0  0  0
  147.0834  141.0624  153.0294 C   0  0  0  0  0  0  0  0  0  0  0  0
  147.4180  142.1376  154.0688 C   0  0  0  0  0  0  0  0  0  0  0  0
  147.8213  141.3745  155.3317 C   0  0  0  0  0  0  0  0  0  0  0  0
  147.0046  140.0735  155.3074 C   0  0  1  0  0  0  0  0  0  0  0  0
  145.6430  140.2694  156.0098 C   0  0  0  0  0  0  0  0  0  0  0  0
  144.5580  140.2860  155.2316 N   0  0  0  0  0  0  0  0  0  0  0  0
  145.5697  140.4114  157.2296 O   0  0  0  0  0  0  0  0  0  0  0  0
  143.7020  134.7041  153.0396 C   0  0  0  0  0  0  0  0  0  0  0  0
  143.7701  133.4437  152.5583 N   0  3  0  0  0  0  0  0  0  0  0  0
  144.6888  131.5905  149.9104 H   0  0  0  0  0  0  0  0  0  0  0  0
  143.3890  131.2458  151.0542 H   0  0  0  0  0  0  0  0  0  0  0  0
  145.0773  131.1122  151.5670 H   0  0  0  0  0  0  0  0  0  0  0  0
  145.4457  133.9304  149.6766 H   0  0  0  0  0  0  0  0  0  0  0  0
  145.3569  136.2835  150.5006 H   0  0  0  0  0  0  0  0  0  0  0  0
  143.7797  137.8549  152.0709 H   0  0  0  0  0  0  0  0  0  0  0  0
  143.5125  137.2292  153.6854 H   0  0  0  0  0  0  0  0  0  0  0  0
  144.8981  139.6129  153.2096 H   0  0  0  0  0  0  0  0  0  0  0  0
  147.7925  139.1114  153.5448 H   0  0  0  0  0  0  0  0  0  0  0  0
  147.8847  140.9783  152.2944 H   0  0  0  0  0  0  0  0  0  0  0  0
  146.1793  141.3372  152.4841 H   0  0  0  0  0  0  0  0  0  0  0  0
  148.2023  142.8140  153.7278 H   0  0  0  0  0  0  0  0  0  0  0  0
  146.5329  142.7423  154.2696 H   0  0  0  0  0  0  0  0  0  0  0  0
  148.8841  141.1330  155.2893 H   0  0  0  0  0  0  0  0  0  0  0  0
  147.6646  141.9680  156.2339 H   0  0  0  0  0  0  0  0  0  0  0  0
  147.5477  139.2859  155.8329 H   0  0  0  0  0  0  0  0  0  0  0  0
  143.6442  140.4169  155.6415 H   0  0  0  0  0  0  0  0  0  0  0  0
  144.6557  140.1730  154.2329 H   0  0  0  0  0  0  0  0  0  0  0  0
  143.1931  134.8204  153.9857 H   0  0  0  0  0  0  0  0  0  0  0  0
  143.3493  132.6906  153.1033 H   0  0  0  0  0  0  0  0  0  0  0  0
  1  2  1  0  0  0  0
  1 20  1  0  0  0  0
  1 21  1  0  0  0  0
  1 22  1  0  0  0  0
  2 19  1  0  0  0  0
  2  3  2  0  0  0  0
  3  4  1  0  0  0  0
  3 23  1  0  0  0  0
  4  5  2  0  0  0  0
  4 24  1  0  0  0  0
  5  6  1  0  0  0  0
  5 18  1  0  0  0  0
  6  7  1  0  0  0  0
  6 25  1  0  0  0  0
  6 26  1  0  0  0  0
  7  8  2  0  0  0  0
  7  9  1  0  0  0  0
  9 10  1  0  0  0  0
  9 27  1  0  0  0  0
 10 14  1  0  0  0  0
 10 11  1  0  0  0  0
 10 28  1  0  0  0  0
 11 12  1  0  0  0  0
 11 29  1  0  0  0  0
 11 30  1  0  0  0  0
 12 13  1  0  0  0  0
 12 31  1  0  0  0  0
 12 32  1  0  0  0  0
 13 14  1  0  0  0  0
 13 33  1  0  0  0  0
 13 34  1  0  0  0  0
 14 15  1  0  0  0  0
 14 35  1  0  0  0  0
 15 16  1  0  0  0  0
 15 17  2  0  0  0  0
 16 36  1  0  0  0  0
 16 37  1  0  0  0  0
 18 19  2  0  0  0  0
 18 38  1  0  0  0  0
 19 39  1  0  0  0  0
M  CHG  1  19   1
M  END
> <s_m_source_file>
AV-unprocessed.smi

> <i_m_source_file_index>
651

> <i_lp_mmshare_version>
43012

> <i_f3d_flags>
0

> <s_epik_input>
W0NIM11jMVtjSF1bY0hdYyhbY0hdbjEpW0NIMl1DKD1PKVtOSF1bQ0BASF0yW0NIMl1bQ0gyXVtDSDJdW0NASF0yQyg9TylbTkgyXQ==

> <s_epik_cmdline>
J2VwaWtfcHl0aG9uJywgJy1waCcsICc3LjAnLCAnLXRuJywgJzgnLCAnLW1hJywgJzIwMCcsICctbWV0YWxfYmluZGluZycsICctaW1hZScsICc8aW5maWxlLm1hZT4nLCAnLW9tYWUnLCAnPG91dGZpbGUubWFlPic=

> <r_epik_Ionization_Penalty>
2.14971

> <r_epik_Ionization_Penalty_Charging>
2.14971

> <r_epik_Ionization_Penalty_Neutral>
1.65229e-07

> <r_epik_State_Penalty>
2.28946

> <r_epik_Charging_Adjusted_Penalty>
4.43917

> <i_epik_Tot_Q>
1

> <i_epik_Tot_abs_Q>
1

> <r_epik_Metal_State_Penalty>
2.30508

> <b_epik_Metal_Only>
0

> <s_lp_Force_Field>
OPLS_2005

> <r_lp_Energy>
19.7283

> <b_lp_Chiralities_Consistent>
1

> <s_lp_Variant>
AV-unprocessed.smi:651-6

> <Gold.Version>
5.8.1

> <Gold.Id.Protein>
6NUR|6NUR_protein|mol2

> <Gold.PLP.Fitness>
39.0396

> <Gold.PLP.PLP>
-29.1804

> <Gold.PLP.part.hbond>
-3.0000

> <Gold.PLP.part.metal>
0.0000

> <Gold.PLP.part.buried>
-5.5740

> <Gold.PLP.part.nonpolar>
-21.4832

> <Gold.PLP.part.repulsive>
0.7584

> <Gold.PLP.ligand.clash>
0.0000

> <Gold.PLP.ligand.torsion>
0.8066

> <Gold.PLP.Chemscore.Hbond>
3.8160

> <Gold.PLP.Chemscore.CHOScore>
0.0000

> <Gold.PLP.Chemscore.Metal>
0.0000

> <Gold.Chemscore.Hbonds>
donor molecule, donor type, donor heavy atom, donor atom, acceptor molecule, acceptor atom, score
      L1  H     9    27       P1 10175  1.00
      L1  H    16    37       P1 10175  0.83
      L1  H    19    39       P1 10957  2.00

> <Gold.PLP.Chemscore.Internal.Correction>
0.0245

> <Gold.Rescore>
     Score         DG    S(hbond)    S(metal)    S(lipo)     H(rot)  DE(clash)    DE(int)     intcor
     13.53     -16.65       2.66        0.00      64.07       2.04       0.66       2.45       ----

> <Gold.Chemscore.Fitness>
13.5339

> <Gold.Chemscore.DG>
-16.6498

> <Gold.Chemscore.ZeroCoef>
-5.4800

> <Gold.Chemscore.Hbond>
2.6622

> <Gold.Chemscore.Metal>
0.0000

> <Gold.Chemscore.Lipo>
64.0740

> <Gold.Chemscore.Internal_Hbond>
0.0000

> <Gold.Chemscore.DEClash>
0.6643

> <Gold.Chemscore.DEInternal>
2.4515

> <Gold.Chemscore.Rot>
2.0386

> <Gold.Chemscore.Internal.Correction>
   9.000000E+99

> <Gold.Chemscore.Hbonds>
donor molecule, donor type, donor heavy atom, donor atom, acceptor molecule, acceptor atom, score
      L1  H     9    27       P1 10175  1.00
      L1  H    16    37       P1 10175  0.77
      L1  H    19    39       P1 10957  0.24

> <Gold.Chemscore.Hbond.Weighted>
-8.8919

> <Gold.Chemscore.Metal.Weighted>
-0.0000

> <Gold.Chemscore.Lipo.Weighted>
-7.4967

> <Gold.Chemscore.Internal_Hbond.Weighted>
0.0000

> <Gold.Chemscore.DEClash.Weighted>
0.6643

> <Gold.Chemscore.DEInternal.Weighted>
2.4515

> <Gold.Chemscore.Rot.Weighted>
5.2188

> <Gold.Chemscore.Internal.Correction.Weighted>
   9.000000E+99

> <Gold.Protein.RotatedTorsions>
[ 6907 6896 6895 6894 ] final -118.63 input  -60.11 | X-H torsion
[ 7974 7965 7964 7962 ] final -146.44 input  175.53 | X-H torsion
[ 8008 7997 7996 7995 ] final  -20.93 input   59.86 | X-H torsion
[ 10167 10162 10161 10158 ] final  -43.70 input  -65.29 | X-H torsion
[ 10718 10713 10712 10709 ] final   54.07 input   66.30 | X-H torsion
[ 10763 10752 10751 10750 ] final -152.87 input  -60.55 | X-H torsion
[ 11005 11000 10999 10996 ] final   65.71 input  -57.11 | X-H torsion

> <Gold.Protein.ActiveResidues>
 VAL166  LYS551  ARG553  GLY616  TRP617  ASP618  TYR619  PRO620  LYS621  CYS622 
 ASP623  PHE694  ASN695  SER759  ASP760  ASP761  ALA762  ILE779  LEU786  VAL792 
 PHE793  MET794  SER795  GLU796  ALA797  LYS798  CYS799  TRP800  GLU811  SER814 

> <Gold.Protein.RotatedAtoms>
  150.8236  133.8210  159.3128 H   0  0  0  0  0  0  0  0  0  0  0  0  # atno 6907 bound_to 6896
  151.5961  135.1048  160.0059 H   0  0  0  0  0  0  0  0  0  0  0  0  # atno 6908 bound_to 6896
  152.4323  133.7258  159.6616 H   0  0  0  0  0  0  0  0  0  0  0  0  # atno 6909 bound_to 6896
  144.8159  140.5456  143.5611 H   0  0  0  0  0  0  0  0  0  0  0  0  # atno 7974 bound_to 7965
  154.4738  140.2048  155.9929 H   0  0  0  0  0  0  0  0  0  0  0  0  # atno 8008 bound_to 7997
  156.1055  140.3237  155.7970 H   0  0  0  0  0  0  0  0  0  0  0  0  # atno 8009 bound_to 7997
  155.4725  140.0532  157.2968 H   0  0  0  0  0  0  0  0  0  0  0  0  # atno 8010 bound_to 7997
  140.6924  143.2969  151.3390 H   0  0  0  0  0  0  0  0  0  0  0  0  # atno 10167 bound_to 10162
  157.5224  130.8574  149.8576 H   0  0  0  0  0  0  0  0  0  0  0  0  # atno 10718 bound_to 10713
  154.7965  135.3226  154.7653 H   0  0  0  0  0  0  0  0  0  0  0  0  # atno 10763 bound_to 10752
  153.8330  135.6877  153.4816 H   0  0  0  0  0  0  0  0  0  0  0  0  # atno 10764 bound_to 10752
  153.1660  135.4642  154.9779 H   0  0  0  0  0  0  0  0  0  0  0  0  # atno 10765 bound_to 10752
  139.9877  134.6641  156.0146 H   0  0  0  0  0  0  0  0  0  0  0  0  # atno 11005 bound_to 11000
  145.5214  139.1476  143.3550 LP  0  0  0  0  0  0  0  0  0  0  0  0  # atno 17320 bound_to 7965
  146.2462  140.5355  142.8912 LP  0  0  0  0  0  0  0  0  0  0  0  0  # atno 17321 bound_to 7965
  139.6341  144.0664  152.2501 LP  0  0  0  0  0  0  0  0  0  0  0  0  # atno 17342 bound_to 10162
  140.0148  144.6197  150.7616 LP  0  0  0  0  0  0  0  0  0  0  0  0  # atno 17343 bound_to 10162
  156.0362  130.3750  150.1553 LP  0  0  0  0  0  0  0  0  0  0  0  0  # atno 17370 bound_to 10713
  156.9740  130.9843  151.3452 LP  0  0  0  0  0  0  0  0  0  0  0  0  # atno 17371 bound_to 10713
  141.1539  133.6545  156.4100 LP  0  0  0  0  0  0  0  0  0  0  0  0  # atno 17394 bound_to 11000
  140.4969  134.6523  157.5233 LP  0  0  0  0  0  0  0  0  0  0  0  0  # atno 17395 bound_to 11000

$$$$
