AV-unprocessed.smi:2074|AV-procd|sdf|8455|dock4
  -GOLD-   2272011153D 1   1.00000     0.00000
 Structure written by MMmdl.
 44 45  0  0  0  0  0  0  0  0  2 V2000
  151.2232  144.4818  158.5625 C   0  0  0  0  0  0  0  0  0  0  0  0
  151.7344  143.8455  159.8232 C   0  0  0  0  0  0  0  0  0  0  0  0
  151.5262  144.4423  160.9846 N   0  0  0  0  0  0  0  0  0  0  0  0
  152.1088  143.6159  161.9502 O   0  0  0  0  0  0  0  0  0  0  0  0
  152.6482  142.5389  161.3247 C   0  0  0  0  0  0  0  0  0  0  0  0
  153.3212  141.5300  162.1929 C   0  0  0  0  0  0  0  0  0  0  0  0
  152.4456  142.6201  159.9741 C   0  0  0  0  0  0  0  0  0  0  0  0
  152.8694  141.6507  158.9005 C   0  0  0  0  0  0  0  0  0  0  0  0
  151.6336  141.0932  158.1947 C   0  0  0  0  0  0  0  0  0  0  0  0
  150.5226  141.2203  158.7085 O   0  0  0  0  0  0  0  0  0  0  0  0
  151.8409  140.4781  157.0192 N   0  0  0  0  0  0  0  0  0  0  0  0
  150.8003  139.9204  156.1583 C   0  0  0  0  0  0  0  0  0  0  0  0
  150.8238  140.4893  154.7111 C   0  0  1  0  0  0  0  0  0  0  0  0
  151.7100  139.6118  153.7935 C   0  0  0  0  0  0  0  0  0  0  0  0
  149.4457  140.6550  154.1356 N   0  3  0  0  0  0  0  0  0  0  0  0
  148.7143  139.3757  153.9093 C   0  0  0  0  0  0  0  0  0  0  0  0
  147.3136  139.6177  153.3213 C   0  0  0  0  0  0  0  0  0  0  0  0
  146.5744  140.4760  154.1746 O   0  0  0  0  0  0  0  0  0  0  0  0
  147.1960  141.7461  154.2859 C   0  0  0  0  0  0  0  0  0  0  0  0
  148.5871  141.5864  154.9212 C   0  0  0  0  0  0  0  0  0  0  0  0
  151.9620  144.4177  157.7636 H   0  0  0  0  0  0  0  0  0  0  0  0
  150.9898  145.5372  158.7094 H   0  0  0  0  0  0  0  0  0  0  0  0
  150.3164  143.9856  158.2169 H   0  0  0  0  0  0  0  0  0  0  0  0
  153.2450  140.5317  161.7619 H   0  0  0  0  0  0  0  0  0  0  0  0
  152.8674  141.5023  163.1837 H   0  0  0  0  0  0  0  0  0  0  0  0
  154.3786  141.7674  162.3107 H   0  0  0  0  0  0  0  0  0  0  0  0
  153.5224  142.1237  158.1661 H   0  0  0  0  0  0  0  0  0  0  0  0
  153.4410  140.8222  159.3202 H   0  0  0  0  0  0  0  0  0  0  0  0
  152.7907  140.4204  156.6811 H   0  0  0  0  0  0  0  0  0  0  0  0
  150.8489  138.8304  156.1368 H   0  0  0  0  0  0  0  0  0  0  0  0
  149.8685  140.1784  156.6597 H   0  0  0  0  0  0  0  0  0  0  0  0
  151.2765  141.4810  154.7616 H   0  0  0  0  0  0  0  0  0  0  0  0
  152.7069  139.4654  154.2068 H   0  0  0  0  0  0  0  0  0  0  0  0
  151.8775  140.0590  152.8155 H   0  0  0  0  0  0  0  0  0  0  0  0
  151.2693  138.6256  153.6445 H   0  0  0  0  0  0  0  0  0  0  0  0
  149.2460  138.7411  153.2024 H   0  0  0  0  0  0  0  0  0  0  0  0
  148.6362  138.8277  154.8496 H   0  0  0  0  0  0  0  0  0  0  0  0
  147.3795  140.0453  152.3193 H   0  0  0  0  0  0  0  0  0  0  0  0
  146.7796  138.6721  153.2269 H   0  0  0  0  0  0  0  0  0  0  0  0
  147.2652  142.2225  153.3063 H   0  0  0  0  0  0  0  0  0  0  0  0
  146.5724  142.3892  154.9073 H   0  0  0  0  0  0  0  0  0  0  0  0
  148.4881  141.2179  155.9434 H   0  0  0  0  0  0  0  0  0  0  0  0
  149.0293  142.5786  154.9790 H   0  0  0  0  0  0  0  0  0  0  0  0
  149.5659  141.0734  153.2240 H   0  0  0  0  0  0  0  0  0  0  0  0
  1  2  1  0  0  0  0
  1 21  1  0  0  0  0
  1 22  1  0  0  0  0
  1 23  1  0  0  0  0
  2  7  1  0  0  0  0
  2  3  2  0  0  0  0
  3  4  1  0  0  0  0
  4  5  1  0  0  0  0
  5  6  1  0  0  0  0
  5  7  2  0  0  0  0
  6 24  1  0  0  0  0
  6 25  1  0  0  0  0
  6 26  1  0  0  0  0
  7  8  1  0  0  0  0
  8  9  1  0  0  0  0
  8 27  1  0  0  0  0
  8 28  1  0  0  0  0
  9 10  2  0  0  0  0
  9 11  1  0  0  0  0
 11 12  1  0  0  0  0
 11 29  1  0  0  0  0
 12 13  1  0  0  0  0
 12 30  1  0  0  0  0
 12 31  1  0  0  0  0
 13 14  1  0  0  0  0
 13 15  1  0  0  0  0
 13 32  1  0  0  0  0
 14 33  1  0  0  0  0
 14 34  1  0  0  0  0
 14 35  1  0  0  0  0
 15 20  1  0  0  0  0
 15 16  1  0  0  0  0
 15 44  1  0  0  0  0
 16 17  1  0  0  0  0
 16 36  1  0  0  0  0
 16 37  1  0  0  0  0
 17 18  1  0  0  0  0
 17 38  1  0  0  0  0
 17 39  1  0  0  0  0
 18 19  1  0  0  0  0
 19 20  1  0  0  0  0
 19 40  1  0  0  0  0
 19 41  1  0  0  0  0
 20 42  1  0  0  0  0
 20 43  1  0  0  0  0
M  CHG  1  15   1
M  END
> <s_m_source_file>
AV-unprocessed.smi

> <i_m_source_file_index>
2074

> <i_lp_mmshare_version>
43012

> <i_f3d_flags>
0

> <s_epik_input>
W0NIM11jMW5vYyhbQ0gzXSljMVtDSDJdQyg9TylbTkhdW0NIMl1bQ0BIXShbQ0gzXSlOMltDSDJdW0NIMl1PW0NIMl1bQ0gyXTI=

> <s_epik_cmdline>
J2VwaWtfcHl0aG9uJywgJy1waCcsICc3LjAnLCAnLXRuJywgJzgnLCAnLW1hJywgJzIwMCcsICctbWV0YWxfYmluZGluZycsICctaW1hZScsICc8aW5maWxlLm1hZT4nLCAnLW9tYWUnLCAnPG91dGZpbGUubWFlPic=

> <r_epik_Ionization_Penalty>
0.663207

> <r_epik_Ionization_Penalty_Charging>
0.663207

> <r_epik_Ionization_Penalty_Neutral>
1.0751e-07

> <r_epik_State_Penalty>
0.682743

> <r_epik_Charging_Adjusted_Penalty>
1.34595

> <i_epik_Tot_Q>
1

> <i_epik_Tot_abs_Q>
1

> <r_epik_Metal_State_Penalty>
0.682743

> <b_epik_Metal_Only>
0

> <s_lp_Force_Field>
OPLS_2005

> <r_lp_Energy>
15.6967

> <b_lp_Chiralities_Consistent>
1

> <s_lp_Variant>
AV-unprocessed.smi:2074-4

> <Gold.Version>
5.8.1

> <Gold.Id.Protein>
6NUR|6NUR_protein|mol2

> <Gold.PLP.Fitness>
46.8430

> <Gold.PLP.PLP>
-45.1237

> <Gold.PLP.part.hbond>
-1.0000

> <Gold.PLP.part.metal>
0.0000

> <Gold.PLP.part.buried>
-5.5610

> <Gold.PLP.part.nonpolar>
-38.3470

> <Gold.PLP.part.repulsive>
0.6522

> <Gold.PLP.ligand.clash>
0.0000

> <Gold.PLP.ligand.torsion>
0.6736

> <Gold.PLP.Chemscore.Hbond>
1.0000

> <Gold.PLP.Chemscore.CHOScore>
0.0000

> <Gold.PLP.Chemscore.Metal>
0.0000

> <Gold.Chemscore.Hbonds>
donor molecule, donor type, donor heavy atom, donor atom, acceptor molecule, acceptor atom, score
      L1  H    15    44       P1  7957  0.19

> <Gold.PLP.Chemscore.Internal.Correction>
0.0665

> <Gold.Rescore>
     Score         DG    S(hbond)    S(metal)    S(lipo)     H(rot)  DE(clash)    DE(int)     intcor
     16.24     -17.72       0.93        0.00     117.24       1.80       0.80       0.68       ----

> <Gold.Chemscore.Fitness>
16.2421

> <Gold.Chemscore.DG>
-17.7193

> <Gold.Chemscore.ZeroCoef>
-5.4800

> <Gold.Chemscore.Hbond>
0.9341

> <Gold.Chemscore.Metal>
0.0000

> <Gold.Chemscore.Lipo>
117.2416

> <Gold.Chemscore.Internal_Hbond>
0.0000

> <Gold.Chemscore.DEClash>
0.7973

> <Gold.Chemscore.DEInternal>
0.6799

> <Gold.Chemscore.Rot>
1.7961

> <Gold.Chemscore.Internal.Correction>
   9.000000E+99

> <Gold.Chemscore.Hbonds>
donor molecule, donor type, donor heavy atom, donor atom, acceptor molecule, acceptor atom, score
      L1  H    15    44       P1  7957  0.19

> <Gold.Chemscore.Hbond.Weighted>
-3.1200

> <Gold.Chemscore.Metal.Weighted>
-0.0000

> <Gold.Chemscore.Lipo.Weighted>
-13.7173

> <Gold.Chemscore.Internal_Hbond.Weighted>
0.0000

> <Gold.Chemscore.DEClash.Weighted>
0.7973

> <Gold.Chemscore.DEInternal.Weighted>
0.6799

> <Gold.Chemscore.Rot.Weighted>
4.5980

> <Gold.Chemscore.Internal.Correction.Weighted>
   9.000000E+99

> <Gold.Protein.RotatedTorsions>
[ 6907 6896 6895 6894 ] final -134.81 input  -60.11 | X-H torsion
[ 7974 7965 7964 7962 ] final  -93.56 input  175.53 | X-H torsion
[ 8008 7997 7996 7995 ] final  -74.11 input   59.86 | X-H torsion
[ 10167 10162 10161 10158 ] final -133.96 input  -65.29 | X-H torsion
[ 10718 10713 10712 10709 ] final -128.89 input   66.30 | X-H torsion
[ 10763 10752 10751 10750 ] final   10.38 input  -60.55 | X-H torsion
[ 11005 11000 10999 10996 ] final  -68.22 input  -57.11 | X-H torsion

> <Gold.Protein.ActiveResidues>
 VAL166  LYS551  ARG553  GLY616  TRP617  ASP618  TYR619  PRO620  LYS621  CYS622 
 ASP623  PHE694  ASN695  SER759  ASP760  ASP761  ALA762  ILE779  LEU786  VAL792 
 PHE793  MET794  SER795  GLU796  ALA797  LYS798  CYS799  TRP800  GLU811  SER814 

> <Gold.Protein.RotatedAtoms>
  150.9903  133.6157  159.2709 H   0  0  0  0  0  0  0  0  0  0  0  0  # atno 6907 bound_to 6896
  151.3380  135.0856  159.9371 H   0  0  0  0  0  0  0  0  0  0  0  0  # atno 6908 bound_to 6896
  152.5243  133.9519  159.7730 H   0  0  0  0  0  0  0  0  0  0  0  0  # atno 6909 bound_to 6896
  145.3849  140.9522  143.2373 H   0  0  0  0  0  0  0  0  0  0  0  0  # atno 7974 bound_to 7965
  154.5303  140.0767  156.8332 H   0  0  0  0  0  0  0  0  0  0  0  0  # atno 8008 bound_to 7997
  155.3389  140.3406  155.4221 H   0  0  0  0  0  0  0  0  0  0  0  0  # atno 8009 bound_to 7997
  156.1774  140.1640  156.8324 H   0  0  0  0  0  0  0  0  0  0  0  0  # atno 8010 bound_to 7997
  139.8929  143.6701  152.2609 H   0  0  0  0  0  0  0  0  0  0  0  0  # atno 10167 bound_to 10162
  156.1994  130.6847  151.0521 H   0  0  0  0  0  0  0  0  0  0  0  0  # atno 10718 bound_to 10713
  153.2038  135.6859  153.8198 H   0  0  0  0  0  0  0  0  0  0  0  0  # atno 10763 bound_to 10752
  153.7455  135.3231  155.3313 H   0  0  0  0  0  0  0  0  0  0  0  0  # atno 10764 bound_to 10752
  154.8186  135.4668  154.0815 H   0  0  0  0  0  0  0  0  0  0  0  0  # atno 10765 bound_to 10752
  141.1527  133.6736  156.6412 H   0  0  0  0  0  0  0  0  0  0  0  0  # atno 11005 bound_to 11000
  144.8481  139.5365  143.6869 LP  0  0  0  0  0  0  0  0  0  0  0  0  # atno 17320 bound_to 7965
  146.2825  139.6914  142.9219 LP  0  0  0  0  0  0  0  0  0  0  0  0  # atno 17321 bound_to 7965
  139.7094  144.7623  151.1138 LP  0  0  0  0  0  0  0  0  0  0  0  0  # atno 17342 bound_to 10162
  140.7723  143.5351  150.9377 LP  0  0  0  0  0  0  0  0  0  0  0  0  # atno 17343 bound_to 10162
  157.6977  131.0788  150.6919 LP  0  0  0  0  0  0  0  0  0  0  0  0  # atno 17370 bound_to 10713
  156.6976  130.4614  149.5582 LP  0  0  0  0  0  0  0  0  0  0  0  0  # atno 17371 bound_to 10713
  140.3392  134.7864  157.4384 LP  0  0  0  0  0  0  0  0  0  0  0  0  # atno 17394 bound_to 11000
  140.0952  134.5546  155.8405 LP  0  0  0  0  0  0  0  0  0  0  0  0  # atno 17395 bound_to 11000

$$$$
