AV-unprocessed.smi:1832|AV-procd|sdf|7464|dock1
  -GOLD-   22720 9153D 1   1.00000     0.00000
 Structure written by MMmdl.
 35 35  0  0  0  0  0  0  0  0  1 V2000
  145.7072  143.7045  161.6741 C   0  0  0  0  0  0  0  0  0  0  0  0
  146.4062  144.0400  160.3524 C   0  0  0  0  0  0  0  0  0  0  0  0
  146.9989  145.4584  160.3460 C   0  0  0  0  0  0  0  0  0  0  0  0
  148.3610  145.4711  159.8256 N   0  0  0  0  0  0  0  0  0  0  0  0
  149.4025  144.8253  160.3717 C   0  0  0  0  0  0  0  0  0  0  0  0
  149.3146  144.1532  161.4005 O   0  0  0  0  0  0  0  0  0  0  0  0
  150.7469  144.9869  159.6474 C   0  0  0  0  0  0  0  0  0  0  0  0
  151.2973  143.7148  159.1491 N   0  0  0  0  0  0  0  0  0  0  0  0
  150.7214  143.1840  157.9775 C   0  0  0  0  0  0  0  0  0  0  0  0
  151.1492  142.0274  157.4243 C   0  0  0  0  0  0  0  0  0  0  0  0
  150.5793  141.4546  156.2012 C   0  0  0  0  0  0  0  0  0  0  0  0
  150.8173  140.3165  155.7946 O   0  0  0  0  0  0  0  0  0  0  0  0
  149.7565  142.2824  155.5342 N   0  0  0  0  0  0  0  0  0  0  0  0
  149.0764  141.9463  154.2927 C   0  0  0  0  0  0  0  0  0  0  0  0
  152.2368  141.3359  158.0893 C   0  0  0  0  0  0  0  0  0  0  0  0
  152.7954  141.8412  159.2064 C   0  0  0  0  0  0  0  0  0  0  0  0
  152.3324  143.0997  159.7974 C   0  0  0  0  0  0  0  0  0  0  0  0
  152.8436  143.5718  160.8133 O   0  0  0  0  0  0  0  0  0  0  0  0
  145.2980  142.6944  161.6520 H   0  0  0  0  0  0  0  0  0  0  0  0
  144.8844  144.3927  161.8690 H   0  0  0  0  0  0  0  0  0  0  0  0
  146.4013  143.7640  162.5129 H   0  0  0  0  0  0  0  0  0  0  0  0
  147.1965  143.3112  160.1692 H   0  0  0  0  0  0  0  0  0  0  0  0
  145.6918  143.9325  159.5355 H   0  0  0  0  0  0  0  0  0  0  0  0
  146.3690  146.1348  159.7655 H   0  0  0  0  0  0  0  0  0  0  0  0
  147.0238  145.8541  161.3616 H   0  0  0  0  0  0  0  0  0  0  0  0
  148.5220  146.0050  158.9837 H   0  0  0  0  0  0  0  0  0  0  0  0
  150.6310  145.6962  158.8256 H   0  0  0  0  0  0  0  0  0  0  0  0
  151.4479  145.4628  160.3344 H   0  0  0  0  0  0  0  0  0  0  0  0
  149.9262  143.7923  157.5710 H   0  0  0  0  0  0  0  0  0  0  0  0
  149.5976  143.2050  155.9121 H   0  0  0  0  0  0  0  0  0  0  0  0
  148.4803  142.7941  153.9549 H   0  0  0  0  0  0  0  0  0  0  0  0
  148.4098  141.0945  154.4331 H   0  0  0  0  0  0  0  0  0  0  0  0
  149.7956  141.7019  153.5099 H   0  0  0  0  0  0  0  0  0  0  0  0
  152.6151  140.4040  157.6941 H   0  0  0  0  0  0  0  0  0  0  0  0
  153.6053  141.3060  159.6800 H   0  0  0  0  0  0  0  0  0  0  0  0
  1  2  1  0  0  0  0
  1 19  1  0  0  0  0
  1 20  1  0  0  0  0
  1 21  1  0  0  0  0
  2  3  1  0  0  0  0
  2 22  1  0  0  0  0
  2 23  1  0  0  0  0
  3  4  1  0  0  0  0
  3 24  1  0  0  0  0
  3 25  1  0  0  0  0
  4  5  1  0  0  0  0
  4 26  1  0  0  0  0
  5  6  2  0  0  0  0
  5  7  1  0  0  0  0
  7  8  1  0  0  0  0
  7 27  1  0  0  0  0
  7 28  1  0  0  0  0
  8 17  1  0  0  0  0
  8  9  1  0  0  0  0
  9 10  2  0  0  0  0
  9 29  1  0  0  0  0
 10 11  1  0  0  0  0
 10 15  1  0  0  0  0
 11 12  2  0  0  0  0
 11 13  1  0  0  0  0
 13 14  1  0  0  0  0
 13 30  1  0  0  0  0
 14 31  1  0  0  0  0
 14 32  1  0  0  0  0
 14 33  1  0  0  0  0
 15 16  2  0  0  0  0
 15 34  1  0  0  0  0
 16 17  1  0  0  0  0
 16 35  1  0  0  0  0
 17 18  2  0  0  0  0
M  END
> <s_m_source_file>
AV-unprocessed.smi

> <i_m_source_file_index>
1832

> <i_lp_mmshare_version>
43012

> <i_f3d_flags>
0

> <s_epik_input>
W0NIM11bQ0gyXVtDSDJdW05IXUMoPU8pW0NIMl1uMVtjSF1jKEMoPU8pW05IXVtDSDNdKVtjSF1bY0hdYzE9Tw==

> <s_epik_cmdline>
J2VwaWtfcHl0aG9uJywgJy1waCcsICc3LjAnLCAnLXRuJywgJzgnLCAnLW1hJywgJzIwMCcsICctbWV0YWxfYmluZGluZycsICctaW1hZScsICc8aW5maWxlLm1hZT4nLCAnLW9tYWUnLCAnPG91dGZpbGUubWFlPic=

> <r_lp_tautomer_probability>
1

> <r_epik_Ionization_Penalty>
3.67838e-07

> <r_epik_Ionization_Penalty_Charging>
4.72549e-08

> <r_epik_Ionization_Penalty_Neutral>
3.20583e-07

> <r_epik_State_Penalty>
-0

> <r_epik_Charging_Adjusted_Penalty>
4.72549e-08

> <i_epik_Tot_Q>
0

> <i_epik_Tot_abs_Q>
0

> <r_epik_Metal_State_Penalty>
-0

> <b_epik_Metal_Only>
0

> <s_lp_Force_Field>
OPLS_2005

> <r_lp_Energy>
14.7098

> <b_lp_Chiralities_Consistent>
1

> <s_lp_Variant>
AV-unprocessed.smi:1832-1

> <Gold.Version>
5.8.1

> <Gold.Id.Protein>
6NUR|6NUR_protein|mol2

> <Gold.PLP.Fitness>
46.1749

> <Gold.PLP.PLP>
-37.1699

> <Gold.PLP.part.hbond>
-3.0000

> <Gold.PLP.part.metal>
0.0000

> <Gold.PLP.part.buried>
-5.4371

> <Gold.PLP.part.nonpolar>
-29.5662

> <Gold.PLP.part.repulsive>
0.6349

> <Gold.PLP.ligand.clash>
0.0000

> <Gold.PLP.ligand.torsion>
0.6095

> <Gold.PLP.Chemscore.Hbond>
2.3920

> <Gold.PLP.Chemscore.CHOScore>
1.0000

> <Gold.PLP.Chemscore.Metal>
0.0000

> <Gold.Chemscore.Hbonds>
donor molecule, donor type, donor heavy atom, donor atom, acceptor molecule, acceptor atom, score
      L1  H     4    26       P1  8029  0.72
      L1  H    13    30       P1  8028  0.91
      P1  H  6933  6944       L1     6  0.40
      L1  C     9    29       P1  8028  1.00

> <Gold.PLP.Chemscore.Internal.Correction>
0.0479

> <Gold.Rescore>
     Score         DG    S(hbond)    S(metal)    S(lipo)     H(rot)  DE(clash)    DE(int)     intcor
     16.06     -16.84       2.76        0.00      57.21       1.78       0.01       0.77       ----

> <Gold.Chemscore.Fitness>
16.0610

> <Gold.Chemscore.DG>
-16.8380

> <Gold.Chemscore.ZeroCoef>
-5.4800

> <Gold.Chemscore.Hbond>
2.7596

> <Gold.Chemscore.Metal>
0.0000

> <Gold.Chemscore.Lipo>
57.2140

> <Gold.Chemscore.Internal_Hbond>
0.0000

> <Gold.Chemscore.DEClash>
0.0104

> <Gold.Chemscore.DEInternal>
0.7667

> <Gold.Chemscore.Rot>
1.7785

> <Gold.Chemscore.Internal.Correction>
   9.000000E+99

> <Gold.Chemscore.Hbonds>
donor molecule, donor type, donor heavy atom, donor atom, acceptor molecule, acceptor atom, score
      L1  H     4    26       P1  8029  0.72
      L1  H    13    30       P1  8028  0.90
      P1  H  6933  6944       L1     6  0.40

> <Gold.Chemscore.Hbond.Weighted>
-9.2170

> <Gold.Chemscore.Metal.Weighted>
-0.0000

> <Gold.Chemscore.Lipo.Weighted>
-6.6940

> <Gold.Chemscore.Internal_Hbond.Weighted>
0.0000

> <Gold.Chemscore.DEClash.Weighted>
0.0104

> <Gold.Chemscore.DEInternal.Weighted>
0.7667

> <Gold.Chemscore.Rot.Weighted>
4.5530

> <Gold.Chemscore.Internal.Correction.Weighted>
   9.000000E+99

> <Gold.Protein.RotatedTorsions>
[ 6907 6896 6895 6894 ] final  150.72 input  -60.11 | X-H torsion
[ 7974 7965 7964 7962 ] final  -96.63 input  175.53 | X-H torsion
[ 8008 7997 7996 7995 ] final   46.23 input   59.86 | X-H torsion
[ 10167 10162 10161 10158 ] final   73.91 input  -65.29 | X-H torsion
[ 10718 10713 10712 10709 ] final  -71.33 input   66.30 | X-H torsion
[ 10763 10752 10751 10750 ] final   -0.10 input  -60.55 | X-H torsion
[ 11005 11000 10999 10996 ] final -139.18 input  -57.11 | X-H torsion

> <Gold.Protein.ActiveResidues>
 VAL166  LYS551  ARG553  GLY616  TRP617  ASP618  TYR619  PRO620  LYS621  CYS622 
 ASP623  PHE694  ASN695  SER759  ASP760  ASP761  ALA762  ILE779  LEU786  VAL792 
 PHE793  MET794  SER795  GLU796  ALA797  LYS798  CYS799  TRP800  GLU811  SER814 

> <Gold.Protein.RotatedAtoms>
  152.1105  133.4298  159.4628 H   0  0  0  0  0  0  0  0  0  0  0  0  # atno 6907 bound_to 6896
  150.6867  134.2653  159.4575 H   0  0  0  0  0  0  0  0  0  0  0  0  # atno 6908 bound_to 6896
  152.0522  134.9646  160.0625 H   0  0  0  0  0  0  0  0  0  0  0  0  # atno 6909 bound_to 6896
  145.3444  140.9465  143.2590 H   0  0  0  0  0  0  0  0  0  0  0  0  # atno 7974 bound_to 7965
  155.3489  140.3412  155.4239 H   0  0  0  0  0  0  0  0  0  0  0  0  # atno 8008 bound_to 7997
  156.1774  140.1652  156.8373 H   0  0  0  0  0  0  0  0  0  0  0  0  # atno 8009 bound_to 7997
  154.5297  140.0748  156.8305 H   0  0  0  0  0  0  0  0  0  0  0  0  # atno 8010 bound_to 7997
  140.0194  144.5553  150.7594 H   0  0  0  0  0  0  0  0  0  0  0  0  # atno 10167 bound_to 10162
  156.0367  130.4349  150.2428 H   0  0  0  0  0  0  0  0  0  0  0  0  # atno 10718 bound_to 10713
  153.3275  135.6973  153.6976 H   0  0  0  0  0  0  0  0  0  0  0  0  # atno 10763 bound_to 10752
  153.5792  135.3501  155.2869 H   0  0  0  0  0  0  0  0  0  0  0  0  # atno 10764 bound_to 10752
  154.8611  135.4291  154.2455 H   0  0  0  0  0  0  0  0  0  0  0  0  # atno 10765 bound_to 10752
  140.8544  134.2246  157.4742 H   0  0  0  0  0  0  0  0  0  0  0  0  # atno 11005 bound_to 11000
  144.8766  139.4963  143.6743 LP  0  0  0  0  0  0  0  0  0  0  0  0  # atno 17320 bound_to 7965
  146.2994  139.7379  142.9102 LP  0  0  0  0  0  0  0  0  0  0  0  0  # atno 17321 bound_to 7965
  140.7349  143.2734  151.3817 LP  0  0  0  0  0  0  0  0  0  0  0  0  # atno 17342 bound_to 10162
  139.6150  144.1021  152.2337 LP  0  0  0  0  0  0  0  0  0  0  0  0  # atno 17343 bound_to 10162
  157.0527  131.0067  151.3248 LP  0  0  0  0  0  0  0  0  0  0  0  0  # atno 17370 bound_to 10713
  157.5129  130.7949  149.7724 LP  0  0  0  0  0  0  0  0  0  0  0  0  # atno 17371 bound_to 10713
  139.8705  134.9699  156.4683 LP  0  0  0  0  0  0  0  0  0  0  0  0  # atno 17394 bound_to 11000
  140.8753  133.7957  155.9408 LP  0  0  0  0  0  0  0  0  0  0  0  0  # atno 17395 bound_to 11000

$$$$
