AV-unprocessed.smi:1490|AV-procd|sdf|6029|dock2
  -GOLD-   22720 6133D 1   1.00000     0.00000
 Structure written by MMmdl.
 37 38  0  0  0  0  0  0  0  0  1 V2000
  147.1514  140.2698  153.3980 C   0  0  0  0  0  0  0  0  0  0  0  0
  148.0152  141.2322  153.9755 O   0  0  0  0  0  0  0  0  0  0  0  0
  149.0012  140.6493  154.8119 C   0  0  0  0  0  0  0  0  0  0  0  0
  150.0521  141.7022  155.1912 C   0  0  0  0  0  0  0  0  0  0  0  0
  150.9825  141.2048  156.1946 N   0  0  0  0  0  0  0  0  0  0  0  0
  151.7620  140.0955  156.1423 C   0  0  0  0  0  0  0  0  0  0  0  0
  151.7385  139.0103  154.7467 S   0  0  0  0  0  0  0  0  0  0  0  0
  150.3248  137.9622  155.1989 C   0  0  0  0  0  0  0  0  0  0  0  0
  150.6952  136.4830  155.2503 C   0  0  0  0  0  0  0  0  0  0  0  0
  151.8218  136.1393  155.6054 O   0  0  0  0  0  0  0  0  0  0  0  0
  149.7387  135.6123  154.8974 N   0  0  0  0  0  0  0  0  0  0  0  0
  149.9067  134.1662  154.8895 C   0  0  0  0  0  0  0  0  0  0  0  0
  150.2840  133.6328  156.2082 C   0  0  0  0  0  0  0  0  0  0  0  0
  150.5803  133.2142  157.2452 N   0  0  0  0  0  0  0  0  0  0  0  0
  152.5295  139.8848  157.2136 N   0  0  0  0  0  0  0  0  0  0  0  0
  152.2273  140.9584  158.0274 C   0  0  0  0  0  0  0  0  0  0  0  0
  152.7178  141.3097  159.3054 C   0  0  0  0  0  0  0  0  0  0  0  0
  152.2554  142.4749  159.9517 C   0  0  0  0  0  0  0  0  0  0  0  0
  152.8648  142.8899  161.5115 Cl  0  0  0  0  0  0  0  0  0  0  0  0
  151.2982  143.3031  159.3296 C   0  0  0  0  0  0  0  0  0  0  0  0
  150.7965  142.9704  158.0568 C   0  0  0  0  0  0  0  0  0  0  0  0
  151.2612  141.8056  157.4174 C   0  0  0  0  0  0  0  0  0  0  0  0
  146.4195  140.7697  152.7637 H   0  0  0  0  0  0  0  0  0  0  0  0
  146.6094  139.7158  154.1656 H   0  0  0  0  0  0  0  0  0  0  0  0
  147.7058  139.5622  152.7802 H   0  0  0  0  0  0  0  0  0  0  0  0
  148.5347  140.2496  155.7138 H   0  0  0  0  0  0  0  0  0  0  0  0
  149.4823  139.8163  154.2973 H   0  0  0  0  0  0  0  0  0  0  0  0
  150.6202  141.9947  154.3078 H   0  0  0  0  0  0  0  0  0  0  0  0
  149.5704  142.6097  155.5541 H   0  0  0  0  0  0  0  0  0  0  0  0
  149.9486  138.2727  156.1748 H   0  0  0  0  0  0  0  0  0  0  0  0
  149.5172  138.1048  154.4799 H   0  0  0  0  0  0  0  0  0  0  0  0
  148.8390  135.9751  154.6174 H   0  0  0  0  0  0  0  0  0  0  0  0
  148.9674  133.6999  154.5924 H   0  0  0  0  0  0  0  0  0  0  0  0
  150.6629  133.8693  154.1612 H   0  0  0  0  0  0  0  0  0  0  0  0
  153.4515  140.6810  159.7879 H   0  0  0  0  0  0  0  0  0  0  0  0
  150.9485  144.1946  159.8295 H   0  0  0  0  0  0  0  0  0  0  0  0
  150.0643  143.6031  157.5776 H   0  0  0  0  0  0  0  0  0  0  0  0
  1  2  1  0  0  0  0
  1 23  1  0  0  0  0
  1 24  1  0  0  0  0
  1 25  1  0  0  0  0
  2  3  1  0  0  0  0
  3  4  1  0  0  0  0
  3 26  1  0  0  0  0
  3 27  1  0  0  0  0
  4  5  1  0  0  0  0
  4 28  1  0  0  0  0
  4 29  1  0  0  0  0
  5 22  1  0  0  0  0
  5  6  1  0  0  0  0
  6  7  1  0  0  0  0
  6 15  2  0  0  0  0
  7  8  1  0  0  0  0
  8  9  1  0  0  0  0
  8 30  1  0  0  0  0
  8 31  1  0  0  0  0
  9 10  2  0  0  0  0
  9 11  1  0  0  0  0
 11 12  1  0  0  0  0
 11 32  1  0  0  0  0
 12 13  1  0  0  0  0
 12 33  1  0  0  0  0
 12 34  1  0  0  0  0
 13 14  3  0  0  0  0
 15 16  1  0  0  0  0
 16 22  2  0  0  0  0
 16 17  1  0  0  0  0
 17 18  2  0  0  0  0
 17 35  1  0  0  0  0
 18 19  1  0  0  0  0
 18 20  1  0  0  0  0
 20 21  2  0  0  0  0
 20 36  1  0  0  0  0
 21 22  1  0  0  0  0
 21 37  1  0  0  0  0
M  END
> <s_m_source_file>
AV-unprocessed.smi

> <i_m_source_file_index>
1490

> <i_lp_mmshare_version>
43012

> <i_f3d_flags>
0

> <s_epik_input>
W2NIXTFjKENsKVtjSF1bY0hdYyhjMTIpbihbQ0gyXVtDSDJdT1tDSDNdKWMobjIpU1tDSDJdQyg9TylbTkhdW0NIMl1DI04=

> <s_epik_cmdline>
J2VwaWtfcHl0aG9uJywgJy1waCcsICc3LjAnLCAnLXRuJywgJzgnLCAnLW1hJywgJzIwMCcsICctbWV0YWxfYmluZGluZycsICctaW1hZScsICc8aW5maWxlLm1hZT4nLCAnLW9tYWUnLCAnPG91dGZpbGUubWFlPic=

> <r_epik_Ionization_Penalty>
0.00952472

> <r_epik_Ionization_Penalty_Charging>
0

> <r_epik_Ionization_Penalty_Neutral>
0.00952472

> <r_epik_State_Penalty>
0.0072333

> <r_epik_Charging_Adjusted_Penalty>
0.0072333

> <i_epik_Tot_Q>
0

> <i_epik_Tot_abs_Q>
0

> <r_epik_Metal_State_Penalty>
0.00711889

> <b_epik_Metal_Only>
0

> <s_lp_Force_Field>
OPLS_2005

> <r_lp_Energy>
2.86895

> <b_lp_Chiralities_Consistent>
1

> <s_lp_Variant>
AV-unprocessed.smi:1490-1

> <Gold.Version>
5.8.1

> <Gold.Id.Protein>
6NUR|6NUR_protein|mol2

> <Gold.PLP.Fitness>
50.5088

> <Gold.PLP.PLP>
-43.7122

> <Gold.PLP.part.hbond>
-3.5409

> <Gold.PLP.part.metal>
0.0000

> <Gold.PLP.part.buried>
-4.7414

> <Gold.PLP.part.nonpolar>
-35.3329

> <Gold.PLP.part.repulsive>
0.2545

> <Gold.PLP.ligand.clash>
0.0000

> <Gold.PLP.ligand.torsion>
1.1556

> <Gold.PLP.Chemscore.Hbond>
2.9920

> <Gold.PLP.Chemscore.CHOScore>
0.0000

> <Gold.PLP.Chemscore.Metal>
0.0000

> <Gold.Chemscore.Hbonds>
donor molecule, donor type, donor heavy atom, donor atom, acceptor molecule, acceptor atom, score
      P1  H  6896  6908       L1    14  0.98
      P1  H  7997  8008       L1    15  1.00
      P1  H 10752 10763       L1    10  1.00

> <Gold.PLP.Chemscore.Internal.Correction>
0.1319

> <Gold.Rescore>
     Score         DG    S(hbond)    S(metal)    S(lipo)     H(rot)  DE(clash)    DE(int)     intcor
     18.25     -19.39       2.65        0.00     103.63       2.76       0.03       1.11       ----

> <Gold.Chemscore.Fitness>
18.2518

> <Gold.Chemscore.DG>
-19.3930

> <Gold.Chemscore.ZeroCoef>
-5.4800

> <Gold.Chemscore.Hbond>
2.6492

> <Gold.Chemscore.Metal>
0.0000

> <Gold.Chemscore.Lipo>
103.6283

> <Gold.Chemscore.Internal_Hbond>
0.0000

> <Gold.Chemscore.DEClash>
0.0291

> <Gold.Chemscore.DEInternal>
1.1120

> <Gold.Chemscore.Rot>
2.7577

> <Gold.Chemscore.Internal.Correction>
   9.000000E+99

> <Gold.Chemscore.Hbonds>
donor molecule, donor type, donor heavy atom, donor atom, acceptor molecule, acceptor atom, score
      P1  H  6896  6908       L1    14  0.86
      P1  H  7997  8008       L1    15  0.29
      P1  H 10752 10763       L1    10  0.97

> <Gold.Chemscore.Hbond.Weighted>
-8.8483

> <Gold.Chemscore.Metal.Weighted>
-0.0000

> <Gold.Chemscore.Lipo.Weighted>
-12.1245

> <Gold.Chemscore.Internal_Hbond.Weighted>
0.0000

> <Gold.Chemscore.DEClash.Weighted>
0.0291

> <Gold.Chemscore.DEInternal.Weighted>
1.1120

> <Gold.Chemscore.Rot.Weighted>
7.0598

> <Gold.Chemscore.Internal.Correction.Weighted>
   9.000000E+99

> <Gold.Protein.RotatedTorsions>
[ 6907 6896 6895 6894 ] final   96.58 input  -60.11 | X-H torsion
[ 7974 7965 7964 7962 ] final   76.00 input  175.53 | X-H torsion
[ 8008 7997 7996 7995 ] final  -53.43 input   59.86 | X-H torsion
[ 10167 10162 10161 10158 ] final  118.06 input  -65.29 | X-H torsion
[ 10718 10713 10712 10709 ] final  -34.72 input   66.30 | X-H torsion
[ 10763 10752 10751 10750 ] final   90.14 input  -60.55 | X-H torsion
[ 11005 11000 10999 10996 ] final   16.95 input  -57.11 | X-H torsion

> <Gold.Protein.ActiveResidues>
 VAL166  LYS551  ARG553  GLY616  TRP617  ASP618  TYR619  PRO620  LYS621  CYS622 
 ASP623  PHE694  ASN695  SER759  ASP760  ASP761  ALA762  ILE779  LEU786  VAL792 
 PHE793  MET794  SER795  GLU796  ALA797  LYS798  CYS799  TRP800  GLU811  SER814 

> <Gold.Protein.RotatedAtoms>
  152.5433  134.0864  159.8257 H   0  0  0  0  0  0  0  0  0  0  0  0  # atno 6907 bound_to 6896
  151.0959  133.5272  159.2620 H   0  0  0  0  0  0  0  0  0  0  0  0  # atno 6908 bound_to 6896
  151.2046  135.0465  159.8940 H   0  0  0  0  0  0  0  0  0  0  0  0  # atno 6909 bound_to 6896
  145.7084  139.2606  143.1665 H   0  0  0  0  0  0  0  0  0  0  0  0  # atno 7974 bound_to 7965
  154.4133  140.1200  156.5152 H   0  0  0  0  0  0  0  0  0  0  0  0  # atno 8008 bound_to 7997
  155.6759  140.3496  155.4817 H   0  0  0  0  0  0  0  0  0  0  0  0  # atno 8009 bound_to 7997
  155.9593  140.1120  157.0899 H   0  0  0  0  0  0  0  0  0  0  0  0  # atno 8010 bound_to 7997
  139.6137  144.7087  151.2788 H   0  0  0  0  0  0  0  0  0  0  0  0  # atno 10167 bound_to 10162
  156.3472  130.4303  149.7735 H   0  0  0  0  0  0  0  0  0  0  0  0  # atno 10718 bound_to 10713
  153.1944  135.4445  155.0190 H   0  0  0  0  0  0  0  0  0  0  0  0  # atno 10763 bound_to 10752
  154.8110  135.3294  154.7308 H   0  0  0  0  0  0  0  0  0  0  0  0  # atno 10764 bound_to 10752
  153.7758  135.6981  153.4953 H   0  0  0  0  0  0  0  0  0  0  0  0  # atno 10765 bound_to 10752
  140.4414  134.1318  155.7691 H   0  0  0  0  0  0  0  0  0  0  0  0  # atno 11005 bound_to 11000
  146.0735  140.7843  142.9676 LP  0  0  0  0  0  0  0  0  0  0  0  0  # atno 17320 bound_to 7965
  144.6949  140.3379  143.7204 LP  0  0  0  0  0  0  0  0  0  0  0  0  # atno 17321 bound_to 7965
  140.7336  143.6789  150.8017 LP  0  0  0  0  0  0  0  0  0  0  0  0  # atno 17342 bound_to 10162
  140.0388  143.5367  152.2727 LP  0  0  0  0  0  0  0  0  0  0  0  0  # atno 17343 bound_to 10162
  156.4949  130.8102  151.3109 LP  0  0  0  0  0  0  0  0  0  0  0  0  # atno 17370 bound_to 10713
  157.7456  130.9963  150.2776 LP  0  0  0  0  0  0  0  0  0  0  0  0  # atno 17371 bound_to 10713
  141.1704  133.8620  157.1588 LP  0  0  0  0  0  0  0  0  0  0  0  0  # atno 17394 bound_to 11000
  140.0068  135.0005  157.0309 LP  0  0  0  0  0  0  0  0  0  0  0  0  # atno 17395 bound_to 11000

$$$$
