AV-unprocessed.smi:2706|AV-procd|sdf|10454|dock4
  -GOLD-   2272014493D 1   1.00000     0.00000
 Structure written by MMmdl.
 43 46  0  0  0  0  0  0  0  0  1 V2000
  151.1025  145.0079  158.2239 C   0  0  0  0  0  0  0  0  0  0  0  0
  151.7724  144.4467  159.3922 N   0  0  0  0  0  0  0  0  0  0  0  0
  151.9621  145.4034  160.4776 C   0  0  0  0  0  0  0  0  0  0  0  0
  152.2550  143.1360  159.4204 C   0  0  0  0  0  0  0  0  0  0  0  0
  152.8760  142.6459  160.5172 C   0  0  0  0  0  0  0  0  0  0  0  0
  153.3856  141.2899  160.5210 C   0  0  0  0  0  0  0  0  0  0  0  0
  153.2398  140.4860  159.4496 C   0  0  0  0  0  0  0  0  0  0  0  0
  152.5497  140.9519  158.2617 C   0  0  0  0  0  0  0  0  0  0  0  0
  152.4003  140.1624  157.2351 N   0  0  0  0  0  0  0  0  0  0  0  0
  151.6247  140.4918  156.1229 C   0  0  0  0  0  0  0  0  0  0  0  0
  151.8180  140.0035  155.0101 O   0  0  0  0  0  0  0  0  0  0  0  0
  150.5632  141.2890  156.3620 N   0  0  0  0  0  0  0  0  0  0  0  0
  149.5776  141.6984  155.4144 C   0  0  2  0  0  0  0  0  0  0  0  0
  148.1203  141.2660  155.5576 C   0  0  2  0  0  0  0  0  0  0  0  0
  147.5443  140.0301  156.2544 C   0  0  1  0  0  0  0  0  0  0  0  0
  146.4976  139.4103  155.3028 C   0  0  0  0  0  0  0  0  0  0  0  0
  147.3816  138.8014  154.1848 C   0  0  0  0  0  0  0  0  0  0  0  0
  148.8049  139.1710  154.6536 C   0  0  2  0  0  0  0  0  0  0  0  0
  148.6300  138.9596  156.1585 C   0  0  0  0  0  0  0  0  0  0  0  0
  148.9646  140.6816  154.4621 C   0  0  2  0  0  0  0  0  0  0  0  0
  152.1168  142.2905  158.3165 N   0  0  0  0  0  0  0  0  0  0  0  0
  151.8201  145.5500  157.6077 H   0  0  0  0  0  0  0  0  0  0  0  0
  150.3134  145.7005  158.5187 H   0  0  0  0  0  0  0  0  0  0  0  0
  150.6408  144.2391  157.6055 H   0  0  0  0  0  0  0  0  0  0  0  0
  151.5016  145.0337  161.3942 H   0  0  0  0  0  0  0  0  0  0  0  0
  151.5199  146.3740  160.2509 H   0  0  0  0  0  0  0  0  0  0  0  0
  153.0249  145.5609  160.6635 H   0  0  0  0  0  0  0  0  0  0  0  0
  153.0167  143.2449  161.4044 H   0  0  0  0  0  0  0  0  0  0  0  0
  153.8983  140.9196  161.3965 H   0  0  0  0  0  0  0  0  0  0  0  0
  153.6433  139.4857  159.5105 H   0  0  0  0  0  0  0  0  0  0  0  0
  150.4322  141.6138  157.3092 H   0  0  0  0  0  0  0  0  0  0  0  0
  149.7116  142.6951  154.9968 H   0  0  0  0  0  0  0  0  0  0  0  0
  147.3809  142.0156  155.2816 H   0  0  0  0  0  0  0  0  0  0  0  0
  147.1738  140.2395  157.2570 H   0  0  0  0  0  0  0  0  0  0  0  0
  145.9216  138.6324  155.8058 H   0  0  0  0  0  0  0  0  0  0  0  0
  145.7952  140.1518  154.9200 H   0  0  0  0  0  0  0  0  0  0  0  0
  147.2527  137.7192  154.1371 H   0  0  0  0  0  0  0  0  0  0  0  0
  147.1492  139.2092  153.2004 H   0  0  0  0  0  0  0  0  0  0  0  0
  149.6050  138.5961  154.1870 H   0  0  0  0  0  0  0  0  0  0  0  0
  149.5140  139.1403  156.7632 H   0  0  0  0  0  0  0  0  0  0  0  0
  148.2728  137.9601  156.4153 H   0  0  0  0  0  0  0  0  0  0  0  0
  148.7922  141.0329  153.4464 H   0  0  0  0  0  0  0  0  0  0  0  0
  151.6542  142.7010  157.5183 H   0  0  0  0  0  0  0  0  0  0  0  0
  1  2  1  0  0  0  0
  1 22  1  0  0  0  0
  1 23  1  0  0  0  0
  1 24  1  0  0  0  0
  2  3  1  0  0  0  0
  2  4  1  0  0  0  0
  3 25  1  0  0  0  0
  3 26  1  0  0  0  0
  3 27  1  0  0  0  0
  4 21  1  0  0  0  0
  4  5  2  0  0  0  0
  5  6  1  0  0  0  0
  5 28  1  0  0  0  0
  6  7  2  0  0  0  0
  6 29  1  0  0  0  0
  7  8  1  0  0  0  0
  7 30  1  0  0  0  0
  8  9  2  0  0  0  0
  8 21  1  0  0  0  0
  9 10  1  0  0  0  0
 10 11  2  0  0  0  0
 10 12  1  0  0  0  0
 12 13  1  0  0  0  0
 12 31  1  0  0  0  0
 13 20  1  0  0  0  0
 13 14  1  0  0  0  0
 13 32  1  0  0  0  0
 14 20  1  0  0  0  0
 14 15  1  0  0  0  0
 14 33  1  0  0  0  0
 15 19  1  0  0  0  0
 15 16  1  0  0  0  0
 15 34  1  0  0  0  0
 16 17  1  0  0  0  0
 16 35  1  0  0  0  0
 16 36  1  0  0  0  0
 17 18  1  0  0  0  0
 17 37  1  0  0  0  0
 17 38  1  0  0  0  0
 18 19  1  0  0  0  0
 18 20  1  0  0  0  0
 18 39  1  0  0  0  0
 19 40  1  0  0  0  0
 19 41  1  0  0  0  0
 20 42  1  0  0  0  0
 21 43  1  0  0  0  0
M  END
> <s_m_source_file>
AV-unprocessed.smi

> <i_m_source_file_index>
2706

> <i_lp_mmshare_version>
43012

> <i_f3d_flags>
0

> <s_epik_input>
W0NIM11OKFtDSDNdKWMxW2NIXVtjSF1bY0hdYyhuMSlbTkhdQyg9TylbTkhdW0NASF0yW0NAQEhdM1tDQEBIXShbQ0gyXTQpW0NIMl1bQ0gyXVtDQEBIXTRbQ0BIXTIz

> <s_epik_cmdline>
J2VwaWtfcHl0aG9uJywgJy1waCcsICc3LjAnLCAnLXRuJywgJzgnLCAnLW1hJywgJzIwMCcsICctbWV0YWxfYmluZGluZycsICctaW1hZScsICc8aW5maWxlLm1hZT4nLCAnLW9tYWUnLCAnPG91dGZpbGUubWFlPic=

> <r_lp_tautomer_probability>
0.999994

> <r_epik_Ionization_Penalty>
2.07242

> <r_epik_Ionization_Penalty_Charging>
2.07242

> <r_epik_Ionization_Penalty_Neutral>
9.73808e-07

> <r_epik_State_Penalty>
3.96009

> <r_epik_Charging_Adjusted_Penalty>
6.03251

> <i_epik_Tot_Q>
0

> <i_epik_Tot_abs_Q>
0

> <r_epik_Metal_State_Penalty>
3.98849

> <b_epik_Metal_Only>
1

> <s_lp_Force_Field>
OPLS_2005

> <r_lp_Energy>
93.8849

> <b_lp_Chiralities_Consistent>
1

> <s_lp_Variant>
AV-unprocessed.smi:2706-11

> <Gold.Version>
5.8.1

> <Gold.Id.Protein>
6NUR|6NUR_protein|mol2

> <Gold.PLP.Fitness>
46.2716

> <Gold.PLP.PLP>
-41.2055

> <Gold.PLP.part.hbond>
-2.0000

> <Gold.PLP.part.metal>
0.0000

> <Gold.PLP.part.buried>
-5.7043

> <Gold.PLP.part.nonpolar>
-34.0413

> <Gold.PLP.part.repulsive>
0.1886

> <Gold.PLP.ligand.clash>
0.0000

> <Gold.PLP.ligand.torsion>
0.2687

> <Gold.PLP.Chemscore.Hbond>
1.8480

> <Gold.PLP.Chemscore.CHOScore>
0.0000

> <Gold.PLP.Chemscore.Metal>
0.0000

> <Gold.Chemscore.Hbonds>
donor molecule, donor type, donor heavy atom, donor atom, acceptor molecule, acceptor atom, score
      P1  H  7989  7998       L1    11  0.94
      P1  H  7997  8008       L1     9  0.73

> <Gold.PLP.Chemscore.Internal.Correction>
0.0596

> <Gold.Rescore>
     Score         DG    S(hbond)    S(metal)    S(lipo)     H(rot)  DE(clash)    DE(int)     intcor
     14.10     -15.83       0.86        0.00      85.82       1.00       0.01       1.72       ----

> <Gold.Chemscore.Fitness>
14.1016

> <Gold.Chemscore.DG>
-15.8291

> <Gold.Chemscore.ZeroCoef>
-5.4800

> <Gold.Chemscore.Hbond>
0.8589

> <Gold.Chemscore.Metal>
0.0000

> <Gold.Chemscore.Lipo>
85.8150

> <Gold.Chemscore.Internal_Hbond>
0.0000

> <Gold.Chemscore.DEClash>
0.0057

> <Gold.Chemscore.DEInternal>
1.7218

> <Gold.Chemscore.Rot>
1.0000

> <Gold.Chemscore.Internal.Correction>
   9.000000E+99

> <Gold.Chemscore.Hbonds>
donor molecule, donor type, donor heavy atom, donor atom, acceptor molecule, acceptor atom, score
      P1  H  7989  7998       L1    11  0.91
      P1  H  7997  8008       L1     9  0.07

> <Gold.Chemscore.Hbond.Weighted>
-2.8687

> <Gold.Chemscore.Metal.Weighted>
-0.0000

> <Gold.Chemscore.Lipo.Weighted>
-10.0404

> <Gold.Chemscore.Internal_Hbond.Weighted>
0.0000

> <Gold.Chemscore.DEClash.Weighted>
0.0057

> <Gold.Chemscore.DEInternal.Weighted>
1.7218

> <Gold.Chemscore.Rot.Weighted>
2.5600

> <Gold.Chemscore.Internal.Correction.Weighted>
   9.000000E+99

> <Gold.Protein.RotatedTorsions>
[ 6907 6896 6895 6894 ] final  128.67 input  -60.11 | X-H torsion
[ 7974 7965 7964 7962 ] final   12.26 input  175.53 | X-H torsion
[ 8008 7997 7996 7995 ] final  -65.76 input   59.86 | X-H torsion
[ 10167 10162 10161 10158 ] final -158.96 input  -65.29 | X-H torsion
[ 10718 10713 10712 10709 ] final  -26.36 input   66.30 | X-H torsion
[ 10763 10752 10751 10750 ] final  -20.43 input  -60.55 | X-H torsion
[ 11005 11000 10999 10996 ] final  111.53 input  -57.11 | X-H torsion

> <Gold.Protein.ActiveResidues>
 VAL166  LYS551  ARG553  GLY616  TRP617  ASP618  TYR619  PRO620  LYS621  CYS622 
 ASP623  PHE694  ASN695  SER759  ASP760  ASP761  ALA762  ILE779  LEU786  VAL792 
 PHE793  MET794  SER795  GLU796  ALA797  LYS798  CYS799  TRP800  GLU811  SER814 

> <Gold.Protein.RotatedAtoms>
  152.3697  133.6403  159.6077 H   0  0  0  0  0  0  0  0  0  0  0  0  # atno 6907 bound_to 6896
  150.7660  133.9290  159.3430 H   0  0  0  0  0  0  0  0  0  0  0  0  # atno 6908 bound_to 6896
  151.7115  135.0913  160.0319 H   0  0  0  0  0  0  0  0  0  0  0  0  # atno 6909 bound_to 6896
  146.2355  139.9362  142.8489 H   0  0  0  0  0  0  0  0  0  0  0  0  # atno 7974 bound_to 7965
  154.4691  140.0926  156.7099 H   0  0  0  0  0  0  0  0  0  0  0  0  # atno 8008 bound_to 7997
  155.4773  140.3466  155.4316 H   0  0  0  0  0  0  0  0  0  0  0  0  # atno 8009 bound_to 7997
  156.1009  140.1422  156.9457 H   0  0  0  0  0  0  0  0  0  0  0  0  # atno 8010 bound_to 7997
  139.6652  143.9842  152.2250 H   0  0  0  0  0  0  0  0  0  0  0  0  # atno 10167 bound_to 10162
  156.4522  130.4486  149.6982 H   0  0  0  0  0  0  0  0  0  0  0  0  # atno 10718 bound_to 10713
  153.6202  135.6993  153.5313 H   0  0  0  0  0  0  0  0  0  0  0  0  # atno 10763 bound_to 10752
  153.2943  135.4147  155.1195 H   0  0  0  0  0  0  0  0  0  0  0  0  # atno 10764 bound_to 10752
  154.8545  135.3633  154.5743 H   0  0  0  0  0  0  0  0  0  0  0  0  # atno 10765 bound_to 10752
  139.8906  134.9510  156.6447 H   0  0  0  0  0  0  0  0  0  0  0  0  # atno 11005 bound_to 11000
  145.1996  140.9848  143.4163 LP  0  0  0  0  0  0  0  0  0  0  0  0  # atno 17320 bound_to 7965
  144.9785  139.3807  143.6274 LP  0  0  0  0  0  0  0  0  0  0  0  0  # atno 17321 bound_to 7965
  139.9592  144.6569  150.8096 LP  0  0  0  0  0  0  0  0  0  0  0  0  # atno 17342 bound_to 10162
  140.7596  143.3133  151.2793 LP  0  0  0  0  0  0  0  0  0  0  0  0  # atno 17343 bound_to 10162
  156.3804  130.7576  151.2568 LP  0  0  0  0  0  0  0  0  0  0  0  0  # atno 17370 bound_to 10713
  157.7502  131.0297  150.4106 LP  0  0  0  0  0  0  0  0  0  0  0  0  # atno 17371 bound_to 10713
  140.7567  133.8852  155.8387 LP  0  0  0  0  0  0  0  0  0  0  0  0  # atno 17394 bound_to 11000
  140.9956  134.1219  157.4366 LP  0  0  0  0  0  0  0  0  0  0  0  0  # atno 17395 bound_to 11000

$$$$
