AV-unprocessed.smi:2451|AV-procd|sdf|9672|dock9
  -GOLD-   2272013313D 1   1.00000     0.00000
 Structure written by MMmdl.
 38 39  0  0  0  0  0  0  0  0  1 V2000
  152.4323  143.1847  161.5428 C   0  0  0  0  0  0  0  0  0  0  0  0
  153.2942  143.0384  160.2715 C   0  0  1  0  0  0  0  0  0  0  0  0
  154.0063  141.6716  160.2264 C   0  0  0  0  0  0  0  0  0  0  0  0
  153.0332  140.5212  159.9255 C   0  0  0  0  0  0  0  0  0  0  0  0
  152.2782  140.7690  158.6127 C   0  0  0  0  0  0  0  0  0  0  0  0
  151.5591  142.1316  158.6095 C   0  0  2  0  0  0  0  0  0  0  0  0
  150.9599  142.3404  157.2878 N   0  0  0  0  0  0  0  0  0  0  0  0
  149.8244  141.1838  156.6993 S   0  0  0  0  0  0  0  0  0  0  0  0
  150.4928  139.8737  156.6876 O   0  0  0  0  0  0  0  0  0  0  0  0
  148.5740  141.3637  157.4537 O   0  0  0  0  0  0  0  0  0  0  0  0
  149.5498  141.7417  154.9654 C   0  0  0  0  0  0  0  0  0  0  0  0
  148.5607  140.8324  154.2945 C   0  0  0  0  0  0  0  0  0  0  0  0
  147.3222  141.1718  153.6826 C   0  0  0  0  0  0  0  0  0  0  0  0
  146.8463  139.9717  153.2393 C   0  0  0  0  0  0  0  0  0  0  0  0
  147.7147  138.9746  153.5444 O   0  0  0  0  0  0  0  0  0  0  0  0
  148.8072  139.5342  154.2168 N   0  0  0  0  0  0  0  0  0  0  0  0
  152.5249  143.2958  158.9471 C   0  0  1  0  0  0  0  0  0  0  0  0
  151.8222  144.6681  158.9429 C   0  0  0  0  0  0  0  0  0  0  0  0
  151.5718  142.5164  161.5363 H   0  0  0  0  0  0  0  0  0  0  0  0
  152.0596  144.2019  161.6604 H   0  0  0  0  0  0  0  0  0  0  0  0
  153.0157  142.9580  162.4355 H   0  0  0  0  0  0  0  0  0  0  0  0
  154.0749  143.7967  160.3458 H   0  0  0  0  0  0  0  0  0  0  0  0
  154.7787  141.6943  159.4564 H   0  0  0  0  0  0  0  0  0  0  0  0
  154.5255  141.4847  161.1672 H   0  0  0  0  0  0  0  0  0  0  0  0
  153.5819  139.5810  159.8632 H   0  0  0  0  0  0  0  0  0  0  0  0
  152.3231  140.4053  160.7446 H   0  0  0  0  0  0  0  0  0  0  0  0
  152.9861  140.7250  157.7835 H   0  0  0  0  0  0  0  0  0  0  0  0
  151.5594  139.9657  158.4455 H   0  0  0  0  0  0  0  0  0  0  0  0
  150.7640  142.1056  159.3556 H   0  0  0  0  0  0  0  0  0  0  0  0
  151.6707  142.5531  156.5884 H   0  0  0  0  0  0  0  0  0  0  0  0
  149.1796  142.7664  154.9902 H   0  0  0  0  0  0  0  0  0  0  0  0
  150.5089  141.7458  154.4469 H   0  0  0  0  0  0  0  0  0  0  0  0
  146.8558  142.1413  153.5889 H   0  0  0  0  0  0  0  0  0  0  0  0
  145.9496  139.6768  152.7142 H   0  0  0  0  0  0  0  0  0  0  0  0
  153.2757  143.3301  158.1557 H   0  0  0  0  0  0  0  0  0  0  0  0
  150.9712  144.6868  159.6240 H   0  0  0  0  0  0  0  0  0  0  0  0
  151.4470  144.9202  157.9508 H   0  0  0  0  0  0  0  0  0  0  0  0
  152.5078  145.4622  159.2390 H   0  0  0  0  0  0  0  0  0  0  0  0
  1  2  1  0  0  0  0
  1 19  1  0  0  0  0
  1 20  1  0  0  0  0
  1 21  1  0  0  0  0
  2 17  1  0  0  0  0
  2  3  1  0  0  0  0
  2 22  1  0  0  0  0
  3  4  1  0  0  0  0
  3 23  1  0  0  0  0
  3 24  1  0  0  0  0
  4  5  1  0  0  0  0
  4 25  1  0  0  0  0
  4 26  1  0  0  0  0
  5  6  1  0  0  0  0
  5 27  1  0  0  0  0
  5 28  1  0  0  0  0
  6  7  1  0  0  0  0
  6 17  1  0  0  0  0
  6 29  1  0  0  0  0
  7  8  1  0  0  0  0
  7 30  1  0  0  0  0
  8  9  2  0  0  0  0
  8 10  2  0  0  0  0
  8 11  1  0  0  0  0
 11 12  1  0  0  0  0
 11 31  1  0  0  0  0
 11 32  1  0  0  0  0
 12 16  2  0  0  0  0
 12 13  1  0  0  0  0
 13 14  2  0  0  0  0
 13 33  1  0  0  0  0
 14 15  1  0  0  0  0
 14 34  1  0  0  0  0
 15 16  1  0  0  0  0
 17 18  1  0  0  0  0
 17 35  1  0  0  0  0
 18 36  1  0  0  0  0
 18 37  1  0  0  0  0
 18 38  1  0  0  0  0
M  END
> <s_m_source_file>
AV-unprocessed.smi

> <i_m_source_file_index>
2451

> <i_lp_mmshare_version>
43012

> <i_f3d_flags>
0

> <s_epik_input>
W0NIM11bQ0BASF0xW0NIMl1bQ0gyXVtDSDJdW0NASF0oW0NASF0xW0NIM10pW05IXVMoPU8pKD1PKVtDSDJdYzJbY0hdW2NIXW9uMg==

> <s_epik_cmdline>
J2VwaWtfcHl0aG9uJywgJy1waCcsICc3LjAnLCAnLXRuJywgJzgnLCAnLW1hJywgJzIwMCcsICctbWV0YWxfYmluZGluZycsICctaW1hZScsICc8aW5maWxlLm1hZT4nLCAnLW9tYWUnLCAnPG91dGZpbGUubWFlPic=

> <r_lp_tautomer_probability>
1

> <r_epik_Ionization_Penalty>
8.73668e-05

> <r_epik_Ionization_Penalty_Charging>
0

> <r_epik_Ionization_Penalty_Neutral>
8.73668e-05

> <r_epik_State_Penalty>
-0

> <r_epik_Charging_Adjusted_Penalty>
0

> <i_epik_Tot_Q>
0

> <i_epik_Tot_abs_Q>
0

> <r_epik_Metal_State_Penalty>
0.0716439

> <b_epik_Metal_Only>
0

> <s_lp_Force_Field>
OPLS_2005

> <r_lp_Energy>
8.38809

> <b_lp_Chiralities_Consistent>
1

> <s_lp_Variant>
AV-unprocessed.smi:2451-4

> <Gold.Version>
5.8.1

> <Gold.Id.Protein>
6NUR|6NUR_protein|mol2

> <Gold.PLP.Fitness>
41.2046

> <Gold.PLP.PLP>
-38.3697

> <Gold.PLP.part.hbond>
0.0000

> <Gold.PLP.part.metal>
0.0000

> <Gold.PLP.part.buried>
-4.8263

> <Gold.PLP.part.nonpolar>
-34.9704

> <Gold.PLP.part.repulsive>
0.4423

> <Gold.PLP.ligand.clash>
0.0000

> <Gold.PLP.ligand.torsion>
0.1510

> <Gold.PLP.Chemscore.Hbond>
0.0000

> <Gold.PLP.Chemscore.CHOScore>
1.0000

> <Gold.PLP.Chemscore.Metal>
0.0000

> <Gold.Chemscore.Hbonds>
donor molecule, donor type, donor heavy atom, donor atom, acceptor molecule, acceptor atom, score
      L1  C    14    34       P1 10175  1.00

> <Gold.PLP.Chemscore.Internal.Correction>
0.1368

> <Gold.Rescore>
     Score         DG    S(hbond)    S(metal)    S(lipo)     H(rot)  DE(clash)    DE(int)     intcor
     13.17     -14.78       0.00        0.00     115.80       1.66       0.04       1.57       ----

> <Gold.Chemscore.Fitness>
13.1701

> <Gold.Chemscore.DG>
-14.7817

> <Gold.Chemscore.ZeroCoef>
-5.4800

> <Gold.Chemscore.Hbond>
0.0000

> <Gold.Chemscore.Metal>
0.0000

> <Gold.Chemscore.Lipo>
115.7973

> <Gold.Chemscore.Internal_Hbond>
0.0000

> <Gold.Chemscore.DEClash>
0.0410

> <Gold.Chemscore.DEInternal>
1.5706

> <Gold.Chemscore.Rot>
1.6588

> <Gold.Chemscore.Internal.Correction>
   9.000000E+99

> <Gold.Chemscore.Hbond.Weighted>
-0.0000

> <Gold.Chemscore.Metal.Weighted>
-0.0000

> <Gold.Chemscore.Lipo.Weighted>
-13.5483

> <Gold.Chemscore.Internal_Hbond.Weighted>
0.0000

> <Gold.Chemscore.DEClash.Weighted>
0.0410

> <Gold.Chemscore.DEInternal.Weighted>
1.5706

> <Gold.Chemscore.Rot.Weighted>
4.2466

> <Gold.Chemscore.Internal.Correction.Weighted>
   9.000000E+99

> <Gold.Protein.RotatedTorsions>
[ 6907 6896 6895 6894 ] final   18.32 input  -60.11 | X-H torsion
[ 7974 7965 7964 7962 ] final   19.49 input  175.53 | X-H torsion
[ 8008 7997 7996 7995 ] final   89.93 input   59.86 | X-H torsion
[ 10167 10162 10161 10158 ] final  120.34 input  -65.29 | X-H torsion
[ 10718 10713 10712 10709 ] final -161.49 input   66.30 | X-H torsion
[ 10763 10752 10751 10750 ] final  -52.09 input  -60.55 | X-H torsion
[ 11005 11000 10999 10996 ] final  134.65 input  -57.11 | X-H torsion

> <Gold.Protein.ActiveResidues>
 VAL166  LYS551  ARG553  GLY616  TRP617  ASP618  TYR619  PRO620  LYS621  CYS622 
 ASP623  PHE694  ASN695  SER759  ASP760  ASP761  ALA762  ILE779  LEU786  VAL792 
 PHE793  MET794  SER795  GLU796  ALA797  LYS798  CYS799  TRP800  GLU811  SER814 

> <Gold.Protein.RotatedAtoms>
  151.8634  135.0516  160.0471 H   0  0  0  0  0  0  0  0  0  0  0  0  # atno 6907 bound_to 6896
  152.2645  133.5322  159.5410 H   0  0  0  0  0  0  0  0  0  0  0  0  # atno 6908 bound_to 6896
  150.7128  134.0700  159.3903 H   0  0  0  0  0  0  0  0  0  0  0  0  # atno 6909 bound_to 6896
  146.2147  139.8305  142.8661 H   0  0  0  0  0  0  0  0  0  0  0  0  # atno 7974 bound_to 7965
  156.0058  140.3355  155.6891 H   0  0  0  0  0  0  0  0  0  0  0  0  # atno 8008 bound_to 7997
  155.6226  140.0676  157.2691 H   0  0  0  0  0  0  0  0  0  0  0  0  # atno 8009 bound_to 7997
  154.4264  140.1774  156.1376 H   0  0  0  0  0  0  0  0  0  0  0  0  # atno 8010 bound_to 7997
  139.5988  144.7050  151.3112 H   0  0  0  0  0  0  0  0  0  0  0  0  # atno 10167 bound_to 10162
  156.5970  130.8794  151.2904 H   0  0  0  0  0  0  0  0  0  0  0  0  # atno 10718 bound_to 10713
  154.1371  135.6511  153.4934 H   0  0  0  0  0  0  0  0  0  0  0  0  # atno 10763 bound_to 10752
  153.0177  135.5306  154.6943 H   0  0  0  0  0  0  0  0  0  0  0  0  # atno 10764 bound_to 10752
  154.6194  135.2963  155.0314 H   0  0  0  0  0  0  0  0  0  0  0  0  # atno 10765 bound_to 10752
  139.9928  134.9508  156.9896 H   0  0  0  0  0  0  0  0  0  0  0  0  # atno 11005 bound_to 11000
  145.3002  141.0192  143.3613 LP  0  0  0  0  0  0  0  0  0  0  0  0  # atno 17320 bound_to 7965
  144.9012  139.4647  143.6632 LP  0  0  0  0  0  0  0  0  0  0  0  0  # atno 17321 bound_to 7965
  140.7233  143.7074  150.7796 LP  0  0  0  0  0  0  0  0  0  0  0  0  # atno 17342 bound_to 10162
  140.0646  143.5121  152.2610 LP  0  0  0  0  0  0  0  0  0  0  0  0  # atno 17343 bound_to 10162
  157.7289  130.9664  150.1764 LP  0  0  0  0  0  0  0  0  0  0  0  0  # atno 17370 bound_to 10713
  156.2501  130.3699  149.8241 LP  0  0  0  0  0  0  0  0  0  0  0  0  # atno 17371 bound_to 10713
  140.4875  134.1227  155.7227 LP  0  0  0  0  0  0  0  0  0  0  0  0  # atno 17394 bound_to 11000
  141.1580  133.8846  157.1925 LP  0  0  0  0  0  0  0  0  0  0  0  0  # atno 17395 bound_to 11000

$$$$
