AV-unprocessed.smi:821|AV-procd|sdf|3840|dock7
  -GOLD-   22720 1283D 1   1.00000     0.00000
 Structure written by MMmdl.
 45 46  0  0  0  0  0  0  0  0  2 V2000
  149.5903  137.8139  156.1934 C   0  0  0  0  0  0  0  0  0  0  0  0
  150.2834  139.1802  156.1056 C   0  0  2  0  0  0  0  0  0  0  0  0
  150.5802  139.5745  154.6399 C   0  0  0  0  0  0  0  0  0  0  0  0
  149.5351  140.4414  154.0349 N   0  3  0  0  0  0  0  0  0  0  0  0
  148.2217  139.7637  153.9233 C   0  0  0  0  0  0  0  0  0  0  0  0
  147.1956  140.6819  153.2356 C   0  0  0  0  0  0  0  0  0  0  0  0
  147.0999  141.9147  153.9388 O   0  0  0  0  0  0  0  0  0  0  0  0
  148.3410  142.6081  153.9754 C   0  0  0  0  0  0  0  0  0  0  0  0
  149.3817  141.7509  154.7134 C   0  0  0  0  0  0  0  0  0  0  0  0
  151.5157  139.1510  156.8937 N   0  0  0  0  0  0  0  0  0  0  0  0
  151.5937  139.1943  158.2331 C   0  0  0  0  0  0  0  0  0  0  0  0
  150.6093  139.1893  158.9722 O   0  0  0  0  0  0  0  0  0  0  0  0
  153.0060  139.2755  158.8271 C   0  0  0  0  0  0  0  0  0  0  0  0
  153.2255  140.5231  159.5800 N   0  0  0  0  0  0  0  0  0  0  0  0
  153.7856  140.4070  160.8645 C   0  0  0  0  0  0  0  0  0  0  0  0
  154.0136  141.4799  161.6339 C   0  0  0  0  0  0  0  0  0  0  0  0
  153.6666  142.7798  161.1135 C   0  0  0  0  0  0  0  0  0  0  0  0
  153.1225  142.9235  159.8831 C   0  0  0  0  0  0  0  0  0  0  0  0
  152.7493  144.2918  159.3170 C   0  0  0  0  0  0  0  0  0  0  0  0
  153.4409  144.5497  158.2063 F   0  0  0  0  0  0  0  0  0  0  0  0
  151.4507  144.3307  159.0162 F   0  0  0  0  0  0  0  0  0  0  0  0
  152.9964  145.2721  160.1869 F   0  0  0  0  0  0  0  0  0  0  0  0
  152.8812  141.7346  159.0408 C   0  0  0  0  0  0  0  0  0  0  0  0
  152.3872  141.8131  157.9140 O   0  0  0  0  0  0  0  0  0  0  0  0
  148.6559  137.8124  155.6315 H   0  0  0  0  0  0  0  0  0  0  0  0
  149.3519  137.5604  157.2270 H   0  0  0  0  0  0  0  0  0  0  0  0
  150.2204  137.0189  155.7928 H   0  0  0  0  0  0  0  0  0  0  0  0
  149.5916  139.9095  156.5290 H   0  0  0  0  0  0  0  0  0  0  0  0
  151.5280  140.1149  154.6228 H   0  0  0  0  0  0  0  0  0  0  0  0
  150.7260  138.6861  154.0235 H   0  0  0  0  0  0  0  0  0  0  0  0
  148.3267  138.8414  153.3507 H   0  0  0  0  0  0  0  0  0  0  0  0
  147.8682  139.4866  154.9178 H   0  0  0  0  0  0  0  0  0  0  0  0
  147.4686  140.8643  152.1963 H   0  0  0  0  0  0  0  0  0  0  0  0
  146.2151  140.2060  153.2243 H   0  0  0  0  0  0  0  0  0  0  0  0
  148.6759  142.8422  152.9635 H   0  0  0  0  0  0  0  0  0  0  0  0
  148.2003  143.5572  154.4924 H   0  0  0  0  0  0  0  0  0  0  0  0
  149.0723  141.5957  155.7481 H   0  0  0  0  0  0  0  0  0  0  0  0
  150.3315  142.2826  154.7433 H   0  0  0  0  0  0  0  0  0  0  0  0
  152.3823  139.1393  156.3749 H   0  0  0  0  0  0  0  0  0  0  0  0
  153.1580  138.3996  159.4589 H   0  0  0  0  0  0  0  0  0  0  0  0
  153.7519  139.1924  158.0339 H   0  0  0  0  0  0  0  0  0  0  0  0
  154.0108  139.3998  161.1839 H   0  0  0  0  0  0  0  0  0  0  0  0
  154.4422  141.3739  162.6197 H   0  0  0  0  0  0  0  0  0  0  0  0
  153.8479  143.6451  161.7333 H   0  0  0  0  0  0  0  0  0  0  0  0
  149.8347  140.6330  153.0890 H   0  0  0  0  0  0  0  0  0  0  0  0
  1  2  1  0  0  0  0
  1 25  1  0  0  0  0
  1 26  1  0  0  0  0
  1 27  1  0  0  0  0
  2  3  1  0  0  0  0
  2 10  1  0  0  0  0
  2 28  1  0  0  0  0
  3  4  1  0  0  0  0
  3 29  1  0  0  0  0
  3 30  1  0  0  0  0
  4  9  1  0  0  0  0
  4  5  1  0  0  0  0
  4 45  1  0  0  0  0
  5  6  1  0  0  0  0
  5 31  1  0  0  0  0
  5 32  1  0  0  0  0
  6  7  1  0  0  0  0
  6 33  1  0  0  0  0
  6 34  1  0  0  0  0
  7  8  1  0  0  0  0
  8  9  1  0  0  0  0
  8 35  1  0  0  0  0
  8 36  1  0  0  0  0
  9 37  1  0  0  0  0
  9 38  1  0  0  0  0
 10 11  1  0  0  0  0
 10 39  1  0  0  0  0
 11 12  2  0  0  0  0
 11 13  1  0  0  0  0
 13 14  1  0  0  0  0
 13 40  1  0  0  0  0
 13 41  1  0  0  0  0
 14 23  1  0  0  0  0
 14 15  1  0  0  0  0
 15 16  2  0  0  0  0
 15 42  1  0  0  0  0
 16 17  1  0  0  0  0
 16 43  1  0  0  0  0
 17 18  2  0  0  0  0
 17 44  1  0  0  0  0
 18 19  1  0  0  0  0
 18 23  1  0  0  0  0
 19 20  1  0  0  0  0
 19 21  1  0  0  0  0
 19 22  1  0  0  0  0
 23 24  2  0  0  0  0
M  CHG  1   4   1
M  END
> <s_m_source_file>
AV-unprocessed.smi

> <i_m_source_file_index>
821

> <i_lp_mmshare_version>
43012

> <i_f3d_flags>
0

> <s_epik_input>
W0NIMl0xW0NIMl1PW0NIMl1bQ0gyXU4xW0NIMl1bQ0BASF0oW0NIM10pW05IXUMoPU8pW0NIMl1uMltjSF1bY0hdW2NIXWMoQyhGKShGKUYpYzI9Tw==

> <s_epik_cmdline>
J2VwaWtfcHl0aG9uJywgJy1waCcsICc3LjAnLCAnLXRuJywgJzgnLCAnLW1hJywgJzIwMCcsICctbWV0YWxfYmluZGluZycsICctaW1hZScsICc8aW5maWxlLm1hZT4nLCAnLW9tYWUnLCAnPG91dGZpbGUubWFlPic=

> <r_lp_tautomer_probability>
1

> <r_epik_Ionization_Penalty>
0.656654

> <r_epik_Ionization_Penalty_Charging>
0.656653

> <r_epik_Ionization_Penalty_Neutral>
9.12373e-08

> <r_epik_State_Penalty>
0.675641

> <r_epik_Charging_Adjusted_Penalty>
1.33229

> <i_epik_Tot_Q>
1

> <i_epik_Tot_abs_Q>
1

> <r_epik_Metal_State_Penalty>
0.675695

> <b_epik_Metal_Only>
0

> <s_lp_Force_Field>
OPLS_2005

> <r_lp_Energy>
29.4747

> <b_lp_Chiralities_Consistent>
1

> <s_lp_Variant>
AV-unprocessed.smi:821-3

> <Gold.Version>
5.8.1

> <Gold.Id.Protein>
6NUR|6NUR_protein|mol2

> <Gold.PLP.Fitness>
54.9748

> <Gold.PLP.PLP>
-53.5458

> <Gold.PLP.part.hbond>
-1.0000

> <Gold.PLP.part.metal>
0.0000

> <Gold.PLP.part.buried>
-4.4440

> <Gold.PLP.part.nonpolar>
-47.0895

> <Gold.PLP.part.repulsive>
0.3868

> <Gold.PLP.ligand.clash>
0.2874

> <Gold.PLP.ligand.torsion>
0.8548

> <Gold.PLP.Chemscore.Hbond>
1.0000

> <Gold.PLP.Chemscore.CHOScore>
0.0000

> <Gold.PLP.Chemscore.Metal>
0.0000

> <Gold.Chemscore.Hbonds>
donor molecule, donor type, donor heavy atom, donor atom, acceptor molecule, acceptor atom, score
      L1  H     4    45       P1  7957  0.88

> <Gold.PLP.Chemscore.Internal.Correction>
0.4261

> <Gold.Rescore>
     Score         DG    S(hbond)    S(metal)    S(lipo)     H(rot)  DE(clash)    DE(int)     intcor
     10.42     -14.76       1.00        0.00      98.26       2.17       0.07       4.26       ----

> <Gold.Chemscore.Fitness>
10.4239

> <Gold.Chemscore.DG>
-14.7574

> <Gold.Chemscore.ZeroCoef>
-5.4800

> <Gold.Chemscore.Hbond>
1.0000

> <Gold.Chemscore.Metal>
0.0000

> <Gold.Chemscore.Lipo>
98.2613

> <Gold.Chemscore.Internal_Hbond>
0.0000

> <Gold.Chemscore.DEClash>
0.0749

> <Gold.Chemscore.DEInternal>
4.2587

> <Gold.Chemscore.Rot>
2.1716

> <Gold.Chemscore.Internal.Correction>
   9.000000E+99

> <Gold.Chemscore.Hbonds>
donor molecule, donor type, donor heavy atom, donor atom, acceptor molecule, acceptor atom, score
      L1  H     4    45       P1  7957  0.81

> <Gold.Chemscore.Hbond.Weighted>
-3.3400

> <Gold.Chemscore.Metal.Weighted>
-0.0000

> <Gold.Chemscore.Lipo.Weighted>
-11.4966

> <Gold.Chemscore.Internal_Hbond.Weighted>
0.0000

> <Gold.Chemscore.DEClash.Weighted>
0.0749

> <Gold.Chemscore.DEInternal.Weighted>
4.2587

> <Gold.Chemscore.Rot.Weighted>
5.5592

> <Gold.Chemscore.Internal.Correction.Weighted>
   9.000000E+99

> <Gold.Protein.RotatedTorsions>
[ 6907 6896 6895 6894 ] final   15.99 input  -60.11 | X-H torsion
[ 7974 7965 7964 7962 ] final   17.01 input  175.53 | X-H torsion
[ 8008 7997 7996 7995 ] final -160.67 input   59.86 | X-H torsion
[ 10167 10162 10161 10158 ] final   69.18 input  -65.29 | X-H torsion
[ 10718 10713 10712 10709 ] final -148.84 input   66.30 | X-H torsion
[ 10763 10752 10751 10750 ] final   95.77 input  -60.55 | X-H torsion
[ 11005 11000 10999 10996 ] final   22.07 input  -57.11 | X-H torsion

> <Gold.Protein.ActiveResidues>
 VAL166  LYS551  ARG553  GLY616  TRP617  ASP618  TYR619  PRO620  LYS621  CYS622 
 ASP623  PHE694  ASN695  SER759  ASP760  ASP761  ALA762  ILE779  LEU786  VAL792 
 PHE793  MET794  SER795  GLU796  ALA797  LYS798  CYS799  TRP800  GLU811  SER814 

> <Gold.Protein.RotatedAtoms>
  151.8268  135.0634  160.0431 H   0  0  0  0  0  0  0  0  0  0  0  0  # atno 6907 bound_to 6896
  152.2910  133.5557  159.5566 H   0  0  0  0  0  0  0  0  0  0  0  0  # atno 6908 bound_to 6896
  150.7230  134.0345  159.3786 H   0  0  0  0  0  0  0  0  0  0  0  0  # atno 6909 bound_to 6896
  146.2232  139.8664  142.8595 H   0  0  0  0  0  0  0  0  0  0  0  0  # atno 7974 bound_to 7965
  155.7809  140.0865  157.2059 H   0  0  0  0  0  0  0  0  0  0  0  0  # atno 8008 bound_to 7997
  154.3990  140.1508  156.3109 H   0  0  0  0  0  0  0  0  0  0  0  0  # atno 8009 bound_to 7997
  155.8654  140.3428  155.5787 H   0  0  0  0  0  0  0  0  0  0  0  0  # atno 8010 bound_to 7997
  140.0706  144.5156  150.7230 H   0  0  0  0  0  0  0  0  0  0  0  0  # atno 10167 bound_to 10162
  156.4254  130.8049  151.2274 H   0  0  0  0  0  0  0  0  0  0  0  0  # atno 10718 bound_to 10713
  153.2571  135.4242  155.0856 H   0  0  0  0  0  0  0  0  0  0  0  0  # atno 10763 bound_to 10752
  154.8405  135.3440  154.6431 H   0  0  0  0  0  0  0  0  0  0  0  0  # atno 10764 bound_to 10752
  153.6851  135.7036  153.5163 H   0  0  0  0  0  0  0  0  0  0  0  0  # atno 10765 bound_to 10752
  140.3846  134.1884  155.7663 H   0  0  0  0  0  0  0  0  0  0  0  0  # atno 11005 bound_to 11000
  145.2652  141.0090  143.3803 LP  0  0  0  0  0  0  0  0  0  0  0  0  # atno 17320 bound_to 7965
  144.9267  139.4347  143.6515 LP  0  0  0  0  0  0  0  0  0  0  0  0  # atno 17321 bound_to 7965
  140.7127  143.2518  151.4530 LP  0  0  0  0  0  0  0  0  0  0  0  0  # atno 17342 bound_to 10162
  139.5838  144.1649  152.2003 LP  0  0  0  0  0  0  0  0  0  0  0  0  # atno 17343 bound_to 10162
  157.7508  131.0215  150.3752 LP  0  0  0  0  0  0  0  0  0  0  0  0  # atno 17370 bound_to 10713
  156.4078  130.3928  149.6913 LP  0  0  0  0  0  0  0  0  0  0  0  0  # atno 17371 bound_to 10713
  141.1912  133.8201  157.0889 LP  0  0  0  0  0  0  0  0  0  0  0  0  # atno 17394 bound_to 11000
  140.0452  134.9834  157.1036 LP  0  0  0  0  0  0  0  0  0  0  0  0  # atno 17395 bound_to 11000

$$$$
