AV-unprocessed.smi:1976|AV-procd|sdf|7987|dock5
  -GOLD-   2272010163D 1   1.00000     0.00000
 Structure written by MMmdl.
 45 47  0  0  0  0  0  0  0  0  2 V2000
  149.8233  135.8211  158.5864 O   0  0  0  0  0  0  0  0  0  0  0  0
  148.9559  136.6906  158.6787 C   0  0  0  0  0  0  0  0  0  0  0  0
  148.2715  136.9863  160.0207 C   0  0  0  0  0  0  0  0  0  0  0  0
  147.9534  135.7742  160.7941 N   0  0  0  0  0  0  0  0  0  0  0  0
  147.8943  134.5577  160.0861 C   0  0  0  0  0  0  0  0  0  0  0  0
  147.6011  133.3816  160.6730 C   0  0  0  0  0  0  0  0  0  0  0  0
  147.5945  132.0774  159.8909 C   0  0  0  0  0  0  0  0  0  0  0  0
  147.3208  131.0423  160.6853 F   0  0  0  0  0  0  0  0  0  0  0  0
  146.6657  132.1260  158.9371 F   0  0  0  0  0  0  0  0  0  0  0  0
  148.7747  131.8586  159.3099 F   0  0  0  0  0  0  0  0  0  0  0  0
  147.3769  133.4134  162.1048 C   0  0  0  0  0  0  0  0  0  0  0  0
  147.4338  134.5675  162.7979 C   0  0  0  0  0  0  0  0  0  0  0  0
  147.7276  135.8429  162.1404 C   0  0  0  0  0  0  0  0  0  0  0  0
  147.7694  136.9062  162.7597 O   0  0  0  0  0  0  0  0  0  0  0  0
  148.5624  137.4447  157.6420 N   0  0  0  0  0  0  0  0  0  0  0  0
  149.0841  137.3360  156.2823 C   0  0  2  0  0  0  0  0  0  0  0  0
  150.3240  138.1857  156.0181 C   0  0  0  0  0  0  0  0  0  0  0  0
  150.3523  138.2925  154.4910 C   0  0  0  0  0  0  0  0  0  0  0  0
  148.9518  138.1482  154.0244 N   0  3  2  0  0  0  0  0  0  0  0  0
  148.4731  139.2847  153.1929 C   0  0  0  0  0  0  0  0  0  0  0  0
  146.9427  139.2654  153.0670 C   0  0  0  0  0  0  0  0  0  0  0  0
  146.2619  139.4226  154.4399 C   0  0  0  0  0  0  0  0  0  0  0  0
  147.1714  138.9834  155.6039 C   0  0  0  0  0  0  0  0  0  0  0  0
  148.0984  137.8105  155.1999 C   0  0  2  0  0  0  0  0  0  0  0  0
  148.9217  137.6482  160.5943 H   0  0  0  0  0  0  0  0  0  0  0  0
  147.3630  137.5651  159.8429 H   0  0  0  0  0  0  0  0  0  0  0  0
  148.0994  134.6420  159.0287 H   0  0  0  0  0  0  0  0  0  0  0  0
  147.1545  132.4972  162.6316 H   0  0  0  0  0  0  0  0  0  0  0  0
  147.2582  134.5536  163.8635 H   0  0  0  0  0  0  0  0  0  0  0  0
  147.8479  138.1395  157.8057 H   0  0  0  0  0  0  0  0  0  0  0  0
  149.3315  136.2912  156.0820 H   0  0  0  0  0  0  0  0  0  0  0  0
  150.2032  139.1774  156.4566 H   0  0  0  0  0  0  0  0  0  0  0  0
  151.2361  137.7475  156.4247 H   0  0  0  0  0  0  0  0  0  0  0  0
  150.8227  139.2203  154.1624 H   0  0  0  0  0  0  0  0  0  0  0  0
  150.9309  137.4693  154.0705 H   0  0  0  0  0  0  0  0  0  0  0  0
  148.7845  140.2327  153.6351 H   0  0  0  0  0  0  0  0  0  0  0  0
  148.9406  139.2269  152.2094 H   0  0  0  0  0  0  0  0  0  0  0  0
  146.6039  140.0506  152.3905 H   0  0  0  0  0  0  0  0  0  0  0  0
  146.6373  138.3210  152.6140 H   0  0  0  0  0  0  0  0  0  0  0  0
  145.9666  140.4611  154.5949 H   0  0  0  0  0  0  0  0  0  0  0  0
  145.3390  138.8416  154.4464 H   0  0  0  0  0  0  0  0  0  0  0  0
  147.7812  139.8294  155.9243 H   0  0  0  0  0  0  0  0  0  0  0  0
  146.5486  138.7179  156.4586 H   0  0  0  0  0  0  0  0  0  0  0  0
  147.4589  136.9724  154.9187 H   0  0  0  0  0  0  0  0  0  0  0  0
  148.9360  137.3315  153.4302 H   0  0  0  0  0  0  0  0  0  0  0  0
  1  2  2  0  0  0  0
  2  3  1  0  0  0  0
  2 15  1  0  0  0  0
  3  4  1  0  0  0  0
  3 25  1  0  0  0  0
  3 26  1  0  0  0  0
  4 13  1  0  0  0  0
  4  5  1  0  0  0  0
  5  6  2  0  0  0  0
  5 27  1  0  0  0  0
  6  7  1  0  0  0  0
  6 11  1  0  0  0  0
  7  8  1  0  0  0  0
  7  9  1  0  0  0  0
  7 10  1  0  0  0  0
 11 12  2  0  0  0  0
 11 28  1  0  0  0  0
 12 13  1  0  0  0  0
 12 29  1  0  0  0  0
 13 14  2  0  0  0  0
 15 16  1  0  0  0  0
 15 30  1  0  0  0  0
 16 24  1  0  0  0  0
 16 17  1  0  0  0  0
 16 31  1  0  0  0  0
 17 18  1  0  0  0  0
 17 32  1  0  0  0  0
 17 33  1  0  0  0  0
 18 19  1  0  0  0  0
 18 34  1  0  0  0  0
 18 35  1  0  0  0  0
 19 24  1  0  0  0  0
 19 20  1  0  0  0  0
 19 45  1  0  0  0  0
 20 21  1  0  0  0  0
 20 36  1  0  0  0  0
 20 37  1  0  0  0  0
 21 22  1  0  0  0  0
 21 38  1  0  0  0  0
 21 39  1  0  0  0  0
 22 23  1  0  0  0  0
 22 40  1  0  0  0  0
 22 41  1  0  0  0  0
 23 24  1  0  0  0  0
 23 42  1  0  0  0  0
 23 43  1  0  0  0  0
 24 44  1  0  0  0  0
M  CHG  1  19   1
M  END
> <s_m_source_file>
AV-unprocessed.smi

> <i_m_source_file_index>
1976

> <i_lp_mmshare_version>
43012

> <i_f3d_flags>
0

> <s_epik_input>
W0NIMl0xW0NIMl1bQ0gyXVtDSDJdW0NASF0oTjEyKVtDQEBIXShbQ0gyXVtDSDJdMilbTkhdQyg9TylbQ0gyXW4zW2NIXWMoQyhGKShGKUYpW2NIXVtjSF1jMz1P

> <s_epik_cmdline>
J2VwaWtfcHl0aG9uJywgJy1waCcsICc3LjAnLCAnLXRuJywgJzgnLCAnLW1hJywgJzIwMCcsICctbWV0YWxfYmluZGluZycsICctaW1hZScsICc8aW5maWxlLm1hZT4nLCAnLW9tYWUnLCAnPG91dGZpbGUubWFlPic=

> <r_lp_tautomer_probability>
1

> <r_epik_Ionization_Penalty>
0.00171506

> <r_epik_Ionization_Penalty_Charging>
0.00171498

> <r_epik_Ionization_Penalty_Neutral>
7.81737e-08

> <r_epik_State_Penalty>
0.00115937

> <r_epik_Charging_Adjusted_Penalty>
0.00287436

> <i_epik_Tot_Q>
1

> <i_epik_Tot_abs_Q>
1

> <r_epik_Metal_State_Penalty>
-0

> <b_epik_Metal_Only>
0

> <s_lp_Force_Field>
OPLS_2005

> <r_lp_Energy>
52.9045

> <b_lp_Chiralities_Consistent>
1

> <s_lp_Variant>
AV-unprocessed.smi:1976-5

> <Gold.Version>
5.8.1

> <Gold.Id.Protein>
6NUR|6NUR_protein|mol2

> <Gold.PLP.Fitness>
40.9209

> <Gold.PLP.PLP>
-31.0466

> <Gold.PLP.part.hbond>
-3.0000

> <Gold.PLP.part.metal>
0.0000

> <Gold.PLP.part.buried>
0.4624

> <Gold.PLP.part.nonpolar>
-29.1717

> <Gold.PLP.part.repulsive>
0.0539

> <Gold.PLP.ligand.clash>
0.0000

> <Gold.PLP.ligand.torsion>
0.9301

> <Gold.PLP.Chemscore.Hbond>
3.8960

> <Gold.PLP.Chemscore.CHOScore>
0.0000

> <Gold.PLP.Chemscore.Metal>
0.0000

> <Gold.Chemscore.Hbonds>
donor molecule, donor type, donor heavy atom, donor atom, acceptor molecule, acceptor atom, score
      L1  H    19    45       P1  7948  2.00
      P1  H  6896  6909       L1     1  1.00
      P1  H  6931  6943       L1    14  0.90

> <Gold.PLP.Chemscore.Internal.Correction>
0.0465

> <Gold.Rescore>
     Score         DG    S(hbond)    S(metal)    S(lipo)     H(rot)  DE(clash)    DE(int)     intcor
     14.98     -19.57       2.91        0.00      72.13       1.58       2.17       2.42       ----

> <Gold.Chemscore.Fitness>
14.9808

> <Gold.Chemscore.DG>
-19.5719

> <Gold.Chemscore.ZeroCoef>
-5.4800

> <Gold.Chemscore.Hbond>
2.9059

> <Gold.Chemscore.Metal>
0.0000

> <Gold.Chemscore.Lipo>
72.1258

> <Gold.Chemscore.Internal_Hbond>
0.0000

> <Gold.Chemscore.DEClash>
2.1743

> <Gold.Chemscore.DEInternal>
2.4168

> <Gold.Chemscore.Rot>
1.5830

> <Gold.Chemscore.Internal.Correction>
   9.000000E+99

> <Gold.Chemscore.Hbonds>
donor molecule, donor type, donor heavy atom, donor atom, acceptor molecule, acceptor atom, score
      L1  H    19    45       P1  7948  0.99
      P1  H  6896  6909       L1     1  0.97
      P1  H  6931  6943       L1    14  0.72

> <Gold.Chemscore.Hbond.Weighted>
-9.7056

> <Gold.Chemscore.Metal.Weighted>
-0.0000

> <Gold.Chemscore.Lipo.Weighted>
-8.4387

> <Gold.Chemscore.Internal_Hbond.Weighted>
0.0000

> <Gold.Chemscore.DEClash.Weighted>
2.1743

> <Gold.Chemscore.DEInternal.Weighted>
2.4168

> <Gold.Chemscore.Rot.Weighted>
4.0524

> <Gold.Chemscore.Internal.Correction.Weighted>
   9.000000E+99

> <Gold.Protein.RotatedTorsions>
[ 6907 6896 6895 6894 ] final   47.23 input  -60.11 | X-H torsion
[ 7974 7965 7964 7962 ] final  -49.08 input  175.53 | X-H torsion
[ 8008 7997 7996 7995 ] final  101.36 input   59.86 | X-H torsion
[ 10167 10162 10161 10158 ] final  -55.67 input  -65.29 | X-H torsion
[ 10718 10713 10712 10709 ] final  -98.81 input   66.30 | X-H torsion
[ 10763 10752 10751 10750 ] final  -16.02 input  -60.55 | X-H torsion
[ 11005 11000 10999 10996 ] final  -11.15 input  -57.11 | X-H torsion

> <Gold.Protein.ActiveResidues>
 VAL166  LYS551  ARG553  GLY616  TRP617  ASP618  TYR619  PRO620  LYS621  CYS622 
 ASP623  PHE694  ASN695  SER759  ASP760  ASP761  ALA762  ILE779  LEU786  VAL792 
 PHE793  MET794  SER795  GLU796  ALA797  LYS798  CYS799  TRP800  GLU811  SER814 

> <Gold.Protein.RotatedAtoms>
  152.2656  134.7987  160.0422 H   0  0  0  0  0  0  0  0  0  0  0  0  # atno 6907 bound_to 6896
  151.8618  133.3453  159.3714 H   0  0  0  0  0  0  0  0  0  0  0  0  # atno 6908 bound_to 6896
  150.7133  134.5126  159.5659 H   0  0  0  0  0  0  0  0  0  0  0  0  # atno 6909 bound_to 6896
  145.9444  140.7632  142.9536 H   0  0  0  0  0  0  0  0  0  0  0  0  # atno 7974 bound_to 7965
  156.1291  140.3199  155.8322 H   0  0  0  0  0  0  0  0  0  0  0  0  # atno 8008 bound_to 7997
  155.4364  140.0522  157.3031 H   0  0  0  0  0  0  0  0  0  0  0  0  # atno 8009 bound_to 7997
  154.4886  140.2083  155.9613 H   0  0  0  0  0  0  0  0  0  0  0  0  # atno 8010 bound_to 7997
  140.6361  143.2483  151.5114 H   0  0  0  0  0  0  0  0  0  0  0  0  # atno 10167 bound_to 10162
  156.0117  130.5255  150.6578 H   0  0  0  0  0  0  0  0  0  0  0  0  # atno 10718 bound_to 10713
  153.5522  135.7011  153.5586 H   0  0  0  0  0  0  0  0  0  0  0  0  # atno 10763 bound_to 10752
  153.3505  135.3996  155.1642 H   0  0  0  0  0  0  0  0  0  0  0  0  # atno 10764 bound_to 10752
  154.8659  135.3764  154.5034 H   0  0  0  0  0  0  0  0  0  0  0  0  # atno 10765 bound_to 10752
  140.7523  133.8582  155.9055 H   0  0  0  0  0  0  0  0  0  0  0  0  # atno 11005 bound_to 11000
  144.6784  140.2332  143.7353 LP  0  0  0  0  0  0  0  0  0  0  0  0  # atno 17320 bound_to 7965
  145.8257  139.2063  143.1912 LP  0  0  0  0  0  0  0  0  0  0  0  0  # atno 17321 bound_to 7965
  139.5572  144.2247  152.1631 LP  0  0  0  0  0  0  0  0  0  0  0  0  # atno 17342 bound_to 10162
  140.1504  144.5120  150.6691 LP  0  0  0  0  0  0  0  0  0  0  0  0  # atno 17343 bound_to 10162
  157.4327  131.0851  151.1023 LP  0  0  0  0  0  0  0  0  0  0  0  0  # atno 17370 bound_to 10713
  157.1591  130.6217  149.5605 LP  0  0  0  0  0  0  0  0  0  0  0  0  # atno 17371 bound_to 10713
  140.9740  134.1494  157.4552 LP  0  0  0  0  0  0  0  0  0  0  0  0  # atno 17394 bound_to 11000
  139.8785  134.9988  156.5920 LP  0  0  0  0  0  0  0  0  0  0  0  0  # atno 17395 bound_to 11000

$$$$
