AV-unprocessed.smi:1433|AV-procd|sdf|5848|dock7
  -GOLD-   22720 5513D 1   1.00000     0.00000
 Structure written by MMmdl.
 45 46  0  0  0  0  0  0  0  0  2 V2000
  152.1038  139.5445  156.1295 C   0  0  0  0  0  0  0  0  0  0  0  0
  151.5730  139.0444  154.7740 C   0  0  1  0  0  0  0  0  0  0  0  0
  151.0009  137.6157  154.8240 C   0  0  0  0  0  0  0  0  0  0  0  0
  149.6902  137.5676  155.5274 N   0  3  2  0  0  0  0  0  0  0  0  0
  149.1732  136.1676  155.6783 C   0  0  1  0  0  0  0  0  0  0  0  0
  150.3444  135.1946  155.9508 C   0  0  0  0  0  0  0  0  0  0  0  0
  148.0796  136.0135  156.7736 C   0  0  0  0  0  0  0  0  0  0  0  0
  148.6390  135.9310  158.1186 N   0  0  0  0  0  0  0  0  0  0  0  0
  148.5963  136.9140  159.0313 C   0  0  0  0  0  0  0  0  0  0  0  0
  148.1341  138.0316  158.8035 O   0  0  0  0  0  0  0  0  0  0  0  0
  149.1341  136.5745  160.4210 C   0  0  0  0  0  0  0  0  0  0  0  0
  148.0427  136.3384  161.3494 N   0  0  0  0  0  0  0  0  0  0  0  0
  147.7057  135.1668  161.9951 C   0  0  0  0  0  0  0  0  0  0  0  0
  146.6186  135.4321  162.7776 C   0  0  0  0  0  0  0  0  0  0  0  0
  146.3600  136.8112  162.5412 C   0  0  0  0  0  0  0  0  0  0  0  0
  147.2155  137.3520  161.6886 N   0  0  0  0  0  0  0  0  0  0  0  0
  148.7562  138.5371  154.8937 C   0  0  0  0  0  0  0  0  0  0  0  0
  149.3594  139.9536  154.8628 C   0  0  2  0  0  0  0  0  0  0  0  0
  148.4550  140.9433  154.1196 C   0  0  0  0  0  0  0  0  0  0  0  0
  150.6174  139.9313  154.1988 O   0  0  0  0  0  0  0  0  0  0  0  0
  152.9291  138.9211  156.4741 H   0  0  0  0  0  0  0  0  0  0  0  0
  151.3407  139.5273  156.9072 H   0  0  0  0  0  0  0  0  0  0  0  0
  152.4762  140.5659  156.0476 H   0  0  0  0  0  0  0  0  0  0  0  0
  152.4219  139.0363  154.0895 H   0  0  0  0  0  0  0  0  0  0  0  0
  150.8682  137.2463  153.8058 H   0  0  0  0  0  0  0  0  0  0  0  0
  151.7334  136.9626  155.2950 H   0  0  0  0  0  0  0  0  0  0  0  0
  148.7141  135.8898  154.7281 H   0  0  0  0  0  0  0  0  0  0  0  0
  150.0060  134.1612  156.0250 H   0  0  0  0  0  0  0  0  0  0  0  0
  150.8504  135.4419  156.8846 H   0  0  0  0  0  0  0  0  0  0  0  0
  151.0917  135.2034  155.1596 H   0  0  0  0  0  0  0  0  0  0  0  0
  147.3958  136.8625  156.7450 H   0  0  0  0  0  0  0  0  0  0  0  0
  147.4785  135.1168  156.6171 H   0  0  0  0  0  0  0  0  0  0  0  0
  149.0395  135.0458  158.3959 H   0  0  0  0  0  0  0  0  0  0  0  0
  149.7740  135.6918  160.3754 H   0  0  0  0  0  0  0  0  0  0  0  0
  149.7451  137.3965  160.7968 H   0  0  0  0  0  0  0  0  0  0  0  0
  148.2628  134.2533  161.8471 H   0  0  0  0  0  0  0  0  0  0  0  0
  146.0884  134.7454  163.4208 H   0  0  0  0  0  0  0  0  0  0  0  0
  145.5825  137.4315  162.9621 H   0  0  0  0  0  0  0  0  0  0  0  0
  148.5122  138.2017  153.8842 H   0  0  0  0  0  0  0  0  0  0  0  0
  147.8242  138.6005  155.4542 H   0  0  0  0  0  0  0  0  0  0  0  0
  149.4882  140.3179  155.8823 H   0  0  0  0  0  0  0  0  0  0  0  0
  147.4738  141.0095  154.5904 H   0  0  0  0  0  0  0  0  0  0  0  0
  148.3085  140.6420  153.0819 H   0  0  0  0  0  0  0  0  0  0  0  0
  148.8900  141.9430  154.1175 H   0  0  0  0  0  0  0  0  0  0  0  0
  149.8457  137.9109  156.4645 H   0  0  0  0  0  0  0  0  0  0  0  0
  1  2  1  0  0  0  0
  1 21  1  0  0  0  0
  1 22  1  0  0  0  0
  1 23  1  0  0  0  0
  2 20  1  0  0  0  0
  2  3  1  0  0  0  0
  2 24  1  0  0  0  0
  3  4  1  0  0  0  0
  3 25  1  0  0  0  0
  3 26  1  0  0  0  0
  4  5  1  0  0  0  0
  4 17  1  0  0  0  0
  4 45  1  0  0  0  0
  5  6  1  0  0  0  0
  5  7  1  0  0  0  0
  5 27  1  0  0  0  0
  6 28  1  0  0  0  0
  6 29  1  0  0  0  0
  6 30  1  0  0  0  0
  7  8  1  0  0  0  0
  7 31  1  0  0  0  0
  7 32  1  0  0  0  0
  8  9  1  0  0  0  0
  8 33  1  0  0  0  0
  9 10  2  0  0  0  0
  9 11  1  0  0  0  0
 11 12  1  0  0  0  0
 11 34  1  0  0  0  0
 11 35  1  0  0  0  0
 12 16  1  0  0  0  0
 12 13  1  0  0  0  0
 13 14  2  0  0  0  0
 13 36  1  0  0  0  0
 14 15  1  0  0  0  0
 14 37  1  0  0  0  0
 15 16  2  0  0  0  0
 15 38  1  0  0  0  0
 17 18  1  0  0  0  0
 17 39  1  0  0  0  0
 17 40  1  0  0  0  0
 18 19  1  0  0  0  0
 18 20  1  0  0  0  0
 18 41  1  0  0  0  0
 19 42  1  0  0  0  0
 19 43  1  0  0  0  0
 19 44  1  0  0  0  0
M  CHG  1   4   1
M  END
> <s_m_source_file>
AV-unprocessed.smi

> <i_m_source_file_index>
1433

> <i_lp_mmshare_version>
43012

> <i_f3d_flags>
0

> <s_epik_input>
W0NIM11bQ0BASF0xW0NIMl1OKFtDSDJdW0NASF0oTzEpW0NIM10pW0NASF0oW0NIM10pW0NIMl1bTkhdQyg9TylbQ0gyXW4yW2NIXVtjSF1bY0hdbjI=

> <s_epik_cmdline>
J2VwaWtfcHl0aG9uJywgJy1waCcsICc3LjAnLCAnLXRuJywgJzgnLCAnLW1hJywgJzIwMCcsICctbWV0YWxfYmluZGluZycsICctaW1hZScsICc8aW5maWxlLm1hZT4nLCAnLW9tYWUnLCAnPG91dGZpbGUubWFlPic=

> <r_lp_tautomer_probability>
1

> <r_epik_Ionization_Penalty>
0.748405

> <r_epik_Ionization_Penalty_Charging>
0.748396

> <r_epik_Ionization_Penalty_Neutral>
8.54426e-06

> <r_epik_State_Penalty>
0.775162

> <r_epik_Charging_Adjusted_Penalty>
1.52356

> <i_epik_Tot_Q>
1

> <i_epik_Tot_abs_Q>
1

> <r_epik_Metal_State_Penalty>
0.775167

> <b_epik_Metal_Only>
0

> <s_lp_Force_Field>
OPLS_2005

> <r_lp_Energy>
21.4141

> <b_lp_Chiralities_Consistent>
1

> <s_lp_Variant>
AV-unprocessed.smi:1433-14

> <Gold.Version>
5.8.1

> <Gold.Id.Protein>
6NUR|6NUR_protein|mol2

> <Gold.PLP.Fitness>
40.6965

> <Gold.PLP.PLP>
-34.7989

> <Gold.PLP.part.hbond>
-3.8395

> <Gold.PLP.part.metal>
0.0000

> <Gold.PLP.part.buried>
-4.7625

> <Gold.PLP.part.nonpolar>
-28.1635

> <Gold.PLP.part.repulsive>
0.1892

> <Gold.PLP.ligand.clash>
0.0008

> <Gold.PLP.ligand.torsion>
0.7991

> <Gold.PLP.Chemscore.Hbond>
2.4800

> <Gold.PLP.Chemscore.CHOScore>
0.0000

> <Gold.PLP.Chemscore.Metal>
0.0000

> <Gold.Chemscore.Hbonds>
donor molecule, donor type, donor heavy atom, donor atom, acceptor molecule, acceptor atom, score
      P1  H  6934  6947       L1    16  0.86
      P1  H  7989  7998       L1    20  0.85

> <Gold.PLP.Chemscore.Internal.Correction>
0.0565

> <Gold.Rescore>
     Score         DG    S(hbond)    S(metal)    S(lipo)     H(rot)  DE(clash)    DE(int)     intcor
     15.42     -16.10       1.95        0.00      76.02       1.87       0.00       0.68       ----

> <Gold.Chemscore.Fitness>
15.4167

> <Gold.Chemscore.DG>
-16.1025

> <Gold.Chemscore.ZeroCoef>
-5.4800

> <Gold.Chemscore.Hbond>
1.9475

> <Gold.Chemscore.Metal>
0.0000

> <Gold.Chemscore.Lipo>
76.0176

> <Gold.Chemscore.Internal_Hbond>
0.0000

> <Gold.Chemscore.DEClash>
0.0029

> <Gold.Chemscore.DEInternal>
0.6828

> <Gold.Chemscore.Rot>
1.8657

> <Gold.Chemscore.Internal.Correction>
   9.000000E+99

> <Gold.Chemscore.Hbonds>
donor molecule, donor type, donor heavy atom, donor atom, acceptor molecule, acceptor atom, score
      P1  H  6934  6947       L1    16  0.85
      P1  H  7989  7998       L1    20  0.14

> <Gold.Chemscore.Hbond.Weighted>
-6.5045

> <Gold.Chemscore.Metal.Weighted>
-0.0000

> <Gold.Chemscore.Lipo.Weighted>
-8.8941

> <Gold.Chemscore.Internal_Hbond.Weighted>
0.0000

> <Gold.Chemscore.DEClash.Weighted>
0.0029

> <Gold.Chemscore.DEInternal.Weighted>
0.6828

> <Gold.Chemscore.Rot.Weighted>
4.7761

> <Gold.Chemscore.Internal.Correction.Weighted>
   9.000000E+99

> <Gold.Protein.RotatedTorsions>
[ 6907 6896 6895 6894 ] final  115.97 input  -60.11 | X-H torsion
[ 7974 7965 7964 7962 ] final  152.69 input  175.53 | X-H torsion
[ 8008 7997 7996 7995 ] final   36.53 input   59.86 | X-H torsion
[ 10167 10162 10161 10158 ] final  -17.16 input  -65.29 | X-H torsion
[ 10718 10713 10712 10709 ] final   99.26 input   66.30 | X-H torsion
[ 10763 10752 10751 10750 ] final  155.06 input  -60.55 | X-H torsion
[ 11005 11000 10999 10996 ] final   70.82 input  -57.11 | X-H torsion

> <Gold.Protein.ActiveResidues>
 VAL166  LYS551  ARG553  GLY616  TRP617  ASP618  TYR619  PRO620  LYS621  CYS622 
 ASP623  PHE694  ASN695  SER759  ASP760  ASP761  ALA762  ILE779  LEU786  VAL792 
 PHE793  MET794  SER795  GLU796  ALA797  LYS798  CYS799  TRP800  GLU811  SER814 

> <Gold.Protein.RotatedAtoms>
  152.4708  133.8025  159.6960 H   0  0  0  0  0  0  0  0  0  0  0  0  # atno 6907 bound_to 6896
  150.8696  133.7515  159.2972 H   0  0  0  0  0  0  0  0  0  0  0  0  # atno 6908 bound_to 6896
  151.5054  135.1066  159.9892 H   0  0  0  0  0  0  0  0  0  0  0  0  # atno 6909 bound_to 6896
  144.8205  139.6701  143.6102 H   0  0  0  0  0  0  0  0  0  0  0  0  # atno 7974 bound_to 7965
  155.1890  140.3306  155.4362 H   0  0  0  0  0  0  0  0  0  0  0  0  # atno 8008 bound_to 7997
  156.2449  140.1913  156.6934 H   0  0  0  0  0  0  0  0  0  0  0  0  # atno 8009 bound_to 7997
  154.6219  140.0594  156.9611 H   0  0  0  0  0  0  0  0  0  0  0  0  # atno 8010 bound_to 7997
  140.7243  143.5044  150.9829 H   0  0  0  0  0  0  0  0  0  0  0  0  # atno 10167 bound_to 10162
  157.6879  131.0664  150.4922 H   0  0  0  0  0  0  0  0  0  0  0  0  # atno 10718 bound_to 10713
  154.1624  135.2809  155.3105 H   0  0  0  0  0  0  0  0  0  0  0  0  # atno 10763 bound_to 10752
  154.6137  135.5490  153.7504 H   0  0  0  0  0  0  0  0  0  0  0  0  # atno 10764 bound_to 10752
  153.0188  135.6422  154.1765 H   0  0  0  0  0  0  0  0  0  0  0  0  # atno 10765 bound_to 10752
  139.9577  134.7116  156.0716 H   0  0  0  0  0  0  0  0  0  0  0  0  # atno 11005 bound_to 11000
  146.2510  139.6200  142.9427 LP  0  0  0  0  0  0  0  0  0  0  0  0  # atno 17320 bound_to 7965
  145.5115  141.0435  143.2485 LP  0  0  0  0  0  0  0  0  0  0  0  0  # atno 17321 bound_to 7965
  139.8755  143.7139  152.3162 LP  0  0  0  0  0  0  0  0  0  0  0  0  # atno 17342 bound_to 10162
  139.7402  144.7561  151.0664 LP  0  0  0  0  0  0  0  0  0  0  0  0  # atno 17343 bound_to 10162
  156.5247  130.4170  149.6232 LP  0  0  0  0  0  0  0  0  0  0  0  0  # atno 17370 bound_to 10713
  156.3122  130.7235  151.2130 LP  0  0  0  0  0  0  0  0  0  0  0  0  # atno 17371 bound_to 10713
  141.1250  133.6602  156.3313 LP  0  0  0  0  0  0  0  0  0  0  0  0  # atno 17394 bound_to 11000
  140.5572  134.5970  157.5424 LP  0  0  0  0  0  0  0  0  0  0  0  0  # atno 17395 bound_to 11000

$$$$
