AV-unprocessed.smi:1643|AV-procd|sdf|6573|dock5
  -GOLD-   22720 7263D 1   1.00000     0.00000
 Structure written by MMmdl.
 54 56  0  0  0  0  0  0  0  0  2 V2000
  143.1716  145.2185  155.2332 C   0  0  0  0  0  0  0  0  0  0  0  0
  143.2349  143.7727  155.7348 C   0  0  0  0  0  0  0  0  0  0  0  0
  142.3463  143.3850  156.4936 O   0  0  0  0  0  0  0  0  0  0  0  0
  144.2533  142.9756  155.3269 N   0  0  0  0  0  0  0  0  0  0  0  0
  144.3241  141.5666  155.7444 C   0  0  0  0  0  0  0  0  0  0  0  0
  145.2990  141.3797  156.9208 C   0  0  0  0  0  0  0  0  0  0  0  0
  146.5285  142.3124  156.8869 C   0  0  0  0  0  0  0  0  0  0  0  0
  147.3271  142.2237  155.6331 N   0  3  1  0  0  0  0  0  0  0  0  0
  148.1180  140.9647  155.5451 C   0  0  0  0  0  0  0  0  0  0  0  0
  149.1493  140.9735  154.3911 C   0  0  2  0  0  0  0  0  0  0  0  0
  149.3488  139.6594  153.9114 O   0  0  0  0  0  0  0  0  0  0  0  0
  150.5381  141.5091  154.7990 C   0  0  0  0  0  0  0  0  0  0  0  0
  151.0140  140.9541  156.0535 N   0  0  0  0  0  0  0  0  0  0  0  0
  151.2047  139.6531  156.3474 C   0  0  0  0  0  0  0  0  0  0  0  0
  151.6428  139.3628  157.5686 N   0  0  0  0  0  0  0  0  0  0  0  0
  151.7668  140.6228  158.1277 C   0  0  0  0  0  0  0  0  0  0  0  0
  152.1943  141.0167  159.4142 C   0  0  0  0  0  0  0  0  0  0  0  0
  152.2465  142.3821  159.7740 C   0  0  0  0  0  0  0  0  0  0  0  0
  152.7188  142.7611  161.1667 C   0  0  0  0  0  0  0  0  0  0  0  0
  151.8650  143.3783  158.8396 C   0  0  0  0  0  0  0  0  0  0  0  0
  151.9171  144.8516  159.2029 C   0  0  0  0  0  0  0  0  0  0  0  0
  151.4324  143.0020  157.5508 C   0  0  0  0  0  0  0  0  0  0  0  0
  151.3853  141.6401  157.2047 C   0  0  0  0  0  0  0  0  0  0  0  0
  146.6076  142.5620  154.3651 C   0  0  0  0  0  0  0  0  0  0  0  0
  145.3646  143.4840  154.4943 C   0  0  0  0  0  0  0  0  0  0  0  0
  143.2351  145.2620  154.1457 H   0  0  0  0  0  0  0  0  0  0  0  0
  143.9799  145.8123  155.6600 H   0  0  0  0  0  0  0  0  0  0  0  0
  142.2292  145.6826  155.5266 H   0  0  0  0  0  0  0  0  0  0  0  0
  143.3460  141.1712  156.0233 H   0  0  0  0  0  0  0  0  0  0  0  0
  144.6137  140.9405  154.9020 H   0  0  0  0  0  0  0  0  0  0  0  0
  144.7615  141.5694  157.8504 H   0  0  0  0  0  0  0  0  0  0  0  0
  145.6142  140.3371  156.9684 H   0  0  0  0  0  0  0  0  0  0  0  0
  146.2244  143.3479  157.0419 H   0  0  0  0  0  0  0  0  0  0  0  0
  147.1694  142.0934  157.7419 H   0  0  0  0  0  0  0  0  0  0  0  0
  148.6600  140.8574  156.4839 H   0  0  0  0  0  0  0  0  0  0  0  0
  147.4616  140.0952  155.4861 H   0  0  0  0  0  0  0  0  0  0  0  0
  148.7663  141.5795  153.5690 H   0  0  0  0  0  0  0  0  0  0  0  0
  149.4667  139.6930  152.9739 H   0  0  0  0  0  0  0  0  0  0  0  0
  151.2728  141.2917  154.0220 H   0  0  0  0  0  0  0  0  0  0  0  0
  150.5079  142.5948  154.9041 H   0  0  0  0  0  0  0  0  0  0  0  0
  151.0002  138.8735  155.6279 H   0  0  0  0  0  0  0  0  0  0  0  0
  152.4864  140.2578  160.1255 H   0  0  0  0  0  0  0  0  0  0  0  0
  151.9488  143.3262  161.6925 H   0  0  0  0  0  0  0  0  0  0  0  0
  153.6199  143.3724  161.1099 H   0  0  0  0  0  0  0  0  0  0  0  0
  152.9510  141.8777  161.7627 H   0  0  0  0  0  0  0  0  0  0  0  0
  151.5939  145.4783  158.3713 H   0  0  0  0  0  0  0  0  0  0  0  0
  152.9337  145.1441  159.4669 H   0  0  0  0  0  0  0  0  0  0  0  0
  151.2648  145.0599  160.0513 H   0  0  0  0  0  0  0  0  0  0  0  0
  151.1415  143.7511  156.8293 H   0  0  0  0  0  0  0  0  0  0  0  0
  147.3270  143.0597  153.7146 H   0  0  0  0  0  0  0  0  0  0  0  0
  146.3352  141.6524  153.8304 H   0  0  0  0  0  0  0  0  0  0  0  0
  144.9760  143.6810  153.4941 H   0  0  0  0  0  0  0  0  0  0  0  0
  145.7073  144.4433  154.8843 H   0  0  0  0  0  0  0  0  0  0  0  0
  148.0152  142.9551  155.7435 H   0  0  0  0  0  0  0  0  0  0  0  0
  1  2  1  0  0  0  0
  1 26  1  0  0  0  0
  1 27  1  0  0  0  0
  1 28  1  0  0  0  0
  2  3  2  0  0  0  0
  2  4  1  0  0  0  0
  4 25  1  0  0  0  0
  4  5  1  0  0  0  0
  5  6  1  0  0  0  0
  5 29  1  0  0  0  0
  5 30  1  0  0  0  0
  6  7  1  0  0  0  0
  6 31  1  0  0  0  0
  6 32  1  0  0  0  0
  7  8  1  0  0  0  0
  7 33  1  0  0  0  0
  7 34  1  0  0  0  0
  8  9  1  0  0  0  0
  8 24  1  0  0  0  0
  8 54  1  0  0  0  0
  9 10  1  0  0  0  0
  9 35  1  0  0  0  0
  9 36  1  0  0  0  0
 10 11  1  0  0  0  0
 10 12  1  0  0  0  0
 10 37  1  0  0  0  0
 11 38  1  0  0  0  0
 12 13  1  0  0  0  0
 12 39  1  0  0  0  0
 12 40  1  0  0  0  0
 13 23  1  0  0  0  0
 13 14  1  0  0  0  0
 14 15  2  0  0  0  0
 14 41  1  0  0  0  0
 15 16  1  0  0  0  0
 16 23  2  0  0  0  0
 16 17  1  0  0  0  0
 17 18  2  0  0  0  0
 17 42  1  0  0  0  0
 18 19  1  0  0  0  0
 18 20  1  0  0  0  0
 19 43  1  0  0  0  0
 19 44  1  0  0  0  0
 19 45  1  0  0  0  0
 20 21  1  0  0  0  0
 20 22  2  0  0  0  0
 21 46  1  0  0  0  0
 21 47  1  0  0  0  0
 21 48  1  0  0  0  0
 22 23  1  0  0  0  0
 22 49  1  0  0  0  0
 24 25  1  0  0  0  0
 24 50  1  0  0  0  0
 24 51  1  0  0  0  0
 25 52  1  0  0  0  0
 25 53  1  0  0  0  0
M  CHG  1   8   1
M  END
> <s_m_source_file>
AV-unprocessed.smi

> <i_m_source_file_index>
1643

> <i_lp_mmshare_version>
43012

> <i_f3d_flags>
0

> <s_epik_input>
W0NIM11DKD1PKU4xW0NIMl1bQ0gyXVtDSDJdTihbQ0gyXVtDSDJdMSlbQ0gyXVtDQEhdKFtPSF0pW0NIMl1uKFtjSF1uMiljKGMyMylbY0hdYyhbQ0gzXSljKFtjSF0zKVtDSDNd

> <s_epik_cmdline>
J2VwaWtfcHl0aG9uJywgJy1waCcsICc3LjAnLCAnLXRuJywgJzgnLCAnLW1hJywgJzIwMCcsICctbWV0YWxfYmluZGluZycsICctaW1hZScsICc8aW5maWxlLm1hZT4nLCAnLW9tYWUnLCAnPG91dGZpbGUubWFlPic=

> <r_epik_Ionization_Penalty>
0.189467

> <r_epik_Ionization_Penalty_Charging>
0.101761

> <r_epik_Ionization_Penalty_Neutral>
0.0877056

> <r_epik_State_Penalty>
0.170758

> <r_epik_Charging_Adjusted_Penalty>
0.272519

> <i_epik_Tot_Q>
1

> <i_epik_Tot_abs_Q>
1

> <r_epik_Metal_State_Penalty>
0.0948013

> <b_epik_Metal_Only>
0

> <s_lp_Force_Field>
OPLS_2005

> <r_lp_Energy>
50.1894

> <b_lp_Chiralities_Consistent>
1

> <s_lp_Variant>
AV-unprocessed.smi:1643-2

> <Gold.Version>
5.8.1

> <Gold.Id.Protein>
6NUR|6NUR_protein|mol2

> <Gold.PLP.Fitness>
53.3029

> <Gold.PLP.PLP>
-45.2905

> <Gold.PLP.part.hbond>
-2.0000

> <Gold.PLP.part.metal>
0.0000

> <Gold.PLP.part.buried>
-3.3982

> <Gold.PLP.part.nonpolar>
-40.3272

> <Gold.PLP.part.repulsive>
0.1147

> <Gold.PLP.ligand.clash>
0.0000

> <Gold.PLP.ligand.torsion>
0.5377

> <Gold.PLP.Chemscore.Hbond>
2.9913

> <Gold.PLP.Chemscore.CHOScore>
0.0000

> <Gold.PLP.Chemscore.Metal>
0.0000

> <Gold.Chemscore.Hbonds>
donor molecule, donor type, donor heavy atom, donor atom, acceptor molecule, acceptor atom, score
      L1  H     8    54       P1  8028  2.00
      L1  H    11    38       P1  7957  1.00

> <Gold.PLP.Chemscore.Internal.Correction>
0.1140

> <Gold.Rescore>
     Score         DG    S(hbond)    S(metal)    S(lipo)     H(rot)  DE(clash)    DE(int)     intcor
     17.70     -21.62       1.90        0.00     129.99       2.12       3.36       0.55       ----

> <Gold.Chemscore.Fitness>
17.7019

> <Gold.Chemscore.DG>
-21.6152

> <Gold.Chemscore.ZeroCoef>
-5.4800

> <Gold.Chemscore.Hbond>
1.9004

> <Gold.Chemscore.Metal>
0.0000

> <Gold.Chemscore.Lipo>
129.9934

> <Gold.Chemscore.Internal_Hbond>
0.0000

> <Gold.Chemscore.DEClash>
3.3584

> <Gold.Chemscore.DEInternal>
0.5549

> <Gold.Chemscore.Rot>
2.1178

> <Gold.Chemscore.Internal.Correction>
   9.000000E+99

> <Gold.Chemscore.Hbonds>
donor molecule, donor type, donor heavy atom, donor atom, acceptor molecule, acceptor atom, score
      L1  H     8    54       P1  8028  0.73
      L1  H    11    38       P1  7957  1.00

> <Gold.Chemscore.Hbond.Weighted>
-6.3475

> <Gold.Chemscore.Metal.Weighted>
-0.0000

> <Gold.Chemscore.Lipo.Weighted>
-15.2092

> <Gold.Chemscore.Internal_Hbond.Weighted>
0.0000

> <Gold.Chemscore.DEClash.Weighted>
3.3584

> <Gold.Chemscore.DEInternal.Weighted>
0.5549

> <Gold.Chemscore.Rot.Weighted>
5.4215

> <Gold.Chemscore.Internal.Correction.Weighted>
   9.000000E+99

> <Gold.Protein.RotatedTorsions>
[ 6907 6896 6895 6894 ] final -106.27 input  -60.11 | X-H torsion
[ 7974 7965 7964 7962 ] final -124.75 input  175.53 | X-H torsion
[ 8008 7997 7996 7995 ] final  160.96 input   59.86 | X-H torsion
[ 10167 10162 10161 10158 ] final  105.09 input  -65.29 | X-H torsion
[ 10718 10713 10712 10709 ] final  -90.57 input   66.30 | X-H torsion
[ 10763 10752 10751 10750 ] final -100.13 input  -60.55 | X-H torsion
[ 11005 11000 10999 10996 ] final   -8.86 input  -57.11 | X-H torsion

> <Gold.Protein.ActiveResidues>
 VAL166  LYS551  ARG553  GLY616  TRP617  ASP618  TYR619  PRO620  LYS621  CYS622 
 ASP623  PHE694  ASN695  SER759  ASP760  ASP761  ALA762  ILE779  LEU786  VAL792 
 PHE793  MET794  SER795  GLU796  ALA797  LYS798  CYS799  TRP800  GLU811  SER814 

> <Gold.Protein.RotatedAtoms>
  150.7380  134.0001  159.3635 H   0  0  0  0  0  0  0  0  0  0  0  0  # atno 6907 bound_to 6896
  151.7954  135.0722  160.0402 H   0  0  0  0  0  0  0  0  0  0  0  0  # atno 6908 bound_to 6896
  152.3178  133.5784  159.5760 H   0  0  0  0  0  0  0  0  0  0  0  0  # atno 6909 bound_to 6896
  145.0048  140.7853  143.4474 H   0  0  0  0  0  0  0  0  0  0  0  0  # atno 7974 bound_to 7965
  156.2136  140.1790  156.7639 H   0  0  0  0  0  0  0  0  0  0  0  0  # atno 8008 bound_to 7997
  154.5758  140.0674  156.9062 H   0  0  0  0  0  0  0  0  0  0  0  0  # atno 8009 bound_to 7997
  155.2590  140.3334  155.4277 H   0  0  0  0  0  0  0  0  0  0  0  0  # atno 8010 bound_to 7997
  139.7122  144.7075  151.1008 H   0  0  0  0  0  0  0  0  0  0  0  0  # atno 10167 bound_to 10162
  155.9988  130.4915  150.5343 H   0  0  0  0  0  0  0  0  0  0  0  0  # atno 10718 bound_to 10713
  154.7554  135.4946  153.9366 H   0  0  0  0  0  0  0  0  0  0  0  0  # atno 10763 bound_to 10752
  153.1190  135.6727  153.9375 H   0  0  0  0  0  0  0  0  0  0  0  0  # atno 10764 bound_to 10752
  153.9113  135.3098  155.3427 H   0  0  0  0  0  0  0  0  0  0  0  0  # atno 10765 bound_to 10752
  140.7279  133.8773  155.8870 H   0  0  0  0  0  0  0  0  0  0  0  0  # atno 11005 bound_to 11000
  145.2103  139.2208  143.5146 LP  0  0  0  0  0  0  0  0  0  0  0  0  # atno 17320 bound_to 7965
  146.3459  140.1940  142.8589 LP  0  0  0  0  0  0  0  0  0  0  0  0  # atno 17321 bound_to 7965
  140.7736  143.5278  150.9460 LP  0  0  0  0  0  0  0  0  0  0  0  0  # atno 17342 bound_to 10162
  139.8963  143.6891  152.3138 LP  0  0  0  0  0  0  0  0  0  0  0  0  # atno 17343 bound_to 10162
  157.3288  131.0695  151.1877 LP  0  0  0  0  0  0  0  0  0  0  0  0  # atno 17370 bound_to 10713
  157.2765  130.6729  149.6045 LP  0  0  0  0  0  0  0  0  0  0  0  0  # atno 17371 bound_to 10713
  140.9946  134.1232  157.4376 LP  0  0  0  0  0  0  0  0  0  0  0  0  # atno 17394 bound_to 11000
  139.8833  135.0050  156.6289 LP  0  0  0  0  0  0  0  0  0  0  0  0  # atno 17395 bound_to 11000

$$$$
