AV-unprocessed.smi:3076|AV-procd|sdf|11726|dock5
  -GOLD-   2272017123D 1   1.00000     0.00000
 Structure written by MMmdl.
 21 21  0  0  0  0  0  0  0  0  2 V2000
  142.1578  132.4423  148.2849 N   0  3  0  0  0  0  0  0  0  0  0  0
  143.4844  132.2149  148.8842 C   0  0  0  0  0  0  0  0  0  0  0  0
  144.3934  133.4488  148.7408 C   0  0  1  0  0  0  0  0  0  0  0  0
  143.7011  134.4409  148.0079 O   0  0  0  0  0  0  0  0  0  0  0  0
  144.8428  133.9607  150.1001 C   0  0  0  0  0  0  0  0  0  0  0  0
  146.0013  133.4568  150.7315 C   0  0  0  0  0  0  0  0  0  0  0  0
  146.3750  133.9775  151.9853 C   0  0  0  0  0  0  0  0  0  0  0  0
  145.5746  134.9851  152.5589 C   0  0  0  0  0  0  0  0  0  0  0  0
  144.4664  135.4776  151.9651 N   0  0  0  0  0  0  0  0  0  0  0  0
  144.1145  134.9727  150.7634 C   0  0  0  0  0  0  0  0  0  0  0  0
  141.5291  131.7018  148.5614 H   0  0  0  0  0  0  0  0  0  0  0  0
  142.2397  132.4589  147.2785 H   0  0  0  0  0  0  0  0  0  0  0  0
  143.3595  131.9440  149.9335 H   0  0  0  0  0  0  0  0  0  0  0  0
  143.9356  131.3568  148.3848 H   0  0  0  0  0  0  0  0  0  0  0  0
  145.2798  133.1784  148.1648 H   0  0  0  0  0  0  0  0  0  0  0  0
  144.3337  135.0384  147.6374 H   0  0  0  0  0  0  0  0  0  0  0  0
  146.5970  132.6860  150.2645 H   0  0  0  0  0  0  0  0  0  0  0  0
  147.2548  133.6141  152.4957 H   0  0  0  0  0  0  0  0  0  0  0  0
  145.8325  135.4078  153.5186 H   0  0  0  0  0  0  0  0  0  0  0  0
  143.2248  135.3930  150.3173 H   0  0  0  0  0  0  0  0  0  0  0  0
  141.7973  133.3296  148.6069 H   0  0  0  0  0  0  0  0  0  0  0  0
  1  2  1  0  0  0  0
  1 11  1  0  0  0  0
  1 12  1  0  0  0  0
  1 21  1  0  0  0  0
  2  3  1  0  0  0  0
  2 13  1  0  0  0  0
  2 14  1  0  0  0  0
  3  4  1  0  0  0  0
  3  5  1  0  0  0  0
  3 15  1  0  0  0  0
  4 16  1  0  0  0  0
  5 10  1  0  0  0  0
  5  6  2  0  0  0  0
  6  7  1  0  0  0  0
  6 17  1  0  0  0  0
  7  8  2  0  0  0  0
  7 18  1  0  0  0  0
  8  9  1  0  0  0  0
  8 19  1  0  0  0  0
  9 10  2  0  0  0  0
 10 20  1  0  0  0  0
M  CHG  1   1   1
M  END
> <s_m_source_file>
AV-unprocessed.smi

> <i_m_source_file_index>
3076

> <i_lp_mmshare_version>
43012

> <i_f3d_flags>
0

> <s_epik_input>
W05IMl1bQ0gyXVtDQEhdKFtPSF0pYzFbY0hdW2NIXVtjSF1uW2NIXTE=

> <s_epik_cmdline>
J2VwaWtfcHl0aG9uJywgJy1waCcsICc3LjAnLCAnLXRuJywgJzgnLCAnLW1hJywgJzIwMCcsICctbWV0YWxfYmluZGluZycsICctaW1hZScsICc8aW5maWxlLm1hZT4nLCAnLW9tYWUnLCAnPG91dGZpbGUubWFlPic=

> <r_epik_Ionization_Penalty>
0.0145342

> <r_epik_Ionization_Penalty_Charging>
0.0140431

> <r_epik_Ionization_Penalty_Neutral>
0.000491123

> <r_epik_State_Penalty>
0.0109628

> <r_epik_Charging_Adjusted_Penalty>
0.0250059

> <i_epik_Tot_Q>
1

> <i_epik_Tot_abs_Q>
1

> <r_epik_Metal_State_Penalty>
0.0109916

> <b_epik_Metal_Only>
0

> <s_lp_Force_Field>
OPLS_2005

> <r_lp_Energy>
5.00299

> <b_lp_Chiralities_Consistent>
1

> <s_lp_Variant>
AV-unprocessed.smi:3076-2

> <Gold.Version>
5.8.1

> <Gold.Id.Protein>
6NUR|6NUR_protein|mol2

> <Gold.PLP.Fitness>
33.8726

> <Gold.PLP.PLP>
-18.0987

> <Gold.PLP.part.hbond>
-5.5635

> <Gold.PLP.part.metal>
0.0000

> <Gold.PLP.part.buried>
3.5121

> <Gold.PLP.part.nonpolar>
-16.2343

> <Gold.PLP.part.repulsive>
0.3426

> <Gold.PLP.ligand.clash>
0.0000

> <Gold.PLP.ligand.torsion>
1.4896

> <Gold.PLP.Chemscore.Hbond>
5.5600

> <Gold.PLP.Chemscore.CHOScore>
0.6887

> <Gold.PLP.Chemscore.Metal>
0.0000

> <Gold.Chemscore.Hbonds>
donor molecule, donor type, donor heavy atom, donor atom, acceptor molecule, acceptor atom, score
      L1  H     1    11       P1 10952  1.00
      L1  H     1    12       P1 10195  1.00
      L1  H     1    21       P1 10186  2.00
      L1  H     4    16       P1  7921  0.54
      P1  H 10192 10197       L1     4  0.95
      L1  C    10    20       P1 10186  0.69

> <Gold.PLP.Chemscore.Internal.Correction>
0.0070

> <Gold.Rescore>
     Score         DG    S(hbond)    S(metal)    S(lipo)     H(rot)  DE(clash)    DE(int)     intcor
     16.12     -19.62       3.81        0.00      53.58       1.90       2.43       1.07       ----

> <Gold.Chemscore.Fitness>
16.1232

> <Gold.Chemscore.DG>
-19.6184

> <Gold.Chemscore.ZeroCoef>
-5.4800

> <Gold.Chemscore.Hbond>
3.8110

> <Gold.Chemscore.Metal>
0.0000

> <Gold.Chemscore.Lipo>
53.5801

> <Gold.Chemscore.Internal_Hbond>
0.0000

> <Gold.Chemscore.DEClash>
2.4262

> <Gold.Chemscore.DEInternal>
1.0690

> <Gold.Chemscore.Rot>
1.8981

> <Gold.Chemscore.Internal.Correction>
   9.000000E+99

> <Gold.Chemscore.Hbonds>
donor molecule, donor type, donor heavy atom, donor atom, acceptor molecule, acceptor atom, score
      L1  H     1    11       P1 10952  1.00
      L1  H     1    12       P1 10195  0.95
      L1  H     1    21       P1 10186  0.99
      L1  H     4    16       P1  7921  0.54
      P1  H 10192 10197       L1     4  0.20

> <Gold.Chemscore.Hbond.Weighted>
-12.7287

> <Gold.Chemscore.Metal.Weighted>
-0.0000

> <Gold.Chemscore.Lipo.Weighted>
-6.2689

> <Gold.Chemscore.Internal_Hbond.Weighted>
0.0000

> <Gold.Chemscore.DEClash.Weighted>
2.4262

> <Gold.Chemscore.DEInternal.Weighted>
1.0690

> <Gold.Chemscore.Rot.Weighted>
4.8592

> <Gold.Chemscore.Internal.Correction.Weighted>
   9.000000E+99

> <Gold.Protein.RotatedTorsions>
[ 6907 6896 6895 6894 ] final   46.69 input  -60.11 | X-H torsion
[ 7974 7965 7964 7962 ] final  -11.59 input  175.53 | X-H torsion
[ 8008 7997 7996 7995 ] final   63.44 input   59.86 | X-H torsion
[ 10167 10162 10161 10158 ] final -122.35 input  -65.29 | X-H torsion
[ 10718 10713 10712 10709 ] final   45.31 input   66.30 | X-H torsion
[ 10763 10752 10751 10750 ] final   25.59 input  -60.55 | X-H torsion
[ 11005 11000 10999 10996 ] final  -36.21 input  -57.11 | X-H torsion

> <Gold.Protein.ActiveResidues>
 VAL166  LYS551  ARG553  GLY616  TRP617  ASP618  TYR619  PRO620  LYS621  CYS622 
 ASP623  PHE694  ASN695  SER759  ASP760  ASP761  ALA762  ILE779  LEU786  VAL792 
 PHE793  MET794  SER795  GLU796  ALA797  LYS798  CYS799  TRP800  GLU811  SER814 

> <Gold.Protein.RotatedAtoms>
  152.2593  134.8051  160.0432 H   0  0  0  0  0  0  0  0  0  0  0  0  # atno 6907 bound_to 6896
  151.8703  133.3469  159.3740 H   0  0  0  0  0  0  0  0  0  0  0  0  # atno 6908 bound_to 6896
  150.7111  134.5047  159.5622 H   0  0  0  0  0  0  0  0  0  0  0  0  # atno 6909 bound_to 6896
  146.2182  140.2934  142.8370 H   0  0  0  0  0  0  0  0  0  0  0  0  # atno 7974 bound_to 7965
  155.6302  140.3496  155.4680 H   0  0  0  0  0  0  0  0  0  0  0  0  # atno 8008 bound_to 7997
  156.0009  140.1213  157.0572 H   0  0  0  0  0  0  0  0  0  0  0  0  # atno 8009 bound_to 7997
  154.4248  140.1100  156.5682 H   0  0  0  0  0  0  0  0  0  0  0  0  # atno 8010 bound_to 7997
  140.0152  143.5401  152.2245 H   0  0  0  0  0  0  0  0  0  0  0  0  # atno 10167 bound_to 10162
  157.4362  130.8054  149.7650 H   0  0  0  0  0  0  0  0  0  0  0  0  # atno 10718 bound_to 10713
  153.0681  135.6579  154.0308 H   0  0  0  0  0  0  0  0  0  0  0  0  # atno 10763 bound_to 10752
  153.9960  135.2941  155.3409 H   0  0  0  0  0  0  0  0  0  0  0  0  # atno 10764 bound_to 10752
  154.7046  135.5230  153.8646 H   0  0  0  0  0  0  0  0  0  0  0  0  # atno 10765 bound_to 10752
  140.9857  133.7032  156.1761 H   0  0  0  0  0  0  0  0  0  0  0  0  # atno 11005 bound_to 11000
  144.9110  140.7757  143.5807 LP  0  0  0  0  0  0  0  0  0  0  0  0  # atno 17320 bound_to 7965
  145.2865  139.1899  143.4763 LP  0  0  0  0  0  0  0  0  0  0  0  0  # atno 17321 bound_to 7965
  139.6177  144.7623  151.2809 LP  0  0  0  0  0  0  0  0  0  0  0  0  # atno 17342 bound_to 10162
  140.7365  143.6705  150.8085 LP  0  0  0  0  0  0  0  0  0  0  0  0  # atno 17343 bound_to 10162
  155.9931  130.3926  150.2913 LP  0  0  0  0  0  0  0  0  0  0  0  0  # atno 17370 bound_to 10713
  157.1074  131.0212  151.3061 LP  0  0  0  0  0  0  0  0  0  0  0  0  # atno 17371 bound_to 10713
  140.7118  134.4453  157.5581 LP  0  0  0  0  0  0  0  0  0  0  0  0  # atno 17394 bound_to 11000
  139.8969  134.8648  156.2066 LP  0  0  0  0  0  0  0  0  0  0  0  0  # atno 17395 bound_to 11000

$$$$
