AV-unprocessed.smi:485|AV-procd|sdf|2692|dock10
  -GOLD-   2262023123D 1   1.00000     0.00000
 Structure written by MMmdl.
 36 38  0  0  0  0  0  0  0  0  1 V2000
  153.4345  139.1473  154.6554 O   0  0  0  0  0  0  0  0  0  0  0  0
  152.4048  139.0855  155.6188 C   0  0  0  0  0  0  0  0  0  0  0  0
  151.0880  139.5684  155.0909 C   0  0  0  0  0  0  0  0  0  0  0  0
  150.3578  138.8400  154.2458 N   0  0  0  0  0  0  0  0  0  0  0  0
  149.2498  139.6376  154.0363 C   0  0  0  0  0  0  0  0  0  0  0  0
  148.1034  139.4248  153.2375 C   0  0  0  0  0  0  0  0  0  0  0  0
  147.0838  140.3973  153.1784 C   0  0  0  0  0  0  0  0  0  0  0  0
  147.1953  141.5940  153.9157 C   0  0  0  0  0  0  0  0  0  0  0  0
  148.3289  141.8257  154.7183 C   0  0  0  0  0  0  0  0  0  0  0  0
  149.3440  140.8515  154.7740 C   0  0  0  0  0  0  0  0  0  0  0  0
  150.5595  140.7666  155.4464 N   0  0  0  0  0  0  0  0  0  0  0  0
  151.1217  141.7665  156.3443 C   0  0  0  0  0  0  0  0  0  0  0  0
  150.1273  142.2273  157.4290 C   0  0  1  0  0  0  0  0  0  0  0  0
  149.7319  141.1274  158.2265 O   0  0  0  0  0  0  0  0  0  0  0  0
  150.7077  143.3658  158.2537 C   0  0  0  0  0  0  0  0  0  0  0  0
  152.0069  143.8582  157.9966 C   0  0  0  0  0  0  0  0  0  0  0  0
  152.5269  144.9215  158.7604 C   0  0  0  0  0  0  0  0  0  0  0  0
  151.7500  145.5019  159.7813 C   0  0  0  0  0  0  0  0  0  0  0  0
  150.4527  145.0187  160.0385 C   0  0  0  0  0  0  0  0  0  0  0  0
  149.9329  143.9546  159.2761 C   0  0  0  0  0  0  0  0  0  0  0  0
  153.1122  138.7782  153.8475 H   0  0  0  0  0  0  0  0  0  0  0  0
  152.3095  138.0625  155.9810 H   0  0  0  0  0  0  0  0  0  0  0  0
  152.6936  139.6940  156.4764 H   0  0  0  0  0  0  0  0  0  0  0  0
  148.0085  138.5113  152.6694 H   0  0  0  0  0  0  0  0  0  0  0  0
  146.2122  140.2243  152.5641 H   0  0  0  0  0  0  0  0  0  0  0  0
  146.4101  142.3343  153.8647 H   0  0  0  0  0  0  0  0  0  0  0  0
  148.4195  142.7423  155.2821 H   0  0  0  0  0  0  0  0  0  0  0  0
  152.0195  141.3537  156.8061 H   0  0  0  0  0  0  0  0  0  0  0  0
  151.4555  142.6189  155.7523 H   0  0  0  0  0  0  0  0  0  0  0  0
  149.2199  142.5928  156.9477 H   0  0  0  0  0  0  0  0  0  0  0  0
  150.4280  140.4882  158.2207 H   0  0  0  0  0  0  0  0  0  0  0  0
  152.6084  143.4254  157.2106 H   0  0  0  0  0  0  0  0  0  0  0  0
  153.5211  145.2935  158.5615 H   0  0  0  0  0  0  0  0  0  0  0  0
  152.1479  146.3188  160.3653 H   0  0  0  0  0  0  0  0  0  0  0  0
  149.8553  145.4657  160.8195 H   0  0  0  0  0  0  0  0  0  0  0  0
  148.9345  143.5941  159.4771 H   0  0  0  0  0  0  0  0  0  0  0  0
  1  2  1  0  0  0  0
  1 21  1  0  0  0  0
  2  3  1  0  0  0  0
  2 22  1  0  0  0  0
  2 23  1  0  0  0  0
  3 11  1  0  0  0  0
  3  4  2  0  0  0  0
  4  5  1  0  0  0  0
  5 10  2  0  0  0  0
  5  6  1  0  0  0  0
  6  7  2  0  0  0  0
  6 24  1  0  0  0  0
  7  8  1  0  0  0  0
  7 25  1  0  0  0  0
  8  9  2  0  0  0  0
  8 26  1  0  0  0  0
  9 10  1  0  0  0  0
  9 27  1  0  0  0  0
 10 11  1  0  0  0  0
 11 12  1  0  0  0  0
 12 13  1  0  0  0  0
 12 28  1  0  0  0  0
 12 29  1  0  0  0  0
 13 14  1  0  0  0  0
 13 15  1  0  0  0  0
 13 30  1  0  0  0  0
 14 31  1  0  0  0  0
 15 20  1  0  0  0  0
 15 16  2  0  0  0  0
 16 17  1  0  0  0  0
 16 32  1  0  0  0  0
 17 18  2  0  0  0  0
 17 33  1  0  0  0  0
 18 19  1  0  0  0  0
 18 34  1  0  0  0  0
 19 20  2  0  0  0  0
 19 35  1  0  0  0  0
 20 36  1  0  0  0  0
M  END
> <s_m_source_file>
AV-unprocessed.smi

> <i_m_source_file_index>
485

> <i_lp_mmshare_version>
43012

> <i_f3d_flags>
0

> <s_epik_input>
W2NIXTFbY0hdW2NIXVtjSF1jKGMxMiluKGMobjIpW0NIMl1bT0hdKVtDSDJdW0NASF0oW09IXSljM1tjSF1bY0hdW2NIXVtjSF1bY0hdMw==

> <s_epik_cmdline>
J2VwaWtfcHl0aG9uJywgJy1waCcsICc3LjAnLCAnLXRuJywgJzgnLCAnLW1hJywgJzIwMCcsICctbWV0YWxfYmluZGluZycsICctaW1hZScsICc8aW5maWxlLm1hZT4nLCAnLW9tYWUnLCAnPG91dGZpbGUubWFlPic=

> <r_epik_Ionization_Penalty>
0.0634722

> <r_epik_Ionization_Penalty_Charging>
0

> <r_epik_Ionization_Penalty_Neutral>
0.0634722

> <r_epik_State_Penalty>
0.0551572

> <r_epik_Charging_Adjusted_Penalty>
0.0551572

> <i_epik_Tot_Q>
0

> <i_epik_Tot_abs_Q>
0

> <r_epik_Metal_State_Penalty>
5.78034e-05

> <b_epik_Metal_Only>
0

> <s_lp_Force_Field>
OPLS_2005

> <r_lp_Energy>
11.9135

> <b_lp_Chiralities_Consistent>
1

> <s_lp_Variant>
AV-unprocessed.smi:485-2

> <Gold.Version>
5.8.1

> <Gold.Id.Protein>
6NUR|6NUR_protein|mol2

> <Gold.PLP.Fitness>
49.3657

> <Gold.PLP.PLP>
-46.8773

> <Gold.PLP.part.hbond>
-1.0000

> <Gold.PLP.part.metal>
0.0000

> <Gold.PLP.part.buried>
0.0437

> <Gold.PLP.part.nonpolar>
-45.2453

> <Gold.PLP.part.repulsive>
0.1869

> <Gold.PLP.ligand.clash>
0.0000

> <Gold.PLP.ligand.torsion>
0.2723

> <Gold.PLP.Chemscore.Hbond>
1.0000

> <Gold.PLP.Chemscore.CHOScore>
0.0000

> <Gold.PLP.Chemscore.Metal>
0.0000

> <Gold.Chemscore.Hbonds>
donor molecule, donor type, donor heavy atom, donor atom, acceptor molecule, acceptor atom, score
      P1  H  7997  8008       L1     1  0.80

> <Gold.PLP.Chemscore.Internal.Correction>
0.0329

> <Gold.Rescore>
     Score         DG    S(hbond)    S(metal)    S(lipo)     H(rot)  DE(clash)    DE(int)     intcor
     15.98     -16.82       0.94        0.00     127.36       2.62       0.41       0.42       ----

> <Gold.Chemscore.Fitness>
15.9849

> <Gold.Chemscore.DG>
-16.8164

> <Gold.Chemscore.ZeroCoef>
-5.4800

> <Gold.Chemscore.Hbond>
0.9434

> <Gold.Chemscore.Metal>
0.0000

> <Gold.Chemscore.Lipo>
127.3580

> <Gold.Chemscore.Internal_Hbond>
0.0000

> <Gold.Chemscore.DEClash>
0.4077

> <Gold.Chemscore.DEInternal>
0.4237

> <Gold.Chemscore.Rot>
2.6232

> <Gold.Chemscore.Internal.Correction>
   9.000000E+99

> <Gold.Chemscore.Hbonds>
donor molecule, donor type, donor heavy atom, donor atom, acceptor molecule, acceptor atom, score
      P1  H  7997  8008       L1     1  0.12

> <Gold.Chemscore.Hbond.Weighted>
-3.1509

> <Gold.Chemscore.Metal.Weighted>
-0.0000

> <Gold.Chemscore.Lipo.Weighted>
-14.9009

> <Gold.Chemscore.Internal_Hbond.Weighted>
0.0000

> <Gold.Chemscore.DEClash.Weighted>
0.4077

> <Gold.Chemscore.DEInternal.Weighted>
0.4237

> <Gold.Chemscore.Rot.Weighted>
6.7154

> <Gold.Chemscore.Internal.Correction.Weighted>
   9.000000E+99

> <Gold.Protein.RotatedTorsions>
[ 6907 6896 6895 6894 ] final   29.14 input  -60.11 | X-H torsion
[ 7974 7965 7964 7962 ] final    7.90 input  175.53 | X-H torsion
[ 8008 7997 7996 7995 ] final   -1.18 input   59.86 | X-H torsion
[ 10167 10162 10161 10158 ] final -140.24 input  -65.29 | X-H torsion
[ 10718 10713 10712 10709 ] final   -3.39 input   66.30 | X-H torsion
[ 10763 10752 10751 10750 ] final   96.77 input  -60.55 | X-H torsion
[ 11005 11000 10999 10996 ] final -112.06 input  -57.11 | X-H torsion

> <Gold.Protein.ActiveResidues>
 VAL166  LYS551  ARG553  GLY616  TRP617  ASP618  TYR619  PRO620  LYS621  CYS622 
 ASP623  PHE694  ASN695  SER759  ASP760  ASP761  ALA762  ILE779  LEU786  VAL792 
 PHE793  MET794  SER795  GLU796  ALA797  LYS798  CYS799  TRP800  GLU811  SER814 

> <Gold.Protein.RotatedAtoms>
  152.0272  134.9789  160.0571 H   0  0  0  0  0  0  0  0  0  0  0  0  # atno 6907 bound_to 6896
  152.1280  133.4386  159.4715 H   0  0  0  0  0  0  0  0  0  0  0  0  # atno 6908 bound_to 6896
  150.6854  134.2373  159.4502 H   0  0  0  0  0  0  0  0  0  0  0  0  # atno 6909 bound_to 6896
  146.2422  140.0014  142.8415 H   0  0  0  0  0  0  0  0  0  0  0  0  # atno 7974 bound_to 7965
  154.6497  140.2566  155.7228 H   0  0  0  0  0  0  0  0  0  0  0  0  # atno 8008 bound_to 7997
  156.2569  140.2870  156.0846 H   0  0  0  0  0  0  0  0  0  0  0  0  # atno 8009 bound_to 7997
  155.1470  140.0381  157.2802 H   0  0  0  0  0  0  0  0  0  0  0  0  # atno 8010 bound_to 7997
  139.8301  143.7458  152.2666 H   0  0  0  0  0  0  0  0  0  0  0  0  # atno 10167 bound_to 10162
  156.7768  130.5318  149.5757 H   0  0  0  0  0  0  0  0  0  0  0  0  # atno 10718 bound_to 10713
  153.2690  135.4206  155.0968 H   0  0  0  0  0  0  0  0  0  0  0  0  # atno 10763 bound_to 10752
  154.8449  135.3467  154.6271 H   0  0  0  0  0  0  0  0  0  0  0  0  # atno 10764 bound_to 10752
  153.6691  135.7044  153.5210 H   0  0  0  0  0  0  0  0  0  0  0  0  # atno 10765 bound_to 10752
  141.0697  133.9400  157.2509 H   0  0  0  0  0  0  0  0  0  0  0  0  # atno 11005 bound_to 11000
  145.1412  140.9572  143.4488 LP  0  0  0  0  0  0  0  0  0  0  0  0  # atno 17320 bound_to 7965
  145.0294  139.3354  143.6032 LP  0  0  0  0  0  0  0  0  0  0  0  0  # atno 17321 bound_to 7965
  139.7663  144.7491  151.0290 LP  0  0  0  0  0  0  0  0  0  0  0  0  # atno 17342 bound_to 10162
  140.7807  143.4695  151.0166 LP  0  0  0  0  0  0  0  0  0  0  0  0  # atno 17343 bound_to 10162
  156.1243  130.6132  151.0240 LP  0  0  0  0  0  0  0  0  0  0  0  0  # atno 17370 bound_to 10713
  157.6665  131.0870  150.7716 LP  0  0  0  0  0  0  0  0  0  0  0  0  # atno 17371 bound_to 10713
  139.9511  135.0175  156.8997 LP  0  0  0  0  0  0  0  0  0  0  0  0  # atno 17394 bound_to 11000
  140.5699  134.0453  155.7427 LP  0  0  0  0  0  0  0  0  0  0  0  0  # atno 17395 bound_to 11000

$$$$
