AV-unprocessed.smi:1611|AV-procd|sdf|6475|dock9
  -GOLD-   22720 7133D 1   1.00000     0.00000
 Structure written by MMmdl.
 48 49  0  0  0  0  0  0  0  0  1 V2000
  151.9155  144.1140  159.9628 C   0  0  0  0  0  0  0  0  0  0  0  0
  152.1725  142.6676  159.5769 C   0  0  0  0  0  0  0  0  0  0  0  0
  153.2283  141.9723  160.2009 C   0  0  0  0  0  0  0  0  0  0  0  0
  153.4923  140.6319  159.8699 C   0  0  0  0  0  0  0  0  0  0  0  0
  152.7080  139.9731  158.9034 C   0  0  0  0  0  0  0  0  0  0  0  0
  153.0030  138.5245  158.5622 C   0  0  0  0  0  0  0  0  0  0  0  0
  151.6575  140.6664  158.2593 C   0  0  0  0  0  0  0  0  0  0  0  0
  150.9045  140.0205  157.3124 O   0  0  0  0  0  0  0  0  0  0  0  0
  151.0145  140.5877  156.0146 C   0  0  0  0  0  0  0  0  0  0  0  0
  150.1608  139.7662  155.0340 C   0  0  1  0  0  0  0  0  0  0  0  0
  149.9440  140.5769  153.8955 O   0  0  0  0  0  0  0  0  0  0  0  0
  150.8830  138.4773  154.5831 C   0  0  0  0  0  0  0  0  0  0  0  0
  150.1411  137.2695  154.9674 N   0  0  0  0  0  0  0  0  0  0  0  0
  148.7914  137.3224  154.6762 N   0  0  0  0  0  0  0  0  0  0  0  0
  148.0068  136.3290  154.9374 C   0  0  0  0  0  0  0  0  0  0  0  0
  146.5556  136.5003  154.5773 C   0  0  0  0  0  0  0  0  0  0  0  0
  148.5486  135.1220  155.5530 C   0  0  0  0  0  0  0  0  0  0  0  0
  147.5773  133.9843  155.8369 C   0  0  0  0  0  0  0  0  0  0  0  0
  149.8745  135.0834  155.8367 C   0  0  0  0  0  0  0  0  0  0  0  0
  150.4932  133.9470  156.4395 C   0  0  0  0  0  0  0  0  0  0  0  0
  151.0037  133.0208  156.9105 N   0  0  0  0  0  0  0  0  0  0  0  0
  150.7694  136.2055  155.5444 C   0  0  0  0  0  0  0  0  0  0  0  0
  151.9765  136.2000  155.7906 O   0  0  0  0  0  0  0  0  0  0  0  0
  151.3730  142.0112  158.6076 C   0  0  0  0  0  0  0  0  0  0  0  0
  150.2171  142.7445  157.9402 C   0  0  0  0  0  0  0  0  0  0  0  0
  152.7066  144.4997  160.6065 H   0  0  0  0  0  0  0  0  0  0  0  0
  150.9721  144.2015  160.5021 H   0  0  0  0  0  0  0  0  0  0  0  0
  151.8702  144.7478  159.0767 H   0  0  0  0  0  0  0  0  0  0  0  0
  153.8407  142.4639  160.9427 H   0  0  0  0  0  0  0  0  0  0  0  0
  154.3012  140.1117  160.3616 H   0  0  0  0  0  0  0  0  0  0  0  0
  152.0794  137.9536  158.4618 H   0  0  0  0  0  0  0  0  0  0  0  0
  153.6039  138.0519  159.3400 H   0  0  0  0  0  0  0  0  0  0  0  0
  153.5519  138.4616  157.6226 H   0  0  0  0  0  0  0  0  0  0  0  0
  150.7292  141.6416  155.9990 H   0  0  0  0  0  0  0  0  0  0  0  0
  152.0642  140.5413  155.7227 H   0  0  0  0  0  0  0  0  0  0  0  0
  149.2070  139.5176  155.5019 H   0  0  0  0  0  0  0  0  0  0  0  0
  149.4724  140.0718  153.2508 H   0  0  0  0  0  0  0  0  0  0  0  0
  151.1036  138.5044  153.5142 H   0  0  0  0  0  0  0  0  0  0  0  0
  151.8614  138.4257  155.0643 H   0  0  0  0  0  0  0  0  0  0  0  0
  145.9259  136.4246  155.4639 H   0  0  0  0  0  0  0  0  0  0  0  0
  146.2386  135.7334  153.8705 H   0  0  0  0  0  0  0  0  0  0  0  0
  146.3615  137.4706  154.1179 H   0  0  0  0  0  0  0  0  0  0  0  0
  148.0722  133.1180  156.2748 H   0  0  0  0  0  0  0  0  0  0  0  0
  147.0950  133.6531  154.9167 H   0  0  0  0  0  0  0  0  0  0  0  0
  146.8038  134.3073  156.5345 H   0  0  0  0  0  0  0  0  0  0  0  0
  149.5077  142.0572  157.4800 H   0  0  0  0  0  0  0  0  0  0  0  0
  150.5941  143.4117  157.1651 H   0  0  0  0  0  0  0  0  0  0  0  0
  149.6568  143.3377  158.6625 H   0  0  0  0  0  0  0  0  0  0  0  0
  1  2  1  0  0  0  0
  1 26  1  0  0  0  0
  1 27  1  0  0  0  0
  1 28  1  0  0  0  0
  2 24  1  0  0  0  0
  2  3  2  0  0  0  0
  3  4  1  0  0  0  0
  3 29  1  0  0  0  0
  4  5  2  0  0  0  0
  4 30  1  0  0  0  0
  5  6  1  0  0  0  0
  5  7  1  0  0  0  0
  6 31  1  0  0  0  0
  6 32  1  0  0  0  0
  6 33  1  0  0  0  0
  7  8  1  0  0  0  0
  7 24  2  0  0  0  0
  8  9  1  0  0  0  0
  9 10  1  0  0  0  0
  9 34  1  0  0  0  0
  9 35  1  0  0  0  0
 10 11  1  0  0  0  0
 10 12  1  0  0  0  0
 10 36  1  0  0  0  0
 11 37  1  0  0  0  0
 12 13  1  0  0  0  0
 12 38  1  0  0  0  0
 12 39  1  0  0  0  0
 13 22  1  0  0  0  0
 13 14  1  0  0  0  0
 14 15  2  0  0  0  0
 15 16  1  0  0  0  0
 15 17  1  0  0  0  0
 16 40  1  0  0  0  0
 16 41  1  0  0  0  0
 16 42  1  0  0  0  0
 17 18  1  0  0  0  0
 17 19  2  0  0  0  0
 18 43  1  0  0  0  0
 18 44  1  0  0  0  0
 18 45  1  0  0  0  0
 19 20  1  0  0  0  0
 19 22  1  0  0  0  0
 20 21  3  0  0  0  0
 22 23  2  0  0  0  0
 24 25  1  0  0  0  0
 25 46  1  0  0  0  0
 25 47  1  0  0  0  0
 25 48  1  0  0  0  0
M  END
> <s_m_source_file>
AV-unprocessed.smi

> <i_m_source_file_index>
1611

> <i_lp_mmshare_version>
43012

> <i_f3d_flags>
0

> <s_epik_input>
W0NIM11jMVtjSF1bY0hdYyhbQ0gzXSljKGMxW0NIM10pT1tDSDJdW0NASF0oW09IXSlbQ0gyXW4ybmMoW0NIM10pYyhbQ0gzXSljKEMjTiljMj1P

> <s_epik_cmdline>
J2VwaWtfcHl0aG9uJywgJy1waCcsICc3LjAnLCAnLXRuJywgJzgnLCAnLW1hJywgJzIwMCcsICctbWV0YWxfYmluZGluZycsICctaW1hZScsICc8aW5maWxlLm1hZT4nLCAnLW9tYWUnLCAnPG91dGZpbGUubWFlPic=

> <r_lp_tautomer_probability>
1

> <r_epik_Ionization_Penalty>
1.17331e-07

> <r_epik_Ionization_Penalty_Charging>
1.57223e-10

> <r_epik_Ionization_Penalty_Neutral>
1.17174e-07

> <r_epik_State_Penalty>
-0

> <r_epik_Charging_Adjusted_Penalty>
1.57223e-10

> <i_epik_Tot_Q>
0

> <i_epik_Tot_abs_Q>
0

> <r_epik_Metal_State_Penalty>
-0

> <b_epik_Metal_Only>
0

> <s_lp_Force_Field>
OPLS_2005

> <r_lp_Energy>
37.4128

> <b_lp_Chiralities_Consistent>
1

> <s_lp_Variant>
AV-unprocessed.smi:1611-2

> <Gold.Version>
5.8.1

> <Gold.Id.Protein>
6NUR|6NUR_protein|mol2

> <Gold.PLP.Fitness>
49.4720

> <Gold.PLP.PLP>
-41.7339

> <Gold.PLP.part.hbond>
-3.5435

> <Gold.PLP.part.metal>
0.0000

> <Gold.PLP.part.buried>
-4.3167

> <Gold.PLP.part.nonpolar>
-33.8847

> <Gold.PLP.part.repulsive>
0.2394

> <Gold.PLP.ligand.clash>
0.0241

> <Gold.PLP.ligand.torsion>
1.0959

> <Gold.PLP.Chemscore.Hbond>
3.2830

> <Gold.PLP.Chemscore.CHOScore>
0.0000

> <Gold.PLP.Chemscore.Metal>
0.0000

> <Gold.Chemscore.Hbonds>
donor molecule, donor type, donor heavy atom, donor atom, acceptor molecule, acceptor atom, score
      L1  H    11    37       P1  7957  0.51
      P1  H  6896  6907       L1    21  0.20
      P1  H  7989  7998       L1    11  0.61
      P1  H  8011  8017       L1    11  0.01
      P1  H 10752 10765       L1    23  1.00

> <Gold.PLP.Chemscore.Internal.Correction>
0.1049

> <Gold.Rescore>
     Score         DG    S(hbond)    S(metal)    S(lipo)     H(rot)  DE(clash)    DE(int)     intcor
     20.42     -21.79       2.98        0.00     103.87       2.27       0.05       1.32       ----

> <Gold.Chemscore.Fitness>
20.4200

> <Gold.Chemscore.DG>
-21.7852

> <Gold.Chemscore.ZeroCoef>
-5.4800

> <Gold.Chemscore.Hbond>
2.9836

> <Gold.Chemscore.Metal>
0.0000

> <Gold.Chemscore.Lipo>
103.8680

> <Gold.Chemscore.Internal_Hbond>
0.0000

> <Gold.Chemscore.DEClash>
0.0461

> <Gold.Chemscore.DEInternal>
1.3191

> <Gold.Chemscore.Rot>
2.2706

> <Gold.Chemscore.Internal.Correction>
   9.000000E+99

> <Gold.Chemscore.Hbonds>
donor molecule, donor type, donor heavy atom, donor atom, acceptor molecule, acceptor atom, score
      L1  H    11    37       P1  7957  0.51
      P1  H  6896  6907       L1    21  0.09
      P1  H  7989  7998       L1    11  0.12
      P1  H 10752 10765       L1    23  0.92

> <Gold.Chemscore.Hbond.Weighted>
-9.9654

> <Gold.Chemscore.Metal.Weighted>
-0.0000

> <Gold.Chemscore.Lipo.Weighted>
-12.1526

> <Gold.Chemscore.Internal_Hbond.Weighted>
0.0000

> <Gold.Chemscore.DEClash.Weighted>
0.0461

> <Gold.Chemscore.DEInternal.Weighted>
1.3191

> <Gold.Chemscore.Rot.Weighted>
5.8127

> <Gold.Chemscore.Internal.Correction.Weighted>
   9.000000E+99

> <Gold.Protein.RotatedTorsions>
[ 6907 6896 6895 6894 ] final -142.98 input  -60.11 | X-H torsion
[ 7974 7965 7964 7962 ] final   72.33 input  175.53 | X-H torsion
[ 8008 7997 7996 7995 ] final   18.95 input   59.86 | X-H torsion
[ 10167 10162 10161 10158 ] final  -16.69 input  -65.29 | X-H torsion
[ 10718 10713 10712 10709 ] final  -38.31 input   66.30 | X-H torsion
[ 10763 10752 10751 10750 ] final -175.82 input  -60.55 | X-H torsion
[ 11005 11000 10999 10996 ] final  -40.01 input  -57.11 | X-H torsion

> <Gold.Protein.ActiveResidues>
 VAL166  LYS551  ARG553  GLY616  TRP617  ASP618  TYR619  PRO620  LYS621  CYS622 
 ASP623  PHE694  ASN695  SER759  ASP760  ASP761  ALA762  ILE779  LEU786  VAL792 
 PHE793  MET794  SER795  GLU796  ALA797  LYS798  CYS799  TRP800  GLU811  SER814 

> <Gold.Protein.RotatedAtoms>
  151.0944  133.5291  159.2612 H   0  0  0  0  0  0  0  0  0  0  0  0  # atno 6907 bound_to 6896
  151.2146  135.0494  159.8935 H   0  0  0  0  0  0  0  0  0  0  0  0  # atno 6908 bound_to 6896
  152.5437  134.0754  159.8266 H   0  0  0  0  0  0  0  0  0  0  0  0  # atno 6909 bound_to 6896
  145.7547  139.2775  143.1411 H   0  0  0  0  0  0  0  0  0  0  0  0  # atno 7974 bound_to 7965
  154.9136  140.3017  155.5253 H   0  0  0  0  0  0  0  0  0  0  0  0  # atno 8008 bound_to 7997
  156.3013  140.2384  156.4114 H   0  0  0  0  0  0  0  0  0  0  0  0  # atno 8009 bound_to 7997
  154.8401  140.0414  157.1524 H   0  0  0  0  0  0  0  0  0  0  0  0  # atno 8010 bound_to 7997
  140.7237  143.5090  150.9773 H   0  0  0  0  0  0  0  0  0  0  0  0  # atno 10167 bound_to 10162
  156.3052  130.4245  149.8104 H   0  0  0  0  0  0  0  0  0  0  0  0  # atno 10718 bound_to 10713
  154.5798  135.2835  155.0744 H   0  0  0  0  0  0  0  0  0  0  0  0  # atno 10763 bound_to 10752
  154.2084  135.6412  153.5112 H   0  0  0  0  0  0  0  0  0  0  0  0  # atno 10764 bound_to 10752
  153.0084  135.5486  154.6448 H   0  0  0  0  0  0  0  0  0  0  0  0  # atno 10765 bound_to 10752
  141.0143  133.6893  156.2263 H   0  0  0  0  0  0  0  0  0  0  0  0  # atno 11005 bound_to 11000
  146.0323  140.8246  142.9870 LP  0  0  0  0  0  0  0  0  0  0  0  0  # atno 17320 bound_to 7965
  144.6842  140.2786  143.7295 LP  0  0  0  0  0  0  0  0  0  0  0  0  # atno 17321 bound_to 7965
  139.8803  143.7080  152.3157 LP  0  0  0  0  0  0  0  0  0  0  0  0  # atno 17342 bound_to 10162
  139.7360  144.7571  151.0727 LP  0  0  0  0  0  0  0  0  0  0  0  0  # atno 17343 bound_to 10162
  156.5468  130.8324  151.3287 LP  0  0  0  0  0  0  0  0  0  0  0  0  # atno 17370 bound_to 10713
  157.7378  130.9801  150.2213 LP  0  0  0  0  0  0  0  0  0  0  0  0  # atno 17371 bound_to 10713
  140.6681  134.4897  157.5586 LP  0  0  0  0  0  0  0  0  0  0  0  0  # atno 17394 bound_to 11000
  139.9108  134.8349  156.1536 LP  0  0  0  0  0  0  0  0  0  0  0  0  # atno 17395 bound_to 11000

$$$$
