AV-unprocessed.smi:2829|AV-procd|sdf|10900|dock9
  -GOLD-   2272015343D 1   1.00000     0.00000
 Structure written by MMmdl.
 50 53  0  0  0  0  0  0  0  0  1 V2000
  154.7697  132.6565  159.0360 C   0  0  0  0  0  0  0  0  0  0  0  0
  155.3147  133.3126  160.3216 C   0  0  0  0  0  0  0  0  0  0  0  0
  154.8520  132.5113  161.5563 C   0  0  0  0  0  0  0  0  0  0  0  0
  156.8571  133.2313  160.2662 C   0  0  0  0  0  0  0  0  0  0  0  0
  154.8045  134.7615  160.4213 C   0  0  0  0  0  0  0  0  0  0  0  0
  155.1452  135.6310  161.4820 C   0  0  0  0  0  0  0  0  0  0  0  0
  154.6178  136.9330  161.4555 C   0  0  0  0  0  0  0  0  0  0  0  0
  153.7838  137.2982  160.3800 C   0  0  0  0  0  0  0  0  0  0  0  0
  153.2980  138.6302  160.4147 N   0  0  0  0  0  0  0  0  0  0  0  0
  153.1173  139.4805  159.3851 C   0  0  0  0  0  0  0  0  0  0  0  0
  153.2642  139.1887  158.1998 O   0  0  0  0  0  0  0  0  0  0  0  0
  152.7462  140.7181  159.7582 N   0  0  0  0  0  0  0  0  0  0  0  0
  152.4730  141.8633  158.8887 C   0  0  2  0  0  0  0  0  0  0  0  0
  151.8449  143.0434  159.6544 C   0  0  1  0  0  0  0  0  0  0  0  0
  152.5862  144.3490  159.7606 C   0  0  0  0  0  0  0  0  0  0  0  0
  151.9657  145.1869  158.6391 C   0  0  0  0  0  0  0  0  0  0  0  0
  151.4224  144.2298  157.7330 O   0  0  0  0  0  0  0  0  0  0  0  0
  150.8475  143.1837  158.5101 C   0  0  1  0  0  0  0  0  0  0  0  0
  151.1776  141.7572  158.0540 C   0  0  0  0  0  0  0  0  0  0  0  0
  150.1400  140.6344  158.2473 C   0  0  0  0  0  0  0  0  0  0  0  0
  150.5829  140.0401  156.9079 C   0  0  0  0  0  0  0  0  0  0  0  0
  151.2160  141.3916  156.5632 C   0  0  0  0  0  0  0  0  0  0  0  0
  153.4964  136.4111  159.3949 N   0  0  0  0  0  0  0  0  0  0  0  0
  153.9950  135.1715  159.4142 N   0  0  0  0  0  0  0  0  0  0  0  0
  155.1302  131.6330  158.9283 H   0  0  0  0  0  0  0  0  0  0  0  0
  155.0793  133.2093  158.1482 H   0  0  0  0  0  0  0  0  0  0  0  0
  153.6799  132.6142  159.0330 H   0  0  0  0  0  0  0  0  0  0  0  0
  153.7647  132.4631  161.6241 H   0  0  0  0  0  0  0  0  0  0  0  0
  155.2189  132.9611  162.4798 H   0  0  0  0  0  0  0  0  0  0  0  0
  155.2166  131.4841  161.5235 H   0  0  0  0  0  0  0  0  0  0  0  0
  157.1958  132.1968  160.1965 H   0  0  0  0  0  0  0  0  0  0  0  0
  157.3158  133.6568  161.1596 H   0  0  0  0  0  0  0  0  0  0  0  0
  157.2580  133.7555  159.3979 H   0  0  0  0  0  0  0  0  0  0  0  0
  155.7872  135.3361  162.2974 H   0  0  0  0  0  0  0  0  0  0  0  0
  154.8536  137.6340  162.2432 H   0  0  0  0  0  0  0  0  0  0  0  0
  153.1155  139.0024  161.3349 H   0  0  0  0  0  0  0  0  0  0  0  0
  152.6357  140.8786  160.7492 H   0  0  0  0  0  0  0  0  0  0  0  0
  153.3250  142.1874  158.2873 H   0  0  0  0  0  0  0  0  0  0  0  0
  151.3470  142.7279  160.5734 H   0  0  0  0  0  0  0  0  0  0  0  0
  152.4612  144.8251  160.7334 H   0  0  0  0  0  0  0  0  0  0  0  0
  153.6541  144.2060  159.5927 H   0  0  0  0  0  0  0  0  0  0  0  0
  151.1558  145.8067  159.0269 H   0  0  0  0  0  0  0  0  0  0  0  0
  152.6897  145.8382  158.1491 H   0  0  0  0  0  0  0  0  0  0  0  0
  149.8209  143.3705  158.8285 H   0  0  0  0  0  0  0  0  0  0  0  0
  150.2928  139.9807  159.1057 H   0  0  0  0  0  0  0  0  0  0  0  0
  149.1141  141.0038  158.2132 H   0  0  0  0  0  0  0  0  0  0  0  0
  151.3171  139.2420  157.0203 H   0  0  0  0  0  0  0  0  0  0  0  0
  149.7645  139.7428  156.2519 H   0  0  0  0  0  0  0  0  0  0  0  0
  150.5607  142.0209  155.9592 H   0  0  0  0  0  0  0  0  0  0  0  0
  152.2167  141.3252  156.1353 H   0  0  0  0  0  0  0  0  0  0  0  0
  1  2  1  0  0  0  0
  1 25  1  0  0  0  0
  1 26  1  0  0  0  0
  1 27  1  0  0  0  0
  2  3  1  0  0  0  0
  2  4  1  0  0  0  0
  2  5  1  0  0  0  0
  3 28  1  0  0  0  0
  3 29  1  0  0  0  0
  3 30  1  0  0  0  0
  4 31  1  0  0  0  0
  4 32  1  0  0  0  0
  4 33  1  0  0  0  0
  5 24  1  0  0  0  0
  5  6  2  0  0  0  0
  6  7  1  0  0  0  0
  6 34  1  0  0  0  0
  7  8  2  0  0  0  0
  7 35  1  0  0  0  0
  8  9  1  0  0  0  0
  8 23  1  0  0  0  0
  9 10  1  0  0  0  0
  9 36  1  0  0  0  0
 10 11  2  0  0  0  0
 10 12  1  0  0  0  0
 12 13  1  0  0  0  0
 12 37  1  0  0  0  0
 13 19  1  0  0  0  0
 13 14  1  0  0  0  0
 13 38  1  0  0  0  0
 14 18  1  0  0  0  0
 14 15  1  0  0  0  0
 14 39  1  0  0  0  0
 15 16  1  0  0  0  0
 15 40  1  0  0  0  0
 15 41  1  0  0  0  0
 16 17  1  0  0  0  0
 16 42  1  0  0  0  0
 16 43  1  0  0  0  0
 17 18  1  0  0  0  0
 18 19  1  0  0  0  0
 18 44  1  0  0  0  0
 19 22  1  0  0  0  0
 19 20  1  0  0  0  0
 20 21  1  0  0  0  0
 20 45  1  0  0  0  0
 20 46  1  0  0  0  0
 21 22  1  0  0  0  0
 21 47  1  0  0  0  0
 21 48  1  0  0  0  0
 22 49  1  0  0  0  0
 22 50  1  0  0  0  0
 23 24  2  0  0  0  0
M  END
> <s_m_source_file>
AV-unprocessed.smi

> <i_m_source_file_index>
2829

> <i_lp_mmshare_version>
43012

> <i_f3d_flags>
0

> <s_epik_input>
W0NIM11DKFtDSDNdKShbQ0gzXSljMVtjSF1bY0hdYyhubjEpW05IXUMoPU8pW05IXVtDQEBIXTJbQ0BIXShbQ0gyXVtDSDJdTzMpW0NAQEhdM0MyNFtDSDJdW0NIMl1bQ0gyXTQ=

> <s_epik_cmdline>
J2VwaWtfcHl0aG9uJywgJy1waCcsICc3LjAnLCAnLXRuJywgJzgnLCAnLW1hJywgJzIwMCcsICctbWV0YWxfYmluZGluZycsICctaW1hZScsICc8aW5maWxlLm1hZT4nLCAnLW9tYWUnLCAnPG91dGZpbGUubWFlPic=

> <r_lp_tautomer_probability>
1

> <r_epik_Ionization_Penalty>
0.011915

> <r_epik_Ionization_Penalty_Charging>
0

> <r_epik_Ionization_Penalty_Neutral>
0.011915

> <r_epik_State_Penalty>
0.00486223

> <r_epik_Charging_Adjusted_Penalty>
0.00486223

> <i_epik_Tot_Q>
0

> <i_epik_Tot_abs_Q>
0

> <r_epik_Metal_State_Penalty>
-0

> <b_epik_Metal_Only>
0

> <s_lp_Force_Field>
OPLS_2005

> <r_lp_Energy>
59.5843

> <b_lp_Chiralities_Consistent>
1

> <s_lp_Variant>
AV-unprocessed.smi:2829-3

> <Gold.Version>
5.8.1

> <Gold.Id.Protein>
6NUR|6NUR_protein|mol2

> <Gold.PLP.Fitness>
40.0357

> <Gold.PLP.PLP>
-34.6142

> <Gold.PLP.part.hbond>
-2.7478

> <Gold.PLP.part.metal>
0.0000

> <Gold.PLP.part.buried>
-6.3470

> <Gold.PLP.part.nonpolar>
-25.6319

> <Gold.PLP.part.repulsive>
0.3258

> <Gold.PLP.ligand.clash>
0.0000

> <Gold.PLP.ligand.torsion>
0.3749

> <Gold.PLP.Chemscore.Hbond>
1.9920

> <Gold.PLP.Chemscore.CHOScore>
0.0000

> <Gold.PLP.Chemscore.Metal>
0.0000

> <Gold.Chemscore.Hbonds>
donor molecule, donor type, donor heavy atom, donor atom, acceptor molecule, acceptor atom, score
      P1  H  6896  6908       L1    24  0.80
      P1  H  7997  8010       L1    11  0.96

> <Gold.PLP.Chemscore.Internal.Correction>
0.1953

> <Gold.Rescore>
     Score         DG    S(hbond)    S(metal)    S(lipo)     H(rot)  DE(clash)    DE(int)     intcor
     17.19     -18.65       1.21        0.00     103.45       1.16       0.16       1.30       ----

> <Gold.Chemscore.Fitness>
17.1860

> <Gold.Chemscore.DG>
-18.6520

> <Gold.Chemscore.ZeroCoef>
-5.4800

> <Gold.Chemscore.Hbond>
1.2102

> <Gold.Chemscore.Metal>
0.0000

> <Gold.Chemscore.Lipo>
103.4547

> <Gold.Chemscore.Internal_Hbond>
0.0000

> <Gold.Chemscore.DEClash>
0.1624

> <Gold.Chemscore.DEInternal>
1.3036

> <Gold.Chemscore.Rot>
1.1618

> <Gold.Chemscore.Internal.Correction>
   9.000000E+99

> <Gold.Chemscore.Hbonds>
donor molecule, donor type, donor heavy atom, donor atom, acceptor molecule, acceptor atom, score
      P1  H  6896  6908       L1    24  0.05
      P1  H  7997  8010       L1    11  0.83

> <Gold.Chemscore.Hbond.Weighted>
-4.0420

> <Gold.Chemscore.Metal.Weighted>
-0.0000

> <Gold.Chemscore.Lipo.Weighted>
-12.1042

> <Gold.Chemscore.Internal_Hbond.Weighted>
0.0000

> <Gold.Chemscore.DEClash.Weighted>
0.1624

> <Gold.Chemscore.DEInternal.Weighted>
1.3036

> <Gold.Chemscore.Rot.Weighted>
2.9741

> <Gold.Chemscore.Internal.Correction.Weighted>
   9.000000E+99

> <Gold.Protein.RotatedTorsions>
[ 6907 6896 6895 6894 ] final  -27.34 input  -60.11 | X-H torsion
[ 7974 7965 7964 7962 ] final  133.32 input  175.53 | X-H torsion
[ 8008 7997 7996 7995 ] final   13.38 input   59.86 | X-H torsion
[ 10167 10162 10161 10158 ] final  -94.27 input  -65.29 | X-H torsion
[ 10718 10713 10712 10709 ] final -112.83 input   66.30 | X-H torsion
[ 10763 10752 10751 10750 ] final   70.53 input  -60.55 | X-H torsion
[ 11005 11000 10999 10996 ] final  -47.97 input  -57.11 | X-H torsion

> <Gold.Protein.ActiveResidues>
 VAL166  LYS551  ARG553  GLY616  TRP617  ASP618  TYR619  PRO620  LYS621  CYS622 
 ASP623  PHE694  ASN695  SER759  ASP760  ASP761  ALA762  ILE779  LEU786  VAL792 
 PHE793  MET794  SER795  GLU796  ALA797  LYS798  CYS799  TRP800  GLU811  SER814 

> <Gold.Protein.RotatedAtoms>
  151.1483  135.0214  159.8656 H   0  0  0  0  0  0  0  0  0  0  0  0  # atno 6907 bound_to 6896
  152.5453  134.1418  159.8492 H   0  0  0  0  0  0  0  0  0  0  0  0  # atno 6908 bound_to 6896
  151.1501  133.4867  159.2628 H   0  0  0  0  0  0  0  0  0  0  0  0  # atno 6909 bound_to 6896
  144.9877  139.4438  143.5354 H   0  0  0  0  0  0  0  0  0  0  0  0  # atno 7974 bound_to 7965
  154.8336  140.2903  155.5706 H   0  0  0  0  0  0  0  0  0  0  0  0  # atno 8008 bound_to 7997
  156.3007  140.2527  156.3197 H   0  0  0  0  0  0  0  0  0  0  0  0  # atno 8009 bound_to 7997
  154.9204  140.0386  157.1984 H   0  0  0  0  0  0  0  0  0  0  0  0  # atno 8010 bound_to 7997
  140.3161  143.3076  152.0096 H   0  0  0  0  0  0  0  0  0  0  0  0  # atno 10167 bound_to 10162
  156.0729  130.5940  150.8560 H   0  0  0  0  0  0  0  0  0  0  0  0  # atno 10718 bound_to 10713
  153.0347  135.5170  154.7455 H   0  0  0  0  0  0  0  0  0  0  0  0  # atno 10763 bound_to 10752
  154.6442  135.2916  155.0069 H   0  0  0  0  0  0  0  0  0  0  0  0  # atno 10764 bound_to 10752
  154.0976  135.6641  153.4915 H   0  0  0  0  0  0  0  0  0  0  0  0  # atno 10765 bound_to 10752
  141.0673  133.6690  156.3374 H   0  0  0  0  0  0  0  0  0  0  0  0  # atno 11005 bound_to 11000
  146.3424  139.9190  142.8769 LP  0  0  0  0  0  0  0  0  0  0  0  0  # atno 17320 bound_to 7965
  145.2329  140.9980  143.3980 LP  0  0  0  0  0  0  0  0  0  0  0  0  # atno 17321 bound_to 7965
  139.4883  144.6347  151.6999 LP  0  0  0  0  0  0  0  0  0  0  0  0  # atno 17342 bound_to 10162
  140.5525  144.0402  150.6133 LP  0  0  0  0  0  0  0  0  0  0  0  0  # atno 17343 bound_to 10162
  157.5809  131.0946  150.9272 LP  0  0  0  0  0  0  0  0  0  0  0  0  # atno 17370 bound_to 10713
  156.9467  130.5405  149.5281 LP  0  0  0  0  0  0  0  0  0  0  0  0  # atno 17371 bound_to 10713
  140.5747  134.5805  157.5466 LP  0  0  0  0  0  0  0  0  0  0  0  0  # atno 17394 bound_to 11000
  139.9489  134.7653  156.0496 LP  0  0  0  0  0  0  0  0  0  0  0  0  # atno 17395 bound_to 11000

$$$$
