AV-unprocessed.smi:54|AV-procd|sdf|534|dock6
  -GOLD-   2262016413D 1   1.00000     0.00000
 Structure written by MMmdl.
 44 46  0  0  0  0  0  0  0  0  1 V2000
  152.8445  144.4441  158.8708 C   0  0  0  0  0  0  0  0  0  0  0  0
  151.3148  144.4938  159.0165 C   0  0  0  0  0  0  0  0  0  0  0  0
  150.9003  144.6936  160.4835 C   0  0  0  0  0  0  0  0  0  0  0  0
  150.6768  143.2242  158.4407 C   0  0  0  0  0  0  0  0  0  0  0  0
  149.8940  142.5335  159.0944 O   0  0  0  0  0  0  0  0  0  0  0  0
  151.0658  142.8938  157.0807 N   0  0  0  0  0  0  0  0  0  0  0  0
  150.6649  141.8316  156.3436 C   0  0  0  0  0  0  0  0  0  0  0  0
  151.0652  140.5900  156.5800 N   0  0  0  0  0  0  0  0  0  0  0  0
  150.5539  139.6552  155.7236 C   0  0  0  0  0  0  0  0  0  0  0  0
  149.6868  139.8843  154.6766 C   0  0  0  0  0  0  0  0  0  0  0  0
  149.3914  138.6893  154.0301 N   0  0  0  0  0  0  0  0  0  0  0  0
  150.0754  137.7949  154.6886 C   0  0  0  0  0  0  0  0  0  0  0  0
  150.8168  138.3025  155.7308 N   0  0  0  0  0  0  0  0  0  0  0  0
  151.7115  137.5959  156.7053 C   0  0  1  0  0  0  0  0  0  0  0  0
  152.6942  138.4900  157.1333 O   0  0  0  0  0  0  0  0  0  0  0  0
  152.3577  138.9909  158.4219 C   0  0  2  0  0  0  0  0  0  0  0  0
  153.5854  139.5924  159.1268 C   0  0  0  0  0  0  0  0  0  0  0  0
  154.7485  138.8814  158.7609 O   0  0  0  0  0  0  0  0  0  0  0  0
  151.7429  137.7597  159.0983 C   0  0  2  0  0  0  0  0  0  0  0  0
  152.7517  136.8852  159.5707 O   0  0  0  0  0  0  0  0  0  0  0  0
  150.9552  137.1087  157.9672 C   0  0  1  0  0  0  0  0  0  0  0  0
  149.6011  137.5232  158.0290 O   0  0  0  0  0  0  0  0  0  0  0  0
  149.2383  141.2210  154.4122 C   0  0  0  0  0  0  0  0  0  0  0  0
  148.4716  141.6076  153.5329 O   0  0  0  0  0  0  0  0  0  0  0  0
  149.7859  142.1491  155.3078 N   0  0  0  0  0  0  0  0  0  0  0  0
  152.1639  136.7898  156.1263 H   0  0  0  0  0  0  0  0  0  0  0  0
  151.5770  139.7474  158.3210 H   0  0  0  0  0  0  0  0  0  0  0  0
  151.1134  138.0354  159.9460 H   0  0  0  0  0  0  0  0  0  0  0  0
  150.9846  136.0192  158.0151 H   0  0  0  0  0  0  0  0  0  0  0  0
  153.1391  144.2897  157.8321 H   0  0  0  0  0  0  0  0  0  0  0  0
  153.2785  143.6380  159.4638 H   0  0  0  0  0  0  0  0  0  0  0  0
  153.2977  145.3786  159.2028 H   0  0  0  0  0  0  0  0  0  0  0  0
  150.9506  145.3478  158.4436 H   0  0  0  0  0  0  0  0  0  0  0  0
  149.8154  144.7316  160.5879 H   0  0  0  0  0  0  0  0  0  0  0  0
  151.2987  145.6295  160.8766 H   0  0  0  0  0  0  0  0  0  0  0  0
  151.2687  143.8868  161.1187 H   0  0  0  0  0  0  0  0  0  0  0  0
  151.7204  143.5258  156.6438 H   0  0  0  0  0  0  0  0  0  0  0  0
  150.0516  136.7466  154.4286 H   0  0  0  0  0  0  0  0  0  0  0  0
  153.7247  140.6290  158.8185 H   0  0  0  0  0  0  0  0  0  0  0  0
  153.4656  139.5874  160.2107 H   0  0  0  0  0  0  0  0  0  0  0  0
  154.4883  138.0776  158.3378 H   0  0  0  0  0  0  0  0  0  0  0  0
  153.4638  137.4049  159.9110 H   0  0  0  0  0  0  0  0  0  0  0  0
  149.1162  136.8806  158.5241 H   0  0  0  0  0  0  0  0  0  0  0  0
  149.5164  143.1132  155.1774 H   0  0  0  0  0  0  0  0  0  0  0  0
  1  2  1  0  0  0  0
  1 30  1  0  0  0  0
  1 31  1  0  0  0  0
  1 32  1  0  0  0  0
  2  3  1  0  0  0  0
  2  4  1  0  0  0  0
  2 33  1  0  0  0  0
  3 34  1  0  0  0  0
  3 35  1  0  0  0  0
  3 36  1  0  0  0  0
  4  5  2  0  0  0  0
  4  6  1  0  0  0  0
  6 37  1  0  0  0  0
  6  7  1  0  0  0  0
  7 25  1  0  0  0  0
  7  8  2  0  0  0  0
  8  9  1  0  0  0  0
  9 13  1  0  0  0  0
  9 10  2  0  0  0  0
 10 11  1  0  0  0  0
 10 23  1  0  0  0  0
 11 12  2  0  0  0  0
 12 13  1  0  0  0  0
 12 38  1  0  0  0  0
 13 14  1  0  0  0  0
 14 26  1  0  0  0  0
 14 21  1  0  0  0  0
 14 15  1  0  0  0  0
 15 16  1  0  0  0  0
 16 27  1  0  0  0  0
 16 17  1  0  0  0  0
 16 19  1  0  0  0  0
 17 18  1  0  0  0  0
 17 39  1  0  0  0  0
 17 40  1  0  0  0  0
 18 41  1  0  0  0  0
 19 28  1  0  0  0  0
 19 20  1  0  0  0  0
 19 21  1  0  0  0  0
 20 42  1  0  0  0  0
 21 29  1  0  0  0  0
 21 22  1  0  0  0  0
 22 43  1  0  0  0  0
 23 24  2  0  0  0  0
 23 25  1  0  0  0  0
 25 44  1  0  0  0  0
M  END
> <s_m_source_file>
AV-unprocessed.smi

> <i_m_source_file_index>
54

> <i_lp_mmshare_version>
43012

> <i_f3d_flags>
0

> <s_epik_input>
W0NIM11bQ0hdKFtDSDNdKUMoPU8pW05IXWMobjEpW25IXWMoPU8pYyhjMTIpbltjSF1uMltDQEBIXTNPW0NASF0oW0NIMl1bT0hdKVtDQEBIXShbT0hdKVtDQEhdM1tPSF0=

> <s_epik_cmdline>
J2VwaWtfcHl0aG9uJywgJy1waCcsICc3LjAnLCAnLXRuJywgJzgnLCAnLW1hJywgJzIwMCcsICctbWV0YWxfYmluZGluZycsICctaW1hZScsICc8aW5maWxlLm1hZT4nLCAnLW9tYWUnLCAnPG91dGZpbGUubWFlPic=

> <r_lp_tautomer_probability>
0.85571

> <r_epik_Ionization_Penalty>
0.0316551

> <r_epik_Ionization_Penalty_Charging>
0.0316043

> <r_epik_Ionization_Penalty_Neutral>
5.07097e-05

> <r_epik_State_Penalty>
3.15494e-07

> <r_epik_Charging_Adjusted_Penalty>
0.0316047

> <i_epik_Tot_Q>
0

> <i_epik_Tot_abs_Q>
0

> <r_epik_Metal_State_Penalty>
0.421206

> <b_epik_Metal_Only>
0

> <s_epik_Chemistry_Notes>
This compound contains an acetal/aminal-like group ( X-CH(R)-Y where X, Y are N, S, or O) that may be acid/base labile, releasing an aldehyde.

> <s_lp_Force_Field>
OPLS_2005

> <r_lp_Energy>
41.1485

> <b_lp_Chiralities_Consistent>
1

> <s_lp_Variant>
AV-unprocessed.smi:54-6

> <Gold.Version>
5.8.1

> <Gold.Id.Protein>
6NUR|6NUR_protein|mol2

> <Gold.PLP.Fitness>
45.3425

> <Gold.PLP.PLP>
-37.3012

> <Gold.PLP.part.hbond>
-5.6986

> <Gold.PLP.part.metal>
0.0000

> <Gold.PLP.part.buried>
-5.4365

> <Gold.PLP.part.nonpolar>
-27.6914

> <Gold.PLP.part.repulsive>
1.4147

> <Gold.PLP.ligand.clash>
0.0000

> <Gold.PLP.ligand.torsion>
1.7591

> <Gold.PLP.Chemscore.Hbond>
3.6720

> <Gold.PLP.Chemscore.CHOScore>
0.1673

> <Gold.PLP.Chemscore.Metal>
0.0000

> <Gold.Chemscore.Hbonds>
donor molecule, donor type, donor heavy atom, donor atom, acceptor molecule, acceptor atom, score
      L1  H    25    44       P1  8028  1.00
      P1  H  6896  6907       L1    20  1.00
      P1  H  7997  8009       L1    18  1.00
      P1  H  8011  8017       L1    24  0.64
      L1  C    12    38       P1  7948  0.21

> <Gold.PLP.Chemscore.Internal.Correction>
0.0417

> <Gold.Rescore>
     Score         DG    S(hbond)    S(metal)    S(lipo)     H(rot)  DE(clash)    DE(int)     intcor
      5.00     -10.13       2.34        0.00      61.48       4.05       0.33       4.80       ----

> <Gold.Chemscore.Fitness>
5.0033

> <Gold.Chemscore.DG>
-10.1344

> <Gold.Chemscore.ZeroCoef>
-5.4800

> <Gold.Chemscore.Hbond>
2.3436

> <Gold.Chemscore.Metal>
0.0000

> <Gold.Chemscore.Lipo>
61.4779

> <Gold.Chemscore.Internal_Hbond>
0.0000

> <Gold.Chemscore.DEClash>
0.3335

> <Gold.Chemscore.DEInternal>
4.7976

> <Gold.Chemscore.Rot>
4.0493

> <Gold.Chemscore.Internal.Correction>
   9.000000E+99

> <Gold.Chemscore.Hbonds>
donor molecule, donor type, donor heavy atom, donor atom, acceptor molecule, acceptor atom, score
      L1  H    25    44       P1  8028  0.99
      P1  H  6896  6907       L1    20  0.56
      P1  H  7997  8009       L1    18  0.13
      P1  H  8011  8017       L1    24  0.14

> <Gold.Chemscore.Hbond.Weighted>
-7.8277

> <Gold.Chemscore.Metal.Weighted>
-0.0000

> <Gold.Chemscore.Lipo.Weighted>
-7.1929

> <Gold.Chemscore.Internal_Hbond.Weighted>
0.0000

> <Gold.Chemscore.DEClash.Weighted>
0.3335

> <Gold.Chemscore.DEInternal.Weighted>
4.7976

> <Gold.Chemscore.Rot.Weighted>
10.3662

> <Gold.Chemscore.Internal.Correction.Weighted>
   9.000000E+99

> <Gold.Protein.RotatedTorsions>
[ 6907 6896 6895 6894 ] final   15.38 input  -60.11 | X-H torsion
[ 7974 7965 7964 7962 ] final  103.86 input  175.53 | X-H torsion
[ 8008 7997 7996 7995 ] final  100.86 input   59.86 | X-H torsion
[ 10167 10162 10161 10158 ] final  -71.02 input  -65.29 | X-H torsion
[ 10718 10713 10712 10709 ] final  137.50 input   66.30 | X-H torsion
[ 10763 10752 10751 10750 ] final -176.28 input  -60.55 | X-H torsion
[ 11005 11000 10999 10996 ] final  146.15 input  -57.11 | X-H torsion

> <Gold.Protein.ActiveResidues>
 VAL166  LYS551  ARG553  GLY616  TRP617  ASP618  TYR619  PRO620  LYS621  CYS622 
 ASP623  PHE694  ASN695  SER759  ASP760  ASP761  ALA762  ILE779  LEU786  VAL792 
 PHE793  MET794  SER795  GLU796  ALA797  LYS798  CYS799  TRP800  GLU811  SER814 

> <Gold.Protein.RotatedAtoms>
  151.8172  135.0663  160.0420 H   0  0  0  0  0  0  0  0  0  0  0  0  # atno 6907 bound_to 6896
  152.2977  133.5620  159.5607 H   0  0  0  0  0  0  0  0  0  0  0  0  # atno 6908 bound_to 6896
  150.7259  134.0253  159.3757 H   0  0  0  0  0  0  0  0  0  0  0  0  # atno 6909 bound_to 6896
  145.3404  139.2463  143.3612 H   0  0  0  0  0  0  0  0  0  0  0  0  # atno 7974 bound_to 7965
  156.1244  140.3206  155.8255 H   0  0  0  0  0  0  0  0  0  0  0  0  # atno 8008 bound_to 7997
  155.4447  140.0528  157.3024 H   0  0  0  0  0  0  0  0  0  0  0  0  # atno 8009 bound_to 7997
  154.4851  140.2069  155.9687 H   0  0  0  0  0  0  0  0  0  0  0  0  # atno 8010 bound_to 7997
  140.5306  143.2322  151.7268 H   0  0  0  0  0  0  0  0  0  0  0  0  # atno 10167 bound_to 10162
  157.4354  131.1052  151.0204 H   0  0  0  0  0  0  0  0  0  0  0  0  # atno 10718 bound_to 10713
  154.5742  135.2830  155.0797 H   0  0  0  0  0  0  0  0  0  0  0  0  # atno 10763 bound_to 10752
  154.2158  135.6400  153.5133 H   0  0  0  0  0  0  0  0  0  0  0  0  # atno 10764 bound_to 10752
  153.0067  135.5502  154.6375 H   0  0  0  0  0  0  0  0  0  0  0  0  # atno 10765 bound_to 10752
  140.0770  134.9119  157.1439 H   0  0  0  0  0  0  0  0  0  0  0  0  # atno 11005 bound_to 11000
  146.3009  140.4000  142.8704 LP  0  0  0  0  0  0  0  0  0  0  0  0  # atno 17320 bound_to 7965
  144.8794  140.7381  143.5996 LP  0  0  0  0  0  0  0  0  0  0  0  0  # atno 17321 bound_to 7965
  139.4953  144.4119  152.0071 LP  0  0  0  0  0  0  0  0  0  0  0  0  # atno 17342 bound_to 10162
  140.3221  144.3415  150.6007 LP  0  0  0  0  0  0  0  0  0  0  0  0  # atno 17343 bound_to 10162
  157.1086  130.6012  149.5476 LP  0  0  0  0  0  0  0  0  0  0  0  0  # atno 17370 bound_to 10713
  155.9928  130.4987  150.7356 LP  0  0  0  0  0  0  0  0  0  0  0  0  # atno 17371 bound_to 10713
  140.3543  134.2564  155.7194 LP  0  0  0  0  0  0  0  0  0  0  0  0  # atno 17394 bound_to 11000
  141.2033  133.7916  157.0347 LP  0  0  0  0  0  0  0  0  0  0  0  0  # atno 17395 bound_to 11000

$$$$
