AV-unprocessed.smi:1576|AV-procd|sdf|6345|dock7
  -GOLD-   22720 6563D 1   1.00000     0.00000
 Structure written by MMmdl.
 46 48  0  0  0  0  0  0  0  0  2 V2000
  145.2924  138.2338  156.4544 O   0  0  0  0  0  0  0  0  0  0  0  0
  145.1777  138.9963  155.4952 C   0  0  0  0  0  0  0  0  0  0  0  0
  146.0145  140.0066  155.2015 N   0  0  0  0  0  0  0  0  0  0  0  0
  147.1617  140.4415  155.9187 C   0  0  0  0  0  0  0  0  0  0  0  0
  147.7724  139.7052  156.9628 C   0  0  0  0  0  0  0  0  0  0  0  0
  148.9002  140.2359  157.6225 C   0  0  0  0  0  0  0  0  0  0  0  0
  149.4133  141.5026  157.2446 C   0  0  0  0  0  0  0  0  0  0  0  0
  150.5338  142.1140  157.8524 N   0  0  0  0  0  0  0  0  0  0  0  0
  151.3678  141.2496  158.6944 C   0  0  0  0  0  0  0  0  0  0  0  0
  152.7487  141.8757  158.9530 C   0  0  0  0  0  0  0  0  0  0  0  0
  152.6155  143.2989  159.5110 C   0  0  0  0  0  0  0  0  0  0  0  0
  151.7655  144.1516  158.5599 C   0  0  0  0  0  0  0  0  0  0  0  0
  150.3955  143.5012  158.3016 C   0  0  0  0  0  0  0  0  0  0  0  0
  148.7814  142.1715  156.2495 N   0  3  0  0  0  0  0  0  0  0  0  0
  147.6995  141.7023  155.5922 C   0  0  0  0  0  0  0  0  0  0  0  0
  144.1918  138.9032  154.5918 N   0  0  0  0  0  0  0  0  0  0  0  0
  143.1256  137.9061  154.6163 C   0  0  2  0  0  0  0  0  0  0  0  0
  143.1162  137.0706  153.3228 C   0  0  0  0  0  0  0  0  0  0  0  0
  141.7908  136.3034  153.2439 C   0  0  0  0  0  0  0  0  0  0  0  0
  140.5430  137.3604  154.0718 S   0  0  0  0  0  0  0  0  0  0  0  0
  139.7236  138.0412  153.0580 O   0  0  0  0  0  0  0  0  0  0  0  0
  139.9186  136.5966  155.1623 O   0  0  0  0  0  0  0  0  0  0  0  0
  141.7416  138.5571  154.7709 C   0  0  0  0  0  0  0  0  0  0  0  0
  145.8365  140.4912  154.3339 H   0  0  0  0  0  0  0  0  0  0  0  0
  147.3932  138.7471  157.2826 H   0  0  0  0  0  0  0  0  0  0  0  0
  149.3539  139.6499  158.4072 H   0  0  0  0  0  0  0  0  0  0  0  0
  150.8514  141.0860  159.6411 H   0  0  0  0  0  0  0  0  0  0  0  0
  151.5162  140.2684  158.2444 H   0  0  0  0  0  0  0  0  0  0  0  0
  153.3150  141.2537  159.6466 H   0  0  0  0  0  0  0  0  0  0  0  0
  153.3187  141.8999  158.0231 H   0  0  0  0  0  0  0  0  0  0  0  0
  152.1510  143.2689  160.4974 H   0  0  0  0  0  0  0  0  0  0  0  0
  153.6009  143.7473  159.6407 H   0  0  0  0  0  0  0  0  0  0  0  0
  151.6310  145.1518  158.9725 H   0  0  0  0  0  0  0  0  0  0  0  0
  152.2939  144.2765  157.6137 H   0  0  0  0  0  0  0  0  0  0  0  0
  149.8749  144.0930  157.5483 H   0  0  0  0  0  0  0  0  0  0  0  0
  149.7920  143.5237  159.2098 H   0  0  0  0  0  0  0  0  0  0  0  0
  147.3029  142.3491  154.8226 H   0  0  0  0  0  0  0  0  0  0  0  0
  144.1761  139.5667  153.8310 H   0  0  0  0  0  0  0  0  0  0  0  0
  143.2838  137.2214  155.4519 H   0  0  0  0  0  0  0  0  0  0  0  0
  143.1822  137.7386  152.4628 H   0  0  0  0  0  0  0  0  0  0  0  0
  143.9716  136.3964  153.2685 H   0  0  0  0  0  0  0  0  0  0  0  0
  141.4834  136.0859  152.2210 H   0  0  0  0  0  0  0  0  0  0  0  0
  141.8545  135.3652  153.7954 H   0  0  0  0  0  0  0  0  0  0  0  0
  141.4885  138.7793  155.8078 H   0  0  0  0  0  0  0  0  0  0  0  0
  141.6683  139.4771  154.1900 H   0  0  0  0  0  0  0  0  0  0  0  0
  149.1431  143.0874  155.9825 H   0  0  0  0  0  0  0  0  0  0  0  0
  1  2  2  0  0  0  0
  2  3  1  0  0  0  0
  2 16  1  0  0  0  0
  3  4  1  0  0  0  0
  3 24  1  0  0  0  0
  4 15  1  0  0  0  0
  4  5  2  0  0  0  0
  5  6  1  0  0  0  0
  5 25  1  0  0  0  0
  6  7  2  0  0  0  0
  6 26  1  0  0  0  0
  7  8  1  0  0  0  0
  7 14  1  0  0  0  0
  8 13  1  0  0  0  0
  8  9  1  0  0  0  0
  9 10  1  0  0  0  0
  9 27  1  0  0  0  0
  9 28  1  0  0  0  0
 10 11  1  0  0  0  0
 10 29  1  0  0  0  0
 10 30  1  0  0  0  0
 11 12  1  0  0  0  0
 11 31  1  0  0  0  0
 11 32  1  0  0  0  0
 12 13  1  0  0  0  0
 12 33  1  0  0  0  0
 12 34  1  0  0  0  0
 13 35  1  0  0  0  0
 13 36  1  0  0  0  0
 14 15  2  0  0  0  0
 14 46  1  0  0  0  0
 15 37  1  0  0  0  0
 16 17  1  0  0  0  0
 16 38  1  0  0  0  0
 17 23  1  0  0  0  0
 17 18  1  0  0  0  0
 17 39  1  0  0  0  0
 18 19  1  0  0  0  0
 18 40  1  0  0  0  0
 18 41  1  0  0  0  0
 19 20  1  0  0  0  0
 19 42  1  0  0  0  0
 19 43  1  0  0  0  0
 20 21  2  0  0  0  0
 20 22  2  0  0  0  0
 20 23  1  0  0  0  0
 23 44  1  0  0  0  0
 23 45  1  0  0  0  0
M  CHG  1  14   1
M  END
> <s_m_source_file>
AV-unprocessed.smi

> <i_m_source_file_index>
1576

> <i_lp_mmshare_version>
43012

> <i_f3d_flags>
0

> <s_epik_input>
Tz1TMSg9TylbQ0gyXVtDSDJdW0NASF0oW0NIMl0xKVtOSF1DKD1PKVtOSF1jMltjSF1bY0hdYyhuW2NIXTIpTjNbQ0gyXVtDSDJdW0NIMl1bQ0gyXVtDSDJdMw==

> <s_epik_cmdline>
J2VwaWtfcHl0aG9uJywgJy1waCcsICc3LjAnLCAnLXRuJywgJzgnLCAnLW1hJywgJzIwMCcsICctbWV0YWxfYmluZGluZycsICctaW1hZScsICc8aW5maWxlLm1hZT4nLCAnLW9tYWUnLCAnPG91dGZpbGUubWFlPic=

> <r_lp_tautomer_probability>
0.999994

> <r_epik_Ionization_Penalty>
1.19724

> <r_epik_Ionization_Penalty_Charging>
1.19722

> <r_epik_Ionization_Penalty_Neutral>
2.11505e-05

> <r_epik_State_Penalty>
1.26251

> <r_epik_Charging_Adjusted_Penalty>
2.45973

> <i_epik_Tot_Q>
1

> <i_epik_Tot_abs_Q>
1

> <r_epik_Metal_State_Penalty>
1.33857

> <b_epik_Metal_Only>
0

> <s_lp_Force_Field>
OPLS_2005

> <r_lp_Energy>
26.9885

> <b_lp_Chiralities_Consistent>
1

> <s_lp_Variant>
AV-unprocessed.smi:1576-3

> <Gold.Version>
5.8.1

> <Gold.Id.Protein>
6NUR|6NUR_protein|mol2

> <Gold.PLP.Fitness>
41.7772

> <Gold.PLP.PLP>
-29.9182

> <Gold.PLP.part.hbond>
-3.0000

> <Gold.PLP.part.metal>
0.0000

> <Gold.PLP.part.buried>
-6.0007

> <Gold.PLP.part.nonpolar>
-21.4880

> <Gold.PLP.part.repulsive>
0.3477

> <Gold.PLP.ligand.clash>
0.0000

> <Gold.PLP.ligand.torsion>
0.3079

> <Gold.PLP.Chemscore.Hbond>
3.9840

> <Gold.PLP.Chemscore.CHOScore>
0.0000

> <Gold.PLP.Chemscore.Metal>
0.0000

> <Gold.Chemscore.Hbonds>
donor molecule, donor type, donor heavy atom, donor atom, acceptor molecule, acceptor atom, score
      L1  H    14    46       P1  8028  1.98
      L1  H    16    38       P1 10175  1.00
      P1  H 11000 11005       L1    22  1.00

> <Gold.PLP.Chemscore.Internal.Correction>
0.5229

> <Gold.Rescore>
     Score         DG    S(hbond)    S(metal)    S(lipo)     H(rot)  DE(clash)    DE(int)     intcor
     18.83     -20.44       2.91        0.00      72.11       1.25       0.08       1.52       ----

> <Gold.Chemscore.Fitness>
18.8322

> <Gold.Chemscore.DG>
-20.4352

> <Gold.Chemscore.ZeroCoef>
-5.4800

> <Gold.Chemscore.Hbond>
2.9076

> <Gold.Chemscore.Metal>
0.0000

> <Gold.Chemscore.Lipo>
72.1098

> <Gold.Chemscore.Internal_Hbond>
0.0000

> <Gold.Chemscore.DEClash>
0.0788

> <Gold.Chemscore.DEInternal>
1.5242

> <Gold.Chemscore.Rot>
1.2473

> <Gold.Chemscore.Internal.Correction>
   9.000000E+99

> <Gold.Chemscore.Hbonds>
donor molecule, donor type, donor heavy atom, donor atom, acceptor molecule, acceptor atom, score
      L1  H    14    46       P1  8028  0.94
      L1  H    16    38       P1 10175  1.00
      P1  H 11000 11005       L1    22  0.88

> <Gold.Chemscore.Hbond.Weighted>
-9.7115

> <Gold.Chemscore.Metal.Weighted>
-0.0000

> <Gold.Chemscore.Lipo.Weighted>
-8.4368

> <Gold.Chemscore.Internal_Hbond.Weighted>
0.0000

> <Gold.Chemscore.DEClash.Weighted>
0.0788

> <Gold.Chemscore.DEInternal.Weighted>
1.5242

> <Gold.Chemscore.Rot.Weighted>
3.1931

> <Gold.Chemscore.Internal.Correction.Weighted>
   9.000000E+99

> <Gold.Protein.RotatedTorsions>
[ 6907 6896 6895 6894 ] final -152.19 input  -60.11 | X-H torsion
[ 7974 7965 7964 7962 ] final  -77.50 input  175.53 | X-H torsion
[ 8008 7997 7996 7995 ] final -117.21 input   59.86 | X-H torsion
[ 10167 10162 10161 10158 ] final   43.08 input  -65.29 | X-H torsion
[ 10718 10713 10712 10709 ] final  -96.84 input   66.30 | X-H torsion
[ 10763 10752 10751 10750 ] final  177.00 input  -60.55 | X-H torsion
[ 11005 11000 10999 10996 ] final   69.28 input  -57.11 | X-H torsion

> <Gold.Protein.ActiveResidues>
 VAL166  LYS551  ARG553  GLY616  TRP617  ASP618  TYR619  PRO620  LYS621  CYS622 
 ASP623  PHE694  ASN695  SER759  ASP760  ASP761  ALA762  ILE779  LEU786  VAL792 
 PHE793  MET794  SER795  GLU796  ALA797  LYS798  CYS799  TRP800  GLU811  SER814 

> <Gold.Protein.RotatedAtoms>
  151.2241  133.4486  159.2601 H   0  0  0  0  0  0  0  0  0  0  0  0  # atno 6907 bound_to 6896
  151.0857  134.9885  159.8388 H   0  0  0  0  0  0  0  0  0  0  0  0  # atno 6908 bound_to 6896
  152.5429  134.2178  159.8828 H   0  0  0  0  0  0  0  0  0  0  0  0  # atno 6909 bound_to 6896
  145.5989  140.9413  143.1252 H   0  0  0  0  0  0  0  0  0  0  0  0  # atno 7974 bound_to 7965
  155.0801  140.0394  157.2636 H   0  0  0  0  0  0  0  0  0  0  0  0  # atno 8008 bound_to 7997
  154.6913  140.2654  155.6785 H   0  0  0  0  0  0  0  0  0  0  0  0  # atno 8009 bound_to 7997
  156.2730  140.2759  156.1493 H   0  0  0  0  0  0  0  0  0  0  0  0  # atno 8010 bound_to 7997
  140.3480  144.2387  150.6148 H   0  0  0  0  0  0  0  0  0  0  0  0  # atno 10167 bound_to 10162
  156.0070  130.5168  150.6285 H   0  0  0  0  0  0  0  0  0  0  0  0  # atno 10718 bound_to 10713
  154.4886  135.2778  155.1514 H   0  0  0  0  0  0  0  0  0  0  0  0  # atno 10763 bound_to 10752
  154.3195  135.6212  153.5505 H   0  0  0  0  0  0  0  0  0  0  0  0  # atno 10764 bound_to 10752
  152.9885  135.5739  154.5302 H   0  0  0  0  0  0  0  0  0  0  0  0  # atno 10765 bound_to 10752
  139.9662  134.6976  156.0540 H   0  0  0  0  0  0  0  0  0  0  0  0  # atno 11005 bound_to 11000
  144.7318  139.7702  143.7344 LP  0  0  0  0  0  0  0  0  0  0  0  0  # atno 17320 bound_to 7965
  146.1591  139.4699  143.0000 LP  0  0  0  0  0  0  0  0  0  0  0  0  # atno 17321 bound_to 7965
  140.5246  143.2257  151.8334 LP  0  0  0  0  0  0  0  0  0  0  0  0  # atno 17342 bound_to 10162
  139.4830  144.4795  151.9325 LP  0  0  0  0  0  0  0  0  0  0  0  0  # atno 17343 bound_to 10162
  157.4087  131.0820  151.1241 LP  0  0  0  0  0  0  0  0  0  0  0  0  # atno 17370 bound_to 10713
  157.1879  130.6339  149.5694 LP  0  0  0  0  0  0  0  0  0  0  0  0  # atno 17371 bound_to 10713
  141.1342  133.6579  156.3548 LP  0  0  0  0  0  0  0  0  0  0  0  0  # atno 17394 bound_to 11000
  140.5390  134.6138  157.5374 LP  0  0  0  0  0  0  0  0  0  0  0  0  # atno 17395 bound_to 11000

$$$$
