AV-unprocessed.smi:2061|AV-procd|sdf|8380|dock2
  -GOLD-   2272011 53D 1   1.00000     0.00000
 Structure written by MMmdl.
 45 46  0  0  0  0  0  0  0  0  3 V2000
  146.0615  134.3646  162.5903 C   0  0  0  0  0  0  0  0  0  0  0  0
  146.7616  135.2574  161.6233 C   0  0  0  0  0  0  0  0  0  0  0  0
  147.3447  135.0330  160.4085 C   0  0  0  0  0  0  0  0  0  0  0  0
  147.8140  136.3207  160.0309 C   0  0  0  0  0  0  0  0  0  0  0  0
  148.4730  136.6177  158.8999 N   0  5  0  0  0  0  0  0  0  0  0  0
  149.6351  137.3075  158.9512 C   0  0  0  0  0  0  0  0  0  0  0  0
  150.5620  137.1237  159.7437 O   0  0  0  0  0  0  0  0  0  0  0  0
  149.7265  138.2787  158.0315 N   0  0  0  0  0  0  0  0  0  0  0  0
  150.8503  139.1974  157.8727 C   0  0  0  0  0  0  0  0  0  0  0  0
  150.4298  140.6911  157.9410 C   0  0  2  0  0  0  0  0  0  0  0  0
  149.8141  141.1301  156.5894 C   0  0  0  0  0  0  0  0  0  0  0  0
  151.5841  141.5469  158.3718 N   0  3  1  0  0  0  0  0  0  0  0  0
  151.3207  143.0129  158.3726 C   0  0  0  0  0  0  0  0  0  0  0  0
  152.5694  143.8083  158.7998 C   0  0  1  0  0  0  0  0  0  0  0  0
  152.2894  145.3123  158.8963 C   0  0  0  0  0  0  0  0  0  0  0  0
  153.0029  143.3599  160.0764 O   0  0  0  0  0  0  0  0  0  0  0  0
  153.3692  141.9873  160.0653 C   0  0  1  0  0  0  0  0  0  0  0  0
  153.9198  141.6312  161.4510 C   0  0  0  0  0  0  0  0  0  0  0  0
  152.1339  141.1457  159.6960 C   0  0  0  0  0  0  0  0  0  0  0  0
  147.5567  137.2414  160.9451 N   0  0  0  0  0  0  0  0  0  0  0  0
  146.8754  136.5688  161.9667 O   0  0  0  0  0  0  0  0  0  0  0  0
  146.7794  133.7648  163.1495 H   0  0  0  0  0  0  0  0  0  0  0  0
  145.3854  133.6864  162.0696 H   0  0  0  0  0  0  0  0  0  0  0  0
  145.4743  134.9427  163.3042 H   0  0  0  0  0  0  0  0  0  0  0  0
  147.4193  134.0988  159.8723 H   0  0  0  0  0  0  0  0  0  0  0  0
  148.9479  138.3917  157.3985 H   0  0  0  0  0  0  0  0  0  0  0  0
  151.5924  138.9398  158.6267 H   0  0  0  0  0  0  0  0  0  0  0  0
  151.3161  138.9898  156.9090 H   0  0  0  0  0  0  0  0  0  0  0  0
  149.6472  140.8037  158.6928 H   0  0  0  0  0  0  0  0  0  0  0  0
  149.0056  140.4691  156.2781 H   0  0  0  0  0  0  0  0  0  0  0  0
  150.5593  141.1304  155.7931 H   0  0  0  0  0  0  0  0  0  0  0  0
  149.3700  142.1237  156.6452 H   0  0  0  0  0  0  0  0  0  0  0  0
  151.0441  143.3564  157.3765 H   0  0  0  0  0  0  0  0  0  0  0  0
  150.4847  143.2304  159.0397 H   0  0  0  0  0  0  0  0  0  0  0  0
  153.3698  143.6521  158.0741 H   0  0  0  0  0  0  0  0  0  0  0  0
  151.9653  145.7144  157.9360 H   0  0  0  0  0  0  0  0  0  0  0  0
  153.1844  145.8565  159.1991 H   0  0  0  0  0  0  0  0  0  0  0  0
  151.5086  145.5230  159.6279 H   0  0  0  0  0  0  0  0  0  0  0  0
  154.1587  141.8283  159.3286 H   0  0  0  0  0  0  0  0  0  0  0  0
  154.2288  140.5866  161.4949 H   0  0  0  0  0  0  0  0  0  0  0  0
  153.1708  141.7919  162.2270 H   0  0  0  0  0  0  0  0  0  0  0  0
  154.7880  142.2439  161.6947 H   0  0  0  0  0  0  0  0  0  0  0  0
  151.3616  141.2622  160.4583 H   0  0  0  0  0  0  0  0  0  0  0  0
  152.4233  140.0970  159.7013 H   0  0  0  0  0  0  0  0  0  0  0  0
  152.3150  141.3969  157.6913 H   0  0  0  0  0  0  0  0  0  0  0  0
  1  2  1  0  0  0  0
  1 22  1  0  0  0  0
  1 23  1  0  0  0  0
  1 24  1  0  0  0  0
  2 21  1  0  0  0  0
  2  3  2  0  0  0  0
  3  4  1  0  0  0  0
  3 25  1  0  0  0  0
  4  5  1  0  0  0  0
  4 20  2  0  0  0  0
  5  6  1  0  0  0  0
  6  7  2  0  0  0  0
  6  8  1  0  0  0  0
  8  9  1  0  0  0  0
  8 26  1  0  0  0  0
  9 10  1  0  0  0  0
  9 27  1  0  0  0  0
  9 28  1  0  0  0  0
 10 11  1  0  0  0  0
 10 12  1  0  0  0  0
 10 29  1  0  0  0  0
 11 30  1  0  0  0  0
 11 31  1  0  0  0  0
 11 32  1  0  0  0  0
 12 19  1  0  0  0  0
 12 13  1  0  0  0  0
 12 45  1  0  0  0  0
 13 14  1  0  0  0  0
 13 33  1  0  0  0  0
 13 34  1  0  0  0  0
 14 15  1  0  0  0  0
 14 16  1  0  0  0  0
 14 35  1  0  0  0  0
 15 36  1  0  0  0  0
 15 37  1  0  0  0  0
 15 38  1  0  0  0  0
 16 17  1  0  0  0  0
 17 18  1  0  0  0  0
 17 19  1  0  0  0  0
 17 39  1  0  0  0  0
 18 40  1  0  0  0  0
 18 41  1  0  0  0  0
 18 42  1  0  0  0  0
 19 43  1  0  0  0  0
 19 44  1  0  0  0  0
 20 21  1  0  0  0  0
M  CHG  1   5  -1
M  CHG  1  12   1
M  END
> <s_m_source_file>
AV-unprocessed.smi

> <i_m_source_file_index>
2061

> <i_lp_mmshare_version>
43012

> <i_f3d_flags>
0

> <s_epik_input>
W0NIM11jMVtjSF1jKG5vMSlbTkhdQyg9TylbTkhdW0NIMl1bQ0BIXShbQ0gzXSlOMltDSDJdW0NAQEhdKFtDSDNdKU9bQ0BASF0oW0NIM10pW0NIMl0y

> <s_epik_cmdline>
J2VwaWtfcHl0aG9uJywgJy1waCcsICc3LjAnLCAnLXRuJywgJzgnLCAnLW1hJywgJzIwMCcsICctbWV0YWxfYmluZGluZycsICctaW1hZScsICc8aW5maWxlLm1hZT4nLCAnLW9tYWUnLCAnPG91dGZpbGUubWFlPic=

> <r_epik_Ionization_Penalty>
6.73511

> <r_epik_Ionization_Penalty_Charging>
6.73502

> <r_epik_Ionization_Penalty_Neutral>
9.50841e-05

> <r_epik_State_Penalty>
6.93549

> <r_epik_Charging_Adjusted_Penalty>
13.6705

> <i_epik_Tot_Q>
0

> <i_epik_Tot_abs_Q>
2

> <r_epik_Metal_State_Penalty>
2.87211

> <b_epik_Metal_Only>
1

> <s_lp_Force_Field>
OPLS_2005

> <r_lp_Energy>
7.84015

> <b_lp_Chiralities_Consistent>
1

> <s_lp_Variant>
AV-unprocessed.smi:2061-21

> <Gold.Version>
5.8.1

> <Gold.Id.Protein>
6NUR|6NUR_protein|mol2

> <Gold.PLP.Fitness>
47.6480

> <Gold.PLP.PLP>
-40.9522

> <Gold.PLP.part.hbond>
-3.1018

> <Gold.PLP.part.metal>
0.0000

> <Gold.PLP.part.buried>
-6.3691

> <Gold.PLP.part.nonpolar>
-32.6794

> <Gold.PLP.part.repulsive>
0.1972

> <Gold.PLP.ligand.clash>
0.0000

> <Gold.PLP.ligand.torsion>
1.0567

> <Gold.PLP.Chemscore.Hbond>
2.8560

> <Gold.PLP.Chemscore.CHOScore>
0.0000

> <Gold.PLP.Chemscore.Metal>
0.0000

> <Gold.Chemscore.Hbonds>
donor molecule, donor type, donor heavy atom, donor atom, acceptor molecule, acceptor atom, score
      P1  H  6896  6909       L1     7  0.76
      P1  H  6931  6943       L1    20  0.83
      P1  H  6934  6947       L1    20  0.98

> <Gold.PLP.Chemscore.Internal.Correction>
0.2413

> <Gold.Rescore>
     Score         DG    S(hbond)    S(metal)    S(lipo)     H(rot)  DE(clash)    DE(int)     intcor
     20.39     -21.39       2.51        0.00      98.26       1.56       0.02       0.98       ----

> <Gold.Chemscore.Fitness>
20.3901

> <Gold.Chemscore.DG>
-21.3861

> <Gold.Chemscore.ZeroCoef>
-5.4800

> <Gold.Chemscore.Hbond>
2.5120

> <Gold.Chemscore.Metal>
0.0000

> <Gold.Chemscore.Lipo>
98.2642

> <Gold.Chemscore.Internal_Hbond>
0.0000

> <Gold.Chemscore.DEClash>
0.0155

> <Gold.Chemscore.DEInternal>
0.9805

> <Gold.Chemscore.Rot>
1.5550

> <Gold.Chemscore.Internal.Correction>
   9.000000E+99

> <Gold.Chemscore.Hbonds>
donor molecule, donor type, donor heavy atom, donor atom, acceptor molecule, acceptor atom, score
      P1  H  6896  6909       L1     7  0.59
      P1  H  6931  6943       L1    20  0.38
      P1  H  6934  6947       L1    20  0.77

> <Gold.Chemscore.Hbond.Weighted>
-8.3901

> <Gold.Chemscore.Metal.Weighted>
-0.0000

> <Gold.Chemscore.Lipo.Weighted>
-11.4969

> <Gold.Chemscore.Internal_Hbond.Weighted>
0.0000

> <Gold.Chemscore.DEClash.Weighted>
0.0155

> <Gold.Chemscore.DEInternal.Weighted>
0.9805

> <Gold.Chemscore.Rot.Weighted>
3.9809

> <Gold.Chemscore.Internal.Correction.Weighted>
   9.000000E+99

> <Gold.Protein.RotatedTorsions>
[ 6907 6896 6895 6894 ] final   88.73 input  -60.11 | X-H torsion
[ 7974 7965 7964 7962 ] final   52.41 input  175.53 | X-H torsion
[ 8008 7997 7996 7995 ] final  -50.29 input   59.86 | X-H torsion
[ 10167 10162 10161 10158 ] final  -15.45 input  -65.29 | X-H torsion
[ 10718 10713 10712 10709 ] final   43.48 input   66.30 | X-H torsion
[ 10763 10752 10751 10750 ] final  -21.37 input  -60.55 | X-H torsion
[ 11005 11000 10999 10996 ] final    0.27 input  -57.11 | X-H torsion

> <Gold.Protein.ActiveResidues>
 VAL166  LYS551  ARG553  GLY616  TRP617  ASP618  TYR619  PRO620  LYS621  CYS622 
 ASP623  PHE694  ASN695  SER759  ASP760  ASP761  ALA762  ILE779  LEU786  VAL792 
 PHE793  MET794  SER795  GLU796  ALA797  LYS798  CYS799  TRP800  GLU811  SER814 

> <Gold.Protein.RotatedAtoms>
  152.5428  134.2076  159.8736 H   0  0  0  0  0  0  0  0  0  0  0  0  # atno 6907 bound_to 6896
  151.2060  133.4576  159.2604 H   0  0  0  0  0  0  0  0  0  0  0  0  # atno 6908 bound_to 6896
  151.0943  134.9947  159.8473 H   0  0  0  0  0  0  0  0  0  0  0  0  # atno 6909 bound_to 6896
  145.9816  139.4248  143.0128 H   0  0  0  0  0  0  0  0  0  0  0  0  # atno 7974 bound_to 7965
  154.4059  140.1276  156.4642 H   0  0  0  0  0  0  0  0  0  0  0  0  # atno 8008 bound_to 7997
  155.7243  140.3492  155.5010 H   0  0  0  0  0  0  0  0  0  0  0  0  # atno 8009 bound_to 7997
  155.9186  140.1048  157.1214 H   0  0  0  0  0  0  0  0  0  0  0  0  # atno 8010 bound_to 7997
  140.7218  143.5217  150.9625 H   0  0  0  0  0  0  0  0  0  0  0  0  # atno 10167 bound_to 10162
  157.4164  130.7943  149.7475 H   0  0  0  0  0  0  0  0  0  0  0  0  # atno 10718 bound_to 10713
  153.6350  135.6987  153.5261 H   0  0  0  0  0  0  0  0  0  0  0  0  # atno 10763 bound_to 10752
  153.2828  135.4180  155.1094 H   0  0  0  0  0  0  0  0  0  0  0  0  # atno 10764 bound_to 10752
  154.8513  135.3606  154.5894 H   0  0  0  0  0  0  0  0  0  0  0  0  # atno 10765 bound_to 10752
  140.6284  133.9597  155.8261 H   0  0  0  0  0  0  0  0  0  0  0  0  # atno 11005 bound_to 11000
  145.7761  140.9876  143.1124 LP  0  0  0  0  0  0  0  0  0  0  0  0  # atno 17320 bound_to 7965
  144.6863  139.9506  143.7478 LP  0  0  0  0  0  0  0  0  0  0  0  0  # atno 17321 bound_to 7965
  139.8935  143.6924  152.3142 LP  0  0  0  0  0  0  0  0  0  0  0  0  # atno 17342 bound_to 10162
  139.7248  144.7595  151.0896 LP  0  0  0  0  0  0  0  0  0  0  0  0  # atno 17343 bound_to 10162
  155.9866  130.3973  150.3203 LP  0  0  0  0  0  0  0  0  0  0  0  0  # atno 17370 bound_to 10713
  157.1347  131.0281  151.2954 LP  0  0  0  0  0  0  0  0  0  0  0  0  # atno 17371 bound_to 10713
  141.0693  134.0230  157.3549 LP  0  0  0  0  0  0  0  0  0  0  0  0  # atno 17394 bound_to 11000
  139.9126  135.0192  156.7752 LP  0  0  0  0  0  0  0  0  0  0  0  0  # atno 17395 bound_to 11000

$$$$
