AV-unprocessed.smi:2327|AV-procd|sdf|9298|dock1
  -GOLD-   2272012513D 1   1.00000     0.00000
 Structure written by MMmdl.
 40 41  0  0  0  0  0  0  0  0  1 V2000
  152.7886  138.9695  154.7413 C   0  0  0  0  0  0  0  0  0  0  0  0
  151.3382  138.6015  154.7614 C   0  0  0  0  0  0  0  0  0  0  0  0
  150.7695  137.5199  155.3862 C   0  0  0  0  0  0  0  0  0  0  0  0
  149.0443  137.4676  155.1516 S   0  0  0  0  0  0  0  0  0  0  0  0
  149.1594  138.9402  154.1934 C   0  0  0  0  0  0  0  0  0  0  0  0
  147.9663  139.6236  153.5948 C   0  0  2  0  0  0  0  0  0  0  0  0
  147.7561  141.0332  154.1652 C   0  0  0  0  0  0  0  0  0  0  0  0
  146.6908  138.7556  153.6414 C   0  0  0  0  0  0  0  0  0  0  0  0
  146.9010  137.4469  153.0323 N   0  0  0  0  0  0  0  0  0  0  0  0
  145.9528  136.5132  152.8538 C   0  0  0  0  0  0  0  0  0  0  0  0
  144.8147  136.6063  153.3093 O   0  0  0  0  0  0  0  0  0  0  0  0
  146.3480  135.4472  152.1356 N   0  0  0  0  0  0  0  0  0  0  0  0
  145.5593  134.2690  151.7684 C   0  0  0  0  0  0  0  0  0  0  0  0
  146.4946  133.0759  151.5226 C   0  0  0  0  0  0  0  0  0  0  0  0
  145.7047  131.8655  150.9997 C   0  0  0  0  0  0  0  0  0  0  0  0
  144.9992  132.2203  149.8151 O   0  0  0  0  0  0  0  0  0  0  0  0
  144.0340  133.2446  150.0301 C   0  0  0  0  0  0  0  0  0  0  0  0
  144.7273  134.5331  150.5016 C   0  0  0  0  0  0  0  0  0  0  0  0
  150.4093  139.4037  154.0929 N   0  0  0  0  0  0  0  0  0  0  0  0
  153.4005  138.2056  155.2214 H   0  0  0  0  0  0  0  0  0  0  0  0
  152.9633  139.9095  155.2650 H   0  0  0  0  0  0  0  0  0  0  0  0
  153.1514  139.0865  153.7199 H   0  0  0  0  0  0  0  0  0  0  0  0
  151.2588  136.7524  155.9674 H   0  0  0  0  0  0  0  0  0  0  0  0
  148.2024  139.7634  152.5387 H   0  0  0  0  0  0  0  0  0  0  0  0
  148.6439  141.6501  154.0236 H   0  0  0  0  0  0  0  0  0  0  0  0
  147.5389  141.0007  155.2334 H   0  0  0  0  0  0  0  0  0  0  0  0
  146.9232  141.5351  153.6721 H   0  0  0  0  0  0  0  0  0  0  0  0
  146.4016  138.5864  154.6790 H   0  0  0  0  0  0  0  0  0  0  0  0
  145.8536  139.2706  153.1674 H   0  0  0  0  0  0  0  0  0  0  0  0
  147.8155  137.2709  152.6423 H   0  0  0  0  0  0  0  0  0  0  0  0
  147.3297  135.4045  151.9021 H   0  0  0  0  0  0  0  0  0  0  0  0
  144.8900  133.9995  152.5882 H   0  0  0  0  0  0  0  0  0  0  0  0
  147.2594  133.3460  150.7928 H   0  0  0  0  0  0  0  0  0  0  0  0
  147.0186  132.8109  152.4418 H   0  0  0  0  0  0  0  0  0  0  0  0
  146.3853  131.0450  150.7716 H   0  0  0  0  0  0  0  0  0  0  0  0
  145.0079  131.4994  151.7555 H   0  0  0  0  0  0  0  0  0  0  0  0
  143.5012  133.4269  149.0967 H   0  0  0  0  0  0  0  0  0  0  0  0
  143.2932  132.9131  150.7595 H   0  0  0  0  0  0  0  0  0  0  0  0
  143.9821  135.3077  150.6851 H   0  0  0  0  0  0  0  0  0  0  0  0
  145.3734  134.9047  149.7050 H   0  0  0  0  0  0  0  0  0  0  0  0
  1  2  1  0  0  0  0
  1 20  1  0  0  0  0
  1 21  1  0  0  0  0
  1 22  1  0  0  0  0
  2 19  1  0  0  0  0
  2  3  2  0  0  0  0
  3  4  1  0  0  0  0
  3 23  1  0  0  0  0
  4  5  1  0  0  0  0
  5  6  1  0  0  0  0
  5 19  2  0  0  0  0
  6  7  1  0  0  0  0
  6  8  1  0  0  0  0
  6 24  1  0  0  0  0
  7 25  1  0  0  0  0
  7 26  1  0  0  0  0
  7 27  1  0  0  0  0
  8  9  1  0  0  0  0
  8 28  1  0  0  0  0
  8 29  1  0  0  0  0
  9 10  1  0  0  0  0
  9 30  1  0  0  0  0
 10 11  2  0  0  0  0
 10 12  1  0  0  0  0
 12 13  1  0  0  0  0
 12 31  1  0  0  0  0
 13 18  1  0  0  0  0
 13 14  1  0  0  0  0
 13 32  1  0  0  0  0
 14 15  1  0  0  0  0
 14 33  1  0  0  0  0
 14 34  1  0  0  0  0
 15 16  1  0  0  0  0
 15 35  1  0  0  0  0
 15 36  1  0  0  0  0
 16 17  1  0  0  0  0
 17 18  1  0  0  0  0
 17 37  1  0  0  0  0
 17 38  1  0  0  0  0
 18 39  1  0  0  0  0
 18 40  1  0  0  0  0
M  END
> <s_m_source_file>
AV-unprocessed.smi

> <i_m_source_file_index>
2327

> <i_lp_mmshare_version>
43012

> <i_f3d_flags>
0

> <s_epik_input>
W0NIM11jMVtjSF1zYyhuMSlbQ0BIXShbQ0gzXSlbQ0gyXVtOSF1DKD1PKVtOSF1bQ0hdMltDSDJdW0NIMl1PW0NIMl1bQ0gyXTI=

> <s_epik_cmdline>
J2VwaWtfcHl0aG9uJywgJy1waCcsICc3LjAnLCAnLXRuJywgJzgnLCAnLW1hJywgJzIwMCcsICctbWV0YWxfYmluZGluZycsICctaW1hZScsICc8aW5maWxlLm1hZT4nLCAnLW9tYWUnLCAnPG91dGZpbGUubWFlPic=

> <r_epik_Ionization_Penalty>
0.0015425

> <r_epik_Ionization_Penalty_Charging>
0

> <r_epik_Ionization_Penalty_Neutral>
0.0015425

> <r_epik_State_Penalty>
0.000998134

> <r_epik_Charging_Adjusted_Penalty>
0.000998134

> <i_epik_Tot_Q>
0

> <i_epik_Tot_abs_Q>
0

> <r_epik_Metal_State_Penalty>
-0

> <b_epik_Metal_Only>
0

> <s_lp_Force_Field>
OPLS_2005

> <r_lp_Energy>
7.05585

> <b_lp_Chiralities_Consistent>
1

> <s_lp_Variant>
AV-unprocessed.smi:2327-1

> <Gold.Version>
5.8.1

> <Gold.Id.Protein>
6NUR|6NUR_protein|mol2

> <Gold.PLP.Fitness>
39.7409

> <Gold.PLP.PLP>
-31.5645

> <Gold.PLP.part.hbond>
-3.0000

> <Gold.PLP.part.metal>
0.0000

> <Gold.PLP.part.buried>
-2.7183

> <Gold.PLP.part.nonpolar>
-26.0945

> <Gold.PLP.part.repulsive>
0.6850

> <Gold.PLP.ligand.clash>
0.0000

> <Gold.PLP.ligand.torsion>
0.4887

> <Gold.PLP.Chemscore.Hbond>
3.0000

> <Gold.PLP.Chemscore.CHOScore>
0.0000

> <Gold.PLP.Chemscore.Metal>
0.0000

> <Gold.Chemscore.Hbonds>
donor molecule, donor type, donor heavy atom, donor atom, acceptor molecule, acceptor atom, score
      L1  H     9    30       P1  7948  1.00
      L1  H    12    31       P1  7948  0.99
      P1  H  7989  7998       L1    19  0.95

> <Gold.PLP.Chemscore.Internal.Correction>
0.1537

> <Gold.Rescore>
     Score         DG    S(hbond)    S(metal)    S(lipo)     H(rot)  DE(clash)    DE(int)     intcor
     18.63     -19.47       2.55        0.00      80.41       1.53       0.31       0.54       ----

> <Gold.Chemscore.Fitness>
18.6283

> <Gold.Chemscore.DG>
-19.4730

> <Gold.Chemscore.ZeroCoef>
-5.4800

> <Gold.Chemscore.Hbond>
2.5473

> <Gold.Chemscore.Metal>
0.0000

> <Gold.Chemscore.Lipo>
80.4121

> <Gold.Chemscore.Internal_Hbond>
0.0000

> <Gold.Chemscore.DEClash>
0.3061

> <Gold.Chemscore.DEInternal>
0.5386

> <Gold.Chemscore.Rot>
1.5325

> <Gold.Chemscore.Internal.Correction>
   9.000000E+99

> <Gold.Chemscore.Hbonds>
donor molecule, donor type, donor heavy atom, donor atom, acceptor molecule, acceptor atom, score
      L1  H     9    30       P1  7948  0.96
      L1  H    12    31       P1  7948  0.94
      P1  H  7989  7998       L1    19  0.21

> <Gold.Chemscore.Hbond.Weighted>
-8.5081

> <Gold.Chemscore.Metal.Weighted>
-0.0000

> <Gold.Chemscore.Lipo.Weighted>
-9.4082

> <Gold.Chemscore.Internal_Hbond.Weighted>
0.0000

> <Gold.Chemscore.DEClash.Weighted>
0.3061

> <Gold.Chemscore.DEInternal.Weighted>
0.5386

> <Gold.Chemscore.Rot.Weighted>
3.9233

> <Gold.Chemscore.Internal.Correction.Weighted>
   9.000000E+99

> <Gold.Protein.RotatedTorsions>
[ 6907 6896 6895 6894 ] final -120.02 input  -60.11 | X-H torsion
[ 7974 7965 7964 7962 ] final -168.85 input  175.53 | X-H torsion
[ 8008 7997 7996 7995 ] final   45.83 input   59.86 | X-H torsion
[ 10167 10162 10161 10158 ] final  -14.63 input  -65.29 | X-H torsion
[ 10718 10713 10712 10709 ] final -103.81 input   66.30 | X-H torsion
[ 10763 10752 10751 10750 ] final   53.39 input  -60.55 | X-H torsion
[ 11005 11000 10999 10996 ] final   10.38 input  -57.11 | X-H torsion

> <Gold.Protein.ActiveResidues>
 VAL166  LYS551  ARG553  GLY616  TRP617  ASP618  TYR619  PRO620  LYS621  CYS622 
 ASP623  PHE694  ASN695  SER759  ASP760  ASP761  ALA762  ILE779  LEU786  VAL792 
 PHE793  MET794  SER795  GLU796  ALA797  LYS798  CYS799  TRP800  GLU811  SER814 

> <Gold.Protein.RotatedAtoms>
  150.8356  133.8019  159.3080 H   0  0  0  0  0  0  0  0  0  0  0  0  # atno 6907 bound_to 6896
  151.5735  135.1060  160.0010 H   0  0  0  0  0  0  0  0  0  0  0  0  # atno 6908 bound_to 6896
  152.4429  133.7440  159.6713 H   0  0  0  0  0  0  0  0  0  0  0  0  # atno 6909 bound_to 6896
  144.7195  140.2309  143.6304 H   0  0  0  0  0  0  0  0  0  0  0  0  # atno 7974 bound_to 7965
  155.3423  140.3409  155.4239 H   0  0  0  0  0  0  0  0  0  0  0  0  # atno 8008 bound_to 7997
  156.1807  140.1663  156.8316 H   0  0  0  0  0  0  0  0  0  0  0  0  # atno 8009 bound_to 7997
  154.5330  140.0741  156.8361 H   0  0  0  0  0  0  0  0  0  0  0  0  # atno 8010 bound_to 7997
  140.7204  143.5301  150.9530 H   0  0  0  0  0  0  0  0  0  0  0  0  # atno 10167 bound_to 10162
  156.0280  130.5485  150.7307 H   0  0  0  0  0  0  0  0  0  0  0  0  # atno 10718 bound_to 10713
  152.9795  135.5780  154.4733 H   0  0  0  0  0  0  0  0  0  0  0  0  # atno 10763 bound_to 10752
  154.4293  135.2773  155.1925 H   0  0  0  0  0  0  0  0  0  0  0  0  # atno 10764 bound_to 10752
  154.3641  135.6182  153.5759 H   0  0  0  0  0  0  0  0  0  0  0  0  # atno 10765 bound_to 10752
  140.5152  134.0613  155.7829 H   0  0  0  0  0  0  0  0  0  0  0  0  # atno 11005 bound_to 11000
  145.8412  139.2130  143.1826 LP  0  0  0  0  0  0  0  0  0  0  0  0  # atno 17320 bound_to 7965
  146.0345  140.8226  142.9859 LP  0  0  0  0  0  0  0  0  0  0  0  0  # atno 17321 bound_to 7965
  139.9021  143.6823  152.3129 LP  0  0  0  0  0  0  0  0  0  0  0  0  # atno 17342 bound_to 10162
  139.7176  144.7609  151.1008 LP  0  0  0  0  0  0  0  0  0  0  0  0  # atno 17343 bound_to 10162
  157.4900  131.0910  151.0438 LP  0  0  0  0  0  0  0  0  0  0  0  0  # atno 17370 bound_to 10713
  157.0847  130.5917  149.5427 LP  0  0  0  0  0  0  0  0  0  0  0  0  # atno 17371 bound_to 10713
  141.1364  133.9214  157.2424 LP  0  0  0  0  0  0  0  0  0  0  0  0  # atno 17394 bound_to 11000
  139.9636  135.0148  156.9328 LP  0  0  0  0  0  0  0  0  0  0  0  0  # atno 17395 bound_to 11000

$$$$
