AV-unprocessed.smi:61|AV-procd|sdf|599|dock4
  -GOLD-   2262016493D 1   1.00000     0.00000
 Structure written by MMmdl.
 29 30  0  0  0  0  0  0  0  0  2 V2000
  146.8845  137.8958  152.8747 N   0  0  0  0  0  0  0  0  0  0  0  0
  145.8037  137.1156  152.5433 C   0  0  0  0  0  0  0  0  0  0  0  0
  144.5828  137.5445  152.8798 N   0  0  0  0  0  0  0  0  0  0  0  0
  143.5165  136.7863  152.5582 C   0  0  0  0  0  0  0  0  0  0  0  0
  143.6622  135.5630  151.8832 C   0  0  0  0  0  0  0  0  0  0  0  0
  144.9783  135.1654  151.5598 C   0  0  0  0  0  0  0  0  0  0  0  0
  145.2817  133.9725  150.8878 N   0  0  0  0  0  0  0  0  0  0  0  0
  144.1338  133.3291  150.2558 C   0  0  0  0  0  0  0  0  0  0  0  0
  144.2897  131.8165  150.4745 C   0  0  0  0  0  0  0  0  0  0  0  0
  145.7384  131.6472  150.9263 C   0  0  0  0  0  0  0  0  0  0  0  0
  145.9890  132.9617  151.6653 C   0  0  1  0  0  0  0  0  0  0  0  0
  147.4654  133.3150  151.9396 C   0  0  0  0  0  0  0  0  0  0  0  0
  148.1457  132.2557  152.5805 O   0  0  0  0  0  0  0  0  0  0  0  0
  146.0232  135.9609  151.8990 N   0  3  0  0  0  0  0  0  0  0  0  0
  147.8203  137.6004  152.6355 H   0  0  0  0  0  0  0  0  0  0  0  0
  146.7581  138.7731  153.3584 H   0  0  0  0  0  0  0  0  0  0  0  0
  142.5430  137.1585  152.8408 H   0  0  0  0  0  0  0  0  0  0  0  0
  142.8015  134.9635  151.6253 H   0  0  0  0  0  0  0  0  0  0  0  0
  143.1798  133.6872  150.6455 H   0  0  0  0  0  0  0  0  0  0  0  0
  144.1595  133.5601  149.1906 H   0  0  0  0  0  0  0  0  0  0  0  0
  143.6179  131.4919  151.2699 H   0  0  0  0  0  0  0  0  0  0  0  0
  144.0555  131.2349  149.5823 H   0  0  0  0  0  0  0  0  0  0  0  0
  145.8889  130.7696  151.5554 H   0  0  0  0  0  0  0  0  0  0  0  0
  146.3852  131.5551  150.0528 H   0  0  0  0  0  0  0  0  0  0  0  0
  145.4943  132.8821  152.6342 H   0  0  0  0  0  0  0  0  0  0  0  0
  147.9867  133.5743  151.0175 H   0  0  0  0  0  0  0  0  0  0  0  0
  147.5183  134.1904  152.5874 H   0  0  0  0  0  0  0  0  0  0  0  0
  148.3293  131.5840  151.9412 H   0  0  0  0  0  0  0  0  0  0  0  0
  146.9720  135.6707  151.6616 H   0  0  0  0  0  0  0  0  0  0  0  0
  1  2  1  0  0  0  0
  1 15  1  0  0  0  0
  1 16  1  0  0  0  0
  2 14  1  0  0  0  0
  2  3  2  0  0  0  0
  3  4  1  0  0  0  0
  4  5  2  0  0  0  0
  4 17  1  0  0  0  0
  5  6  1  0  0  0  0
  5 18  1  0  0  0  0
  6  7  1  0  0  0  0
  6 14  2  0  0  0  0
  7 11  1  0  0  0  0
  7  8  1  0  0  0  0
  8  9  1  0  0  0  0
  8 19  1  0  0  0  0
  8 20  1  0  0  0  0
  9 10  1  0  0  0  0
  9 21  1  0  0  0  0
  9 22  1  0  0  0  0
 10 11  1  0  0  0  0
 10 23  1  0  0  0  0
 10 24  1  0  0  0  0
 11 12  1  0  0  0  0
 11 25  1  0  0  0  0
 12 13  1  0  0  0  0
 12 26  1  0  0  0  0
 12 27  1  0  0  0  0
 13 28  1  0  0  0  0
 14 29  1  0  0  0  0
M  CHG  1  14   1
M  END
> <s_m_source_file>
AV-unprocessed.smi

> <i_m_source_file_index>
61

> <i_lp_mmshare_version>
43012

> <i_f3d_flags>
0

> <s_epik_input>
W05IMl1jMW5bY0hdW2NIXWMobjEpTjJbQ0gyXVtDSDJdW0NIMl1bQ0BIXTJbQ0gyXVtPSF0=

> <s_epik_cmdline>
J2VwaWtfcHl0aG9uJywgJy1waCcsICc3LjAnLCAnLXRuJywgJzgnLCAnLW1hJywgJzIwMCcsICctbWV0YWxfYmluZGluZycsICctaW1hZScsICc8aW5maWxlLm1hZT4nLCAnLW9tYWUnLCAnPG91dGZpbGUubWFlPic=

> <r_lp_tautomer_probability>
0.424989

> <r_epik_Ionization_Penalty>
0.696162

> <r_epik_Ionization_Penalty_Charging>
0.696158

> <r_epik_Ionization_Penalty_Neutral>
4.43138e-06

> <r_epik_State_Penalty>
0.906374

> <r_epik_Charging_Adjusted_Penalty>
1.60253

> <i_epik_Tot_Q>
1

> <i_epik_Tot_abs_Q>
1

> <r_epik_Metal_State_Penalty>
1.16703

> <b_epik_Metal_Only>
0

> <s_lp_Force_Field>
OPLS_2005

> <r_lp_Energy>
33.2177

> <b_lp_Chiralities_Consistent>
1

> <s_lp_Variant>
AV-unprocessed.smi:61-5

> <Gold.Version>
5.8.1

> <Gold.Id.Protein>
6NUR|6NUR_protein|mol2

> <Gold.PLP.Fitness>
39.0053

> <Gold.PLP.PLP>
-25.4478

> <Gold.PLP.part.hbond>
-3.0000

> <Gold.PLP.part.metal>
0.0000

> <Gold.PLP.part.buried>
-5.7738

> <Gold.PLP.part.nonpolar>
-18.2928

> <Gold.PLP.part.repulsive>
0.5232

> <Gold.PLP.ligand.clash>
0.0000

> <Gold.PLP.ligand.torsion>
0.2643

> <Gold.PLP.Chemscore.Hbond>
4.6800

> <Gold.PLP.Chemscore.CHOScore>
0.0000

> <Gold.PLP.Chemscore.Metal>
0.0000

> <Gold.Chemscore.Hbonds>
donor molecule, donor type, donor heavy atom, donor atom, acceptor molecule, acceptor atom, score
      L1  H     1    15       P1  7948  1.92
      L1  H    13    28       P1 10747  1.00
      L1  H    14    29       P1  7948  1.74

> <Gold.PLP.Chemscore.Internal.Correction>
0.0461

> <Gold.Rescore>
     Score         DG    S(hbond)    S(metal)    S(lipo)     H(rot)  DE(clash)    DE(int)     intcor
     14.19     -15.44       2.73        0.00      50.63       1.98       0.00       1.25       ----

> <Gold.Chemscore.Fitness>
14.1937

> <Gold.Chemscore.DG>
-15.4449

> <Gold.Chemscore.ZeroCoef>
-5.4800

> <Gold.Chemscore.Hbond>
2.7304

> <Gold.Chemscore.Metal>
0.0000

> <Gold.Chemscore.Lipo>
50.6335

> <Gold.Chemscore.Internal_Hbond>
0.0000

> <Gold.Chemscore.DEClash>
0.0048

> <Gold.Chemscore.DEInternal>
1.2464

> <Gold.Chemscore.Rot>
1.9838

> <Gold.Chemscore.Internal.Correction>
   9.000000E+99

> <Gold.Chemscore.Hbonds>
donor molecule, donor type, donor heavy atom, donor atom, acceptor molecule, acceptor atom, score
      L1  H     1    15       P1  7948  0.92
      L1  H    13    28       P1 10747  0.98
      L1  H    14    29       P1  7948  0.80

> <Gold.Chemscore.Hbond.Weighted>
-9.1194

> <Gold.Chemscore.Metal.Weighted>
-0.0000

> <Gold.Chemscore.Lipo.Weighted>
-5.9241

> <Gold.Chemscore.Internal_Hbond.Weighted>
0.0000

> <Gold.Chemscore.DEClash.Weighted>
0.0048

> <Gold.Chemscore.DEInternal.Weighted>
1.2464

> <Gold.Chemscore.Rot.Weighted>
5.0786

> <Gold.Chemscore.Internal.Correction.Weighted>
   9.000000E+99

> <Gold.Protein.RotatedTorsions>
[ 6907 6896 6895 6894 ] final -132.60 input  -60.11 | X-H torsion
[ 7974 7965 7964 7962 ] final   -1.34 input  175.53 | X-H torsion
[ 8008 7997 7996 7995 ] final  128.04 input   59.86 | X-H torsion
[ 10167 10162 10161 10158 ] final   -9.66 input  -65.29 | X-H torsion
[ 10718 10713 10712 10709 ] final -170.00 input   66.30 | X-H torsion
[ 10763 10752 10751 10750 ] final   40.86 input  -60.55 | X-H torsion
[ 11005 11000 10999 10996 ] final -136.07 input  -57.11 | X-H torsion

> <Gold.Protein.ActiveResidues>
 VAL166  LYS551  ARG553  GLY616  TRP617  ASP618  TYR619  PRO620  LYS621  CYS622 
 ASP623  PHE694  ASN695  SER759  ASP760  ASP761  ALA762  ILE779  LEU786  VAL792 
 PHE793  MET794  SER795  GLU796  ALA797  LYS798  CYS799  TRP800  GLU811  SER814 

> <Gold.Protein.RotatedAtoms>
  150.9643  133.6411  159.2748 H   0  0  0  0  0  0  0  0  0  0  0  0  # atno 6907 bound_to 6896
  151.3723  135.0923  159.9479 H   0  0  0  0  0  0  0  0  0  0  0  0  # atno 6908 bound_to 6896
  152.5159  133.9195  159.7582 H   0  0  0  0  0  0  0  0  0  0  0  0  # atno 6909 bound_to 6896
  146.2418  140.1405  142.8335 H   0  0  0  0  0  0  0  0  0  0  0  0  # atno 7974 bound_to 7965
  156.2905  140.2654  156.2370 H   0  0  0  0  0  0  0  0  0  0  0  0  # atno 8008 bound_to 7997
  155.0015  140.0388  157.2380 H   0  0  0  0  0  0  0  0  0  0  0  0  # atno 8009 bound_to 7997
  154.7597  140.2758  155.6229 H   0  0  0  0  0  0  0  0  0  0  0  0  # atno 8010 bound_to 7997
  140.7093  143.5833  150.8969 H   0  0  0  0  0  0  0  0  0  0  0  0  # atno 10167 bound_to 10162
  156.7198  130.9265  151.3096 H   0  0  0  0  0  0  0  0  0  0  0  0  # atno 10718 bound_to 10713
  152.9924  135.6179  154.2694 H   0  0  0  0  0  0  0  0  0  0  0  0  # atno 10763 bound_to 10752
  154.2428  135.2788  155.2849 H   0  0  0  0  0  0  0  0  0  0  0  0  # atno 10764 bound_to 10752
  154.5355  135.5776  153.6852 H   0  0  0  0  0  0  0  0  0  0  0  0  # atno 10765 bound_to 10752
  140.8839  134.1897  157.4573 H   0  0  0  0  0  0  0  0  0  0  0  0  # atno 11005 bound_to 11000
  145.0250  140.8825  143.5143 LP  0  0  0  0  0  0  0  0  0  0  0  0  # atno 17320 bound_to 7965
  145.1460  139.2543  143.5465 LP  0  0  0  0  0  0  0  0  0  0  0  0  # atno 17321 bound_to 7965
  139.9559  143.6219  152.3016 LP  0  0  0  0  0  0  0  0  0  0  0  0  # atno 17342 bound_to 10162
  139.6754  144.7659  151.1705 LP  0  0  0  0  0  0  0  0  0  0  0  0  # atno 17343 bound_to 10162
  157.6902  130.9226  150.0494 LP  0  0  0  0  0  0  0  0  0  0  0  0  # atno 17370 bound_to 10713
  156.1602  130.3644  149.9310 LP  0  0  0  0  0  0  0  0  0  0  0  0  # atno 17371 bound_to 10713
  139.8722  134.9829  156.5176 LP  0  0  0  0  0  0  0  0  0  0  0  0  # atno 17394 bound_to 11000
  140.8428  133.8192  155.9092 LP  0  0  0  0  0  0  0  0  0  0  0  0  # atno 17395 bound_to 11000

$$$$
