AV-unprocessed.smi:1897|AV-procd|sdf|7692|dock8
  -GOLD-   22720 9433D 1   1.00000     0.00000
 Structure written by MMmdl.
 38 40  0  0  0  0  0  0  0  0  3 V2000
  145.7877  132.7109  162.3045 C   0  0  0  0  0  0  0  0  0  0  0  0
  146.4789  134.0214  162.1455 C   0  0  0  0  0  0  0  0  0  0  0  0
  146.7277  134.8358  163.1738 N   0  0  0  0  0  0  0  0  0  0  0  0
  147.3796  135.9940  162.7775 N   0  0  0  0  0  0  0  0  0  0  0  0
  147.6018  136.0465  161.4566 C   0  0  0  0  0  0  0  0  0  0  0  0
  148.2109  137.0919  160.8666 N   0  5  0  0  0  0  0  0  0  0  0  0
  148.9432  136.9648  159.7295 C   0  0  0  0  0  0  0  0  0  0  0  0
  149.3385  135.8835  159.2959 O   0  0  0  0  0  0  0  0  0  0  0  0
  149.2465  138.0871  159.0510 N   0  0  0  0  0  0  0  0  0  0  0  0
  150.0197  138.1571  157.8173 C   0  0  2  0  0  0  0  0  0  0  0  0
  151.4894  137.7431  157.9823 C   0  0  0  0  0  0  0  0  0  0  0  0
  152.2847  138.6931  157.0651 C   0  0  0  0  0  0  0  0  0  0  0  0
  151.2951  139.5666  156.3913 N   0  3  1  0  0  0  0  0  0  0  0  0
  150.9899  139.1034  155.0097 C   0  0  0  0  0  0  0  0  0  0  0  0
  149.8001  139.8532  154.3972 C   0  0  0  0  0  0  0  0  0  0  0  0
  148.5597  139.6796  155.2767 C   0  0  0  0  0  0  0  0  0  0  0  0
  148.8554  140.2076  156.6843 C   0  0  0  0  0  0  0  0  0  0  0  0
  150.1299  139.5953  157.3079 C   0  0  1  0  0  0  0  0  0  0  0  0
  147.0240  134.6241  160.5894 S   0  0  0  0  0  0  0  0  0  0  0  0
  144.7104  132.8638  162.3681 H   0  0  0  0  0  0  0  0  0  0  0  0
  146.1270  132.2121  163.2127 H   0  0  0  0  0  0  0  0  0  0  0  0
  146.0011  132.0650  161.4527 H   0  0  0  0  0  0  0  0  0  0  0  0
  148.9125  138.9607  159.4309 H   0  0  0  0  0  0  0  0  0  0  0  0
  149.5511  137.5355  157.0522 H   0  0  0  0  0  0  0  0  0  0  0  0
  151.8210  137.8649  159.0148 H   0  0  0  0  0  0  0  0  0  0  0  0
  151.6359  136.6967  157.7130 H   0  0  0  0  0  0  0  0  0  0  0  0
  152.9429  139.3189  157.6689 H   0  0  0  0  0  0  0  0  0  0  0  0
  152.9144  138.1533  156.3565 H   0  0  0  0  0  0  0  0  0  0  0  0
  151.8741  139.2406  154.3863 H   0  0  0  0  0  0  0  0  0  0  0  0
  150.7766  138.0332  155.0156 H   0  0  0  0  0  0  0  0  0  0  0  0
  150.0395  140.9122  154.2907 H   0  0  0  0  0  0  0  0  0  0  0  0
  149.6001  139.4762  153.3937 H   0  0  0  0  0  0  0  0  0  0  0  0
  147.7133  140.2150  154.8458 H   0  0  0  0  0  0  0  0  0  0  0  0
  148.2740  138.6280  155.3200 H   0  0  0  0  0  0  0  0  0  0  0  0
  148.9810  141.2896  156.6273 H   0  0  0  0  0  0  0  0  0  0  0  0
  147.9980  140.0399  157.3370 H   0  0  0  0  0  0  0  0  0  0  0  0
  150.4153  140.2259  158.1527 H   0  0  0  0  0  0  0  0  0  0  0  0
  151.6698  140.5015  156.3177 H   0  0  0  0  0  0  0  0  0  0  0  0
  1  2  1  0  0  0  0
  1 20  1  0  0  0  0
  1 21  1  0  0  0  0
  1 22  1  0  0  0  0
  2 19  1  0  0  0  0
  2  3  2  0  0  0  0
  3  4  1  0  0  0  0
  4  5  2  0  0  0  0
  5  6  1  0  0  0  0
  5 19  1  0  0  0  0
  6  7  1  0  0  0  0
  7  8  2  0  0  0  0
  7  9  1  0  0  0  0
  9 10  1  0  0  0  0
  9 23  1  0  0  0  0
 10 18  1  0  0  0  0
 10 11  1  0  0  0  0
 10 24  1  0  0  0  0
 11 12  1  0  0  0  0
 11 25  1  0  0  0  0
 11 26  1  0  0  0  0
 12 13  1  0  0  0  0
 12 27  1  0  0  0  0
 12 28  1  0  0  0  0
 13 18  1  0  0  0  0
 13 14  1  0  0  0  0
 13 38  1  0  0  0  0
 14 15  1  0  0  0  0
 14 29  1  0  0  0  0
 14 30  1  0  0  0  0
 15 16  1  0  0  0  0
 15 31  1  0  0  0  0
 15 32  1  0  0  0  0
 16 17  1  0  0  0  0
 16 33  1  0  0  0  0
 16 34  1  0  0  0  0
 17 18  1  0  0  0  0
 17 35  1  0  0  0  0
 17 36  1  0  0  0  0
 18 37  1  0  0  0  0
M  CHG  1   6  -1
M  CHG  1  13   1
M  END
> <s_m_source_file>
AV-unprocessed.smi

> <i_m_source_file_index>
1897

> <i_lp_mmshare_version>
43012

> <i_f3d_flags>
0

> <s_epik_input>
W0NIM11jMW5uYyhzMSlbTkhdQyg9TylbTkhdW0NASF0oW0NIMl1bQ0gyXTIpW0NAQEhdKE4yMylbQ0gyXVtDSDJdW0NIMl1bQ0gyXTM=

> <s_epik_cmdline>
J2VwaWtfcHl0aG9uJywgJy1waCcsICc3LjAnLCAnLXRuJywgJzgnLCAnLW1hJywgJzIwMCcsICctbWV0YWxfYmluZGluZycsICctaW1hZScsICc8aW5maWxlLm1hZT4nLCAnLW9tYWUnLCAnPG91dGZpbGUubWFlPic=

> <r_lp_tautomer_probability>
1

> <r_epik_Ionization_Penalty>
3.77712

> <r_epik_Ionization_Penalty_Charging>
3.67739

> <r_epik_Ionization_Penalty_Neutral>
0.0997294

> <r_epik_State_Penalty>
3.67514

> <r_epik_Charging_Adjusted_Penalty>
7.35254

> <i_epik_Tot_Q>
0

> <i_epik_Tot_abs_Q>
2

> <r_epik_Metal_State_Penalty>
0.540795

> <b_epik_Metal_Only>
1

> <s_lp_Force_Field>
OPLS_2005

> <r_lp_Energy>
31.3184

> <b_lp_Chiralities_Consistent>
1

> <s_lp_Variant>
AV-unprocessed.smi:1897-9

> <Gold.Version>
5.8.1

> <Gold.Id.Protein>
6NUR|6NUR_protein|mol2

> <Gold.PLP.Fitness>
36.4763

> <Gold.PLP.PLP>
-25.7414

> <Gold.PLP.part.hbond>
-3.6820

> <Gold.PLP.part.metal>
0.0000

> <Gold.PLP.part.buried>
-4.9864

> <Gold.PLP.part.nonpolar>
-18.1441

> <Gold.PLP.part.repulsive>
0.3281

> <Gold.PLP.ligand.clash>
0.0000

> <Gold.PLP.ligand.torsion>
0.2467

> <Gold.PLP.Chemscore.Hbond>
3.7390

> <Gold.PLP.Chemscore.CHOScore>
0.0000

> <Gold.PLP.Chemscore.Metal>
0.0000

> <Gold.Chemscore.Hbonds>
donor molecule, donor type, donor heavy atom, donor atom, acceptor molecule, acceptor atom, score
      P1  H  6896  6907       L1     8  1.00
      P1  H  6931  6943       L1     6  1.89
      P1  H  6934  6947       L1     6  0.83

> <Gold.PLP.Chemscore.Internal.Correction>
0.0111

> <Gold.Rescore>
     Score         DG    S(hbond)    S(metal)    S(lipo)     H(rot)  DE(clash)    DE(int)     intcor
     15.16     -15.69       1.97        0.00      52.92       1.00       0.13       0.40       ----

> <Gold.Chemscore.Fitness>
15.1608

> <Gold.Chemscore.DG>
-15.6859

> <Gold.Chemscore.ZeroCoef>
-5.4800

> <Gold.Chemscore.Hbond>
1.9683

> <Gold.Chemscore.Metal>
0.0000

> <Gold.Chemscore.Lipo>
52.9200

> <Gold.Chemscore.Internal_Hbond>
0.0000

> <Gold.Chemscore.DEClash>
0.1251

> <Gold.Chemscore.DEInternal>
0.4000

> <Gold.Chemscore.Rot>
1.0000

> <Gold.Chemscore.Internal.Correction>
   9.000000E+99

> <Gold.Chemscore.Hbonds>
donor molecule, donor type, donor heavy atom, donor atom, acceptor molecule, acceptor atom, score
      P1  H  6896  6907       L1     8  1.00
      P1  H  6931  6943       L1     6  0.53
      P1  H  6934  6947       L1     6  0.32

> <Gold.Chemscore.Hbond.Weighted>
-6.5743

> <Gold.Chemscore.Metal.Weighted>
-0.0000

> <Gold.Chemscore.Lipo.Weighted>
-6.1916

> <Gold.Chemscore.Internal_Hbond.Weighted>
0.0000

> <Gold.Chemscore.DEClash.Weighted>
0.1251

> <Gold.Chemscore.DEInternal.Weighted>
0.4000

> <Gold.Chemscore.Rot.Weighted>
2.5600

> <Gold.Chemscore.Internal.Correction.Weighted>
   9.000000E+99

> <Gold.Protein.RotatedTorsions>
[ 6907 6896 6895 6894 ] final  -53.63 input  -60.11 | X-H torsion
[ 7974 7965 7964 7962 ] final  112.31 input  175.53 | X-H torsion
[ 8008 7997 7996 7995 ] final -153.61 input   59.86 | X-H torsion
[ 10167 10162 10161 10158 ] final  140.52 input  -65.29 | X-H torsion
[ 10718 10713 10712 10709 ] final  -39.47 input   66.30 | X-H torsion
[ 10763 10752 10751 10750 ] final  -80.82 input  -60.55 | X-H torsion
[ 11005 11000 10999 10996 ] final  -70.29 input  -57.11 | X-H torsion

> <Gold.Protein.ActiveResidues>
 VAL166  LYS551  ARG553  GLY616  TRP617  ASP618  TYR619  PRO620  LYS621  CYS622 
 ASP623  PHE694  ASN695  SER759  ASP760  ASP761  ALA762  ILE779  LEU786  VAL792 
 PHE793  MET794  SER795  GLU796  ALA797  LYS798  CYS799  TRP800  GLU811  SER814 

> <Gold.Protein.RotatedAtoms>
  150.8409  134.7701  159.6931 H   0  0  0  0  0  0  0  0  0  0  0  0  # atno 6907 bound_to 6896
  152.4497  134.5417  159.9851 H   0  0  0  0  0  0  0  0  0  0  0  0  # atno 6908 bound_to 6896
  151.5557  133.3373  159.2997 H   0  0  0  0  0  0  0  0  0  0  0  0  # atno 6909 bound_to 6896
  145.2312  139.2819  143.4167 H   0  0  0  0  0  0  0  0  0  0  0  0  # atno 7974 bound_to 7965
  155.6736  140.0736  157.2511 H   0  0  0  0  0  0  0  0  0  0  0  0  # atno 8008 bound_to 7997
  154.4119  140.1694  156.1957 H   0  0  0  0  0  0  0  0  0  0  0  0  # atno 8009 bound_to 7997
  155.9596  140.3371  155.6482 H   0  0  0  0  0  0  0  0  0  0  0  0  # atno 8010 bound_to 7997
  139.5046  144.6229  151.6008 H   0  0  0  0  0  0  0  0  0  0  0  0  # atno 10167 bound_to 10162
  156.2921  130.4229  149.8228 H   0  0  0  0  0  0  0  0  0  0  0  0  # atno 10718 bound_to 10713
  154.5560  135.5647  153.6964 H   0  0  0  0  0  0  0  0  0  0  0  0  # atno 10763 bound_to 10752
  153.0003  135.6262  154.2310 H   0  0  0  0  0  0  0  0  0  0  0  0  # atno 10764 bound_to 10752
  154.2246  135.2868  155.2892 H   0  0  0  0  0  0  0  0  0  0  0  0  # atno 10765 bound_to 10752
  141.1571  133.6786  156.6730 H   0  0  0  0  0  0  0  0  0  0  0  0  # atno 11005 bound_to 11000
  146.3352  140.2647  142.8603 LP  0  0  0  0  0  0  0  0  0  0  0  0  # atno 17320 bound_to 7965
  144.9675  140.8336  143.5476 LP  0  0  0  0  0  0  0  0  0  0  0  0  # atno 17321 bound_to 7965
  140.5937  143.9735  150.6340 LP  0  0  0  0  0  0  0  0  0  0  0  0  # atno 17342 bound_to 10162
  140.2923  143.3315  152.1050 LP  0  0  0  0  0  0  0  0  0  0  0  0  # atno 17343 bound_to 10162
  156.5638  130.8395  151.3336 LP  0  0  0  0  0  0  0  0  0  0  0  0  # atno 17370 bound_to 10713
  157.7345  130.9747  150.2033 LP  0  0  0  0  0  0  0  0  0  0  0  0  # atno 17371 bound_to 10713
  140.3161  134.8046  157.4215 LP  0  0  0  0  0  0  0  0  0  0  0  0  # atno 17394 bound_to 11000
  140.1137  134.5311  155.8243 LP  0  0  0  0  0  0  0  0  0  0  0  0  # atno 17395 bound_to 11000

$$$$
