AV-unprocessed.smi:2135|AV-procd|sdf|8699|dock5
  -GOLD-   2272011453D 1   1.00000     0.00000
 Structure written by MMmdl.
 42 43  0  0  0  0  0  0  0  0  1 V2000
  154.4272  133.1501  162.3161 C   0  0  0  0  0  0  0  0  0  0  0  0
  155.3034  134.4957  161.4184 S   0  0  0  0  0  0  0  0  0  0  0  0
  156.7049  134.5077  161.8647 O   0  0  0  0  0  0  0  0  0  0  0  0
  154.9954  134.3650  159.9862 O   0  0  0  0  0  0  0  0  0  0  0  0
  154.5483  135.9550  161.9924 N   0  0  0  0  0  0  0  0  0  0  0  0
  154.6246  136.3121  163.4234 C   0  0  0  0  0  0  0  0  0  0  0  0
  155.6804  137.4016  163.6810 C   0  0  0  0  0  0  0  0  0  0  0  0
  155.4479  138.6234  162.7848 C   0  0  0  0  0  0  0  0  0  0  0  0
  155.4368  138.1906  161.3077 C   0  0  2  0  0  0  0  0  0  0  0  0
  155.1940  139.3871  160.3784 C   0  0  0  0  0  0  0  0  0  0  0  0
  155.9533  139.6045  159.4337 O   0  0  0  0  0  0  0  0  0  0  0  0
  154.1343  140.1601  160.6620 N   0  0  0  0  0  0  0  0  0  0  0  0
  153.7497  141.3561  159.9229 C   0  0  0  0  0  0  0  0  0  0  0  0
  153.0871  142.3971  160.8398 C   0  0  0  0  0  0  0  0  0  0  0  0
  152.3234  143.4442  160.0544 C   0  0  0  0  0  0  0  0  0  0  0  0
  151.6427  144.4900  160.7108 C   0  0  0  0  0  0  0  0  0  0  0  0
  150.9440  145.4355  159.9358 C   0  0  0  0  0  0  0  0  0  0  0  0
  150.9559  145.2939  158.5337 C   0  0  0  0  0  0  0  0  0  0  0  0
  151.6041  144.2962  157.8947 N   0  0  0  0  0  0  0  0  0  0  0  0
  152.2722  143.3939  158.6452 C   0  0  0  0  0  0  0  0  0  0  0  0
  154.3651  137.1020  161.0798 C   0  0  0  0  0  0  0  0  0  0  0  0
  154.8336  132.1897  162.0001 H   0  0  0  0  0  0  0  0  0  0  0  0
  153.3648  133.1781  162.0806 H   0  0  0  0  0  0  0  0  0  0  0  0
  154.5763  133.2595  163.3885 H   0  0  0  0  0  0  0  0  0  0  0  0
  153.6452  136.6728  163.7397 H   0  0  0  0  0  0  0  0  0  0  0  0
  154.8357  135.4285  164.0253 H   0  0  0  0  0  0  0  0  0  0  0  0
  155.6500  137.7014  164.7288 H   0  0  0  0  0  0  0  0  0  0  0  0
  156.6800  137.0053  163.5077 H   0  0  0  0  0  0  0  0  0  0  0  0
  154.5017  139.0959  163.0533 H   0  0  0  0  0  0  0  0  0  0  0  0
  156.2292  139.3643  162.9598 H   0  0  0  0  0  0  0  0  0  0  0  0
  156.4161  137.7747  161.0711 H   0  0  0  0  0  0  0  0  0  0  0  0
  153.5616  139.9100  161.4551 H   0  0  0  0  0  0  0  0  0  0  0  0
  154.6211  141.7825  159.4229 H   0  0  0  0  0  0  0  0  0  0  0  0
  153.0551  141.0579  159.1372 H   0  0  0  0  0  0  0  0  0  0  0  0
  152.4069  141.9047  161.5362 H   0  0  0  0  0  0  0  0  0  0  0  0
  153.8390  142.9001  161.4494 H   0  0  0  0  0  0  0  0  0  0  0  0
  151.6528  144.5671  161.7882 H   0  0  0  0  0  0  0  0  0  0  0  0
  150.4112  146.2496  160.4046 H   0  0  0  0  0  0  0  0  0  0  0  0
  150.4296  146.0004  157.9089 H   0  0  0  0  0  0  0  0  0  0  0  0
  152.7779  142.6069  158.1051 H   0  0  0  0  0  0  0  0  0  0  0  0
  154.3795  136.7622  160.0442 H   0  0  0  0  0  0  0  0  0  0  0  0
  153.3694  137.5143  161.2506 H   0  0  0  0  0  0  0  0  0  0  0  0
  1  2  1  0  0  0  0
  1 22  1  0  0  0  0
  1 23  1  0  0  0  0
  1 24  1  0  0  0  0
  2  3  2  0  0  0  0
  2  4  2  0  0  0  0
  2  5  1  0  0  0  0
  5 21  1  0  0  0  0
  5  6  1  0  0  0  0
  6  7  1  0  0  0  0
  6 25  1  0  0  0  0
  6 26  1  0  0  0  0
  7  8  1  0  0  0  0
  7 27  1  0  0  0  0
  7 28  1  0  0  0  0
  8  9  1  0  0  0  0
  8 29  1  0  0  0  0
  8 30  1  0  0  0  0
  9 10  1  0  0  0  0
  9 21  1  0  0  0  0
  9 31  1  0  0  0  0
 10 11  2  0  0  0  0
 10 12  1  0  0  0  0
 12 13  1  0  0  0  0
 12 32  1  0  0  0  0
 13 14  1  0  0  0  0
 13 33  1  0  0  0  0
 13 34  1  0  0  0  0
 14 15  1  0  0  0  0
 14 35  1  0  0  0  0
 14 36  1  0  0  0  0
 15 20  1  0  0  0  0
 15 16  2  0  0  0  0
 16 17  1  0  0  0  0
 16 37  1  0  0  0  0
 17 18  2  0  0  0  0
 17 38  1  0  0  0  0
 18 19  1  0  0  0  0
 18 39  1  0  0  0  0
 19 20  2  0  0  0  0
 20 40  1  0  0  0  0
 21 41  1  0  0  0  0
 21 42  1  0  0  0  0
M  END
> <s_m_source_file>
AV-unprocessed.smi

> <i_m_source_file_index>
2135

> <i_lp_mmshare_version>
43012

> <i_f3d_flags>
0

> <s_epik_input>
W0NIM11TKD1PKSg9TylOMVtDSDJdW0NIMl1bQ0gyXVtDQEhdKFtDSDJdMSlDKD1PKVtOSF1bQ0gyXVtDSDJdYzJbY0hdW2NIXVtjSF1uW2NIXTI=

> <s_epik_cmdline>
J2VwaWtfcHl0aG9uJywgJy1waCcsICc3LjAnLCAnLXRuJywgJzgnLCAnLW1hJywgJzIwMCcsICctbWV0YWxfYmluZGluZycsICctaW1hZScsICc8aW5maWxlLm1hZT4nLCAnLW9tYWUnLCAnPG91dGZpbGUubWFlPic=

> <r_epik_Ionization_Penalty>
0.0134582

> <r_epik_Ionization_Penalty_Charging>
0

> <r_epik_Ionization_Penalty_Neutral>
0.0134582

> <r_epik_State_Penalty>
0.010475

> <r_epik_Charging_Adjusted_Penalty>
0.010475

> <i_epik_Tot_Q>
0

> <i_epik_Tot_abs_Q>
0

> <r_epik_Metal_State_Penalty>
0.0102416

> <b_epik_Metal_Only>
0

> <s_lp_Force_Field>
OPLS_2005

> <r_lp_Energy>
-1.59051

> <b_lp_Chiralities_Consistent>
1

> <s_lp_Variant>
AV-unprocessed.smi:2135-2

> <Gold.Version>
5.8.1

> <Gold.Id.Protein>
6NUR|6NUR_protein|mol2

> <Gold.PLP.Fitness>
49.0313

> <Gold.PLP.PLP>
-41.2727

> <Gold.PLP.part.hbond>
-2.0000

> <Gold.PLP.part.metal>
0.0000

> <Gold.PLP.part.buried>
-4.6797

> <Gold.PLP.part.nonpolar>
-34.3553

> <Gold.PLP.part.repulsive>
0.1743

> <Gold.PLP.ligand.clash>
0.0000

> <Gold.PLP.ligand.torsion>
1.5555

> <Gold.PLP.Chemscore.Hbond>
1.9913

> <Gold.PLP.Chemscore.CHOScore>
0.9371

> <Gold.PLP.Chemscore.Metal>
0.0000

> <Gold.Chemscore.Hbonds>
donor molecule, donor type, donor heavy atom, donor atom, acceptor molecule, acceptor atom, score
      P1  H  6896  6909       L1     4  0.08
      P1  H  7997  8010       L1    11  0.65
      L1  C    18    39       P1  8029  0.68

> <Gold.PLP.Chemscore.Internal.Correction>
2.0843

> <Gold.Rescore>
     Score         DG    S(hbond)    S(metal)    S(lipo)     H(rot)  DE(clash)    DE(int)     intcor
     19.67     -21.27       1.99        0.00     112.28       1.56       0.08       1.51       ----

> <Gold.Chemscore.Fitness>
19.6748

> <Gold.Chemscore.DG>
-21.2655

> <Gold.Chemscore.ZeroCoef>
-5.4800

> <Gold.Chemscore.Hbond>
1.9920

> <Gold.Chemscore.Metal>
0.0000

> <Gold.Chemscore.Lipo>
112.2815

> <Gold.Chemscore.Internal_Hbond>
0.0000

> <Gold.Chemscore.DEClash>
0.0811

> <Gold.Chemscore.DEInternal>
1.5097

> <Gold.Chemscore.Rot>
1.5643

> <Gold.Chemscore.Internal.Correction>
   9.000000E+99

> <Gold.Chemscore.Hbonds>
donor molecule, donor type, donor heavy atom, donor atom, acceptor molecule, acceptor atom, score
      P1  H  6896  6909       L1     4  0.06
      P1  H  7997  8010       L1    11  0.64

> <Gold.Chemscore.Hbond.Weighted>
-6.6532

> <Gold.Chemscore.Metal.Weighted>
-0.0000

> <Gold.Chemscore.Lipo.Weighted>
-13.1369

> <Gold.Chemscore.Internal_Hbond.Weighted>
0.0000

> <Gold.Chemscore.DEClash.Weighted>
0.0811

> <Gold.Chemscore.DEInternal.Weighted>
1.5097

> <Gold.Chemscore.Rot.Weighted>
4.0046

> <Gold.Chemscore.Internal.Correction.Weighted>
   9.000000E+99

> <Gold.Protein.RotatedTorsions>
[ 6907 6896 6895 6894 ] final -156.82 input  -60.11 | X-H torsion
[ 7974 7965 7964 7962 ] final   28.47 input  175.53 | X-H torsion
[ 8008 7997 7996 7995 ] final  -19.06 input   59.86 | X-H torsion
[ 10167 10162 10161 10158 ] final  156.14 input  -65.29 | X-H torsion
[ 10718 10713 10712 10709 ] final  -66.02 input   66.30 | X-H torsion
[ 10763 10752 10751 10750 ] final   71.53 input  -60.55 | X-H torsion
[ 11005 11000 10999 10996 ] final -122.25 input  -57.11 | X-H torsion

> <Gold.Protein.ActiveResidues>
 VAL166  LYS551  ARG553  GLY616  TRP617  ASP618  TYR619  PRO620  LYS621  CYS622 
 ASP623  PHE694  ASN695  SER759  ASP760  ASP761  ALA762  ILE779  LEU786  VAL792 
 PHE793  MET794  SER795  GLU796  ALA797  LYS798  CYS799  TRP800  GLU811  SER814 

> <Gold.Protein.RotatedAtoms>
  151.2935  133.4155  159.2634 H   0  0  0  0  0  0  0  0  0  0  0  0  # atno 6907 bound_to 6896
  151.0257  134.9503  159.8094 H   0  0  0  0  0  0  0  0  0  0  0  0  # atno 6908 bound_to 6896
  152.5334  134.2897  159.9091 H   0  0  0  0  0  0  0  0  0  0  0  0  # atno 6909 bound_to 6896
  146.1727  139.7051  142.8956 H   0  0  0  0  0  0  0  0  0  0  0  0  # atno 7974 bound_to 7965
  154.4863  140.2099  155.9649 H   0  0  0  0  0  0  0  0  0  0  0  0  # atno 8008 bound_to 7997
  156.1240  140.3208  155.8219 H   0  0  0  0  0  0  0  0  0  0  0  0  # atno 8009 bound_to 7997
  155.4417  140.0510  157.3000 H   0  0  0  0  0  0  0  0  0  0  0  0  # atno 8010 bound_to 7997
  139.4821  144.5036  151.8132 H   0  0  0  0  0  0  0  0  0  0  0  0  # atno 10167 bound_to 10162
  156.0636  130.4256  150.1648 H   0  0  0  0  0  0  0  0  0  0  0  0  # atno 10718 bound_to 10713
  153.0404  135.5133  154.7606 H   0  0  0  0  0  0  0  0  0  0  0  0  # atno 10763 bound_to 10752
  154.6548  135.2930  154.9943 H   0  0  0  0  0  0  0  0  0  0  0  0  # atno 10764 bound_to 10752
  154.0814  135.6663  153.4891 H   0  0  0  0  0  0  0  0  0  0  0  0  # atno 10765 bound_to 10752
  141.0009  134.0403  157.3538 H   0  0  0  0  0  0  0  0  0  0  0  0  # atno 11005 bound_to 11000
  145.4297  141.0414  143.2917 LP  0  0  0  0  0  0  0  0  0  0  0  0  # atno 17320 bound_to 7965
  144.8187  139.5830  143.6996 LP  0  0  0  0  0  0  0  0  0  0  0  0  # atno 17321 bound_to 7965
  140.4531  144.1827  150.5899 LP  0  0  0  0  0  0  0  0  0  0  0  0  # atno 17342 bound_to 10162
  140.4564  143.2466  151.9279 LP  0  0  0  0  0  0  0  0  0  0  0  0  # atno 17343 bound_to 10162
  156.9712  130.9835  151.3458 LP  0  0  0  0  0  0  0  0  0  0  0  0  # atno 17370 bound_to 10713
  157.5662  130.8279  149.8331 LP  0  0  0  0  0  0  0  0  0  0  0  0  # atno 17371 bound_to 10713
  139.9038  135.0173  156.7394 LP  0  0  0  0  0  0  0  0  0  0  0  0  # atno 17394 bound_to 11000
  140.6890  133.9407  155.7955 LP  0  0  0  0  0  0  0  0  0  0  0  0  # atno 17395 bound_to 11000

$$$$
