AV-unprocessed.smi:1965|AV-procd|sdf|7947|dock8
  -GOLD-   2272010113D 1   1.00000     0.00000
 Structure written by MMmdl.
 36 38  0  0  0  0  0  0  0  0  3 V2000
  150.5233  140.7061  157.3212 O   0  0  0  0  0  0  0  0  0  0  0  0
  150.2563  141.9013  157.2052 C   0  0  0  0  0  0  0  0  0  0  0  0
  150.9192  142.8845  157.8678 N   0  5  0  0  0  0  0  0  0  0  0  0
  151.8565  142.6266  158.7987 C   0  0  0  0  0  0  0  0  0  0  0  0
  152.3027  141.3941  159.0676 N   0  0  0  0  0  0  0  0  0  0  0  0
  153.2738  141.3617  160.0701 C   0  0  0  0  0  0  0  0  0  0  0  0
  153.5739  142.5986  160.5762 C   0  0  0  0  0  0  0  0  0  0  0  0
  152.6455  143.8492  159.7993 S   0  0  0  0  0  0  0  0  0  0  0  0
  149.2561  142.2665  156.3818 N   0  0  0  0  0  0  0  0  0  0  0  0
  148.4493  141.3690  155.5644 C   0  0  1  0  0  0  0  0  0  0  0  0
  147.2313  142.0376  154.9083 C   0  0  0  0  0  0  0  0  0  0  0  0
  147.1229  141.4017  153.5083 C   0  0  0  0  0  0  0  0  0  0  0  0
  148.1973  140.3855  153.4155 N   0  3  2  0  0  0  0  0  0  0  0  0
  147.6910  139.0101  153.6769 C   0  0  0  0  0  0  0  0  0  0  0  0
  148.8297  137.9914  153.8188 C   0  0  0  0  0  0  0  0  0  0  0  0
  149.7748  138.4104  154.9478 C   0  0  0  0  0  0  0  0  0  0  0  0
  150.3375  139.8045  154.6515 C   0  0  0  0  0  0  0  0  0  0  0  0
  149.2397  140.8524  154.3608 C   0  0  2  0  0  0  0  0  0  0  0  0
  153.6978  140.4124  160.3618 H   0  0  0  0  0  0  0  0  0  0  0  0
  154.2831  142.8504  161.3503 H   0  0  0  0  0  0  0  0  0  0  0  0
  149.0536  143.2531  156.3128 H   0  0  0  0  0  0  0  0  0  0  0  0
  148.1160  140.5265  156.1730 H   0  0  0  0  0  0  0  0  0  0  0  0
  146.3296  141.8753  155.4998 H   0  0  0  0  0  0  0  0  0  0  0  0
  147.3719  143.1155  154.8152 H   0  0  0  0  0  0  0  0  0  0  0  0
  146.1335  140.9828  153.3185 H   0  0  0  0  0  0  0  0  0  0  0  0
  147.3014  142.1619  152.7469 H   0  0  0  0  0  0  0  0  0  0  0  0
  147.0859  139.0030  154.5850 H   0  0  0  0  0  0  0  0  0  0  0  0
  147.0304  138.7149  152.8609 H   0  0  0  0  0  0  0  0  0  0  0  0
  148.4199  137.0024  154.0258 H   0  0  0  0  0  0  0  0  0  0  0  0
  149.3795  137.9115  152.8801 H   0  0  0  0  0  0  0  0  0  0  0  0
  149.2441  138.4122  155.9005 H   0  0  0  0  0  0  0  0  0  0  0  0
  150.5884  137.6912  155.0457 H   0  0  0  0  0  0  0  0  0  0  0  0
  150.9694  140.1384  155.4753 H   0  0  0  0  0  0  0  0  0  0  0  0
  150.9923  139.7354  153.7816 H   0  0  0  0  0  0  0  0  0  0  0  0
  149.7244  141.7100  153.8890 H   0  0  0  0  0  0  0  0  0  0  0  0
  148.5833  140.3906  152.4822 H   0  0  0  0  0  0  0  0  0  0  0  0
  1  2  2  0  0  0  0
  2  3  1  0  0  0  0
  2  9  1  0  0  0  0
  3  4  1  0  0  0  0
  4  8  1  0  0  0  0
  4  5  2  0  0  0  0
  5  6  1  0  0  0  0
  6  7  2  0  0  0  0
  6 19  1  0  0  0  0
  7  8  1  0  0  0  0
  7 20  1  0  0  0  0
  9 10  1  0  0  0  0
  9 21  1  0  0  0  0
 10 18  1  0  0  0  0
 10 11  1  0  0  0  0
 10 22  1  0  0  0  0
 11 12  1  0  0  0  0
 11 23  1  0  0  0  0
 11 24  1  0  0  0  0
 12 13  1  0  0  0  0
 12 25  1  0  0  0  0
 12 26  1  0  0  0  0
 13 18  1  0  0  0  0
 13 14  1  0  0  0  0
 13 36  1  0  0  0  0
 14 15  1  0  0  0  0
 14 27  1  0  0  0  0
 14 28  1  0  0  0  0
 15 16  1  0  0  0  0
 15 29  1  0  0  0  0
 15 30  1  0  0  0  0
 16 17  1  0  0  0  0
 16 31  1  0  0  0  0
 16 32  1  0  0  0  0
 17 18  1  0  0  0  0
 17 33  1  0  0  0  0
 17 34  1  0  0  0  0
 18 35  1  0  0  0  0
M  CHG  1   3  -1
M  CHG  1  13   1
M  END
> <s_m_source_file>
AV-unprocessed.smi

> <i_m_source_file_index>
1965

> <i_lp_mmshare_version>
43012

> <i_f3d_flags>
0

> <s_epik_input>
czFbY0hdW2NIXW5jMVtOSF1DKD1PKVtOSF1bQ0BIXShbQ0gyXVtDSDJdMilbQ0BASF0oTjIzKVtDSDJdW0NIMl1bQ0gyXVtDSDJdMw==

> <s_epik_cmdline>
J2VwaWtfcHl0aG9uJywgJy1waCcsICc3LjAnLCAnLXRuJywgJzgnLCAnLW1hJywgJzIwMCcsICctbWV0YWxfYmluZGluZycsICctaW1hZScsICc8aW5maWxlLm1hZT4nLCAnLW9tYWUnLCAnPG91dGZpbGUubWFlPic=

> <r_lp_tautomer_probability>
1

> <r_epik_Ionization_Penalty>
7.4116

> <r_epik_Ionization_Penalty_Charging>
6.13869

> <r_epik_Ionization_Penalty_Neutral>
1.27291

> <r_epik_State_Penalty>
6.13761

> <r_epik_Charging_Adjusted_Penalty>
12.2763

> <i_epik_Tot_Q>
0

> <i_epik_Tot_abs_Q>
2

> <r_epik_Metal_State_Penalty>
2.08142

> <b_epik_Metal_Only>
1

> <s_lp_Force_Field>
OPLS_2005

> <r_lp_Energy>
29.0908

> <b_lp_Chiralities_Consistent>
1

> <s_lp_Variant>
AV-unprocessed.smi:1965-16

> <Gold.Version>
5.8.1

> <Gold.Id.Protein>
6NUR|6NUR_protein|mol2

> <Gold.PLP.Fitness>
37.7308

> <Gold.PLP.PLP>
-32.0104

> <Gold.PLP.part.hbond>
-2.0000

> <Gold.PLP.part.metal>
0.0000

> <Gold.PLP.part.buried>
-0.8529

> <Gold.PLP.part.nonpolar>
-29.4104

> <Gold.PLP.part.repulsive>
0.2941

> <Gold.PLP.ligand.clash>
0.0000

> <Gold.PLP.ligand.torsion>
0.1451

> <Gold.PLP.Chemscore.Hbond>
2.0000

> <Gold.PLP.Chemscore.CHOScore>
0.0000

> <Gold.PLP.Chemscore.Metal>
0.0000

> <Gold.Chemscore.Hbonds>
donor molecule, donor type, donor heavy atom, donor atom, acceptor molecule, acceptor atom, score
      L1  H     9    21       P1  8028  1.00
      L1  H    13    36       P1  7957  1.00

> <Gold.PLP.Chemscore.Internal.Correction>
0.0106

> <Gold.Rescore>
     Score         DG    S(hbond)    S(metal)    S(lipo)     H(rot)  DE(clash)    DE(int)     intcor
     14.70     -19.23       1.99        0.00      82.62       1.00       1.35       3.18       ----

> <Gold.Chemscore.Fitness>
14.7016

> <Gold.Chemscore.DG>
-19.2287

> <Gold.Chemscore.ZeroCoef>
-5.4800

> <Gold.Chemscore.Hbond>
1.9885

> <Gold.Chemscore.Metal>
0.0000

> <Gold.Chemscore.Lipo>
82.6238

> <Gold.Chemscore.Internal_Hbond>
0.0000

> <Gold.Chemscore.DEClash>
1.3485

> <Gold.Chemscore.DEInternal>
3.1786

> <Gold.Chemscore.Rot>
1.0000

> <Gold.Chemscore.Internal.Correction>
   9.000000E+99

> <Gold.Chemscore.Hbonds>
donor molecule, donor type, donor heavy atom, donor atom, acceptor molecule, acceptor atom, score
      L1  H     9    21       P1  8028  0.98
      L1  H    13    36       P1  7957  1.00

> <Gold.Chemscore.Hbond.Weighted>
-6.6417

> <Gold.Chemscore.Metal.Weighted>
-0.0000

> <Gold.Chemscore.Lipo.Weighted>
-9.6670

> <Gold.Chemscore.Internal_Hbond.Weighted>
0.0000

> <Gold.Chemscore.DEClash.Weighted>
1.3485

> <Gold.Chemscore.DEInternal.Weighted>
3.1786

> <Gold.Chemscore.Rot.Weighted>
2.5600

> <Gold.Chemscore.Internal.Correction.Weighted>
   9.000000E+99

> <Gold.Protein.RotatedTorsions>
[ 6907 6896 6895 6894 ] final -179.24 input  -60.11 | X-H torsion
[ 7974 7965 7964 7962 ] final  -67.69 input  175.53 | X-H torsion
[ 8008 7997 7996 7995 ] final    3.53 input   59.86 | X-H torsion
[ 10167 10162 10161 10158 ] final   85.09 input  -65.29 | X-H torsion
[ 10718 10713 10712 10709 ] final    3.63 input   66.30 | X-H torsion
[ 10763 10752 10751 10750 ] final  163.62 input  -60.55 | X-H torsion
[ 11005 11000 10999 10996 ] final  -69.69 input  -57.11 | X-H torsion

> <Gold.Protein.ActiveResidues>
 VAL166  LYS551  ARG553  GLY616  TRP617  ASP618  TYR619  PRO620  LYS621  CYS622 
 ASP623  PHE694  ASN695  SER759  ASP760  ASP761  ALA762  ILE779  LEU786  VAL792 
 PHE793  MET794  SER795  GLU796  ALA797  LYS798  CYS799  TRP800  GLU811  SER814 

> <Gold.Protein.RotatedAtoms>
  151.6502  133.3321  159.3149 H   0  0  0  0  0  0  0  0  0  0  0  0  # atno 6907 bound_to 6896
  150.7964  134.7030  159.6570 H   0  0  0  0  0  0  0  0  0  0  0  0  # atno 6908 bound_to 6896
  152.4051  134.6224  160.0105 H   0  0  0  0  0  0  0  0  0  0  0  0  # atno 6909 bound_to 6896
  145.7260  140.9018  143.0605 H   0  0  0  0  0  0  0  0  0  0  0  0  # atno 7974 bound_to 7965
  154.7048  140.2680  155.6685 H   0  0  0  0  0  0  0  0  0  0  0  0  # atno 8008 bound_to 7997
  156.2776  140.2765  156.1594 H   0  0  0  0  0  0  0  0  0  0  0  0  # atno 8009 bound_to 7997
  155.0715  140.0372  157.2600 H   0  0  0  0  0  0  0  0  0  0  0  0  # atno 8010 bound_to 7997
  139.9014  144.6327  150.8633 H   0  0  0  0  0  0  0  0  0  0  0  0  # atno 10167 bound_to 10162
  156.8807  130.5652  149.5653 H   0  0  0  0  0  0  0  0  0  0  0  0  # atno 10718 bound_to 10713
  154.2965  135.2760  155.2631 H   0  0  0  0  0  0  0  0  0  0  0  0  # atno 10763 bound_to 10752
  154.5086  135.5788  153.6591 H   0  0  0  0  0  0  0  0  0  0  0  0  # atno 10764 bound_to 10752
  152.9906  135.6175  154.3133 H   0  0  0  0  0  0  0  0  0  0  0  0  # atno 10765 bound_to 10752
  141.1559  133.6771  156.6638 H   0  0  0  0  0  0  0  0  0  0  0  0  # atno 11005 bound_to 11000
  144.6905  139.9266  143.7470 LP  0  0  0  0  0  0  0  0  0  0  0  0  # atno 17320 bound_to 7965
  146.0582  139.3577  143.0598 LP  0  0  0  0  0  0  0  0  0  0  0  0  # atno 17321 bound_to 7965
  140.7706  143.3434  151.2161 LP  0  0  0  0  0  0  0  0  0  0  0  0  # atno 17342 bound_to 10162
  139.7022  143.9514  152.2911 LP  0  0  0  0  0  0  0  0  0  0  0  0  # atno 17343 bound_to 10162
  156.0679  130.5718  150.9325 LP  0  0  0  0  0  0  0  0  0  0  0  0  # atno 17370 bound_to 10713
  157.6142  131.0934  150.8740 LP  0  0  0  0  0  0  0  0  0  0  0  0  # atno 17371 bound_to 10713
  140.3227  134.7994  157.4265 LP  0  0  0  0  0  0  0  0  0  0  0  0  # atno 17394 bound_to 11000
  140.1083  134.5379  155.8289 LP  0  0  0  0  0  0  0  0  0  0  0  0  # atno 17395 bound_to 11000

$$$$
