AV-unprocessed.smi:198|AV-procd|sdf|1555|dock7
  -GOLD-   2262019423D 1   1.00000     0.00000
 Structure written by MMmdl.
 59 63  0  0  0  0  0  0  0  0  2 V2000
  148.8824  128.4095  152.4814 C   0  0  0  0  0  0  0  0  0  0  0  0
  148.2405  129.7330  152.3320 N   0  3  2  0  0  0  0  0  0  0  0  0
  149.0059  130.8106  153.0049 C   0  0  0  0  0  0  0  0  0  0  0  0
  148.3972  132.1872  152.7011 C   0  0  0  0  0  0  0  0  0  0  0  0
  146.9104  132.2358  153.1140 C   0  0  2  0  0  0  0  0  0  0  0  0
  146.1228  131.0698  152.4706 C   0  0  1  0  0  0  0  0  0  0  0  0
  145.8648  131.3107  150.9686 C   0  0  0  0  0  0  0  0  0  0  0  0
  145.1895  132.6725  150.7544 C   0  0  0  0  0  0  0  0  0  0  0  0
  146.0107  133.8043  151.3908 C   0  0  0  0  0  0  0  0  0  0  0  0
  146.2789  133.5250  152.8042 N   0  0  0  0  0  0  0  0  0  0  0  0
  146.6611  134.5674  153.5878 C   0  0  0  0  0  0  0  0  0  0  0  0
  147.4299  134.3382  154.6861 N   0  0  0  0  0  0  0  0  0  0  0  0
  147.7975  135.3501  155.4774 C   0  0  0  0  0  0  0  0  0  0  0  0
  147.5090  136.6471  155.3605 N   0  0  0  0  0  0  0  0  0  0  0  0
  146.7406  136.8864  154.2596 C   0  0  0  0  0  0  0  0  0  0  0  0
  146.2820  135.9147  153.3251 C   0  0  0  0  0  0  0  0  0  0  0  0
  145.5514  136.5365  152.3193 N   0  0  0  0  0  0  0  0  0  0  0  0
  145.5740  137.8006  152.6425 C   0  0  0  0  0  0  0  0  0  0  0  0
  146.2390  138.0961  153.8111 N   0  0  0  0  0  0  0  0  0  0  0  0
  146.4484  139.3981  154.3743 C   0  0  0  0  0  0  0  0  0  0  0  0
  146.7580  140.6045  153.4804 C   0  0  0  0  0  0  0  0  0  0  0  0
  147.7331  141.1550  154.5463 C   0  0  0  0  0  0  0  0  0  0  0  0
  149.0870  141.6769  154.0297 C   0  0  0  0  0  0  0  0  0  0  0  0
  149.8157  140.6984  153.3150 O   0  0  0  0  0  0  0  0  0  0  0  0
  147.1894  142.2787  155.4536 C   0  0  0  0  0  0  0  0  0  0  0  0
  148.0198  142.5588  156.5624 O   0  0  0  0  0  0  0  0  0  0  0  0
  147.7308  139.7306  155.1469 C   0  0  0  0  0  0  0  0  0  0  0  0
  146.8144  129.7185  152.7456 C   0  0  0  0  0  0  0  0  0  0  0  0
  148.9148  128.1061  153.5289 H   0  0  0  0  0  0  0  0  0  0  0  0
  149.9035  128.4313  152.0994 H   0  0  0  0  0  0  0  0  0  0  0  0
  148.3350  127.6504  151.9218 H   0  0  0  0  0  0  0  0  0  0  0  0
  149.0204  130.6338  154.0816 H   0  0  0  0  0  0  0  0  0  0  0  0
  150.0425  130.7904  152.6658 H   0  0  0  0  0  0  0  0  0  0  0  0
  148.9599  132.9557  153.2322 H   0  0  0  0  0  0  0  0  0  0  0  0
  148.5122  132.4053  151.6393 H   0  0  0  0  0  0  0  0  0  0  0  0
  146.8726  132.0756  154.1905 H   0  0  0  0  0  0  0  0  0  0  0  0
  145.1447  131.0318  152.9534 H   0  0  0  0  0  0  0  0  0  0  0  0
  146.7990  131.2749  150.4078 H   0  0  0  0  0  0  0  0  0  0  0  0
  145.2325  130.5197  150.5639 H   0  0  0  0  0  0  0  0  0  0  0  0
  145.0562  132.8620  149.6889 H   0  0  0  0  0  0  0  0  0  0  0  0
  144.1912  132.6574  151.1937 H   0  0  0  0  0  0  0  0  0  0  0  0
  146.9518  133.9330  150.8552 H   0  0  0  0  0  0  0  0  0  0  0  0
  145.4592  134.7407  151.2940 H   0  0  0  0  0  0  0  0  0  0  0  0
  148.4068  135.0821  156.3279 H   0  0  0  0  0  0  0  0  0  0  0  0
  145.0975  138.5559  152.0343 H   0  0  0  0  0  0  0  0  0  0  0  0
  145.5700  139.5954  154.9899 H   0  0  0  0  0  0  0  0  0  0  0  0
  147.2458  140.3111  152.5500 H   0  0  0  0  0  0  0  0  0  0  0  0
  145.8963  141.2408  153.2769 H   0  0  0  0  0  0  0  0  0  0  0  0
  148.9455  142.5331  153.3693 H   0  0  0  0  0  0  0  0  0  0  0  0
  149.7117  142.0173  154.8562 H   0  0  0  0  0  0  0  0  0  0  0  0
  149.4058  140.5736  152.4729 H   0  0  0  0  0  0  0  0  0  0  0  0
  147.0707  143.2050  154.8904 H   0  0  0  0  0  0  0  0  0  0  0  0
  146.2027  142.0196  155.8392 H   0  0  0  0  0  0  0  0  0  0  0  0
  148.4516  143.3863  156.4136 H   0  0  0  0  0  0  0  0  0  0  0  0
  147.6204  139.6921  156.2311 H   0  0  0  0  0  0  0  0  0  0  0  0
  148.5778  139.1227  154.8259 H   0  0  0  0  0  0  0  0  0  0  0  0
  146.2858  128.9194  152.2239 H   0  0  0  0  0  0  0  0  0  0  0  0
  146.7566  129.4863  153.8104 H   0  0  0  0  0  0  0  0  0  0  0  0
  148.2511  129.9460  151.3446 H   0  0  0  0  0  0  0  0  0  0  0  0
  1  2  1  0  0  0  0
  1 29  1  0  0  0  0
  1 30  1  0  0  0  0
  1 31  1  0  0  0  0
  2 28  1  0  0  0  0
  2  3  1  0  0  0  0
  2 59  1  0  0  0  0
  3  4  1  0  0  0  0
  3 32  1  0  0  0  0
  3 33  1  0  0  0  0
  4  5  1  0  0  0  0
  4 34  1  0  0  0  0
  4 35  1  0  0  0  0
  5 10  1  0  0  0  0
  5  6  1  0  0  0  0
  5 36  1  0  0  0  0
  6  7  1  0  0  0  0
  6 28  1  0  0  0  0
  6 37  1  0  0  0  0
  7  8  1  0  0  0  0
  7 38  1  0  0  0  0
  7 39  1  0  0  0  0
  8  9  1  0  0  0  0
  8 40  1  0  0  0  0
  8 41  1  0  0  0  0
  9 10  1  0  0  0  0
  9 42  1  0  0  0  0
  9 43  1  0  0  0  0
 10 11  1  0  0  0  0
 11 16  1  0  0  0  0
 11 12  2  0  0  0  0
 12 13  1  0  0  0  0
 13 14  2  0  0  0  0
 13 44  1  0  0  0  0
 14 15  1  0  0  0  0
 15 19  1  0  0  0  0
 15 16  2  0  0  0  0
 16 17  1  0  0  0  0
 17 18  2  0  0  0  0
 18 19  1  0  0  0  0
 18 45  1  0  0  0  0
 19 20  1  0  0  0  0
 20 27  1  0  0  0  0
 20 21  1  0  0  0  0
 20 46  1  0  0  0  0
 21 22  1  0  0  0  0
 21 47  1  0  0  0  0
 21 48  1  0  0  0  0
 22 23  1  0  0  0  0
 22 25  1  0  0  0  0
 22 27  1  0  0  0  0
 23 24  1  0  0  0  0
 23 49  1  0  0  0  0
 23 50  1  0  0  0  0
 24 51  1  0  0  0  0
 25 26  1  0  0  0  0
 25 52  1  0  0  0  0
 25 53  1  0  0  0  0
 26 54  1  0  0  0  0
 27 55  1  0  0  0  0
 27 56  1  0  0  0  0
 28 57  1  0  0  0  0
 28 58  1  0  0  0  0
M  CHG  1   2   1
M  END
> <s_m_source_file>
AV-unprocessed.smi

> <i_m_source_file_index>
198

> <i_lp_mmshare_version>
43012

> <i_f3d_flags>
0

> <s_epik_input>
W0NIMl0xW0NIMl1OKFtDSDNdKVtDSDJdW0NAQEhdKFtDQEhdMTIpW0NIMl1bQ0gyXVtDSDJdTjJjKG5bY0hdbjMpYyhjMzQpbltjSF1uNFtDSF0oW0NIMl01KVtDSDJdQzUoW0NIMl1bT0hdKVtDSDJdW09IXQ==

> <s_epik_cmdline>
J2VwaWtfcHl0aG9uJywgJy1waCcsICc3LjAnLCAnLXRuJywgJzgnLCAnLW1hJywgJzIwMCcsICctbWV0YWxfYmluZGluZycsICctaW1hZScsICc8aW5maWxlLm1hZT4nLCAnLW9tYWUnLCAnPG91dGZpbGUubWFlPic=

> <r_lp_tautomer_probability>
1

> <r_epik_Ionization_Penalty>
0.00239938

> <r_epik_Ionization_Penalty_Charging>
0.00138697

> <r_epik_Ionization_Penalty_Neutral>
0.00101241

> <r_epik_State_Penalty>
-0

> <r_epik_Charging_Adjusted_Penalty>
0.00138697

> <i_epik_Tot_Q>
1

> <i_epik_Tot_abs_Q>
1

> <r_epik_Metal_State_Penalty>
-0

> <b_epik_Metal_Only>
0

> <s_lp_Force_Field>
OPLS_2005

> <r_lp_Energy>
59.0053

> <b_lp_Chiralities_Consistent>
1

> <s_lp_Variant>
AV-unprocessed.smi:198-4

> <Gold.Version>
5.8.1

> <Gold.Id.Protein>
6NUR|6NUR_protein|mol2

> <Gold.PLP.Fitness>
48.9035

> <Gold.PLP.PLP>
-33.6835

> <Gold.PLP.part.hbond>
-4.0000

> <Gold.PLP.part.metal>
0.0000

> <Gold.PLP.part.buried>
-1.0294

> <Gold.PLP.part.nonpolar>
-28.5690

> <Gold.PLP.part.repulsive>
0.4068

> <Gold.PLP.ligand.clash>
0.0000

> <Gold.PLP.ligand.torsion>
1.2065

> <Gold.PLP.Chemscore.Hbond>
3.6000

> <Gold.PLP.Chemscore.CHOScore>
1.9752

> <Gold.PLP.Chemscore.Metal>
0.0000

> <Gold.Chemscore.Hbonds>
donor molecule, donor type, donor heavy atom, donor atom, acceptor molecule, acceptor atom, score
      L1  H     2    59       P1 10747  0.85
      L1  H    24    51       P1  7957  0.66
      L1  H    26    54       P1  8028  1.00
      P1  H  7989  7998       L1    24  0.32
      L1  C    18    45       P1 10171  1.00
      L1  C    18    45       P1 10175  1.00

> <Gold.PLP.Chemscore.Internal.Correction>
0.9074

> <Gold.Rescore>
     Score         DG    S(hbond)    S(metal)    S(lipo)     H(rot)  DE(clash)    DE(int)     intcor
     13.61     -17.45       2.93        0.00      86.12       3.08       1.26       2.58       ----

> <Gold.Chemscore.Fitness>
13.6108

> <Gold.Chemscore.DG>
-17.4473

> <Gold.Chemscore.ZeroCoef>
-5.4800

> <Gold.Chemscore.Hbond>
2.9255

> <Gold.Chemscore.Metal>
0.0000

> <Gold.Chemscore.Lipo>
86.1203

> <Gold.Chemscore.Internal_Hbond>
0.0000

> <Gold.Chemscore.DEClash>
1.2577

> <Gold.Chemscore.DEInternal>
2.5789

> <Gold.Chemscore.Rot>
3.0781

> <Gold.Chemscore.Internal.Correction>
   9.000000E+99

> <Gold.Chemscore.Hbonds>
donor molecule, donor type, donor heavy atom, donor atom, acceptor molecule, acceptor atom, score
      L1  H     2    59       P1 10747  0.65
      L1  H    24    51       P1  7957  0.63
      L1  H    26    54       P1  8028  0.58
      P1  H  7989  7998       L1    24  0.28

> <Gold.Chemscore.Hbond.Weighted>
-9.7713

> <Gold.Chemscore.Metal.Weighted>
-0.0000

> <Gold.Chemscore.Lipo.Weighted>
-10.0761

> <Gold.Chemscore.Internal_Hbond.Weighted>
0.0000

> <Gold.Chemscore.DEClash.Weighted>
1.2577

> <Gold.Chemscore.DEInternal.Weighted>
2.5789

> <Gold.Chemscore.Rot.Weighted>
7.8800

> <Gold.Chemscore.Internal.Correction.Weighted>
   9.000000E+99

> <Gold.Protein.RotatedTorsions>
[ 6907 6896 6895 6894 ] final   94.32 input  -60.11 | X-H torsion
[ 7974 7965 7964 7962 ] final -122.26 input  175.53 | X-H torsion
[ 8008 7997 7996 7995 ] final -158.89 input   59.86 | X-H torsion
[ 10167 10162 10161 10158 ] final -105.93 input  -65.29 | X-H torsion
[ 10718 10713 10712 10709 ] final   94.98 input   66.30 | X-H torsion
[ 10763 10752 10751 10750 ] final  -49.80 input  -60.55 | X-H torsion
[ 11005 11000 10999 10996 ] final  -31.85 input  -57.11 | X-H torsion

> <Gold.Protein.ActiveResidues>
 VAL166  LYS551  ARG553  GLY616  TRP617  ASP618  TYR619  PRO620  LYS621  CYS622 
 ASP623  PHE694  ASN695  SER759  ASP760  ASP761  ALA762  ILE779  LEU786  VAL792 
 PHE793  MET794  SER795  GLU796  ALA797  LYS798  CYS799  TRP800  GLU811  SER814 

> <Gold.Protein.RotatedAtoms>
  152.5450  134.1211  159.8399 H   0  0  0  0  0  0  0  0  0  0  0  0  # atno 6907 bound_to 6896
  151.1267  133.5058  159.2608 H   0  0  0  0  0  0  0  0  0  0  0  0  # atno 6908 bound_to 6896
  151.1720  135.0332  159.8810 H   0  0  0  0  0  0  0  0  0  0  0  0  # atno 6909 bound_to 6896
  145.0314  140.8070  143.4321 H   0  0  0  0  0  0  0  0  0  0  0  0  # atno 7974 bound_to 7965
  155.7543  140.0831  157.2186 H   0  0  0  0  0  0  0  0  0  0  0  0  # atno 8008 bound_to 7997
  154.4009  140.1554  156.2816 H   0  0  0  0  0  0  0  0  0  0  0  0  # atno 8009 bound_to 7997
  155.8900  140.3416  155.5952 H   0  0  0  0  0  0  0  0  0  0  0  0  # atno 8010 bound_to 7997
  140.1932  143.3876  152.1190 H   0  0  0  0  0  0  0  0  0  0  0  0  # atno 10167 bound_to 10162
  157.6943  131.0530  150.4269 H   0  0  0  0  0  0  0  0  0  0  0  0  # atno 10718 bound_to 10713
  154.1000  135.6565  153.4866 H   0  0  0  0  0  0  0  0  0  0  0  0  # atno 10763 bound_to 10752
  153.0292  135.5223  154.7296 H   0  0  0  0  0  0  0  0  0  0  0  0  # atno 10764 bound_to 10752
  154.6445  135.2993  155.0032 H   0  0  0  0  0  0  0  0  0  0  0  0  # atno 10765 bound_to 10752
  140.9503  133.7225  156.1209 H   0  0  0  0  0  0  0  0  0  0  0  0  # atno 11005 bound_to 11000
  145.1766  139.2375  143.5314 LP  0  0  0  0  0  0  0  0  0  0  0  0  # atno 17320 bound_to 7965
  146.3499  140.1529  142.8592 LP  0  0  0  0  0  0  0  0  0  0  0  0  # atno 17321 bound_to 7965
  139.5247  144.7087  151.5273 LP  0  0  0  0  0  0  0  0  0  0  0  0  # atno 17342 bound_to 10162
  140.6441  143.8829  150.6720 LP  0  0  0  0  0  0  0  0  0  0  0  0  # atno 17343 bound_to 10162
  156.4639  130.4038  149.6559 LP  0  0  0  0  0  0  0  0  0  0  0  0  # atno 17370 bound_to 10713
  156.3664  130.7508  151.2486 LP  0  0  0  0  0  0  0  0  0  0  0  0  # atno 17371 bound_to 10713
  140.7612  134.3937  157.5525 LP  0  0  0  0  0  0  0  0  0  0  0  0  # atno 17394 bound_to 11000
  139.8845  134.8963  156.2698 LP  0  0  0  0  0  0  0  0  0  0  0  0  # atno 17395 bound_to 11000

$$$$
