AV-unprocessed.smi:1639|AV-procd|sdf|6548|dock7
  -GOLD-   22720 7233D 1   1.00000     0.00000
 Structure written by MMmdl.
 37 38  0  0  0  0  0  0  0  0  1 V2000
  149.8867  144.8094  160.0576 C   0  0  0  0  0  0  0  0  0  0  0  0
  151.2829  145.2830  159.6488 C   0  0  0  0  0  0  0  0  0  0  0  0
  152.2489  144.5053  160.3407 O   0  0  0  0  0  0  0  0  0  0  0  0
  152.1418  143.1032  160.1280 C   0  0  2  0  0  0  0  0  0  0  0  0
  153.3899  142.4481  160.7405 C   0  0  0  0  0  0  0  0  0  0  0  0
  153.3791  140.9362  160.4754 C   0  0  0  0  0  0  0  0  0  0  0  0
  153.2601  140.6424  158.9711 C   0  0  0  0  0  0  0  0  0  0  0  0
  152.1029  141.3251  158.3899 N   0  0  0  0  0  0  0  0  0  0  0  0
  151.6918  140.8509  157.1251 C   0  0  0  0  0  0  0  0  0  0  0  0
  150.5124  141.3404  156.5135 C   0  0  0  0  0  0  0  0  0  0  0  0
  150.1795  140.8069  155.2504 C   0  0  0  0  0  0  0  0  0  0  0  0
  148.9412  141.2579  154.5055 C   0  0  0  0  0  0  0  0  0  0  0  0
  150.9438  139.8710  154.6478 N   0  0  0  0  0  0  0  0  0  0  0  0
  152.0359  139.4812  155.3057 C   0  0  0  0  0  0  0  0  0  0  0  0
  152.8164  138.5317  154.6931 N   0  0  0  0  0  0  0  0  0  0  0  0
  152.4493  139.9160  156.4974 N   0  0  0  0  0  0  0  0  0  0  0  0
  152.0443  142.7709  158.6234 C   0  0  0  0  0  0  0  0  0  0  0  0
  149.1153  145.3813  159.5418 H   0  0  0  0  0  0  0  0  0  0  0  0
  149.7312  144.9289  161.1300 H   0  0  0  0  0  0  0  0  0  0  0  0
  149.7433  143.7568  159.8125 H   0  0  0  0  0  0  0  0  0  0  0  0
  151.4079  145.1701  158.5709 H   0  0  0  0  0  0  0  0  0  0  0  0
  151.3936  146.3409  159.8865 H   0  0  0  0  0  0  0  0  0  0  0  0
  151.2628  142.7173  160.6477 H   0  0  0  0  0  0  0  0  0  0  0  0
  154.2899  142.8890  160.3099 H   0  0  0  0  0  0  0  0  0  0  0  0
  153.4291  142.6404  161.8131 H   0  0  0  0  0  0  0  0  0  0  0  0
  154.2858  140.4804  160.8736 H   0  0  0  0  0  0  0  0  0  0  0  0
  152.5429  140.4780  161.0049 H   0  0  0  0  0  0  0  0  0  0  0  0
  154.1586  140.9834  158.4550 H   0  0  0  0  0  0  0  0  0  0  0  0
  153.2091  139.5640  158.8277 H   0  0  0  0  0  0  0  0  0  0  0  0
  149.8958  142.0970  156.9750 H   0  0  0  0  0  0  0  0  0  0  0  0
  148.6105  142.2360  154.8561 H   0  0  0  0  0  0  0  0  0  0  0  0
  148.1305  140.5454  154.6588 H   0  0  0  0  0  0  0  0  0  0  0  0
  149.1383  141.3313  153.4355 H   0  0  0  0  0  0  0  0  0  0  0  0
  152.5562  138.1623  153.7903 H   0  0  0  0  0  0  0  0  0  0  0  0
  153.6796  138.2283  155.1194 H   0  0  0  0  0  0  0  0  0  0  0  0
  151.1106  143.1662  158.2233 H   0  0  0  0  0  0  0  0  0  0  0  0
  152.8590  143.2518  158.0804 H   0  0  0  0  0  0  0  0  0  0  0  0
  1  2  1  0  0  0  0
  1 18  1  0  0  0  0
  1 19  1  0  0  0  0
  1 20  1  0  0  0  0
  2  3  1  0  0  0  0
  2 21  1  0  0  0  0
  2 22  1  0  0  0  0
  3  4  1  0  0  0  0
  4 17  1  0  0  0  0
  4  5  1  0  0  0  0
  4 23  1  0  0  0  0
  5  6  1  0  0  0  0
  5 24  1  0  0  0  0
  5 25  1  0  0  0  0
  6  7  1  0  0  0  0
  6 26  1  0  0  0  0
  6 27  1  0  0  0  0
  7  8  1  0  0  0  0
  7 28  1  0  0  0  0
  7 29  1  0  0  0  0
  8  9  1  0  0  0  0
  8 17  1  0  0  0  0
  9 16  1  0  0  0  0
  9 10  2  0  0  0  0
 10 11  1  0  0  0  0
 10 30  1  0  0  0  0
 11 12  1  0  0  0  0
 11 13  2  0  0  0  0
 12 31  1  0  0  0  0
 12 32  1  0  0  0  0
 12 33  1  0  0  0  0
 13 14  1  0  0  0  0
 14 15  1  0  0  0  0
 14 16  2  0  0  0  0
 15 34  1  0  0  0  0
 15 35  1  0  0  0  0
 17 36  1  0  0  0  0
 17 37  1  0  0  0  0
M  END
> <s_m_source_file>
AV-unprocessed.smi

> <i_m_source_file_index>
1639

> <i_lp_mmshare_version>
43012

> <i_f3d_flags>
0

> <s_epik_input>
W0NIM11bQ0gyXU9bQ0BASF0xW0NIMl1bQ0gyXVtDSDJdTihbQ0gyXTEpYzJbY0hdYyhbQ0gzXSluYyhuMilbTkgyXQ==

> <s_epik_cmdline>
J2VwaWtfcHl0aG9uJywgJy1waCcsICc3LjAnLCAnLXRuJywgJzgnLCAnLW1hJywgJzIwMCcsICctbWV0YWxfYmluZGluZycsICctaW1hZScsICc8aW5maWxlLm1hZT4nLCAnLW9tYWUnLCAnPG91dGZpbGUubWFlPic=

> <r_lp_tautomer_probability>
1

> <r_epik_Ionization_Penalty>
0.383805

> <r_epik_Ionization_Penalty_Charging>
0

> <r_epik_Ionization_Penalty_Neutral>
0.383805

> <r_epik_State_Penalty>
0.0922942

> <r_epik_Charging_Adjusted_Penalty>
0.0922942

> <i_epik_Tot_Q>
0

> <i_epik_Tot_abs_Q>
0

> <r_epik_Metal_State_Penalty>
0.050432

> <b_epik_Metal_Only>
0

> <s_lp_Force_Field>
OPLS_2005

> <r_lp_Energy>
9.62656

> <b_lp_Chiralities_Consistent>
1

> <s_lp_Variant>
AV-unprocessed.smi:1639-1

> <Gold.Version>
5.8.1

> <Gold.Id.Protein>
6NUR|6NUR_protein|mol2

> <Gold.PLP.Fitness>
43.5584

> <Gold.PLP.PLP>
-37.9981

> <Gold.PLP.part.hbond>
-2.0000

> <Gold.PLP.part.metal>
0.0000

> <Gold.PLP.part.buried>
-4.3786

> <Gold.PLP.part.nonpolar>
-30.7080

> <Gold.PLP.part.repulsive>
0.3883

> <Gold.PLP.ligand.clash>
0.0000

> <Gold.PLP.ligand.torsion>
0.2841

> <Gold.PLP.Chemscore.Hbond>
1.9000

> <Gold.PLP.Chemscore.CHOScore>
0.0000

> <Gold.PLP.Chemscore.Metal>
0.0000

> <Gold.Chemscore.Hbonds>
donor molecule, donor type, donor heavy atom, donor atom, acceptor molecule, acceptor atom, score
      P1  H  7989  7998       L1    13  0.90
      P1  H  7997  8009       L1    16  1.00

> <Gold.PLP.Chemscore.Internal.Correction>
0.4284

> <Gold.Rescore>
     Score         DG    S(hbond)    S(metal)    S(lipo)     H(rot)  DE(clash)    DE(int)     intcor
     14.92     -15.30       0.86        0.00      90.54       1.43       0.15       0.23       ----

> <Gold.Chemscore.Fitness>
14.9199

> <Gold.Chemscore.DG>
-15.3029

> <Gold.Chemscore.ZeroCoef>
-5.4800

> <Gold.Chemscore.Hbond>
0.8648

> <Gold.Chemscore.Metal>
0.0000

> <Gold.Chemscore.Lipo>
90.5422

> <Gold.Chemscore.Internal_Hbond>
0.0000

> <Gold.Chemscore.DEClash>
0.1517

> <Gold.Chemscore.DEInternal>
0.2313

> <Gold.Chemscore.Rot>
1.4293

> <Gold.Chemscore.Internal.Correction>
   9.000000E+99

> <Gold.Chemscore.Hbonds>
donor molecule, donor type, donor heavy atom, donor atom, acceptor molecule, acceptor atom, score
      P1  H  7989  7998       L1    13  0.05
      P1  H  7997  8009       L1    16  0.59

> <Gold.Chemscore.Hbond.Weighted>
-2.8884

> <Gold.Chemscore.Metal.Weighted>
-0.0000

> <Gold.Chemscore.Lipo.Weighted>
-10.5934

> <Gold.Chemscore.Internal_Hbond.Weighted>
0.0000

> <Gold.Chemscore.DEClash.Weighted>
0.1517

> <Gold.Chemscore.DEInternal.Weighted>
0.2313

> <Gold.Chemscore.Rot.Weighted>
3.6589

> <Gold.Chemscore.Internal.Correction.Weighted>
   9.000000E+99

> <Gold.Protein.RotatedTorsions>
[ 6907 6896 6895 6894 ] final  -57.01 input  -60.11 | X-H torsion
[ 7974 7965 7964 7962 ] final   91.16 input  175.53 | X-H torsion
[ 8008 7997 7996 7995 ] final -165.11 input   59.86 | X-H torsion
[ 10167 10162 10161 10158 ] final  -86.46 input  -65.29 | X-H torsion
[ 10718 10713 10712 10709 ] final   71.31 input   66.30 | X-H torsion
[ 10763 10752 10751 10750 ] final -131.98 input  -60.55 | X-H torsion
[ 11005 11000 10999 10996 ] final  -33.28 input  -57.11 | X-H torsion

> <Gold.Protein.ActiveResidues>
 VAL166  LYS551  ARG553  GLY616  TRP617  ASP618  TYR619  PRO620  LYS621  CYS622 
 ASP623  PHE694  ASN695  SER759  ASP760  ASP761  ALA762  ILE779  LEU786  VAL792 
 PHE793  MET794  SER795  GLU796  ALA797  LYS798  CYS799  TRP800  GLU811  SER814 

> <Gold.Protein.RotatedAtoms>
  150.8121  134.7282  159.6696 H   0  0  0  0  0  0  0  0  0  0  0  0  # atno 6907 bound_to 6896
  152.4241  134.5898  159.9981 H   0  0  0  0  0  0  0  0  0  0  0  0  # atno 6908 bound_to 6896
  151.6105  133.3310  159.3102 H   0  0  0  0  0  0  0  0  0  0  0  0  # atno 6909 bound_to 6896
  145.5093  139.2276  143.2733 H   0  0  0  0  0  0  0  0  0  0  0  0  # atno 7974 bound_to 7965
  155.8452  140.0954  157.1709 H   0  0  0  0  0  0  0  0  0  0  0  0  # atno 8008 bound_to 7997
  154.3983  140.1393  156.3839 H   0  0  0  0  0  0  0  0  0  0  0  0  # atno 8009 bound_to 7997
  155.8021  140.3452  155.5411 H   0  0  0  0  0  0  0  0  0  0  0  0  # atno 8010 bound_to 7997
  140.3939  143.2692  151.9229 H   0  0  0  0  0  0  0  0  0  0  0  0  # atno 10167 bound_to 10162
  157.6445  130.9522  150.0771 H   0  0  0  0  0  0  0  0  0  0  0  0  # atno 10718 bound_to 10713
  154.8747  135.3812  154.4335 H   0  0  0  0  0  0  0  0  0  0  0  0  # atno 10763 bound_to 10752
  153.5027  135.7030  153.5828 H   0  0  0  0  0  0  0  0  0  0  0  0  # atno 10764 bound_to 10752
  153.4152  135.3915  155.2043 H   0  0  0  0  0  0  0  0  0  0  0  0  # atno 10765 bound_to 10752
  140.9622  133.7158  156.1388 H   0  0  0  0  0  0  0  0  0  0  0  0  # atno 11005 bound_to 11000
  146.2177  140.5899  142.9031 LP  0  0  0  0  0  0  0  0  0  0  0  0  # atno 17320 bound_to 7965
  144.7736  140.5691  143.6653 LP  0  0  0  0  0  0  0  0  0  0  0  0  # atno 17321 bound_to 7965
  139.4787  144.5700  151.8103 LP  0  0  0  0  0  0  0  0  0  0  0  0  # atno 17342 bound_to 10162
  140.4811  144.1448  150.5933 LP  0  0  0  0  0  0  0  0  0  0  0  0  # atno 17343 bound_to 10162
  156.1758  130.3648  149.9102 LP  0  0  0  0  0  0  0  0  0  0  0  0  # atno 17370 bound_to 10713
  156.7066  130.8954  151.3605 LP  0  0  0  0  0  0  0  0  0  0  0  0  # atno 17371 bound_to 10713
  140.7451  134.4107  157.5549 LP  0  0  0  0  0  0  0  0  0  0  0  0  # atno 17394 bound_to 11000
  139.8882  134.8862  156.2487 LP  0  0  0  0  0  0  0  0  0  0  0  0  # atno 17395 bound_to 11000

$$$$
