AV-unprocessed.smi:2057|AV-procd|sdf|8343|dock6
  -GOLD-   2272011 13D 1   1.00000     0.00000
 Structure written by MMmdl.
 45 47  0  0  0  0  0  0  0  0  2 V2000
  151.8758  145.8475  160.1464 C   0  0  0  0  0  0  0  0  0  0  0  0
  151.3223  144.8521  159.2982 O   0  0  0  0  0  0  0  0  0  0  0  0
  151.9501  143.6266  159.2413 C   0  0  0  0  0  0  0  0  0  0  0  0
  153.1298  143.3019  159.9507 C   0  0  0  0  0  0  0  0  0  0  0  0
  153.7099  142.0265  159.8239 C   0  0  0  0  0  0  0  0  0  0  0  0
  153.1263  141.0426  158.9879 C   0  0  0  0  0  0  0  0  0  0  0  0
  153.6672  139.7855  158.8086 O   0  0  0  0  0  0  0  0  0  0  0  0
  154.4465  139.2276  159.8559 C   0  0  0  0  0  0  0  0  0  0  0  0
  151.9389  141.3612  158.2835 C   0  0  0  0  0  0  0  0  0  0  0  0
  151.2947  140.3404  157.3463 C   0  0  1  0  0  0  0  0  0  0  0  0
  149.9232  140.1371  157.6208 O   0  0  0  0  0  0  0  0  0  0  0  0
  151.4338  140.7296  155.8590 C   0  0  0  0  0  0  0  0  0  0  0  0
  150.4574  140.0422  154.9985 N   0  0  0  0  0  0  0  0  0  0  0  0
  150.5281  138.8182  154.4002 C   0  0  0  0  0  0  0  0  0  0  0  0
  151.6480  137.8359  154.4965 C   0  0  0  0  0  0  0  0  0  0  0  0
  151.2718  136.5519  154.0513 O   0  0  0  0  0  0  0  0  0  0  0  0
  149.3773  138.6476  153.6910 N   0  3  0  0  0  0  0  0  0  0  0  0
  148.5631  139.7712  153.8339 C   0  0  0  0  0  0  0  0  0  0  0  0
  147.3115  140.0611  153.2998 C   0  0  0  0  0  0  0  0  0  0  0  0
  146.7523  141.3103  153.6397 C   0  0  0  0  0  0  0  0  0  0  0  0
  147.4323  142.2141  154.4813 C   0  0  0  0  0  0  0  0  0  0  0  0
  148.6987  141.9067  155.0203 C   0  0  0  0  0  0  0  0  0  0  0  0
  149.2473  140.6706  154.6772 C   0  0  0  0  0  0  0  0  0  0  0  0
  151.3682  142.6470  158.4152 C   0  0  0  0  0  0  0  0  0  0  0  0
  151.2723  146.7527  160.0797 H   0  0  0  0  0  0  0  0  0  0  0  0
  152.8921  146.1059  159.8465 H   0  0  0  0  0  0  0  0  0  0  0  0
  151.8764  145.5279  161.1895 H   0  0  0  0  0  0  0  0  0  0  0  0
  153.6138  144.0165  160.5989 H   0  0  0  0  0  0  0  0  0  0  0  0
  154.6120  141.8291  160.3823 H   0  0  0  0  0  0  0  0  0  0  0  0
  154.8484  138.2684  159.5301 H   0  0  0  0  0  0  0  0  0  0  0  0
  153.8463  139.0474  160.7486 H   0  0  0  0  0  0  0  0  0  0  0  0
  155.2919  139.8691  160.1091 H   0  0  0  0  0  0  0  0  0  0  0  0
  151.7611  139.3684  157.5060 H   0  0  0  0  0  0  0  0  0  0  0  0
  149.6555  139.3200  157.2290 H   0  0  0  0  0  0  0  0  0  0  0  0
  151.2559  141.7991  155.7379 H   0  0  0  0  0  0  0  0  0  0  0  0
  152.4430  140.5489  155.4887 H   0  0  0  0  0  0  0  0  0  0  0  0
  152.4908  138.1871  153.9006 H   0  0  0  0  0  0  0  0  0  0  0  0
  151.9913  137.7703  155.5288 H   0  0  0  0  0  0  0  0  0  0  0  0
  151.1601  136.5786  153.1129 H   0  0  0  0  0  0  0  0  0  0  0  0
  146.7887  139.3704  152.6544 H   0  0  0  0  0  0  0  0  0  0  0  0
  145.7827  141.5807  153.2473 H   0  0  0  0  0  0  0  0  0  0  0  0
  146.9743  143.1634  154.7184 H   0  0  0  0  0  0  0  0  0  0  0  0
  149.2106  142.6112  155.6584 H   0  0  0  0  0  0  0  0  0  0  0  0
  150.4728  142.8988  157.8660 H   0  0  0  0  0  0  0  0  0  0  0  0
  149.1671  137.8192  153.1494 H   0  0  0  0  0  0  0  0  0  0  0  0
  1  2  1  0  0  0  0
  1 25  1  0  0  0  0
  1 26  1  0  0  0  0
  1 27  1  0  0  0  0
  2  3  1  0  0  0  0
  3 24  1  0  0  0  0
  3  4  2  0  0  0  0
  4  5  1  0  0  0  0
  4 28  1  0  0  0  0
  5  6  2  0  0  0  0
  5 29  1  0  0  0  0
  6  7  1  0  0  0  0
  6  9  1  0  0  0  0
  7  8  1  0  0  0  0
  8 30  1  0  0  0  0
  8 31  1  0  0  0  0
  8 32  1  0  0  0  0
  9 10  1  0  0  0  0
  9 24  2  0  0  0  0
 10 11  1  0  0  0  0
 10 12  1  0  0  0  0
 10 33  1  0  0  0  0
 11 34  1  0  0  0  0
 12 13  1  0  0  0  0
 12 35  1  0  0  0  0
 12 36  1  0  0  0  0
 13 23  1  0  0  0  0
 13 14  1  0  0  0  0
 14 15  1  0  0  0  0
 14 17  2  0  0  0  0
 15 16  1  0  0  0  0
 15 37  1  0  0  0  0
 15 38  1  0  0  0  0
 16 39  1  0  0  0  0
 17 18  1  0  0  0  0
 17 45  1  0  0  0  0
 18 23  2  0  0  0  0
 18 19  1  0  0  0  0
 19 20  2  0  0  0  0
 19 40  1  0  0  0  0
 20 21  1  0  0  0  0
 20 41  1  0  0  0  0
 21 22  2  0  0  0  0
 21 42  1  0  0  0  0
 22 23  1  0  0  0  0
 22 43  1  0  0  0  0
 24 44  1  0  0  0  0
M  CHG  1  17   1
M  END
> <s_m_source_file>
AV-unprocessed.smi

> <i_m_source_file_index>
2057

> <i_lp_mmshare_version>
43012

> <i_f3d_flags>
0

> <s_epik_input>
W0NIM11PYzFbY0hdW2NIXWMoT1tDSDNdKWMoW2NIXTEpW0NASF0oW09IXSlbQ0gyXW4oYyhuMilbQ0gyXVtPSF0pYyhjMjMpW2NIXVtjSF1bY0hdW2NIXTM=

> <s_epik_cmdline>
J2VwaWtfcHl0aG9uJywgJy1waCcsICc3LjAnLCAnLXRuJywgJzgnLCAnLW1hJywgJzIwMCcsICctbWV0YWxfYmluZGluZycsICctaW1hZScsICc8aW5maWxlLm1hZT4nLCAnLW9tYWUnLCAnPG91dGZpbGUubWFlPic=

> <r_lp_tautomer_probability>
1

> <r_epik_Ionization_Penalty>
1.35643

> <r_epik_Ionization_Penalty_Charging>
1.35557

> <r_epik_Ionization_Penalty_Neutral>
0.000857128

> <r_epik_State_Penalty>
1.43401

> <r_epik_Charging_Adjusted_Penalty>
2.78958

> <i_epik_Tot_Q>
1

> <i_epik_Tot_abs_Q>
1

> <r_epik_Metal_State_Penalty>
5.47166

> <b_epik_Metal_Only>
0

> <s_lp_Force_Field>
OPLS_2005

> <r_lp_Energy>
20.8596

> <b_lp_Chiralities_Consistent>
1

> <s_lp_Variant>
AV-unprocessed.smi:2057-4

> <Gold.Version>
5.8.1

> <Gold.Id.Protein>
6NUR|6NUR_protein|mol2

> <Gold.PLP.Fitness>
65.7636

> <Gold.PLP.PLP>
-53.1991

> <Gold.PLP.part.hbond>
-5.3933

> <Gold.PLP.part.metal>
0.0000

> <Gold.PLP.part.buried>
1.5968

> <Gold.PLP.part.nonpolar>
-48.5592

> <Gold.PLP.part.repulsive>
0.1776

> <Gold.PLP.ligand.clash>
0.0000

> <Gold.PLP.ligand.torsion>
1.2820

> <Gold.PLP.Chemscore.Hbond>
5.0000

> <Gold.PLP.Chemscore.CHOScore>
0.0000

> <Gold.PLP.Chemscore.Metal>
0.0000

> <Gold.Chemscore.Hbonds>
donor molecule, donor type, donor heavy atom, donor atom, acceptor molecule, acceptor atom, score
      L1  H    16    39       P1  7949  1.00
      L1  H    17    45       P1  7948  2.00
      P1  H  7997  8008       L1     7  1.00
      P1  H 10752 10764       L1    16  0.95

> <Gold.PLP.Chemscore.Internal.Correction>
0.1284

> <Gold.Rescore>
     Score         DG    S(hbond)    S(metal)    S(lipo)     H(rot)  DE(clash)    DE(int)     intcor
     20.83     -23.24       3.19        0.00     131.83       3.25       0.09       2.32       ----

> <Gold.Chemscore.Fitness>
20.8343

> <Gold.Chemscore.DG>
-23.2414

> <Gold.Chemscore.ZeroCoef>
-5.4800

> <Gold.Chemscore.Hbond>
3.1935

> <Gold.Chemscore.Metal>
0.0000

> <Gold.Chemscore.Lipo>
131.8325

> <Gold.Chemscore.Internal_Hbond>
0.0000

> <Gold.Chemscore.DEClash>
0.0865

> <Gold.Chemscore.DEInternal>
2.3206

> <Gold.Chemscore.Rot>
3.2537

> <Gold.Chemscore.Internal.Correction>
   9.000000E+99

> <Gold.Chemscore.Hbonds>
donor molecule, donor type, donor heavy atom, donor atom, acceptor molecule, acceptor atom, score
      L1  H    16    39       P1  7949  0.49
      L1  H    17    45       P1  7948  0.93
      P1  H  7997  8008       L1     7  0.21
      P1  H 10752 10764       L1    16  0.10

> <Gold.Chemscore.Hbond.Weighted>
-10.6665

> <Gold.Chemscore.Metal.Weighted>
-0.0000

> <Gold.Chemscore.Lipo.Weighted>
-15.4244

> <Gold.Chemscore.Internal_Hbond.Weighted>
0.0000

> <Gold.Chemscore.DEClash.Weighted>
0.0865

> <Gold.Chemscore.DEInternal.Weighted>
2.3206

> <Gold.Chemscore.Rot.Weighted>
8.3295

> <Gold.Chemscore.Internal.Correction.Weighted>
   9.000000E+99

> <Gold.Protein.RotatedTorsions>
[ 6907 6896 6895 6894 ] final  161.89 input  -60.11 | X-H torsion
[ 7974 7965 7964 7962 ] final   86.14 input  175.53 | X-H torsion
[ 8008 7997 7996 7995 ] final -109.10 input   59.86 | X-H torsion
[ 10167 10162 10161 10158 ] final  132.68 input  -65.29 | X-H torsion
[ 10718 10713 10712 10709 ] final   71.27 input   66.30 | X-H torsion
[ 10763 10752 10751 10750 ] final  -75.83 input  -60.55 | X-H torsion
[ 11005 11000 10999 10996 ] final   14.76 input  -57.11 | X-H torsion

> <Gold.Protein.ActiveResidues>
 VAL166  LYS551  ARG553  GLY616  TRP617  ASP618  TYR619  PRO620  LYS621  CYS622 
 ASP623  PHE694  ASN695  SER759  ASP760  ASP761  ALA762  ILE779  LEU786  VAL792 
 PHE793  MET794  SER795  GLU796  ALA797  LYS798  CYS799  TRP800  GLU811  SER814 

> <Gold.Protein.RotatedAtoms>
  151.9488  133.3659  159.3991 H   0  0  0  0  0  0  0  0  0  0  0  0  # atno 6907 bound_to 6896
  150.6984  134.4362  159.5280 H   0  0  0  0  0  0  0  0  0  0  0  0  # atno 6908 bound_to 6896
  152.2032  134.8569  160.0556 H   0  0  0  0  0  0  0  0  0  0  0  0  # atno 6909 bound_to 6896
  145.5762  139.2319  143.2378 H   0  0  0  0  0  0  0  0  0  0  0  0  # atno 7974 bound_to 7965
  154.9543  140.0400  157.2159 H   0  0  0  0  0  0  0  0  0  0  0  0  # atno 8008 bound_to 7997
  154.7949  140.2842  155.5942 H   0  0  0  0  0  0  0  0  0  0  0  0  # atno 8009 bound_to 7997
  156.2954  140.2566  156.2804 H   0  0  0  0  0  0  0  0  0  0  0  0  # atno 8010 bound_to 7997
  139.5329  144.6651  151.4886 H   0  0  0  0  0  0  0  0  0  0  0  0  # atno 10167 bound_to 10162
  157.6443  130.9520  150.0766 H   0  0  0  0  0  0  0  0  0  0  0  0  # atno 10718 bound_to 10713
  154.4918  135.5818  153.6465 H   0  0  0  0  0  0  0  0  0  0  0  0  # atno 10763 bound_to 10752
  152.9863  135.6114  154.3115 H   0  0  0  0  0  0  0  0  0  0  0  0  # atno 10764 bound_to 10752
  154.3015  135.2846  155.2588 H   0  0  0  0  0  0  0  0  0  0  0  0  # atno 10765 bound_to 10752
  140.4658  134.1080  155.7724 H   0  0  0  0  0  0  0  0  0  0  0  0  # atno 11005 bound_to 11000
  146.1749  140.6589  142.9216 LP  0  0  0  0  0  0  0  0  0  0  0  0  # atno 17320 bound_to 7965
  144.7415  140.4954  143.6866 LP  0  0  0  0  0  0  0  0  0  0  0  0  # atno 17321 bound_to 7965
  140.6519  143.8679  150.6794 LP  0  0  0  0  0  0  0  0  0  0  0  0  # atno 17342 bound_to 10162
  140.2047  143.3931  152.1765 LP  0  0  0  0  0  0  0  0  0  0  0  0  # atno 17343 bound_to 10162
  156.1755  130.3648  149.9106 LP  0  0  0  0  0  0  0  0  0  0  0  0  # atno 17370 bound_to 10713
  156.7072  130.8956  151.3605 LP  0  0  0  0  0  0  0  0  0  0  0  0  # atno 17371 bound_to 10713
  141.1600  133.8811  157.1874 LP  0  0  0  0  0  0  0  0  0  0  0  0  # atno 17394 bound_to 11000
  139.9916  135.0062  156.9988 LP  0  0  0  0  0  0  0  0  0  0  0  0  # atno 17395 bound_to 11000

$$$$
