AV-unprocessed.smi:246|AV-procd|sdf|1887|dock3
  -GOLD-   2262020543D 1   1.00000     0.00000
 Structure written by MMmdl.
 57 60  0  0  0  0  0  0  0  0  1 V2000
  146.6484  128.1635  151.4896 C   0  0  0  0  0  0  0  0  0  0  0  0
  146.3517  129.3665  152.3954 C   0  0  0  0  0  0  0  0  0  0  0  0
  147.5377  129.9185  152.9499 O   0  0  0  0  0  0  0  0  0  0  0  0
  147.4584  131.3075  153.2349 C   0  0  0  0  0  0  0  0  0  0  0  0
  148.8199  131.7904  153.7423 C   0  0  0  0  0  0  0  0  0  0  0  0
  148.6542  133.0379  154.4000 O   0  0  0  0  0  0  0  0  0  0  0  0
  149.8726  133.5976  154.8670 C   0  0  2  0  0  0  0  0  0  0  0  0
  150.2745  132.9930  156.2108 C   0  0  0  0  0  0  0  0  0  0  0  0
  151.1956  134.0630  156.7938 C   0  0  0  0  0  0  0  0  0  0  0  0
  150.6382  135.3254  156.3263 N   0  0  0  0  0  0  0  0  0  0  0  0
  151.3080  136.4980  156.4677 C   0  0  0  0  0  0  0  0  0  0  0  0
  151.9676  137.0143  155.3969 N   0  0  0  0  0  0  0  0  0  0  0  0
  152.6283  138.1709  155.5000 C   0  0  0  0  0  0  0  0  0  0  0  0
  152.7623  138.9628  156.5649 N   0  0  0  0  0  0  0  0  0  0  0  0
  152.1156  138.4463  157.6487 C   0  0  0  0  0  0  0  0  0  0  0  0
  151.3785  137.2278  157.6906 C   0  0  0  0  0  0  0  0  0  0  0  0
  150.8888  137.0214  158.9757 N   0  0  0  0  0  0  0  0  0  0  0  0
  151.3019  138.0595  159.6485 C   0  0  0  0  0  0  0  0  0  0  0  0
  152.0303  138.9757  158.9246 N   0  0  0  0  0  0  0  0  0  0  0  0
  152.5969  140.2202  159.4191 C   0  0  0  0  0  0  0  0  0  0  0  0
  152.0117  141.4937  158.7655 C   0  0  1  0  0  0  0  0  0  0  0  0
  150.5991  141.4398  158.7183 O   0  0  0  0  0  0  0  0  0  0  0  0
  152.4760  142.8317  159.3863 C   0  0  1  0  0  0  0  0  0  0  0  0
  152.3878  144.0569  158.4693 C   0  0  0  0  0  0  0  0  0  0  0  0
  152.2425  145.1812  159.4704 C   0  0  0  0  0  0  0  0  0  0  0  0
  151.3525  144.5338  160.5250 C   0  0  0  0  0  0  0  0  0  0  0  0
  151.7615  143.1723  160.5734 O   0  0  0  0  0  0  0  0  0  0  0  0
  149.7764  135.0994  155.1728 C   0  0  0  0  0  0  0  0  0  0  0  0
  150.6787  133.4160  154.1534 H   0  0  0  0  0  0  0  0  0  0  0  0
  145.7219  127.6957  151.1567 H   0  0  0  0  0  0  0  0  0  0  0  0
  147.2293  127.4091  152.0204 H   0  0  0  0  0  0  0  0  0  0  0  0
  147.2051  128.4519  150.5987 H   0  0  0  0  0  0  0  0  0  0  0  0
  145.7783  130.1272  151.8634 H   0  0  0  0  0  0  0  0  0  0  0  0
  145.7277  129.0342  153.2253 H   0  0  0  0  0  0  0  0  0  0  0  0
  147.1584  131.8841  152.3599 H   0  0  0  0  0  0  0  0  0  0  0  0
  146.7073  131.4723  154.0088 H   0  0  0  0  0  0  0  0  0  0  0  0
  149.2184  131.0625  154.4506 H   0  0  0  0  0  0  0  0  0  0  0  0
  149.5284  131.8646  152.9162 H   0  0  0  0  0  0  0  0  0  0  0  0
  149.3953  132.8777  156.8465 H   0  0  0  0  0  0  0  0  0  0  0  0
  150.7558  132.0194  156.1168 H   0  0  0  0  0  0  0  0  0  0  0  0
  151.2303  134.0185  157.8826 H   0  0  0  0  0  0  0  0  0  0  0  0
  152.2090  133.9386  156.4092 H   0  0  0  0  0  0  0  0  0  0  0  0
  153.1183  138.5108  154.5997 H   0  0  0  0  0  0  0  0  0  0  0  0
  151.0712  138.1949  160.6952 H   0  0  0  0  0  0  0  0  0  0  0  0
  152.4459  140.2586  160.4985 H   0  0  0  0  0  0  0  0  0  0  0  0
  153.6763  140.1861  159.2661 H   0  0  0  0  0  0  0  0  0  0  0  0
  152.3416  141.4924  157.7260 H   0  0  0  0  0  0  0  0  0  0  0  0
  150.2559  142.2674  159.0193 H   0  0  0  0  0  0  0  0  0  0  0  0
  153.5181  142.7222  159.6900 H   0  0  0  0  0  0  0  0  0  0  0  0
  153.2605  144.1683  157.8254 H   0  0  0  0  0  0  0  0  0  0  0  0
  151.5019  144.0188  157.8344 H   0  0  0  0  0  0  0  0  0  0  0  0
  153.2137  145.4326  159.8986 H   0  0  0  0  0  0  0  0  0  0  0  0
  151.8092  146.0853  159.0423 H   0  0  0  0  0  0  0  0  0  0  0  0
  151.4354  145.0126  161.5008 H   0  0  0  0  0  0  0  0  0  0  0  0
  150.3073  144.5708  160.2150 H   0  0  0  0  0  0  0  0  0  0  0  0
  150.0729  135.6928  154.3070 H   0  0  0  0  0  0  0  0  0  0  0  0
  148.7567  135.3744  155.4451 H   0  0  0  0  0  0  0  0  0  0  0  0
  1  2  1  0  0  0  0
  1 30  1  0  0  0  0
  1 31  1  0  0  0  0
  1 32  1  0  0  0  0
  2  3  1  0  0  0  0
  2 33  1  0  0  0  0
  2 34  1  0  0  0  0
  3  4  1  0  0  0  0
  4  5  1  0  0  0  0
  4 35  1  0  0  0  0
  4 36  1  0  0  0  0
  5  6  1  0  0  0  0
  5 37  1  0  0  0  0
  5 38  1  0  0  0  0
  6  7  1  0  0  0  0
  7 29  1  0  0  0  0
  7 28  1  0  0  0  0
  7  8  1  0  0  0  0
  8  9  1  0  0  0  0
  8 39  1  0  0  0  0
  8 40  1  0  0  0  0
  9 10  1  0  0  0  0
  9 41  1  0  0  0  0
  9 42  1  0  0  0  0
 10 11  1  0  0  0  0
 10 28  1  0  0  0  0
 11 16  1  0  0  0  0
 11 12  2  0  0  0  0
 12 13  1  0  0  0  0
 13 14  2  0  0  0  0
 13 43  1  0  0  0  0
 14 15  1  0  0  0  0
 15 19  1  0  0  0  0
 15 16  2  0  0  0  0
 16 17  1  0  0  0  0
 17 18  2  0  0  0  0
 18 19  1  0  0  0  0
 18 44  1  0  0  0  0
 19 20  1  0  0  0  0
 20 21  1  0  0  0  0
 20 45  1  0  0  0  0
 20 46  1  0  0  0  0
 21 22  1  0  0  0  0
 21 23  1  0  0  0  0
 21 47  1  0  0  0  0
 22 48  1  0  0  0  0
 23 27  1  0  0  0  0
 23 24  1  0  0  0  0
 23 49  1  0  0  0  0
 24 25  1  0  0  0  0
 24 50  1  0  0  0  0
 24 51  1  0  0  0  0
 25 26  1  0  0  0  0
 25 52  1  0  0  0  0
 25 53  1  0  0  0  0
 26 27  1  0  0  0  0
 26 54  1  0  0  0  0
 26 55  1  0  0  0  0
 28 56  1  0  0  0  0
 28 57  1  0  0  0  0
M  END
> <s_m_source_file>
AV-unprocessed.smi

> <i_m_source_file_index>
246

> <i_lp_mmshare_version>
43012

> <i_f3d_flags>
0

> <s_epik_input>
W0NIM11bQ0gyXU9bQ0gyXVtDSDJdT1tDQEhdMVtDSDJdW0NIMl1OKFtDSDJdMSljKG5bY0hdbjIpYyhjMjMpbltjSF1uM1tDSDJdW0NASF0oW09IXSlbQ0BASF00W0NIMl1bQ0gyXVtDSDJdTzQ=

> <s_epik_cmdline>
J2VwaWtfcHl0aG9uJywgJy1waCcsICc3LjAnLCAnLXRuJywgJzgnLCAnLW1hJywgJzIwMCcsICctbWV0YWxfYmluZGluZycsICctaW1hZScsICc8aW5maWxlLm1hZT4nLCAnLW9tYWUnLCAnPG91dGZpbGUubWFlPic=

> <r_lp_tautomer_probability>
1

> <r_epik_Ionization_Penalty>
0.0024631

> <r_epik_Ionization_Penalty_Charging>
0

> <r_epik_Ionization_Penalty_Neutral>
0.0024631

> <r_epik_State_Penalty>
0.00162428

> <r_epik_Charging_Adjusted_Penalty>
0.00162428

> <i_epik_Tot_Q>
0

> <i_epik_Tot_abs_Q>
0

> <r_epik_Metal_State_Penalty>
-0

> <b_epik_Metal_Only>
0

> <s_lp_Force_Field>
OPLS_2005

> <r_lp_Energy>
52.7235

> <b_lp_Chiralities_Consistent>
1

> <s_lp_Variant>
AV-unprocessed.smi:246-8

> <Gold.Version>
5.8.1

> <Gold.Id.Protein>
6NUR|6NUR_protein|mol2

> <Gold.PLP.Fitness>
57.4526

> <Gold.PLP.PLP>
-52.5872

> <Gold.PLP.part.hbond>
-3.2677

> <Gold.PLP.part.metal>
0.0000

> <Gold.PLP.part.buried>
-9.4526

> <Gold.PLP.part.nonpolar>
-41.2851

> <Gold.PLP.part.repulsive>
1.0265

> <Gold.PLP.ligand.clash>
0.0000

> <Gold.PLP.ligand.torsion>
1.9568

> <Gold.PLP.Chemscore.Hbond>
2.7410

> <Gold.PLP.Chemscore.CHOScore>
0.0000

> <Gold.PLP.Chemscore.Metal>
0.0000

> <Gold.Chemscore.Hbonds>
donor molecule, donor type, donor heavy atom, donor atom, acceptor molecule, acceptor atom, score
      P1  H  6896  6908       L1    17  0.75
      P1  H  7997  8010       L1    14  1.00
      P1  H 10752 10764       L1    12  0.83

> <Gold.PLP.Chemscore.Internal.Correction>
0.5561

> <Gold.Rescore>
     Score         DG    S(hbond)    S(metal)    S(lipo)     H(rot)  DE(clash)    DE(int)     intcor
     17.19     -19.62       2.46        0.00     118.44       3.10       0.12       2.31       ----

> <Gold.Chemscore.Fitness>
17.1894

> <Gold.Chemscore.DG>
-19.6237

> <Gold.Chemscore.ZeroCoef>
-5.4800

> <Gold.Chemscore.Hbond>
2.4638

> <Gold.Chemscore.Metal>
0.0000

> <Gold.Chemscore.Lipo>
118.4382

> <Gold.Chemscore.Internal_Hbond>
0.0000

> <Gold.Chemscore.DEClash>
0.1232

> <Gold.Chemscore.DEInternal>
2.3110

> <Gold.Chemscore.Rot>
3.1026

> <Gold.Chemscore.Internal.Correction>
   9.000000E+99

> <Gold.Chemscore.Hbonds>
donor molecule, donor type, donor heavy atom, donor atom, acceptor molecule, acceptor atom, score
      P1  H  6896  6908       L1    17  0.64
      P1  H  7997  8010       L1    14  0.87
      P1  H 10752 10764       L1    12  0.60

> <Gold.Chemscore.Hbond.Weighted>
-8.2290

> <Gold.Chemscore.Metal.Weighted>
-0.0000

> <Gold.Chemscore.Lipo.Weighted>
-13.8573

> <Gold.Chemscore.Internal_Hbond.Weighted>
0.0000

> <Gold.Chemscore.DEClash.Weighted>
0.1232

> <Gold.Chemscore.DEInternal.Weighted>
2.3110

> <Gold.Chemscore.Rot.Weighted>
7.9426

> <Gold.Chemscore.Internal.Correction.Weighted>
   9.000000E+99

> <Gold.Protein.RotatedTorsions>
[ 6907 6896 6895 6894 ] final -138.63 input  -60.11 | X-H torsion
[ 7974 7965 7964 7962 ] final  -95.11 input  175.53 | X-H torsion
[ 8008 7997 7996 7995 ] final   65.49 input   59.86 | X-H torsion
[ 10167 10162 10161 10158 ] final -138.48 input  -65.29 | X-H torsion
[ 10718 10713 10712 10709 ] final   22.38 input   66.30 | X-H torsion
[ 10763 10752 10751 10750 ] final  -70.39 input  -60.55 | X-H torsion
[ 11005 11000 10999 10996 ] final  -86.90 input  -57.11 | X-H torsion

> <Gold.Protein.ActiveResidues>
 VAL166  LYS551  ARG553  GLY616  TRP617  ASP618  TYR619  PRO620  LYS621  CYS622 
 ASP623  PHE694  ASN695  SER759  ASP760  ASP761  ALA762  ILE779  LEU786  VAL792 
 PHE793  MET794  SER795  GLU796  ALA797  LYS798  CYS799  TRP800  GLU811  SER814 

> <Gold.Protein.RotatedAtoms>
  151.0374  133.5736  159.2654 H   0  0  0  0  0  0  0  0  0  0  0  0  # atno 6907 bound_to 6896
  151.2795  135.0708  159.9174 H   0  0  0  0  0  0  0  0  0  0  0  0  # atno 6908 bound_to 6896
  152.5357  134.0091  159.7984 H   0  0  0  0  0  0  0  0  0  0  0  0  # atno 6909 bound_to 6896
  145.3644  140.9496  143.2482 H   0  0  0  0  0  0  0  0  0  0  0  0  # atno 7974 bound_to 7965
  155.6626  140.3497  155.4788 H   0  0  0  0  0  0  0  0  0  0  0  0  # atno 8008 bound_to 7997
  155.9756  140.1164  157.0796 H   0  0  0  0  0  0  0  0  0  0  0  0  # atno 8009 bound_to 7997
  154.4177  140.1148  156.5351 H   0  0  0  0  0  0  0  0  0  0  0  0  # atno 8010 bound_to 7997
  139.8474  143.7243  152.2660 H   0  0  0  0  0  0  0  0  0  0  0  0  # atno 10167 bound_to 10162
  157.1516  130.6677  149.6013 H   0  0  0  0  0  0  0  0  0  0  0  0  # atno 10718 bound_to 10713
  154.4169  135.5996  153.5986 H   0  0  0  0  0  0  0  0  0  0  0  0  # atno 10763 bound_to 10752
  152.9792  135.5943  154.4002 H   0  0  0  0  0  0  0  0  0  0  0  0  # atno 10764 bound_to 10752
  154.3822  135.2841  155.2183 H   0  0  0  0  0  0  0  0  0  0  0  0  # atno 10765 bound_to 10752
  141.1624  133.7480  156.9228 H   0  0  0  0  0  0  0  0  0  0  0  0  # atno 11005 bound_to 11000
  144.8622  139.5160  143.6807 LP  0  0  0  0  0  0  0  0  0  0  0  0  # atno 17320 bound_to 7965
  146.2913  139.7148  142.9159 LP  0  0  0  0  0  0  0  0  0  0  0  0  # atno 17321 bound_to 7965
  139.7499  144.7537  151.0522 LP  0  0  0  0  0  0  0  0  0  0  0  0  # atno 17342 bound_to 10162
  140.7791  143.4872  150.9940 LP  0  0  0  0  0  0  0  0  0  0  0  0  # atno 17343 bound_to 10162
  155.9769  130.4743  150.6562 LP  0  0  0  0  0  0  0  0  0  0  0  0  # atno 17370 bound_to 10713
  157.4215  131.0837  151.1126 LP  0  0  0  0  0  0  0  0  0  0  0  0  # atno 17371 bound_to 10713
  140.1440  134.9275  157.2504 LP  0  0  0  0  0  0  0  0  0  0  0  0  # atno 17394 bound_to 11000
  140.2803  134.3358  155.7345 LP  0  0  0  0  0  0  0  0  0  0  0  0  # atno 17395 bound_to 11000

$$$$
