AV-unprocessed.smi:3096|AV-procd|sdf|11796|dock1
  -GOLD-   2272017173D 1   1.00000     0.00000
 Structure written by MMmdl.
 33 33  0  0  0  0  0  0  0  0  2 V2000
  152.6934  138.3699  154.7555 C   0  0  0  0  0  0  0  0  0  0  0  0
  151.5477  137.8295  154.3151 C   0  0  0  0  0  0  0  0  0  0  0  0
  150.2306  138.5692  154.2362 C   0  0  0  0  0  0  0  0  0  0  0  0
  150.3619  139.8516  154.9379 N   0  0  0  0  0  0  0  0  0  0  0  0
  149.5208  140.8987  154.8290 C   0  0  0  0  0  0  0  0  0  0  0  0
  148.4505  140.8232  154.0139 N   0  3  0  0  0  0  0  0  0  0  0  0
  147.4604  141.8862  153.8031 C   0  0  0  0  0  0  0  0  0  0  0  0
  149.7508  142.0220  155.5369 N   0  0  0  0  0  0  0  0  0  0  0  0
  150.8677  142.2304  156.4678 C   0  0  0  0  0  0  0  0  0  0  0  0
  150.3740  142.3318  157.9169 C   0  0  0  0  0  0  0  0  0  0  0  0
  151.0668  143.3780  158.6432 N   0  0  0  0  0  0  0  0  0  0  0  0
  151.2151  144.7066  158.3038 C   0  0  0  0  0  0  0  0  0  0  0  0
  151.9434  145.2994  159.2951 C   0  0  0  0  0  0  0  0  0  0  0  0
  152.1958  144.2391  160.2102 C   0  0  0  0  0  0  0  0  0  0  0  0
  151.6694  143.0904  159.8170 N   0  0  0  0  0  0  0  0  0  0  0  0
  152.7403  139.3977  155.0842 H   0  0  0  0  0  0  0  0  0  0  0  0
  153.6025  137.7876  154.7924 H   0  0  0  0  0  0  0  0  0  0  0  0
  151.5399  136.7966  153.9977 H   0  0  0  0  0  0  0  0  0  0  0  0
  149.9767  138.7455  153.1907 H   0  0  0  0  0  0  0  0  0  0  0  0
  149.4307  137.9790  154.6848 H   0  0  0  0  0  0  0  0  0  0  0  0
  151.1530  139.9411  155.5594 H   0  0  0  0  0  0  0  0  0  0  0  0
  146.7045  141.5596  153.0887 H   0  0  0  0  0  0  0  0  0  0  0  0
  147.9416  142.7823  153.4111 H   0  0  0  0  0  0  0  0  0  0  0  0
  146.9642  142.1372  154.7406 H   0  0  0  0  0  0  0  0  0  0  0  0
  149.0992  142.7877  155.4393 H   0  0  0  0  0  0  0  0  0  0  0  0
  151.5664  141.3995  156.3640 H   0  0  0  0  0  0  0  0  0  0  0  0
  151.4011  143.1393  156.1880 H   0  0  0  0  0  0  0  0  0  0  0  0
  149.3039  142.5425  157.9400 H   0  0  0  0  0  0  0  0  0  0  0  0
  150.5233  141.3869  158.4417 H   0  0  0  0  0  0  0  0  0  0  0  0
  150.7960  145.1152  157.3958 H   0  0  0  0  0  0  0  0  0  0  0  0
  152.2493  146.3333  159.3581 H   0  0  0  0  0  0  0  0  0  0  0  0
  152.7424  144.2697  161.1414 H   0  0  0  0  0  0  0  0  0  0  0  0
  148.3036  139.9664  153.4993 H   0  0  0  0  0  0  0  0  0  0  0  0
  1  2  2  0  0  0  0
  1 16  1  0  0  0  0
  1 17  1  0  0  0  0
  2  3  1  0  0  0  0
  2 18  1  0  0  0  0
  3  4  1  0  0  0  0
  3 19  1  0  0  0  0
  3 20  1  0  0  0  0
  4  5  1  0  0  0  0
  4 21  1  0  0  0  0
  5  6  2  0  0  0  0
  5  8  1  0  0  0  0
  6  7  1  0  0  0  0
  6 33  1  0  0  0  0
  7 22  1  0  0  0  0
  7 23  1  0  0  0  0
  7 24  1  0  0  0  0
  8  9  1  0  0  0  0
  8 25  1  0  0  0  0
  9 10  1  0  0  0  0
  9 26  1  0  0  0  0
  9 27  1  0  0  0  0
 10 11  1  0  0  0  0
 10 28  1  0  0  0  0
 10 29  1  0  0  0  0
 11 15  1  0  0  0  0
 11 12  1  0  0  0  0
 12 13  2  0  0  0  0
 12 30  1  0  0  0  0
 13 14  1  0  0  0  0
 13 31  1  0  0  0  0
 14 15  2  0  0  0  0
 14 32  1  0  0  0  0
M  CHG  1   6   1
M  END
> <s_m_source_file>
AV-unprocessed.smi

> <i_m_source_file_index>
3096

> <i_lp_mmshare_version>
43012

> <i_f3d_flags>
0

> <s_epik_input>
W0NIMl09W0NIXVtDSDJdW05IXS9DKD1OL1tDSDNdKVtOSF1bQ0gyXVtDSDJdbjFbY0hdW2NIXVtjSF1uMQ==

> <s_epik_cmdline>
J2VwaWtfcHl0aG9uJywgJy1waCcsICc3LjAnLCAnLXRuJywgJzgnLCAnLW1hJywgJzIwMCcsICctbWV0YWxfYmluZGluZycsICctaW1hZScsICc8aW5maWxlLm1hZT4nLCAnLW9tYWUnLCAnPG91dGZpbGUubWFlPic=

> <r_lp_tautomer_probability>
1

> <r_epik_Ionization_Penalty>
5.14269e-05

> <r_epik_Ionization_Penalty_Charging>
1.55211e-07

> <r_epik_Ionization_Penalty_Neutral>
5.12717e-05

> <r_epik_State_Penalty>
-0

> <r_epik_Charging_Adjusted_Penalty>
1.55211e-07

> <i_epik_Tot_Q>
1

> <i_epik_Tot_abs_Q>
1

> <r_epik_Metal_State_Penalty>
-0

> <b_epik_Metal_Only>
0

> <s_epik_Chemistry_Notes>
This compound has an imine and may undergo hydrolysis.

> <s_lp_Force_Field>
OPLS_2005

> <r_lp_Energy>
4.847

> <b_lp_Chiralities_Consistent>
1

> <s_lp_Variant>
AV-unprocessed.smi:3096-1

> <Gold.Version>
5.8.1

> <Gold.Id.Protein>
6NUR|6NUR_protein|mol2

> <Gold.PLP.Fitness>
45.3247

> <Gold.PLP.PLP>
-38.1777

> <Gold.PLP.part.hbond>
-1.6240

> <Gold.PLP.part.metal>
0.0000

> <Gold.PLP.part.buried>
-6.7212

> <Gold.PLP.part.nonpolar>
-31.0105

> <Gold.PLP.part.repulsive>
0.6043

> <Gold.PLP.ligand.clash>
0.0000

> <Gold.PLP.ligand.torsion>
0.5164

> <Gold.PLP.Chemscore.Hbond>
1.7920

> <Gold.PLP.Chemscore.CHOScore>
0.9137

> <Gold.PLP.Chemscore.Metal>
0.0000

> <Gold.Chemscore.Hbonds>
donor molecule, donor type, donor heavy atom, donor atom, acceptor molecule, acceptor atom, score
      L1  H     8    25       P1  8028  1.79
      L1  C    12    30       P1  8028  0.92

> <Gold.PLP.Chemscore.Internal.Correction>
0.0628

> <Gold.Rescore>
     Score         DG    S(hbond)    S(metal)    S(lipo)     H(rot)  DE(clash)    DE(int)     intcor
     13.43     -13.92       0.94        0.00      86.50       1.89       0.00       0.48       ----

> <Gold.Chemscore.Fitness>
13.4319

> <Gold.Chemscore.DG>
-13.9187

> <Gold.Chemscore.ZeroCoef>
-5.4800

> <Gold.Chemscore.Hbond>
0.9443

> <Gold.Chemscore.Metal>
0.0000

> <Gold.Chemscore.Lipo>
86.5036

> <Gold.Chemscore.Internal_Hbond>
0.0000

> <Gold.Chemscore.DEClash>
0.0036

> <Gold.Chemscore.DEInternal>
0.4832

> <Gold.Chemscore.Rot>
1.8891

> <Gold.Chemscore.Internal.Correction>
   9.000000E+99

> <Gold.Chemscore.Hbonds>
donor molecule, donor type, donor heavy atom, donor atom, acceptor molecule, acceptor atom, score
      L1  H     8    25       P1  8028  0.87

> <Gold.Chemscore.Hbond.Weighted>
-3.1538

> <Gold.Chemscore.Metal.Weighted>
-0.0000

> <Gold.Chemscore.Lipo.Weighted>
-10.1209

> <Gold.Chemscore.Internal_Hbond.Weighted>
0.0000

> <Gold.Chemscore.DEClash.Weighted>
0.0036

> <Gold.Chemscore.DEInternal.Weighted>
0.4832

> <Gold.Chemscore.Rot.Weighted>
4.8361

> <Gold.Chemscore.Internal.Correction.Weighted>
   9.000000E+99

> <Gold.Protein.RotatedTorsions>
[ 6907 6896 6895 6894 ] final  -18.30 input  -60.11 | X-H torsion
[ 7974 7965 7964 7962 ] final   18.50 input  175.53 | X-H torsion
[ 8008 7997 7996 7995 ] final -134.13 input   59.86 | X-H torsion
[ 10167 10162 10161 10158 ] final    5.01 input  -65.29 | X-H torsion
[ 10718 10713 10712 10709 ] final  144.09 input   66.30 | X-H torsion
[ 10763 10752 10751 10750 ] final   -0.98 input  -60.55 | X-H torsion
[ 11005 11000 10999 10996 ] final -145.67 input  -57.11 | X-H torsion

> <Gold.Protein.ActiveResidues>
 VAL166  LYS551  ARG553  GLY616  TRP617  ASP618  TYR619  PRO620  LYS621  CYS622 
 ASP623  PHE694  ASN695  SER759  ASP760  ASP761  ALA762  ILE779  LEU786  VAL792 
 PHE793  MET794  SER795  GLU796  ALA797  LYS798  CYS799  TRP800  GLU811  SER814 

> <Gold.Protein.RotatedAtoms>
  151.2802  135.0711  159.9166 H   0  0  0  0  0  0  0  0  0  0  0  0  # atno 6907 bound_to 6896
  152.5335  134.0039  159.7917 H   0  0  0  0  0  0  0  0  0  0  0  0  # atno 6908 bound_to 6896
  151.0291  133.5756  159.2693 H   0  0  0  0  0  0  0  0  0  0  0  0  # atno 6909 bound_to 6896
  146.2182  139.8448  142.8634 H   0  0  0  0  0  0  0  0  0  0  0  0  # atno 7974 bound_to 7965
  155.3570  140.0480  157.3046 H   0  0  0  0  0  0  0  0  0  0  0  0  # atno 8008 bound_to 7997
  154.5197  140.2221  155.8962 H   0  0  0  0  0  0  0  0  0  0  0  0  # atno 8009 bound_to 7997
  156.1676  140.3103  155.8922 H   0  0  0  0  0  0  0  0  0  0  0  0  # atno 8010 bound_to 7997
  140.6504  143.7558  150.7566 H   0  0  0  0  0  0  0  0  0  0  0  0  # atno 10167 bound_to 10162
  157.3613  131.0965  151.0913 H   0  0  0  0  0  0  0  0  0  0  0  0  # atno 10718 bound_to 10713
  153.3389  135.6979  153.6884 H   0  0  0  0  0  0  0  0  0  0  0  0  # atno 10763 bound_to 10752
  153.5657  135.3526  155.2818 H   0  0  0  0  0  0  0  0  0  0  0  0  # atno 10764 bound_to 10752
  154.8633  135.4260  154.2597 H   0  0  0  0  0  0  0  0  0  0  0  0  # atno 10765 bound_to 10752
  140.7899  134.2981  157.5017 H   0  0  0  0  0  0  0  0  0  0  0  0  # atno 11005 bound_to 11000
  145.2862  141.0153  143.3689 LP  0  0  0  0  0  0  0  0  0  0  0  0  # atno 17320 bound_to 7965
  144.9112  139.4526  143.6586 LP  0  0  0  0  0  0  0  0  0  0  0  0  # atno 17321 bound_to 7965
  140.1207  143.4614  152.2314 LP  0  0  0  0  0  0  0  0  0  0  0  0  # atno 17342 bound_to 10162
  139.5719  144.7467  151.3868 LP  0  0  0  0  0  0  0  0  0  0  0  0  # atno 17343 bound_to 10162
  157.2052  130.6412  149.5753 LP  0  0  0  0  0  0  0  0  0  0  0  0  # atno 17370 bound_to 10713
  155.9738  130.4678  150.6337 LP  0  0  0  0  0  0  0  0  0  0  0  0  # atno 17371 bound_to 10713
  139.8732  134.9368  156.3670 LP  0  0  0  0  0  0  0  0  0  0  0  0  # atno 17394 bound_to 11000
  140.9400  133.7521  156.0134 LP  0  0  0  0  0  0  0  0  0  0  0  0  # atno 17395 bound_to 11000

$$$$
