AV-unprocessed.smi:663|AV-procd|sdf|3249|dock10
  -GOLD-   22720 0203D 1   1.00000     0.00000
 Structure written by MMmdl.
 29 30  0  0  0  0  0  0  0  0  2 V2000
  149.2641  138.9106  153.5453 N   0  0  0  0  0  0  0  0  0  0  0  0
  150.0520  139.0270  154.6170 C   0  0  0  0  0  0  0  0  0  0  0  0
  151.0721  139.7130  154.6067 O   0  0  0  0  0  0  0  0  0  0  0  0
  149.6361  138.2538  155.8735 C   0  0  0  0  0  0  0  0  0  0  0  0
  150.5541  138.4896  157.0985 C   0  0  2  0  0  0  0  0  0  0  0  0
  150.3155  137.4404  158.0878 N   0  0  0  0  0  0  0  0  0  0  0  0
  149.1647  137.1949  158.7318 C   0  0  0  0  0  0  0  0  0  0  0  0
  148.1728  137.8941  158.5129 O   0  0  0  0  0  0  0  0  0  0  0  0
  149.2368  136.1537  159.5923 N   0  5  0  0  0  0  0  0  0  0  0  0
  148.2892  135.9884  160.5298 C   0  0  0  0  0  0  0  0  0  0  0  0
  147.6631  137.0258  161.1087 N   0  0  0  0  0  0  0  0  0  0  0  0
  146.7255  136.6382  162.0564 N   0  0  0  0  0  0  0  0  0  0  0  0
  146.6739  135.3117  162.1743 C   0  0  0  0  0  0  0  0  0  0  0  0
  147.7671  134.4159  161.1407 S   0  0  0  0  0  0  0  0  0  0  0  0
  150.3673  139.8757  157.6976 C   0  0  0  0  0  0  0  0  0  0  0  0
  150.8015  141.1295  156.9730 C   0  0  0  0  0  0  0  0  0  0  0  0
  151.5518  140.6659  158.2004 C   0  0  0  0  0  0  0  0  0  0  0  0
  149.4994  139.4021  152.6953 H   0  0  0  0  0  0  0  0  0  0  0  0
  148.4376  138.3325  153.5885 H   0  0  0  0  0  0  0  0  0  0  0  0
  148.6045  138.4952  156.1346 H   0  0  0  0  0  0  0  0  0  0  0  0
  149.6397  137.1962  155.6062 H   0  0  0  0  0  0  0  0  0  0  0  0
  151.5957  138.4169  156.7786 H   0  0  0  0  0  0  0  0  0  0  0  0
  151.0967  136.8387  158.3034 H   0  0  0  0  0  0  0  0  0  0  0  0
  145.9900  134.8580  162.8762 H   0  0  0  0  0  0  0  0  0  0  0  0
  149.4612  139.9673  158.2940 H   0  0  0  0  0  0  0  0  0  0  0  0
  151.3028  141.0201  156.0135 H   0  0  0  0  0  0  0  0  0  0  0  0
  150.1681  142.0087  157.0704 H   0  0  0  0  0  0  0  0  0  0  0  0
  151.4208  141.2366  159.1174 H   0  0  0  0  0  0  0  0  0  0  0  0
  152.5426  140.2408  158.0524 H   0  0  0  0  0  0  0  0  0  0  0  0
  1  2  1  0  0  0  0
  1 18  1  0  0  0  0
  1 19  1  0  0  0  0
  2  3  2  0  0  0  0
  2  4  1  0  0  0  0
  4  5  1  0  0  0  0
  4 20  1  0  0  0  0
  4 21  1  0  0  0  0
  5  6  1  0  0  0  0
  5 15  1  0  0  0  0
  5 22  1  0  0  0  0
  6  7  1  0  0  0  0
  6 23  1  0  0  0  0
  7  8  2  0  0  0  0
  7  9  1  0  0  0  0
  9 10  1  0  0  0  0
 10 14  1  0  0  0  0
 10 11  2  0  0  0  0
 11 12  1  0  0  0  0
 12 13  2  0  0  0  0
 13 14  1  0  0  0  0
 13 24  1  0  0  0  0
 15 17  1  0  0  0  0
 15 16  1  0  0  0  0
 15 25  1  0  0  0  0
 16 17  1  0  0  0  0
 16 26  1  0  0  0  0
 16 27  1  0  0  0  0
 17 28  1  0  0  0  0
 17 29  1  0  0  0  0
M  CHG  1   9  -1
M  END
> <s_m_source_file>
AV-unprocessed.smi

> <i_m_source_file_index>
663

> <i_lp_mmshare_version>
43012

> <i_f3d_flags>
0

> <s_epik_input>
W05IMl1DKD1PKVtDSDJdW0NAQEhdKFtDSF0xW0NIMl1bQ0gyXTEpW05IXUMoPU8pW05IXWMybm5bY0hdczI=

> <s_epik_cmdline>
J2VwaWtfcHl0aG9uJywgJy1waCcsICc3LjAnLCAnLXRuJywgJzgnLCAnLW1hJywgJzIwMCcsICctbWV0YWxfYmluZGluZycsICctaW1hZScsICc8aW5maWxlLm1hZT4nLCAnLW9tYWUnLCAnPG91dGZpbGUubWFlPic=

> <r_lp_tautomer_probability>
1

> <r_epik_Ionization_Penalty>
4.41895

> <r_epik_Ionization_Penalty_Charging>
4.37725

> <r_epik_Ionization_Penalty_Neutral>
0.0416999

> <r_epik_State_Penalty>
4.37688

> <r_epik_Charging_Adjusted_Penalty>
8.75413

> <i_epik_Tot_Q>
-1

> <i_epik_Tot_abs_Q>
1

> <r_epik_Metal_State_Penalty>
0.761195

> <b_epik_Metal_Only>
1

> <s_lp_Force_Field>
OPLS_2005

> <r_lp_Energy>
9.70165

> <b_lp_Chiralities_Consistent>
1

> <s_lp_Variant>
AV-unprocessed.smi:663-3

> <Gold.Version>
5.8.1

> <Gold.Id.Protein>
6NUR|6NUR_protein|mol2

> <Gold.PLP.Fitness>
42.1351

> <Gold.PLP.PLP>
-25.3913

> <Gold.PLP.part.hbond>
-5.8240

> <Gold.PLP.part.metal>
0.0000

> <Gold.PLP.part.buried>
-6.4007

> <Gold.PLP.part.nonpolar>
-14.5280

> <Gold.PLP.part.repulsive>
0.2687

> <Gold.PLP.ligand.clash>
0.0000

> <Gold.PLP.ligand.torsion>
0.9704

> <Gold.PLP.Chemscore.Hbond>
5.8545

> <Gold.PLP.Chemscore.CHOScore>
0.0000

> <Gold.PLP.Chemscore.Metal>
0.0000

> <Gold.Chemscore.Hbonds>
donor molecule, donor type, donor heavy atom, donor atom, acceptor molecule, acceptor atom, score
      L1  H     1    18       P1  7957  1.00
      P1  H  6896  6907       L1     9  1.89
      P1  H  6931  6943       L1    11  0.99
      P1  H  6934  6947       L1    11  0.84
      P1  H  7989  7998       L1     3  1.00

> <Gold.PLP.Chemscore.Internal.Correction>
1.1212

> <Gold.Rescore>
     Score         DG    S(hbond)    S(metal)    S(lipo)     H(rot)  DE(clash)    DE(int)     intcor
     11.64     -16.43       3.90        0.00      36.72       2.49       0.00       4.79       ----

> <Gold.Chemscore.Fitness>
11.6375

> <Gold.Chemscore.DG>
-16.4287

> <Gold.Chemscore.ZeroCoef>
-5.4800

> <Gold.Chemscore.Hbond>
3.8976

> <Gold.Chemscore.Metal>
0.0000

> <Gold.Chemscore.Lipo>
36.7155

> <Gold.Chemscore.Internal_Hbond>
0.0000

> <Gold.Chemscore.DEClash>
0.0029

> <Gold.Chemscore.DEInternal>
4.7883

> <Gold.Chemscore.Rot>
2.4863

> <Gold.Chemscore.Internal.Correction>
   9.000000E+99

> <Gold.Chemscore.Hbonds>
donor molecule, donor type, donor heavy atom, donor atom, acceptor molecule, acceptor atom, score
      L1  H     1    18       P1  7957  1.00
      P1  H  6896  6907       L1     9  0.81
      P1  H  6931  6943       L1    11  0.49
      P1  H  6934  6947       L1    11  0.20
      P1  H  7989  7998       L1     3  1.00

> <Gold.Chemscore.Hbond.Weighted>
-13.0178

> <Gold.Chemscore.Metal.Weighted>
-0.0000

> <Gold.Chemscore.Lipo.Weighted>
-4.2957

> <Gold.Chemscore.Internal_Hbond.Weighted>
0.0000

> <Gold.Chemscore.DEClash.Weighted>
0.0029

> <Gold.Chemscore.DEInternal.Weighted>
4.7883

> <Gold.Chemscore.Rot.Weighted>
6.3648

> <Gold.Chemscore.Internal.Correction.Weighted>
   9.000000E+99

> <Gold.Protein.RotatedTorsions>
[ 6907 6896 6895 6894 ] final  -53.24 input  -60.11 | X-H torsion
[ 7974 7965 7964 7962 ] final   17.02 input  175.53 | X-H torsion
[ 8008 7997 7996 7995 ] final  -85.66 input   59.86 | X-H torsion
[ 10167 10162 10161 10158 ] final   34.45 input  -65.29 | X-H torsion
[ 10718 10713 10712 10709 ] final  -65.67 input   66.30 | X-H torsion
[ 10763 10752 10751 10750 ] final  -44.79 input  -60.55 | X-H torsion
[ 11005 11000 10999 10996 ] final  -30.40 input  -57.11 | X-H torsion

> <Gold.Protein.ActiveResidues>
 VAL166  LYS551  ARG553  GLY616  TRP617  ASP618  TYR619  PRO620  LYS621  CYS622 
 ASP623  PHE694  ASN695  SER759  ASP760  ASP761  ALA762  ILE779  LEU786  VAL792 
 PHE793  MET794  SER795  GLU796  ALA797  LYS798  CYS799  TRP800  GLU811  SER814 

> <Gold.Protein.RotatedAtoms>
  150.8444  134.7748  159.6958 H   0  0  0  0  0  0  0  0  0  0  0  0  # atno 6907 bound_to 6896
  152.4524  134.5361  159.9835 H   0  0  0  0  0  0  0  0  0  0  0  0  # atno 6908 bound_to 6896
  151.5494  133.3382  159.2986 H   0  0  0  0  0  0  0  0  0  0  0  0  # atno 6909 bound_to 6896
  146.2232  139.8663  142.8595 H   0  0  0  0  0  0  0  0  0  0  0  0  # atno 7974 bound_to 7965
  154.6432  140.0588  156.9870 H   0  0  0  0  0  0  0  0  0  0  0  0  # atno 8008 bound_to 7997
  155.1485  140.3272  155.4418 H   0  0  0  0  0  0  0  0  0  0  0  0  # atno 8009 bound_to 7997
  156.2541  140.1951  156.6597 H   0  0  0  0  0  0  0  0  0  0  0  0  # atno 8010 bound_to 7997
  140.4314  144.1320  150.6160 H   0  0  0  0  0  0  0  0  0  0  0  0  # atno 10167 bound_to 10162
  156.0656  130.4250  150.1598 H   0  0  0  0  0  0  0  0  0  0  0  0  # atno 10718 bound_to 10713
  154.0179  135.6673  153.4770 H   0  0  0  0  0  0  0  0  0  0  0  0  # atno 10763 bound_to 10752
  153.0592  135.5037  154.8050 H   0  0  0  0  0  0  0  0  0  0  0  0  # atno 10764 bound_to 10752
  154.6955  135.3069  154.9382 H   0  0  0  0  0  0  0  0  0  0  0  0  # atno 10765 bound_to 10752
  140.9379  133.7297  156.1032 H   0  0  0  0  0  0  0  0  0  0  0  0  # atno 11005 bound_to 11000
  145.2653  141.0091  143.3803 LP  0  0  0  0  0  0  0  0  0  0  0  0  # atno 17320 bound_to 7965
  144.9266  139.4348  143.6515 LP  0  0  0  0  0  0  0  0  0  0  0  0  # atno 17321 bound_to 7965
  140.4423  143.2521  151.9457 LP  0  0  0  0  0  0  0  0  0  0  0  0  # atno 17342 bound_to 10162
  139.4785  144.5642  151.8191 LP  0  0  0  0  0  0  0  0  0  0  0  0  # atno 17343 bound_to 10162
  156.9658  130.9819  151.3469 LP  0  0  0  0  0  0  0  0  0  0  0  0  # atno 17370 bound_to 10713
  157.5695  130.8301  149.8372 LP  0  0  0  0  0  0  0  0  0  0  0  0  # atno 17371 bound_to 10713
  140.7774  134.3764  157.5495 LP  0  0  0  0  0  0  0  0  0  0  0  0  # atno 17394 bound_to 11000
  139.8812  134.9060  156.2912 LP  0  0  0  0  0  0  0  0  0  0  0  0  # atno 17395 bound_to 11000

$$$$
