AV-unprocessed.smi:1103|AV-procd|sdf|4772|dock3
  -GOLD-   22720 3313D 1   1.00000     0.00000
 Structure written by MMmdl.
 44 45  0  0  0  0  0  0  0  0  2 V2000
  151.1698  139.3241  155.7345 C   0  0  0  0  0  0  0  0  0  0  0  0
  150.7326  138.8792  154.3318 C   0  0  0  0  0  0  0  0  0  0  0  0
  149.3789  139.3715  153.9696 N   0  3  2  0  0  0  0  0  0  0  0  0
  149.1252  140.7364  154.5004 C   0  0  0  0  0  0  0  0  0  0  0  0
  147.7705  141.2842  154.0237 C   0  0  0  0  0  0  0  0  0  0  0  0
  146.6281  140.3218  154.3797 C   0  0  0  0  0  0  0  0  0  0  0  0
  146.9097  138.9025  153.8517 C   0  0  1  0  0  0  0  0  0  0  0  0
  146.7240  138.8099  152.3185 C   0  0  0  0  0  0  0  0  0  0  0  0
  145.4936  138.1225  151.9383 N   0  0  0  0  0  0  0  0  0  0  0  0
  145.1195  136.9056  152.3630 C   0  0  0  0  0  0  0  0  0  0  0  0
  145.7710  136.2385  153.1665 O   0  0  0  0  0  0  0  0  0  0  0  0
  143.8113  136.3540  151.7951 C   0  0  0  0  0  0  0  0  0  0  0  0
  144.0137  135.0417  151.2094 N   0  0  0  0  0  0  0  0  0  0  0  0
  144.8476  134.6870  150.1698 C   0  0  0  0  0  0  0  0  0  0  0  0
  144.6943  133.3460  149.9585 C   0  0  0  0  0  0  0  0  0  0  0  0
  145.3732  132.4731  148.9427 C   0  0  0  0  0  0  0  0  0  0  0  0
  143.7306  132.9656  150.9357 C   0  0  0  0  0  0  0  0  0  0  0  0
  143.3243  133.9807  151.6811 N   0  0  0  0  0  0  0  0  0  0  0  0
  148.2938  138.4279  154.3538 C   0  0  0  0  0  0  0  0  0  0  0  0
  152.1443  138.9033  155.9825 H   0  0  0  0  0  0  0  0  0  0  0  0
  150.4643  138.9821  156.4919 H   0  0  0  0  0  0  0  0  0  0  0  0
  151.2559  140.4072  155.8167 H   0  0  0  0  0  0  0  0  0  0  0  0
  151.4592  139.1974  153.5828 H   0  0  0  0  0  0  0  0  0  0  0  0
  150.7358  137.7884  154.3182 H   0  0  0  0  0  0  0  0  0  0  0  0
  149.1570  140.7133  155.5910 H   0  0  0  0  0  0  0  0  0  0  0  0
  149.9165  141.4129  154.1750 H   0  0  0  0  0  0  0  0  0  0  0  0
  147.5861  142.2589  154.4768 H   0  0  0  0  0  0  0  0  0  0  0  0
  147.7988  141.4524  152.9468 H   0  0  0  0  0  0  0  0  0  0  0  0
  146.5172  140.2869  155.4644 H   0  0  0  0  0  0  0  0  0  0  0  0
  145.6810  140.6966  153.9899 H   0  0  0  0  0  0  0  0  0  0  0  0
  146.1616  138.2431  154.2945 H   0  0  0  0  0  0  0  0  0  0  0  0
  146.6686  139.8153  151.8999 H   0  0  0  0  0  0  0  0  0  0  0  0
  147.5878  138.3400  151.8465 H   0  0  0  0  0  0  0  0  0  0  0  0
  144.8959  138.5935  151.2737 H   0  0  0  0  0  0  0  0  0  0  0  0
  143.0726  136.2725  152.5934 H   0  0  0  0  0  0  0  0  0  0  0  0
  143.3976  137.0283  151.0429 H   0  0  0  0  0  0  0  0  0  0  0  0
  145.4724  135.4123  149.6692 H   0  0  0  0  0  0  0  0  0  0  0  0
  144.8108  131.5583  148.7542 H   0  0  0  0  0  0  0  0  0  0  0  0
  146.3696  132.1767  149.2703 H   0  0  0  0  0  0  0  0  0  0  0  0
  145.4872  132.9818  147.9851 H   0  0  0  0  0  0  0  0  0  0  0  0
  143.3150  131.9863  151.1227 H   0  0  0  0  0  0  0  0  0  0  0  0
  148.5034  137.4260  153.9834 H   0  0  0  0  0  0  0  0  0  0  0  0
  148.2742  138.3433  155.4416 H   0  0  0  0  0  0  0  0  0  0  0  0
  149.3616  139.4487  152.9623 H   0  0  0  0  0  0  0  0  0  0  0  0
  1  2  1  0  0  0  0
  1 20  1  0  0  0  0
  1 21  1  0  0  0  0
  1 22  1  0  0  0  0
  2  3  1  0  0  0  0
  2 23  1  0  0  0  0
  2 24  1  0  0  0  0
  3 19  1  0  0  0  0
  3  4  1  0  0  0  0
  3 44  1  0  0  0  0
  4  5  1  0  0  0  0
  4 25  1  0  0  0  0
  4 26  1  0  0  0  0
  5  6  1  0  0  0  0
  5 27  1  0  0  0  0
  5 28  1  0  0  0  0
  6  7  1  0  0  0  0
  6 29  1  0  0  0  0
  6 30  1  0  0  0  0
  7  8  1  0  0  0  0
  7 19  1  0  0  0  0
  7 31  1  0  0  0  0
  8  9  1  0  0  0  0
  8 32  1  0  0  0  0
  8 33  1  0  0  0  0
  9 10  1  0  0  0  0
  9 34  1  0  0  0  0
 10 11  2  0  0  0  0
 10 12  1  0  0  0  0
 12 13  1  0  0  0  0
 12 35  1  0  0  0  0
 12 36  1  0  0  0  0
 13 18  1  0  0  0  0
 13 14  1  0  0  0  0
 14 15  2  0  0  0  0
 14 37  1  0  0  0  0
 15 16  1  0  0  0  0
 15 17  1  0  0  0  0
 16 38  1  0  0  0  0
 16 39  1  0  0  0  0
 16 40  1  0  0  0  0
 17 18  2  0  0  0  0
 17 41  1  0  0  0  0
 19 42  1  0  0  0  0
 19 43  1  0  0  0  0
M  CHG  1   3   1
M  END
> <s_m_source_file>
AV-unprocessed.smi

> <i_m_source_file_index>
1103

> <i_lp_mmshare_version>
43012

> <i_f3d_flags>
0

> <s_epik_input>
W0NIM11bQ0gyXU4xW0NIMl1bQ0gyXVtDSDJdW0NASF0oW0NIMl0xKVtDSDJdW05IXUMoPU8pW0NIMl1uMltjSF1jKFtDSDNdKVtjSF1uMg==

> <s_epik_cmdline>
J2VwaWtfcHl0aG9uJywgJy1waCcsICc3LjAnLCAnLXRuJywgJzgnLCAnLW1hJywgJzIwMCcsICctbWV0YWxfYmluZGluZycsICctaW1hZScsICc8aW5maWxlLm1hZT4nLCAnLW9tYWUnLCAnPG91dGZpbGUubWFlPic=

> <r_lp_tautomer_probability>
1

> <r_epik_Ionization_Penalty>
0.000672456

> <r_epik_Ionization_Penalty_Charging>
0.000647327

> <r_epik_Ionization_Penalty_Neutral>
2.51297e-05

> <r_epik_State_Penalty>
0.000409793

> <r_epik_Charging_Adjusted_Penalty>
0.00105712

> <i_epik_Tot_Q>
1

> <i_epik_Tot_abs_Q>
1

> <r_epik_Metal_State_Penalty>
-0

> <b_epik_Metal_Only>
0

> <s_lp_Force_Field>
OPLS_2005

> <r_lp_Energy>
19.6745

> <b_lp_Chiralities_Consistent>
1

> <s_lp_Variant>
AV-unprocessed.smi:1103-2

> <Gold.Version>
5.8.1

> <Gold.Id.Protein>
6NUR|6NUR_protein|mol2

> <Gold.PLP.Fitness>
45.4921

> <Gold.PLP.PLP>
-38.8411

> <Gold.PLP.part.hbond>
-2.9339

> <Gold.PLP.part.metal>
0.0000

> <Gold.PLP.part.buried>
-4.7738

> <Gold.PLP.part.nonpolar>
-32.0203

> <Gold.PLP.part.repulsive>
0.4359

> <Gold.PLP.ligand.clash>
0.0000

> <Gold.PLP.ligand.torsion>
1.0470

> <Gold.PLP.Chemscore.Hbond>
2.0000

> <Gold.PLP.Chemscore.CHOScore>
0.8898

> <Gold.PLP.Chemscore.Metal>
0.0000

> <Gold.Chemscore.Hbonds>
donor molecule, donor type, donor heavy atom, donor atom, acceptor molecule, acceptor atom, score
      L1  H     3    44       P1  7957  1.00
      L1  H     9    34       P1 10171  1.00
      L1  C    14    37       P1  7921  0.71

> <Gold.PLP.Chemscore.Internal.Correction>
0.0756

> <Gold.Rescore>
     Score         DG    S(hbond)    S(metal)    S(lipo)     H(rot)  DE(clash)    DE(int)     intcor
     17.68     -18.58       1.93        0.00      93.62       1.68       0.05       0.85       ----

> <Gold.Chemscore.Fitness>
17.6753

> <Gold.Chemscore.DG>
-18.5798

> <Gold.Chemscore.ZeroCoef>
-5.4800

> <Gold.Chemscore.Hbond>
1.9319

> <Gold.Chemscore.Metal>
0.0000

> <Gold.Chemscore.Lipo>
93.6225

> <Gold.Chemscore.Internal_Hbond>
0.0000

> <Gold.Chemscore.DEClash>
0.0501

> <Gold.Chemscore.DEInternal>
0.8544

> <Gold.Chemscore.Rot>
1.6823

> <Gold.Chemscore.Internal.Correction>
   9.000000E+99

> <Gold.Chemscore.Hbonds>
donor molecule, donor type, donor heavy atom, donor atom, acceptor molecule, acceptor atom, score
      L1  H     3    44       P1  7957  1.00
      L1  H     9    34       P1 10171  0.96

> <Gold.Chemscore.Hbond.Weighted>
-6.4525

> <Gold.Chemscore.Metal.Weighted>
-0.0000

> <Gold.Chemscore.Lipo.Weighted>
-10.9538

> <Gold.Chemscore.Internal_Hbond.Weighted>
0.0000

> <Gold.Chemscore.DEClash.Weighted>
0.0501

> <Gold.Chemscore.DEInternal.Weighted>
0.8544

> <Gold.Chemscore.Rot.Weighted>
4.3066

> <Gold.Chemscore.Internal.Correction.Weighted>
   9.000000E+99

> <Gold.Protein.RotatedTorsions>
[ 6907 6896 6895 6894 ] final   63.18 input  -60.11 | X-H torsion
[ 7974 7965 7964 7962 ] final -172.01 input  175.53 | X-H torsion
[ 8008 7997 7996 7995 ] final   48.67 input   59.86 | X-H torsion
[ 10167 10162 10161 10158 ] final    0.76 input  -65.29 | X-H torsion
[ 10718 10713 10712 10709 ] final   98.28 input   66.30 | X-H torsion
[ 10763 10752 10751 10750 ] final  -11.84 input  -60.55 | X-H torsion
[ 11005 11000 10999 10996 ] final  -84.74 input  -57.11 | X-H torsion

> <Gold.Protein.ActiveResidues>
 VAL166  LYS551  ARG553  GLY616  TRP617  ASP618  TYR619  PRO620  LYS621  CYS622 
 ASP623  PHE694  ASN695  SER759  ASP760  ASP761  ALA762  ILE779  LEU786  VAL792 
 PHE793  MET794  SER795  GLU796  ALA797  LYS798  CYS799  TRP800  GLU811  SER814 

> <Gold.Protein.RotatedAtoms>
  152.4233  134.5915  159.9975 H   0  0  0  0  0  0  0  0  0  0  0  0  # atno 6907 bound_to 6896
  151.6059  133.3346  159.3065 H   0  0  0  0  0  0  0  0  0  0  0  0  # atno 6908 bound_to 6896
  150.8121  134.7320  159.6763 H   0  0  0  0  0  0  0  0  0  0  0  0  # atno 6909 bound_to 6896
  144.7151  140.1836  143.6356 H   0  0  0  0  0  0  0  0  0  0  0  0  # atno 7974 bound_to 7965
  155.3895  140.3432  155.4250 H   0  0  0  0  0  0  0  0  0  0  0  0  # atno 8008 bound_to 7997
  156.1565  140.1587  156.8716 H   0  0  0  0  0  0  0  0  0  0  0  0  # atno 8009 bound_to 7997
  154.5100  140.0792  156.7952 H   0  0  0  0  0  0  0  0  0  0  0  0  # atno 8010 bound_to 7997
  140.6714  143.7038  150.7931 H   0  0  0  0  0  0  0  0  0  0  0  0  # atno 10167 bound_to 10162
  157.6898  131.0635  150.4773 H   0  0  0  0  0  0  0  0  0  0  0  0  # atno 10718 bound_to 10713
  153.4897  135.7017  153.5891 H   0  0  0  0  0  0  0  0  0  0  0  0  # atno 10763 bound_to 10752
  153.4069  135.3858  155.2025 H   0  0  0  0  0  0  0  0  0  0  0  0  # atno 10764 bound_to 10752
  154.8717  135.3895  154.4355 H   0  0  0  0  0  0  0  0  0  0  0  0  # atno 10765 bound_to 10752
  141.1648  133.7362  156.8913 H   0  0  0  0  0  0  0  0  0  0  0  0  # atno 11005 bound_to 11000
  145.8833  139.2335  143.1592 LP  0  0  0  0  0  0  0  0  0  0  0  0  # atno 17320 bound_to 7965
  145.9974  140.8550  143.0036 LP  0  0  0  0  0  0  0  0  0  0  0  0  # atno 17321 bound_to 7965
  140.0724  143.5048  152.2573 LP  0  0  0  0  0  0  0  0  0  0  0  0  # atno 17342 bound_to 10162
  139.5984  144.7575  151.3230 LP  0  0  0  0  0  0  0  0  0  0  0  0  # atno 17343 bound_to 10162
  156.5107  130.4138  149.6303 LP  0  0  0  0  0  0  0  0  0  0  0  0  # atno 17370 bound_to 10713
  156.3243  130.7297  151.2215 LP  0  0  0  0  0  0  0  0  0  0  0  0  # atno 17371 bound_to 10713
  140.1647  134.9142  157.2758 LP  0  0  0  0  0  0  0  0  0  0  0  0  # atno 17394 bound_to 11000
  140.2571  134.3615  155.7420 LP  0  0  0  0  0  0  0  0  0  0  0  0  # atno 17395 bound_to 11000

$$$$
