AV-unprocessed.smi:21|AV-procd|sdf|166|dock2
  -GOLD-   2262015413D 1   1.00000     0.00000
 Structure written by MMmdl.
 61 64  0  0  0  0  0  0  0  0  1 V2000
  152.6786  143.2191  161.3306 C   0  0  0  0  0  0  0  0  0  0  0  0
  151.9693  142.9251  160.1374 O   0  0  0  0  0  0  0  0  0  0  0  0
  152.7694  142.3030  159.1420 C   0  0  2  0  0  0  0  0  0  0  0  0
  152.0913  142.2729  157.7595 C   0  0  0  0  0  0  0  0  0  0  0  0
  151.9249  140.7789  157.4425 C   0  0  1  0  0  0  0  0  0  0  0  0
  151.9444  140.4604  155.9304 C   0  0  0  0  0  0  0  0  0  0  0  0
  151.8696  139.0280  155.6411 N   0  0  0  0  0  0  0  0  0  0  0  0
  153.0926  138.3570  155.2029 C   0  0  0  0  0  0  0  0  0  0  0  0
  150.6654  138.4518  155.3532 C   0  0  0  0  0  0  0  0  0  0  0  0
  149.6126  139.2632  155.0598 N   0  0  0  0  0  0  0  0  0  0  0  0
  148.4059  138.7570  154.7960 C   0  0  0  0  0  0  0  0  0  0  0  0
  148.0278  137.4799  154.7675 N   0  0  0  0  0  0  0  0  0  0  0  0
  149.0732  136.6511  155.0449 C   0  0  0  0  0  0  0  0  0  0  0  0
  150.4115  137.0443  155.3427 C   0  0  0  0  0  0  0  0  0  0  0  0
  151.1845  135.9075  155.5599 N   0  0  0  0  0  0  0  0  0  0  0  0
  150.3559  134.9115  155.4139 C   0  0  0  0  0  0  0  0  0  0  0  0
  149.0671  135.2681  155.0968 N   0  0  0  0  0  0  0  0  0  0  0  0
  147.9478  134.3666  154.8831 C   0  0  0  0  0  0  0  0  0  0  0  0
  148.0894  133.4994  153.6082 C   0  0  1  0  0  0  0  0  0  0  0  0
  148.3914  132.0301  153.9865 C   0  0  0  0  0  0  0  0  0  0  0  0
  149.4461  131.9650  154.9236 O   0  0  0  0  0  0  0  0  0  0  0  0
  146.8822  133.6540  152.6407 C   0  0  1  0  0  0  0  0  0  0  0  0
  147.0842  133.0649  151.2427 C   0  0  0  0  0  0  0  0  0  0  0  0
  145.8722  132.1569  151.0395 C   0  0  0  0  0  0  0  0  0  0  0  0
  144.8924  132.6997  151.9085 O   0  0  0  0  0  0  0  0  0  0  0  0
  145.5613  133.0300  153.1142 C   0  0  0  0  0  0  0  0  0  0  0  0
  152.9640  140.1174  158.2136 N   0  0  0  0  0  0  0  0  0  0  0  0
  152.7503  138.6853  158.3766 C   0  0  0  0  0  0  0  0  0  0  0  0
  152.9507  140.8202  159.4815 C   0  0  0  0  0  0  0  0  0  0  0  0
  153.7490  142.7798  159.0743 H   0  0  0  0  0  0  0  0  0  0  0  0
  150.9618  140.4718  157.8537 H   0  0  0  0  0  0  0  0  0  0  0  0
  152.0066  143.6919  162.0461 H   0  0  0  0  0  0  0  0  0  0  0  0
  153.5081  143.9036  161.1502 H   0  0  0  0  0  0  0  0  0  0  0  0
  153.0702  142.3106  161.7895 H   0  0  0  0  0  0  0  0  0  0  0  0
  151.1285  142.7842  157.7454 H   0  0  0  0  0  0  0  0  0  0  0  0
  152.7364  142.7590  157.0265 H   0  0  0  0  0  0  0  0  0  0  0  0
  151.1030  140.9641  155.4538 H   0  0  0  0  0  0  0  0  0  0  0  0
  152.8238  140.8795  155.4462 H   0  0  0  0  0  0  0  0  0  0  0  0
  153.1216  137.3291  155.5662 H   0  0  0  0  0  0  0  0  0  0  0  0
  153.9787  138.8637  155.5854 H   0  0  0  0  0  0  0  0  0  0  0  0
  153.1577  138.3426  154.1146 H   0  0  0  0  0  0  0  0  0  0  0  0
  147.6327  139.4795  154.5803 H   0  0  0  0  0  0  0  0  0  0  0  0
  150.6647  133.8826  155.5293 H   0  0  0  0  0  0  0  0  0  0  0  0
  147.8655  133.7331  155.7668 H   0  0  0  0  0  0  0  0  0  0  0  0
  147.0280  134.9509  154.8406 H   0  0  0  0  0  0  0  0  0  0  0  0
  148.9577  133.8720  153.0619 H   0  0  0  0  0  0  0  0  0  0  0  0
  147.5141  131.5449  154.4147 H   0  0  0  0  0  0  0  0  0  0  0  0
  148.6865  131.4430  153.1180 H   0  0  0  0  0  0  0  0  0  0  0  0
  150.2590  132.1403  154.4741 H   0  0  0  0  0  0  0  0  0  0  0  0
  146.6949  134.7167  152.4832 H   0  0  0  0  0  0  0  0  0  0  0  0
  147.0787  133.8665  150.5029 H   0  0  0  0  0  0  0  0  0  0  0  0
  148.0211  132.5225  151.1177 H   0  0  0  0  0  0  0  0  0  0  0  0
  145.5280  132.1380  150.0053 H   0  0  0  0  0  0  0  0  0  0  0  0
  146.1002  131.1340  151.3440 H   0  0  0  0  0  0  0  0  0  0  0  0
  145.7139  132.1164  153.6884 H   0  0  0  0  0  0  0  0  0  0  0  0
  144.9678  133.7134  153.7207 H   0  0  0  0  0  0  0  0  0  0  0  0
  153.5219  138.2532  159.0145 H   0  0  0  0  0  0  0  0  0  0  0  0
  152.7928  138.1715  157.4166 H   0  0  0  0  0  0  0  0  0  0  0  0
  151.7799  138.4780  158.8297 H   0  0  0  0  0  0  0  0  0  0  0  0
  153.8583  140.6331  160.0560 H   0  0  0  0  0  0  0  0  0  0  0  0
  152.1047  140.4805  160.0821 H   0  0  0  0  0  0  0  0  0  0  0  0
  1  2  1  0  0  0  0
  1 32  1  0  0  0  0
  1 33  1  0  0  0  0
  1 34  1  0  0  0  0
  2  3  1  0  0  0  0
  3 30  1  0  0  0  0
  3 29  1  0  0  0  0
  3  4  1  0  0  0  0
  4  5  1  0  0  0  0
  4 35  1  0  0  0  0
  4 36  1  0  0  0  0
  5 31  1  0  0  0  0
  5  6  1  0  0  0  0
  5 27  1  0  0  0  0
  6  7  1  0  0  0  0
  6 37  1  0  0  0  0
  6 38  1  0  0  0  0
  7  8  1  0  0  0  0
  7  9  1  0  0  0  0
  8 39  1  0  0  0  0
  8 40  1  0  0  0  0
  8 41  1  0  0  0  0
  9 14  1  0  0  0  0
  9 10  2  0  0  0  0
 10 11  1  0  0  0  0
 11 12  2  0  0  0  0
 11 42  1  0  0  0  0
 12 13  1  0  0  0  0
 13 17  1  0  0  0  0
 13 14  2  0  0  0  0
 14 15  1  0  0  0  0
 15 16  2  0  0  0  0
 16 17  1  0  0  0  0
 16 43  1  0  0  0  0
 17 18  1  0  0  0  0
 18 19  1  0  0  0  0
 18 44  1  0  0  0  0
 18 45  1  0  0  0  0
 19 20  1  0  0  0  0
 19 22  1  0  0  0  0
 19 46  1  0  0  0  0
 20 21  1  0  0  0  0
 20 47  1  0  0  0  0
 20 48  1  0  0  0  0
 21 49  1  0  0  0  0
 22 26  1  0  0  0  0
 22 23  1  0  0  0  0
 22 50  1  0  0  0  0
 23 24  1  0  0  0  0
 23 51  1  0  0  0  0
 23 52  1  0  0  0  0
 24 25  1  0  0  0  0
 24 53  1  0  0  0  0
 24 54  1  0  0  0  0
 25 26  1  0  0  0  0
 26 55  1  0  0  0  0
 26 56  1  0  0  0  0
 27 28  1  0  0  0  0
 27 29  1  0  0  0  0
 28 57  1  0  0  0  0
 28 58  1  0  0  0  0
 28 59  1  0  0  0  0
 29 60  1  0  0  0  0
 29 61  1  0  0  0  0
M  END
> <s_m_source_file>
AV-unprocessed.smi

> <i_m_source_file_index>
21

> <i_lp_mmshare_version>
43012

> <i_f3d_flags>
0

> <s_epik_input>
W0NIM11PW0NASF0xW0NIMl1bQ0BIXShOKFtDSDNdKVtDSDJdMSlbQ0gyXU4oW0NIM10pYyhuW2NIXW4yKWMoYzIzKW5bY0hdbjNbQ0gyXVtDQEhdKFtDSDJdW09IXSlbQ0BASF00W0NIMl1bQ0gyXU9bQ0gyXTQ=

> <s_epik_cmdline>
J2VwaWtfcHl0aG9uJywgJy1waCcsICc3LjAnLCAnLXRuJywgJzgnLCAnLW1hJywgJzIwMCcsICctbWV0YWxfYmluZGluZycsICctaW1hZScsICc8aW5maWxlLm1hZT4nLCAnLW9tYWUnLCAnPG91dGZpbGUubWFlPic=

> <r_lp_tautomer_probability>
1

> <r_epik_Ionization_Penalty>
2.17574

> <r_epik_Ionization_Penalty_Charging>
0

> <r_epik_Ionization_Penalty_Neutral>
2.17574

> <r_epik_State_Penalty>
2.31336

> <r_epik_Charging_Adjusted_Penalty>
2.31336

> <i_epik_Tot_Q>
0

> <i_epik_Tot_abs_Q>
0

> <r_epik_Metal_State_Penalty>
2.31025

> <b_epik_Metal_Only>
0

> <s_lp_Force_Field>
OPLS_2005

> <r_lp_Energy>
69.2807

> <b_lp_Chiralities_Consistent>
1

> <s_lp_Variant>
AV-unprocessed.smi:21-46

> <Gold.Version>
5.8.1

> <Gold.Id.Protein>
6NUR|6NUR_protein|mol2

> <Gold.PLP.Fitness>
48.8557

> <Gold.PLP.PLP>
-45.8257

> <Gold.PLP.part.hbond>
-2.5492

> <Gold.PLP.part.metal>
0.0000

> <Gold.PLP.part.buried>
-6.5016

> <Gold.PLP.part.nonpolar>
-38.3467

> <Gold.PLP.part.repulsive>
0.3909

> <Gold.PLP.ligand.clash>
0.0000

> <Gold.PLP.ligand.torsion>
1.5663

> <Gold.PLP.Chemscore.Hbond>
1.8000

> <Gold.PLP.Chemscore.CHOScore>
0.0000

> <Gold.PLP.Chemscore.Metal>
0.0000

> <Gold.Chemscore.Hbonds>
donor molecule, donor type, donor heavy atom, donor atom, acceptor molecule, acceptor atom, score
      P1  H  7997  8010       L1    27  0.95
      P1  H 10752 10764       L1    15  1.00

> <Gold.PLP.Chemscore.Internal.Correction>
0.7626

> <Gold.Rescore>
     Score         DG    S(hbond)    S(metal)    S(lipo)     H(rot)  DE(clash)    DE(int)     intcor
     10.87     -13.74       1.09        0.00     105.21       3.00       0.15       2.72       ----

> <Gold.Chemscore.Fitness>
10.8691

> <Gold.Chemscore.DG>
-13.7359

> <Gold.Chemscore.ZeroCoef>
-5.4800

> <Gold.Chemscore.Hbond>
1.0883

> <Gold.Chemscore.Metal>
0.0000

> <Gold.Chemscore.Lipo>
105.2056

> <Gold.Chemscore.Internal_Hbond>
0.0000

> <Gold.Chemscore.DEClash>
0.1495

> <Gold.Chemscore.DEInternal>
2.7173

> <Gold.Chemscore.Rot>
3.0031

> <Gold.Chemscore.Internal.Correction>
   9.000000E+99

> <Gold.Chemscore.Hbonds>
donor molecule, donor type, donor heavy atom, donor atom, acceptor molecule, acceptor atom, score
      P1  H  7997  8010       L1    27  0.11
      P1  H 10752 10764       L1    15  0.83

> <Gold.Chemscore.Hbond.Weighted>
-3.6348

> <Gold.Chemscore.Metal.Weighted>
-0.0000

> <Gold.Chemscore.Lipo.Weighted>
-12.3091

> <Gold.Chemscore.Internal_Hbond.Weighted>
0.0000

> <Gold.Chemscore.DEClash.Weighted>
0.1495

> <Gold.Chemscore.DEInternal.Weighted>
2.7173

> <Gold.Chemscore.Rot.Weighted>
7.6880

> <Gold.Chemscore.Internal.Correction.Weighted>
   9.000000E+99

> <Gold.Protein.RotatedTorsions>
[ 6907 6896 6895 6894 ] final  157.40 input  -60.11 | X-H torsion
[ 7974 7965 7964 7962 ] final   11.23 input  175.53 | X-H torsion
[ 8008 7997 7996 7995 ] final   34.92 input   59.86 | X-H torsion
[ 10167 10162 10161 10158 ] final -179.41 input  -65.29 | X-H torsion
[ 10718 10713 10712 10709 ] final   74.42 input   66.30 | X-H torsion
[ 10763 10752 10751 10750 ] final  -42.47 input  -60.55 | X-H torsion
[ 11005 11000 10999 10996 ] final -150.99 input  -57.11 | X-H torsion

> <Gold.Protein.ActiveResidues>
 VAL166  LYS551  ARG553  GLY616  TRP617  ASP618  TYR619  PRO620  LYS621  CYS622 
 ASP623  PHE694  ASN695  SER759  ASP760  ASP761  ALA762  ILE779  LEU786  VAL792 
 PHE793  MET794  SER795  GLU796  ALA797  LYS798  CYS799  TRP800  GLU811  SER814 

> <Gold.Protein.RotatedAtoms>
  152.0157  133.3878  159.4237 H   0  0  0  0  0  0  0  0  0  0  0  0  # atno 6907 bound_to 6896
  150.6895  134.3682  159.4989 H   0  0  0  0  0  0  0  0  0  0  0  0  # atno 6908 bound_to 6896
  152.1448  134.9034  160.0602 H   0  0  0  0  0  0  0  0  0  0  0  0  # atno 6909 bound_to 6896
  146.2375  139.9516  142.8470 H   0  0  0  0  0  0  0  0  0  0  0  0  # atno 7974 bound_to 7965
  155.1626  140.3284  155.4408 H   0  0  0  0  0  0  0  0  0  0  0  0  # atno 8008 bound_to 7997
  156.2537  140.1957  156.6683 H   0  0  0  0  0  0  0  0  0  0  0  0  # atno 8009 bound_to 7997
  154.6394  140.0572  156.9814 H   0  0  0  0  0  0  0  0  0  0  0  0  # atno 8010 bound_to 7997
  139.5387  144.2423  152.0850 H   0  0  0  0  0  0  0  0  0  0  0  0  # atno 10167 bound_to 10162
  157.6591  130.9677  150.1208 H   0  0  0  0  0  0  0  0  0  0  0  0  # atno 10718 bound_to 10713
  153.9796  135.6718  153.4749 H   0  0  0  0  0  0  0  0  0  0  0  0  # atno 10763 bound_to 10752
  153.0754  135.4951  154.8391 H   0  0  0  0  0  0  0  0  0  0  0  0  # atno 10764 bound_to 10752
  154.7172  135.3109  154.9066 H   0  0  0  0  0  0  0  0  0  0  0  0  # atno 10765 bound_to 10752
  140.7343  134.3585  157.5160 H   0  0  0  0  0  0  0  0  0  0  0  0  # atno 11005 bound_to 11000
  145.1856  140.9788  143.4241 LP  0  0  0  0  0  0  0  0  0  0  0  0  # atno 17320 bound_to 7965
  144.9903  139.3696  143.6218 LP  0  0  0  0  0  0  0  0  0  0  0  0  # atno 17321 bound_to 7965
  140.1898  144.4763  150.6485 LP  0  0  0  0  0  0  0  0  0  0  0  0  # atno 17342 bound_to 10162
  140.6607  143.2251  151.5862 LP  0  0  0  0  0  0  0  0  0  0  0  0  # atno 17343 bound_to 10162
  156.2080  130.3664  149.8705 LP  0  0  0  0  0  0  0  0  0  0  0  0  # atno 17370 bound_to 10713
  156.6592  130.8775  151.3544 LP  0  0  0  0  0  0  0  0  0  0  0  0  # atno 17371 bound_to 10713
  139.8819  134.9039  156.2865 LP  0  0  0  0  0  0  0  0  0  0  0  0  # atno 17394 bound_to 11000
  140.9893  133.7219  156.0789 LP  0  0  0  0  0  0  0  0  0  0  0  0  # atno 17395 bound_to 11000

$$$$
