AV-unprocessed.smi:3127|AV-procd|sdf|11916|dock3
  -GOLD-   2272017293D 1   1.00000     0.00000
 Structure written by MMmdl.
 33 34  0  0  0  0  0  0  0  0  1 V2000
  153.0702  144.1331  158.2704 C   0  0  0  0  0  0  0  0  0  0  0  0
  152.3702  142.8704  158.8169 C   0  0  0  0  0  0  0  0  0  0  0  0
  153.4347  142.0005  159.5138 C   0  0  0  0  0  0  0  0  0  0  0  0
  151.3091  143.3205  159.8406 C   0  0  0  0  0  0  0  0  0  0  0  0
  151.7112  142.0839  157.7011 C   0  0  0  0  0  0  0  0  0  0  0  0
  150.7236  142.4993  156.8371 C   0  0  0  0  0  0  0  0  0  0  0  0
  150.2605  141.2526  155.7122 S   0  0  0  0  0  0  0  0  0  0  0  0
  151.4531  140.1902  156.4443 C   0  0  0  0  0  0  0  0  0  0  0  0
  151.6588  138.7755  156.0061 C   0  0  2  0  0  0  0  0  0  0  0  0
  151.6523  138.6322  154.4718 C   0  0  0  0  0  0  0  0  0  0  0  0
  151.7753  137.2252  154.0940 N   0  0  0  0  0  0  0  0  0  0  0  0
  150.7361  136.4153  154.7285 C   0  0  0  0  0  0  0  0  0  0  0  0
  150.7589  136.6142  156.2549 C   0  0  0  0  0  0  0  0  0  0  0  0
  150.6009  137.9958  156.5591 O   0  0  0  0  0  0  0  0  0  0  0  0
  152.1040  140.7604  157.4625 N   0  0  0  0  0  0  0  0  0  0  0  0
  153.5493  144.6987  159.0704 H   0  0  0  0  0  0  0  0  0  0  0  0
  152.3625  144.8028  157.7803 H   0  0  0  0  0  0  0  0  0  0  0  0
  153.8447  143.8799  157.5454 H   0  0  0  0  0  0  0  0  0  0  0  0
  154.2008  141.6727  158.8100 H   0  0  0  0  0  0  0  0  0  0  0  0
  152.9953  141.1077  159.9601 H   0  0  0  0  0  0  0  0  0  0  0  0
  153.9349  142.5485  160.3131 H   0  0  0  0  0  0  0  0  0  0  0  0
  151.7559  143.9052  160.6456 H   0  0  0  0  0  0  0  0  0  0  0  0
  150.8069  142.4688  160.3006 H   0  0  0  0  0  0  0  0  0  0  0  0
  150.5429  143.9386  159.3712 H   0  0  0  0  0  0  0  0  0  0  0  0
  150.2342  143.4606  156.7920 H   0  0  0  0  0  0  0  0  0  0  0  0
  152.6123  138.4323  156.4119 H   0  0  0  0  0  0  0  0  0  0  0  0
  150.7265  139.0430  154.0669 H   0  0  0  0  0  0  0  0  0  0  0  0
  152.4686  139.2093  154.0367 H   0  0  0  0  0  0  0  0  0  0  0  0
  151.7063  137.1373  153.0850 H   0  0  0  0  0  0  0  0  0  0  0  0
  149.7569  136.6952  154.3381 H   0  0  0  0  0  0  0  0  0  0  0  0
  150.8812  135.3625  154.4855 H   0  0  0  0  0  0  0  0  0  0  0  0
  149.9448  136.0562  156.7178 H   0  0  0  0  0  0  0  0  0  0  0  0
  151.6882  136.2368  156.6846 H   0  0  0  0  0  0  0  0  0  0  0  0
  1  2  1  0  0  0  0
  1 16  1  0  0  0  0
  1 17  1  0  0  0  0
  1 18  1  0  0  0  0
  2  3  1  0  0  0  0
  2  4  1  0  0  0  0
  2  5  1  0  0  0  0
  3 19  1  0  0  0  0
  3 20  1  0  0  0  0
  3 21  1  0  0  0  0
  4 22  1  0  0  0  0
  4 23  1  0  0  0  0
  4 24  1  0  0  0  0
  5 15  1  0  0  0  0
  5  6  2  0  0  0  0
  6  7  1  0  0  0  0
  6 25  1  0  0  0  0
  7  8  1  0  0  0  0
  8  9  1  0  0  0  0
  8 15  2  0  0  0  0
  9 14  1  0  0  0  0
  9 10  1  0  0  0  0
  9 26  1  0  0  0  0
 10 11  1  0  0  0  0
 10 27  1  0  0  0  0
 10 28  1  0  0  0  0
 11 12  1  0  0  0  0
 11 29  1  0  0  0  0
 12 13  1  0  0  0  0
 12 30  1  0  0  0  0
 12 31  1  0  0  0  0
 13 14  1  0  0  0  0
 13 32  1  0  0  0  0
 13 33  1  0  0  0  0
M  END
> <s_m_source_file>
AV-unprocessed.smi

> <i_m_source_file_index>
3127

> <i_lp_mmshare_version>
43012

> <i_f3d_flags>
0

> <s_epik_input>
W0NIM11DKFtDSDNdKShbQ0gzXSljMVtjSF1zYyhuMSlbQ0BASF0yW0NIMl1bTkhdW0NIMl1bQ0gyXU8y

> <s_epik_cmdline>
J2VwaWtfcHl0aG9uJywgJy1waCcsICc3LjAnLCAnLXRuJywgJzgnLCAnLW1hJywgJzIwMCcsICctbWV0YWxfYmluZGluZycsICctaW1hZScsICc8aW5maWxlLm1hZT4nLCAnLW9tYWUnLCAnPG91dGZpbGUubWFlPic=

> <r_epik_Ionization_Penalty>
0.982256

> <r_epik_Ionization_Penalty_Charging>
0

> <r_epik_Ionization_Penalty_Neutral>
0.982256

> <r_epik_State_Penalty>
2.16535

> <r_epik_Charging_Adjusted_Penalty>
2.16535

> <i_epik_Tot_Q>
0

> <i_epik_Tot_abs_Q>
0

> <r_epik_Metal_State_Penalty>
2.16345

> <b_epik_Metal_Only>
0

> <s_lp_Force_Field>
OPLS_2005

> <r_lp_Energy>
6.45537

> <b_lp_Chiralities_Consistent>
1

> <s_lp_Variant>
AV-unprocessed.smi:3127-3

> <Gold.Version>
5.8.1

> <Gold.Id.Protein>
6NUR|6NUR_protein|mol2

> <Gold.PLP.Fitness>
34.1449

> <Gold.PLP.PLP>
-29.2395

> <Gold.PLP.part.hbond>
-2.0000

> <Gold.PLP.part.metal>
0.0000

> <Gold.PLP.part.buried>
-2.5545

> <Gold.PLP.part.nonpolar>
-24.6989

> <Gold.PLP.part.repulsive>
0.0000

> <Gold.PLP.ligand.clash>
0.0000

> <Gold.PLP.ligand.torsion>
0.5171

> <Gold.PLP.Chemscore.Hbond>
0.9760

> <Gold.PLP.Chemscore.CHOScore>
1.0000

> <Gold.PLP.Chemscore.Metal>
0.0000

> <Gold.Chemscore.Hbonds>
donor molecule, donor type, donor heavy atom, donor atom, acceptor molecule, acceptor atom, score
      L1  H    11    29       P1  7949  0.95
      L1  C     6    25       P1  8028  1.00

> <Gold.PLP.Chemscore.Internal.Correction>
0.0116

> <Gold.Rescore>
     Score         DG    S(hbond)    S(metal)    S(lipo)     H(rot)  DE(clash)    DE(int)     intcor
     16.55     -17.22       0.85        0.00     100.61       1.12       0.11       0.56       ----

> <Gold.Chemscore.Fitness>
16.5529

> <Gold.Chemscore.DG>
-17.2184

> <Gold.Chemscore.ZeroCoef>
-5.4800

> <Gold.Chemscore.Hbond>
0.8462

> <Gold.Chemscore.Metal>
0.0000

> <Gold.Chemscore.Lipo>
100.6061

> <Gold.Chemscore.Internal_Hbond>
0.0000

> <Gold.Chemscore.DEClash>
0.1101

> <Gold.Chemscore.DEInternal>
0.5554

> <Gold.Chemscore.Rot>
1.1167

> <Gold.Chemscore.Internal.Correction>
   9.000000E+99

> <Gold.Chemscore.Hbonds>
donor molecule, donor type, donor heavy atom, donor atom, acceptor molecule, acceptor atom, score
      L1  H    11    29       P1  7949  0.83

> <Gold.Chemscore.Hbond.Weighted>
-2.8263

> <Gold.Chemscore.Metal.Weighted>
-0.0000

> <Gold.Chemscore.Lipo.Weighted>
-11.7709

> <Gold.Chemscore.Internal_Hbond.Weighted>
0.0000

> <Gold.Chemscore.DEClash.Weighted>
0.1101

> <Gold.Chemscore.DEInternal.Weighted>
0.5554

> <Gold.Chemscore.Rot.Weighted>
2.8588

> <Gold.Chemscore.Internal.Correction.Weighted>
   9.000000E+99

> <Gold.Protein.RotatedTorsions>
[ 6907 6896 6895 6894 ] final -156.84 input  -60.11 | X-H torsion
[ 7974 7965 7964 7962 ] final -145.71 input  175.53 | X-H torsion
[ 8008 7997 7996 7995 ] final -129.08 input   59.86 | X-H torsion
[ 10167 10162 10161 10158 ] final  -60.42 input  -65.29 | X-H torsion
[ 10718 10713 10712 10709 ] final -157.95 input   66.30 | X-H torsion
[ 10763 10752 10751 10750 ] final   -2.10 input  -60.55 | X-H torsion
[ 11005 11000 10999 10996 ] final  -11.28 input  -57.11 | X-H torsion

> <Gold.Protein.ActiveResidues>
 VAL166  LYS551  ARG553  GLY616  TRP617  ASP618  TYR619  PRO620  LYS621  CYS622 
 ASP623  PHE694  ASN695  SER759  ASP760  ASP761  ALA762  ILE779  LEU786  VAL792 
 PHE793  MET794  SER795  GLU796  ALA797  LYS798  CYS799  TRP800  GLU811  SER814 

> <Gold.Protein.RotatedAtoms>
  151.2938  133.4153  159.2634 H   0  0  0  0  0  0  0  0  0  0  0  0  # atno 6907 bound_to 6896
  151.0254  134.9501  159.8093 H   0  0  0  0  0  0  0  0  0  0  0  0  # atno 6908 bound_to 6896
  152.5334  134.2900  159.9092 H   0  0  0  0  0  0  0  0  0  0  0  0  # atno 6909 bound_to 6896
  144.8208  140.5548  143.5579 H   0  0  0  0  0  0  0  0  0  0  0  0  # atno 7974 bound_to 7965
  155.2734  140.0441  157.3009 H   0  0  0  0  0  0  0  0  0  0  0  0  # atno 8008 bound_to 7997
  154.5640  140.2354  155.8260 H   0  0  0  0  0  0  0  0  0  0  0  0  # atno 8009 bound_to 7997
  156.2070  140.3010  155.9656 H   0  0  0  0  0  0  0  0  0  0  0  0  # atno 8010 bound_to 7997
  140.6072  143.2377  151.5793 H   0  0  0  0  0  0  0  0  0  0  0  0  # atno 10167 bound_to 10162
  156.5473  130.8590  151.2768 H   0  0  0  0  0  0  0  0  0  0  0  0  # atno 10718 bound_to 10713
  153.3536  135.6987  153.6768 H   0  0  0  0  0  0  0  0  0  0  0  0  # atno 10763 bound_to 10752
  153.5485  135.3558  155.2750 H   0  0  0  0  0  0  0  0  0  0  0  0  # atno 10764 bound_to 10752
  154.8657  135.4221  154.2777 H   0  0  0  0  0  0  0  0  0  0  0  0  # atno 10765 bound_to 10752
  140.7536  133.8572  155.9065 H   0  0  0  0  0  0  0  0  0  0  0  0  # atno 11005 bound_to 11000
  145.5109  139.1479  143.3605 LP  0  0  0  0  0  0  0  0  0  0  0  0  # atno 17320 bound_to 7965
  146.2514  140.5249  142.8892 LP  0  0  0  0  0  0  0  0  0  0  0  0  # atno 17321 bound_to 7965
  139.5334  144.2850  152.1198 LP  0  0  0  0  0  0  0  0  0  0  0  0  # atno 17342 bound_to 10162
  140.2042  144.4627  150.6416 LP  0  0  0  0  0  0  0  0  0  0  0  0  # atno 17343 bound_to 10162
  157.7394  130.9831  150.2312 LP  0  0  0  0  0  0  0  0  0  0  0  0  # atno 17370 bound_to 10713
  156.2916  130.3746  149.7836 LP  0  0  0  0  0  0  0  0  0  0  0  0  # atno 17371 bound_to 10713
  140.9728  134.1508  157.4562 LP  0  0  0  0  0  0  0  0  0  0  0  0  # atno 17394 bound_to 11000
  139.8783  134.9984  156.5900 LP  0  0  0  0  0  0  0  0  0  0  0  0  # atno 17395 bound_to 11000

$$$$
