AV-unprocessed.smi:2656|AV-procd|sdf|10306|dock5
  -GOLD-   2272014323D 1   1.00000     0.00000
 Structure written by MMmdl.
 44 45  0  0  0  0  0  0  0  0  2 V2000
  150.6321  129.6460  155.8377 C   0  0  0  0  0  0  0  0  0  0  0  0
  150.6737  130.7800  156.7653 N   0  0  0  0  0  0  0  0  0  0  0  0
  151.5502  130.5592  157.9220 C   0  0  0  0  0  0  0  0  0  0  0  0
  149.9904  131.9522  156.6581 C   0  0  0  0  0  0  0  0  0  0  0  0
  150.1580  132.8344  157.5039 O   0  0  0  0  0  0  0  0  0  0  0  0
  148.9682  132.2268  155.4998 C   0  0  0  0  0  0  0  0  0  0  0  0
  149.6206  132.2173  154.0808 C   0  0  0  0  0  0  0  0  0  0  0  0
  148.6770  131.9140  153.0037 N   0  0  0  0  0  0  0  0  0  0  0  0
  147.6422  132.6807  152.6317 C   0  0  0  0  0  0  0  0  0  0  0  0
  147.3821  133.7688  153.1442 O   0  0  0  0  0  0  0  0  0  0  0  0
  146.9279  132.0928  151.6564 N   0  0  0  0  0  0  0  0  0  0  0  0
  145.7449  132.5635  151.0244 C   0  0  0  0  0  0  0  0  0  0  0  0
  145.0793  133.6603  151.6156 C   0  0  0  0  0  0  0  0  0  0  0  0
  143.8963  134.1542  151.0291 C   0  0  0  0  0  0  0  0  0  0  0  0
  143.4030  133.5702  149.9161 N   0  3  0  0  0  0  0  0  0  0  0  0
  143.9940  132.5097  149.3248 C   0  0  0  0  0  0  0  0  0  0  0  0
  145.1799  131.9723  149.8655 C   0  0  0  0  0  0  0  0  0  0  0  0
  147.8154  131.1825  155.5193 C   0  0  0  0  0  0  0  0  0  0  0  0
  146.7995  131.6331  156.5759 C   0  0  0  0  0  0  0  0  0  0  0  0
  147.0402  133.1324  156.7650 C   0  0  0  0  0  0  0  0  0  0  0  0
  148.1508  133.5107  155.7767 C   0  0  0  0  0  0  0  0  0  0  0  0
  150.4772  129.9318  154.8014 H   0  0  0  0  0  0  0  0  0  0  0  0
  149.8397  128.9559  156.1280 H   0  0  0  0  0  0  0  0  0  0  0  0
  151.5698  129.0892  155.8474 H   0  0  0  0  0  0  0  0  0  0  0  0
  152.4084  131.2314  157.8822 H   0  0  0  0  0  0  0  0  0  0  0  0
  151.9326  129.5393  157.9751 H   0  0  0  0  0  0  0  0  0  0  0  0
  151.0173  130.7418  158.8569 H   0  0  0  0  0  0  0  0  0  0  0  0
  150.1054  133.1748  153.8821 H   0  0  0  0  0  0  0  0  0  0  0  0
  150.4398  131.5060  154.0186 H   0  0  0  0  0  0  0  0  0  0  0  0
  148.8122  131.0366  152.5231 H   0  0  0  0  0  0  0  0  0  0  0  0
  147.2206  131.1632  151.3933 H   0  0  0  0  0  0  0  0  0  0  0  0
  145.4739  134.1271  152.5067 H   0  0  0  0  0  0  0  0  0  0  0  0
  143.3338  134.9921  151.4145 H   0  0  0  0  0  0  0  0  0  0  0  0
  143.5015  132.1214  148.4451 H   0  0  0  0  0  0  0  0  0  0  0  0
  145.6250  131.1126  149.3882 H   0  0  0  0  0  0  0  0  0  0  0  0
  147.3056  131.1718  154.5550 H   0  0  0  0  0  0  0  0  0  0  0  0
  148.1519  130.1582  155.6863 H   0  0  0  0  0  0  0  0  0  0  0  0
  145.7783  131.4217  156.2568 H   0  0  0  0  0  0  0  0  0  0  0  0
  146.9621  131.1060  157.5166 H   0  0  0  0  0  0  0  0  0  0  0  0
  146.1361  133.7177  156.5949 H   0  0  0  0  0  0  0  0  0  0  0  0
  147.3665  133.3255  157.7877 H   0  0  0  0  0  0  0  0  0  0  0  0
  148.7341  134.3404  156.1713 H   0  0  0  0  0  0  0  0  0  0  0  0
  147.6974  133.8621  154.8486 H   0  0  0  0  0  0  0  0  0  0  0  0
  142.5453  133.9428  149.5073 H   0  0  0  0  0  0  0  0  0  0  0  0
  1  2  1  0  0  0  0
  1 22  1  0  0  0  0
  1 23  1  0  0  0  0
  1 24  1  0  0  0  0
  2  3  1  0  0  0  0
  2  4  1  0  0  0  0
  3 25  1  0  0  0  0
  3 26  1  0  0  0  0
  3 27  1  0  0  0  0
  4  5  2  0  0  0  0
  4  6  1  0  0  0  0
  6 21  1  0  0  0  0
  6  7  1  0  0  0  0
  6 18  1  0  0  0  0
  7  8  1  0  0  0  0
  7 28  1  0  0  0  0
  7 29  1  0  0  0  0
  8  9  1  0  0  0  0
  8 30  1  0  0  0  0
  9 10  2  0  0  0  0
  9 11  1  0  0  0  0
 11 12  1  0  0  0  0
 11 31  1  0  0  0  0
 12 17  1  0  0  0  0
 12 13  2  0  0  0  0
 13 14  1  0  0  0  0
 13 32  1  0  0  0  0
 14 15  2  0  0  0  0
 14 33  1  0  0  0  0
 15 16  1  0  0  0  0
 15 44  1  0  0  0  0
 16 17  2  0  0  0  0
 16 34  1  0  0  0  0
 17 35  1  0  0  0  0
 18 19  1  0  0  0  0
 18 36  1  0  0  0  0
 18 37  1  0  0  0  0
 19 20  1  0  0  0  0
 19 38  1  0  0  0  0
 19 39  1  0  0  0  0
 20 21  1  0  0  0  0
 20 40  1  0  0  0  0
 20 41  1  0  0  0  0
 21 42  1  0  0  0  0
 21 43  1  0  0  0  0
M  CHG  1  15   1
M  END
> <s_m_source_file>
AV-unprocessed.smi

> <i_m_source_file_index>
2656

> <i_lp_mmshare_version>
43012

> <i_f3d_flags>
0

> <s_epik_input>
W0NIMl0xW0NIMl1bQ0gyXVtDSDJdQzEoQyg9TylOKFtDSDNdKVtDSDNdKVtDSDJdW05IXUMoPU8pW05IXWMyW2NIXVtjSF1uW2NIXVtjSF0y

> <s_epik_cmdline>
J2VwaWtfcHl0aG9uJywgJy1waCcsICc3LjAnLCAnLXRuJywgJzgnLCAnLW1hJywgJzIwMCcsICctbWV0YWxfYmluZGluZycsICctaW1hZScsICc8aW5maWxlLm1hZT4nLCAnLW9tYWUnLCAnPG91dGZpbGUubWFlPic=

> <r_epik_Ionization_Penalty>
1.05774

> <r_epik_Ionization_Penalty_Charging>
1.05772

> <r_epik_Ionization_Penalty_Neutral>
1.88023e-05

> <r_epik_State_Penalty>
1.11116

> <r_epik_Charging_Adjusted_Penalty>
2.16887

> <i_epik_Tot_Q>
1

> <i_epik_Tot_abs_Q>
1

> <r_epik_Metal_State_Penalty>
1.20442

> <b_epik_Metal_Only>
0

> <s_lp_Force_Field>
OPLS_2005

> <r_lp_Energy>
45.9804

> <b_lp_Chiralities_Consistent>
1

> <s_lp_Variant>
AV-unprocessed.smi:2656-2

> <Gold.Version>
5.8.1

> <Gold.Id.Protein>
6NUR|6NUR_protein|mol2

> <Gold.PLP.Fitness>
44.7034

> <Gold.PLP.PLP>
-31.1866

> <Gold.PLP.part.hbond>
-4.0000

> <Gold.PLP.part.metal>
0.0000

> <Gold.PLP.part.buried>
-5.2058

> <Gold.PLP.part.nonpolar>
-21.4144

> <Gold.PLP.part.repulsive>
0.1580

> <Gold.PLP.ligand.clash>
0.0000

> <Gold.PLP.ligand.torsion>
0.5166

> <Gold.PLP.Chemscore.Hbond>
4.7929

> <Gold.PLP.Chemscore.CHOScore>
0.0000

> <Gold.PLP.Chemscore.Metal>
0.0000

> <Gold.Chemscore.Hbonds>
donor molecule, donor type, donor heavy atom, donor atom, acceptor molecule, acceptor atom, score
      L1  H     8    30       P1 10747  0.23
      L1  H    11    31       P1 10747  0.35
      L1  H    15    44       P1 10186  2.00
      P1  H  6896  6908       L1     5  0.94

> <Gold.PLP.Chemscore.Internal.Correction>
0.1714

> <Gold.Rescore>
     Score         DG    S(hbond)    S(metal)    S(lipo)     H(rot)  DE(clash)    DE(int)     intcor
     16.46     -19.93       3.14        0.00      67.49       1.54       0.25       3.22       ----

> <Gold.Chemscore.Fitness>
16.4625

> <Gold.Chemscore.DG>
-19.9294

> <Gold.Chemscore.ZeroCoef>
-5.4800

> <Gold.Chemscore.Hbond>
3.1428

> <Gold.Chemscore.Metal>
0.0000

> <Gold.Chemscore.Lipo>
67.4911

> <Gold.Chemscore.Internal_Hbond>
0.0000

> <Gold.Chemscore.DEClash>
0.2510

> <Gold.Chemscore.DEInternal>
3.2159

> <Gold.Chemscore.Rot>
1.5406

> <Gold.Chemscore.Internal.Correction>
   9.000000E+99

> <Gold.Chemscore.Hbonds>
donor molecule, donor type, donor heavy atom, donor atom, acceptor molecule, acceptor atom, score
      L1  H     8    30       P1 10747  0.17
      L1  H    11    31       P1 10747  0.34
      L1  H    15    44       P1 10186  0.97
      P1  H  6896  6908       L1     5  0.90

> <Gold.Chemscore.Hbond.Weighted>
-10.4969

> <Gold.Chemscore.Metal.Weighted>
-0.0000

> <Gold.Chemscore.Lipo.Weighted>
-7.8965

> <Gold.Chemscore.Internal_Hbond.Weighted>
0.0000

> <Gold.Chemscore.DEClash.Weighted>
0.2510

> <Gold.Chemscore.DEInternal.Weighted>
3.2159

> <Gold.Chemscore.Rot.Weighted>
3.9440

> <Gold.Chemscore.Internal.Correction.Weighted>
   9.000000E+99

> <Gold.Protein.RotatedTorsions>
[ 6907 6896 6895 6894 ] final   92.76 input  -60.11 | X-H torsion
[ 7974 7965 7964 7962 ] final  116.34 input  175.53 | X-H torsion
[ 8008 7997 7996 7995 ] final  -12.33 input   59.86 | X-H torsion
[ 10167 10162 10161 10158 ] final   93.84 input  -65.29 | X-H torsion
[ 10718 10713 10712 10709 ] final   84.14 input   66.30 | X-H torsion
[ 10763 10752 10751 10750 ] final -135.63 input  -60.55 | X-H torsion
[ 11005 11000 10999 10996 ] final  125.03 input  -57.11 | X-H torsion

> <Gold.Protein.ActiveResidues>
 VAL166  LYS551  ARG553  GLY616  TRP617  ASP618  TYR619  PRO620  LYS621  CYS622 
 ASP623  PHE694  ASN695  SER759  ASP760  ASP761  ALA762  ILE779  LEU786  VAL792 
 PHE793  MET794  SER795  GLU796  ALA797  LYS798  CYS799  TRP800  GLU811  SER814 

> <Gold.Protein.RotatedAtoms>
  152.5453  134.1452  159.8495 H   0  0  0  0  0  0  0  0  0  0  0  0  # atno 6907 bound_to 6896
  151.1484  133.4916  159.2603 H   0  0  0  0  0  0  0  0  0  0  0  0  # atno 6908 bound_to 6896
  151.1498  135.0232  159.8718 H   0  0  0  0  0  0  0  0  0  0  0  0  # atno 6909 bound_to 6896
  145.1808  139.3051  143.4419 H   0  0  0  0  0  0  0  0  0  0  0  0  # atno 7974 bound_to 7965
  154.5387  140.2279  155.8678 H   0  0  0  0  0  0  0  0  0  0  0  0  # atno 8008 bound_to 7997
  156.1837  140.3094  155.9160 H   0  0  0  0  0  0  0  0  0  0  0  0  # atno 8009 bound_to 7997
  155.3302  140.0445  157.3033 H   0  0  0  0  0  0  0  0  0  0  0  0  # atno 8010 bound_to 7997
  139.8141  144.6761  150.9603 H   0  0  0  0  0  0  0  0  0  0  0  0  # atno 10167 bound_to 10162
  157.6892  131.0120  150.2628 H   0  0  0  0  0  0  0  0  0  0  0  0  # atno 10718 bound_to 10713
  154.8699  135.3697  154.4930 H   0  0  0  0  0  0  0  0  0  0  0  0  # atno 10763 bound_to 10752
  153.5576  135.7023  153.5567 H   0  0  0  0  0  0  0  0  0  0  0  0  # atno 10764 bound_to 10752
  153.3658  135.4034  155.1716 H   0  0  0  0  0  0  0  0  0  0  0  0  # atno 10765 bound_to 10752
  139.9387  134.9637  156.8498 H   0  0  0  0  0  0  0  0  0  0  0  0  # atno 11005 bound_to 11000
  146.3453  140.1987  142.8589 LP  0  0  0  0  0  0  0  0  0  0  0  0  # atno 17320 bound_to 7965
  145.0138  140.8736  143.5208 LP  0  0  0  0  0  0  0  0  0  0  0  0  # atno 17321 bound_to 7965
  140.7816  143.4156  151.0922 LP  0  0  0  0  0  0  0  0  0  0  0  0  # atno 17342 bound_to 10162
  139.7821  143.8340  152.3139 LP  0  0  0  0  0  0  0  0  0  0  0  0  # atno 17343 bound_to 10162
  156.3204  130.3785  149.7580 LP  0  0  0  0  0  0  0  0  0  0  0  0  # atno 17370 bound_to 10713
  156.5152  130.8190  151.3183 LP  0  0  0  0  0  0  0  0  0  0  0  0  # atno 17371 bound_to 10713
  140.6008  134.0173  155.7536 LP  0  0  0  0  0  0  0  0  0  0  0  0  # atno 17394 bound_to 11000
  141.1012  133.9765  157.3075 LP  0  0  0  0  0  0  0  0  0  0  0  0  # atno 17395 bound_to 11000

$$$$
