AV-unprocessed.smi:66|AV-procd|sdf|618|dock9
  -GOLD-   2262016513D 1   1.00000     0.00000
 Structure written by MMmdl.
 28 30  0  0  0  0  0  0  0  0  2 V2000
  151.1757  137.0560  159.4970 O   0  0  0  0  0  0  0  0  0  0  0  0
  150.6106  137.9110  158.7811 C   0  0  0  0  0  0  0  0  0  0  0  0
  149.4143  138.2645  158.8810 O   0  5  0  0  0  0  0  0  0  0  0  0
  151.4634  138.5715  157.6880 C   0  0  1  0  0  0  0  0  0  0  0  0
  150.9224  138.2739  156.2794 C   0  0  0  0  0  0  0  0  0  0  0  0
  151.3830  139.4811  155.4687 C   0  0  1  0  0  0  0  0  0  0  0  0
  150.6165  139.6786  154.2995 O   0  0  0  0  0  0  0  0  0  0  0  0
  151.2454  140.6360  156.4598 C   0  0  0  0  0  0  0  0  0  0  0  0
  151.4547  140.0358  157.7713 N   0  0  0  0  0  0  0  0  0  0  0  0
  152.1346  140.7199  158.7293 C   0  0  0  0  0  0  0  0  0  0  0  0
  152.8691  140.0338  159.6454 N   0  0  0  0  0  0  0  0  0  0  0  0
  153.5471  140.6811  160.5975 C   0  0  0  0  0  0  0  0  0  0  0  0
  153.6310  141.9948  160.8167 N   0  0  0  0  0  0  0  0  0  0  0  0
  152.8933  142.6878  159.9058 C   0  0  0  0  0  0  0  0  0  0  0  0
  152.7268  144.0528  159.8118 N   0  0  0  0  0  0  0  0  0  0  0  0
  151.8920  144.2600  158.7419 C   0  0  0  0  0  0  0  0  0  0  0  0
  151.5025  143.1713  158.1356 N   0  0  0  0  0  0  0  0  0  0  0  0
  152.1222  142.1413  158.8402 C   0  0  0  0  0  0  0  0  0  0  0  0
  153.1574  144.7169  160.4386 H   0  0  0  0  0  0  0  0  0  0  0  0
  152.4928  138.2165  157.7567 H   0  0  0  0  0  0  0  0  0  0  0  0
  151.2994  137.3328  155.8779 H   0  0  0  0  0  0  0  0  0  0  0  0
  149.8317  138.2228  156.2815 H   0  0  0  0  0  0  0  0  0  0  0  0
  152.4320  139.3553  155.1970 H   0  0  0  0  0  0  0  0  0  0  0  0
  150.3487  138.8328  153.9737 H   0  0  0  0  0  0  0  0  0  0  0  0
  151.9589  141.4286  156.2308 H   0  0  0  0  0  0  0  0  0  0  0  0
  150.2412  141.0614  156.4366 H   0  0  0  0  0  0  0  0  0  0  0  0
  154.1013  140.0551  161.2810 H   0  0  0  0  0  0  0  0  0  0  0  0
  151.5796  145.2449  158.4269 H   0  0  0  0  0  0  0  0  0  0  0  0
  1  2  2  0  0  0  0
  2  3  1  0  0  0  0
  2  4  1  0  0  0  0
  4  5  1  0  0  0  0
  4 20  1  0  0  0  0
  4  9  1  0  0  0  0
  5  6  1  0  0  0  0
  5 21  1  0  0  0  0
  5 22  1  0  0  0  0
  6  7  1  0  0  0  0
  6  8  1  0  0  0  0
  6 23  1  0  0  0  0
  7 24  1  0  0  0  0
  8 25  1  0  0  0  0
  8 26  1  0  0  0  0
  8  9  1  0  0  0  0
  9 10  1  0  0  0  0
 10 11  1  0  0  0  0
 10 18  2  0  0  0  0
 11 12  2  0  0  0  0
 12 27  1  0  0  0  0
 12 13  1  0  0  0  0
 13 14  2  0  0  0  0
 14 15  1  0  0  0  0
 14 18  1  0  0  0  0
 15 16  1  0  0  0  0
 15 19  1  0  0  0  0
 16 17  2  0  0  0  0
 16 28  1  0  0  0  0
 17 18  1  0  0  0  0
M  CHG  1   3  -1
M  END
> <s_m_source_file>
AV-unprocessed.smi

> <i_m_source_file_index>
66

> <i_lp_mmshare_version>
43012

> <i_f3d_flags>
0

> <s_epik_input>
Tz1DKFtPSF0pW0NAQEhdMVtDSDJdW0NAQEhdKFtPSF0pW0NIMl1OMWMobltjSF1uMiljKGMyMylbbkhdW2NIXW4z

> <s_epik_cmdline>
J2VwaWtfcHl0aG9uJywgJy1waCcsICc3LjAnLCAnLXRuJywgJzgnLCAnLW1hJywgJzIwMCcsICctbWV0YWxfYmluZGluZycsICctaW1hZScsICc8aW5maWxlLm1hZT4nLCAnLW9tYWUnLCAnPG91dGZpbGUubWFlPic=

> <r_lp_tautomer_probability>
0.955585

> <r_epik_Ionization_Penalty>
0.00455415

> <r_epik_Ionization_Penalty_Charging>
0.000248217

> <r_epik_Ionization_Penalty_Neutral>
0.00430593

> <r_epik_State_Penalty>
0.0207074

> <r_epik_Charging_Adjusted_Penalty>
0.0209557

> <i_epik_Tot_Q>
-1

> <i_epik_Tot_abs_Q>
1

> <r_epik_Metal_State_Penalty>
0.337372

> <b_epik_Metal_Only>
0

> <s_lp_Force_Field>
OPLS_2005

> <r_lp_Energy>
25.5493

> <b_lp_Chiralities_Consistent>
1

> <s_lp_Variant>
AV-unprocessed.smi:66-2

> <Gold.Version>
5.8.1

> <Gold.Id.Protein>
6NUR|6NUR_protein|mol2

> <Gold.PLP.Fitness>
39.6546

> <Gold.PLP.PLP>
-30.9126

> <Gold.PLP.part.hbond>
-2.5465

> <Gold.PLP.part.metal>
0.0000

> <Gold.PLP.part.buried>
-6.7604

> <Gold.PLP.part.nonpolar>
-22.8338

> <Gold.PLP.part.repulsive>
0.0838

> <Gold.PLP.ligand.clash>
0.0000

> <Gold.PLP.ligand.torsion>
0.2369

> <Gold.PLP.Chemscore.Hbond>
3.0000

> <Gold.PLP.Chemscore.CHOScore>
0.0000

> <Gold.PLP.Chemscore.Metal>
0.0000

> <Gold.Chemscore.Hbonds>
donor molecule, donor type, donor heavy atom, donor atom, acceptor molecule, acceptor atom, score
      P1  H  6896  6908       L1     1  2.00
      P1  H  7989  7998       L1     7  1.00

> <Gold.PLP.Chemscore.Internal.Correction>
0.2158

> <Gold.Rescore>
     Score         DG    S(hbond)    S(metal)    S(lipo)     H(rot)  DE(clash)    DE(int)     intcor
     10.90     -11.21       1.98        0.00      31.55       1.78       0.00       0.31       ----

> <Gold.Chemscore.Fitness>
10.8963

> <Gold.Chemscore.DG>
-11.2108

> <Gold.Chemscore.ZeroCoef>
-5.4800

> <Gold.Chemscore.Hbond>
1.9783

> <Gold.Chemscore.Metal>
0.0000

> <Gold.Chemscore.Lipo>
31.5464

> <Gold.Chemscore.Internal_Hbond>
0.0000

> <Gold.Chemscore.DEClash>
0.0000

> <Gold.Chemscore.DEInternal>
0.3144

> <Gold.Chemscore.Rot>
1.7842

> <Gold.Chemscore.Internal.Correction>
   9.000000E+99

> <Gold.Chemscore.Hbonds>
donor molecule, donor type, donor heavy atom, donor atom, acceptor molecule, acceptor atom, score
      P1  H  6896  6908       L1     1  0.92
      P1  H  7989  7998       L1     7  0.26

> <Gold.Chemscore.Hbond.Weighted>
-6.6075

> <Gold.Chemscore.Metal.Weighted>
-0.0000

> <Gold.Chemscore.Lipo.Weighted>
-3.6909

> <Gold.Chemscore.Internal_Hbond.Weighted>
0.0000

> <Gold.Chemscore.DEClash.Weighted>
0.0000

> <Gold.Chemscore.DEInternal.Weighted>
0.3144

> <Gold.Chemscore.Rot.Weighted>
4.5676

> <Gold.Chemscore.Internal.Correction.Weighted>
   9.000000E+99

> <Gold.Protein.RotatedTorsions>
[ 6907 6896 6895 6894 ] final -149.76 input  -60.11 | X-H torsion
[ 7974 7965 7964 7962 ] final   90.23 input  175.53 | X-H torsion
[ 8008 7997 7996 7995 ] final  -75.45 input   59.86 | X-H torsion
[ 10167 10162 10161 10158 ] final   58.82 input  -65.29 | X-H torsion
[ 10718 10713 10712 10709 ] final  -49.10 input   66.30 | X-H torsion
[ 10763 10752 10751 10750 ] final   -3.19 input  -60.55 | X-H torsion
[ 11005 11000 10999 10996 ] final -111.54 input  -57.11 | X-H torsion

> <Gold.Protein.ActiveResidues>
 VAL166  LYS551  ARG553  GLY616  TRP617  ASP618  TYR619  PRO620  LYS621  CYS622 
 ASP623  PHE694  ASN695  SER759  ASP760  ASP761  ALA762  ILE779  LEU786  VAL792 
 PHE793  MET794  SER795  GLU796  ALA797  LYS798  CYS799  TRP800  GLU811  SER814 

> <Gold.Protein.RotatedAtoms>
  151.1887  133.4680  159.2594 H   0  0  0  0  0  0  0  0  0  0  0  0  # atno 6907 bound_to 6896
  151.1185  135.0066  159.8537 H   0  0  0  0  0  0  0  0  0  0  0  0  # atno 6908 bound_to 6896
  152.5454  134.1801  159.8685 H   0  0  0  0  0  0  0  0  0  0  0  0  # atno 6909 bound_to 6896
  145.5218  139.2279  143.2668 H   0  0  0  0  0  0  0  0  0  0  0  0  # atno 7974 bound_to 7965
  154.5418  140.0744  156.8522 H   0  0  0  0  0  0  0  0  0  0  0  0  # atno 8008 bound_to 7997
  155.3166  140.3393  155.4224 H   0  0  0  0  0  0  0  0  0  0  0  0  # atno 8009 bound_to 7997
  156.1881  140.1676  156.8132 H   0  0  0  0  0  0  0  0  0  0  0  0  # atno 8010 bound_to 7997
  140.1831  144.4161  150.6606 H   0  0  0  0  0  0  0  0  0  0  0  0  # atno 10167 bound_to 10162
  156.1925  130.4153  149.9352 H   0  0  0  0  0  0  0  0  0  0  0  0  # atno 10718 bound_to 10713
  153.3681  135.6993  153.6659 H   0  0  0  0  0  0  0  0  0  0  0  0  # atno 10763 bound_to 10752
  153.5320  135.3590  155.2681 H   0  0  0  0  0  0  0  0  0  0  0  0  # atno 10764 bound_to 10752
  154.8677  135.4183  154.2953 H   0  0  0  0  0  0  0  0  0  0  0  0  # atno 10765 bound_to 10752
  141.0728  133.9351  157.2450 H   0  0  0  0  0  0  0  0  0  0  0  0  # atno 11005 bound_to 11000
  146.2101  140.6030  142.9063 LP  0  0  0  0  0  0  0  0  0  0  0  0  # atno 17320 bound_to 7965
  144.7672  140.5557  143.6695 LP  0  0  0  0  0  0  0  0  0  0  0  0  # atno 17321 bound_to 7965
  140.6506  143.2224  151.6086 LP  0  0  0  0  0  0  0  0  0  0  0  0  # atno 17342 bound_to 10162
  139.5287  144.2980  152.1097 LP  0  0  0  0  0  0  0  0  0  0  0  0  # atno 17343 bound_to 10162
  156.7087  130.8962  151.3607 LP  0  0  0  0  0  0  0  0  0  0  0  0  # atno 17370 bound_to 10713
  157.6938  130.9260  150.0586 LP  0  0  0  0  0  0  0  0  0  0  0  0  # atno 17371 bound_to 10713
  139.9541  135.0169  156.9078 LP  0  0  0  0  0  0  0  0  0  0  0  0  # atno 17394 bound_to 11000
  140.5637  134.0510  155.7407 LP  0  0  0  0  0  0  0  0  0  0  0  0  # atno 17395 bound_to 11000

$$$$
