AV-unprocessed.smi:1532|AV-procd|sdf|6160|dock4
  -GOLD-   22720 6313D 1   1.00000     0.00000
 Structure written by MMmdl.
 38 40  0  0  0  0  0  0  0  0  1 V2000
  152.5827  139.1750  158.4703 O   0  0  0  0  0  0  0  0  0  0  0  0
  152.3471  140.3415  158.7886 C   0  0  0  0  0  0  0  0  0  0  0  0
  153.1477  141.0947  159.7657 C   0  0  0  0  0  0  0  0  0  0  0  0
  154.3328  140.3870  160.4173 C   0  0  0  0  0  0  0  0  0  0  0  0
  154.5275  140.8015  161.6701 F   0  0  0  0  0  0  0  0  0  0  0  0
  154.1311  139.0694  160.4503 F   0  0  0  0  0  0  0  0  0  0  0  0
  155.4528  140.6204  159.7319 F   0  0  0  0  0  0  0  0  0  0  0  0
  152.8264  142.3777  160.0622 C   0  0  0  0  0  0  0  0  0  0  0  0
  151.6927  143.0149  159.4223 C   0  0  0  0  0  0  0  0  0  0  0  0
  151.2798  144.4312  159.7036 C   0  0  0  0  0  0  0  0  0  0  0  0
  152.1094  145.6062  159.2410 C   0  0  0  0  0  0  0  0  0  0  0  0
  151.9966  145.2956  160.7158 C   0  0  0  0  0  0  0  0  0  0  0  0
  150.9907  142.3509  158.5671 N   0  0  0  0  0  0  0  0  0  0  0  0
  151.3082  141.0455  158.2493 N   0  0  0  0  0  0  0  0  0  0  0  0
  150.4150  140.4444  157.2506 C   0  0  0  0  0  0  0  0  0  0  0  0
  150.5032  141.1524  155.8809 C   0  0  2  0  0  0  0  0  0  0  0  0
  150.6457  142.5434  156.0953 O   0  0  0  0  0  0  0  0  0  0  0  0
  149.2805  140.8417  155.0306 C   0  0  0  0  0  0  0  0  0  0  0  0
  149.1198  139.5728  154.4303 C   0  0  0  0  0  0  0  0  0  0  0  0
  147.9888  139.3013  153.6357 C   0  0  0  0  0  0  0  0  0  0  0  0
  147.0138  140.2970  153.4337 C   0  0  0  0  0  0  0  0  0  0  0  0
  147.1709  141.5648  154.0259 C   0  0  0  0  0  0  0  0  0  0  0  0
  146.2354  142.5239  153.8301 F   0  0  0  0  0  0  0  0  0  0  0  0
  148.3016  141.8365  154.8206 C   0  0  0  0  0  0  0  0  0  0  0  0
  153.4016  142.9469  160.7768 H   0  0  0  0  0  0  0  0  0  0  0  0
  150.1979  144.5349  159.6472 H   0  0  0  0  0  0  0  0  0  0  0  0
  153.0627  145.3997  158.7580 H   0  0  0  0  0  0  0  0  0  0  0  0
  151.5773  146.4789  158.8682 H   0  0  0  0  0  0  0  0  0  0  0  0
  151.3893  145.9624  161.3246 H   0  0  0  0  0  0  0  0  0  0  0  0
  152.8800  144.8923  161.2074 H   0  0  0  0  0  0  0  0  0  0  0  0
  150.6908  139.3942  157.1363 H   0  0  0  0  0  0  0  0  0  0  0  0
  149.3819  140.4256  157.6039 H   0  0  0  0  0  0  0  0  0  0  0  0
  151.3870  140.8146  155.3384 H   0  0  0  0  0  0  0  0  0  0  0  0
  149.8193  142.9611  155.9065 H   0  0  0  0  0  0  0  0  0  0  0  0
  149.8646  138.8037  154.5749 H   0  0  0  0  0  0  0  0  0  0  0  0
  147.8702  138.3295  153.1796 H   0  0  0  0  0  0  0  0  0  0  0  0
  146.1472  140.0889  152.8237 H   0  0  0  0  0  0  0  0  0  0  0  0
  148.4155  142.8138  155.2668 H   0  0  0  0  0  0  0  0  0  0  0  0
  1  2  2  0  0  0  0
  2 14  1  0  0  0  0
  2  3  1  0  0  0  0
  3  4  1  0  0  0  0
  3  8  2  0  0  0  0
  4  5  1  0  0  0  0
  4  6  1  0  0  0  0
  4  7  1  0  0  0  0
  8  9  1  0  0  0  0
  8 25  1  0  0  0  0
  9 10  1  0  0  0  0
  9 13  2  0  0  0  0
 10 12  1  0  0  0  0
 10 11  1  0  0  0  0
 10 26  1  0  0  0  0
 11 12  1  0  0  0  0
 11 27  1  0  0  0  0
 11 28  1  0  0  0  0
 12 29  1  0  0  0  0
 12 30  1  0  0  0  0
 13 14  1  0  0  0  0
 14 15  1  0  0  0  0
 15 16  1  0  0  0  0
 15 31  1  0  0  0  0
 15 32  1  0  0  0  0
 16 17  1  0  0  0  0
 16 18  1  0  0  0  0
 16 33  1  0  0  0  0
 17 34  1  0  0  0  0
 18 24  1  0  0  0  0
 18 19  2  0  0  0  0
 19 20  1  0  0  0  0
 19 35  1  0  0  0  0
 20 21  2  0  0  0  0
 20 36  1  0  0  0  0
 21 22  1  0  0  0  0
 21 37  1  0  0  0  0
 22 23  1  0  0  0  0
 22 24  2  0  0  0  0
 24 38  1  0  0  0  0
M  END
> <s_m_source_file>
AV-unprocessed.smi

> <i_m_source_file_index>
1532

> <i_lp_mmshare_version>
43012

> <i_f3d_flags>
0

> <s_epik_input>
Tz1jMWMoQyhGKShGKUYpW2NIXWMoW0NIXTJbQ0gyXVtDSDJdMilubjFbQ0gyXVtDQEhdKFtPSF0pYzNbY0hdW2NIXVtjSF1jKEYpW2NIXTM=

> <s_epik_cmdline>
J2VwaWtfcHl0aG9uJywgJy1waCcsICc3LjAnLCAnLXRuJywgJzgnLCAnLW1hJywgJzIwMCcsICctbWV0YWxfYmluZGluZycsICctaW1hZScsICc8aW5maWxlLm1hZT4nLCAnLW9tYWUnLCAnPG91dGZpbGUubWFlPic=

> <r_lp_tautomer_probability>
1

> <r_epik_Ionization_Penalty>
1.69012e-07

> <r_epik_Ionization_Penalty_Charging>
9.677e-10

> <r_epik_Ionization_Penalty_Neutral>
1.68044e-07

> <r_epik_State_Penalty>
-0

> <r_epik_Charging_Adjusted_Penalty>
9.677e-10

> <i_epik_Tot_Q>
0

> <i_epik_Tot_abs_Q>
0

> <r_epik_Metal_State_Penalty>
-0

> <b_epik_Metal_Only>
0

> <s_lp_Force_Field>
OPLS_2005

> <r_lp_Energy>
33.1726

> <b_lp_Chiralities_Consistent>
1

> <s_lp_Variant>
AV-unprocessed.smi:1532-1

> <Gold.Version>
5.8.1

> <Gold.Id.Protein>
6NUR|6NUR_protein|mol2

> <Gold.PLP.Fitness>
54.1868

> <Gold.PLP.PLP>
-54.2854

> <Gold.PLP.part.hbond>
-1.0000

> <Gold.PLP.part.metal>
0.0000

> <Gold.PLP.part.buried>
-1.9632

> <Gold.PLP.part.nonpolar>
-50.2353

> <Gold.PLP.part.repulsive>
0.0381

> <Gold.PLP.ligand.clash>
0.0027

> <Gold.PLP.ligand.torsion>
1.7524

> <Gold.PLP.Chemscore.Hbond>
0.9280

> <Gold.PLP.Chemscore.CHOScore>
0.0000

> <Gold.PLP.Chemscore.Metal>
0.0000

> <Gold.Chemscore.Hbonds>
donor molecule, donor type, donor heavy atom, donor atom, acceptor molecule, acceptor atom, score
      L1  H    17    34       P1  8028  0.90

> <Gold.PLP.Chemscore.Internal.Correction>
0.6249

> <Gold.Rescore>
     Score         DG    S(hbond)    S(metal)    S(lipo)     H(rot)  DE(clash)    DE(int)     intcor
     13.62     -17.02       0.71        0.00     126.49       2.20       0.38       3.02       ----

> <Gold.Chemscore.Fitness>
13.6222

> <Gold.Chemscore.DG>
-17.0223

> <Gold.Chemscore.ZeroCoef>
-5.4800

> <Gold.Chemscore.Hbond>
0.7112

> <Gold.Chemscore.Metal>
0.0000

> <Gold.Chemscore.Lipo>
126.4931

> <Gold.Chemscore.Internal_Hbond>
0.0000

> <Gold.Chemscore.DEClash>
0.3798

> <Gold.Chemscore.DEInternal>
3.0204

> <Gold.Chemscore.Rot>
2.2003

> <Gold.Chemscore.Internal.Correction>
   9.000000E+99

> <Gold.Chemscore.Hbonds>
donor molecule, donor type, donor heavy atom, donor atom, acceptor molecule, acceptor atom, score
      L1  H    17    34       P1  8028  0.84

> <Gold.Chemscore.Hbond.Weighted>
-2.3755

> <Gold.Chemscore.Metal.Weighted>
-0.0000

> <Gold.Chemscore.Lipo.Weighted>
-14.7997

> <Gold.Chemscore.Internal_Hbond.Weighted>
0.0000

> <Gold.Chemscore.DEClash.Weighted>
0.3798

> <Gold.Chemscore.DEInternal.Weighted>
3.0204

> <Gold.Chemscore.Rot.Weighted>
5.6328

> <Gold.Chemscore.Internal.Correction.Weighted>
   9.000000E+99

> <Gold.Protein.RotatedTorsions>
[ 6907 6896 6895 6894 ] final  -51.66 input  -60.11 | X-H torsion
[ 7974 7965 7964 7962 ] final -171.89 input  175.53 | X-H torsion
[ 8008 7997 7996 7995 ] final  -40.14 input   59.86 | X-H torsion
[ 10167 10162 10161 10158 ] final -105.30 input  -65.29 | X-H torsion
[ 10718 10713 10712 10709 ] final   33.59 input   66.30 | X-H torsion
[ 10763 10752 10751 10750 ] final   16.39 input  -60.55 | X-H torsion
[ 11005 11000 10999 10996 ] final -179.69 input  -57.11 | X-H torsion

> <Gold.Protein.ActiveResidues>
 VAL166  LYS551  ARG553  GLY616  TRP617  ASP618  TYR619  PRO620  LYS621  CYS622 
 ASP623  PHE694  ASN695  SER759  ASP760  ASP761  ALA762  ILE779  LEU786  VAL792 
 PHE793  MET794  SER795  GLU796  ALA797  LYS798  CYS799  TRP800  GLU811  SER814 

> <Gold.Protein.RotatedAtoms>
  150.8590  134.7937  159.7067 H   0  0  0  0  0  0  0  0  0  0  0  0  # atno 6907 bound_to 6896
  152.4633  134.5131  159.9770 H   0  0  0  0  0  0  0  0  0  0  0  0  # atno 6908 bound_to 6896
  151.5238  133.3423  159.2942 H   0  0  0  0  0  0  0  0  0  0  0  0  # atno 6909 bound_to 6896
  144.7152  140.1854  143.6354 H   0  0  0  0  0  0  0  0  0  0  0  0  # atno 7974 bound_to 7965
  154.4015  140.1533  156.2979 H   0  0  0  0  0  0  0  0  0  0  0  0  # atno 8008 bound_to 7997
  155.8727  140.3448  155.5810 H   0  0  0  0  0  0  0  0  0  0  0  0  # atno 8009 bound_to 7997
  155.7756  140.0836  157.2076 H   0  0  0  0  0  0  0  0  0  0  0  0  # atno 8010 bound_to 7997
  140.2000  143.3826  152.1137 H   0  0  0  0  0  0  0  0  0  0  0  0  # atno 10167 bound_to 10162
  157.2998  130.7345  149.6660 H   0  0  0  0  0  0  0  0  0  0  0  0  # atno 10718 bound_to 10713
  153.1436  135.6765  153.8989 H   0  0  0  0  0  0  0  0  0  0  0  0  # atno 10763 bound_to 10752
  153.8438  135.3102  155.3429 H   0  0  0  0  0  0  0  0  0  0  0  0  # atno 10764 bound_to 10752
  154.7807  135.4890  153.9923 H   0  0  0  0  0  0  0  0  0  0  0  0  # atno 10765 bound_to 10752
  140.4159  134.6650  157.4638 H   0  0  0  0  0  0  0  0  0  0  0  0  # atno 11005 bound_to 11000
  145.8818  139.2327  143.1601 LP  0  0  0  0  0  0  0  0  0  0  0  0  # atno 17320 bound_to 7965
  145.9988  140.8539  143.0029 LP  0  0  0  0  0  0  0  0  0  0  0  0  # atno 17321 bound_to 7965
  139.5221  144.7054  151.5369 LP  0  0  0  0  0  0  0  0  0  0  0  0  # atno 17342 bound_to 10162
  140.6397  143.8914  150.6680 LP  0  0  0  0  0  0  0  0  0  0  0  0  # atno 17343 bound_to 10162
  155.9671  130.4283  150.4784 LP  0  0  0  0  0  0  0  0  0  0  0  0  # atno 17370 bound_to 10713
  157.2762  131.0597  151.2227 LP  0  0  0  0  0  0  0  0  0  0  0  0  # atno 17371 bound_to 10713
  140.0235  134.6512  155.9206 LP  0  0  0  0  0  0  0  0  0  0  0  0  # atno 17394 bound_to 11000
  141.1803  133.6545  156.4994 LP  0  0  0  0  0  0  0  0  0  0  0  0  # atno 17395 bound_to 11000

$$$$
