AV-unprocessed.smi:277|AV-procd|sdf|2086|dock2
  -GOLD-   2262021363D 1   1.00000     0.00000
 Structure written by MMmdl.
 54 58  0  0  0  0  0  0  0  0  1 V2000
  152.9193  139.5112  157.3619 O   0  0  0  0  0  0  0  0  0  0  0  0
  151.9615  140.2555  157.1583 C   0  0  0  0  0  0  0  0  0  0  0  0
  151.0672  140.1347  155.9384 C   0  0  0  0  0  0  0  0  0  0  0  0
  150.1096  141.2100  156.1702 N   0  0  0  0  0  0  0  0  0  0  0  0
  148.9670  141.3438  155.4472 C   0  0  0  0  0  0  0  0  0  0  0  0
  148.9734  140.9269  154.1533 N   0  0  0  0  0  0  0  0  0  0  0  0
  147.8762  141.0296  153.3992 C   0  0  0  0  0  0  0  0  0  0  0  0
  146.6790  141.5120  153.7326 N   0  0  0  0  0  0  0  0  0  0  0  0
  146.6612  141.9388  155.0273 C   0  0  0  0  0  0  0  0  0  0  0  0
  147.7505  141.8999  155.9456 C   0  0  0  0  0  0  0  0  0  0  0  0
  147.3490  142.4426  157.1620 N   0  0  0  0  0  0  0  0  0  0  0  0
  146.1015  142.7747  156.9751 C   0  0  0  0  0  0  0  0  0  0  0  0
  145.5995  142.4874  155.7266 N   0  0  0  0  0  0  0  0  0  0  0  0
  144.2499  142.7473  155.2439 C   0  0  0  0  0  0  0  0  0  0  0  0
  143.8861  144.2500  155.0286 C   0  0  0  0  0  0  0  0  0  0  0  0
  144.7891  144.7936  153.8844 C   0  0  0  0  0  0  0  0  0  0  0  0
  144.2231  144.5913  152.6046 O   0  0  0  0  0  0  0  0  0  0  0  0
  142.3816  144.4365  154.6977 C   0  0  0  0  0  0  0  0  0  0  0  0
  141.9581  145.9163  154.6772 C   0  0  0  0  0  0  0  0  0  0  0  0
  142.2502  146.5192  155.9318 O   0  0  0  0  0  0  0  0  0  0  0  0
  143.6374  146.5104  156.2448 C   0  0  0  0  0  0  0  0  0  0  0  0
  144.1530  145.0604  156.3240 C   0  0  0  0  0  0  0  0  0  0  0  0
  150.3452  141.8950  157.4340 C   0  0  0  0  0  0  0  0  0  0  0  0
  151.5439  141.2527  157.9472 N   0  0  0  0  0  0  0  0  0  0  0  0
  152.1004  141.6442  159.2397 C   0  0  0  0  0  0  0  0  0  0  0  0
  152.6017  143.0738  159.3373 C   0  0  0  0  0  0  0  0  0  0  0  0
  151.6667  144.2135  159.6744 C   0  0  0  0  0  0  0  0  0  0  0  0
  152.2205  144.0816  158.2778 C   0  0  0  0  0  0  0  0  0  0  0  0
  151.6329  140.2959  155.0199 H   0  0  0  0  0  0  0  0  0  0  0  0
  150.5884  139.1547  155.9129 H   0  0  0  0  0  0  0  0  0  0  0  0
  147.9702  140.6719  152.3844 H   0  0  0  0  0  0  0  0  0  0  0  0
  145.5063  143.2332  157.7512 H   0  0  0  0  0  0  0  0  0  0  0  0
  144.1197  142.1975  154.3108 H   0  0  0  0  0  0  0  0  0  0  0  0
  143.5612  142.2883  155.9540 H   0  0  0  0  0  0  0  0  0  0  0  0
  144.9841  145.8593  153.9854 H   0  0  0  0  0  0  0  0  0  0  0  0
  145.7633  144.3038  153.9066 H   0  0  0  0  0  0  0  0  0  0  0  0
  143.5584  143.9229  152.6713 H   0  0  0  0  0  0  0  0  0  0  0  0
  142.1304  143.9615  153.7493 H   0  0  0  0  0  0  0  0  0  0  0  0
  141.7688  143.9425  155.4507 H   0  0  0  0  0  0  0  0  0  0  0  0
  142.4426  146.4648  153.8691 H   0  0  0  0  0  0  0  0  0  0  0  0
  140.8848  145.9895  154.5014 H   0  0  0  0  0  0  0  0  0  0  0  0
  144.1931  147.1018  155.5171 H   0  0  0  0  0  0  0  0  0  0  0  0
  143.7756  147.0022  157.2079 H   0  0  0  0  0  0  0  0  0  0  0  0
  143.6500  144.5941  157.1697 H   0  0  0  0  0  0  0  0  0  0  0  0
  145.2171  145.0558  156.5634 H   0  0  0  0  0  0  0  0  0  0  0  0
  150.5174  142.9606  157.2777 H   0  0  0  0  0  0  0  0  0  0  0  0
  149.5135  141.7550  158.1259 H   0  0  0  0  0  0  0  0  0  0  0  0
  151.3364  141.5074  160.0062 H   0  0  0  0  0  0  0  0  0  0  0  0
  152.9097  140.9589  159.4945 H   0  0  0  0  0  0  0  0  0  0  0  0
  153.6217  143.1562  159.7087 H   0  0  0  0  0  0  0  0  0  0  0  0
  150.6150  143.9778  159.8238 H   0  0  0  0  0  0  0  0  0  0  0  0
  152.0577  145.0131  160.3001 H   0  0  0  0  0  0  0  0  0  0  0  0
  152.9802  144.7963  157.9680 H   0  0  0  0  0  0  0  0  0  0  0  0
  151.5353  143.7607  157.4954 H   0  0  0  0  0  0  0  0  0  0  0  0
  1  2  2  0  0  0  0
  2 24  1  0  0  0  0
  2  3  1  0  0  0  0
  3  4  1  0  0  0  0
  3 29  1  0  0  0  0
  3 30  1  0  0  0  0
  4  5  1  0  0  0  0
  4 23  1  0  0  0  0
  5 10  1  0  0  0  0
  5  6  2  0  0  0  0
  6  7  1  0  0  0  0
  7  8  2  0  0  0  0
  7 31  1  0  0  0  0
  8  9  1  0  0  0  0
  9 13  1  0  0  0  0
  9 10  2  0  0  0  0
 10 11  1  0  0  0  0
 11 12  2  0  0  0  0
 12 13  1  0  0  0  0
 12 32  1  0  0  0  0
 13 14  1  0  0  0  0
 14 15  1  0  0  0  0
 14 33  1  0  0  0  0
 14 34  1  0  0  0  0
 15 22  1  0  0  0  0
 15 16  1  0  0  0  0
 15 18  1  0  0  0  0
 16 17  1  0  0  0  0
 16 35  1  0  0  0  0
 16 36  1  0  0  0  0
 17 37  1  0  0  0  0
 18 19  1  0  0  0  0
 18 38  1  0  0  0  0
 18 39  1  0  0  0  0
 19 20  1  0  0  0  0
 19 40  1  0  0  0  0
 19 41  1  0  0  0  0
 20 21  1  0  0  0  0
 21 22  1  0  0  0  0
 21 42  1  0  0  0  0
 21 43  1  0  0  0  0
 22 44  1  0  0  0  0
 22 45  1  0  0  0  0
 23 24  1  0  0  0  0
 23 46  1  0  0  0  0
 23 47  1  0  0  0  0
 24 25  1  0  0  0  0
 25 26  1  0  0  0  0
 25 48  1  0  0  0  0
 25 49  1  0  0  0  0
 26 28  1  0  0  0  0
 26 27  1  0  0  0  0
 26 50  1  0  0  0  0
 27 28  1  0  0  0  0
 27 51  1  0  0  0  0
 27 52  1  0  0  0  0
 28 53  1  0  0  0  0
 28 54  1  0  0  0  0
M  END
> <s_m_source_file>
AV-unprocessed.smi

> <i_m_source_file_index>
277

> <i_lp_mmshare_version>
43012

> <i_f3d_flags>
0

> <s_epik_input>
W0NIMl0xW0NIMl1bQ0hdMVtDSDJdTjJbQ0gyXU4oW0NIMl1DMj1PKWMobltjSF1uMyljKGMzNCluW2NIXW40W0NIMl1DNShbQ0gyXVtPSF0pW0NIMl1bQ0gyXU9bQ0gyXVtDSDJdNQ==

> <s_epik_cmdline>
J2VwaWtfcHl0aG9uJywgJy1waCcsICc3LjAnLCAnLXRuJywgJzgnLCAnLW1hJywgJzIwMCcsICctbWV0YWxfYmluZGluZycsICctaW1hZScsICc8aW5maWxlLm1hZT4nLCAnLW9tYWUnLCAnPG91dGZpbGUubWFlPic=

> <r_lp_tautomer_probability>
1

> <r_epik_Ionization_Penalty>
0.00033977

> <r_epik_Ionization_Penalty_Charging>
0

> <r_epik_Ionization_Penalty_Neutral>
0.00033977

> <r_epik_State_Penalty>
-0

> <r_epik_Charging_Adjusted_Penalty>
0

> <i_epik_Tot_Q>
0

> <i_epik_Tot_abs_Q>
0

> <r_epik_Metal_State_Penalty>
-0

> <b_epik_Metal_Only>
0

> <s_epik_Chemistry_Notes>
This compound contains an acetal/aminal-like group ( X-CH(R)-Y where X, Y are N, S, or O) that may be acid/base labile, releasing an aldehyde.

> <s_lp_Force_Field>
OPLS_2005

> <r_lp_Energy>
42.4244

> <b_lp_Chiralities_Consistent>
1

> <s_lp_Variant>
AV-unprocessed.smi:277-1

> <Gold.Version>
5.8.1

> <Gold.Id.Protein>
6NUR|6NUR_protein|mol2

> <Gold.PLP.Fitness>
56.8933

> <Gold.PLP.PLP>
-49.8103

> <Gold.PLP.part.hbond>
-3.0000

> <Gold.PLP.part.metal>
0.0000

> <Gold.PLP.part.buried>
-6.3688

> <Gold.PLP.part.nonpolar>
-42.4733

> <Gold.PLP.part.repulsive>
1.6992

> <Gold.PLP.ligand.clash>
0.0000

> <Gold.PLP.ligand.torsion>
1.3186

> <Gold.PLP.Chemscore.Hbond>
2.0000

> <Gold.PLP.Chemscore.CHOScore>
1.0000

> <Gold.PLP.Chemscore.Metal>
0.0000

> <Gold.Chemscore.Hbonds>
donor molecule, donor type, donor heavy atom, donor atom, acceptor molecule, acceptor atom, score
      L1  H    17    37       P1 10174  1.00
      P1  H  7997  8010       L1     1  1.00
      L1  C     7    31       P1  7957  1.00

> <Gold.PLP.Chemscore.Internal.Correction>
0.7202

> <Gold.Rescore>
     Score         DG    S(hbond)    S(metal)    S(lipo)     H(rot)  DE(clash)    DE(int)     intcor
     10.26     -15.59       1.73        0.00      98.34       2.80       2.39       2.94       ----

> <Gold.Chemscore.Fitness>
10.2638

> <Gold.Chemscore.DG>
-15.5939

> <Gold.Chemscore.ZeroCoef>
-5.4800

> <Gold.Chemscore.Hbond>
1.7308

> <Gold.Chemscore.Metal>
0.0000

> <Gold.Chemscore.Lipo>
98.3398

> <Gold.Chemscore.Internal_Hbond>
0.0000

> <Gold.Chemscore.DEClash>
2.3866

> <Gold.Chemscore.DEInternal>
2.9435

> <Gold.Chemscore.Rot>
2.8019

> <Gold.Chemscore.Internal.Correction>
   9.000000E+99

> <Gold.Chemscore.Hbonds>
donor molecule, donor type, donor heavy atom, donor atom, acceptor molecule, acceptor atom, score
      L1  H    17    37       P1 10174  0.92
      P1  H  7997  8010       L1     1  0.94

> <Gold.Chemscore.Hbond.Weighted>
-5.7810

> <Gold.Chemscore.Metal.Weighted>
-0.0000

> <Gold.Chemscore.Lipo.Weighted>
-11.5058

> <Gold.Chemscore.Internal_Hbond.Weighted>
0.0000

> <Gold.Chemscore.DEClash.Weighted>
2.3866

> <Gold.Chemscore.DEInternal.Weighted>
2.9435

> <Gold.Chemscore.Rot.Weighted>
7.1729

> <Gold.Chemscore.Internal.Correction.Weighted>
   9.000000E+99

> <Gold.Protein.RotatedTorsions>
[ 6907 6896 6895 6894 ] final  -32.10 input  -60.11 | X-H torsion
[ 7974 7965 7964 7962 ] final  -61.67 input  175.53 | X-H torsion
[ 8008 7997 7996 7995 ] final   47.51 input   59.86 | X-H torsion
[ 10167 10162 10161 10158 ] final  115.59 input  -65.29 | X-H torsion
[ 10718 10713 10712 10709 ] final  108.46 input   66.30 | X-H torsion
[ 10763 10752 10751 10750 ] final -127.02 input  -60.55 | X-H torsion
[ 11005 11000 10999 10996 ] final -164.51 input  -57.11 | X-H torsion

> <Gold.Protein.ActiveResidues>
 VAL166  LYS551  ARG553  GLY616  TRP617  ASP618  TYR619  PRO620  LYS621  CYS622 
 ASP623  PHE694  ASN695  SER759  ASP760  ASP761  ALA762  ILE779  LEU786  VAL792 
 PHE793  MET794  SER795  GLU796  ALA797  LYS798  CYS799  TRP800  GLU811  SER814 

> <Gold.Protein.RotatedAtoms>
  151.0832  134.9871  159.8366 H   0  0  0  0  0  0  0  0  0  0  0  0  # atno 6907 bound_to 6896
  152.5422  134.2156  159.8777 H   0  0  0  0  0  0  0  0  0  0  0  0  # atno 6908 bound_to 6896
  151.2187  133.4471  159.2633 H   0  0  0  0  0  0  0  0  0  0  0  0  # atno 6909 bound_to 6896
  145.8007  140.8657  143.0233 H   0  0  0  0  0  0  0  0  0  0  0  0  # atno 7974 bound_to 7965
  155.3702  140.3423  155.4243 H   0  0  0  0  0  0  0  0  0  0  0  0  # atno 8008 bound_to 7997
  156.1666  140.1618  156.8554 H   0  0  0  0  0  0  0  0  0  0  0  0  # atno 8009 bound_to 7997
  154.5191  140.0771  156.8121 H   0  0  0  0  0  0  0  0  0  0  0  0  # atno 8010 bound_to 7997
  139.6306  144.7114  151.2439 H   0  0  0  0  0  0  0  0  0  0  0  0  # atno 10167 bound_to 10162
  157.6585  131.0894  150.6308 H   0  0  0  0  0  0  0  0  0  0  0  0  # atno 10718 bound_to 10713
  154.8750  135.3976  154.3525 H   0  0  0  0  0  0  0  0  0  0  0  0  # atno 10763 bound_to 10752
  153.4309  135.7025  153.6237 H   0  0  0  0  0  0  0  0  0  0  0  0  # atno 10764 bound_to 10752
  153.4859  135.3759  155.2436 H   0  0  0  0  0  0  0  0  0  0  0  0  # atno 10765 bound_to 10752
  140.5861  134.5092  157.5186 H   0  0  0  0  0  0  0  0  0  0  0  0  # atno 11005 bound_to 11000
  144.6769  140.0254  143.7483 LP  0  0  0  0  0  0  0  0  0  0  0  0  # atno 17320 bound_to 7965
  145.9881  139.2993  143.1001 LP  0  0  0  0  0  0  0  0  0  0  0  0  # atno 17321 bound_to 7965
  140.7437  143.6486  150.8269 LP  0  0  0  0  0  0  0  0  0  0  0  0  # atno 17342 bound_to 10162
  140.0111  143.5642  152.2838 LP  0  0  0  0  0  0  0  0  0  0  0  0  # atno 17343 bound_to 10162
  156.6613  130.4513  149.5687 LP  0  0  0  0  0  0  0  0  0  0  0  0  # atno 17370 bound_to 10713
  156.2065  130.6652  151.1224 LP  0  0  0  0  0  0  0  0  0  0  0  0  # atno 17371 bound_to 10713
  139.9295  134.7991  156.0971 LP  0  0  0  0  0  0  0  0  0  0  0  0  # atno 17394 bound_to 11000
  141.0965  133.6693  156.2657 LP  0  0  0  0  0  0  0  0  0  0  0  0  # atno 17395 bound_to 11000

$$$$
