AV-unprocessed.smi:1763|AV-procd|sdf|7128|dock2
  -GOLD-   22720 8363D 1   1.00000     0.00000
 Structure written by MMmdl.
 43 44  0  0  0  0  0  0  0  0  2 V2000
  146.0940  134.5681  153.3833 C   0  0  0  0  0  0  0  0  0  0  0  0
  146.4097  135.8658  152.8062 N   0  0  0  0  0  0  0  0  0  0  0  0
  145.7087  136.9842  153.0387 C   0  0  0  0  0  0  0  0  0  0  0  0
  144.7115  137.0181  153.7607 O   0  0  0  0  0  0  0  0  0  0  0  0
  146.2026  138.2531  152.3360 C   0  0  0  0  0  0  0  0  0  0  0  0
  146.8426  139.2199  153.2649 N   0  3  2  0  0  0  0  0  0  0  0  0
  147.1424  140.5199  152.6118 C   0  0  0  0  0  0  0  0  0  0  0  0
  147.6722  141.5452  153.6287 C   0  0  0  0  0  0  0  0  0  0  0  0
  148.9103  141.0074  154.3692 C   0  0  1  0  0  0  0  0  0  0  0  0
  149.3474  141.9414  155.4024 N   0  0  0  0  0  0  0  0  0  0  0  0
  150.2431  141.6653  156.3616 C   0  0  0  0  0  0  0  0  0  0  0  0
  150.8125  140.5783  156.4628 O   0  0  0  0  0  0  0  0  0  0  0  0
  150.4277  142.7212  157.1733 N   0  0  0  0  0  0  0  0  0  0  0  0
  151.2630  142.8129  158.3184 C   0  0  0  0  0  0  0  0  0  0  0  0
  151.3139  144.0907  158.9198 C   0  0  0  0  0  0  0  0  0  0  0  0
  152.1090  144.2856  160.0658 C   0  0  0  0  0  0  0  0  0  0  0  0
  152.8341  143.1965  160.5810 C   0  0  0  0  0  0  0  0  0  0  0  0
  152.7290  141.9582  159.9209 C   0  0  0  0  0  0  0  0  0  0  0  0
  151.9673  141.7690  158.8225 N   0  0  0  0  0  0  0  0  0  0  0  0
  148.5804  139.6468  155.0025 C   0  0  0  0  0  0  0  0  0  0  0  0
  148.0404  138.6647  153.9507 C   0  0  0  0  0  0  0  0  0  0  0  0
  146.8206  133.8266  153.0510 H   0  0  0  0  0  0  0  0  0  0  0  0
  145.1022  134.2358  153.0741 H   0  0  0  0  0  0  0  0  0  0  0  0
  146.1240  134.6093  154.4729 H   0  0  0  0  0  0  0  0  0  0  0  0
  147.2119  135.9145  152.1943 H   0  0  0  0  0  0  0  0  0  0  0  0
  146.8903  138.0017  151.5267 H   0  0  0  0  0  0  0  0  0  0  0  0
  145.3282  138.7124  151.8732 H   0  0  0  0  0  0  0  0  0  0  0  0
  147.8719  140.3680  151.8146 H   0  0  0  0  0  0  0  0  0  0  0  0
  146.2393  140.9150  152.1452 H   0  0  0  0  0  0  0  0  0  0  0  0
  147.9142  142.4767  153.1153 H   0  0  0  0  0  0  0  0  0  0  0  0
  146.8851  141.7841  154.3456 H   0  0  0  0  0  0  0  0  0  0  0  0
  149.7208  140.8626  153.6517 H   0  0  0  0  0  0  0  0  0  0  0  0
  148.9299  142.8606  155.3932 H   0  0  0  0  0  0  0  0  0  0  0  0
  149.8998  143.5531  156.9557 H   0  0  0  0  0  0  0  0  0  0  0  0
  150.7500  144.9169  158.5116 H   0  0  0  0  0  0  0  0  0  0  0  0
  152.1606  145.2543  160.5405 H   0  0  0  0  0  0  0  0  0  0  0  0
  153.4539  143.3072  161.4584 H   0  0  0  0  0  0  0  0  0  0  0  0
  153.2700  141.0969  160.2840 H   0  0  0  0  0  0  0  0  0  0  0  0
  149.4698  139.2276  155.4747 H   0  0  0  0  0  0  0  0  0  0  0  0
  147.8399  139.7728  155.7942 H   0  0  0  0  0  0  0  0  0  0  0  0
  147.7928  137.7220  154.4393 H   0  0  0  0  0  0  0  0  0  0  0  0
  148.8131  138.4428  153.2129 H   0  0  0  0  0  0  0  0  0  0  0  0
  146.1571  139.4138  153.9815 H   0  0  0  0  0  0  0  0  0  0  0  0
  1  2  1  0  0  0  0
  1 22  1  0  0  0  0
  1 23  1  0  0  0  0
  1 24  1  0  0  0  0
  2  3  1  0  0  0  0
  2 25  1  0  0  0  0
  3  4  2  0  0  0  0
  3  5  1  0  0  0  0
  5  6  1  0  0  0  0
  5 26  1  0  0  0  0
  5 27  1  0  0  0  0
  6 21  1  0  0  0  0
  6  7  1  0  0  0  0
  6 43  1  0  0  0  0
  7  8  1  0  0  0  0
  7 28  1  0  0  0  0
  7 29  1  0  0  0  0
  8  9  1  0  0  0  0
  8 30  1  0  0  0  0
  8 31  1  0  0  0  0
  9 10  1  0  0  0  0
  9 20  1  0  0  0  0
  9 32  1  0  0  0  0
 10 11  1  0  0  0  0
 10 33  1  0  0  0  0
 11 12  2  0  0  0  0
 11 13  1  0  0  0  0
 13 14  1  0  0  0  0
 13 34  1  0  0  0  0
 14 19  1  0  0  0  0
 14 15  2  0  0  0  0
 15 16  1  0  0  0  0
 15 35  1  0  0  0  0
 16 17  2  0  0  0  0
 16 36  1  0  0  0  0
 17 18  1  0  0  0  0
 17 37  1  0  0  0  0
 18 19  2  0  0  0  0
 18 38  1  0  0  0  0
 20 21  1  0  0  0  0
 20 39  1  0  0  0  0
 20 40  1  0  0  0  0
 21 41  1  0  0  0  0
 21 42  1  0  0  0  0
M  CHG  1   6   1
M  END
> <s_m_source_file>
AV-unprocessed.smi

> <i_m_source_file_index>
1763

> <i_lp_mmshare_version>
43012

> <i_f3d_flags>
0

> <s_epik_input>
W0NIM11bTkhdQyg9TylbQ0gyXU4xW0NIMl1bQ0gyXVtDSF0oW0NIMl1bQ0gyXTEpW05IXUMoPU8pW05IXWMyW2NIXVtjSF1bY0hdW2NIXW4y

> <s_epik_cmdline>
J2VwaWtfcHl0aG9uJywgJy1waCcsICc3LjAnLCAnLXRuJywgJzgnLCAnLW1hJywgJzIwMCcsICctbWV0YWxfYmluZGluZycsICctaW1hZScsICc8aW5maWxlLm1hZT4nLCAnLW9tYWUnLCAnPG91dGZpbGUubWFlPic=

> <r_epik_Ionization_Penalty>
0.838902

> <r_epik_Ionization_Penalty_Charging>
0.838844

> <r_epik_Ionization_Penalty_Neutral>
5.81242e-05

> <r_epik_State_Penalty>
0.8734

> <r_epik_Charging_Adjusted_Penalty>
1.71224

> <i_epik_Tot_Q>
1

> <i_epik_Tot_abs_Q>
1

> <r_epik_Metal_State_Penalty>
0.877921

> <b_epik_Metal_Only>
0

> <s_lp_Force_Field>
OPLS_2005

> <r_lp_Energy>
15.2323

> <b_lp_Chiralities_Consistent>
1

> <s_lp_Variant>
AV-unprocessed.smi:1763-2

> <Gold.Version>
5.8.1

> <Gold.Id.Protein>
6NUR|6NUR_protein|mol2

> <Gold.PLP.Fitness>
46.6276

> <Gold.PLP.PLP>
-38.2576

> <Gold.PLP.part.hbond>
-2.9260

> <Gold.PLP.part.metal>
0.0000

> <Gold.PLP.part.buried>
-5.3322

> <Gold.PLP.part.nonpolar>
-31.7065

> <Gold.PLP.part.repulsive>
0.3244

> <Gold.PLP.ligand.clash>
0.0000

> <Gold.PLP.ligand.torsion>
0.3046

> <Gold.PLP.Chemscore.Hbond>
2.9840

> <Gold.PLP.Chemscore.CHOScore>
0.0000

> <Gold.PLP.Chemscore.Metal>
0.0000

> <Gold.Chemscore.Hbonds>
donor molecule, donor type, donor heavy atom, donor atom, acceptor molecule, acceptor atom, score
      L1  H     2    25       P1  7948  1.00
      L1  H    10    33       P1  8028  1.00
      L1  H    13    34       P1  8028  1.00

> <Gold.PLP.Chemscore.Internal.Correction>
0.0272

> <Gold.Rescore>
     Score         DG    S(hbond)    S(metal)    S(lipo)     H(rot)  DE(clash)    DE(int)     intcor
     18.41     -21.57       2.94        0.00      91.51       1.73       0.29       2.87       ----

> <Gold.Chemscore.Fitness>
18.4089

> <Gold.Chemscore.DG>
-21.5739

> <Gold.Chemscore.ZeroCoef>
-5.4800

> <Gold.Chemscore.Hbond>
2.9375

> <Gold.Chemscore.Metal>
0.0000

> <Gold.Chemscore.Lipo>
91.5070

> <Gold.Chemscore.Internal_Hbond>
0.0000

> <Gold.Chemscore.DEClash>
0.2908

> <Gold.Chemscore.DEInternal>
2.8742

> <Gold.Chemscore.Rot>
1.7280

> <Gold.Chemscore.Internal.Correction>
   9.000000E+99

> <Gold.Chemscore.Hbonds>
donor molecule, donor type, donor heavy atom, donor atom, acceptor molecule, acceptor atom, score
      L1  H     2    25       P1  7948  0.98
      L1  H    10    33       P1  8028  0.98
      L1  H    13    34       P1  8028  0.91

> <Gold.Chemscore.Hbond.Weighted>
-9.8113

> <Gold.Chemscore.Metal.Weighted>
-0.0000

> <Gold.Chemscore.Lipo.Weighted>
-10.7063

> <Gold.Chemscore.Internal_Hbond.Weighted>
0.0000

> <Gold.Chemscore.DEClash.Weighted>
0.2908

> <Gold.Chemscore.DEInternal.Weighted>
2.8742

> <Gold.Chemscore.Rot.Weighted>
4.4237

> <Gold.Chemscore.Internal.Correction.Weighted>
   9.000000E+99

> <Gold.Protein.RotatedTorsions>
[ 6907 6896 6895 6894 ] final -113.35 input  -60.11 | X-H torsion
[ 7974 7965 7964 7962 ] final  177.15 input  175.53 | X-H torsion
[ 8008 7997 7996 7995 ] final   15.78 input   59.86 | X-H torsion
[ 10167 10162 10161 10158 ] final  -81.03 input  -65.29 | X-H torsion
[ 10718 10713 10712 10709 ] final   80.32 input   66.30 | X-H torsion
[ 10763 10752 10751 10750 ] final  110.77 input  -60.55 | X-H torsion
[ 11005 11000 10999 10996 ] final   77.01 input  -57.11 | X-H torsion

> <Gold.Protein.ActiveResidues>
 VAL166  LYS551  ARG553  GLY616  TRP617  ASP618  TYR619  PRO620  LYS621  CYS622 
 ASP623  PHE694  ASN695  SER759  ASP760  ASP761  ALA762  ILE779  LEU786  VAL792 
 PHE793  MET794  SER795  GLU796  ALA797  LYS798  CYS799  TRP800  GLU811  SER814 

> <Gold.Protein.RotatedAtoms>
  150.7823  133.8957  159.3326 H   0  0  0  0  0  0  0  0  0  0  0  0  # atno 6907 bound_to 6896
  151.6817  135.0959  160.0226 H   0  0  0  0  0  0  0  0  0  0  0  0  # atno 6908 bound_to 6896
  152.3877  133.6596  159.6248 H   0  0  0  0  0  0  0  0  0  0  0  0  # atno 6909 bound_to 6896
  144.7173  140.0204  143.6440 H   0  0  0  0  0  0  0  0  0  0  0  0  # atno 7974 bound_to 7965
  154.8675  140.2953  155.5501 H   0  0  0  0  0  0  0  0  0  0  0  0  # atno 8008 bound_to 7997
  156.3021  140.2466  156.3592 H   0  0  0  0  0  0  0  0  0  0  0  0  # atno 8009 bound_to 7997
  154.8852  140.0396  157.1795 H   0  0  0  0  0  0  0  0  0  0  0  0  # atno 8010 bound_to 7997
  140.4449  143.2502  151.8572 H   0  0  0  0  0  0  0  0  0  0  0  0  # atno 10167 bound_to 10162
  157.6802  130.9954  150.2062 H   0  0  0  0  0  0  0  0  0  0  0  0  # atno 10718 bound_to 10713
  153.4537  135.3738  155.2298 H   0  0  0  0  0  0  0  0  0  0  0  0  # atno 10763 bound_to 10752
  154.8756  135.3892  154.4008 H   0  0  0  0  0  0  0  0  0  0  0  0  # atno 10764 bound_to 10752
  153.4571  135.7086  153.6137 H   0  0  0  0  0  0  0  0  0  0  0  0  # atno 10765 bound_to 10752
  139.9273  134.7648  156.1468 H   0  0  0  0  0  0  0  0  0  0  0  0  # atno 11005 bound_to 11000
  146.0185  139.3231  143.0827 LP  0  0  0  0  0  0  0  0  0  0  0  0  # atno 17320 bound_to 7965
  145.8596  140.9482  143.0707 LP  0  0  0  0  0  0  0  0  0  0  0  0  # atno 17321 bound_to 7965
  139.4792  144.5186  151.8833 LP  0  0  0  0  0  0  0  0  0  0  0  0  # atno 17342 bound_to 10162
  140.4275  144.2161  150.5887 LP  0  0  0  0  0  0  0  0  0  0  0  0  # atno 17343 bound_to 10162
  156.2742  130.3725  149.8000 LP  0  0  0  0  0  0  0  0  0  0  0  0  # atno 17370 bound_to 10713
  156.5708  130.8424  151.3356 LP  0  0  0  0  0  0  0  0  0  0  0  0  # atno 17371 bound_to 10713
  141.0839  133.6742  156.2395 LP  0  0  0  0  0  0  0  0  0  0  0  0  # atno 17394 bound_to 11000
  140.6300  134.5273  157.5558 LP  0  0  0  0  0  0  0  0  0  0  0  0  # atno 17395 bound_to 11000

$$$$
