AV-unprocessed.smi:153|AV-procd|sdf|1261|dock2
  -GOLD-   2262018503D 1   1.00000     0.00000
 Structure written by MMmdl.
 59 62  0  0  0  0  0  0  0  0  1 V2000
  150.4072  140.4102  157.8116 C   0  0  0  0  0  0  0  0  0  0  0  0
  151.4774  139.5187  158.4607 C   0  0  1  0  0  0  0  0  0  0  0  0
  150.7998  138.5746  159.2869 O   0  0  0  0  0  0  0  0  0  0  0  0
  151.5359  137.3646  159.3053 C   0  0  0  0  0  0  0  0  0  0  0  0
  152.0013  137.2431  157.8626 C   0  0  0  0  0  0  0  0  0  0  0  0
  152.3659  138.6795  157.4989 C   0  0  2  0  0  0  0  0  0  0  0  0
  153.7186  138.8892  157.8698 O   0  0  0  0  0  0  0  0  0  0  0  0
  152.2345  138.9952  155.9855 C   0  0  0  0  0  0  0  0  0  0  0  0
  150.9451  138.6174  155.4259 N   0  0  0  0  0  0  0  0  0  0  0  0
  150.4883  137.3398  155.2031 C   0  0  0  0  0  0  0  0  0  0  0  0
  149.2891  137.2617  154.6970 N   0  0  0  0  0  0  0  0  0  0  0  0
  148.8816  138.5846  154.5492 C   0  0  0  0  0  0  0  0  0  0  0  0
  147.6972  139.2258  154.0665 C   0  0  0  0  0  0  0  0  0  0  0  0
  146.5828  138.5739  153.6172 N   0  0  0  0  0  0  0  0  0  0  0  0
  145.5427  138.2090  154.5718 C   0  0  0  0  0  0  0  0  0  0  0  0
  146.1927  138.6767  152.2088 C   0  0  0  0  0  0  0  0  0  0  0  0
  146.1602  137.3038  151.4997 C   0  0  2  0  0  0  0  0  0  0  0  0
  146.0753  137.5255  150.1063 O   0  0  0  0  0  0  0  0  0  0  0  0
  144.9255  136.4773  151.9190 C   0  0  0  0  0  0  0  0  0  0  0  0
  144.9103  135.0877  151.4583 N   0  0  0  0  0  0  0  0  0  0  0  0
  146.2281  134.4784  151.6065 C   0  0  0  0  0  0  0  0  0  0  0  0
  146.2484  133.0186  151.1208 C   0  0  0  0  0  0  0  0  0  0  0  0
  145.8228  132.9635  149.7635 O   0  0  0  0  0  0  0  0  0  0  0  0
  144.5198  133.5052  149.5770 C   0  0  0  0  0  0  0  0  0  0  0  0
  144.4919  134.9654  150.0613 C   0  0  0  0  0  0  0  0  0  0  0  0
  147.7024  140.5875  154.0634 N   0  0  0  0  0  0  0  0  0  0  0  0
  148.7574  141.2753  154.5052 C   0  0  0  0  0  0  0  0  0  0  0  0
  149.9081  140.8112  154.9888 N   0  0  0  0  0  0  0  0  0  0  0  0
  149.9266  139.4486  154.9926 C   0  0  0  0  0  0  0  0  0  0  0  0
  150.8547  141.1674  157.1678 H   0  0  0  0  0  0  0  0  0  0  0  0
  149.8297  140.9326  158.5745 H   0  0  0  0  0  0  0  0  0  0  0  0
  149.7059  139.8250  157.2165 H   0  0  0  0  0  0  0  0  0  0  0  0
  152.0982  140.1416  159.1076 H   0  0  0  0  0  0  0  0  0  0  0  0
  152.3821  137.4557  159.9878 H   0  0  0  0  0  0  0  0  0  0  0  0
  150.9205  136.5230  159.6232 H   0  0  0  0  0  0  0  0  0  0  0  0
  152.8168  136.5305  157.7307 H   0  0  0  0  0  0  0  0  0  0  0  0
  151.1616  136.9038  157.2553 H   0  0  0  0  0  0  0  0  0  0  0  0
  154.1506  138.0500  157.9112 H   0  0  0  0  0  0  0  0  0  0  0  0
  152.3763  140.0605  155.8021 H   0  0  0  0  0  0  0  0  0  0  0  0
  153.0122  138.4789  155.4213 H   0  0  0  0  0  0  0  0  0  0  0  0
  151.0739  136.4617  155.4355 H   0  0  0  0  0  0  0  0  0  0  0  0
  145.8544  137.3517  155.1683 H   0  0  0  0  0  0  0  0  0  0  0  0
  144.6198  137.9343  154.0604 H   0  0  0  0  0  0  0  0  0  0  0  0
  145.3140  139.0412  155.2384 H   0  0  0  0  0  0  0  0  0  0  0  0
  145.2182  139.1630  152.1510 H   0  0  0  0  0  0  0  0  0  0  0  0
  146.8679  139.3604  151.6924 H   0  0  0  0  0  0  0  0  0  0  0  0
  147.0807  136.7606  151.7083 H   0  0  0  0  0  0  0  0  0  0  0  0
  145.1732  137.6978  149.8844 H   0  0  0  0  0  0  0  0  0  0  0  0
  144.8472  136.4765  153.0073 H   0  0  0  0  0  0  0  0  0  0  0  0
  144.0314  136.9932  151.5655 H   0  0  0  0  0  0  0  0  0  0  0  0
  146.9670  135.0538  151.0463 H   0  0  0  0  0  0  0  0  0  0  0  0
  146.5350  134.5118  152.6525 H   0  0  0  0  0  0  0  0  0  0  0  0
  147.2551  132.6074  151.1958 H   0  0  0  0  0  0  0  0  0  0  0  0
  145.6002  132.3957  151.7389 H   0  0  0  0  0  0  0  0  0  0  0  0
  144.2593  133.4515  148.5200 H   0  0  0  0  0  0  0  0  0  0  0  0
  143.7875  132.9048  150.1188 H   0  0  0  0  0  0  0  0  0  0  0  0
  143.4838  135.3528  149.9244 H   0  0  0  0  0  0  0  0  0  0  0  0
  145.1442  135.5662  149.4255 H   0  0  0  0  0  0  0  0  0  0  0  0
  148.6646  142.3508  154.4667 H   0  0  0  0  0  0  0  0  0  0  0  0
  1  2  1  0  0  0  0
  1 30  1  0  0  0  0
  1 31  1  0  0  0  0
  1 32  1  0  0  0  0
  2  6  1  0  0  0  0
  2  3  1  0  0  0  0
  2 33  1  0  0  0  0
  3  4  1  0  0  0  0
  4  5  1  0  0  0  0
  4 34  1  0  0  0  0
  4 35  1  0  0  0  0
  5  6  1  0  0  0  0
  5 36  1  0  0  0  0
  5 37  1  0  0  0  0
  6  7  1  0  0  0  0
  6  8  1  0  0  0  0
  7 38  1  0  0  0  0
  8  9  1  0  0  0  0
  8 39  1  0  0  0  0
  8 40  1  0  0  0  0
  9 29  1  0  0  0  0
  9 10  1  0  0  0  0
 10 11  2  0  0  0  0
 10 41  1  0  0  0  0
 11 12  1  0  0  0  0
 12 29  2  0  0  0  0
 12 13  1  0  0  0  0
 13 14  1  0  0  0  0
 13 26  2  0  0  0  0
 14 15  1  0  0  0  0
 14 16  1  0  0  0  0
 15 42  1  0  0  0  0
 15 43  1  0  0  0  0
 15 44  1  0  0  0  0
 16 17  1  0  0  0  0
 16 45  1  0  0  0  0
 16 46  1  0  0  0  0
 17 18  1  0  0  0  0
 17 19  1  0  0  0  0
 17 47  1  0  0  0  0
 18 48  1  0  0  0  0
 19 20  1  0  0  0  0
 19 49  1  0  0  0  0
 19 50  1  0  0  0  0
 20 25  1  0  0  0  0
 20 21  1  0  0  0  0
 21 22  1  0  0  0  0
 21 51  1  0  0  0  0
 21 52  1  0  0  0  0
 22 23  1  0  0  0  0
 22 53  1  0  0  0  0
 22 54  1  0  0  0  0
 23 24  1  0  0  0  0
 24 25  1  0  0  0  0
 24 55  1  0  0  0  0
 24 56  1  0  0  0  0
 25 57  1  0  0  0  0
 25 58  1  0  0  0  0
 26 27  1  0  0  0  0
 27 28  2  0  0  0  0
 27 59  1  0  0  0  0
 28 29  1  0  0  0  0
M  END
> <s_m_source_file>
AV-unprocessed.smi

> <i_m_source_file_index>
153

> <i_lp_mmshare_version>
43012

> <i_f3d_flags>
0

> <s_epik_input>
W0NIMl0xW0NIMl1PW0NAQEhdKFtDSDNdKVtDQEBdMShbT0hdKVtDSDJdbihbY0hdbjIpYyhjMjMpbltjSF1uYzNOKFtDSDNdKVtDSDJdW0NASF0oW09IXSlbQ0gyXU40W0NIMl1bQ0gyXU9bQ0gyXVtDSDJdNA==

> <s_epik_cmdline>
J2VwaWtfcHl0aG9uJywgJy1waCcsICc3LjAnLCAnLXRuJywgJzgnLCAnLW1hJywgJzIwMCcsICctbWV0YWxfYmluZGluZycsICctaW1hZScsICc8aW5maWxlLm1hZT4nLCAnLW9tYWUnLCAnPG91dGZpbGUubWFlPic=

> <r_lp_tautomer_probability>
1

> <r_epik_Ionization_Penalty>
0.424123

> <r_epik_Ionization_Penalty_Charging>
0

> <r_epik_Ionization_Penalty_Neutral>
0.424123

> <r_epik_State_Penalty>
0.421495

> <r_epik_Charging_Adjusted_Penalty>
0.421495

> <i_epik_Tot_Q>
0

> <i_epik_Tot_abs_Q>
0

> <r_epik_Metal_State_Penalty>
0.421223

> <b_epik_Metal_Only>
0

> <s_lp_Force_Field>
OPLS_2005

> <r_lp_Energy>
56.2601

> <b_lp_Chiralities_Consistent>
1

> <s_lp_Variant>
AV-unprocessed.smi:153-12

> <Gold.Version>
5.8.1

> <Gold.Id.Protein>
6NUR|6NUR_protein|mol2

> <Gold.PLP.Fitness>
50.9630

> <Gold.PLP.PLP>
-42.2792

> <Gold.PLP.part.hbond>
-4.5878

> <Gold.PLP.part.metal>
0.0000

> <Gold.PLP.part.buried>
-2.2227

> <Gold.PLP.part.nonpolar>
-36.6126

> <Gold.PLP.part.repulsive>
0.7072

> <Gold.PLP.ligand.clash>
0.0000

> <Gold.PLP.ligand.torsion>
1.9952

> <Gold.PLP.Chemscore.Hbond>
3.5048

> <Gold.PLP.Chemscore.CHOScore>
0.4925

> <Gold.PLP.Chemscore.Metal>
0.0000

> <Gold.Chemscore.Hbonds>
donor molecule, donor type, donor heavy atom, donor atom, acceptor molecule, acceptor atom, score
      L1  H    18    48       P1 10171  1.00
      P1  H  7954  7966       L1    18  0.40
      P1  H  7989  7998       L1    28  0.19
      P1  H  7997  8010       L1     7  1.00
      L1  C    27    59       P1  8028  0.73

> <Gold.PLP.Chemscore.Internal.Correction>
0.6823

> <Gold.Rescore>
     Score         DG    S(hbond)    S(metal)    S(lipo)     H(rot)  DE(clash)    DE(int)     intcor
     10.21     -14.01       2.55        0.00      76.94       3.52       0.31       3.49       ----

> <Gold.Chemscore.Fitness>
10.2094

> <Gold.Chemscore.DG>
-14.0087

> <Gold.Chemscore.ZeroCoef>
-5.4800

> <Gold.Chemscore.Hbond>
2.5541

> <Gold.Chemscore.Metal>
0.0000

> <Gold.Chemscore.Lipo>
76.9358

> <Gold.Chemscore.Internal_Hbond>
0.0000

> <Gold.Chemscore.DEClash>
0.3093

> <Gold.Chemscore.DEInternal>
3.4900

> <Gold.Chemscore.Rot>
3.5170

> <Gold.Chemscore.Internal.Correction>
   9.000000E+99

> <Gold.Chemscore.Hbonds>
donor molecule, donor type, donor heavy atom, donor atom, acceptor molecule, acceptor atom, score
      L1  H    18    48       P1 10171  0.94
      P1  H  7954  7966       L1    18  0.05
      P1  H  7989  7998       L1    28  0.01
      P1  H  7997  8010       L1     7  0.59

> <Gold.Chemscore.Hbond.Weighted>
-8.5308

> <Gold.Chemscore.Metal.Weighted>
-0.0000

> <Gold.Chemscore.Lipo.Weighted>
-9.0015

> <Gold.Chemscore.Internal_Hbond.Weighted>
0.0000

> <Gold.Chemscore.DEClash.Weighted>
0.3093

> <Gold.Chemscore.DEInternal.Weighted>
3.4900

> <Gold.Chemscore.Rot.Weighted>
9.0036

> <Gold.Chemscore.Internal.Correction.Weighted>
   9.000000E+99

> <Gold.Protein.RotatedTorsions>
[ 6907 6896 6895 6894 ] final  -60.56 input  -60.11 | X-H torsion
[ 7974 7965 7964 7962 ] final   52.13 input  175.53 | X-H torsion
[ 8008 7997 7996 7995 ] final   16.51 input   59.86 | X-H torsion
[ 10167 10162 10161 10158 ] final  121.24 input  -65.29 | X-H torsion
[ 10718 10713 10712 10709 ] final -163.81 input   66.30 | X-H torsion
[ 10763 10752 10751 10750 ] final -169.75 input  -60.55 | X-H torsion
[ 11005 11000 10999 10996 ] final  135.33 input  -57.11 | X-H torsion

> <Gold.Protein.ActiveResidues>
 VAL166  LYS551  ARG553  GLY616  TRP617  ASP618  TYR619  PRO620  LYS621  CYS622 
 ASP623  PHE694  ASN695  SER759  ASP760  ASP761  ALA762  ILE779  LEU786  VAL792 
 PHE793  MET794  SER795  GLU796  ALA797  LYS798  CYS799  TRP800  GLU811  SER814 

> <Gold.Protein.RotatedAtoms>
  150.7847  134.6820  159.6449 H   0  0  0  0  0  0  0  0  0  0  0  0  # atno 6907 bound_to 6896
  152.3940  134.6392  160.0105 H   0  0  0  0  0  0  0  0  0  0  0  0  # atno 6908 bound_to 6896
  151.6683  133.3278  159.3227 H   0  0  0  0  0  0  0  0  0  0  0  0  # atno 6909 bound_to 6896
  145.9845  139.4275  143.0112 H   0  0  0  0  0  0  0  0  0  0  0  0  # atno 7974 bound_to 7965
  154.8780  140.2969  155.5442 H   0  0  0  0  0  0  0  0  0  0  0  0  # atno 8008 bound_to 7997
  156.3022  140.2447  156.3713 H   0  0  0  0  0  0  0  0  0  0  0  0  # atno 8009 bound_to 7997
  154.8746  140.0400  157.1735 H   0  0  0  0  0  0  0  0  0  0  0  0  # atno 8010 bound_to 7997
  139.5932  144.7032  151.3239 H   0  0  0  0  0  0  0  0  0  0  0  0  # atno 10167 bound_to 10162
  156.6300  130.8926  151.2975 H   0  0  0  0  0  0  0  0  0  0  0  0  # atno 10718 bound_to 10713
  154.6489  135.2908  155.0011 H   0  0  0  0  0  0  0  0  0  0  0  0  # atno 10763 bound_to 10752
  154.1111  135.6562  153.4889 H   0  0  0  0  0  0  0  0  0  0  0  0  # atno 10764 bound_to 10752
  153.0366  135.5265  154.7389 H   0  0  0  0  0  0  0  0  0  0  0  0  # atno 10765 bound_to 10752
  139.9973  134.9492  156.9992 H   0  0  0  0  0  0  0  0  0  0  0  0  # atno 11005 bound_to 11000
  145.7721  140.9892  143.1144 LP  0  0  0  0  0  0  0  0  0  0  0  0  # atno 17320 bound_to 7965
  144.6870  139.9460  143.7476 LP  0  0  0  0  0  0  0  0  0  0  0  0  # atno 17321 bound_to 7965
  140.7190  143.7187  150.7713 LP  0  0  0  0  0  0  0  0  0  0  0  0  # atno 17342 bound_to 10162
  140.0747  143.5026  152.2561 LP  0  0  0  0  0  0  0  0  0  0  0  0  # atno 17343 bound_to 10162
  157.7202  130.9549  150.1411 LP  0  0  0  0  0  0  0  0  0  0  0  0  # atno 17370 bound_to 10713
  156.2242  130.3676  149.8520 LP  0  0  0  0  0  0  0  0  0  0  0  0  # atno 17371 bound_to 10713
  140.4795  134.1304  155.7214 LP  0  0  0  0  0  0  0  0  0  0  0  0  # atno 17394 bound_to 11000
  141.1614  133.8785  157.1837 LP  0  0  0  0  0  0  0  0  0  0  0  0  # atno 17395 bound_to 11000

$$$$
