AV-unprocessed.smi:2668|AV-procd|sdf|10339|dock7
  -GOLD-   2272014363D 1   1.00000     0.00000
 Structure written by MMmdl.
 54 55  0  0  0  0  0  0  0  0  3 V2000
  143.1476  133.9901  151.8119 C   0  0  0  0  0  0  0  0  0  0  0  0
  144.2935  133.1208  151.4451 N   0  3  0  0  0  0  0  0  0  0  0  0
  143.8441  132.0436  150.5283 C   0  0  0  0  0  0  0  0  0  0  0  0
  145.4877  133.8778  150.9440 C   0  0  2  0  0  0  0  0  0  0  0  0
  146.8327  133.1909  151.2687 C   0  0  0  0  0  0  0  0  0  0  0  0
  147.1488  133.2089  152.7761 C   0  0  0  0  0  0  0  0  0  0  0  0
  147.1781  134.6028  153.3150 N   0  3  2  0  0  0  0  0  0  0  0  0
  147.6663  134.7442  154.7366 C   0  0  0  0  0  0  0  0  0  0  0  0
  148.9471  133.9132  154.9840 C   0  0  0  0  0  0  0  0  0  0  0  0
  147.9995  136.2229  155.0566 C   0  0  0  0  0  0  0  0  0  0  0  0
  146.5771  134.2797  155.7506 C   0  0  0  0  0  0  0  0  0  0  0  0
  146.9545  134.4628  157.1533 N   0  0  0  0  0  0  0  0  0  0  0  0
  146.5581  135.4721  157.9420 C   0  0  0  0  0  0  0  0  0  0  0  0
  145.7922  136.3607  157.5721 O   0  0  0  0  0  0  0  0  0  0  0  0
  147.1178  135.3845  159.1607 N   0  0  0  0  0  0  0  0  0  0  0  0
  146.9368  136.2433  160.2784 C   0  0  0  0  0  0  0  0  0  0  0  0
  146.8244  135.6532  161.5545 C   0  0  0  0  0  0  0  0  0  0  0  0
  146.6265  136.4784  162.6778 C   0  0  0  0  0  0  0  0  0  0  0  0
  146.5390  137.8698  162.4792 C   0  0  0  0  0  0  0  0  0  0  0  0
  146.6283  138.4503  161.2641 N   0  0  0  0  0  0  0  0  0  0  0  0
  146.8208  137.6533  160.1910 C   0  0  0  0  0  0  0  0  0  0  0  0
  145.8983  135.3134  153.0160 C   0  0  0  0  0  0  0  0  0  0  0  0
  145.5906  135.3122  151.5082 C   0  0  0  0  0  0  0  0  0  0  0  0
  142.8600  134.6331  150.9791 H   0  0  0  0  0  0  0  0  0  0  0  0
  143.3741  134.6151  152.6744 H   0  0  0  0  0  0  0  0  0  0  0  0
  142.2778  133.3944  152.0917 H   0  0  0  0  0  0  0  0  0  0  0  0
  143.6412  132.4363  149.5310 H   0  0  0  0  0  0  0  0  0  0  0  0
  142.9317  131.5724  150.8957 H   0  0  0  0  0  0  0  0  0  0  0  0
  144.5822  131.2472  150.4468 H   0  0  0  0  0  0  0  0  0  0  0  0
  145.3913  133.9446  149.8592 H   0  0  0  0  0  0  0  0  0  0  0  0
  146.8786  132.1749  150.8800 H   0  0  0  0  0  0  0  0  0  0  0  0
  147.6306  133.7195  150.7447 H   0  0  0  0  0  0  0  0  0  0  0  0
  146.4157  132.6110  153.3175 H   0  0  0  0  0  0  0  0  0  0  0  0
  148.1117  132.7175  152.9001 H   0  0  0  0  0  0  0  0  0  0  0  0
  149.3057  134.0497  156.0051 H   0  0  0  0  0  0  0  0  0  0  0  0
  149.7619  134.2057  154.3218 H   0  0  0  0  0  0  0  0  0  0  0  0
  148.7807  132.8442  154.8530 H   0  0  0  0  0  0  0  0  0  0  0  0
  148.1635  136.3698  156.1249 H   0  0  0  0  0  0  0  0  0  0  0  0
  147.1953  136.8952  154.7562 H   0  0  0  0  0  0  0  0  0  0  0  0
  148.9137  136.5575  154.5663 H   0  0  0  0  0  0  0  0  0  0  0  0
  145.6502  134.8317  155.5958 H   0  0  0  0  0  0  0  0  0  0  0  0
  146.3014  133.2397  155.5659 H   0  0  0  0  0  0  0  0  0  0  0  0
  147.6023  133.7923  157.5406 H   0  0  0  0  0  0  0  0  0  0  0  0
  147.7982  134.6498  159.2880 H   0  0  0  0  0  0  0  0  0  0  0  0
  146.8934  134.5819  161.6753 H   0  0  0  0  0  0  0  0  0  0  0  0
  146.5434  136.0552  163.6680 H   0  0  0  0  0  0  0  0  0  0  0  0
  146.3873  138.5332  163.3177 H   0  0  0  0  0  0  0  0  0  0  0  0
  146.8585  138.1736  159.2468 H   0  0  0  0  0  0  0  0  0  0  0  0
  145.0739  134.8479  153.5562 H   0  0  0  0  0  0  0  0  0  0  0  0
  145.9394  136.3509  153.3410 H   0  0  0  0  0  0  0  0  0  0  0  0
  146.3941  135.8388  150.9904 H   0  0  0  0  0  0  0  0  0  0  0  0
  144.6984  135.9002  151.2982 H   0  0  0  0  0  0  0  0  0  0  0  0
  144.5744  132.6590  152.2983 H   0  0  0  0  0  0  0  0  0  0  0  0
  147.8808  135.0771  152.7655 H   0  0  0  0  0  0  0  0  0  0  0  0
  1  2  1  0  0  0  0
  1 24  1  0  0  0  0
  1 25  1  0  0  0  0
  1 26  1  0  0  0  0
  2  3  1  0  0  0  0
  2  4  1  0  0  0  0
  2 53  1  0  0  0  0
  3 27  1  0  0  0  0
  3 28  1  0  0  0  0
  3 29  1  0  0  0  0
  4 23  1  0  0  0  0
  4  5  1  0  0  0  0
  4 30  1  0  0  0  0
  5  6  1  0  0  0  0
  5 31  1  0  0  0  0
  5 32  1  0  0  0  0
  6  7  1  0  0  0  0
  6 33  1  0  0  0  0
  6 34  1  0  0  0  0
  7  8  1  0  0  0  0
  7 22  1  0  0  0  0
  7 54  1  0  0  0  0
  8  9  1  0  0  0  0
  8 10  1  0  0  0  0
  8 11  1  0  0  0  0
  9 35  1  0  0  0  0
  9 36  1  0  0  0  0
  9 37  1  0  0  0  0
 10 38  1  0  0  0  0
 10 39  1  0  0  0  0
 10 40  1  0  0  0  0
 11 12  1  0  0  0  0
 11 41  1  0  0  0  0
 11 42  1  0  0  0  0
 12 13  1  0  0  0  0
 12 43  1  0  0  0  0
 13 14  2  0  0  0  0
 13 15  1  0  0  0  0
 15 16  1  0  0  0  0
 15 44  1  0  0  0  0
 16 21  1  0  0  0  0
 16 17  2  0  0  0  0
 17 18  1  0  0  0  0
 17 45  1  0  0  0  0
 18 19  2  0  0  0  0
 18 46  1  0  0  0  0
 19 20  1  0  0  0  0
 19 47  1  0  0  0  0
 20 21  2  0  0  0  0
 21 48  1  0  0  0  0
 22 23  1  0  0  0  0
 22 49  1  0  0  0  0
 22 50  1  0  0  0  0
 23 51  1  0  0  0  0
 23 52  1  0  0  0  0
M  CHG  1   2   1
M  CHG  1   7   1
M  END
> <s_m_source_file>
AV-unprocessed.smi

> <i_m_source_file_index>
2668

> <i_lp_mmshare_version>
43012

> <i_f3d_flags>
0

> <s_epik_input>
W0NIM11OKFtDSDNdKVtDSF0xW0NIMl1bQ0gyXU4oW0NIMl1bQ0gyXTEpQyhbQ0gzXSkoW0NIM10pW0NIMl1bTkhdQyg9TylbTkhdYzJbY0hdW2NIXVtjSF1uW2NIXTI=

> <s_epik_cmdline>
J2VwaWtfcHl0aG9uJywgJy1waCcsICc3LjAnLCAnLXRuJywgJzgnLCAnLW1hJywgJzIwMCcsICctbWV0YWxfYmluZGluZycsICctaW1hZScsICc8aW5maWxlLm1hZT4nLCAnLW9tYWUnLCAnPG91dGZpbGUubWFlPic=

> <r_epik_Ionization_Penalty>
0.210461

> <r_epik_Ionization_Penalty_Charging>
0.206231

> <r_epik_Ionization_Penalty_Neutral>
0.00422959

> <r_epik_State_Penalty>
0.176025

> <r_epik_Charging_Adjusted_Penalty>
0.382256

> <i_epik_Tot_Q>
2

> <i_epik_Tot_abs_Q>
2

> <r_epik_Metal_State_Penalty>
0.176152

> <b_epik_Metal_Only>
0

> <s_lp_Force_Field>
OPLS_2005

> <r_lp_Energy>
56.664

> <b_lp_Chiralities_Consistent>
1

> <s_lp_Variant>
AV-unprocessed.smi:2668-2

> <Gold.Version>
5.8.1

> <Gold.Id.Protein>
6NUR|6NUR_protein|mol2

> <Gold.PLP.Fitness>
47.9480

> <Gold.PLP.PLP>
-39.2557

> <Gold.PLP.part.hbond>
-3.0000

> <Gold.PLP.part.metal>
0.0000

> <Gold.PLP.part.buried>
-5.9258

> <Gold.PLP.part.nonpolar>
-30.5992

> <Gold.PLP.part.repulsive>
0.0596

> <Gold.PLP.ligand.clash>
0.0000

> <Gold.PLP.ligand.torsion>
1.3039

> <Gold.PLP.Chemscore.Hbond>
3.7176

> <Gold.PLP.Chemscore.CHOScore>
0.0000

> <Gold.PLP.Chemscore.Metal>
0.0000

> <Gold.Chemscore.Hbonds>
donor molecule, donor type, donor heavy atom, donor atom, acceptor molecule, acceptor atom, score
      L1  H     7    54       P1  7948  2.00

> <Gold.PLP.Chemscore.Internal.Correction>
0.1473

> <Gold.Rescore>
     Score         DG    S(hbond)    S(metal)    S(lipo)     H(rot)  DE(clash)    DE(int)     intcor
     16.75     -17.95       1.84        0.00      91.11       1.69       0.08       1.12       ----

> <Gold.Chemscore.Fitness>
16.7507

> <Gold.Chemscore.DG>
-17.9515

> <Gold.Chemscore.ZeroCoef>
-5.4800

> <Gold.Chemscore.Hbond>
1.8358

> <Gold.Chemscore.Metal>
0.0000

> <Gold.Chemscore.Lipo>
91.1140

> <Gold.Chemscore.Internal_Hbond>
0.0000

> <Gold.Chemscore.DEClash>
0.0810

> <Gold.Chemscore.DEInternal>
1.1198

> <Gold.Chemscore.Rot>
1.6877

> <Gold.Chemscore.Internal.Correction>
   9.000000E+99

> <Gold.Chemscore.Hbonds>
donor molecule, donor type, donor heavy atom, donor atom, acceptor molecule, acceptor atom, score
      L1  H     7    54       P1  7948  0.98

> <Gold.Chemscore.Hbond.Weighted>
-6.1317

> <Gold.Chemscore.Metal.Weighted>
-0.0000

> <Gold.Chemscore.Lipo.Weighted>
-10.6603

> <Gold.Chemscore.Internal_Hbond.Weighted>
0.0000

> <Gold.Chemscore.DEClash.Weighted>
0.0810

> <Gold.Chemscore.DEInternal.Weighted>
1.1198

> <Gold.Chemscore.Rot.Weighted>
4.3205

> <Gold.Chemscore.Internal.Correction.Weighted>
   9.000000E+99

> <Gold.Protein.RotatedTorsions>
[ 6907 6896 6895 6894 ] final  169.26 input  -60.11 | X-H torsion
[ 7974 7965 7964 7962 ] final   65.42 input  175.53 | X-H torsion
[ 8008 7997 7996 7995 ] final   89.37 input   59.86 | X-H torsion
[ 10167 10162 10161 10158 ] final  -82.12 input  -65.29 | X-H torsion
[ 10718 10713 10712 10709 ] final -133.60 input   66.30 | X-H torsion
[ 10763 10752 10751 10750 ] final  -48.54 input  -60.55 | X-H torsion
[ 11005 11000 10999 10996 ] final    3.04 input  -57.11 | X-H torsion

> <Gold.Protein.ActiveResidues>
 VAL166  LYS551  ARG553  GLY616  TRP617  ASP618  TYR619  PRO620  LYS621  CYS622 
 ASP623  PHE694  ASN695  SER759  ASP760  ASP761  ALA762  ILE779  LEU786  VAL792 
 PHE793  MET794  SER795  GLU796  ALA797  LYS798  CYS799  TRP800  GLU811  SER814 

> <Gold.Protein.RotatedAtoms>
  151.8346  133.3414  159.3623 H   0  0  0  0  0  0  0  0  0  0  0  0  # atno 6907 bound_to 6896
  150.7253  134.5450  159.5775 H   0  0  0  0  0  0  0  0  0  0  0  0  # atno 6908 bound_to 6896
  152.2910  134.7722  160.0429 H   0  0  0  0  0  0  0  0  0  0  0  0  # atno 6909 bound_to 6896
  145.8386  139.3182  143.0945 H   0  0  0  0  0  0  0  0  0  0  0  0  # atno 7974 bound_to 7965
  155.9991  140.3361  155.6827 H   0  0  0  0  0  0  0  0  0  0  0  0  # atno 8008 bound_to 7997
  155.6315  140.0685  157.2665 H   0  0  0  0  0  0  0  0  0  0  0  0  # atno 8009 bound_to 7997
  154.4243  140.1759  156.1465 H   0  0  0  0  0  0  0  0  0  0  0  0  # atno 8010 bound_to 7997
  140.4349  143.2535  151.8707 H   0  0  0  0  0  0  0  0  0  0  0  0  # atno 10167 bound_to 10162
  156.2467  130.7128  151.1011 H   0  0  0  0  0  0  0  0  0  0  0  0  # atno 10718 bound_to 10713
  154.0795  135.6593  153.4836 H   0  0  0  0  0  0  0  0  0  0  0  0  # atno 10763 bound_to 10752
  153.0361  135.5176  154.7488 H   0  0  0  0  0  0  0  0  0  0  0  0  # atno 10764 bound_to 10752
  154.6578  135.3010  154.9873 H   0  0  0  0  0  0  0  0  0  0  0  0  # atno 10765 bound_to 10752
  140.5976  133.9866  155.8117 H   0  0  0  0  0  0  0  0  0  0  0  0  # atno 11005 bound_to 11000
  145.9490  140.8922  143.0268 LP  0  0  0  0  0  0  0  0  0  0  0  0  # atno 17320 bound_to 7965
  144.6735  140.1654  143.7419 LP  0  0  0  0  0  0  0  0  0  0  0  0  # atno 17321 bound_to 7965
  139.4786  144.5294  151.8689 LP  0  0  0  0  0  0  0  0  0  0  0  0  # atno 17342 bound_to 10162
  140.4385  144.2019  150.5890 LP  0  0  0  0  0  0  0  0  0  0  0  0  # atno 17343 bound_to 10162
  157.7198  131.0688  150.6183 LP  0  0  0  0  0  0  0  0  0  0  0  0  # atno 17370 bound_to 10713
  156.6260  130.4419  149.5804 LP  0  0  0  0  0  0  0  0  0  0  0  0  # atno 17371 bound_to 10713
  141.0894  133.9941  157.3262 LP  0  0  0  0  0  0  0  0  0  0  0  0  # atno 17394 bound_to 11000
  139.9246  135.0201  156.8190 LP  0  0  0  0  0  0  0  0  0  0  0  0  # atno 17395 bound_to 11000

$$$$
