AV-unprocessed.smi:1045|AV-procd|sdf|4544|dock7
  -GOLD-   22720 2573D 1   1.00000     0.00000
 Structure written by MMmdl.
 42 43  0  0  0  0  0  0  0  0  1 V2000
  145.2364  135.2021  151.0988 C   0  0  0  0  0  0  0  0  0  0  0  0
  145.8767  136.4655  151.1236 O   0  0  0  0  0  0  0  0  0  0  0  0
  145.6595  137.1624  152.3396 C   0  0  0  0  0  0  0  0  0  0  0  0
  146.2841  138.5659  152.2436 C   0  0  2  0  0  0  0  0  0  0  0  0
  146.4782  139.0113  150.7870 C   0  0  0  0  0  0  0  0  0  0  0  0
  147.5754  138.5952  152.9250 N   0  0  0  0  0  0  0  0  0  0  0  0
  147.9614  139.5150  153.8209 C   0  0  0  0  0  0  0  0  0  0  0  0
  147.2468  140.4473  154.1877 O   0  0  0  0  0  0  0  0  0  0  0  0
  149.2053  139.2643  154.2637 N   0  0  0  0  0  0  0  0  0  0  0  0
  149.9900  140.0063  155.1878 C   0  0  0  0  0  0  0  0  0  0  0  0
  151.2267  139.5736  155.7206 C   0  0  0  0  0  0  0  0  0  0  0  0
  151.8960  140.3964  156.6468 C   0  0  0  0  0  0  0  0  0  0  0  0
  151.3108  141.6272  157.0271 C   0  0  0  0  0  0  0  0  0  0  0  0
  151.9508  142.4808  157.9478 N   0  0  0  0  0  0  0  0  0  0  0  0
  151.6327  143.8981  158.0267 C   0  0  0  0  0  0  0  0  0  0  0  0
  152.4254  144.4054  159.2300 C   0  0  0  0  0  0  0  0  0  0  0  0
  152.4415  143.1979  160.1670 C   0  0  0  0  0  0  0  0  0  0  0  0
  152.4578  141.9905  159.2221 C   0  0  0  0  0  0  0  0  0  0  0  0
  150.1248  142.0373  156.5183 N   0  0  0  0  0  0  0  0  0  0  0  0
  149.4868  141.2452  155.6319 C   0  0  0  0  0  0  0  0  0  0  0  0
  145.4365  134.7092  150.1476 H   0  0  0  0  0  0  0  0  0  0  0  0
  144.1557  135.3050  151.2039 H   0  0  0  0  0  0  0  0  0  0  0  0
  145.6064  134.5568  151.8965 H   0  0  0  0  0  0  0  0  0  0  0  0
  144.5862  137.2382  152.5216 H   0  0  0  0  0  0  0  0  0  0  0  0
  146.0934  136.6104  153.1754 H   0  0  0  0  0  0  0  0  0  0  0  0
  145.6154  139.2806  152.7272 H   0  0  0  0  0  0  0  0  0  0  0  0
  145.5273  139.0442  150.2544 H   0  0  0  0  0  0  0  0  0  0  0  0
  147.1376  138.3306  150.2473 H   0  0  0  0  0  0  0  0  0  0  0  0
  146.9147  140.0094  150.7365 H   0  0  0  0  0  0  0  0  0  0  0  0
  148.2264  137.8602  152.6904 H   0  0  0  0  0  0  0  0  0  0  0  0
  149.6310  138.4141  153.9247 H   0  0  0  0  0  0  0  0  0  0  0  0
  151.6709  138.6282  155.4517 H   0  0  0  0  0  0  0  0  0  0  0  0
  152.8452  140.0739  157.0480 H   0  0  0  0  0  0  0  0  0  0  0  0
  151.9062  144.4250  157.1120 H   0  0  0  0  0  0  0  0  0  0  0  0
  150.5616  144.0223  158.1918 H   0  0  0  0  0  0  0  0  0  0  0  0
  153.4444  144.6491  158.9261 H   0  0  0  0  0  0  0  0  0  0  0  0
  151.9861  145.2940  159.6839 H   0  0  0  0  0  0  0  0  0  0  0  0
  153.2850  143.2061  160.8575 H   0  0  0  0  0  0  0  0  0  0  0  0
  151.5250  143.1859  160.7585 H   0  0  0  0  0  0  0  0  0  0  0  0
  151.8523  141.1765  159.6222 H   0  0  0  0  0  0  0  0  0  0  0  0
  153.4750  141.6245  159.0794 H   0  0  0  0  0  0  0  0  0  0  0  0
  148.5421  141.6173  155.2632 H   0  0  0  0  0  0  0  0  0  0  0  0
  1  2  1  0  0  0  0
  1 21  1  0  0  0  0
  1 22  1  0  0  0  0
  1 23  1  0  0  0  0
  2  3  1  0  0  0  0
  3  4  1  0  0  0  0
  3 24  1  0  0  0  0
  3 25  1  0  0  0  0
  4  5  1  0  0  0  0
  4  6  1  0  0  0  0
  4 26  1  0  0  0  0
  5 27  1  0  0  0  0
  5 28  1  0  0  0  0
  5 29  1  0  0  0  0
  6  7  1  0  0  0  0
  6 30  1  0  0  0  0
  7  8  2  0  0  0  0
  7  9  1  0  0  0  0
  9 10  1  0  0  0  0
  9 31  1  0  0  0  0
 10 20  1  0  0  0  0
 10 11  2  0  0  0  0
 11 12  1  0  0  0  0
 11 32  1  0  0  0  0
 12 13  2  0  0  0  0
 12 33  1  0  0  0  0
 13 14  1  0  0  0  0
 13 19  1  0  0  0  0
 14 18  1  0  0  0  0
 14 15  1  0  0  0  0
 15 16  1  0  0  0  0
 15 34  1  0  0  0  0
 15 35  1  0  0  0  0
 16 17  1  0  0  0  0
 16 36  1  0  0  0  0
 16 37  1  0  0  0  0
 17 18  1  0  0  0  0
 17 38  1  0  0  0  0
 17 39  1  0  0  0  0
 18 40  1  0  0  0  0
 18 41  1  0  0  0  0
 19 20  2  0  0  0  0
 20 42  1  0  0  0  0
M  END
> <s_m_source_file>
AV-unprocessed.smi

> <i_m_source_file_index>
1045

> <i_lp_mmshare_version>
43012

> <i_f3d_flags>
0

> <s_epik_input>
W0NIM11PW0NIMl1bQ0BIXShbQ0gzXSlbTkhdQyg9TylbTkhdYzFbY0hdW2NIXWMobltjSF0xKU4yW0NIMl1bQ0gyXVtDSDJdW0NIMl0y

> <s_epik_cmdline>
J2VwaWtfcHl0aG9uJywgJy1waCcsICc3LjAnLCAnLXRuJywgJzgnLCAnLW1hJywgJzIwMCcsICctbWV0YWxfYmluZGluZycsICctaW1hZScsICc8aW5maWxlLm1hZT4nLCAnLW9tYWUnLCAnPG91dGZpbGUubWFlPic=

> <r_lp_tautomer_probability>
1

> <r_epik_Ionization_Penalty>
0.10064

> <r_epik_Ionization_Penalty_Charging>
0

> <r_epik_Ionization_Penalty_Neutral>
0.10064

> <r_epik_State_Penalty>
0.0900987

> <r_epik_Charging_Adjusted_Penalty>
0.0900987

> <i_epik_Tot_Q>
0

> <i_epik_Tot_abs_Q>
0

> <r_epik_Metal_State_Penalty>
0.076945

> <b_epik_Metal_Only>
0

> <s_lp_Force_Field>
OPLS_2005

> <r_lp_Energy>
28.0744

> <b_lp_Chiralities_Consistent>
1

> <s_lp_Variant>
AV-unprocessed.smi:1045-1

> <Gold.Version>
5.8.1

> <Gold.Id.Protein>
6NUR|6NUR_protein|mol2

> <Gold.PLP.Fitness>
39.3731

> <Gold.PLP.PLP>
-38.6401

> <Gold.PLP.part.hbond>
-2.4323

> <Gold.PLP.part.metal>
0.0000

> <Gold.PLP.part.buried>
-0.6116

> <Gold.PLP.part.nonpolar>
-36.8699

> <Gold.PLP.part.repulsive>
1.0653

> <Gold.PLP.ligand.clash>
0.0000

> <Gold.PLP.ligand.torsion>
1.2358

> <Gold.PLP.Chemscore.Hbond>
1.0000

> <Gold.PLP.Chemscore.CHOScore>
0.0000

> <Gold.PLP.Chemscore.Metal>
0.0000

> <Gold.Chemscore.Hbonds>
donor molecule, donor type, donor heavy atom, donor atom, acceptor molecule, acceptor atom, score
      L1  H     6    30       P1  7948  1.00

> <Gold.PLP.Chemscore.Internal.Correction>
0.2045

> <Gold.Rescore>
     Score         DG    S(hbond)    S(metal)    S(lipo)     H(rot)  DE(clash)    DE(int)     intcor
     13.21     -17.25       0.98        0.00     103.34       1.41       1.69       2.35       ----

> <Gold.Chemscore.Fitness>
13.2095

> <Gold.Chemscore.DG>
-17.2541

> <Gold.Chemscore.ZeroCoef>
-5.4800

> <Gold.Chemscore.Hbond>
0.9849

> <Gold.Chemscore.Metal>
0.0000

> <Gold.Chemscore.Lipo>
103.3388

> <Gold.Chemscore.Internal_Hbond>
0.0000

> <Gold.Chemscore.DEClash>
1.6926

> <Gold.Chemscore.DEInternal>
2.3519

> <Gold.Chemscore.Rot>
1.4086

> <Gold.Chemscore.Internal.Correction>
   9.000000E+99

> <Gold.Chemscore.Hbonds>
donor molecule, donor type, donor heavy atom, donor atom, acceptor molecule, acceptor atom, score
      L1  H     6    30       P1  7948  0.98

> <Gold.Chemscore.Hbond.Weighted>
-3.2894

> <Gold.Chemscore.Metal.Weighted>
-0.0000

> <Gold.Chemscore.Lipo.Weighted>
-12.0906

> <Gold.Chemscore.Internal_Hbond.Weighted>
0.0000

> <Gold.Chemscore.DEClash.Weighted>
1.6926

> <Gold.Chemscore.DEInternal.Weighted>
2.3519

> <Gold.Chemscore.Rot.Weighted>
3.6060

> <Gold.Chemscore.Internal.Correction.Weighted>
   9.000000E+99

> <Gold.Protein.RotatedTorsions>
[ 6907 6896 6895 6894 ] final  -56.10 input  -60.11 | X-H torsion
[ 7974 7965 7964 7962 ] final  102.79 input  175.53 | X-H torsion
[ 8008 7997 7996 7995 ] final  -75.66 input   59.86 | X-H torsion
[ 10167 10162 10161 10158 ] final   50.99 input  -65.29 | X-H torsion
[ 10718 10713 10712 10709 ] final  102.17 input   66.30 | X-H torsion
[ 10763 10752 10751 10750 ] final -173.58 input  -60.55 | X-H torsion
[ 11005 11000 10999 10996 ] final -179.99 input  -57.11 | X-H torsion

> <Gold.Protein.ActiveResidues>
 VAL166  LYS551  ARG553  GLY616  TRP617  ASP618  TYR619  PRO620  LYS621  CYS622 
 ASP623  PHE694  ASN695  SER759  ASP760  ASP761  ALA762  ILE779  LEU786  VAL792 
 PHE793  MET794  SER795  GLU796  ALA797  LYS798  CYS799  TRP800  GLU811  SER814 

> <Gold.Protein.RotatedAtoms>
  150.8196  134.7397  159.6760 H   0  0  0  0  0  0  0  0  0  0  0  0  # atno 6907 bound_to 6896
  152.4313  134.5769  159.9947 H   0  0  0  0  0  0  0  0  0  0  0  0  # atno 6908 bound_to 6896
  151.5957  133.3324  159.3073 H   0  0  0  0  0  0  0  0  0  0  0  0  # atno 6909 bound_to 6896
  145.3544  139.2432  143.3540 H   0  0  0  0  0  0  0  0  0  0  0  0  # atno 7974 bound_to 7965
  154.5436  140.0740  156.8551 H   0  0  0  0  0  0  0  0  0  0  0  0  # atno 8008 bound_to 7997
  155.3132  140.3391  155.4225 H   0  0  0  0  0  0  0  0  0  0  0  0  # atno 8009 bound_to 7997
  156.1897  140.1682  156.8102 H   0  0  0  0  0  0  0  0  0  0  0  0  # atno 8010 bound_to 7997
  140.2667  144.3312  150.6302 H   0  0  0  0  0  0  0  0  0  0  0  0  # atno 10167 bound_to 10162
  157.6809  131.0746  150.5363 H   0  0  0  0  0  0  0  0  0  0  0  0  # atno 10718 bound_to 10713
  154.6062  135.2859  155.0482 H   0  0  0  0  0  0  0  0  0  0  0  0  # atno 10763 bound_to 10752
  154.1729  135.6469  153.5018 H   0  0  0  0  0  0  0  0  0  0  0  0  # atno 10764 bound_to 10752
  153.0176  135.5405  154.6798 H   0  0  0  0  0  0  0  0  0  0  0  0  # atno 10765 bound_to 10752
  140.4125  134.6679  157.4621 H   0  0  0  0  0  0  0  0  0  0  0  0  # atno 11005 bound_to 11000
  146.2954  140.4166  142.8723 LP  0  0  0  0  0  0  0  0  0  0  0  0  # atno 17320 bound_to 7965
  144.8693  140.7250  143.6057 LP  0  0  0  0  0  0  0  0  0  0  0  0  # atno 17321 bound_to 7965
  140.5923  143.2167  151.7230 LP  0  0  0  0  0  0  0  0  0  0  0  0  # atno 17342 bound_to 10162
  139.5001  144.3921  152.0269 LP  0  0  0  0  0  0  0  0  0  0  0  0  # atno 17343 bound_to 10162
  156.5671  130.4270  149.6036 LP  0  0  0  0  0  0  0  0  0  0  0  0  # atno 17370 bound_to 10713
  156.2772  130.7050  151.1864 LP  0  0  0  0  0  0  0  0  0  0  0  0  # atno 17371 bound_to 10713
  140.0257  134.6480  155.9176 LP  0  0  0  0  0  0  0  0  0  0  0  0  # atno 17394 bound_to 11000
  141.1815  133.6547  156.5042 LP  0  0  0  0  0  0  0  0  0  0  0  0  # atno 17395 bound_to 11000

$$$$
