AV-unprocessed.smi:849|AV-procd|sdf|3945|dock1
  -GOLD-   22720 1413D 1   1.00000     0.00000
 Structure written by MMmdl.
 37 39  0  0  0  0  0  0  0  0  2 V2000
  151.8802  136.8173  153.9944 O   0  0  0  0  0  0  0  0  0  0  0  0
  151.9222  138.0524  154.6732 C   0  0  0  0  0  0  0  0  0  0  0  0
  150.6824  138.8587  154.4605 C   0  0  0  0  0  0  0  0  0  0  0  0
  149.6109  138.4638  153.7176 N   0  3  0  0  0  0  0  0  0  0  0  0
  148.6321  139.4563  153.7308 C   0  0  0  0  0  0  0  0  0  0  0  0
  147.3799  139.5059  153.1260 C   0  0  0  0  0  0  0  0  0  0  0  0
  146.6208  140.6751  153.3377 C   0  0  0  0  0  0  0  0  0  0  0  0
  147.1139  141.7375  154.1220 C   0  0  0  0  0  0  0  0  0  0  0  0
  148.3856  141.6756  154.7283 C   0  0  0  0  0  0  0  0  0  0  0  0
  149.1300  140.5138  154.5194 C   0  0  0  0  0  0  0  0  0  0  0  0
  150.3940  140.0973  154.9613 N   0  0  0  0  0  0  0  0  0  0  0  0
  151.1840  140.9868  155.8348 C   0  0  0  0  0  0  0  0  0  0  0  0
  151.0876  140.6395  157.3389 C   0  0  2  0  0  0  0  0  0  0  0  0
  149.7401  140.3858  157.6881 O   0  0  0  0  0  0  0  0  0  0  0  0
  151.7495  141.6890  158.2323 C   0  0  0  0  0  0  0  0  0  0  0  0
  151.4024  143.0542  158.0975 C   0  0  0  0  0  0  0  0  0  0  0  0
  152.0165  144.0344  158.8990 C   0  0  0  0  0  0  0  0  0  0  0  0
  152.9859  143.6613  159.8468 C   0  0  0  0  0  0  0  0  0  0  0  0
  153.3427  142.3076  159.9875 C   0  0  0  0  0  0  0  0  0  0  0  0
  152.7335  141.3220  159.1852 C   0  0  0  0  0  0  0  0  0  0  0  0
  153.2327  139.6783  159.3823 Cl  0  0  0  0  0  0  0  0  0  0  0  0
  151.5474  136.9697  153.1224 H   0  0  0  0  0  0  0  0  0  0  0  0
  152.0812  137.8706  155.7354 H   0  0  0  0  0  0  0  0  0  0  0  0
  152.7814  138.6202  154.3158 H   0  0  0  0  0  0  0  0  0  0  0  0
  147.0004  138.6934  152.5237 H   0  0  0  0  0  0  0  0  0  0  0  0
  145.6415  140.7590  152.8889 H   0  0  0  0  0  0  0  0  0  0  0  0
  146.5043  142.6182  154.2627 H   0  0  0  0  0  0  0  0  0  0  0  0
  148.7470  142.4968  155.3287 H   0  0  0  0  0  0  0  0  0  0  0  0
  152.2221  140.9220  155.5088 H   0  0  0  0  0  0  0  0  0  0  0  0
  150.8908  142.0206  155.6536 H   0  0  0  0  0  0  0  0  0  0  0  0
  151.5970  139.6895  157.4985 H   0  0  0  0  0  0  0  0  0  0  0  0
  149.6807  139.5058  158.0283 H   0  0  0  0  0  0  0  0  0  0  0  0
  150.6690  143.3634  157.3674 H   0  0  0  0  0  0  0  0  0  0  0  0
  151.7443  145.0734  158.7848 H   0  0  0  0  0  0  0  0  0  0  0  0
  153.4578  144.4122  160.4631 H   0  0  0  0  0  0  0  0  0  0  0  0
  154.0917  142.0252  160.7129 H   0  0  0  0  0  0  0  0  0  0  0  0
  149.5574  137.5744  153.2378 H   0  0  0  0  0  0  0  0  0  0  0  0
  1  2  1  0  0  0  0
  1 22  1  0  0  0  0
  2  3  1  0  0  0  0
  2 23  1  0  0  0  0
  2 24  1  0  0  0  0
  3 11  1  0  0  0  0
  3  4  2  0  0  0  0
  4  5  1  0  0  0  0
  4 37  1  0  0  0  0
  5 10  2  0  0  0  0
  5  6  1  0  0  0  0
  6  7  2  0  0  0  0
  6 25  1  0  0  0  0
  7  8  1  0  0  0  0
  7 26  1  0  0  0  0
  8  9  2  0  0  0  0
  8 27  1  0  0  0  0
  9 10  1  0  0  0  0
  9 28  1  0  0  0  0
 10 11  1  0  0  0  0
 11 12  1  0  0  0  0
 12 13  1  0  0  0  0
 12 29  1  0  0  0  0
 12 30  1  0  0  0  0
 13 14  1  0  0  0  0
 13 15  1  0  0  0  0
 13 31  1  0  0  0  0
 14 32  1  0  0  0  0
 15 20  1  0  0  0  0
 15 16  2  0  0  0  0
 16 17  1  0  0  0  0
 16 33  1  0  0  0  0
 17 18  2  0  0  0  0
 17 34  1  0  0  0  0
 18 19  1  0  0  0  0
 18 35  1  0  0  0  0
 19 20  2  0  0  0  0
 19 36  1  0  0  0  0
 20 21  1  0  0  0  0
M  CHG  1   4   1
M  END
> <s_m_source_file>
AV-unprocessed.smi

> <i_m_source_file_index>
849

> <i_lp_mmshare_version>
43012

> <i_f3d_flags>
0

> <s_epik_input>
W2NIXTFbY0hdW2NIXVtjSF1jKGMxMiluKGMobjIpW0NIMl1bT0hdKVtDSDJdW0NASF0oW09IXSljM1tjSF1bY0hdW2NIXVtjSF1jM0Ns

> <s_epik_cmdline>
J2VwaWtfcHl0aG9uJywgJy1waCcsICc3LjAnLCAnLXRuJywgJzgnLCAnLW1hJywgJzIwMCcsICctbWV0YWxfYmluZGluZycsICctaW1hZScsICc8aW5maWxlLm1hZT4nLCAnLW9tYWUnLCAnPG91dGZpbGUubWFlPic=

> <r_epik_Ionization_Penalty>
1.35643

> <r_epik_Ionization_Penalty_Charging>
1.35557

> <r_epik_Ionization_Penalty_Neutral>
0.000861512

> <r_epik_State_Penalty>
1.43401

> <r_epik_Charging_Adjusted_Penalty>
2.78958

> <i_epik_Tot_Q>
1

> <i_epik_Tot_abs_Q>
1

> <r_epik_Metal_State_Penalty>
5.47166

> <b_epik_Metal_Only>
0

> <s_lp_Force_Field>
OPLS_2005

> <r_lp_Energy>
14.886

> <b_lp_Chiralities_Consistent>
1

> <s_lp_Variant>
AV-unprocessed.smi:849-3

> <Gold.Version>
5.8.1

> <Gold.Id.Protein>
6NUR|6NUR_protein|mol2

> <Gold.PLP.Fitness>
59.7066

> <Gold.PLP.PLP>
-49.2407

> <Gold.PLP.part.hbond>
-4.0000

> <Gold.PLP.part.metal>
0.0000

> <Gold.PLP.part.buried>
1.8057

> <Gold.PLP.part.nonpolar>
-47.0597

> <Gold.PLP.part.repulsive>
0.0636

> <Gold.PLP.ligand.clash>
0.0000

> <Gold.PLP.ligand.torsion>
0.5706

> <Gold.PLP.Chemscore.Hbond>
3.8406

> <Gold.PLP.Chemscore.CHOScore>
0.0000

> <Gold.PLP.Chemscore.Metal>
0.0000

> <Gold.Chemscore.Hbonds>
donor molecule, donor type, donor heavy atom, donor atom, acceptor molecule, acceptor atom, score
      L1  H     1    22       P1  7949  0.78
      L1  H     4    37       P1  7948  2.00
      P1  H 10752 10764       L1     1  1.00

> <Gold.PLP.Chemscore.Internal.Correction>
0.0853

> <Gold.Rescore>
     Score         DG    S(hbond)    S(metal)    S(lipo)     H(rot)  DE(clash)    DE(int)     intcor
     17.89     -21.23       2.23        0.00     130.00       2.70       2.72       0.61       ----

> <Gold.Chemscore.Fitness>
17.8932

> <Gold.Chemscore.DG>
-21.2295

> <Gold.Chemscore.ZeroCoef>
-5.4800

> <Gold.Chemscore.Hbond>
2.2280

> <Gold.Chemscore.Metal>
0.0000

> <Gold.Chemscore.Lipo>
130.0039

> <Gold.Chemscore.Internal_Hbond>
0.0000

> <Gold.Chemscore.DEClash>
2.7245

> <Gold.Chemscore.DEInternal>
0.6117

> <Gold.Chemscore.Rot>
2.6963

> <Gold.Chemscore.Internal.Correction>
   9.000000E+99

> <Gold.Chemscore.Hbonds>
donor molecule, donor type, donor heavy atom, donor atom, acceptor molecule, acceptor atom, score
      L1  H     1    22       P1  7949  0.73
      L1  H     4    37       P1  7948  0.82
      P1  H 10752 10764       L1     1  0.95

> <Gold.Chemscore.Hbond.Weighted>
-7.4414

> <Gold.Chemscore.Metal.Weighted>
-0.0000

> <Gold.Chemscore.Lipo.Weighted>
-15.2105

> <Gold.Chemscore.Internal_Hbond.Weighted>
0.0000

> <Gold.Chemscore.DEClash.Weighted>
2.7245

> <Gold.Chemscore.DEInternal.Weighted>
0.6117

> <Gold.Chemscore.Rot.Weighted>
6.9024

> <Gold.Chemscore.Internal.Correction.Weighted>
   9.000000E+99

> <Gold.Protein.RotatedTorsions>
[ 6907 6896 6895 6894 ] final  -39.13 input  -60.11 | X-H torsion
[ 7974 7965 7964 7962 ] final   88.19 input  175.53 | X-H torsion
[ 8008 7997 7996 7995 ] final -151.48 input   59.86 | X-H torsion
[ 10167 10162 10161 10158 ] final  140.99 input  -65.29 | X-H torsion
[ 10718 10713 10712 10709 ] final  -81.94 input   66.30 | X-H torsion
[ 10763 10752 10751 10750 ] final  -76.44 input  -60.55 | X-H torsion
[ 11005 11000 10999 10996 ] final   43.99 input  -57.11 | X-H torsion

> <Gold.Protein.ActiveResidues>
 VAL166  LYS551  ARG553  GLY616  TRP617  ASP618  TYR619  PRO620  LYS621  CYS622 
 ASP623  PHE694  ASN695  SER759  ASP760  ASP761  ALA762  ILE779  LEU786  VAL792 
 PHE793  MET794  SER795  GLU796  ALA797  LYS798  CYS799  TRP800  GLU811  SER814 

> <Gold.Protein.RotatedAtoms>
  150.9941  134.9269  159.7915 H   0  0  0  0  0  0  0  0  0  0  0  0  # atno 6907 bound_to 6896
  152.5259  134.3242  159.9169 H   0  0  0  0  0  0  0  0  0  0  0  0  # atno 6908 bound_to 6896
  151.3248  133.3983  159.2692 H   0  0  0  0  0  0  0  0  0  0  0  0  # atno 6909 bound_to 6896
  145.5490  139.2294  143.2523 H   0  0  0  0  0  0  0  0  0  0  0  0  # atno 7974 bound_to 7965
  155.6401  140.0700  157.2621 H   0  0  0  0  0  0  0  0  0  0  0  0  # atno 8008 bound_to 7997
  154.4186  140.1752  156.1613 H   0  0  0  0  0  0  0  0  0  0  0  0  # atno 8009 bound_to 7997
  155.9863  140.3349  155.6713 H   0  0  0  0  0  0  0  0  0  0  0  0  # atno 8010 bound_to 7997
  139.5033  144.6200  151.6074 H   0  0  0  0  0  0  0  0  0  0  0  0  # atno 10167 bound_to 10162
  156.0041  130.4619  150.4029 H   0  0  0  0  0  0  0  0  0  0  0  0  # atno 10718 bound_to 10713
  154.4998  135.5797  153.6522 H   0  0  0  0  0  0  0  0  0  0  0  0  # atno 10763 bound_to 10752
  152.9877  135.6133  154.3017 H   0  0  0  0  0  0  0  0  0  0  0  0  # atno 10764 bound_to 10752
  154.2923  135.2848  155.2628 H   0  0  0  0  0  0  0  0  0  0  0  0  # atno 10765 bound_to 10752
  140.1594  134.4361  155.8328 H   0  0  0  0  0  0  0  0  0  0  0  0  # atno 11005 bound_to 11000
  146.1930  140.6312  142.9137 LP  0  0  0  0  0  0  0  0  0  0  0  0  # atno 17320 bound_to 7965
  144.7539  140.5259  143.6783 LP  0  0  0  0  0  0  0  0  0  0  0  0  # atno 17321 bound_to 7965
  140.5899  143.9798  150.6318 LP  0  0  0  0  0  0  0  0  0  0  0  0  # atno 17342 bound_to 10162
  140.2975  143.3283  152.1004 LP  0  0  0  0  0  0  0  0  0  0  0  0  # atno 17343 bound_to 10162
  157.2096  131.0457  151.2606 LP  0  0  0  0  0  0  0  0  0  0  0  0  # atno 17370 bound_to 10713
  157.3900  130.7277  149.6691 LP  0  0  0  0  0  0  0  0  0  0  0  0  # atno 17371 bound_to 10713
  141.2208  133.6906  156.7565 LP  0  0  0  0  0  0  0  0  0  0  0  0  # atno 17394 bound_to 11000
  140.2509  134.8541  157.3666 LP  0  0  0  0  0  0  0  0  0  0  0  0  # atno 17395 bound_to 11000

$$$$
