AV-unprocessed.smi:2822|AV-procd|sdf|10883|dock4
  -GOLD-   2272015323D 1   1.00000     0.00000
 Structure written by MMmdl.
 39 41  0  0  0  0  0  0  0  0  1 V2000
  156.6306  139.6922  164.7253 Cl  0  0  0  0  0  0  0  0  0  0  0  0
  155.5001  138.5264  164.1311 C   0  0  0  0  0  0  0  0  0  0  0  0
  155.0336  137.5070  164.9863 C   0  0  0  0  0  0  0  0  0  0  0  0
  154.1526  136.5591  164.6037 N   0  0  0  0  0  0  0  0  0  0  0  0
  153.7006  136.5994  163.3330 C   0  0  0  0  0  0  0  0  0  0  0  0
  154.1006  137.5740  162.3971 C   0  0  0  0  0  0  0  0  0  0  0  0
  155.0247  138.5672  162.7999 C   0  0  0  0  0  0  0  0  0  0  0  0
  155.4786  139.5724  161.9322 N   0  0  0  0  0  0  0  0  0  0  0  0
  154.7136  139.9434  160.7517 C   0  0  0  0  0  0  0  0  0  0  0  0
  154.2954  141.4196  160.7898 C   0  0  1  0  0  0  0  0  0  0  0  0
  153.5611  141.8338  159.5009 C   0  0  0  0  0  0  0  0  0  0  0  0
  153.0864  143.2106  159.5610 N   0  0  0  0  0  0  0  0  0  0  0  0
  152.3818  143.5834  158.3353 C   0  0  0  0  0  0  0  0  0  0  0  0
  151.8997  145.0427  158.3572 C   0  0  0  0  0  0  0  0  0  0  0  0
  151.0061  145.2905  159.5807 C   0  0  0  0  0  0  0  0  0  0  0  0
  151.7300  144.8463  160.8612 C   0  0  0  0  0  0  0  0  0  0  0  0
  152.2298  143.3922  160.7367 C   0  0  2  0  0  0  0  0  0  0  0  0
  152.9617  142.9550  162.0218 C   0  0  0  0  0  0  0  0  0  0  0  0
  153.4097  141.6096  161.8905 O   0  0  0  0  0  0  0  0  0  0  0  0
  155.3779  137.4506  166.0086 H   0  0  0  0  0  0  0  0  0  0  0  0
  152.9977  135.8293  163.0513 H   0  0  0  0  0  0  0  0  0  0  0  0
  153.6966  137.5413  161.3966 H   0  0  0  0  0  0  0  0  0  0  0  0
  156.2246  140.1835  162.2331 H   0  0  0  0  0  0  0  0  0  0  0  0
  155.3326  139.7672  159.8715 H   0  0  0  0  0  0  0  0  0  0  0  0
  153.8329  139.3056  160.6639 H   0  0  0  0  0  0  0  0  0  0  0  0
  155.1802  142.0465  160.9191 H   0  0  0  0  0  0  0  0  0  0  0  0
  154.2306  141.7145  158.6481 H   0  0  0  0  0  0  0  0  0  0  0  0
  152.7191  141.1604  159.3320 H   0  0  0  0  0  0  0  0  0  0  0  0
  153.0390  143.4389  157.4770 H   0  0  0  0  0  0  0  0  0  0  0  0
  151.5271  142.9223  158.1837 H   0  0  0  0  0  0  0  0  0  0  0  0
  152.7602  145.7124  158.3874 H   0  0  0  0  0  0  0  0  0  0  0  0
  151.3558  145.2736  157.4409 H   0  0  0  0  0  0  0  0  0  0  0  0
  150.7329  146.3441  159.6447 H   0  0  0  0  0  0  0  0  0  0  0  0
  150.0759  144.7314  159.4735 H   0  0  0  0  0  0  0  0  0  0  0  0
  152.5738  145.5113  161.0507 H   0  0  0  0  0  0  0  0  0  0  0  0
  151.0595  144.9441  161.7157 H   0  0  0  0  0  0  0  0  0  0  0  0
  151.3540  142.7501  160.6273 H   0  0  0  0  0  0  0  0  0  0  0  0
  153.8120  143.6072  162.2290 H   0  0  0  0  0  0  0  0  0  0  0  0
  152.2939  143.0187  162.8811 H   0  0  0  0  0  0  0  0  0  0  0  0
  1  2  1  0  0  0  0
  2  7  1  0  0  0  0
  2  3  2  0  0  0  0
  3  4  1  0  0  0  0
  3 20  1  0  0  0  0
  4  5  2  0  0  0  0
  5  6  1  0  0  0  0
  5 21  1  0  0  0  0
  6  7  2  0  0  0  0
  6 22  1  0  0  0  0
  7  8  1  0  0  0  0
  8  9  1  0  0  0  0
  8 23  1  0  0  0  0
  9 10  1  0  0  0  0
  9 24  1  0  0  0  0
  9 25  1  0  0  0  0
 10 19  1  0  0  0  0
 10 11  1  0  0  0  0
 10 26  1  0  0  0  0
 11 12  1  0  0  0  0
 11 27  1  0  0  0  0
 11 28  1  0  0  0  0
 12 17  1  0  0  0  0
 12 13  1  0  0  0  0
 13 14  1  0  0  0  0
 13 29  1  0  0  0  0
 13 30  1  0  0  0  0
 14 15  1  0  0  0  0
 14 31  1  0  0  0  0
 14 32  1  0  0  0  0
 15 16  1  0  0  0  0
 15 33  1  0  0  0  0
 15 34  1  0  0  0  0
 16 17  1  0  0  0  0
 16 35  1  0  0  0  0
 16 36  1  0  0  0  0
 17 18  1  0  0  0  0
 17 37  1  0  0  0  0
 18 19  1  0  0  0  0
 18 38  1  0  0  0  0
 18 39  1  0  0  0  0
M  END
> <s_m_source_file>
AV-unprocessed.smi

> <i_m_source_file_index>
2822

> <i_lp_mmshare_version>
43012

> <i_f3d_flags>
0

> <s_epik_input>
Q2xjMVtjSF1uW2NIXVtjSF1jMVtOSF1bQ0gyXVtDQEhdKFtDSDJdMilPW0NIMl1bQ0BASF0oTjIzKVtDSDJdW0NIMl1bQ0gyXVtDSDJdMw==

> <s_epik_cmdline>
J2VwaWtfcHl0aG9uJywgJy1waCcsICc3LjAnLCAnLXRuJywgJzgnLCAnLW1hJywgJzIwMCcsICctbWV0YWxfYmluZGluZycsICctaW1hZScsICc8aW5maWxlLm1hZT4nLCAnLW9tYWUnLCAnPG91dGZpbGUubWFlPic=

> <r_lp_tautomer_probability>
0.999999

> <r_epik_Ionization_Penalty>
2.10064

> <r_epik_Ionization_Penalty_Charging>
0

> <r_epik_Ionization_Penalty_Neutral>
2.10064

> <r_epik_State_Penalty>
2.1757

> <r_epik_Charging_Adjusted_Penalty>
2.1757

> <i_epik_Tot_Q>
0

> <i_epik_Tot_abs_Q>
0

> <r_epik_Metal_State_Penalty>
1.25425

> <b_epik_Metal_Only>
0

> <s_lp_Force_Field>
OPLS_2005

> <r_lp_Energy>
37.6932

> <b_lp_Chiralities_Consistent>
1

> <s_lp_Variant>
AV-unprocessed.smi:2822-24

> <Gold.Version>
5.8.1

> <Gold.Id.Protein>
6NUR|6NUR_protein|mol2

> <Gold.PLP.Fitness>
45.5456

> <Gold.PLP.PLP>
-45.7609

> <Gold.PLP.part.hbond>
0.0000

> <Gold.PLP.part.metal>
0.0000

> <Gold.PLP.part.buried>
-6.4956

> <Gold.PLP.part.nonpolar>
-39.1069

> <Gold.PLP.part.repulsive>
0.1187

> <Gold.PLP.ligand.clash>
0.0000

> <Gold.PLP.ligand.torsion>
0.1087

> <Gold.PLP.Chemscore.Hbond>
0.0000

> <Gold.PLP.Chemscore.CHOScore>
0.0000

> <Gold.PLP.Chemscore.Metal>
0.0000

> <Gold.PLP.Chemscore.Internal.Correction>
0.0021

> <Gold.Rescore>
     Score         DG    S(hbond)    S(metal)    S(lipo)     H(rot)  DE(clash)    DE(int)     intcor
     18.78     -19.03       0.00        0.00     141.00       1.15       0.06       0.19       ----

> <Gold.Chemscore.Fitness>
18.7811

> <Gold.Chemscore.DG>
-19.0286

> <Gold.Chemscore.ZeroCoef>
-5.4800

> <Gold.Chemscore.Hbond>
0.0000

> <Gold.Chemscore.Metal>
0.0000

> <Gold.Chemscore.Lipo>
141.0029

> <Gold.Chemscore.Internal_Hbond>
0.0000

> <Gold.Chemscore.DEClash>
0.0599

> <Gold.Chemscore.DEInternal>
0.1876

> <Gold.Chemscore.Rot>
1.1519

> <Gold.Chemscore.Internal.Correction>
   9.000000E+99

> <Gold.Chemscore.Hbond.Weighted>
-0.0000

> <Gold.Chemscore.Metal.Weighted>
-0.0000

> <Gold.Chemscore.Lipo.Weighted>
-16.4973

> <Gold.Chemscore.Internal_Hbond.Weighted>
0.0000

> <Gold.Chemscore.DEClash.Weighted>
0.0599

> <Gold.Chemscore.DEInternal.Weighted>
0.1876

> <Gold.Chemscore.Rot.Weighted>
2.9487

> <Gold.Chemscore.Internal.Correction.Weighted>
   9.000000E+99

> <Gold.Protein.RotatedTorsions>
[ 6907 6896 6895 6894 ] final   17.79 input  -60.11 | X-H torsion
[ 7974 7965 7964 7962 ] final  108.47 input  175.53 | X-H torsion
[ 8008 7997 7996 7995 ] final  -70.18 input   59.86 | X-H torsion
[ 10167 10162 10161 10158 ] final -135.53 input  -65.29 | X-H torsion
[ 10718 10713 10712 10709 ] final   -7.86 input   66.30 | X-H torsion
[ 10763 10752 10751 10750 ] final   -0.33 input  -60.55 | X-H torsion
[ 11005 11000 10999 10996 ] final   55.86 input  -57.11 | X-H torsion

> <Gold.Protein.ActiveResidues>
 VAL166  LYS551  ARG553  GLY616  TRP617  ASP618  TYR619  PRO620  LYS621  CYS622 
 ASP623  PHE694  ASN695  SER759  ASP760  ASP761  ALA762  ILE779  LEU786  VAL792 
 PHE793  MET794  SER795  GLU796  ALA797  LYS798  CYS799  TRP800  GLU811  SER814 

> <Gold.Protein.RotatedAtoms>
  151.8551  135.0544  160.0462 H   0  0  0  0  0  0  0  0  0  0  0  0  # atno 6907 bound_to 6896
  152.2706  133.5375  159.5445 H   0  0  0  0  0  0  0  0  0  0  0  0  # atno 6908 bound_to 6896
  150.7150  134.0618  159.3876 H   0  0  0  0  0  0  0  0  0  0  0  0  # atno 6909 bound_to 6896
  145.2803  139.2635  143.3919 H   0  0  0  0  0  0  0  0  0  0  0  0  # atno 7974 bound_to 7965
  154.4993  140.0839  156.7764 H   0  0  0  0  0  0  0  0  0  0  0  0  # atno 8008 bound_to 7997
  155.4041  140.3438  155.4241 H   0  0  0  0  0  0  0  0  0  0  0  0  # atno 8009 bound_to 7997
  156.1435  140.1536  156.8871 H   0  0  0  0  0  0  0  0  0  0  0  0  # atno 8010 bound_to 7997
  139.8769  143.6887  152.2632 H   0  0  0  0  0  0  0  0  0  0  0  0  # atno 10167 bound_to 10162
  156.7111  130.5122  149.5892 H   0  0  0  0  0  0  0  0  0  0  0  0  # atno 10718 bound_to 10713
  153.3305  135.6975  153.6952 H   0  0  0  0  0  0  0  0  0  0  0  0  # atno 10763 bound_to 10752
  153.5756  135.3508  155.2855 H   0  0  0  0  0  0  0  0  0  0  0  0  # atno 10764 bound_to 10752
  154.8617  135.4283  154.2492 H   0  0  0  0  0  0  0  0  0  0  0  0  # atno 10765 bound_to 10752
  140.0574  134.5651  155.9192 H   0  0  0  0  0  0  0  0  0  0  0  0  # atno 11005 bound_to 11000
  146.3218  140.3268  142.8637 LP  0  0  0  0  0  0  0  0  0  0  0  0  # atno 17320 bound_to 7965
  144.9259  140.7921  143.5719 LP  0  0  0  0  0  0  0  0  0  0  0  0  # atno 17321 bound_to 7965
  139.7231  144.7598  151.0922 LP  0  0  0  0  0  0  0  0  0  0  0  0  # atno 17342 bound_to 10162
  140.7751  143.5182  150.9569 LP  0  0  0  0  0  0  0  0  0  0  0  0  # atno 17343 bound_to 10162
  156.1660  130.6406  151.0779 LP  0  0  0  0  0  0  0  0  0  0  0  0  # atno 17370 bound_to 10713
  157.6935  131.0802  150.7036 LP  0  0  0  0  0  0  0  0  0  0  0  0  # atno 17371 bound_to 10713
  141.1958  133.6589  156.5661 LP  0  0  0  0  0  0  0  0  0  0  0  0  # atno 17394 bound_to 11000
  140.3823  134.7513  157.4669 LP  0  0  0  0  0  0  0  0  0  0  0  0  # atno 17395 bound_to 11000

$$$$
