AV-unprocessed.smi:1434|AV-procd|sdf|5851|dock1
  -GOLD-   22720 5523D 1   1.00000     0.00000
 Structure written by MMmdl.
 45 46  0  0  0  0  0  0  0  0  2 V2000
  144.3203  137.0550  152.5097 C   0  0  0  0  0  0  0  0  0  0  0  0
  145.7474  136.8259  153.6445 S   0  0  0  0  0  0  0  0  0  0  0  0
  145.3311  137.2134  155.0008 O   0  0  0  0  0  0  0  0  0  0  0  0
  146.3455  135.5042  153.4040 O   0  0  0  0  0  0  0  0  0  0  0  0
  146.8669  138.0090  153.0778 N   0  0  0  0  0  0  0  0  0  0  0  0
  147.2287  139.1118  153.9695 C   0  0  2  0  0  0  0  0  0  0  0  0
  145.9928  139.9872  154.2675 C   0  0  0  0  0  0  0  0  0  0  0  0
  146.3735  141.2665  155.0369 C   0  0  0  0  0  0  0  0  0  0  0  0
  147.5416  141.9978  154.3504 C   0  0  0  0  0  0  0  0  0  0  0  0
  148.6769  141.0665  154.2298 N   0  0  0  0  0  0  0  0  0  0  0  0
  149.7949  141.0629  154.9986 C   0  0  0  0  0  0  0  0  0  0  0  0
  150.6767  140.2079  154.9046 O   0  0  0  0  0  0  0  0  0  0  0  0
  149.8903  142.0904  155.8599 N   0  0  0  0  0  0  0  0  0  0  0  0
  150.9982  142.3112  156.7820 C   0  0  0  0  0  0  0  0  0  0  0  0
  150.5119  142.3950  158.2386 C   0  0  0  0  0  0  0  0  0  0  0  0
  151.6353  142.1722  159.2325 C   0  0  0  0  0  0  0  0  0  0  0  0
  152.5109  141.0686  159.1384 C   0  0  0  0  0  0  0  0  0  0  0  0
  153.5397  140.9218  160.0919 C   0  0  0  0  0  0  0  0  0  0  0  0
  153.6725  141.8810  161.1172 C   0  0  0  0  0  0  0  0  0  0  0  0
  152.7718  142.9645  161.1628 C   0  0  0  0  0  0  0  0  0  0  0  0
  151.7985  143.0701  160.2312 N   0  3  0  0  0  0  0  0  0  0  0  0
  148.3532  139.9507  153.3319 C   0  0  0  0  0  0  0  0  0  0  0  0
  143.5359  136.3438  152.7673 H   0  0  0  0  0  0  0  0  0  0  0  0
  144.6392  136.8853  151.4816 H   0  0  0  0  0  0  0  0  0  0  0  0
  143.9354  138.0698  152.6093 H   0  0  0  0  0  0  0  0  0  0  0  0
  147.6988  137.5673  152.6873 H   0  0  0  0  0  0  0  0  0  0  0  0
  147.6041  138.6930  154.9050 H   0  0  0  0  0  0  0  0  0  0  0  0
  145.5168  140.2719  153.3280 H   0  0  0  0  0  0  0  0  0  0  0  0
  145.2491  139.4220  154.8297 H   0  0  0  0  0  0  0  0  0  0  0  0
  145.5087  141.9263  155.1127 H   0  0  0  0  0  0  0  0  0  0  0  0
  146.6560  141.0072  156.0580 H   0  0  0  0  0  0  0  0  0  0  0  0
  147.2403  142.3250  153.3543 H   0  0  0  0  0  0  0  0  0  0  0  0
  147.7749  142.9131  154.8941 H   0  0  0  0  0  0  0  0  0  0  0  0
  149.1387  142.7645  155.8751 H   0  0  0  0  0  0  0  0  0  0  0  0
  151.7380  141.5165  156.6713 H   0  0  0  0  0  0  0  0  0  0  0  0
  151.4955  143.2391  156.4990 H   0  0  0  0  0  0  0  0  0  0  0  0
  150.0587  143.3694  158.4269 H   0  0  0  0  0  0  0  0  0  0  0  0
  149.7317  141.6545  158.4202 H   0  0  0  0  0  0  0  0  0  0  0  0
  152.3981  140.3434  158.3453 H   0  0  0  0  0  0  0  0  0  0  0  0
  154.2192  140.0837  160.0364 H   0  0  0  0  0  0  0  0  0  0  0  0
  154.4542  141.7869  161.8571 H   0  0  0  0  0  0  0  0  0  0  0  0
  152.7999  143.7440  161.9102 H   0  0  0  0  0  0  0  0  0  0  0  0
  149.2196  139.3224  153.1181 H   0  0  0  0  0  0  0  0  0  0  0  0
  148.0326  140.3468  152.3670 H   0  0  0  0  0  0  0  0  0  0  0  0
  151.1584  143.8629  160.2835 H   0  0  0  0  0  0  0  0  0  0  0  0
  1  2  1  0  0  0  0
  1 23  1  0  0  0  0
  1 24  1  0  0  0  0
  1 25  1  0  0  0  0
  2  3  2  0  0  0  0
  2  4  2  0  0  0  0
  2  5  1  0  0  0  0
  5  6  1  0  0  0  0
  5 26  1  0  0  0  0
  6 22  1  0  0  0  0
  6  7  1  0  0  0  0
  6 27  1  0  0  0  0
  7  8  1  0  0  0  0
  7 28  1  0  0  0  0
  7 29  1  0  0  0  0
  8  9  1  0  0  0  0
  8 30  1  0  0  0  0
  8 31  1  0  0  0  0
  9 10  1  0  0  0  0
  9 32  1  0  0  0  0
  9 33  1  0  0  0  0
 10 11  1  0  0  0  0
 10 22  1  0  0  0  0
 11 12  2  0  0  0  0
 11 13  1  0  0  0  0
 13 14  1  0  0  0  0
 13 34  1  0  0  0  0
 14 15  1  0  0  0  0
 14 35  1  0  0  0  0
 14 36  1  0  0  0  0
 15 16  1  0  0  0  0
 15 37  1  0  0  0  0
 15 38  1  0  0  0  0
 16 21  1  0  0  0  0
 16 17  2  0  0  0  0
 17 18  1  0  0  0  0
 17 39  1  0  0  0  0
 18 19  2  0  0  0  0
 18 40  1  0  0  0  0
 19 20  1  0  0  0  0
 19 41  1  0  0  0  0
 20 21  2  0  0  0  0
 20 42  1  0  0  0  0
 21 45  1  0  0  0  0
 22 43  1  0  0  0  0
 22 44  1  0  0  0  0
M  CHG  1  21   1
M  END
> <s_m_source_file>
AV-unprocessed.smi

> <i_m_source_file_index>
1434

> <i_lp_mmshare_version>
43012

> <i_f3d_flags>
0

> <s_epik_input>
W0NIM11TKD1PKSg9TylbTkhdW0NAQEhdMVtDSDJdW0NIMl1bQ0gyXU4oW0NIMl0xKUMoPU8pW05IXVtDSDJdW0NIMl1jMltjSF1bY0hdW2NIXVtjSF1uMg==

> <s_epik_cmdline>
J2VwaWtfcHl0aG9uJywgJy1waCcsICc3LjAnLCAnLXRuJywgJzgnLCAnLW1hJywgJzIwMCcsICctbWV0YWxfYmluZGluZycsICctaW1hZScsICc8aW5maWxlLm1hZT4nLCAnLW9tYWUnLCAnPG91dGZpbGUubWFlPic=

> <r_epik_Ionization_Penalty>
1.55113

> <r_epik_Ionization_Penalty_Charging>
1.55107

> <r_epik_Ionization_Penalty_Neutral>
6.01346e-05

> <r_epik_State_Penalty>
1.64529

> <r_epik_Charging_Adjusted_Penalty>
3.19637

> <i_epik_Tot_Q>
1

> <i_epik_Tot_abs_Q>
1

> <r_epik_Metal_State_Penalty>
1.69621

> <b_epik_Metal_Only>
0

> <s_lp_Force_Field>
OPLS_2005

> <r_lp_Energy>
27.1225

> <b_lp_Chiralities_Consistent>
1

> <s_lp_Variant>
AV-unprocessed.smi:1434-3

> <Gold.Version>
5.8.1

> <Gold.Id.Protein>
6NUR|6NUR_protein|mol2

> <Gold.PLP.Fitness>
44.5254

> <Gold.PLP.PLP>
-36.4036

> <Gold.PLP.part.hbond>
-3.0000

> <Gold.PLP.part.metal>
0.0000

> <Gold.PLP.part.buried>
0.5703

> <Gold.PLP.part.nonpolar>
-33.8143

> <Gold.PLP.part.repulsive>
0.4006

> <Gold.PLP.ligand.clash>
0.0000

> <Gold.PLP.ligand.torsion>
0.2585

> <Gold.PLP.Chemscore.Hbond>
2.8000

> <Gold.PLP.Chemscore.CHOScore>
0.0000

> <Gold.PLP.Chemscore.Metal>
0.0000

> <Gold.Chemscore.Hbonds>
donor molecule, donor type, donor heavy atom, donor atom, acceptor molecule, acceptor atom, score
      L1  H     5    26       P1  7948  1.00
      L1  H    13    34       P1  8028  0.78
      P1  H  7989  7998       L1    12  1.00

> <Gold.PLP.Chemscore.Internal.Correction>
0.2388

> <Gold.Rescore>
     Score         DG    S(hbond)    S(metal)    S(lipo)     H(rot)  DE(clash)    DE(int)     intcor
     15.86     -18.05       2.12        0.00      93.72       2.13       1.56       0.63       ----

> <Gold.Chemscore.Fitness>
15.8610

> <Gold.Chemscore.DG>
-18.0539

> <Gold.Chemscore.ZeroCoef>
-5.4800

> <Gold.Chemscore.Hbond>
2.1163

> <Gold.Chemscore.Metal>
0.0000

> <Gold.Chemscore.Lipo>
93.7194

> <Gold.Chemscore.Internal_Hbond>
0.0000

> <Gold.Chemscore.DEClash>
1.5615

> <Gold.Chemscore.DEInternal>
0.6314

> <Gold.Chemscore.Rot>
2.1326

> <Gold.Chemscore.Internal.Correction>
   9.000000E+99

> <Gold.Chemscore.Hbonds>
donor molecule, donor type, donor heavy atom, donor atom, acceptor molecule, acceptor atom, score
      L1  H     5    26       P1  7948  0.96
      L1  H    13    34       P1  8028  0.76
      P1  H  7989  7998       L1    12  0.25

> <Gold.Chemscore.Hbond.Weighted>
-7.0683

> <Gold.Chemscore.Metal.Weighted>
-0.0000

> <Gold.Chemscore.Lipo.Weighted>
-10.9652

> <Gold.Chemscore.Internal_Hbond.Weighted>
0.0000

> <Gold.Chemscore.DEClash.Weighted>
1.5615

> <Gold.Chemscore.DEInternal.Weighted>
0.6314

> <Gold.Chemscore.Rot.Weighted>
5.4595

> <Gold.Chemscore.Internal.Correction.Weighted>
   9.000000E+99

> <Gold.Protein.RotatedTorsions>
[ 6907 6896 6895 6894 ] final  124.37 input  -60.11 | X-H torsion
[ 7974 7965 7964 7962 ] final  -24.44 input  175.53 | X-H torsion
[ 8008 7997 7996 7995 ] final  -99.96 input   59.86 | X-H torsion
[ 10167 10162 10161 10158 ] final    3.14 input  -65.29 | X-H torsion
[ 10718 10713 10712 10709 ] final   73.48 input   66.30 | X-H torsion
[ 10763 10752 10751 10750 ] final    0.59 input  -60.55 | X-H torsion
[ 11005 11000 10999 10996 ] final  -61.54 input  -57.11 | X-H torsion

> <Gold.Protein.ActiveResidues>
 VAL166  LYS551  ARG553  GLY616  TRP617  ASP618  TYR619  PRO620  LYS621  CYS622 
 ASP623  PHE694  ASN695  SER759  ASP760  ASP761  ALA762  ILE779  LEU786  VAL792 
 PHE793  MET794  SER795  GLU796  ALA797  LYS798  CYS799  TRP800  GLU811  SER814 

> <Gold.Protein.RotatedAtoms>
  152.4083  133.6924  159.6375 H   0  0  0  0  0  0  0  0  0  0  0  0  # atno 6907 bound_to 6896
  150.7966  133.8669  159.3256 H   0  0  0  0  0  0  0  0  0  0  0  0  # atno 6908 bound_to 6896
  151.6418  135.1013  160.0194 H   0  0  0  0  0  0  0  0  0  0  0  0  # atno 6909 bound_to 6896
  146.1555  140.4751  142.8593 H   0  0  0  0  0  0  0  0  0  0  0  0  # atno 7974 bound_to 7965
  154.8220  140.0444  157.1417 H   0  0  0  0  0  0  0  0  0  0  0  0  # atno 8008 bound_to 7997
  154.9248  140.3032  155.5177 H   0  0  0  0  0  0  0  0  0  0  0  0  # atno 8009 bound_to 7997
  156.2981  140.2334  156.4302 H   0  0  0  0  0  0  0  0  0  0  0  0  # atno 8010 bound_to 7997
  140.6601  143.7327  150.7722 H   0  0  0  0  0  0  0  0  0  0  0  0  # atno 10167 bound_to 10162
  157.6549  130.9630  150.1075 H   0  0  0  0  0  0  0  0  0  0  0  0  # atno 10718 bound_to 10713
  153.3188  135.6968  153.7049 H   0  0  0  0  0  0  0  0  0  0  0  0  # atno 10763 bound_to 10752
  153.5897  135.3482  155.2907 H   0  0  0  0  0  0  0  0  0  0  0  0  # atno 10764 bound_to 10752
  154.8593  135.4315  154.2346 H   0  0  0  0  0  0  0  0  0  0  0  0  # atno 10765 bound_to 10752
  141.1328  133.6631  156.5390 H   0  0  0  0  0  0  0  0  0  0  0  0  # atno 11005 bound_to 11000
  144.7957  140.6118  143.6511 LP  0  0  0  0  0  0  0  0  0  0  0  0  # atno 17320 bound_to 7965
  145.4720  139.1502  143.3809 LP  0  0  0  0  0  0  0  0  0  0  0  0  # atno 17321 bound_to 7965
  140.0994  143.4802  152.2434 LP  0  0  0  0  0  0  0  0  0  0  0  0  # atno 17342 bound_to 10162
  139.5832  144.7520  151.3586 LP  0  0  0  0  0  0  0  0  0  0  0  0  # atno 17343 bound_to 10162
  156.1980  130.3658  149.8824 LP  0  0  0  0  0  0  0  0  0  0  0  0  # atno 17370 bound_to 10713
  156.6735  130.8829  151.3565 LP  0  0  0  0  0  0  0  0  0  0  0  0  # atno 17371 bound_to 10713
  140.4155  134.7234  157.4860 LP  0  0  0  0  0  0  0  0  0  0  0  0  # atno 17394 bound_to 11000
  140.0397  134.6285  155.8997 LP  0  0  0  0  0  0  0  0  0  0  0  0  # atno 17395 bound_to 11000

$$$$
