AV-unprocessed.smi:189|AV-procd|sdf|1486|dock4
  -GOLD-   2262019303D 1   1.00000     0.00000
 Structure written by MMmdl.
 53 57  0  0  0  0  0  0  0  0  1 V2000
  153.6670  139.3621  159.5193 C   0  0  0  0  0  0  0  0  0  0  0  0
  152.5133  140.3746  159.5588 C   0  0  1  0  0  0  0  0  0  0  0  0
  152.5034  141.2601  160.8289 C   0  0  0  0  0  0  0  0  0  0  0  0
  152.5601  142.6839  160.2758 C   0  0  2  0  0  0  0  0  0  0  0  0
  151.8607  143.8097  161.0469 C   0  0  0  0  0  0  0  0  0  0  0  0
  151.9827  145.1218  160.2417 C   0  0  0  0  0  0  0  0  0  0  0  0
  151.4850  144.9722  158.7850 C   0  0  0  0  0  0  0  0  0  0  0  0
  152.1353  143.7764  158.0571 C   0  0  0  0  0  0  0  0  0  0  0  0
  151.9337  142.5100  158.9033 C   0  0  1  0  0  0  0  0  0  0  0  0
  152.5550  141.2921  158.4155 N   0  0  0  0  0  0  0  0  0  0  0  0
  152.0599  140.8204  157.2489 C   0  0  0  0  0  0  0  0  0  0  0  0
  152.7820  139.9511  156.4932 N   0  0  0  0  0  0  0  0  0  0  0  0
  152.2725  139.4784  155.3518 C   0  0  0  0  0  0  0  0  0  0  0  0
  151.0865  139.7370  154.7962 N   0  0  0  0  0  0  0  0  0  0  0  0
  150.3621  140.6091  155.5552 C   0  0  0  0  0  0  0  0  0  0  0  0
  150.7713  141.1916  156.7866 C   0  0  0  0  0  0  0  0  0  0  0  0
  149.7731  142.0215  157.2792 N   0  0  0  0  0  0  0  0  0  0  0  0
  148.8240  141.9349  156.3870 C   0  0  0  0  0  0  0  0  0  0  0  0
  149.0967  141.1155  155.3138 N   0  0  0  0  0  0  0  0  0  0  0  0
  148.2206  140.8363  154.1855 C   0  0  0  0  0  0  0  0  0  0  0  0
  148.1071  139.3315  153.8417 C   0  0  2  0  0  0  0  0  0  0  0  0
  149.3135  138.9097  153.2313 O   0  0  0  0  0  0  0  0  0  0  0  0
  146.9405  139.0368  152.8960 C   0  0  0  0  0  0  0  0  0  0  0  0
  145.9316  138.3193  153.7844 C   0  0  0  0  0  0  0  0  0  0  0  0
  146.7626  137.5743  154.6562 O   0  0  0  0  0  0  0  0  0  0  0  0
  147.8166  138.4353  155.0628 C   0  0  0  0  0  0  0  0  0  0  0  0
  153.6302  138.6954  160.3811 H   0  0  0  0  0  0  0  0  0  0  0  0
  154.6343  139.8653  159.5266 H   0  0  0  0  0  0  0  0  0  0  0  0
  153.6192  138.7443  158.6220 H   0  0  0  0  0  0  0  0  0  0  0  0
  151.5773  139.8145  159.5410 H   0  0  0  0  0  0  0  0  0  0  0  0
  151.5807  141.0974  161.3874 H   0  0  0  0  0  0  0  0  0  0  0  0
  153.3390  141.0574  161.4997 H   0  0  0  0  0  0  0  0  0  0  0  0
  153.6126  142.9484  160.1521 H   0  0  0  0  0  0  0  0  0  0  0  0
  150.8096  143.5637  161.2031 H   0  0  0  0  0  0  0  0  0  0  0  0
  152.3084  143.9291  162.0338 H   0  0  0  0  0  0  0  0  0  0  0  0
  151.4301  145.9172  160.7427 H   0  0  0  0  0  0  0  0  0  0  0  0
  153.0268  145.4370  160.2291 H   0  0  0  0  0  0  0  0  0  0  0  0
  150.4024  144.8395  158.7909 H   0  0  0  0  0  0  0  0  0  0  0  0
  151.6763  145.8917  158.2311 H   0  0  0  0  0  0  0  0  0  0  0  0
  151.6896  143.6542  157.0695 H   0  0  0  0  0  0  0  0  0  0  0  0
  153.1990  143.9632  157.9028 H   0  0  0  0  0  0  0  0  0  0  0  0
  150.8620  142.3325  159.0175 H   0  0  0  0  0  0  0  0  0  0  0  0
  152.9051  138.7936  154.8064 H   0  0  0  0  0  0  0  0  0  0  0  0
  147.8924  142.4732  156.4861 H   0  0  0  0  0  0  0  0  0  0  0  0
  147.2332  141.2419  154.4103 H   0  0  0  0  0  0  0  0  0  0  0  0
  148.5885  141.3947  153.3236 H   0  0  0  0  0  0  0  0  0  0  0  0
  149.1514  138.0927  152.7842 H   0  0  0  0  0  0  0  0  0  0  0  0
  146.5205  139.9292  152.4305 H   0  0  0  0  0  0  0  0  0  0  0  0
  147.2464  138.3639  152.0929 H   0  0  0  0  0  0  0  0  0  0  0  0
  145.3370  139.0316  154.3588 H   0  0  0  0  0  0  0  0  0  0  0  0
  145.2547  137.6765  153.2212 H   0  0  0  0  0  0  0  0  0  0  0  0
  148.6833  137.8695  155.4074 H   0  0  0  0  0  0  0  0  0  0  0  0
  147.4514  139.0224  155.9055 H   0  0  0  0  0  0  0  0  0  0  0  0
  1  2  1  0  0  0  0
  1 27  1  0  0  0  0
  1 28  1  0  0  0  0
  1 29  1  0  0  0  0
  2 10  1  0  0  0  0
  2  3  1  0  0  0  0
  2 30  1  0  0  0  0
  3  4  1  0  0  0  0
  3 31  1  0  0  0  0
  3 32  1  0  0  0  0
  4  9  1  0  0  0  0
  4  5  1  0  0  0  0
  4 33  1  0  0  0  0
  5  6  1  0  0  0  0
  5 34  1  0  0  0  0
  5 35  1  0  0  0  0
  6  7  1  0  0  0  0
  6 36  1  0  0  0  0
  6 37  1  0  0  0  0
  7  8  1  0  0  0  0
  7 38  1  0  0  0  0
  7 39  1  0  0  0  0
  8  9  1  0  0  0  0
  8 40  1  0  0  0  0
  8 41  1  0  0  0  0
  9 10  1  0  0  0  0
  9 42  1  0  0  0  0
 10 11  1  0  0  0  0
 11 16  1  0  0  0  0
 11 12  2  0  0  0  0
 12 13  1  0  0  0  0
 13 14  2  0  0  0  0
 13 43  1  0  0  0  0
 14 15  1  0  0  0  0
 15 19  1  0  0  0  0
 15 16  2  0  0  0  0
 16 17  1  0  0  0  0
 17 18  2  0  0  0  0
 18 19  1  0  0  0  0
 18 44  1  0  0  0  0
 19 20  1  0  0  0  0
 20 21  1  0  0  0  0
 20 45  1  0  0  0  0
 20 46  1  0  0  0  0
 21 26  1  0  0  0  0
 21 22  1  0  0  0  0
 21 23  1  0  0  0  0
 22 47  1  0  0  0  0
 23 24  1  0  0  0  0
 23 48  1  0  0  0  0
 23 49  1  0  0  0  0
 24 25  1  0  0  0  0
 24 50  1  0  0  0  0
 24 51  1  0  0  0  0
 25 26  1  0  0  0  0
 26 52  1  0  0  0  0
 26 53  1  0  0  0  0
M  END
> <s_m_source_file>
AV-unprocessed.smi

> <i_m_source_file_index>
189

> <i_lp_mmshare_version>
43012

> <i_f3d_flags>
0

> <s_epik_input>
W0NIMl0xW0NIMl1bQ0gyXVtDSDJdW0NASF0oW0NASF0xMilOKFtDQEhdKFtDSDNdKVtDSDJdMiljKG5bY0hdbjMpYyhjMzQpbltjSF1uNFtDSDJdW0NAQF01KFtPSF0pW0NIMl1bQ0gyXU9bQ0gyXTU=

> <s_epik_cmdline>
J2VwaWtfcHl0aG9uJywgJy1waCcsICc3LjAnLCAnLXRuJywgJzgnLCAnLW1hJywgJzIwMCcsICctbWV0YWxfYmluZGluZycsICctaW1hZScsICc8aW5maWxlLm1hZT4nLCAnLW9tYWUnLCAnPG91dGZpbGUubWFlPic=

> <r_lp_tautomer_probability>
1

> <r_epik_Ionization_Penalty>
0.00594261

> <r_epik_Ionization_Penalty_Charging>
0

> <r_epik_Ionization_Penalty_Neutral>
0.00594261

> <r_epik_State_Penalty>
0.00429776

> <r_epik_Charging_Adjusted_Penalty>
0.00429776

> <i_epik_Tot_Q>
0

> <i_epik_Tot_abs_Q>
0

> <r_epik_Metal_State_Penalty>
-0

> <b_epik_Metal_Only>
0

> <s_lp_Force_Field>
OPLS_2005

> <r_lp_Energy>
58.4258

> <b_lp_Chiralities_Consistent>
1

> <s_lp_Variant>
AV-unprocessed.smi:189-12

> <Gold.Version>
5.8.1

> <Gold.Id.Protein>
6NUR|6NUR_protein|mol2

> <Gold.PLP.Fitness>
54.8542

> <Gold.PLP.PLP>
-46.9345

> <Gold.PLP.part.hbond>
-3.8548

> <Gold.PLP.part.metal>
0.0000

> <Gold.PLP.part.buried>
-3.0144

> <Gold.PLP.part.nonpolar>
-40.2469

> <Gold.PLP.part.repulsive>
0.2452

> <Gold.PLP.ligand.clash>
0.1172

> <Gold.PLP.ligand.torsion>
0.7862

> <Gold.PLP.Chemscore.Hbond>
2.8500

> <Gold.PLP.Chemscore.CHOScore>
0.3486

> <Gold.PLP.Chemscore.Metal>
0.0000

> <Gold.Chemscore.Hbonds>
donor molecule, donor type, donor heavy atom, donor atom, acceptor molecule, acceptor atom, score
      L1  H    22    47       P1  7948  0.94
      P1  H  7989  7998       L1    14  0.90
      P1  H  7997  8010       L1    12  1.00
      L1  C    18    44       P1  8028  0.27

> <Gold.PLP.Chemscore.Internal.Correction>
0.0134

> <Gold.Rescore>
     Score         DG    S(hbond)    S(metal)    S(lipo)     H(rot)  DE(clash)    DE(int)     intcor
     17.00     -20.77       1.87        0.00     121.79       2.03       0.75       3.02       ----

> <Gold.Chemscore.Fitness>
16.9987

> <Gold.Chemscore.DG>
-20.7721

> <Gold.Chemscore.ZeroCoef>
-5.4800

> <Gold.Chemscore.Hbond>
1.8678

> <Gold.Chemscore.Metal>
0.0000

> <Gold.Chemscore.Lipo>
121.7909

> <Gold.Chemscore.Internal_Hbond>
0.0000

> <Gold.Chemscore.DEClash>
0.7511

> <Gold.Chemscore.DEInternal>
3.0223

> <Gold.Chemscore.Rot>
2.0297

> <Gold.Chemscore.Internal.Correction>
   9.000000E+99

> <Gold.Chemscore.Hbonds>
donor molecule, donor type, donor heavy atom, donor atom, acceptor molecule, acceptor atom, score
      L1  H    22    47       P1  7948  0.88
      P1  H  7989  7998       L1    14  0.05
      P1  H  7997  8010       L1    12  0.76

> <Gold.Chemscore.Hbond.Weighted>
-6.2386

> <Gold.Chemscore.Metal.Weighted>
-0.0000

> <Gold.Chemscore.Lipo.Weighted>
-14.2495

> <Gold.Chemscore.Internal_Hbond.Weighted>
0.0000

> <Gold.Chemscore.DEClash.Weighted>
0.7511

> <Gold.Chemscore.DEInternal.Weighted>
3.0223

> <Gold.Chemscore.Rot.Weighted>
5.1960

> <Gold.Chemscore.Internal.Correction.Weighted>
   9.000000E+99

> <Gold.Protein.RotatedTorsions>
[ 6907 6896 6895 6894 ] final  119.22 input  -60.11 | X-H torsion
[ 7974 7965 7964 7962 ] final   44.42 input  175.53 | X-H torsion
[ 8008 7997 7996 7995 ] final   73.28 input   59.86 | X-H torsion
[ 10167 10162 10161 10158 ] final -169.19 input  -65.29 | X-H torsion
[ 10718 10713 10712 10709 ] final  124.09 input   66.30 | X-H torsion
[ 10763 10752 10751 10750 ] final -160.97 input  -60.55 | X-H torsion
[ 11005 11000 10999 10996 ] final -144.66 input  -57.11 | X-H torsion

> <Gold.Protein.ActiveResidues>
 VAL166  LYS551  ARG553  GLY616  TRP617  ASP618  TYR619  PRO620  LYS621  CYS622 
 ASP623  PHE694  ASN695  SER759  ASP760  ASP761  ALA762  ILE779  LEU786  VAL792 
 PHE793  MET794  SER795  GLU796  ALA797  LYS798  CYS799  TRP800  GLU811  SER814 

> <Gold.Protein.RotatedAtoms>
  152.4488  133.7587  159.6734 H   0  0  0  0  0  0  0  0  0  0  0  0  # atno 6907 bound_to 6896
  150.8394  133.7950  159.3073 H   0  0  0  0  0  0  0  0  0  0  0  0  # atno 6908 bound_to 6896
  151.5580  135.1069  160.0017 H   0  0  0  0  0  0  0  0  0  0  0  0  # atno 6909 bound_to 6896
  146.0570  139.5076  142.9682 H   0  0  0  0  0  0  0  0  0  0  0  0  # atno 7974 bound_to 7965
  155.7813  140.3482  155.5299 H   0  0  0  0  0  0  0  0  0  0  0  0  # atno 8008 bound_to 7997
  155.8725  140.0989  157.1561 H   0  0  0  0  0  0  0  0  0  0  0  0  # atno 8009 bound_to 7997
  154.4018  140.1337  156.4084 H   0  0  0  0  0  0  0  0  0  0  0  0  # atno 8010 bound_to 7997
  139.5938  144.1156  152.1665 H   0  0  0  0  0  0  0  0  0  0  0  0  # atno 10167 bound_to 10162
  157.5613  131.1089  150.8534 H   0  0  0  0  0  0  0  0  0  0  0  0  # atno 10718 bound_to 10713
  154.7344  135.3054  154.8836 H   0  0  0  0  0  0  0  0  0  0  0  0  # atno 10763 bound_to 10752
  153.9669  135.6746  153.4750 H   0  0  0  0  0  0  0  0  0  0  0  0  # atno 10764 bound_to 10752
  153.0949  135.4941  154.8682 H   0  0  0  0  0  0  0  0  0  0  0  0  # atno 10765 bound_to 10752
  140.8001  134.2866  157.4981 H   0  0  0  0  0  0  0  0  0  0  0  0  # atno 11005 bound_to 11000
  145.6626  141.0236  143.1700 LP  0  0  0  0  0  0  0  0  0  0  0  0  # atno 17320 bound_to 7965
  144.7153  139.8218  143.7400 LP  0  0  0  0  0  0  0  0  0  0  0  0  # atno 17321 bound_to 7965
  140.0737  144.5758  150.7173 LP  0  0  0  0  0  0  0  0  0  0  0  0  # atno 17342 bound_to 10162
  140.7195  143.2575  151.4326 LP  0  0  0  0  0  0  0  0  0  0  0  0  # atno 17343 bound_to 10162
  156.9031  130.5253  149.5282 LP  0  0  0  0  0  0  0  0  0  0  0  0  # atno 17370 bound_to 10713
  156.0665  130.5707  150.9299 LP  0  0  0  0  0  0  0  0  0  0  0  0  # atno 17371 bound_to 10713
  139.8722  134.9425  156.3826 LP  0  0  0  0  0  0  0  0  0  0  0  0  # atno 17394 bound_to 11000
  140.9303  133.7584  156.0016 LP  0  0  0  0  0  0  0  0  0  0  0  0  # atno 17395 bound_to 11000

$$$$
