AV-unprocessed.smi:1003|AV-procd|sdf|4360|dock2
  -GOLD-   22720 2263D 1   1.00000     0.00000
 Structure written by MMmdl.
 43 44  0  0  0  0  0  0  0  0  1 V2000
  144.4934  145.1781  157.1799 C   0  0  0  0  0  0  0  0  0  0  0  0
  144.3106  143.6861  156.8799 C   0  0  0  0  0  0  0  0  0  0  0  0
  145.1316  143.2378  155.7067 C   0  0  0  0  0  0  0  0  0  0  0  0
  146.0477  142.1944  155.8706 N   0  0  0  0  0  0  0  0  0  0  0  0
  146.7026  141.9017  154.7454 C   0  0  0  0  0  0  0  0  0  0  0  0
  147.7561  140.8502  154.6540 C   0  0  0  0  0  0  0  0  0  0  0  0
  149.1616  141.4443  154.4701 C   0  0  0  0  0  0  0  0  0  0  0  0
  149.6451  142.0676  155.6961 N   0  0  0  0  0  0  0  0  0  0  0  0
  150.6476  141.5983  156.4551 C   0  0  0  0  0  0  0  0  0  0  0  0
  151.2744  140.5731  156.1845 O   0  0  0  0  0  0  0  0  0  0  0  0
  150.9921  142.4075  157.7128 C   0  0  0  0  0  0  0  0  0  0  0  0
  151.5378  143.8031  157.3411 C   0  0  0  0  0  0  0  0  0  0  0  0
  151.9011  144.6145  158.5956 C   0  0  0  0  0  0  0  0  0  0  0  0
  152.9051  143.8557  159.4778 C   0  0  0  0  0  0  0  0  0  0  0  0
  152.3754  142.4614  159.8483 C   0  0  0  0  0  0  0  0  0  0  0  0
  152.0116  141.6522  158.5926 C   0  0  0  0  0  0  0  0  0  0  0  0
  146.2497  142.9311  153.3947 S   0  0  0  0  0  0  0  0  0  0  0  0
  145.1136  143.7548  154.4319 C   0  0  0  0  0  0  0  0  0  0  0  0
  144.2749  144.8728  153.9077 C   0  0  0  0  0  0  0  0  0  0  0  0
  143.8878  145.4800  158.0345 H   0  0  0  0  0  0  0  0  0  0  0  0
  144.1956  145.7892  156.3274 H   0  0  0  0  0  0  0  0  0  0  0  0
  145.5338  145.4086  157.4112 H   0  0  0  0  0  0  0  0  0  0  0  0
  144.5800  143.1089  157.7650 H   0  0  0  0  0  0  0  0  0  0  0  0
  143.2542  143.4813  156.7044 H   0  0  0  0  0  0  0  0  0  0  0  0
  147.7214  140.2393  155.5571 H   0  0  0  0  0  0  0  0  0  0  0  0
  147.5094  140.1897  153.8219 H   0  0  0  0  0  0  0  0  0  0  0  0
  149.8625  140.6755  154.1396 H   0  0  0  0  0  0  0  0  0  0  0  0
  149.1438  142.2045  153.6885 H   0  0  0  0  0  0  0  0  0  0  0  0
  149.1841  142.9168  155.9898 H   0  0  0  0  0  0  0  0  0  0  0  0
  150.0781  142.5448  158.2940 H   0  0  0  0  0  0  0  0  0  0  0  0
  152.4228  143.7059  156.7097 H   0  0  0  0  0  0  0  0  0  0  0  0
  150.7999  144.3513  156.7539 H   0  0  0  0  0  0  0  0  0  0  0  0
  152.3168  145.5800  158.3061 H   0  0  0  0  0  0  0  0  0  0  0  0
  150.9978  144.8261  159.1690 H   0  0  0  0  0  0  0  0  0  0  0  0
  153.8541  143.7572  158.9487 H   0  0  0  0  0  0  0  0  0  0  0  0
  153.1132  144.4281  160.3822 H   0  0  0  0  0  0  0  0  0  0  0  0
  153.1220  141.9240  160.4336 H   0  0  0  0  0  0  0  0  0  0  0  0
  151.4962  142.5618  160.4859 H   0  0  0  0  0  0  0  0  0  0  0  0
  151.6075  140.6834  158.8888 H   0  0  0  0  0  0  0  0  0  0  0  0
  152.9201  141.4452  158.0243 H   0  0  0  0  0  0  0  0  0  0  0  0
  144.2746  145.7157  154.5992 H   0  0  0  0  0  0  0  0  0  0  0  0
  143.2436  144.5484  153.7688 H   0  0  0  0  0  0  0  0  0  0  0  0
  144.6481  145.2296  152.9474 H   0  0  0  0  0  0  0  0  0  0  0  0
  1  2  1  0  0  0  0
  1 20  1  0  0  0  0
  1 21  1  0  0  0  0
  1 22  1  0  0  0  0
  2  3  1  0  0  0  0
  2 23  1  0  0  0  0
  2 24  1  0  0  0  0
  3 18  2  0  0  0  0
  3  4  1  0  0  0  0
  4  5  2  0  0  0  0
  5  6  1  0  0  0  0
  5 17  1  0  0  0  0
  6  7  1  0  0  0  0
  6 25  1  0  0  0  0
  6 26  1  0  0  0  0
  7  8  1  0  0  0  0
  7 27  1  0  0  0  0
  7 28  1  0  0  0  0
  8  9  1  0  0  0  0
  8 29  1  0  0  0  0
  9 10  2  0  0  0  0
  9 11  1  0  0  0  0
 11 16  1  0  0  0  0
 11 12  1  0  0  0  0
 11 30  1  0  0  0  0
 12 13  1  0  0  0  0
 12 31  1  0  0  0  0
 12 32  1  0  0  0  0
 13 14  1  0  0  0  0
 13 33  1  0  0  0  0
 13 34  1  0  0  0  0
 14 15  1  0  0  0  0
 14 35  1  0  0  0  0
 14 36  1  0  0  0  0
 15 16  1  0  0  0  0
 15 37  1  0  0  0  0
 15 38  1  0  0  0  0
 16 39  1  0  0  0  0
 16 40  1  0  0  0  0
 17 18  1  0  0  0  0
 18 19  1  0  0  0  0
 19 41  1  0  0  0  0
 19 42  1  0  0  0  0
 19 43  1  0  0  0  0
M  END
> <s_m_source_file>
AV-unprocessed.smi

> <i_m_source_file_index>
1003

> <i_lp_mmshare_version>
43012

> <i_f3d_flags>
0

> <s_epik_input>
W0NIM11bQ0gyXWMxbmMoc2MxW0NIM10pW0NIMl1bQ0gyXVtOSF1DKD1PKVtDSF0yW0NIMl1bQ0gyXVtDSDJdW0NIMl1bQ0gyXTI=

> <s_epik_cmdline>
J2VwaWtfcHl0aG9uJywgJy1waCcsICc3LjAnLCAnLXRuJywgJzgnLCAnLW1hJywgJzIwMCcsICctbWV0YWxfYmluZGluZycsICctaW1hZScsICc8aW5maWxlLm1hZT4nLCAnLW9tYWUnLCAnPG91dGZpbGUubWFlPic=

> <r_epik_Ionization_Penalty>
0.00242092

> <r_epik_Ionization_Penalty_Charging>
0

> <r_epik_Ionization_Penalty_Neutral>
0.00242092

> <r_epik_State_Penalty>
0.00167523

> <r_epik_Charging_Adjusted_Penalty>
0.00167523

> <i_epik_Tot_Q>
0

> <i_epik_Tot_abs_Q>
0

> <r_epik_Metal_State_Penalty>
-0

> <b_epik_Metal_Only>
0

> <s_lp_Force_Field>
OPLS_2005

> <r_lp_Energy>
0.647585

> <b_lp_Chiralities_Consistent>
1

> <s_lp_Variant>
AV-unprocessed.smi:1003-1

> <Gold.Version>
5.8.1

> <Gold.Id.Protein>
6NUR|6NUR_protein|mol2

> <Gold.PLP.Fitness>
45.5448

> <Gold.PLP.PLP>
-43.0651

> <Gold.PLP.part.hbond>
-1.0000

> <Gold.PLP.part.metal>
0.0000

> <Gold.PLP.part.buried>
-5.7163

> <Gold.PLP.part.nonpolar>
-35.7798

> <Gold.PLP.part.repulsive>
0.2875

> <Gold.PLP.ligand.clash>
0.0000

> <Gold.PLP.ligand.torsion>
0.2728

> <Gold.PLP.Chemscore.Hbond>
0.9920

> <Gold.PLP.Chemscore.CHOScore>
0.0000

> <Gold.PLP.Chemscore.Metal>
0.0000

> <Gold.Chemscore.Hbonds>
donor molecule, donor type, donor heavy atom, donor atom, acceptor molecule, acceptor atom, score
      L1  H     8    29       P1  8028  0.94

> <Gold.PLP.Chemscore.Internal.Correction>
0.0493

> <Gold.Rescore>
     Score         DG    S(hbond)    S(metal)    S(lipo)     H(rot)  DE(clash)    DE(int)     intcor
     18.20     -18.65       0.99        0.00     115.07       1.40       0.28       0.17       ----

> <Gold.Chemscore.Fitness>
18.1993

> <Gold.Chemscore.DG>
-18.6521

> <Gold.Chemscore.ZeroCoef>
-5.4800

> <Gold.Chemscore.Hbond>
0.9850

> <Gold.Chemscore.Metal>
0.0000

> <Gold.Chemscore.Lipo>
115.0691

> <Gold.Chemscore.Internal_Hbond>
0.0000

> <Gold.Chemscore.DEClash>
0.2801

> <Gold.Chemscore.DEInternal>
0.1727

> <Gold.Chemscore.Rot>
1.3988

> <Gold.Chemscore.Internal.Correction>
   9.000000E+99

> <Gold.Chemscore.Hbonds>
donor molecule, donor type, donor heavy atom, donor atom, acceptor molecule, acceptor atom, score
      L1  H     8    29       P1  8028  0.91

> <Gold.Chemscore.Hbond.Weighted>
-3.2901

> <Gold.Chemscore.Metal.Weighted>
-0.0000

> <Gold.Chemscore.Lipo.Weighted>
-13.4631

> <Gold.Chemscore.Internal_Hbond.Weighted>
0.0000

> <Gold.Chemscore.DEClash.Weighted>
0.2801

> <Gold.Chemscore.DEInternal.Weighted>
0.1727

> <Gold.Chemscore.Rot.Weighted>
3.5810

> <Gold.Chemscore.Internal.Correction.Weighted>
   9.000000E+99

> <Gold.Protein.RotatedTorsions>
[ 6907 6896 6895 6894 ] final  143.31 input  -60.11 | X-H torsion
[ 7974 7965 7964 7962 ] final  144.77 input  175.53 | X-H torsion
[ 8008 7997 7996 7995 ] final -156.78 input   59.86 | X-H torsion
[ 10167 10162 10161 10158 ] final  -68.78 input  -65.29 | X-H torsion
[ 10718 10713 10712 10709 ] final  149.65 input   66.30 | X-H torsion
[ 10763 10752 10751 10750 ] final -101.94 input  -60.55 | X-H torsion
[ 11005 11000 10999 10996 ] final   84.39 input  -57.11 | X-H torsion

> <Gold.Protein.ActiveResidues>
 VAL166  LYS551  ARG553  GLY616  TRP617  ASP618  TYR619  PRO620  LYS621  CYS622 
 ASP623  PHE694  ASN695  SER759  ASP760  ASP761  ALA762  ILE779  LEU786  VAL792 
 PHE793  MET794  SER795  GLU796  ALA797  LYS798  CYS799  TRP800  GLU811  SER814 

> <Gold.Protein.RotatedAtoms>
  152.2078  133.4889  159.5093 H   0  0  0  0  0  0  0  0  0  0  0  0  # atno 6907 bound_to 6896
  150.6983  134.1506  159.4148 H   0  0  0  0  0  0  0  0  0  0  0  0  # atno 6908 bound_to 6896
  151.9425  135.0206  160.0587 H   0  0  0  0  0  0  0  0  0  0  0  0  # atno 6909 bound_to 6896
  144.8807  139.5703  143.5844 H   0  0  0  0  0  0  0  0  0  0  0  0  # atno 7974 bound_to 7965
  155.7224  140.0791  157.2325 H   0  0  0  0  0  0  0  0  0  0  0  0  # atno 8008 bound_to 7997
  154.4043  140.1610  156.2471 H   0  0  0  0  0  0  0  0  0  0  0  0  # atno 8009 bound_to 7997
  155.9184  140.3399  155.6156 H   0  0  0  0  0  0  0  0  0  0  0  0  # atno 8010 bound_to 7997
  140.5481  143.2312  151.6963 H   0  0  0  0  0  0  0  0  0  0  0  0  # atno 10167 bound_to 10162
  157.2934  131.0857  151.1445 H   0  0  0  0  0  0  0  0  0  0  0  0  # atno 10718 bound_to 10713
  154.7696  135.4879  153.9622 H   0  0  0  0  0  0  0  0  0  0  0  0  # atno 10763 bound_to 10752
  153.1350  135.6761  153.9124 H   0  0  0  0  0  0  0  0  0  0  0  0  # atno 10764 bound_to 10752
  153.8816  135.3131  155.3424 H   0  0  0  0  0  0  0  0  0  0  0  0  # atno 10765 bound_to 10752
  139.9002  134.8213  156.2439 H   0  0  0  0  0  0  0  0  0  0  0  0  # atno 11005 bound_to 11000
  146.2993  139.7375  142.9103 LP  0  0  0  0  0  0  0  0  0  0  0  0  # atno 17320 bound_to 7965
  145.3959  141.0379  143.3098 LP  0  0  0  0  0  0  0  0  0  0  0  0  # atno 17321 bound_to 7965
  139.5016  144.3862  152.0326 LP  0  0  0  0  0  0  0  0  0  0  0  0  # atno 17342 bound_to 10162
  140.2977  144.3682  150.6069 LP  0  0  0  0  0  0  0  0  0  0  0  0  # atno 17343 bound_to 10162
  157.2832  130.6760  149.6076 LP  0  0  0  0  0  0  0  0  0  0  0  0  # atno 17370 bound_to 10713
  155.9668  130.4443  150.5457 LP  0  0  0  0  0  0  0  0  0  0  0  0  # atno 17371 bound_to 10713
  141.0267  133.7011  156.1360 LP  0  0  0  0  0  0  0  0  0  0  0  0  # atno 17394 bound_to 11000
  140.7155  134.4415  157.5579 LP  0  0  0  0  0  0  0  0  0  0  0  0  # atno 17395 bound_to 11000

$$$$
