AV-unprocessed.smi:763|AV-procd|sdf|3641|dock9
  -GOLD-   22720 1 43D 1   1.00000     0.00000
 Structure written by MMmdl.
 43 44  0  0  0  0  0  0  0  0  2 V2000
  151.6960  145.3746  159.3616 C   0  0  0  0  0  0  0  0  0  0  0  0
  150.9530  144.3692  158.6952 O   0  0  0  0  0  0  0  0  0  0  0  0
  151.7815  143.4636  157.9852 C   0  0  0  0  0  0  0  0  0  0  0  0
  150.9107  142.3708  157.3598 C   0  0  0  0  0  0  0  0  0  0  0  0
  151.6492  141.1538  157.3545 O   0  0  0  0  0  0  0  0  0  0  0  0
  151.4048  140.2259  156.3584 C   0  0  0  0  0  0  0  0  0  0  0  0
  150.5100  140.5517  155.3912 N   0  0  0  0  0  0  0  0  0  0  0  0
  150.2632  139.6566  154.4155 C   0  0  0  0  0  0  0  0  0  0  0  0
  150.8890  138.4008  154.3527 C   0  0  0  0  0  0  0  0  0  0  0  0
  151.8154  138.0682  155.3572 C   0  0  0  0  0  0  0  0  0  0  0  0
  152.0961  138.9884  156.3970 C   0  0  0  0  0  0  0  0  0  0  0  0
  152.9681  138.7338  157.3871 N   0  5  0  0  0  0  0  0  0  0  0  0
  153.3269  137.2828  158.0086 S   0  0  0  0  0  0  0  0  0  0  0  0
  152.1130  136.5390  158.3798 O   0  0  0  0  0  0  0  0  0  0  0  0
  154.3210  136.5748  157.1874 O   0  0  0  0  0  0  0  0  0  0  0  0
  154.1828  137.7467  159.5950 C   0  0  1  0  0  0  0  0  0  0  0  0
  154.0025  139.2533  159.8791 C   0  0  0  0  0  0  0  0  0  0  0  0
  154.6881  139.6742  161.1876 C   0  0  0  0  0  0  0  0  0  0  0  0
  154.1888  138.8289  162.3680 C   0  0  0  0  0  0  0  0  0  0  0  0
  154.4154  137.3335  162.1045 C   0  0  0  0  0  0  0  0  0  0  0  0
  153.7378  136.8767  160.7989 C   0  0  2  0  0  0  0  0  0  0  0  0
  154.0776  135.5201  160.5968 O   0  0  0  0  0  0  0  0  0  0  0  0
  151.0167  146.0438  159.8896 H   0  0  0  0  0  0  0  0  0  0  0  0
  152.2742  145.9714  158.6549 H   0  0  0  0  0  0  0  0  0  0  0  0
  152.3783  144.9409  160.0938 H   0  0  0  0  0  0  0  0  0  0  0  0
  152.3311  143.9922  157.2045 H   0  0  0  0  0  0  0  0  0  0  0  0
  152.5137  143.0157  158.6591 H   0  0  0  0  0  0  0  0  0  0  0  0
  149.9914  142.2572  157.9364 H   0  0  0  0  0  0  0  0  0  0  0  0
  150.6408  142.6544  156.3412 H   0  0  0  0  0  0  0  0  0  0  0  0
  149.5459  139.9502  153.6634 H   0  0  0  0  0  0  0  0  0  0  0  0
  150.6657  137.7085  153.5546 H   0  0  0  0  0  0  0  0  0  0  0  0
  152.3014  137.1047  155.3149 H   0  0  0  0  0  0  0  0  0  0  0  0
  155.2448  137.5710  159.4203 H   0  0  0  0  0  0  0  0  0  0  0  0
  154.4033  139.8423  159.0542 H   0  0  0  0  0  0  0  0  0  0  0  0
  152.9409  139.4946  159.9401 H   0  0  0  0  0  0  0  0  0  0  0  0
  155.7687  139.5642  161.0877 H   0  0  0  0  0  0  0  0  0  0  0  0
  154.5007  140.7307  161.3814 H   0  0  0  0  0  0  0  0  0  0  0  0
  154.7024  139.1268  163.2823 H   0  0  0  0  0  0  0  0  0  0  0  0
  153.1269  139.0164  162.5320 H   0  0  0  0  0  0  0  0  0  0  0  0
  155.4877  137.1384  162.0519 H   0  0  0  0  0  0  0  0  0  0  0  0
  154.0369  136.7506  162.9451 H   0  0  0  0  0  0  0  0  0  0  0  0
  152.6568  136.9419  160.9252 H   0  0  0  0  0  0  0  0  0  0  0  0
  154.7426  135.2841  161.2272 H   0  0  0  0  0  0  0  0  0  0  0  0
  1  2  1  0  0  0  0
  1 23  1  0  0  0  0
  1 24  1  0  0  0  0
  1 25  1  0  0  0  0
  2  3  1  0  0  0  0
  3  4  1  0  0  0  0
  3 26  1  0  0  0  0
  3 27  1  0  0  0  0
  4  5  1  0  0  0  0
  4 28  1  0  0  0  0
  4 29  1  0  0  0  0
  5  6  1  0  0  0  0
  6 11  1  0  0  0  0
  6  7  2  0  0  0  0
  7  8  1  0  0  0  0
  8  9  2  0  0  0  0
  8 30  1  0  0  0  0
  9 10  1  0  0  0  0
  9 31  1  0  0  0  0
 10 11  2  0  0  0  0
 10 32  1  0  0  0  0
 11 12  1  0  0  0  0
 12 13  1  0  0  0  0
 13 14  2  0  0  0  0
 13 15  2  0  0  0  0
 13 16  1  0  0  0  0
 16 21  1  0  0  0  0
 16 17  1  0  0  0  0
 16 33  1  0  0  0  0
 17 18  1  0  0  0  0
 17 34  1  0  0  0  0
 17 35  1  0  0  0  0
 18 19  1  0  0  0  0
 18 36  1  0  0  0  0
 18 37  1  0  0  0  0
 19 20  1  0  0  0  0
 19 38  1  0  0  0  0
 19 39  1  0  0  0  0
 20 21  1  0  0  0  0
 20 40  1  0  0  0  0
 20 41  1  0  0  0  0
 21 22  1  0  0  0  0
 21 42  1  0  0  0  0
 22 43  1  0  0  0  0
M  CHG  1  12  -1
M  END
> <s_m_source_file>
AV-unprocessed.smi

> <i_m_source_file_index>
763

> <i_lp_mmshare_version>
43012

> <i_f3d_flags>
0

> <s_epik_input>
W0NIM11PW0NIMl1bQ0gyXU9jMW5bY0hdW2NIXVtjSF1jMVtOSF1TKD1PKSg9TylbQ0BASF0yW0NIMl1bQ0gyXVtDSDJdW0NIMl1bQ0BIXTJbT0hd

> <s_epik_cmdline>
J2VwaWtfcHl0aG9uJywgJy1waCcsICc3LjAnLCAnLXRuJywgJzgnLCAnLW1hJywgJzIwMCcsICctbWV0YWxfYmluZGluZycsICctaW1hZScsICc8aW5maWxlLm1hZT4nLCAnLW9tYWUnLCAnPG91dGZpbGUubWFlPic=

> <r_epik_Ionization_Penalty>
0.985866

> <r_epik_Ionization_Penalty_Charging>
0.984689

> <r_epik_Ionization_Penalty_Neutral>
0.00117669

> <r_epik_State_Penalty>
1.03185

> <r_epik_Charging_Adjusted_Penalty>
2.01654

> <i_epik_Tot_Q>
-1

> <i_epik_Tot_abs_Q>
1

> <r_epik_Metal_State_Penalty>
0.379327

> <b_epik_Metal_Only>
0

> <s_lp_Force_Field>
OPLS_2005

> <r_lp_Energy>
12.3321

> <b_lp_Chiralities_Consistent>
1

> <s_lp_Variant>
AV-unprocessed.smi:763-8

> <Gold.Version>
5.8.1

> <Gold.Id.Protein>
6NUR|6NUR_protein|mol2

> <Gold.PLP.Fitness>
49.1273

> <Gold.PLP.PLP>
-36.5580

> <Gold.PLP.part.hbond>
-4.8299

> <Gold.PLP.part.metal>
0.0000

> <Gold.PLP.part.buried>
-4.0274

> <Gold.PLP.part.nonpolar>
-28.4433

> <Gold.PLP.part.repulsive>
0.1770

> <Gold.PLP.ligand.clash>
0.0809

> <Gold.PLP.ligand.torsion>
1.7245

> <Gold.PLP.Chemscore.Hbond>
4.0000

> <Gold.PLP.Chemscore.CHOScore>
1.0000

> <Gold.PLP.Chemscore.Metal>
0.0000

> <Gold.Chemscore.Hbonds>
donor molecule, donor type, donor heavy atom, donor atom, acceptor molecule, acceptor atom, score
      P1  H  6896  6909       L1    22  1.00
      P1  H  7997  8008       L1    12  1.66
      P1  H 10752 10764       L1    15  0.55
      L1  C     8    30       P1  7957  1.00

> <Gold.PLP.Chemscore.Internal.Correction>
1.0991

> <Gold.Rescore>
     Score         DG    S(hbond)    S(metal)    S(lipo)     H(rot)  DE(clash)    DE(int)     intcor
     17.77     -19.17       2.54        0.00      96.03       2.35       0.03       1.37       ----

> <Gold.Chemscore.Fitness>
17.7720

> <Gold.Chemscore.DG>
-19.1711

> <Gold.Chemscore.ZeroCoef>
-5.4800

> <Gold.Chemscore.Hbond>
2.5371

> <Gold.Chemscore.Metal>
0.0000

> <Gold.Chemscore.Lipo>
96.0297

> <Gold.Chemscore.Internal_Hbond>
0.0000

> <Gold.Chemscore.DEClash>
0.0308

> <Gold.Chemscore.DEInternal>
1.3683

> <Gold.Chemscore.Rot>
2.3509

> <Gold.Chemscore.Internal.Correction>
   9.000000E+99

> <Gold.Chemscore.Hbonds>
donor molecule, donor type, donor heavy atom, donor atom, acceptor molecule, acceptor atom, score
      P1  H  6896  6908       L1    14  0.01
      P1  H  6896  6909       L1    22  0.77
      P1  H  7997  8008       L1    12  0.34
      P1  H 10752 10764       L1    15  0.54

> <Gold.Chemscore.Hbond.Weighted>
-8.4739

> <Gold.Chemscore.Metal.Weighted>
-0.0000

> <Gold.Chemscore.Lipo.Weighted>
-11.2355

> <Gold.Chemscore.Internal_Hbond.Weighted>
0.0000

> <Gold.Chemscore.DEClash.Weighted>
0.0308

> <Gold.Chemscore.DEInternal.Weighted>
1.3683

> <Gold.Chemscore.Rot.Weighted>
6.0182

> <Gold.Chemscore.Internal.Correction.Weighted>
   9.000000E+99

> <Gold.Protein.RotatedTorsions>
[ 6907 6896 6895 6894 ] final -168.07 input  -60.11 | X-H torsion
[ 7974 7965 7964 7962 ] final -151.06 input  175.53 | X-H torsion
[ 8008 7997 7996 7995 ] final  -84.82 input   59.86 | X-H torsion
[ 10167 10162 10161 10158 ] final -102.44 input  -65.29 | X-H torsion
[ 10718 10713 10712 10709 ] final   52.80 input   66.30 | X-H torsion
[ 10763 10752 10751 10750 ] final   32.50 input  -60.55 | X-H torsion
[ 11005 11000 10999 10996 ] final -124.24 input  -57.11 | X-H torsion

> <Gold.Protein.ActiveResidues>
 VAL166  LYS551  ARG553  GLY616  TRP617  ASP618  TYR619  PRO620  LYS621  CYS622 
 ASP623  PHE694  ASN695  SER759  ASP760  ASP761  ALA762  ILE779  LEU786  VAL792 
 PHE793  MET794  SER795  GLU796  ALA797  LYS798  CYS799  TRP800  GLU811  SER814 

> <Gold.Protein.RotatedAtoms>
  151.4697  133.3572  159.2821 H   0  0  0  0  0  0  0  0  0  0  0  0  # atno 6907 bound_to 6896
  150.8969  134.8380  159.7344 H   0  0  0  0  0  0  0  0  0  0  0  0  # atno 6908 bound_to 6896
  152.4856  134.4613  159.9658 H   0  0  0  0  0  0  0  0  0  0  0  0  # atno 6909 bound_to 6896
  144.7871  140.4848  143.5798 H   0  0  0  0  0  0  0  0  0  0  0  0  # atno 7974 bound_to 7965
  154.6340  140.0600  156.9766 H   0  0  0  0  0  0  0  0  0  0  0  0  # atno 8008 bound_to 7997
  155.1621  140.3283  155.4391 H   0  0  0  0  0  0  0  0  0  0  0  0  # atno 8009 bound_to 7997
  156.2497  140.1929  156.6728 H   0  0  0  0  0  0  0  0  0  0  0  0  # atno 8010 bound_to 7997
  140.2307  143.3609  152.0889 H   0  0  0  0  0  0  0  0  0  0  0  0  # atno 10167 bound_to 10162
  157.5108  130.8500  149.8433 H   0  0  0  0  0  0  0  0  0  0  0  0  # atno 10718 bound_to 10713
  153.0259  135.6411  154.1364 H   0  0  0  0  0  0  0  0  0  0  0  0  # atno 10763 bound_to 10752
  154.1093  135.2854  155.3236 H   0  0  0  0  0  0  0  0  0  0  0  0  # atno 10764 bound_to 10752
  154.6343  135.5482  153.7779 H   0  0  0  0  0  0  0  0  0  0  0  0  # atno 10765 bound_to 10752
  140.9856  134.0611  157.3714 H   0  0  0  0  0  0  0  0  0  0  0  0  # atno 11005 bound_to 11000
  145.5892  139.1494  143.3192 LP  0  0  0  0  0  0  0  0  0  0  0  0  # atno 17320 bound_to 7965
  146.2108  140.6019  142.9060 LP  0  0  0  0  0  0  0  0  0  0  0  0  # atno 17321 bound_to 7965
  139.5111  144.6895  151.5798 LP  0  0  0  0  0  0  0  0  0  0  0  0  # atno 17342 bound_to 10162
  140.6187  143.9299  150.6509 LP  0  0  0  0  0  0  0  0  0  0  0  0  # atno 17343 bound_to 10162
  156.0288  130.3771  150.1746 LP  0  0  0  0  0  0  0  0  0  0  0  0  # atno 17370 bound_to 10713
  156.9936  130.9901  151.3408 LP  0  0  0  0  0  0  0  0  0  0  0  0  # atno 17371 bound_to 10713
  139.8969  135.0148  156.7075 LP  0  0  0  0  0  0  0  0  0  0  0  0  # atno 17394 bound_to 11000
  140.7119  133.9216  155.8090 LP  0  0  0  0  0  0  0  0  0  0  0  0  # atno 17395 bound_to 11000

$$$$
