AV-unprocessed.smi:283|AV-procd|sdf|2143|dock7
  -GOLD-   2262021473D 1   1.00000     0.00000
 Structure written by MMmdl.
 48 51  0  0  0  0  0  0  0  0  1 V2000
  151.4601  141.1984  156.4037 C   0  0  0  0  0  0  0  0  0  0  0  0
  150.3580  141.8962  157.2116 C   0  0  2  0  0  0  0  0  0  0  0  0
  149.2149  142.1871  156.3474 N   0  0  0  0  0  0  0  0  0  0  0  0
  148.3141  141.2273  156.0390 C   0  0  0  0  0  0  0  0  0  0  0  0
  147.6570  140.5407  157.0101 N   0  0  0  0  0  0  0  0  0  0  0  0
  146.7700  139.5983  156.6787 C   0  0  0  0  0  0  0  0  0  0  0  0
  146.4002  139.1922  155.4619 N   0  0  0  0  0  0  0  0  0  0  0  0
  147.0607  139.8751  154.4825 C   0  0  0  0  0  0  0  0  0  0  0  0
  148.0277  140.8980  154.6891 C   0  0  0  0  0  0  0  0  0  0  0  0
  148.4892  141.3642  153.4651 N   0  0  0  0  0  0  0  0  0  0  0  0
  147.8313  140.6538  152.5886 C   0  0  0  0  0  0  0  0  0  0  0  0
  146.9464  139.7382  153.1139 N   0  0  0  0  0  0  0  0  0  0  0  0
  146.0597  138.7966  152.3666 C   0  0  1  0  0  0  0  0  0  0  0  0
  146.8341  138.1346  151.4166 O   0  0  0  0  0  0  0  0  0  0  0  0
  146.4045  136.7838  151.2857 C   0  0  2  0  0  0  0  0  0  0  0  0
  145.2825  136.7097  150.2313 C   0  0  0  0  0  0  0  0  0  0  0  0
  145.7448  137.2224  149.0004 O   0  0  0  0  0  0  0  0  0  0  0  0
  145.9207  136.4212  152.6969 C   0  0  1  0  0  0  0  0  0  0  0  0
  146.9996  135.8803  153.4331 O   0  0  0  0  0  0  0  0  0  0  0  0
  145.4526  137.7416  153.3059 C   0  0  2  0  0  0  0  0  0  0  0  0
  144.0400  137.7952  153.2810 O   0  0  0  0  0  0  0  0  0  0  0  0
  150.9233  143.1158  157.9437 C   0  0  0  0  0  0  0  0  0  0  0  0
  152.2669  143.5030  157.7294 C   0  0  0  0  0  0  0  0  0  0  0  0
  152.8070  144.6200  158.3940 C   0  0  0  0  0  0  0  0  0  0  0  0
  152.0105  145.3590  159.2870 C   0  0  0  0  0  0  0  0  0  0  0  0
  150.6761  144.9763  159.5168 C   0  0  0  0  0  0  0  0  0  0  0  0
  150.1296  143.8591  158.8535 C   0  0  0  0  0  0  0  0  0  0  0  0
  148.4880  143.4283  159.1844 Cl  0  0  0  0  0  0  0  0  0  0  0  0
  145.3181  139.4319  151.8794 H   0  0  0  0  0  0  0  0  0  0  0  0
  147.2341  136.1438  150.9795 H   0  0  0  0  0  0  0  0  0  0  0  0
  145.1360  135.6631  152.6810 H   0  0  0  0  0  0  0  0  0  0  0  0
  145.7989  137.8735  154.3327 H   0  0  0  0  0  0  0  0  0  0  0  0
  152.2863  140.8969  157.0486 H   0  0  0  0  0  0  0  0  0  0  0  0
  151.8631  141.8544  155.6312 H   0  0  0  0  0  0  0  0  0  0  0  0
  151.0814  140.3001  155.9148 H   0  0  0  0  0  0  0  0  0  0  0  0
  149.9985  141.1790  157.9487 H   0  0  0  0  0  0  0  0  0  0  0  0
  149.0645  143.1632  156.1363 H   0  0  0  0  0  0  0  0  0  0  0  0
  146.2879  139.0989  157.5063 H   0  0  0  0  0  0  0  0  0  0  0  0
  147.9727  140.7827  151.5253 H   0  0  0  0  0  0  0  0  0  0  0  0
  144.9950  135.6720  150.0594 H   0  0  0  0  0  0  0  0  0  0  0  0
  144.3854  137.2424  150.5481 H   0  0  0  0  0  0  0  0  0  0  0  0
  145.2186  137.9738  148.7724 H   0  0  0  0  0  0  0  0  0  0  0  0
  147.7369  135.7766  152.8495 H   0  0  0  0  0  0  0  0  0  0  0  0
  143.7758  138.6970  153.1801 H   0  0  0  0  0  0  0  0  0  0  0  0
  152.8937  142.9436  157.0505 H   0  0  0  0  0  0  0  0  0  0  0  0
  153.8330  144.9087  158.2192 H   0  0  0  0  0  0  0  0  0  0  0  0
  152.4234  146.2164  159.7981 H   0  0  0  0  0  0  0  0  0  0  0  0
  150.0693  145.5430  160.2078 H   0  0  0  0  0  0  0  0  0  0  0  0
  1  2  1  0  0  0  0
  1 33  1  0  0  0  0
  1 34  1  0  0  0  0
  1 35  1  0  0  0  0
  2  3  1  0  0  0  0
  2 22  1  0  0  0  0
  2 36  1  0  0  0  0
  3  4  1  0  0  0  0
  3 37  1  0  0  0  0
  4  9  1  0  0  0  0
  4  5  2  0  0  0  0
  5  6  1  0  0  0  0
  6  7  2  0  0  0  0
  6 38  1  0  0  0  0
  7  8  1  0  0  0  0
  8 12  1  0  0  0  0
  8  9  2  0  0  0  0
  9 10  1  0  0  0  0
 10 11  2  0  0  0  0
 11 12  1  0  0  0  0
 11 39  1  0  0  0  0
 12 13  1  0  0  0  0
 13 29  1  0  0  0  0
 13 20  1  0  0  0  0
 13 14  1  0  0  0  0
 14 15  1  0  0  0  0
 15 30  1  0  0  0  0
 15 16  1  0  0  0  0
 15 18  1  0  0  0  0
 16 17  1  0  0  0  0
 16 40  1  0  0  0  0
 16 41  1  0  0  0  0
 17 42  1  0  0  0  0
 18 31  1  0  0  0  0
 18 19  1  0  0  0  0
 18 20  1  0  0  0  0
 19 43  1  0  0  0  0
 20 32  1  0  0  0  0
 20 21  1  0  0  0  0
 21 44  1  0  0  0  0
 22 27  1  0  0  0  0
 22 23  2  0  0  0  0
 23 24  1  0  0  0  0
 23 45  1  0  0  0  0
 24 25  2  0  0  0  0
 24 46  1  0  0  0  0
 25 26  1  0  0  0  0
 25 47  1  0  0  0  0
 26 27  2  0  0  0  0
 26 48  1  0  0  0  0
 27 28  1  0  0  0  0
M  END
> <s_m_source_file>
AV-unprocessed.smi

> <i_m_source_file_index>
283

> <i_lp_mmshare_version>
43012

> <i_f3d_flags>
0

> <s_epik_input>
Q2xjMVtjSF1bY0hdW2NIXVtjSF1jMVtDQEhdKFtDSDNdKVtOSF1jKG5bY0hdbjIpYyhjMjMpbltjSF1uM1tDQEBIXTRPW0NASF0oW0NIMl1bT0hdKVtDQEBIXShbT0hdKVtDQEhdNFtPSF0=

> <s_epik_cmdline>
J2VwaWtfcHl0aG9uJywgJy1waCcsICc3LjAnLCAnLXRuJywgJzgnLCAnLW1hJywgJzIwMCcsICctbWV0YWxfYmluZGluZycsICctaW1hZScsICc8aW5maWxlLm1hZT4nLCAnLW9tYWUnLCAnPG91dGZpbGUubWFlPic=

> <r_lp_tautomer_probability>
1

> <r_epik_Ionization_Penalty>
0.000266407

> <r_epik_Ionization_Penalty_Charging>
0

> <r_epik_Ionization_Penalty_Neutral>
0.000266407

> <r_epik_State_Penalty>
-0

> <r_epik_Charging_Adjusted_Penalty>
0

> <i_epik_Tot_Q>
0

> <i_epik_Tot_abs_Q>
0

> <r_epik_Metal_State_Penalty>
-0

> <b_epik_Metal_Only>
0

> <s_epik_Chemistry_Notes>
This compound contains an acetal/aminal-like group ( X-CH(R)-Y where X, Y are N, S, or O) that may be acid/base labile, releasing an aldehyde.

> <s_lp_Force_Field>
OPLS_2005

> <r_lp_Energy>
39.2487

> <b_lp_Chiralities_Consistent>
1

> <s_lp_Variant>
AV-unprocessed.smi:283-19

> <Gold.Version>
5.8.1

> <Gold.Id.Protein>
6NUR|6NUR_protein|mol2

> <Gold.PLP.Fitness>
45.7944

> <Gold.PLP.PLP>
-33.0724

> <Gold.PLP.part.hbond>
-7.7086

> <Gold.PLP.part.metal>
0.0000

> <Gold.PLP.part.buried>
10.3438

> <Gold.PLP.part.nonpolar>
-39.3284

> <Gold.PLP.part.repulsive>
3.7608

> <Gold.PLP.ligand.clash>
0.0000

> <Gold.PLP.ligand.torsion>
1.1114

> <Gold.PLP.Chemscore.Hbond>
4.7590

> <Gold.PLP.Chemscore.CHOScore>
0.1909

> <Gold.PLP.Chemscore.Metal>
0.0000

> <Gold.Chemscore.Hbonds>
donor molecule, donor type, donor heavy atom, donor atom, acceptor molecule, acceptor atom, score
      L1  H     3    37       P1  8028  1.00
      L1  H    17    42       P1 10171  0.50
      L1  H    19    43       P1  7948  1.00
      L1  H    21    44       P1 10175  1.00
      P1  H  7954  7966       L1    14  0.49
      P1  H  8011  8017       L1    10  0.80
      L1  C    11    39       P1  7957  0.22

> <Gold.PLP.Chemscore.Internal.Correction>
0.0951

> <Gold.Rescore>
     Score         DG    S(hbond)    S(metal)    S(lipo)     H(rot)  DE(clash)    DE(int)     intcor
     10.30     -20.10       3.63        0.00     110.93       4.10       7.22       2.58       ----

> <Gold.Chemscore.Fitness>
10.3036

> <Gold.Chemscore.DG>
-20.1036

> <Gold.Chemscore.ZeroCoef>
-5.4800

> <Gold.Chemscore.Hbond>
3.6327

> <Gold.Chemscore.Metal>
0.0000

> <Gold.Chemscore.Lipo>
110.9261

> <Gold.Chemscore.Internal_Hbond>
0.0000

> <Gold.Chemscore.DEClash>
7.2177

> <Gold.Chemscore.DEInternal>
2.5823

> <Gold.Chemscore.Rot>
4.0968

> <Gold.Chemscore.Internal.Correction>
   9.000000E+99

> <Gold.Chemscore.Hbonds>
donor molecule, donor type, donor heavy atom, donor atom, acceptor molecule, acceptor atom, score
      L1  H     3    37       P1  8028  1.00
      L1  H    17    42       P1 10171  0.49
      L1  H    19    43       P1  7948  0.99
      L1  H    21    44       P1 10175  0.99
      P1  H  7954  7966       L1    14  0.02
      P1  H  8011  8017       L1    10  0.30

> <Gold.Chemscore.Hbond.Weighted>
-12.1332

> <Gold.Chemscore.Metal.Weighted>
-0.0000

> <Gold.Chemscore.Lipo.Weighted>
-12.9783

> <Gold.Chemscore.Internal_Hbond.Weighted>
0.0000

> <Gold.Chemscore.DEClash.Weighted>
7.2177

> <Gold.Chemscore.DEInternal.Weighted>
2.5823

> <Gold.Chemscore.Rot.Weighted>
10.4879

> <Gold.Chemscore.Internal.Correction.Weighted>
   9.000000E+99

> <Gold.Protein.RotatedTorsions>
[ 6907 6896 6895 6894 ] final  130.34 input  -60.11 | X-H torsion
[ 7974 7965 7964 7962 ] final -139.93 input  175.53 | X-H torsion
[ 8008 7997 7996 7995 ] final  133.16 input   59.86 | X-H torsion
[ 10167 10162 10161 10158 ] final  155.48 input  -65.29 | X-H torsion
[ 10718 10713 10712 10709 ] final   23.55 input   66.30 | X-H torsion
[ 10763 10752 10751 10750 ] final   31.25 input  -60.55 | X-H torsion
[ 11005 11000 10999 10996 ] final  -67.14 input  -57.11 | X-H torsion

> <Gold.Protein.ActiveResidues>
 VAL166  LYS551  ARG553  GLY616  TRP617  ASP618  TYR619  PRO620  LYS621  CYS622 
 ASP623  PHE694  ASN695  SER759  ASP760  ASP761  ALA762  ILE779  LEU786  VAL792 
 PHE793  MET794  SER795  GLU796  ALA797  LYS798  CYS799  TRP800  GLU811  SER814 

> <Gold.Protein.RotatedAtoms>
  152.3536  133.6209  159.5962 H   0  0  0  0  0  0  0  0  0  0  0  0  # atno 6907 bound_to 6896
  150.7554  133.9535  159.3502 H   0  0  0  0  0  0  0  0  0  0  0  0  # atno 6908 bound_to 6896
  151.7384  135.0860  160.0362 H   0  0  0  0  0  0  0  0  0  0  0  0  # atno 6909 bound_to 6896
  144.8638  140.6261  143.5311 H   0  0  0  0  0  0  0  0  0  0  0  0  # atno 7974 bound_to 7965
  156.2990  140.2528  156.3208 H   0  0  0  0  0  0  0  0  0  0  0  0  # atno 8008 bound_to 7997
  154.9237  140.0400  157.2030 H   0  0  0  0  0  0  0  0  0  0  0  0  # atno 8009 bound_to 7997
  154.8286  140.2872  155.5742 H   0  0  0  0  0  0  0  0  0  0  0  0  # atno 8010 bound_to 7997
  139.4821  144.5094  151.8047 H   0  0  0  0  0  0  0  0  0  0  0  0  # atno 10167 bound_to 10162
  157.1677  130.6745  149.6066 H   0  0  0  0  0  0  0  0  0  0  0  0  # atno 10718 bound_to 10713
  153.0326  135.6444  154.1170 H   0  0  0  0  0  0  0  0  0  0  0  0  # atno 10763 bound_to 10752
  154.0890  135.2867  155.3277 H   0  0  0  0  0  0  0  0  0  0  0  0  # atno 10764 bound_to 10752
  154.6478  135.5437  153.7929 H   0  0  0  0  0  0  0  0  0  0  0  0  # atno 10765 bound_to 10752
  141.1500  133.6713  156.6246 H   0  0  0  0  0  0  0  0  0  0  0  0  # atno 11005 bound_to 11000
  145.4261  139.1556  143.4047 LP  0  0  0  0  0  0  0  0  0  0  0  0  # atno 17320 bound_to 7965
  146.2880  140.4375  142.8750 LP  0  0  0  0  0  0  0  0  0  0  0  0  # atno 17321 bound_to 7965
  140.4596  144.1741  150.5905 LP  0  0  0  0  0  0  0  0  0  0  0  0  # atno 17342 bound_to 10162
  140.4499  143.2491  151.9362 LP  0  0  0  0  0  0  0  0  0  0  0  0  # atno 17343 bound_to 10162
  155.9743  130.4690  150.6379 LP  0  0  0  0  0  0  0  0  0  0  0  0  # atno 17370 bound_to 10713
  157.4073  131.0818  151.1253 LP  0  0  0  0  0  0  0  0  0  0  0  0  # atno 17371 bound_to 10713
  140.3513  134.7766  157.4469 LP  0  0  0  0  0  0  0  0  0  0  0  0  # atno 17394 bound_to 11000
  140.0858  134.5668  155.8494 LP  0  0  0  0  0  0  0  0  0  0  0  0  # atno 17395 bound_to 11000

$$$$
