AV-unprocessed.smi:72|AV-procd|sdf|715|dock3
  -GOLD-   2262017 43D 1   1.00000     0.00000
 Structure written by MMmdl.
 28 29  0  0  0  0  0  0  0  0  2 V2000
  150.4238  134.5774  157.0067 N   0  0  0  0  0  0  0  0  0  0  0  0
  150.3515  135.7028  156.4435 C   0  0  0  0  0  0  0  0  0  0  0  0
  149.1535  136.5023  156.5674 N   0  0  0  0  0  0  0  0  0  0  0  0
  149.1034  137.6205  155.9114 C   0  0  0  0  0  0  0  0  0  0  0  0
  150.1870  138.0542  155.0331 N   0  0  0  0  0  0  0  0  0  0  0  0
  150.1283  139.3822  154.2856 C   0  0  2  0  0  0  0  0  0  0  0  0
  151.0690  140.2721  154.8259 O   0  0  0  0  0  0  0  0  0  0  0  0
  150.4492  141.2836  155.6196 C   0  0  2  0  0  0  0  0  0  0  0  0
  150.3022  140.8228  157.0884 C   0  0  0  0  0  0  0  0  0  0  0  0
  149.6894  141.8397  157.8523 O   0  0  0  0  0  0  0  0  0  0  0  0
  149.1308  141.4876  154.8670 C   0  0  2  0  0  0  0  0  0  0  0  0
  148.1174  142.0729  155.6611 O   0  0  0  0  0  0  0  0  0  0  0  0
  148.7537  140.0834  154.4148 C   0  0  1  0  0  0  0  0  0  0  0  0
  148.0814  140.1613  153.1736 O   0  0  0  0  0  0  0  0  0  0  0  0
  151.3963  137.3036  155.0332 C   0  0  0  0  0  0  0  0  0  0  0  0
  152.3622  137.7503  154.4151 O   0  0  0  0  0  0  0  0  0  0  0  0
  151.4450  136.1318  155.7262 N   0  5  0  0  0  0  0  0  0  0  0  0
  150.4083  139.1297  153.2615 H   0  0  0  0  0  0  0  0  0  0  0  0
  151.0413  142.1990  155.5860 H   0  0  0  0  0  0  0  0  0  0  0  0
  149.3209  142.1256  154.0018 H   0  0  0  0  0  0  0  0  0  0  0  0
  148.1418  139.5841  155.1680 H   0  0  0  0  0  0  0  0  0  0  0  0
  151.3124  134.1251  156.8476 H   0  0  0  0  0  0  0  0  0  0  0  0
  148.2495  138.2943  155.9794 H   0  0  0  0  0  0  0  0  0  0  0  0
  149.6457  139.9555  157.1536 H   0  0  0  0  0  0  0  0  0  0  0  0
  151.2516  140.5266  157.5318 H   0  0  0  0  0  0  0  0  0  0  0  0
  149.4405  142.5421  157.2712 H   0  0  0  0  0  0  0  0  0  0  0  0
  148.2843  143.0018  155.7149 H   0  0  0  0  0  0  0  0  0  0  0  0
  148.6837  139.8909  152.4963 H   0  0  0  0  0  0  0  0  0  0  0  0
  1  2  2  0  0  0  0
  1 22  1  0  0  0  0
  2 17  1  0  0  0  0
  2  3  1  0  0  0  0
  3  4  2  0  0  0  0
  4  5  1  0  0  0  0
  4 23  1  0  0  0  0
  5  6  1  0  0  0  0
  5 15  1  0  0  0  0
  6 18  1  0  0  0  0
  6 13  1  0  0  0  0
  6  7  1  0  0  0  0
  7  8  1  0  0  0  0
  8 19  1  0  0  0  0
  8  9  1  0  0  0  0
  8 11  1  0  0  0  0
  9 10  1  0  0  0  0
  9 24  1  0  0  0  0
  9 25  1  0  0  0  0
 10 26  1  0  0  0  0
 11 20  1  0  0  0  0
 11 12  1  0  0  0  0
 11 13  1  0  0  0  0
 12 27  1  0  0  0  0
 13 21  1  0  0  0  0
 13 14  1  0  0  0  0
 14 28  1  0  0  0  0
 15 16  2  0  0  0  0
 15 17  1  0  0  0  0
M  CHG  1  17  -1
M  END
> <s_m_source_file>
AV-unprocessed.smi

> <i_m_source_file_index>
72

> <i_lp_mmshare_version>
43012

> <i_f3d_flags>
0

> <s_epik_input>
W05IMl1jMW5bY0hdbihjKD1PKW4xKVtDQEBIXTJPW0NASF0oW0NIMl1bT0hdKVtDQEBIXShbT0hdKVtDQEhdMltPSF0=

> <s_epik_cmdline>
J2VwaWtfcHl0aG9uJywgJy1waCcsICc3LjAnLCAnLXRuJywgJzgnLCAnLW1hJywgJzIwMCcsICctbWV0YWxfYmluZGluZycsICctaW1hZScsICc8aW5maWxlLm1hZT4nLCAnLW9tYWUnLCAnPG91dGZpbGUubWFlPic=

> <r_lp_tautomer_probability>
7.17554e-07

> <r_epik_Ionization_Penalty>
12.8705

> <r_epik_Ionization_Penalty_Charging>
5.64144

> <r_epik_Ionization_Penalty_Neutral>
7.22905

> <r_epik_State_Penalty>
3.30104

> <r_epik_Charging_Adjusted_Penalty>
8.94249

> <i_epik_Tot_Q>
-1

> <i_epik_Tot_abs_Q>
1

> <r_epik_Metal_State_Penalty>
0.529074

> <b_epik_Metal_Only>
1

> <s_epik_Chemistry_Notes>
This compound contains an acetal/aminal-like group ( X-CH(R)-Y where X, Y are N, S, or O) that may be acid/base labile, releasing an aldehyde.

> <s_lp_Force_Field>
OPLS_2005

> <r_lp_Energy>
34.2271

> <b_lp_Chiralities_Consistent>
1

> <s_lp_Variant>
AV-unprocessed.smi:72-53

> <Gold.Version>
5.8.1

> <Gold.Id.Protein>
6NUR|6NUR_protein|mol2

> <Gold.PLP.Fitness>
40.0664

> <Gold.PLP.PLP>
-25.1378

> <Gold.PLP.part.hbond>
-5.9538

> <Gold.PLP.part.metal>
0.0000

> <Gold.PLP.part.buried>
-3.7043

> <Gold.PLP.part.nonpolar>
-15.6631

> <Gold.PLP.part.repulsive>
0.2229

> <Gold.PLP.ligand.clash>
0.0000

> <Gold.PLP.ligand.torsion>
0.0837

> <Gold.PLP.Chemscore.Hbond>
5.0000

> <Gold.PLP.Chemscore.CHOScore>
0.0000

> <Gold.PLP.Chemscore.Metal>
0.0000

> <Gold.Chemscore.Hbonds>
donor molecule, donor type, donor heavy atom, donor atom, acceptor molecule, acceptor atom, score
      L1  H    12    27       P1  8028  1.00
      L1  H    14    28       P1  7957  1.00
      P1  H  7989  7998       L1     7  0.95
      P1  H 10752 10765       L1    17  1.80

> <Gold.PLP.Chemscore.Internal.Correction>
0.0960

> <Gold.Rescore>
     Score         DG    S(hbond)    S(metal)    S(lipo)     H(rot)  DE(clash)    DE(int)     intcor
      6.71      -8.45       3.10        0.00      25.15       4.04       0.36       1.38       ----

> <Gold.Chemscore.Fitness>
6.7084

> <Gold.Chemscore.DG>
-8.4463

> <Gold.Chemscore.ZeroCoef>
-5.4800

> <Gold.Chemscore.Hbond>
3.1038

> <Gold.Chemscore.Metal>
0.0000

> <Gold.Chemscore.Lipo>
25.1502

> <Gold.Chemscore.Internal_Hbond>
0.0000

> <Gold.Chemscore.DEClash>
0.3554

> <Gold.Chemscore.DEInternal>
1.3825

> <Gold.Chemscore.Rot>
4.0403

> <Gold.Chemscore.Internal.Correction>
   9.000000E+99

> <Gold.Chemscore.Hbonds>
donor molecule, donor type, donor heavy atom, donor atom, acceptor molecule, acceptor atom, score
      L1  H    12    27       P1  8028  0.94
      L1  H    14    28       P1  7957  0.98
      P1  H  7989  7998       L1     7  0.16
      P1  H 10752 10765       L1    17  0.18

> <Gold.Chemscore.Hbond.Weighted>
-10.3669

> <Gold.Chemscore.Metal.Weighted>
-0.0000

> <Gold.Chemscore.Lipo.Weighted>
-2.9426

> <Gold.Chemscore.Internal_Hbond.Weighted>
0.0000

> <Gold.Chemscore.DEClash.Weighted>
0.3554

> <Gold.Chemscore.DEInternal.Weighted>
1.3825

> <Gold.Chemscore.Rot.Weighted>
10.3431

> <Gold.Chemscore.Internal.Correction.Weighted>
   9.000000E+99

> <Gold.Protein.RotatedTorsions>
[ 6907 6896 6895 6894 ] final  -60.09 input  -60.11 | X-H torsion
[ 7974 7965 7964 7962 ] final -150.07 input  175.53 | X-H torsion
[ 8008 7997 7996 7995 ] final   65.61 input   59.86 | X-H torsion
[ 10167 10162 10161 10158 ] final   30.15 input  -65.29 | X-H torsion
[ 10718 10713 10712 10709 ] final  157.25 input   66.30 | X-H torsion
[ 10763 10752 10751 10750 ] final -151.10 input  -60.55 | X-H torsion
[ 11005 11000 10999 10996 ] final   15.98 input  -57.11 | X-H torsion

> <Gold.Protein.ActiveResidues>
 VAL166  LYS551  ARG553  GLY616  TRP617  ASP618  TYR619  PRO620  LYS621  CYS622 
 ASP623  PHE694  ASN695  SER759  ASP760  ASP761  ALA762  ILE779  LEU786  VAL792 
 PHE793  MET794  SER795  GLU796  ALA797  LYS798  CYS799  TRP800  GLU811  SER814 

> <Gold.Protein.RotatedAtoms>
  150.7882  134.6884  159.6482 H   0  0  0  0  0  0  0  0  0  0  0  0  # atno 6907 bound_to 6896
  152.3982  134.6326  160.0089 H   0  0  0  0  0  0  0  0  0  0  0  0  # atno 6908 bound_to 6896
  151.6606  133.3280  159.3209 H   0  0  0  0  0  0  0  0  0  0  0  0  # atno 6909 bound_to 6896
  144.7929  140.4980  143.5760 H   0  0  0  0  0  0  0  0  0  0  0  0  # atno 7974 bound_to 7965
  155.6644  140.3497  155.4794 H   0  0  0  0  0  0  0  0  0  0  0  0  # atno 8008 bound_to 7997
  155.9741  140.1161  157.0808 H   0  0  0  0  0  0  0  0  0  0  0  0  # atno 8009 bound_to 7997
  154.4174  140.1151  156.5333 H   0  0  0  0  0  0  0  0  0  0  0  0  # atno 8010 bound_to 7997
  140.4703  144.0773  150.6235 H   0  0  0  0  0  0  0  0  0  0  0  0  # atno 10167 bound_to 10162
  157.1940  131.0661  151.2063 H   0  0  0  0  0  0  0  0  0  0  0  0  # atno 10718 bound_to 10713
  154.8079  135.3268  154.7383 H   0  0  0  0  0  0  0  0  0  0  0  0  # atno 10763 bound_to 10752
  153.8038  135.6901  153.4856 H   0  0  0  0  0  0  0  0  0  0  0  0  # atno 10764 bound_to 10752
  153.1837  135.4577  155.0006 H   0  0  0  0  0  0  0  0  0  0  0  0  # atno 10765 bound_to 10752
  140.4522  134.1212  155.7704 H   0  0  0  0  0  0  0  0  0  0  0  0  # atno 11005 bound_to 11000
  145.5747  139.1485  143.3268 LP  0  0  0  0  0  0  0  0  0  0  0  0  # atno 17320 bound_to 7965
  146.2188  140.5879  142.9026 LP  0  0  0  0  0  0  0  0  0  0  0  0  # atno 17321 bound_to 7965
  140.3986  143.2715  151.9975 LP  0  0  0  0  0  0  0  0  0  0  0  0  # atno 17342 bound_to 10162
  139.4817  144.6017  151.7593 LP  0  0  0  0  0  0  0  0  0  0  0  0  # atno 17343 bound_to 10162
  157.3833  130.7242  149.6645 LP  0  0  0  0  0  0  0  0  0  0  0  0  # atno 17370 bound_to 10713
  155.9708  130.4166  150.4241 LP  0  0  0  0  0  0  0  0  0  0  0  0  # atno 17371 bound_to 10713
  141.1659  133.8704  157.1716 LP  0  0  0  0  0  0  0  0  0  0  0  0  # atno 17394 bound_to 11000
  139.9999  135.0032  157.0167 LP  0  0  0  0  0  0  0  0  0  0  0  0  # atno 17395 bound_to 11000

$$$$
