AV-unprocessed.smi:61|AV-procd|sdf|599|dock8
  -GOLD-   2262016493D 1   1.00000     0.00000
 Structure written by MMmdl.
 29 30  0  0  0  0  0  0  0  0  2 V2000
  146.7762  137.9057  152.6175 N   0  0  0  0  0  0  0  0  0  0  0  0
  145.7545  137.0098  152.4178 C   0  0  0  0  0  0  0  0  0  0  0  0
  144.5039  137.4022  152.6820 N   0  0  0  0  0  0  0  0  0  0  0  0
  143.4950  136.5303  152.4884 C   0  0  0  0  0  0  0  0  0  0  0  0
  143.7305  135.2271  152.0198 C   0  0  0  0  0  0  0  0  0  0  0  0
  145.0738  134.8743  151.7634 C   0  0  0  0  0  0  0  0  0  0  0  0
  145.4646  133.6123  151.2928 N   0  0  0  0  0  0  0  0  0  0  0  0
  144.6232  133.0816  150.2244 C   0  0  0  0  0  0  0  0  0  0  0  0
  144.4529  131.5783  150.4914 C   0  0  0  0  0  0  0  0  0  0  0  0
  145.5245  131.2550  151.5299 C   0  0  0  0  0  0  0  0  0  0  0  0
  145.6157  132.5710  152.3024 C   0  0  1  0  0  0  0  0  0  0  0  0
  146.8628  132.7503  153.1924 C   0  0  0  0  0  0  0  0  0  0  0  0
  148.0482  132.8053  152.4259 O   0  0  0  0  0  0  0  0  0  0  0  0
  146.0586  135.7841  151.9684 N   0  3  0  0  0  0  0  0  0  0  0  0
  147.7323  137.6409  152.4282 H   0  0  0  0  0  0  0  0  0  0  0  0
  146.5855  138.8387  152.9532 H   0  0  0  0  0  0  0  0  0  0  0  0
  142.4956  136.8753  152.7083 H   0  0  0  0  0  0  0  0  0  0  0  0
  142.9153  134.5361  151.8632 H   0  0  0  0  0  0  0  0  0  0  0  0
  143.6561  133.5820  150.1585 H   0  0  0  0  0  0  0  0  0  0  0  0
  145.1386  133.2396  149.2766 H   0  0  0  0  0  0  0  0  0  0  0  0
  143.4651  131.3927  150.9147 H   0  0  0  0  0  0  0  0  0  0  0  0
  144.5465  130.9759  149.5872 H   0  0  0  0  0  0  0  0  0  0  0  0
  145.2625  130.4069  152.1630 H   0  0  0  0  0  0  0  0  0  0  0  0
  146.4645  131.0263  151.0260 H   0  0  0  0  0  0  0  0  0  0  0  0
  144.7456  132.6165  152.9586 H   0  0  0  0  0  0  0  0  0  0  0  0
  146.7851  133.6502  153.8034 H   0  0  0  0  0  0  0  0  0  0  0  0
  146.9454  131.9090  153.8809 H   0  0  0  0  0  0  0  0  0  0  0  0
  148.1304  131.9994  151.9385 H   0  0  0  0  0  0  0  0  0  0  0  0
  147.0273  135.5255  151.7799 H   0  0  0  0  0  0  0  0  0  0  0  0
  1  2  1  0  0  0  0
  1 15  1  0  0  0  0
  1 16  1  0  0  0  0
  2 14  1  0  0  0  0
  2  3  2  0  0  0  0
  3  4  1  0  0  0  0
  4  5  2  0  0  0  0
  4 17  1  0  0  0  0
  5  6  1  0  0  0  0
  5 18  1  0  0  0  0
  6  7  1  0  0  0  0
  6 14  2  0  0  0  0
  7 11  1  0  0  0  0
  7  8  1  0  0  0  0
  8  9  1  0  0  0  0
  8 19  1  0  0  0  0
  8 20  1  0  0  0  0
  9 10  1  0  0  0  0
  9 21  1  0  0  0  0
  9 22  1  0  0  0  0
 10 11  1  0  0  0  0
 10 23  1  0  0  0  0
 10 24  1  0  0  0  0
 11 12  1  0  0  0  0
 11 25  1  0  0  0  0
 12 13  1  0  0  0  0
 12 26  1  0  0  0  0
 12 27  1  0  0  0  0
 13 28  1  0  0  0  0
 14 29  1  0  0  0  0
M  CHG  1  14   1
M  END
> <s_m_source_file>
AV-unprocessed.smi

> <i_m_source_file_index>
61

> <i_lp_mmshare_version>
43012

> <i_f3d_flags>
0

> <s_epik_input>
W05IMl1jMW5bY0hdW2NIXWMobjEpTjJbQ0gyXVtDSDJdW0NIMl1bQ0BIXTJbQ0gyXVtPSF0=

> <s_epik_cmdline>
J2VwaWtfcHl0aG9uJywgJy1waCcsICc3LjAnLCAnLXRuJywgJzgnLCAnLW1hJywgJzIwMCcsICctbWV0YWxfYmluZGluZycsICctaW1hZScsICc8aW5maWxlLm1hZT4nLCAnLW9tYWUnLCAnPG91dGZpbGUubWFlPic=

> <r_lp_tautomer_probability>
0.424989

> <r_epik_Ionization_Penalty>
0.696162

> <r_epik_Ionization_Penalty_Charging>
0.696158

> <r_epik_Ionization_Penalty_Neutral>
4.43138e-06

> <r_epik_State_Penalty>
0.906374

> <r_epik_Charging_Adjusted_Penalty>
1.60253

> <i_epik_Tot_Q>
1

> <i_epik_Tot_abs_Q>
1

> <r_epik_Metal_State_Penalty>
1.16703

> <b_epik_Metal_Only>
0

> <s_lp_Force_Field>
OPLS_2005

> <r_lp_Energy>
33.2177

> <b_lp_Chiralities_Consistent>
1

> <s_lp_Variant>
AV-unprocessed.smi:61-5

> <Gold.Version>
5.8.1

> <Gold.Id.Protein>
6NUR|6NUR_protein|mol2

> <Gold.PLP.Fitness>
35.8868

> <Gold.PLP.PLP>
-23.0864

> <Gold.PLP.part.hbond>
-3.0000

> <Gold.PLP.part.metal>
0.0000

> <Gold.PLP.part.buried>
-6.2394

> <Gold.PLP.part.nonpolar>
-15.7869

> <Gold.PLP.part.repulsive>
0.4206

> <Gold.PLP.ligand.clash>
0.0000

> <Gold.PLP.ligand.torsion>
0.5467

> <Gold.PLP.Chemscore.Hbond>
4.6160

> <Gold.PLP.Chemscore.CHOScore>
0.0000

> <Gold.PLP.Chemscore.Metal>
0.0000

> <Gold.Chemscore.Hbonds>
donor molecule, donor type, donor heavy atom, donor atom, acceptor molecule, acceptor atom, score
      L1  H     1    15       P1  7948  1.89
      L1  H    13    28       P1 10747  0.62
      L1  H    14    29       P1  7948  1.76

> <Gold.PLP.Chemscore.Internal.Correction>
0.0457

> <Gold.Rescore>
     Score         DG    S(hbond)    S(metal)    S(lipo)     H(rot)  DE(clash)    DE(int)     intcor
     14.43     -15.01       2.76        0.00      46.21       1.98       0.00       0.58       ----

> <Gold.Chemscore.Fitness>
14.4273

> <Gold.Chemscore.DG>
-15.0119

> <Gold.Chemscore.ZeroCoef>
-5.4800

> <Gold.Chemscore.Hbond>
2.7556

> <Gold.Chemscore.Metal>
0.0000

> <Gold.Chemscore.Lipo>
46.2110

> <Gold.Chemscore.Internal_Hbond>
0.0000

> <Gold.Chemscore.DEClash>
0.0029

> <Gold.Chemscore.DEInternal>
0.5817

> <Gold.Chemscore.Rot>
1.9838

> <Gold.Chemscore.Internal.Correction>
   9.000000E+99

> <Gold.Chemscore.Hbonds>
donor molecule, donor type, donor heavy atom, donor atom, acceptor molecule, acceptor atom, score
      L1  H     1    15       P1  7948  0.90
      L1  H    13    28       P1 10747  0.59
      L1  H    14    29       P1  7948  0.82

> <Gold.Chemscore.Hbond.Weighted>
-9.2038

> <Gold.Chemscore.Metal.Weighted>
-0.0000

> <Gold.Chemscore.Lipo.Weighted>
-5.4067

> <Gold.Chemscore.Internal_Hbond.Weighted>
0.0000

> <Gold.Chemscore.DEClash.Weighted>
0.0029

> <Gold.Chemscore.DEInternal.Weighted>
0.5817

> <Gold.Chemscore.Rot.Weighted>
5.0786

> <Gold.Chemscore.Internal.Correction.Weighted>
   9.000000E+99

> <Gold.Protein.RotatedTorsions>
[ 6907 6896 6895 6894 ] final  -48.70 input  -60.11 | X-H torsion
[ 7974 7965 7964 7962 ] final  161.03 input  175.53 | X-H torsion
[ 8008 7997 7996 7995 ] final -135.35 input   59.86 | X-H torsion
[ 10167 10162 10161 10158 ] final  -77.18 input  -65.29 | X-H torsion
[ 10718 10713 10712 10709 ] final  -15.95 input   66.30 | X-H torsion
[ 10763 10752 10751 10750 ] final  159.38 input  -60.55 | X-H torsion
[ 11005 11000 10999 10996 ] final   63.25 input  -57.11 | X-H torsion

> <Gold.Protein.ActiveResidues>
 VAL166  LYS551  ARG553  GLY616  TRP617  ASP618  TYR619  PRO620  LYS621  CYS622 
 ASP623  PHE694  ASN695  SER759  ASP760  ASP761  ALA762  ILE779  LEU786  VAL792 
 PHE793  MET794  SER795  GLU796  ALA797  LYS798  CYS799  TRP800  GLU811  SER814 

> <Gold.Protein.RotatedAtoms>
  150.8879  134.8279  159.7272 H   0  0  0  0  0  0  0  0  0  0  0  0  # atno 6907 bound_to 6896
  152.4819  134.4693  159.9640 H   0  0  0  0  0  0  0  0  0  0  0  0  # atno 6908 bound_to 6896
  151.4759  133.3519  159.2866 H   0  0  0  0  0  0  0  0  0  0  0  0  # atno 6909 bound_to 6896
  144.7706  139.7840  143.6298 H   0  0  0  0  0  0  0  0  0  0  0  0  # atno 7974 bound_to 7965
  155.3773  140.0492  157.3044 H   0  0  0  0  0  0  0  0  0  0  0  0  # atno 8008 bound_to 7997
  154.5100  140.2188  155.9137 H   0  0  0  0  0  0  0  0  0  0  0  0  # atno 8009 bound_to 7997
  156.1571  140.3124  155.8750 H   0  0  0  0  0  0  0  0  0  0  0  0  # atno 8010 bound_to 7997
  140.4793  143.2406  151.8083 H   0  0  0  0  0  0  0  0  0  0  0  0  # atno 10167 bound_to 10162
  156.5945  130.4808  149.6265 H   0  0  0  0  0  0  0  0  0  0  0  0  # atno 10718 bound_to 10713
  154.2309  135.2778  155.2890 H   0  0  0  0  0  0  0  0  0  0  0  0  # atno 10763 bound_to 10752
  154.5625  135.5643  153.7023 H   0  0  0  0  0  0  0  0  0  0  0  0  # atno 10764 bound_to 10752
  153.0020  135.6301  154.2451 H   0  0  0  0  0  0  0  0  0  0  0  0  # atno 10765 bound_to 10752
  140.0037  134.6402  155.9889 H   0  0  0  0  0  0  0  0  0  0  0  0  # atno 11005 bound_to 11000
  146.1850  139.5061  142.9842 LP  0  0  0  0  0  0  0  0  0  0  0  0  # atno 17320 bound_to 7965
  145.6334  141.0299  143.1851 LP  0  0  0  0  0  0  0  0  0  0  0  0  # atno 17321 bound_to 7965
  139.4831  144.4793  151.9327 LP  0  0  0  0  0  0  0  0  0  0  0  0  # atno 17342 bound_to 10162
  140.3878  144.2654  150.5902 LP  0  0  0  0  0  0  0  0  0  0  0  0  # atno 17343 bound_to 10162
  156.2521  130.6913  151.1654 LP  0  0  0  0  0  0  0  0  0  0  0  0  # atno 17370 bound_to 10713
  157.7295  131.0623  150.5770 LP  0  0  0  0  0  0  0  0  0  0  0  0  # atno 17371 bound_to 10713
  141.1661  133.6537  156.4485 LP  0  0  0  0  0  0  0  0  0  0  0  0  # atno 17394 bound_to 11000
  140.4680  134.6779  157.5116 LP  0  0  0  0  0  0  0  0  0  0  0  0  # atno 17395 bound_to 11000

$$$$
