AV-unprocessed.smi:2124|AV-procd|sdf|8660|dock7
  -GOLD-   2272011413D 1   1.00000     0.00000
 Structure written by MMmdl.
 47 49  0  0  0  0  0  0  0  0  1 V2000
  151.3647  143.3232  157.3939 C   0  0  0  0  0  0  0  0  0  0  0  0
  151.2277  142.0156  156.6443 C   0  0  0  0  0  0  0  0  0  0  0  0
  150.1239  141.9667  155.8090 N   0  0  0  0  0  0  0  0  0  0  0  0
  149.9047  140.8034  155.0928 C   0  0  0  0  0  0  0  0  0  0  0  0
  148.6679  140.8283  154.2118 C   0  0  0  0  0  0  0  0  0  0  0  0
  150.7508  139.7470  155.1936 C   0  0  0  0  0  0  0  0  0  0  0  0
  150.5477  138.4444  154.4203 C   0  0  0  0  0  0  0  0  0  0  0  0
  150.4824  137.1613  155.2532 C   0  0  0  0  0  0  0  0  0  0  0  0
  150.8811  137.1474  156.4182 O   0  0  0  0  0  0  0  0  0  0  0  0
  149.9635  136.0902  154.6328 N   0  0  0  0  0  0  0  0  0  0  0  0
  149.7744  134.7633  155.2175 C   0  0  2  0  0  0  0  0  0  0  0  0
  151.1230  134.2883  155.7842 C   0  0  0  0  0  0  0  0  0  0  0  0
  149.2051  133.7878  154.1570 C   0  0  1  0  0  0  0  0  0  0  0  0
  149.1462  132.3171  154.6389 C   0  0  0  0  0  0  0  0  0  0  0  0
  147.6796  131.9205  154.3944 C   0  0  2  0  0  0  0  0  0  0  0  0
  147.4162  131.8252  152.8810 C   0  0  0  0  0  0  0  0  0  0  0  0
  147.4236  133.3018  152.4445 C   0  0  0  0  0  0  0  0  0  0  0  0
  147.7271  134.0442  153.7598 C   0  0  1  0  0  0  0  0  0  0  0  0
  146.9494  133.2039  154.7668 C   0  0  0  0  0  0  0  0  0  0  0  0
  151.9278  139.8671  156.0861 C   0  0  0  0  0  0  0  0  0  0  0  0
  152.7456  138.9547  156.1991 O   0  0  0  0  0  0  0  0  0  0  0  0
  152.0941  141.0619  156.8054 N   0  0  0  0  0  0  0  0  0  0  0  0
  149.4713  142.7299  155.7019 H   0  0  0  0  0  0  0  0  0  0  0  0
  152.1484  143.2590  158.1500 H   0  0  0  0  0  0  0  0  0  0  0  0
  150.4299  143.5772  157.8950 H   0  0  0  0  0  0  0  0  0  0  0  0
  151.6191  144.1287  156.7046 H   0  0  0  0  0  0  0  0  0  0  0  0
  147.9600  140.0613  154.5262 H   0  0  0  0  0  0  0  0  0  0  0  0
  148.9374  140.6448  153.1713 H   0  0  0  0  0  0  0  0  0  0  0  0
  148.1594  141.7921  154.2603 H   0  0  0  0  0  0  0  0  0  0  0  0
  151.3631  138.3319  153.7057 H   0  0  0  0  0  0  0  0  0  0  0  0
  149.6485  138.5091  153.8062 H   0  0  0  0  0  0  0  0  0  0  0  0
  149.6618  136.2060  153.6760 H   0  0  0  0  0  0  0  0  0  0  0  0
  149.0708  134.8198  156.0495 H   0  0  0  0  0  0  0  0  0  0  0  0
  151.0364  133.3172  156.2711 H   0  0  0  0  0  0  0  0  0  0  0  0
  151.5031  134.9894  156.5280 H   0  0  0  0  0  0  0  0  0  0  0  0
  151.8745  134.1984  154.9991 H   0  0  0  0  0  0  0  0  0  0  0  0
  149.8326  133.8579  153.2668 H   0  0  0  0  0  0  0  0  0  0  0  0
  149.8459  131.6759  154.1016 H   0  0  0  0  0  0  0  0  0  0  0  0
  149.3745  132.2336  155.7021 H   0  0  0  0  0  0  0  0  0  0  0  0
  147.3681  131.0351  154.9493 H   0  0  0  0  0  0  0  0  0  0  0  0
  148.1752  131.2346  152.3668 H   0  0  0  0  0  0  0  0  0  0  0  0
  146.4448  131.3708  152.6821 H   0  0  0  0  0  0  0  0  0  0  0  0
  148.1620  133.5049  151.6680 H   0  0  0  0  0  0  0  0  0  0  0  0
  146.4457  133.5897  152.0563 H   0  0  0  0  0  0  0  0  0  0  0  0
  147.4370  135.0939  153.7236 H   0  0  0  0  0  0  0  0  0  0  0  0
  145.8779  133.1668  154.5630 H   0  0  0  0  0  0  0  0  0  0  0  0
  147.1051  133.5088  155.8029 H   0  0  0  0  0  0  0  0  0  0  0  0
  1 24  1  0  0  0  0
  1 25  1  0  0  0  0
  1 26  1  0  0  0  0
  1  2  1  0  0  0  0
  2  3  1  0  0  0  0
  2 22  2  0  0  0  0
  3  4  1  0  0  0  0
  3 23  1  0  0  0  0
  4  6  2  0  0  0  0
  4  5  1  0  0  0  0
  5 27  1  0  0  0  0
  5 28  1  0  0  0  0
  5 29  1  0  0  0  0
  6 20  1  0  0  0  0
  6  7  1  0  0  0  0
  7  8  1  0  0  0  0
  7 30  1  0  0  0  0
  7 31  1  0  0  0  0
  8  9  2  0  0  0  0
  8 10  1  0  0  0  0
 10 11  1  0  0  0  0
 10 32  1  0  0  0  0
 11 12  1  0  0  0  0
 11 13  1  0  0  0  0
 11 33  1  0  0  0  0
 12 34  1  0  0  0  0
 12 35  1  0  0  0  0
 12 36  1  0  0  0  0
 13 18  1  0  0  0  0
 13 14  1  0  0  0  0
 13 37  1  0  0  0  0
 14 15  1  0  0  0  0
 14 38  1  0  0  0  0
 14 39  1  0  0  0  0
 15 19  1  0  0  0  0
 15 16  1  0  0  0  0
 15 40  1  0  0  0  0
 16 17  1  0  0  0  0
 16 41  1  0  0  0  0
 16 42  1  0  0  0  0
 17 18  1  0  0  0  0
 17 43  1  0  0  0  0
 17 44  1  0  0  0  0
 18 19  1  0  0  0  0
 18 45  1  0  0  0  0
 19 46  1  0  0  0  0
 19 47  1  0  0  0  0
 20 21  2  0  0  0  0
 20 22  1  0  0  0  0
M  END
> <s_m_source_file>
AV-unprocessed.smi

> <i_m_source_file_index>
2124

> <i_lp_mmshare_version>
43012

> <i_f3d_flags>
0

> <s_epik_input>
W0NIM11jMW5jKFtDSDNdKWMoYyg9TylbbkhdMSlbQ0gyXUMoPU8pW05IXVtDQEhdKFtDSDNdKVtDQEhdKFtDSDJdW0NASF0yMylbQ0BIXShbQ0gyXTMpW0NIMl1bQ0gyXTI=

> <s_epik_cmdline>
J2VwaWtfcHl0aG9uJywgJy1waCcsICc3LjAnLCAnLXRuJywgJzgnLCAnLW1hJywgJzIwMCcsICctbWV0YWxfYmluZGluZycsICctaW1hZScsICc8aW5maWxlLm1hZT4nLCAnLW9tYWUnLCAnPG91dGZpbGUubWFlPic=

> <r_lp_tautomer_probability>
0.156392

> <r_epik_Ionization_Penalty>
0.0139374

> <r_epik_Ionization_Penalty_Charging>
0.0138122

> <r_epik_Ionization_Penalty_Neutral>
0.000125146

> <r_epik_State_Penalty>
1.15342

> <r_epik_Charging_Adjusted_Penalty>
1.16723

> <i_epik_Tot_Q>
0

> <i_epik_Tot_abs_Q>
0

> <r_epik_Metal_State_Penalty>
1.3173

> <b_epik_Metal_Only>
0

> <s_lp_Force_Field>
OPLS_2005

> <r_lp_Energy>
56.0933

> <b_lp_Chiralities_Consistent>
1

> <s_lp_Variant>
AV-unprocessed.smi:2124-11

> <Gold.Version>
5.8.1

> <Gold.Id.Protein>
6NUR|6NUR_protein|mol2

> <Gold.PLP.Fitness>
43.5918

> <Gold.PLP.PLP>
-35.5557

> <Gold.PLP.part.hbond>
-2.8820

> <Gold.PLP.part.metal>
0.0000

> <Gold.PLP.part.buried>
1.4489

> <Gold.PLP.part.nonpolar>
-32.9240

> <Gold.PLP.part.repulsive>
0.1976

> <Gold.PLP.ligand.clash>
0.0000

> <Gold.PLP.ligand.torsion>
0.3546

> <Gold.PLP.Chemscore.Hbond>
2.9100

> <Gold.PLP.Chemscore.CHOScore>
0.0000

> <Gold.PLP.Chemscore.Metal>
0.0000

> <Gold.Chemscore.Hbonds>
donor molecule, donor type, donor heavy atom, donor atom, acceptor molecule, acceptor atom, score
      L1  H     3    23       P1  8028  0.89
      L1  H    10    32       P1  7948  1.00
      P1  H  7997  8010       L1    21  0.85

> <Gold.PLP.Chemscore.Internal.Correction>
0.0152

> <Gold.Rescore>
     Score         DG    S(hbond)    S(metal)    S(lipo)     H(rot)  DE(clash)    DE(int)     intcor
     10.49     -16.41       1.69        0.00      81.25       1.65       0.84       5.08       ----

> <Gold.Chemscore.Fitness>
10.4925

> <Gold.Chemscore.DG>
-16.4076

> <Gold.Chemscore.ZeroCoef>
-5.4800

> <Gold.Chemscore.Hbond>
1.6928

> <Gold.Chemscore.Metal>
0.0000

> <Gold.Chemscore.Lipo>
81.2505

> <Gold.Chemscore.Internal_Hbond>
0.0000

> <Gold.Chemscore.DEClash>
0.8380

> <Gold.Chemscore.DEInternal>
5.0771

> <Gold.Chemscore.Rot>
1.6534

> <Gold.Chemscore.Internal.Correction>
   9.000000E+99

> <Gold.Chemscore.Hbonds>
donor molecule, donor type, donor heavy atom, donor atom, acceptor molecule, acceptor atom, score
      L1  H     3    23       P1  8028  0.86
      L1  H    10    32       P1  7948  0.40
      P1  H  7997  8010       L1    21  0.14

> <Gold.Chemscore.Hbond.Weighted>
-5.6539

> <Gold.Chemscore.Metal.Weighted>
-0.0000

> <Gold.Chemscore.Lipo.Weighted>
-9.5063

> <Gold.Chemscore.Internal_Hbond.Weighted>
0.0000

> <Gold.Chemscore.DEClash.Weighted>
0.8380

> <Gold.Chemscore.DEInternal.Weighted>
5.0771

> <Gold.Chemscore.Rot.Weighted>
4.2326

> <Gold.Chemscore.Internal.Correction.Weighted>
   9.000000E+99

> <Gold.Protein.RotatedTorsions>
[ 6907 6896 6895 6894 ] final  177.27 input  -60.11 | X-H torsion
[ 7974 7965 7964 7962 ] final -127.87 input  175.53 | X-H torsion
[ 8008 7997 7996 7995 ] final   72.32 input   59.86 | X-H torsion
[ 10167 10162 10161 10158 ] final -114.67 input  -65.29 | X-H torsion
[ 10718 10713 10712 10709 ] final  134.72 input   66.30 | X-H torsion
[ 10763 10752 10751 10750 ] final -150.94 input  -60.55 | X-H torsion
[ 11005 11000 10999 10996 ] final  149.75 input  -57.11 | X-H torsion

> <Gold.Protein.ActiveResidues>
 VAL166  LYS551  ARG553  GLY616  TRP617  ASP618  TYR619  PRO620  LYS621  CYS622 
 ASP623  PHE694  ASN695  SER759  ASP760  ASP761  ALA762  ILE779  LEU786  VAL792 
 PHE793  MET794  SER795  GLU796  ALA797  LYS798  CYS799  TRP800  GLU811  SER814 

> <Gold.Protein.RotatedAtoms>
  151.7067  133.3311  159.3279 H   0  0  0  0  0  0  0  0  0  0  0  0  # atno 6907 bound_to 6896
  150.7712  134.6568  159.6327 H   0  0  0  0  0  0  0  0  0  0  0  0  # atno 6908 bound_to 6896
  152.3737  134.6699  160.0219 H   0  0  0  0  0  0  0  0  0  0  0  0  # atno 6909 bound_to 6896
  144.9727  140.7562  143.4660 H   0  0  0  0  0  0  0  0  0  0  0  0  # atno 7974 bound_to 7965
  155.7671  140.3485  155.5227 H   0  0  0  0  0  0  0  0  0  0  0  0  # atno 8008 bound_to 7997
  155.8858  140.1009  157.1474 H   0  0  0  0  0  0  0  0  0  0  0  0  # atno 8009 bound_to 7997
  154.4029  140.1314  156.4241 H   0  0  0  0  0  0  0  0  0  0  0  0  # atno 8010 bound_to 7997
  140.0984  143.4635  152.1827 H   0  0  0  0  0  0  0  0  0  0  0  0  # atno 10167 bound_to 10162
  157.4644  131.1076  150.9881 H   0  0  0  0  0  0  0  0  0  0  0  0  # atno 10718 bound_to 10713
  154.8088  135.3272  154.7360 H   0  0  0  0  0  0  0  0  0  0  0  0  # atno 10763 bound_to 10752
  153.8013  135.6903  153.4859 H   0  0  0  0  0  0  0  0  0  0  0  0  # atno 10764 bound_to 10752
  153.1852  135.4571  155.0025 H   0  0  0  0  0  0  0  0  0  0  0  0  # atno 10765 bound_to 10752
  140.1071  134.8947  157.1882 H   0  0  0  0  0  0  0  0  0  0  0  0  # atno 11005 bound_to 11000
  145.2535  139.2022  143.4930 LP  0  0  0  0  0  0  0  0  0  0  0  0  # atno 17320 bound_to 7965
  146.3386  140.2452  142.8597 LP  0  0  0  0  0  0  0  0  0  0  0  0  # atno 17321 bound_to 7965
  139.5685  144.7449  151.3956 LP  0  0  0  0  0  0  0  0  0  0  0  0  # atno 17342 bound_to 10162
  140.6991  143.7676  150.7374 LP  0  0  0  0  0  0  0  0  0  0  0  0  # atno 17343 bound_to 10162
  157.0667  130.5847  149.5395 LP  0  0  0  0  0  0  0  0  0  0  0  0  # atno 17370 bound_to 10713
  156.0043  130.5128  150.7776 LP  0  0  0  0  0  0  0  0  0  0  0  0  # atno 17371 bound_to 10713
  140.3141  134.2991  155.7260 LP  0  0  0  0  0  0  0  0  0  0  0  0  # atno 17394 bound_to 11000
  141.2121  133.7668  156.9818 LP  0  0  0  0  0  0  0  0  0  0  0  0  # atno 17395 bound_to 11000

$$$$
