AV-unprocessed.smi:2198|AV-procd|sdf|8918|dock1
  -GOLD-   2272012133D 1   1.00000     0.00000
 Structure written by MMmdl.
 43 44  0  0  0  0  0  0  0  0  1 V2000
  149.7875  134.6746  155.6808 C   0  0  0  0  0  0  0  0  0  0  0  0
  149.8061  135.9961  156.4181 C   0  0  0  0  0  0  0  0  0  0  0  0
  149.9673  137.0946  155.5898 N   0  0  0  0  0  0  0  0  0  0  0  0
  150.0136  138.3470  156.1767 C   0  0  0  0  0  0  0  0  0  0  0  0
  150.2101  139.4934  155.2000 C   0  0  0  0  0  0  0  0  0  0  0  0
  149.8927  138.4979  157.5203 C   0  0  0  0  0  0  0  0  0  0  0  0
  149.9456  139.8603  158.2080 C   0  0  0  0  0  0  0  0  0  0  0  0
  151.3073  140.5558  158.1781 C   0  0  0  0  0  0  0  0  0  0  0  0
  152.2567  140.0253  157.6023 O   0  0  0  0  0  0  0  0  0  0  0  0
  151.3879  141.7402  158.8030 N   0  0  0  0  0  0  0  0  0  0  0  0
  152.5817  142.5785  158.8913 C   0  0  1  0  0  0  0  0  0  0  0  0
  152.2115  144.0537  159.1519 C   0  0  0  0  0  0  0  0  0  0  0  0
  151.6485  144.2671  160.5674 C   0  0  0  0  0  0  0  0  0  0  0  0
  152.6159  143.7411  161.6393 C   0  0  0  0  0  0  0  0  0  0  0  0
  152.9644  142.2578  161.4102 C   0  0  2  0  0  0  0  0  0  0  0  0
  153.9373  141.7390  162.4782 C   0  0  0  0  0  0  0  0  0  0  0  0
  153.5254  142.0455  159.9878 C   0  0  0  0  0  0  0  0  0  0  0  0
  149.7025  137.2865  158.3525 C   0  0  0  0  0  0  0  0  0  0  0  0
  149.5649  137.3582  159.5729 O   0  0  0  0  0  0  0  0  0  0  0  0
  149.6782  136.0384  157.7093 N   0  0  0  0  0  0  0  0  0  0  0  0
  150.0618  137.0270  154.5867 H   0  0  0  0  0  0  0  0  0  0  0  0
  149.8238  133.8381  156.3800 H   0  0  0  0  0  0  0  0  0  0  0  0
  150.6469  134.5958  155.0139 H   0  0  0  0  0  0  0  0  0  0  0  0
  148.8772  134.5846  155.0875 H   0  0  0  0  0  0  0  0  0  0  0  0
  151.1297  140.0338  155.4254 H   0  0  0  0  0  0  0  0  0  0  0  0
  149.3752  140.1918  155.2577 H   0  0  0  0  0  0  0  0  0  0  0  0
  150.2759  139.1381  154.1709 H   0  0  0  0  0  0  0  0  0  0  0  0
  149.6281  139.7378  159.2443 H   0  0  0  0  0  0  0  0  0  0  0  0
  149.2084  140.5383  157.7768 H   0  0  0  0  0  0  0  0  0  0  0  0
  150.5543  142.0943  159.2489 H   0  0  0  0  0  0  0  0  0  0  0  0
  153.1117  142.5168  157.9390 H   0  0  0  0  0  0  0  0  0  0  0  0
  153.1021  144.6711  159.0279 H   0  0  0  0  0  0  0  0  0  0  0  0
  151.4960  144.4059  158.4078 H   0  0  0  0  0  0  0  0  0  0  0  0
  151.4552  145.3273  160.7318 H   0  0  0  0  0  0  0  0  0  0  0  0
  150.6864  143.7620  160.6620 H   0  0  0  0  0  0  0  0  0  0  0  0
  153.5273  144.3403  161.6310 H   0  0  0  0  0  0  0  0  0  0  0  0
  152.1707  143.8714  162.6264 H   0  0  0  0  0  0  0  0  0  0  0  0
  152.0443  141.6794  161.5033 H   0  0  0  0  0  0  0  0  0  0  0  0
  154.8860  142.2757  162.4454 H   0  0  0  0  0  0  0  0  0  0  0  0
  154.1491  140.6792  162.3344 H   0  0  0  0  0  0  0  0  0  0  0  0
  153.5216  141.8589  163.4791 H   0  0  0  0  0  0  0  0  0  0  0  0
  153.7294  140.9873  159.8183 H   0  0  0  0  0  0  0  0  0  0  0  0
  154.4868  142.5542  159.9031 H   0  0  0  0  0  0  0  0  0  0  0  0
  1 22  1  0  0  0  0
  1 23  1  0  0  0  0
  1 24  1  0  0  0  0
  1  2  1  0  0  0  0
  2  3  1  0  0  0  0
  2 20  2  0  0  0  0
  3  4  1  0  0  0  0
  3 21  1  0  0  0  0
  4  6  2  0  0  0  0
  4  5  1  0  0  0  0
  5 25  1  0  0  0  0
  5 26  1  0  0  0  0
  5 27  1  0  0  0  0
  6 18  1  0  0  0  0
  6  7  1  0  0  0  0
  7  8  1  0  0  0  0
  7 28  1  0  0  0  0
  7 29  1  0  0  0  0
  8  9  2  0  0  0  0
  8 10  1  0  0  0  0
 10 11  1  0  0  0  0
 10 30  1  0  0  0  0
 11 17  1  0  0  0  0
 11 12  1  0  0  0  0
 11 31  1  0  0  0  0
 12 13  1  0  0  0  0
 12 32  1  0  0  0  0
 12 33  1  0  0  0  0
 13 14  1  0  0  0  0
 13 34  1  0  0  0  0
 13 35  1  0  0  0  0
 14 15  1  0  0  0  0
 14 36  1  0  0  0  0
 14 37  1  0  0  0  0
 15 16  1  0  0  0  0
 15 17  1  0  0  0  0
 15 38  1  0  0  0  0
 16 39  1  0  0  0  0
 16 40  1  0  0  0  0
 16 41  1  0  0  0  0
 17 42  1  0  0  0  0
 17 43  1  0  0  0  0
 18 19  2  0  0  0  0
 18 20  1  0  0  0  0
M  END
> <s_m_source_file>
AV-unprocessed.smi

> <i_m_source_file_index>
2198

> <i_lp_mmshare_version>
43012

> <i_f3d_flags>
0

> <s_epik_input>
W0NIM11jMW5jKFtDSDNdKWMoYyg9TylbbkhdMSlbQ0gyXUMoPU8pW05IXVtDQEBIXTJbQ0gyXVtDSDJdW0NIMl1bQ0BASF0oW0NIM10pW0NIMl0y

> <s_epik_cmdline>
J2VwaWtfcHl0aG9uJywgJy1waCcsICc3LjAnLCAnLXRuJywgJzgnLCAnLW1hJywgJzIwMCcsICctbWV0YWxfYmluZGluZycsICctaW1hZScsICc8aW5maWxlLm1hZT4nLCAnLW9tYWUnLCAnPG91dGZpbGUubWFlPic=

> <r_lp_tautomer_probability>
0.156392

> <r_epik_Ionization_Penalty>
0.0136514

> <r_epik_Ionization_Penalty_Charging>
0.0135207

> <r_epik_Ionization_Penalty_Neutral>
0.000130657

> <r_epik_State_Penalty>
1.15342

> <r_epik_Charging_Adjusted_Penalty>
1.16694

> <i_epik_Tot_Q>
0

> <i_epik_Tot_abs_Q>
0

> <r_epik_Metal_State_Penalty>
1.31404

> <b_epik_Metal_Only>
0

> <s_lp_Force_Field>
OPLS_2005

> <r_lp_Energy>
13.6567

> <b_lp_Chiralities_Consistent>
1

> <s_lp_Variant>
AV-unprocessed.smi:2198-8

> <Gold.Version>
5.8.1

> <Gold.Id.Protein>
6NUR|6NUR_protein|mol2

> <Gold.PLP.Fitness>
47.5441

> <Gold.PLP.PLP>
-42.9441

> <Gold.PLP.part.hbond>
-3.0000

> <Gold.PLP.part.metal>
0.0000

> <Gold.PLP.part.buried>
-6.0760

> <Gold.PLP.part.nonpolar>
-34.9484

> <Gold.PLP.part.repulsive>
0.1812

> <Gold.PLP.ligand.clash>
0.0000

> <Gold.PLP.ligand.torsion>
0.3709

> <Gold.PLP.Chemscore.Hbond>
1.7771

> <Gold.PLP.Chemscore.CHOScore>
0.0000

> <Gold.PLP.Chemscore.Metal>
0.0000

> <Gold.Chemscore.Hbonds>
donor molecule, donor type, donor heavy atom, donor atom, acceptor molecule, acceptor atom, score
      P1  H  7997  8009       L1     9  0.28

> <Gold.PLP.Chemscore.Internal.Correction>
0.0104

> <Gold.Rescore>
     Score         DG    S(hbond)    S(metal)    S(lipo)     H(rot)  DE(clash)    DE(int)     intcor
     18.91     -19.22       1.62        0.00     103.59       1.48       0.12       0.19       ----

> <Gold.Chemscore.Fitness>
18.9077

> <Gold.Chemscore.DG>
-19.2235

> <Gold.Chemscore.ZeroCoef>
-5.4800

> <Gold.Chemscore.Hbond>
1.6206

> <Gold.Chemscore.Metal>
0.0000

> <Gold.Chemscore.Lipo>
103.5875

> <Gold.Chemscore.Internal_Hbond>
0.0000

> <Gold.Chemscore.DEClash>
0.1236

> <Gold.Chemscore.DEInternal>
0.1922

> <Gold.Chemscore.Rot>
1.4801

> <Gold.Chemscore.Internal.Correction>
   9.000000E+99

> <Gold.Chemscore.Hbonds>
donor molecule, donor type, donor heavy atom, donor atom, acceptor molecule, acceptor atom, score
      P1  H  7997  8009       L1     9  0.28

> <Gold.Chemscore.Hbond.Weighted>
-5.4128

> <Gold.Chemscore.Metal.Weighted>
-0.0000

> <Gold.Chemscore.Lipo.Weighted>
-12.1197

> <Gold.Chemscore.Internal_Hbond.Weighted>
0.0000

> <Gold.Chemscore.DEClash.Weighted>
0.1236

> <Gold.Chemscore.DEInternal.Weighted>
0.1922

> <Gold.Chemscore.Rot.Weighted>
3.7891

> <Gold.Chemscore.Internal.Correction.Weighted>
   9.000000E+99

> <Gold.Protein.RotatedTorsions>
[ 6907 6896 6895 6894 ] final   62.52 input  -60.11 | X-H torsion
[ 7974 7965 7964 7962 ] final -168.17 input  175.53 | X-H torsion
[ 8008 7997 7996 7995 ] final  170.09 input   59.86 | X-H torsion
[ 10167 10162 10161 10158 ] final  -98.90 input  -65.29 | X-H torsion
[ 10718 10713 10712 10709 ] final   77.06 input   66.30 | X-H torsion
[ 10763 10752 10751 10750 ] final -177.68 input  -60.55 | X-H torsion
[ 11005 11000 10999 10996 ] final  158.32 input  -57.11 | X-H torsion

> <Gold.Protein.ActiveResidues>
 VAL166  LYS551  ARG553  GLY616  TRP617  ASP618  TYR619  PRO620  LYS621  CYS622 
 ASP623  PHE694  ASN695  SER759  ASP760  ASP761  ALA762  ILE779  LEU786  VAL792 
 PHE793  MET794  SER795  GLU796  ALA797  LYS798  CYS799  TRP800  GLU811  SER814 

> <Gold.Protein.RotatedAtoms>
  152.4178  134.6009  159.9999 H   0  0  0  0  0  0  0  0  0  0  0  0  # atno 6907 bound_to 6896
  151.6167  133.3337  159.3087 H   0  0  0  0  0  0  0  0  0  0  0  0  # atno 6908 bound_to 6896
  150.8067  134.7235  159.6716 H   0  0  0  0  0  0  0  0  0  0  0  0  # atno 6909 bound_to 6896
  144.7208  140.2409  143.6291 H   0  0  0  0  0  0  0  0  0  0  0  0  # atno 7974 bound_to 7965
  156.1397  140.1547  156.8939 H   0  0  0  0  0  0  0  0  0  0  0  0  # atno 8008 bound_to 7997
  154.4977  140.0833  156.7770 H   0  0  0  0  0  0  0  0  0  0  0  0  # atno 8009 bound_to 7997
  155.4101  140.3418  155.4265 H   0  0  0  0  0  0  0  0  0  0  0  0  # atno 8010 bound_to 7997
  140.2681  143.3362  152.0561 H   0  0  0  0  0  0  0  0  0  0  0  0  # atno 10167 bound_to 10162
  157.6696  130.9803  150.1586 H   0  0  0  0  0  0  0  0  0  0  0  0  # atno 10718 bound_to 10713
  154.5572  135.2817  155.0954 H   0  0  0  0  0  0  0  0  0  0  0  0  # atno 10763 bound_to 10752
  154.2376  135.6362  153.5200 H   0  0  0  0  0  0  0  0  0  0  0  0  # atno 10764 bound_to 10752
  153.0019  135.5552  154.6155 H   0  0  0  0  0  0  0  0  0  0  0  0  # atno 10765 bound_to 10752
  140.1854  134.8446  157.2851 H   0  0  0  0  0  0  0  0  0  0  0  0  # atno 11005 bound_to 11000
  145.8320  139.2090  143.1877 LP  0  0  0  0  0  0  0  0  0  0  0  0  # atno 17320 bound_to 7965
  146.0422  140.8153  142.9823 LP  0  0  0  0  0  0  0  0  0  0  0  0  # atno 17321 bound_to 7965
  139.4997  144.6675  151.6322 LP  0  0  0  0  0  0  0  0  0  0  0  0  # atno 17342 bound_to 10162
  140.5912  143.9776  150.6326 LP  0  0  0  0  0  0  0  0  0  0  0  0  # atno 17343 bound_to 10162
  156.2368  130.3687  149.8382 LP  0  0  0  0  0  0  0  0  0  0  0  0  # atno 17370 bound_to 10713
  156.6194  130.8620  151.3472 LP  0  0  0  0  0  0  0  0  0  0  0  0  # atno 17371 bound_to 10713
  140.2220  134.4012  155.7561 LP  0  0  0  0  0  0  0  0  0  0  0  0  # atno 17394 bound_to 11000
  141.2224  133.7171  156.8505 LP  0  0  0  0  0  0  0  0  0  0  0  0  # atno 17395 bound_to 11000

$$$$
