AV-unprocessed.smi:122|AV-procd|sdf|1141|dock10
  -GOLD-   2262018273D 1   1.00000     0.00000
 Structure written by MMmdl.
 48 50  0  0  0  0  0  0  0  0  1 V2000
  151.2971  131.1014  162.8381 C   0  0  0  0  0  0  0  0  0  0  0  0
  151.7737  131.7012  164.5104 S   0  0  0  0  0  0  0  0  0  0  0  0
  150.5857  132.2874  165.1495 O   0  0  0  0  0  0  0  0  0  0  0  0
  152.5237  130.6344  165.1907 O   0  0  0  0  0  0  0  0  0  0  0  0
  152.8791  132.9887  164.1556 N   0  0  0  0  0  0  0  0  0  0  0  0
  152.4798  134.3697  164.5120 C   0  0  0  0  0  0  0  0  0  0  0  0
  153.6673  135.3465  164.4370 C   0  0  0  0  0  0  0  0  0  0  0  0
  154.2935  135.2253  163.1211 N   0  0  0  0  0  0  0  0  0  0  0  0
  154.1954  136.1735  162.1595 C   0  0  0  0  0  0  0  0  0  0  0  0
  154.6727  136.0143  161.0341 O   0  0  0  0  0  0  0  0  0  0  0  0
  153.4683  137.4940  162.4888 C   0  0  0  0  0  0  0  0  0  0  0  0
  153.2788  138.3765  161.3159 N   0  0  0  0  0  0  0  0  0  0  0  0
  152.7578  137.8194  160.1216 C   0  0  0  0  0  0  0  0  0  0  0  0
  152.4569  136.6269  160.0518 O   0  0  0  0  0  0  0  0  0  0  0  0
  152.6184  138.7453  159.0033 C   0  0  0  0  0  0  0  0  0  0  0  0
  152.1310  138.3038  157.8314 F   0  0  0  0  0  0  0  0  0  0  0  0
  152.9735  140.0410  159.1243 C   0  0  0  0  0  0  0  0  0  0  0  0
  153.4837  140.5712  160.2963 N   0  0  0  0  0  0  0  0  0  0  0  0
  153.8939  142.0243  160.4116 C   0  0  2  0  0  0  0  0  0  0  0  0
  153.0335  142.7495  161.4639 C   0  0  0  0  0  0  0  0  0  0  0  0
  152.5519  143.9754  160.7139 C   0  0  0  0  0  0  0  0  0  0  0  0
  152.5059  143.4678  159.2809 C   0  0  0  0  0  0  0  0  0  0  0  0
  153.6836  142.6767  159.1913 O   0  0  0  0  0  0  0  0  0  0  0  0
  153.6567  139.7363  161.4216 C   0  0  0  0  0  0  0  0  0  0  0  0
  154.1298  140.1845  162.4686 O   0  0  0  0  0  0  0  0  0  0  0  0
  154.8843  133.8950  162.9703 C   0  0  0  0  0  0  0  0  0  0  0  0
  153.7540  132.8505  162.9687 C   0  0  0  0  0  0  0  0  0  0  0  0
  150.5802  130.2869  162.9389 H   0  0  0  0  0  0  0  0  0  0  0  0
  152.1801  130.7404  162.3117 H   0  0  0  0  0  0  0  0  0  0  0  0
  150.8414  131.9136  162.2726 H   0  0  0  0  0  0  0  0  0  0  0  0
  151.6892  134.6933  163.8340 H   0  0  0  0  0  0  0  0  0  0  0  0
  152.0605  134.3837  165.5180 H   0  0  0  0  0  0  0  0  0  0  0  0
  153.3271  136.3605  164.6514 H   0  0  0  0  0  0  0  0  0  0  0  0
  154.3970  135.1115  165.2132 H   0  0  0  0  0  0  0  0  0  0  0  0
  152.5084  137.2575  162.9504 H   0  0  0  0  0  0  0  0  0  0  0  0
  154.0233  138.0193  163.2677 H   0  0  0  0  0  0  0  0  0  0  0  0
  152.8484  140.6715  158.2575 H   0  0  0  0  0  0  0  0  0  0  0  0
  154.9621  142.0136  160.6362 H   0  0  0  0  0  0  0  0  0  0  0  0
  152.1864  142.1256  161.7547 H   0  0  0  0  0  0  0  0  0  0  0  0
  153.6191  142.9889  162.3520 H   0  0  0  0  0  0  0  0  0  0  0  0
  151.5889  144.3437  161.0685 H   0  0  0  0  0  0  0  0  0  0  0  0
  153.2823  144.7811  160.8009 H   0  0  0  0  0  0  0  0  0  0  0  0
  151.6226  142.8489  159.1165 H   0  0  0  0  0  0  0  0  0  0  0  0
  152.5059  144.2730  158.5460 H   0  0  0  0  0  0  0  0  0  0  0  0
  155.4947  133.7850  162.0755 H   0  0  0  0  0  0  0  0  0  0  0  0
  155.5628  133.7043  163.8033 H   0  0  0  0  0  0  0  0  0  0  0  0
  154.1838  131.8493  162.9437 H   0  0  0  0  0  0  0  0  0  0  0  0
  153.1475  132.9584  162.0688 H   0  0  0  0  0  0  0  0  0  0  0  0
  1  2  1  0  0  0  0
  1 28  1  0  0  0  0
  1 29  1  0  0  0  0
  1 30  1  0  0  0  0
  2  3  2  0  0  0  0
  2  4  2  0  0  0  0
  2  5  1  0  0  0  0
  5 27  1  0  0  0  0
  5  6  1  0  0  0  0
  6  7  1  0  0  0  0
  6 31  1  0  0  0  0
  6 32  1  0  0  0  0
  7  8  1  0  0  0  0
  7 33  1  0  0  0  0
  7 34  1  0  0  0  0
  8  9  1  0  0  0  0
  8 26  1  0  0  0  0
  9 10  2  0  0  0  0
  9 11  1  0  0  0  0
 11 12  1  0  0  0  0
 11 35  1  0  0  0  0
 11 36  1  0  0  0  0
 12 24  1  0  0  0  0
 12 13  1  0  0  0  0
 13 14  2  0  0  0  0
 13 15  1  0  0  0  0
 15 16  1  0  0  0  0
 15 17  2  0  0  0  0
 17 18  1  0  0  0  0
 17 37  1  0  0  0  0
 18 19  1  0  0  0  0
 18 24  1  0  0  0  0
 19 23  1  0  0  0  0
 19 20  1  0  0  0  0
 19 38  1  0  0  0  0
 20 21  1  0  0  0  0
 20 39  1  0  0  0  0
 20 40  1  0  0  0  0
 21 22  1  0  0  0  0
 21 41  1  0  0  0  0
 21 42  1  0  0  0  0
 22 23  1  0  0  0  0
 22 43  1  0  0  0  0
 22 44  1  0  0  0  0
 24 25  2  0  0  0  0
 26 27  1  0  0  0  0
 26 45  1  0  0  0  0
 26 46  1  0  0  0  0
 27 47  1  0  0  0  0
 27 48  1  0  0  0  0
M  END
> <s_m_source_file>
AV-unprocessed.smi

> <i_m_source_file_index>
122

> <i_lp_mmshare_version>
43012

> <i_f3d_flags>
0

> <s_epik_input>
W0NIM11TKD1PKSg9TylOMVtDSDJdW0NIMl1OKFtDSDJdW0NIMl0xKUMoPU8pW0NIMl1uMmMoPU8pYyhGKVtjSF1uKGMyPU8pW0NAQEhdM1tDSDJdW0NIMl1bQ0gyXU8z

> <s_epik_cmdline>
J2VwaWtfcHl0aG9uJywgJy1waCcsICc3LjAnLCAnLXRuJywgJzgnLCAnLW1hJywgJzIwMCcsICctbWV0YWxfYmluZGluZycsICctaW1hZScsICc8aW5maWxlLm1hZT4nLCAnLW9tYWUnLCAnPG91dGZpbGUubWFlPic=

> <r_lp_tautomer_probability>
1

> <r_epik_Ionization_Penalty>
4.55442e-09

> <r_epik_Ionization_Penalty_Charging>
4.02834e-09

> <r_epik_Ionization_Penalty_Neutral>
5.2608e-10

> <r_epik_State_Penalty>
-0

> <r_epik_Charging_Adjusted_Penalty>
4.02834e-09

> <i_epik_Tot_Q>
0

> <i_epik_Tot_abs_Q>
0

> <r_epik_Metal_State_Penalty>
-0

> <b_epik_Metal_Only>
0

> <s_epik_Chemistry_Notes>
This compound contains an acetal/aminal-like group ( X-CH(R)-Y where X, Y are N, S, or O) that may be acid/base labile, releasing an aldehyde.

> <s_lp_Force_Field>
OPLS_2005

> <r_lp_Energy>
39.2384

> <b_lp_Chiralities_Consistent>
1

> <s_lp_Variant>
AV-unprocessed.smi:122-1

> <Gold.Version>
5.8.1

> <Gold.Id.Protein>
6NUR|6NUR_protein|mol2

> <Gold.PLP.Fitness>
45.5243

> <Gold.PLP.PLP>
-43.0345

> <Gold.PLP.part.hbond>
-1.0000

> <Gold.PLP.part.metal>
0.0000

> <Gold.PLP.part.buried>
-6.6362

> <Gold.PLP.part.nonpolar>
-33.9618

> <Gold.PLP.part.repulsive>
0.0731

> <Gold.PLP.ligand.clash>
0.0000

> <Gold.PLP.ligand.torsion>
1.2934

> <Gold.PLP.Chemscore.Hbond>
1.0000

> <Gold.PLP.Chemscore.CHOScore>
0.0000

> <Gold.PLP.Chemscore.Metal>
0.0000

> <Gold.Chemscore.Hbonds>
donor molecule, donor type, donor heavy atom, donor atom, acceptor molecule, acceptor atom, score
      P1  H  6896  6909       L1    14  1.00

> <Gold.PLP.Chemscore.Internal.Correction>
2.0765

> <Gold.Rescore>
     Score         DG    S(hbond)    S(metal)    S(lipo)     H(rot)  DE(clash)    DE(int)     intcor
      8.51     -14.31       1.00        0.00      83.88       1.69       0.00       5.80       ----

> <Gold.Chemscore.Fitness>
8.5065

> <Gold.Chemscore.DG>
-14.3101

> <Gold.Chemscore.ZeroCoef>
-5.4800

> <Gold.Chemscore.Hbond>
0.9999

> <Gold.Chemscore.Metal>
0.0000

> <Gold.Chemscore.Lipo>
83.8839

> <Gold.Chemscore.Internal_Hbond>
0.0000

> <Gold.Chemscore.DEClash>
0.0047

> <Gold.Chemscore.DEInternal>
5.7989

> <Gold.Chemscore.Rot>
1.6890

> <Gold.Chemscore.Internal.Correction>
   9.000000E+99

> <Gold.Chemscore.Hbonds>
donor molecule, donor type, donor heavy atom, donor atom, acceptor molecule, acceptor atom, score
      P1  H  6896  6909       L1    14  0.99

> <Gold.Chemscore.Hbond.Weighted>
-3.3395

> <Gold.Chemscore.Metal.Weighted>
-0.0000

> <Gold.Chemscore.Lipo.Weighted>
-9.8144

> <Gold.Chemscore.Internal_Hbond.Weighted>
0.0000

> <Gold.Chemscore.DEClash.Weighted>
0.0047

> <Gold.Chemscore.DEInternal.Weighted>
5.7989

> <Gold.Chemscore.Rot.Weighted>
4.3239

> <Gold.Chemscore.Internal.Correction.Weighted>
   9.000000E+99

> <Gold.Protein.RotatedTorsions>
[ 6907 6896 6895 6894 ] final  139.82 input  -60.11 | X-H torsion
[ 7974 7965 7964 7962 ] final    0.95 input  175.53 | X-H torsion
[ 8008 7997 7996 7995 ] final -148.44 input   59.86 | X-H torsion
[ 10167 10162 10161 10158 ] final   50.46 input  -65.29 | X-H torsion
[ 10718 10713 10712 10709 ] final  140.79 input   66.30 | X-H torsion
[ 10763 10752 10751 10750 ] final  178.12 input  -60.55 | X-H torsion
[ 11005 11000 10999 10996 ] final  -67.11 input  -57.11 | X-H torsion

> <Gold.Protein.ActiveResidues>
 VAL166  LYS551  ARG553  GLY616  TRP617  ASP618  TYR619  PRO620  LYS621  CYS622 
 ASP623  PHE694  ASN695  SER759  ASP760  ASP761  ALA762  ILE779  LEU786  VAL792 
 PHE793  MET794  SER795  GLU796  ALA797  LYS798  CYS799  TRP800  GLU811  SER814 

> <Gold.Protein.RotatedAtoms>
  152.2504  133.5210  159.5321 H   0  0  0  0  0  0  0  0  0  0  0  0  # atno 6907 bound_to 6896
  150.7092  134.0968  159.3960 H   0  0  0  0  0  0  0  0  0  0  0  0  # atno 6908 bound_to 6896
  151.8888  135.0425  160.0546 H   0  0  0  0  0  0  0  0  0  0  0  0  # atno 6909 bound_to 6896
  146.2437  140.1060  142.8345 H   0  0  0  0  0  0  0  0  0  0  0  0  # atno 7974 bound_to 7965
  155.5916  140.0653  157.2757 H   0  0  0  0  0  0  0  0  0  0  0  0  # atno 8008 bound_to 7997
  154.4303  140.1834  156.1128 H   0  0  0  0  0  0  0  0  0  0  0  0  # atno 8009 bound_to 7997
  156.0228  140.3315  155.7060 H   0  0  0  0  0  0  0  0  0  0  0  0  # atno 8010 bound_to 7997
  140.2722  144.3253  150.6287 H   0  0  0  0  0  0  0  0  0  0  0  0  # atno 10167 bound_to 10162
  157.3993  131.1015  151.0567 H   0  0  0  0  0  0  0  0  0  0  0  0  # atno 10718 bound_to 10713
  154.5035  135.2785  155.1402 H   0  0  0  0  0  0  0  0  0  0  0  0  # atno 10763 bound_to 10752
  154.3026  135.6245  153.5435 H   0  0  0  0  0  0  0  0  0  0  0  0  # atno 10764 bound_to 10752
  152.9906  135.5700  154.5483 H   0  0  0  0  0  0  0  0  0  0  0  0  # atno 10765 bound_to 10752
  141.1499  133.6712  156.6242 H   0  0  0  0  0  0  0  0  0  0  0  0  # atno 11005 bound_to 11000
  145.0527  140.9030  143.4985 LP  0  0  0  0  0  0  0  0  0  0  0  0  # atno 17320 bound_to 7965
  145.1161  139.2724  143.5612 LP  0  0  0  0  0  0  0  0  0  0  0  0  # atno 17321 bound_to 7965
  140.5880  143.2169  151.7305 LP  0  0  0  0  0  0  0  0  0  0  0  0  # atno 17342 bound_to 10162
  139.4986  144.3981  152.0210 LP  0  0  0  0  0  0  0  0  0  0  0  0  # atno 17343 bound_to 10162
  157.1572  130.6210  149.5600 LP  0  0  0  0  0  0  0  0  0  0  0  0  # atno 17370 bound_to 10713
  155.9819  130.4829  150.6852 LP  0  0  0  0  0  0  0  0  0  0  0  0  # atno 17371 bound_to 10713
  140.3517  134.7763  157.4471 LP  0  0  0  0  0  0  0  0  0  0  0  0  # atno 17394 bound_to 11000
  140.0855  134.5672  155.8496 LP  0  0  0  0  0  0  0  0  0  0  0  0  # atno 17395 bound_to 11000

$$$$
