AV-unprocessed.smi:2705|AV-procd|sdf|10443|dock7
  -GOLD-   2272014483D 1   1.00000     0.00000
 Structure written by MMmdl.
 36 37  0  0  0  0  0  0  0  0  1 V2000
  152.8125  144.5745  158.0918 C   0  0  0  0  0  0  0  0  0  0  0  0
  152.4236  143.2999  158.8762 C   0  0  0  0  0  0  0  0  0  0  0  0
  151.7553  142.3543  157.9712 N   0  0  0  0  0  0  0  0  0  0  0  0
  150.4414  142.2212  157.7127 C   0  0  0  0  0  0  0  0  0  0  0  0
  149.5658  142.9393  158.1934 O   0  0  0  0  0  0  0  0  0  0  0  0
  150.0558  141.0803  156.7724 C   0  0  0  0  0  0  0  0  0  0  0  0
  151.2310  140.3337  156.3631 N   0  0  0  0  0  0  0  0  0  0  0  0
  152.0330  139.5138  157.0466 C   0  0  0  0  0  0  0  0  0  0  0  0
  152.9983  139.0248  156.2837 N   0  0  0  0  0  0  0  0  0  0  0  0
  152.7474  139.6031  155.0506 N   0  0  0  0  0  0  0  0  0  0  0  0
  151.7000  140.3804  155.0915 N   0  0  0  0  0  0  0  0  0  0  0  0
  153.7319  142.6135  159.3460 C   0  0  0  0  0  0  0  0  0  0  0  0
  153.5748  141.5426  160.4410 C   0  0  0  0  0  0  0  0  0  0  0  0
  153.6879  142.1296  161.8588 C   0  0  0  0  0  0  0  0  0  0  0  0
  152.4896  142.9831  162.3012 C   0  0  0  0  0  0  0  0  0  0  0  0
  152.1337  144.1414  161.3517 C   0  0  0  0  0  0  0  0  0  0  0  0
  151.4673  143.6577  160.0508 C   0  0  0  0  0  0  0  0  0  0  0  0
  153.3636  145.2735  158.7215 H   0  0  0  0  0  0  0  0  0  0  0  0
  151.9424  145.1105  157.7128 H   0  0  0  0  0  0  0  0  0  0  0  0
  153.4472  144.3362  157.2374 H   0  0  0  0  0  0  0  0  0  0  0  0
  152.3701  141.7031  157.5051 H   0  0  0  0  0  0  0  0  0  0  0  0
  149.3519  140.4091  157.2673 H   0  0  0  0  0  0  0  0  0  0  0  0
  149.5591  141.4719  155.8837 H   0  0  0  0  0  0  0  0  0  0  0  0
  151.9062  139.2727  158.0919 H   0  0  0  0  0  0  0  0  0  0  0  0
  154.2155  142.1566  158.4809 H   0  0  0  0  0  0  0  0  0  0  0  0
  154.4466  143.3626  159.6894 H   0  0  0  0  0  0  0  0  0  0  0  0
  152.6487  140.9797  160.3190 H   0  0  0  0  0  0  0  0  0  0  0  0
  154.3805  140.8175  160.3206 H   0  0  0  0  0  0  0  0  0  0  0  0
  153.8039  141.3102  162.5687 H   0  0  0  0  0  0  0  0  0  0  0  0
  154.6033  142.7172  161.9393 H   0  0  0  0  0  0  0  0  0  0  0  0
  151.6179  142.3432  162.4424 H   0  0  0  0  0  0  0  0  0  0  0  0
  152.7118  143.3951  163.2861 H   0  0  0  0  0  0  0  0  0  0  0  0
  151.4224  144.7831  161.8726 H   0  0  0  0  0  0  0  0  0  0  0  0
  153.0019  144.7688  161.1480 H   0  0  0  0  0  0  0  0  0  0  0  0
  150.7765  144.4331  159.7168 H   0  0  0  0  0  0  0  0  0  0  0  0
  150.8282  142.8056  160.2884 H   0  0  0  0  0  0  0  0  0  0  0  0
  1  2  1  0  0  0  0
  1 18  1  0  0  0  0
  1 19  1  0  0  0  0
  1 20  1  0  0  0  0
  2 17  1  0  0  0  0
  2  3  1  0  0  0  0
  2 12  1  0  0  0  0
  3  4  1  0  0  0  0
  3 21  1  0  0  0  0
  4  5  2  0  0  0  0
  4  6  1  0  0  0  0
  6  7  1  0  0  0  0
  6 22  1  0  0  0  0
  6 23  1  0  0  0  0
  7 11  1  0  0  0  0
  7  8  1  0  0  0  0
  8  9  2  0  0  0  0
  8 24  1  0  0  0  0
  9 10  1  0  0  0  0
 10 11  2  0  0  0  0
 12 13  1  0  0  0  0
 12 25  1  0  0  0  0
 12 26  1  0  0  0  0
 13 14  1  0  0  0  0
 13 27  1  0  0  0  0
 13 28  1  0  0  0  0
 14 15  1  0  0  0  0
 14 29  1  0  0  0  0
 14 30  1  0  0  0  0
 15 16  1  0  0  0  0
 15 31  1  0  0  0  0
 15 32  1  0  0  0  0
 16 17  1  0  0  0  0
 16 33  1  0  0  0  0
 16 34  1  0  0  0  0
 17 35  1  0  0  0  0
 17 36  1  0  0  0  0
M  END
> <s_m_source_file>
AV-unprocessed.smi

> <i_m_source_file_index>
2705

> <i_lp_mmshare_version>
43012

> <i_f3d_flags>
0

> <s_epik_input>
W0NIMl0xW0NIMl1bQ0gyXVtDSDJdW0NIMl1bQ0gyXUMxKFtDSDNdKVtOSF1DKD1PKVtDSDJdbjJbY0hdbm5uMg==

> <s_epik_cmdline>
J2VwaWtfcHl0aG9uJywgJy1waCcsICc3LjAnLCAnLXRuJywgJzgnLCAnLW1hJywgJzIwMCcsICctbWV0YWxfYmluZGluZycsICctaW1hZScsICc8aW5maWxlLm1hZT4nLCAnLW9tYWUnLCAnPG91dGZpbGUubWFlPic=

> <r_lp_tautomer_probability>
1

> <r_epik_Ionization_Penalty>
4.39395e-07

> <r_epik_Ionization_Penalty_Charging>
0

> <r_epik_Ionization_Penalty_Neutral>
4.39395e-07

> <r_epik_State_Penalty>
-0

> <r_epik_Charging_Adjusted_Penalty>
0

> <i_epik_Tot_Q>
0

> <i_epik_Tot_abs_Q>
0

> <r_epik_Metal_State_Penalty>
-0

> <b_epik_Metal_Only>
0

> <s_lp_Force_Field>
OPLS_2005

> <r_lp_Energy>
20.5987

> <b_lp_Chiralities_Consistent>
1

> <s_lp_Variant>
AV-unprocessed.smi:2705-1

> <Gold.Version>
5.8.1

> <Gold.Id.Protein>
6NUR|6NUR_protein|mol2

> <Gold.PLP.Fitness>
44.1072

> <Gold.PLP.PLP>
-40.3947

> <Gold.PLP.part.hbond>
-3.9633

> <Gold.PLP.part.metal>
0.0000

> <Gold.PLP.part.buried>
-3.3049

> <Gold.PLP.part.nonpolar>
-33.0239

> <Gold.PLP.part.repulsive>
0.2815

> <Gold.PLP.ligand.clash>
0.0000

> <Gold.PLP.ligand.torsion>
0.6509

> <Gold.PLP.Chemscore.Hbond>
1.6688

> <Gold.PLP.Chemscore.CHOScore>
0.0000

> <Gold.PLP.Chemscore.Metal>
0.0000

> <Gold.Chemscore.Hbonds>
donor molecule, donor type, donor heavy atom, donor atom, acceptor molecule, acceptor atom, score
      P1  H  7989  7998       L1    11  0.85
      P1  H  7997  8010       L1     9  0.78

> <Gold.PLP.Chemscore.Internal.Correction>
0.0080

> <Gold.Rescore>
     Score         DG    S(hbond)    S(metal)    S(lipo)     H(rot)  DE(clash)    DE(int)     intcor
     12.64     -14.90       0.69        0.00     102.49       1.91       0.03       2.23       ----

> <Gold.Chemscore.Fitness>
12.6369

> <Gold.Chemscore.DG>
-14.8998

> <Gold.Chemscore.ZeroCoef>
-5.4800

> <Gold.Chemscore.Hbond>
0.6909

> <Gold.Chemscore.Metal>
0.0000

> <Gold.Chemscore.Lipo>
102.4879

> <Gold.Chemscore.Internal_Hbond>
0.0000

> <Gold.Chemscore.DEClash>
0.0285

> <Gold.Chemscore.DEInternal>
2.2344

> <Gold.Chemscore.Rot>
1.9058

> <Gold.Chemscore.Internal.Correction>
   9.000000E+99

> <Gold.Chemscore.Hbonds>
donor molecule, donor type, donor heavy atom, donor atom, acceptor molecule, acceptor atom, score
      P1  H  7989  7998       L1    11  0.22
      P1  H  7997  8010       L1     9  0.06

> <Gold.Chemscore.Hbond.Weighted>
-2.3075

> <Gold.Chemscore.Metal.Weighted>
-0.0000

> <Gold.Chemscore.Lipo.Weighted>
-11.9911

> <Gold.Chemscore.Internal_Hbond.Weighted>
0.0000

> <Gold.Chemscore.DEClash.Weighted>
0.0285

> <Gold.Chemscore.DEInternal.Weighted>
2.2344

> <Gold.Chemscore.Rot.Weighted>
4.8788

> <Gold.Chemscore.Internal.Correction.Weighted>
   9.000000E+99

> <Gold.Protein.RotatedTorsions>
[ 6907 6896 6895 6894 ] final   94.13 input  -60.11 | X-H torsion
[ 7974 7965 7964 7962 ] final   91.34 input  175.53 | X-H torsion
[ 8008 7997 7996 7995 ] final   49.67 input   59.86 | X-H torsion
[ 10167 10162 10161 10158 ] final   18.46 input  -65.29 | X-H torsion
[ 10718 10713 10712 10709 ] final  162.89 input   66.30 | X-H torsion
[ 10763 10752 10751 10750 ] final   24.59 input  -60.55 | X-H torsion
[ 11005 11000 10999 10996 ] final   50.36 input  -57.11 | X-H torsion

> <Gold.Protein.ActiveResidues>
 VAL166  LYS551  ARG553  GLY616  TRP617  ASP618  TYR619  PRO620  LYS621  CYS622 
 ASP623  PHE694  ASN695  SER759  ASP760  ASP761  ALA762  ILE779  LEU786  VAL792 
 PHE793  MET794  SER795  GLU796  ALA797  LYS798  CYS799  TRP800  GLU811  SER814 

> <Gold.Protein.RotatedAtoms>
  152.5450  134.1241  159.8411 H   0  0  0  0  0  0  0  0  0  0  0  0  # atno 6907 bound_to 6896
  151.1294  133.5040  159.2607 H   0  0  0  0  0  0  0  0  0  0  0  0  # atno 6908 bound_to 6896
  151.1692  135.0320  159.8799 H   0  0  0  0  0  0  0  0  0  0  0  0  # atno 6909 bound_to 6896
  145.5070  139.2276  143.2746 H   0  0  0  0  0  0  0  0  0  0  0  0  # atno 7974 bound_to 7965
  155.4061  140.3440  155.4260 H   0  0  0  0  0  0  0  0  0  0  0  0  # atno 8008 bound_to 7997
  156.1476  140.1561  156.8854 H   0  0  0  0  0  0  0  0  0  0  0  0  # atno 8009 bound_to 7997
  154.5024  140.0811  156.7806 H   0  0  0  0  0  0  0  0  0  0  0  0  # atno 8010 bound_to 7997
  140.5651  143.9265  150.6671 H   0  0  0  0  0  0  0  0  0  0  0  0  # atno 10167 bound_to 10162
  157.1162  131.0480  151.2435 H   0  0  0  0  0  0  0  0  0  0  0  0  # atno 10718 bound_to 10713
  153.0753  135.6602  154.0159 H   0  0  0  0  0  0  0  0  0  0  0  0  # atno 10763 bound_to 10752
  153.9795  135.2956  155.3423 H   0  0  0  0  0  0  0  0  0  0  0  0  # atno 10764 bound_to 10752
  154.7139  135.5193  153.8779 H   0  0  0  0  0  0  0  0  0  0  0  0  # atno 10765 bound_to 10752
  140.1024  134.5063  155.8750 H   0  0  0  0  0  0  0  0  0  0  0  0  # atno 11005 bound_to 11000
  146.2191  140.5874  142.9025 LP  0  0  0  0  0  0  0  0  0  0  0  0  # atno 17320 bound_to 7965
  144.7748  140.5717  143.6645 LP  0  0  0  0  0  0  0  0  0  0  0  0  # atno 17321 bound_to 7965
  140.2726  143.3445  152.1224 LP  0  0  0  0  0  0  0  0  0  0  0  0  # atno 17342 bound_to 10162
  139.5089  144.6858  151.5891 LP  0  0  0  0  0  0  0  0  0  0  0  0  # atno 17343 bound_to 10162
  157.4516  130.7601  149.7156 LP  0  0  0  0  0  0  0  0  0  0  0  0  # atno 17370 bound_to 10713
  155.9839  130.3996  150.3340 LP  0  0  0  0  0  0  0  0  0  0  0  0  # atno 17371 bound_to 10713
  141.2109  133.6700  156.6544 LP  0  0  0  0  0  0  0  0  0  0  0  0  # atno 17394 bound_to 11000
  140.3202  134.8014  157.4246 LP  0  0  0  0  0  0  0  0  0  0  0  0  # atno 17395 bound_to 11000

$$$$
