AV-unprocessed.smi:1701|AV-procd|sdf|6838|dock10
  -GOLD-   22720 8 13D 1   1.00000     0.00000
 Structure written by MMmdl.
 54 56  0  0  0  0  0  0  0  0  4 V2000
  151.6463  145.6929  159.8139 C   0  0  0  0  0  0  0  0  0  0  0  0
  152.6503  144.7272  159.1651 C   0  0  0  0  0  0  0  0  0  0  0  0
  152.4198  143.3268  159.5202 N   0  0  0  0  0  0  0  0  0  0  0  0
  152.8291  142.8450  160.8417 C   0  0  0  0  0  0  0  0  0  0  0  0
  153.8204  141.6740  160.7782 C   0  0  0  0  0  0  0  0  0  0  0  0
  151.6412  142.4975  158.6760 C   0  0  0  0  0  0  0  0  0  0  0  0
  151.1985  142.8878  157.3867 C   0  0  0  0  0  0  0  0  0  0  0  0
  150.4265  142.0021  156.6077 C   0  0  0  0  0  0  0  0  0  0  0  0
  150.1079  140.7237  157.1079 C   0  0  0  0  0  0  0  0  0  0  0  0
  149.3110  139.8708  156.2976 N   0  0  0  0  0  0  0  0  0  0  0  0
  149.2299  139.8046  154.9457 C   0  0  0  0  0  0  0  0  0  0  0  0
  149.8747  140.6031  154.2689 O   0  0  0  0  0  0  0  0  0  0  0  0
  148.4154  138.8773  154.3582 N   0  5  0  0  0  0  0  0  0  0  0  0
  147.6532  138.9669  153.1008 C   0  0  1  0  0  0  0  0  0  0  0  0
  146.6550  137.8059  153.0115 C   0  0  0  0  0  0  0  0  0  0  0  0
  145.3992  138.2773  153.7703 C   0  0  0  0  0  0  0  0  0  0  0  0
  145.4879  139.7553  153.8966 N   0  3  1  0  0  0  0  0  0  0  0  0
  145.4352  140.2135  155.3154 C   0  0  0  0  0  0  0  0  0  0  0  0
  145.7643  141.7038  155.4603 C   0  0  0  0  0  0  0  0  0  0  0  0
  147.1669  141.9828  154.9165 C   0  0  0  0  0  0  0  0  0  0  0  0
  147.2289  141.5964  153.4328 C   0  0  0  0  0  0  0  0  0  0  0  0
  146.6895  140.1722  153.1201 C   0  0  1  0  0  0  0  0  0  0  0  0
  150.5573  140.3823  158.4040 C   0  0  0  0  0  0  0  0  0  0  0  0
  151.2929  141.2629  159.1161 N   0  3  0  0  0  0  0  0  0  0  0  0
  151.8494  146.7184  159.5054 H   0  0  0  0  0  0  0  0  0  0  0  0
  151.7046  145.6644  160.9008 H   0  0  0  0  0  0  0  0  0  0  0  0
  150.6199  145.4626  159.5291 H   0  0  0  0  0  0  0  0  0  0  0  0
  152.6480  144.8437  158.0816 H   0  0  0  0  0  0  0  0  0  0  0  0
  153.6566  145.0060  159.4785 H   0  0  0  0  0  0  0  0  0  0  0  0
  153.2509  143.6623  161.4272 H   0  0  0  0  0  0  0  0  0  0  0  0
  151.9418  142.5292  161.3913 H   0  0  0  0  0  0  0  0  0  0  0  0
  154.1344  141.3848  161.7812 H   0  0  0  0  0  0  0  0  0  0  0  0
  154.7165  141.9363  160.2154 H   0  0  0  0  0  0  0  0  0  0  0  0
  153.3756  140.7957  160.3129 H   0  0  0  0  0  0  0  0  0  0  0  0
  151.4330  143.8570  156.9745 H   0  0  0  0  0  0  0  0  0  0  0  0
  150.0874  142.3040  155.6275 H   0  0  0  0  0  0  0  0  0  0  0  0
  148.6802  139.2622  156.7980 H   0  0  0  0  0  0  0  0  0  0  0  0
  148.2966  139.0010  152.2205 H   0  0  0  0  0  0  0  0  0  0  0  0
  146.3976  137.6389  151.9646 H   0  0  0  0  0  0  0  0  0  0  0  0
  147.0494  136.8639  153.3956 H   0  0  0  0  0  0  0  0  0  0  0  0
  144.4917  138.0025  153.2317 H   0  0  0  0  0  0  0  0  0  0  0  0
  145.3444  137.7964  154.7491 H   0  0  0  0  0  0  0  0  0  0  0  0
  144.4407  140.0107  155.7138 H   0  0  0  0  0  0  0  0  0  0  0  0
  146.1358  139.6371  155.9219 H   0  0  0  0  0  0  0  0  0  0  0  0
  145.0260  142.3067  154.9302 H   0  0  0  0  0  0  0  0  0  0  0  0
  145.7105  141.9941  156.5100 H   0  0  0  0  0  0  0  0  0  0  0  0
  147.4143  143.0375  155.0374 H   0  0  0  0  0  0  0  0  0  0  0  0
  147.9088  141.4237  155.4879 H   0  0  0  0  0  0  0  0  0  0  0  0
  146.6127  142.3128  152.8877 H   0  0  0  0  0  0  0  0  0  0  0  0
  148.2398  141.7388  153.0460 H   0  0  0  0  0  0  0  0  0  0  0  0
  146.3280  140.2376  152.0920 H   0  0  0  0  0  0  0  0  0  0  0  0
  150.3498  139.4493  158.9065 H   0  0  0  0  0  0  0  0  0  0  0  0
  144.6885  140.1630  153.4344 H   0  0  0  0  0  0  0  0  0  0  0  0
  151.6016  140.9804  160.0462 H   0  0  0  0  0  0  0  0  0  0  0  0
  1  2  1  0  0  0  0
  1 25  1  0  0  0  0
  1 26  1  0  0  0  0
  1 27  1  0  0  0  0
  2  3  1  0  0  0  0
  2 28  1  0  0  0  0
  2 29  1  0  0  0  0
  3  4  1  0  0  0  0
  3  6  1  0  0  0  0
  4  5  1  0  0  0  0
  4 30  1  0  0  0  0
  4 31  1  0  0  0  0
  5 32  1  0  0  0  0
  5 33  1  0  0  0  0
  5 34  1  0  0  0  0
  6 24  1  0  0  0  0
  6  7  2  0  0  0  0
  7  8  1  0  0  0  0
  7 35  1  0  0  0  0
  8  9  2  0  0  0  0
  8 36  1  0  0  0  0
  9 10  1  0  0  0  0
  9 23  1  0  0  0  0
 10 11  1  0  0  0  0
 10 37  1  0  0  0  0
 11 12  2  0  0  0  0
 11 13  1  0  0  0  0
 13 14  1  0  0  0  0
 14 22  1  0  0  0  0
 14 15  1  0  0  0  0
 14 38  1  0  0  0  0
 15 16  1  0  0  0  0
 15 39  1  0  0  0  0
 15 40  1  0  0  0  0
 16 17  1  0  0  0  0
 16 41  1  0  0  0  0
 16 42  1  0  0  0  0
 17 22  1  0  0  0  0
 17 18  1  0  0  0  0
 17 53  1  0  0  0  0
 18 19  1  0  0  0  0
 18 43  1  0  0  0  0
 18 44  1  0  0  0  0
 19 20  1  0  0  0  0
 19 45  1  0  0  0  0
 19 46  1  0  0  0  0
 20 21  1  0  0  0  0
 20 47  1  0  0  0  0
 20 48  1  0  0  0  0
 21 22  1  0  0  0  0
 21 49  1  0  0  0  0
 21 50  1  0  0  0  0
 22 51  1  0  0  0  0
 23 24  2  0  0  0  0
 23 52  1  0  0  0  0
 24 54  1  0  0  0  0
M  CHG  1  13  -1
M  CHG  1  17   1
M  CHG  1  24   1
M  END
> <s_m_source_file>
AV-unprocessed.smi

> <i_m_source_file_index>
1701

> <i_lp_mmshare_version>
43012

> <i_f3d_flags>
0

> <s_epik_input>
W0NIM11bQ0gyXU4oW0NIMl1bQ0gzXSljMVtjSF1bY0hdYyhbY0hdbjEpW05IXUMoPU8pW05IXVtDQEhdKFtDSDJdW0NIMl0yKVtDQEBIXShOMjMpW0NIMl1bQ0gyXVtDSDJdW0NIMl0z

> <s_epik_cmdline>
J2VwaWtfcHl0aG9uJywgJy1waCcsICc3LjAnLCAnLXRuJywgJzgnLCAnLW1hJywgJzIwMCcsICctbWV0YWxfYmluZGluZycsICctaW1hZScsICc8aW5maWxlLm1hZT4nLCAnLW9tYWUnLCAnPG91dGZpbGUubWFlPic=

> <r_lp_tautomer_probability>
0.999994

> <r_epik_Ionization_Penalty>
7.37095

> <r_epik_Ionization_Penalty_Charging>
7.37095

> <r_epik_Ionization_Penalty_Neutral>
3.78969e-06

> <r_epik_State_Penalty>
6.83842

> <r_epik_Charging_Adjusted_Penalty>
14.2094

> <i_epik_Tot_Q>
1

> <i_epik_Tot_abs_Q>
3

> <r_epik_Metal_State_Penalty>
2.78552

> <b_epik_Metal_Only>
1

> <s_lp_Force_Field>
OPLS_2005

> <r_lp_Energy>
56.1591

> <b_lp_Chiralities_Consistent>
1

> <s_lp_Variant>
AV-unprocessed.smi:1701-18

> <Gold.Version>
5.8.1

> <Gold.Id.Protein>
6NUR|6NUR_protein|mol2

> <Gold.PLP.Fitness>
47.7709

> <Gold.PLP.PLP>
-41.1583

> <Gold.PLP.part.hbond>
-2.0000

> <Gold.PLP.part.metal>
0.0000

> <Gold.PLP.part.buried>
-1.2769

> <Gold.PLP.part.nonpolar>
-38.9307

> <Gold.PLP.part.repulsive>
0.4700

> <Gold.PLP.ligand.clash>
0.0000

> <Gold.PLP.ligand.torsion>
0.7893

> <Gold.PLP.Chemscore.Hbond>
2.6720

> <Gold.PLP.Chemscore.CHOScore>
0.0000

> <Gold.PLP.Chemscore.Metal>
0.0000

> <Gold.Chemscore.Hbonds>
donor molecule, donor type, donor heavy atom, donor atom, acceptor molecule, acceptor atom, score
      L1  H    17    53       P1 10175  1.46
      P1  H  7989  7998       L1    12  0.74

> <Gold.PLP.Chemscore.Internal.Correction>
0.1752

> <Gold.Rescore>
     Score         DG    S(hbond)    S(metal)    S(lipo)     H(rot)  DE(clash)    DE(int)     intcor
     17.25     -20.29       1.83        0.00     102.46       1.28       0.80       2.24       ----

> <Gold.Chemscore.Fitness>
17.2505

> <Gold.Chemscore.DG>
-20.2925

> <Gold.Chemscore.ZeroCoef>
-5.4800

> <Gold.Chemscore.Hbond>
1.8298

> <Gold.Chemscore.Metal>
0.0000

> <Gold.Chemscore.Lipo>
102.4578

> <Gold.Chemscore.Internal_Hbond>
0.0000

> <Gold.Chemscore.DEClash>
0.8046

> <Gold.Chemscore.DEInternal>
2.2374

> <Gold.Chemscore.Rot>
1.2838

> <Gold.Chemscore.Internal.Correction>
   9.000000E+99

> <Gold.Chemscore.Hbonds>
donor molecule, donor type, donor heavy atom, donor atom, acceptor molecule, acceptor atom, score
      L1  H    17    53       P1 10175  0.73
      P1  H  7989  7998       L1    12  0.74

> <Gold.Chemscore.Hbond.Weighted>
-6.1115

> <Gold.Chemscore.Metal.Weighted>
-0.0000

> <Gold.Chemscore.Lipo.Weighted>
-11.9876

> <Gold.Chemscore.Internal_Hbond.Weighted>
0.0000

> <Gold.Chemscore.DEClash.Weighted>
0.8046

> <Gold.Chemscore.DEInternal.Weighted>
2.2374

> <Gold.Chemscore.Rot.Weighted>
3.2865

> <Gold.Chemscore.Internal.Correction.Weighted>
   9.000000E+99

> <Gold.Protein.RotatedTorsions>
[ 6907 6896 6895 6894 ] final  154.52 input  -60.11 | X-H torsion
[ 7974 7965 7964 7962 ] final  157.05 input  175.53 | X-H torsion
[ 8008 7997 7996 7995 ] final   21.63 input   59.86 | X-H torsion
[ 10167 10162 10161 10158 ] final  -41.72 input  -65.29 | X-H torsion
[ 10718 10713 10712 10709 ] final   99.29 input   66.30 | X-H torsion
[ 10763 10752 10751 10750 ] final -167.45 input  -60.55 | X-H torsion
[ 11005 11000 10999 10996 ] final  -31.37 input  -57.11 | X-H torsion

> <Gold.Protein.ActiveResidues>
 VAL166  LYS551  ARG553  GLY616  TRP617  ASP618  TYR619  PRO620  LYS621  CYS622 
 ASP623  PHE694  ASN695  SER759  ASP760  ASP761  ALA762  ILE779  LEU786  VAL792 
 PHE793  MET794  SER795  GLU796  ALA797  LYS798  CYS799  TRP800  GLU811  SER814 

> <Gold.Protein.RotatedAtoms>
  152.0573  133.4046  159.4402 H   0  0  0  0  0  0  0  0  0  0  0  0  # atno 6907 bound_to 6896
  150.6867  134.3240  159.4808 H   0  0  0  0  0  0  0  0  0  0  0  0  # atno 6908 bound_to 6896
  152.1057  134.9310  160.0619 H   0  0  0  0  0  0  0  0  0  0  0  0  # atno 6909 bound_to 6896
  144.7926  139.7287  143.6215 H   0  0  0  0  0  0  0  0  0  0  0  0  # atno 7974 bound_to 7965
  154.9535  140.3069  155.5064 H   0  0  0  0  0  0  0  0  0  0  0  0  # atno 8008 bound_to 7997
  156.2984  140.2314  156.4553 H   0  0  0  0  0  0  0  0  0  0  0  0  # atno 8009 bound_to 7997
  154.8032  140.0433  157.1277 H   0  0  0  0  0  0  0  0  0  0  0  0  # atno 8010 bound_to 7997
  140.6993  143.3078  151.3106 H   0  0  0  0  0  0  0  0  0  0  0  0  # atno 10167 bound_to 10162
  157.6879  131.0665  150.4926 H   0  0  0  0  0  0  0  0  0  0  0  0  # atno 10718 bound_to 10713
  154.6731  135.2942  154.9716 H   0  0  0  0  0  0  0  0  0  0  0  0  # atno 10763 bound_to 10752
  154.0736  135.6614  153.4832 H   0  0  0  0  0  0  0  0  0  0  0  0  # atno 10764 bound_to 10752
  153.0499  135.5181  154.7736 H   0  0  0  0  0  0  0  0  0  0  0  0  # atno 10765 bound_to 10752
  140.9462  133.7248  156.1151 H   0  0  0  0  0  0  0  0  0  0  0  0  # atno 11005 bound_to 11000
  146.2184  139.5590  142.9635 LP  0  0  0  0  0  0  0  0  0  0  0  0  # atno 17320 bound_to 7965
  145.5755  141.0389  143.2151 LP  0  0  0  0  0  0  0  0  0  0  0  0  # atno 17321 bound_to 7965
  139.6491  144.0396  152.2613 LP  0  0  0  0  0  0  0  0  0  0  0  0  # atno 17342 bound_to 10162
  139.9927  144.6350  150.7800 LP  0  0  0  0  0  0  0  0  0  0  0  0  # atno 17343 bound_to 10162
  156.5252  130.4171  149.6230 LP  0  0  0  0  0  0  0  0  0  0  0  0  # atno 17370 bound_to 10713
  156.3119  130.7233  151.2128 LP  0  0  0  0  0  0  0  0  0  0  0  0  # atno 17371 bound_to 10713
  140.7665  134.3880  157.5516 LP  0  0  0  0  0  0  0  0  0  0  0  0  # atno 17394 bound_to 11000
  139.8834  134.8995  156.2768 LP  0  0  0  0  0  0  0  0  0  0  0  0  # atno 17395 bound_to 11000

$$$$
