AV-unprocessed.smi:1826|AV-procd|sdf|7415|dock10
  -GOLD-   22720 9 93D 1   1.00000     0.00000
 Structure written by MMmdl.
 39 41  0  0  0  0  0  0  0  0  1 V2000
  151.9523  137.0968  153.4383 O   0  0  0  0  0  0  0  0  0  0  0  0
  151.7636  137.7112  154.6948 C   0  0  0  0  0  0  0  0  0  0  0  0
  150.5347  138.5678  154.7387 C   0  0  0  0  0  0  0  0  0  0  0  0
  150.5208  139.7926  154.2115 N   0  0  0  0  0  0  0  0  0  0  0  0
  149.2507  140.2407  154.5139 C   0  0  0  0  0  0  0  0  0  0  0  0
  148.6215  141.4739  154.2300 C   0  0  0  0  0  0  0  0  0  0  0  0
  147.2989  141.7157  154.6553 C   0  0  0  0  0  0  0  0  0  0  0  0
  146.5900  140.7316  155.3735 C   0  0  0  0  0  0  0  0  0  0  0  0
  147.1993  139.4972  155.6676 C   0  0  0  0  0  0  0  0  0  0  0  0
  148.5160  139.2547  155.2309 C   0  0  0  0  0  0  0  0  0  0  0  0
  149.3806  138.1666  155.3327 N   0  0  0  0  0  0  0  0  0  0  0  0
  149.0860  136.8888  155.9760 C   0  0  0  0  0  0  0  0  0  0  0  0
  150.1553  136.4297  156.9972 C   0  0  2  0  0  0  0  0  0  0  0  0
  150.8864  135.3293  156.4929 O   0  0  0  0  0  0  0  0  0  0  0  0
  149.5794  136.1709  158.3844 C   0  0  0  0  0  0  0  0  0  0  0  0
  149.8688  137.0285  159.4696 C   0  0  0  0  0  0  0  0  0  0  0  0
  149.3512  136.7561  160.7504 C   0  0  0  0  0  0  0  0  0  0  0  0
  148.5381  135.6223  160.9649 C   0  0  0  0  0  0  0  0  0  0  0  0
  147.9740  135.3191  162.3451 C   0  0  0  0  0  0  0  0  0  0  0  0
  146.6456  135.4150  162.3075 F   0  0  0  0  0  0  0  0  0  0  0  0
  148.3052  134.0835  162.7217 F   0  0  0  0  0  0  0  0  0  0  0  0
  148.4397  136.1719  163.2585 F   0  0  0  0  0  0  0  0  0  0  0  0
  148.2389  134.7733  159.8781 C   0  0  0  0  0  0  0  0  0  0  0  0
  148.7567  135.0449  158.5973 C   0  0  0  0  0  0  0  0  0  0  0  0
  151.1044  136.9030  153.0690 H   0  0  0  0  0  0  0  0  0  0  0  0
  151.6854  136.9319  155.4537 H   0  0  0  0  0  0  0  0  0  0  0  0
  152.6456  138.2978  154.9438 H   0  0  0  0  0  0  0  0  0  0  0  0
  149.1585  142.2361  153.6853 H   0  0  0  0  0  0  0  0  0  0  0  0
  146.8272  142.6615  154.4317 H   0  0  0  0  0  0  0  0  0  0  0  0
  145.5777  140.9241  155.6981 H   0  0  0  0  0  0  0  0  0  0  0  0
  146.6565  138.7428  156.2168 H   0  0  0  0  0  0  0  0  0  0  0  0
  148.1140  136.9566  156.4644 H   0  0  0  0  0  0  0  0  0  0  0  0
  148.9690  136.1337  155.1980 H   0  0  0  0  0  0  0  0  0  0  0  0
  150.8787  137.2394  157.1007 H   0  0  0  0  0  0  0  0  0  0  0  0
  151.8065  135.4927  156.6335 H   0  0  0  0  0  0  0  0  0  0  0  0
  150.5037  137.8914  159.3315 H   0  0  0  0  0  0  0  0  0  0  0  0
  149.5873  137.4219  161.5671 H   0  0  0  0  0  0  0  0  0  0  0  0
  147.6116  133.9063  160.0249 H   0  0  0  0  0  0  0  0  0  0  0  0
  148.5273  134.3788  157.7785 H   0  0  0  0  0  0  0  0  0  0  0  0
  1  2  1  0  0  0  0
  1 25  1  0  0  0  0
  2  3  1  0  0  0  0
  2 26  1  0  0  0  0
  2 27  1  0  0  0  0
  3 11  1  0  0  0  0
  3  4  2  0  0  0  0
  4  5  1  0  0  0  0
  5 10  2  0  0  0  0
  5  6  1  0  0  0  0
  6  7  2  0  0  0  0
  6 28  1  0  0  0  0
  7  8  1  0  0  0  0
  7 29  1  0  0  0  0
  8  9  2  0  0  0  0
  8 30  1  0  0  0  0
  9 10  1  0  0  0  0
  9 31  1  0  0  0  0
 10 11  1  0  0  0  0
 11 12  1  0  0  0  0
 12 13  1  0  0  0  0
 12 32  1  0  0  0  0
 12 33  1  0  0  0  0
 13 14  1  0  0  0  0
 13 15  1  0  0  0  0
 13 34  1  0  0  0  0
 14 35  1  0  0  0  0
 15 24  1  0  0  0  0
 15 16  2  0  0  0  0
 16 17  1  0  0  0  0
 16 36  1  0  0  0  0
 17 18  2  0  0  0  0
 17 37  1  0  0  0  0
 18 19  1  0  0  0  0
 18 23  1  0  0  0  0
 19 20  1  0  0  0  0
 19 21  1  0  0  0  0
 19 22  1  0  0  0  0
 23 24  2  0  0  0  0
 23 38  1  0  0  0  0
 24 39  1  0  0  0  0
M  END
> <s_m_source_file>
AV-unprocessed.smi

> <i_m_source_file_index>
1826

> <i_lp_mmshare_version>
43012

> <i_f3d_flags>
0

> <s_epik_input>
W2NIXTFbY0hdW2NIXVtjSF1jKGMxMiluKGMobjIpW0NIMl1bT0hdKVtDSDJdW0NASF0oW09IXSljM1tjSF1bY0hdYyhDKEYpKEYpRilbY0hdW2NIXTM=

> <s_epik_cmdline>
J2VwaWtfcHl0aG9uJywgJy1waCcsICc3LjAnLCAnLXRuJywgJzgnLCAnLW1hJywgJzIwMCcsICctbWV0YWxfYmluZGluZycsICctaW1hZScsICc8aW5maWxlLm1hZT4nLCAnLW9tYWUnLCAnPG91dGZpbGUubWFlPic=

> <r_epik_Ionization_Penalty>
0.0634718

> <r_epik_Ionization_Penalty_Charging>
0

> <r_epik_Ionization_Penalty_Neutral>
0.0634718

> <r_epik_State_Penalty>
0.0551572

> <r_epik_Charging_Adjusted_Penalty>
0.0551572

> <i_epik_Tot_Q>
0

> <i_epik_Tot_abs_Q>
0

> <r_epik_Metal_State_Penalty>
5.78034e-05

> <b_epik_Metal_Only>
0

> <s_lp_Force_Field>
OPLS_2005

> <r_lp_Energy>
13.2523

> <b_lp_Chiralities_Consistent>
1

> <s_lp_Variant>
AV-unprocessed.smi:1826-1

> <Gold.Version>
5.8.1

> <Gold.Id.Protein>
6NUR|6NUR_protein|mol2

> <Gold.PLP.Fitness>
47.4025

> <Gold.PLP.PLP>
-41.7929

> <Gold.PLP.part.hbond>
-3.0000

> <Gold.PLP.part.metal>
0.0000

> <Gold.PLP.part.buried>
-3.8261

> <Gold.PLP.part.nonpolar>
-35.1409

> <Gold.PLP.part.repulsive>
0.1363

> <Gold.PLP.ligand.clash>
0.6596

> <Gold.PLP.ligand.torsion>
1.2507

> <Gold.PLP.Chemscore.Hbond>
2.6400

> <Gold.PLP.Chemscore.CHOScore>
0.0000

> <Gold.PLP.Chemscore.Metal>
0.0000

> <Gold.Chemscore.Hbonds>
donor molecule, donor type, donor heavy atom, donor atom, acceptor molecule, acceptor atom, score
      L1  H     1    25       P1  7949  0.29
      P1  H  7989  7998       L1     4  1.00
      P1  H 10752 10765       L1     1  1.00

> <Gold.PLP.Chemscore.Internal.Correction>
0.8506

> <Gold.Rescore>
     Score         DG    S(hbond)    S(metal)    S(lipo)     H(rot)  DE(clash)    DE(int)     intcor
     12.55     -13.72       2.09        0.00      74.60       2.91       0.01       1.17       ----

> <Gold.Chemscore.Fitness>
12.5514

> <Gold.Chemscore.DG>
-13.7236

> <Gold.Chemscore.ZeroCoef>
-5.4800

> <Gold.Chemscore.Hbond>
2.0886

> <Gold.Chemscore.Metal>
0.0000

> <Gold.Chemscore.Lipo>
74.5960

> <Gold.Chemscore.Internal_Hbond>
0.0000

> <Gold.Chemscore.DEClash>
0.0050

> <Gold.Chemscore.DEInternal>
1.1672

> <Gold.Chemscore.Rot>
2.9141

> <Gold.Chemscore.Internal.Correction>
   9.000000E+99

> <Gold.Chemscore.Hbonds>
donor molecule, donor type, donor heavy atom, donor atom, acceptor molecule, acceptor atom, score
      L1  H     1    25       P1  7949  0.11
      P1  H  7989  7998       L1     4  0.97
      P1  H 10752 10765       L1     1  0.29

> <Gold.Chemscore.Hbond.Weighted>
-6.9759

> <Gold.Chemscore.Metal.Weighted>
-0.0000

> <Gold.Chemscore.Lipo.Weighted>
-8.7277

> <Gold.Chemscore.Internal_Hbond.Weighted>
0.0000

> <Gold.Chemscore.DEClash.Weighted>
0.0050

> <Gold.Chemscore.DEInternal.Weighted>
1.1672

> <Gold.Chemscore.Rot.Weighted>
7.4600

> <Gold.Chemscore.Internal.Correction.Weighted>
   9.000000E+99

> <Gold.Protein.RotatedTorsions>
[ 6907 6896 6895 6894 ] final   21.03 input  -60.11 | X-H torsion
[ 7974 7965 7964 7962 ] final    5.90 input  175.53 | X-H torsion
[ 8008 7997 7996 7995 ] final  177.79 input   59.86 | X-H torsion
[ 10167 10162 10161 10158 ] final   88.94 input  -65.29 | X-H torsion
[ 10718 10713 10712 10709 ] final   73.65 input   66.30 | X-H torsion
[ 10763 10752 10751 10750 ] final  136.42 input  -60.55 | X-H torsion
[ 11005 11000 10999 10996 ] final   47.78 input  -57.11 | X-H torsion

> <Gold.Protein.ActiveResidues>
 VAL166  LYS551  ARG553  GLY616  TRP617  ASP618  TYR619  PRO620  LYS621  CYS622 
 ASP623  PHE694  ASN695  SER759  ASP760  ASP761  ALA762  ILE779  LEU786  VAL792 
 PHE793  MET794  SER795  GLU796  ALA797  LYS798  CYS799  TRP800  GLU811  SER814 

> <Gold.Protein.RotatedAtoms>
  151.9055  135.0360  160.0509 H   0  0  0  0  0  0  0  0  0  0  0  0  # atno 6907 bound_to 6896
  152.2323  133.5063  159.5231 H   0  0  0  0  0  0  0  0  0  0  0  0  # atno 6908 bound_to 6896
  150.7029  134.1117  159.4045 H   0  0  0  0  0  0  0  0  0  0  0  0  # atno 6909 bound_to 6896
  146.2438  140.0315  142.8389 H   0  0  0  0  0  0  0  0  0  0  0  0  # atno 7974 bound_to 7965
  156.0618  140.1349  156.9932 H   0  0  0  0  0  0  0  0  0  0  0  0  # atno 8008 bound_to 7997
  154.4485  140.0990  156.6599 H   0  0  0  0  0  0  0  0  0  0  0  0  # atno 8009 bound_to 7997
  155.5365  140.3460  155.4440 H   0  0  0  0  0  0  0  0  0  0  0  0  # atno 8010 bound_to 7997
  139.8623  144.6537  150.9044 H   0  0  0  0  0  0  0  0  0  0  0  0  # atno 10167 bound_to 10162
  157.6557  130.9639  150.1099 H   0  0  0  0  0  0  0  0  0  0  0  0  # atno 10718 bound_to 10713
  153.8563  135.3073  155.3435 H   0  0  0  0  0  0  0  0  0  0  0  0  # atno 10763 bound_to 10752
  154.7869  135.4805  153.9968 H   0  0  0  0  0  0  0  0  0  0  0  0  # atno 10764 bound_to 10752
  153.1488  135.6839  153.9007 H   0  0  0  0  0  0  0  0  0  0  0  0  # atno 10765 bound_to 10752
  140.1249  134.4781  155.8567 H   0  0  0  0  0  0  0  0  0  0  0  0  # atno 11005 bound_to 11000
  145.1151  140.9428  143.4633 LP  0  0  0  0  0  0  0  0  0  0  0  0  # atno 17320 bound_to 7965
  145.0537  139.3161  143.5915 LP  0  0  0  0  0  0  0  0  0  0  0  0  # atno 17321 bound_to 7965
  140.7773  143.3734  151.1608 LP  0  0  0  0  0  0  0  0  0  0  0  0  # atno 17342 bound_to 10162
  139.7362  143.8995  152.3035 LP  0  0  0  0  0  0  0  0  0  0  0  0  # atno 17343 bound_to 10162
  156.1998  130.3659  149.8802 LP  0  0  0  0  0  0  0  0  0  0  0  0  # atno 17370 bound_to 10713
  156.6709  130.8820  151.3562 LP  0  0  0  0  0  0  0  0  0  0  0  0  # atno 17371 bound_to 10713
  141.2159  133.6774  156.6959 LP  0  0  0  0  0  0  0  0  0  0  0  0  # atno 17394 bound_to 11000
  140.2917  134.8235  157.4022 LP  0  0  0  0  0  0  0  0  0  0  0  0  # atno 17395 bound_to 11000

$$$$
