AV-unprocessed.smi:3044|AV-procd|sdf|11607|dock4
  -GOLD-   2272016583D 1   1.00000     0.00000
 Structure written by MMmdl.
 41 42  0  0  0  0  0  0  0  0  1 V2000
  153.0636  141.3093  159.0805 C   0  0  0  0  0  0  0  0  0  0  0  0
  152.3718  142.6459  159.2864 C   0  0  0  0  0  0  0  0  0  0  0  0
  151.7944  143.1768  158.1853 N   0  0  0  0  0  0  0  0  0  0  0  0
  151.1650  144.3642  158.3040 C   0  0  0  0  0  0  0  0  0  0  0  0
  151.0875  145.0782  159.5143 C   0  0  0  0  0  0  0  0  0  0  0  0
  151.6885  144.5241  160.6602 C   0  0  0  0  0  0  0  0  0  0  0  0
  152.3389  143.2706  160.5574 C   0  0  0  0  0  0  0  0  0  0  0  0
  152.9916  142.6399  161.6523 N   0  0  0  0  0  0  0  0  0  0  0  0
  153.1948  143.1132  162.8959 C   0  0  0  0  0  0  0  0  0  0  0  0
  152.8489  144.2284  163.2840 O   0  0  0  0  0  0  0  0  0  0  0  0
  153.9058  142.1715  163.8695 C   0  0  0  0  0  0  0  0  0  0  0  0
  155.2272  142.6430  164.1071 O   0  0  0  0  0  0  0  0  0  0  0  0
  155.6884  142.4610  165.4386 C   0  0  2  0  0  0  0  0  0  0  0  0
  155.4594  140.9848  165.8036 C   0  0  0  0  0  0  0  0  0  0  0  0
  155.8515  140.7034  167.2616 C   0  0  0  0  0  0  0  0  0  0  0  0
  155.0911  141.6258  168.2273 C   0  0  0  0  0  0  0  0  0  0  0  0
  155.3067  143.1112  167.8785 C   0  0  2  0  0  0  0  0  0  0  0  0
  154.5376  144.0291  168.8396 C   0  0  0  0  0  0  0  0  0  0  0  0
  154.9241  143.3843  166.4102 C   0  0  0  0  0  0  0  0  0  0  0  0
  152.6139  140.5477  159.7179 H   0  0  0  0  0  0  0  0  0  0  0  0
  154.1219  141.3866  159.3306 H   0  0  0  0  0  0  0  0  0  0  0  0
  152.9861  140.9713  158.0464 H   0  0  0  0  0  0  0  0  0  0  0  0
  150.7149  144.7603  157.4056 H   0  0  0  0  0  0  0  0  0  0  0  0
  150.5826  146.0317  159.5618 H   0  0  0  0  0  0  0  0  0  0  0  0
  151.6523  145.0738  161.5880 H   0  0  0  0  0  0  0  0  0  0  0  0
  153.2536  141.6757  161.5056 H   0  0  0  0  0  0  0  0  0  0  0  0
  153.3412  142.1377  164.8023 H   0  0  0  0  0  0  0  0  0  0  0  0
  153.9190  141.1658  163.4490 H   0  0  0  0  0  0  0  0  0  0  0  0
  156.7593  142.6664  165.4952 H   0  0  0  0  0  0  0  0  0  0  0  0
  154.4100  140.7271  165.6536 H   0  0  0  0  0  0  0  0  0  0  0  0
  156.0341  140.3431  165.1351 H   0  0  0  0  0  0  0  0  0  0  0  0
  155.6480  139.6606  167.5067 H   0  0  0  0  0  0  0  0  0  0  0  0
  156.9257  140.8466  167.3869 H   0  0  0  0  0  0  0  0  0  0  0  0
  154.0267  141.3889  168.1922 H   0  0  0  0  0  0  0  0  0  0  0  0
  155.4163  141.4311  169.2498 H   0  0  0  0  0  0  0  0  0  0  0  0
  156.3689  143.3318  167.9941 H   0  0  0  0  0  0  0  0  0  0  0  0
  153.4619  143.8640  168.7702 H   0  0  0  0  0  0  0  0  0  0  0  0
  154.7281  145.0794  168.6169 H   0  0  0  0  0  0  0  0  0  0  0  0
  154.8352  143.8531  169.8736 H   0  0  0  0  0  0  0  0  0  0  0  0
  155.1238  144.4294  166.1744 H   0  0  0  0  0  0  0  0  0  0  0  0
  153.8509  143.2395  166.2781 H   0  0  0  0  0  0  0  0  0  0  0  0
  1  2  1  0  0  0  0
  1 20  1  0  0  0  0
  1 21  1  0  0  0  0
  1 22  1  0  0  0  0
  2  7  1  0  0  0  0
  2  3  2  0  0  0  0
  3  4  1  0  0  0  0
  4  5  2  0  0  0  0
  4 23  1  0  0  0  0
  5  6  1  0  0  0  0
  5 24  1  0  0  0  0
  6  7  2  0  0  0  0
  6 25  1  0  0  0  0
  7  8  1  0  0  0  0
  8  9  1  0  0  0  0
  8 26  1  0  0  0  0
  9 10  2  0  0  0  0
  9 11  1  0  0  0  0
 11 12  1  0  0  0  0
 11 27  1  0  0  0  0
 11 28  1  0  0  0  0
 12 13  1  0  0  0  0
 13 19  1  0  0  0  0
 13 14  1  0  0  0  0
 13 29  1  0  0  0  0
 14 15  1  0  0  0  0
 14 30  1  0  0  0  0
 14 31  1  0  0  0  0
 15 16  1  0  0  0  0
 15 32  1  0  0  0  0
 15 33  1  0  0  0  0
 16 17  1  0  0  0  0
 16 34  1  0  0  0  0
 16 35  1  0  0  0  0
 17 18  1  0  0  0  0
 17 19  1  0  0  0  0
 17 36  1  0  0  0  0
 18 37  1  0  0  0  0
 18 38  1  0  0  0  0
 18 39  1  0  0  0  0
 19 40  1  0  0  0  0
 19 41  1  0  0  0  0
M  END
> <s_m_source_file>
AV-unprocessed.smi

> <i_m_source_file_index>
3044

> <i_lp_mmshare_version>
43012

> <i_f3d_flags>
0

> <s_epik_input>
W0NIM11jMW5bY0hdW2NIXVtjSF1jMVtOSF1DKD1PKVtDSDJdT1tDQEBIXTJbQ0gyXVtDSDJdW0NIMl1bQ0BASF0oW0NIM10pW0NIMl0y

> <s_epik_cmdline>
J2VwaWtfcHl0aG9uJywgJy1waCcsICc3LjAnLCAnLXRuJywgJzgnLCAnLW1hJywgJzIwMCcsICctbWV0YWxfYmluZGluZycsICctaW1hZScsICc8aW5maWxlLm1hZT4nLCAnLW9tYWUnLCAnPG91dGZpbGUubWFlPic=

> <r_epik_Ionization_Penalty>
0.0077122

> <r_epik_Ionization_Penalty_Charging>
0

> <r_epik_Ionization_Penalty_Neutral>
0.0077122

> <r_epik_State_Penalty>
0.00577497

> <r_epik_Charging_Adjusted_Penalty>
0.00577497

> <i_epik_Tot_Q>
0

> <i_epik_Tot_abs_Q>
0

> <r_epik_Metal_State_Penalty>
-0

> <b_epik_Metal_Only>
0

> <s_lp_Force_Field>
OPLS_2005

> <r_lp_Energy>
17.0629

> <b_lp_Chiralities_Consistent>
1

> <s_lp_Variant>
AV-unprocessed.smi:3044-3

> <Gold.Version>
5.8.1

> <Gold.Id.Protein>
6NUR|6NUR_protein|mol2

> <Gold.PLP.Fitness>
45.9861

> <Gold.PLP.PLP>
-43.8326

> <Gold.PLP.part.hbond>
-0.4835

> <Gold.PLP.part.metal>
0.0000

> <Gold.PLP.part.buried>
-3.7497

> <Gold.PLP.part.nonpolar>
-38.3230

> <Gold.PLP.part.repulsive>
0.2894

> <Gold.PLP.ligand.clash>
0.0001

> <Gold.PLP.ligand.torsion>
0.4270

> <Gold.PLP.Chemscore.Hbond>
0.0000

> <Gold.PLP.Chemscore.CHOScore>
0.9969

> <Gold.PLP.Chemscore.Metal>
0.0000

> <Gold.Chemscore.Hbonds>
donor molecule, donor type, donor heavy atom, donor atom, acceptor molecule, acceptor atom, score
      L1  C     4    23       P1  8028  1.00

> <Gold.PLP.Chemscore.Internal.Correction>
0.0167

> <Gold.Rescore>
     Score         DG    S(hbond)    S(metal)    S(lipo)     H(rot)  DE(clash)    DE(int)     intcor
     12.19     -15.66       0.00        0.00     115.57       1.31       1.83       1.64       ----

> <Gold.Chemscore.Fitness>
12.1870

> <Gold.Chemscore.DG>
-15.6573

> <Gold.Chemscore.ZeroCoef>
-5.4800

> <Gold.Chemscore.Hbond>
0.0000

> <Gold.Chemscore.Metal>
0.0000

> <Gold.Chemscore.Lipo>
115.5692

> <Gold.Chemscore.Internal_Hbond>
0.0000

> <Gold.Chemscore.DEClash>
1.8271

> <Gold.Chemscore.DEInternal>
1.6432

> <Gold.Chemscore.Rot>
1.3064

> <Gold.Chemscore.Internal.Correction>
   9.000000E+99

> <Gold.Chemscore.Hbond.Weighted>
-0.0000

> <Gold.Chemscore.Metal.Weighted>
-0.0000

> <Gold.Chemscore.Lipo.Weighted>
-13.5216

> <Gold.Chemscore.Internal_Hbond.Weighted>
0.0000

> <Gold.Chemscore.DEClash.Weighted>
1.8271

> <Gold.Chemscore.DEInternal.Weighted>
1.6432

> <Gold.Chemscore.Rot.Weighted>
3.3443

> <Gold.Chemscore.Internal.Correction.Weighted>
   9.000000E+99

> <Gold.Protein.RotatedTorsions>
[ 6907 6896 6895 6894 ] final  -76.43 input  -60.11 | X-H torsion
[ 7974 7965 7964 7962 ] final  -48.65 input  175.53 | X-H torsion
[ 8008 7997 7996 7995 ] final -138.06 input   59.86 | X-H torsion
[ 10167 10162 10161 10158 ] final  -55.59 input  -65.29 | X-H torsion
[ 10718 10713 10712 10709 ] final -172.32 input   66.30 | X-H torsion
[ 10763 10752 10751 10750 ] final -128.27 input  -60.55 | X-H torsion
[ 11005 11000 10999 10996 ] final   20.87 input  -57.11 | X-H torsion

> <Gold.Protein.ActiveResidues>
 VAL166  LYS551  ARG553  GLY616  TRP617  ASP618  TYR619  PRO620  LYS621  CYS622 
 ASP623  PHE694  ASN695  SER759  ASP760  ASP761  ALA762  ILE779  LEU786  VAL792 
 PHE793  MET794  SER795  GLU796  ALA797  LYS798  CYS799  TRP800  GLU811  SER814 

> <Gold.Protein.RotatedAtoms>
  150.7027  134.4572  159.5363 H   0  0  0  0  0  0  0  0  0  0  0  0  # atno 6907 bound_to 6896
  152.2254  134.8370  160.0490 H   0  0  0  0  0  0  0  0  0  0  0  0  # atno 6908 bound_to 6896
  151.9206  133.3549  159.3932 H   0  0  0  0  0  0  0  0  0  0  0  0  # atno 6909 bound_to 6896
  145.9490  140.7591  142.9514 H   0  0  0  0  0  0  0  0  0  0  0  0  # atno 7974 bound_to 7965
  155.4221  140.0519  157.3025 H   0  0  0  0  0  0  0  0  0  0  0  0  # atno 8008 bound_to 7997
  154.4898  140.2115  155.9533 H   0  0  0  0  0  0  0  0  0  0  0  0  # atno 8009 bound_to 7997
  156.1326  140.3169  155.8376 H   0  0  0  0  0  0  0  0  0  0  0  0  # atno 8010 bound_to 7997
  140.6366  143.2485  151.5101 H   0  0  0  0  0  0  0  0  0  0  0  0  # atno 10167 bound_to 10162
  156.7538  130.9388  151.3115 H   0  0  0  0  0  0  0  0  0  0  0  0  # atno 10718 bound_to 10713
  154.8756  135.3934  154.3729 H   0  0  0  0  0  0  0  0  0  0  0  0  # atno 10763 bound_to 10752
  153.4486  135.7028  153.6128 H   0  0  0  0  0  0  0  0  0  0  0  0  # atno 10764 bound_to 10752
  153.4677  135.3797  155.2343 H   0  0  0  0  0  0  0  0  0  0  0  0  # atno 10765 bound_to 10752
  140.3978  134.1750  155.7663 H   0  0  0  0  0  0  0  0  0  0  0  0  # atno 11005 bound_to 11000
  144.6792  140.2403  143.7344 LP  0  0  0  0  0  0  0  0  0  0  0  0  # atno 17320 bound_to 7965
  145.8197  139.2038  143.1945 LP  0  0  0  0  0  0  0  0  0  0  0  0  # atno 17321 bound_to 7965
  139.5576  144.2236  152.1638 LP  0  0  0  0  0  0  0  0  0  0  0  0  # atno 17342 bound_to 10162
  140.1494  144.5128  150.6696 LP  0  0  0  0  0  0  0  0  0  0  0  0  # atno 17343 bound_to 10162
  157.6765  130.9099  150.0163 LP  0  0  0  0  0  0  0  0  0  0  0  0  # atno 17370 bound_to 10713
  156.1384  130.3642  149.9621 LP  0  0  0  0  0  0  0  0  0  0  0  0  # atno 17371 bound_to 10713
  141.1868  133.8295  157.1057 LP  0  0  0  0  0  0  0  0  0  0  0  0  # atno 17394 bound_to 11000
  140.0358  134.9879  157.0869 LP  0  0  0  0  0  0  0  0  0  0  0  0  # atno 17395 bound_to 11000

$$$$
