AV-unprocessed.smi:3056|AV-procd|sdf|11660|dock7
  -GOLD-   2272017 63D 1   1.00000     0.00000
 Structure written by MMmdl.
 47 48  0  0  0  0  0  0  0  0  1 V2000
  148.8770  136.0568  154.9369 C   0  0  0  0  0  0  0  0  0  0  0  0
  150.2609  136.3667  155.4291 C   0  0  0  0  0  0  0  0  0  0  0  0
  151.3551  136.8879  154.6836 C   0  0  0  0  0  0  0  0  0  0  0  0
  152.4393  137.0659  155.4193 N   0  0  0  0  0  0  0  0  0  0  0  0
  152.0859  136.6508  156.6575 N   0  0  0  0  0  0  0  0  0  0  0  0
  153.0176  136.7495  157.7778 C   0  0  1  0  0  0  0  0  0  0  0  0
  154.4710  136.9883  157.3129 C   0  0  0  0  0  0  0  0  0  0  0  0
  152.5066  137.7585  158.8399 C   0  0  1  0  0  0  0  0  0  0  0  0
  153.2692  137.6625  160.1743 C   0  0  0  0  0  0  0  0  0  0  0  0
  152.5835  139.1256  158.3198 N   0  0  0  0  0  0  0  0  0  0  0  0
  151.8123  140.1198  159.0878 C   0  0  0  0  0  0  0  0  0  0  0  0
  151.7880  141.5368  158.4783 C   0  0  0  0  0  0  0  0  0  0  0  0
  151.2801  141.7007  157.3674 O   0  0  0  0  0  0  0  0  0  0  0  0
  152.3292  142.5639  159.1759 N   0  0  0  0  0  0  0  0  0  0  0  0
  152.2353  143.9617  158.7490 C   0  0  0  0  0  0  0  0  0  0  0  0
  151.3571  144.7087  159.7694 C   0  0  0  0  0  0  0  0  0  0  0  0
  151.9142  144.5777  161.0768 O   0  0  0  0  0  0  0  0  0  0  0  0
  152.0627  143.2228  161.5026 C   0  0  2  0  0  0  0  0  0  0  0  0
  152.6542  143.2254  162.9161 C   0  0  0  0  0  0  0  0  0  0  0  0
  152.9616  142.4798  160.4947 C   0  0  0  0  0  0  0  0  0  0  0  0
  150.7708  136.2350  156.6895 C   0  0  0  0  0  0  0  0  0  0  0  0
  148.8948  135.5934  153.9505 H   0  0  0  0  0  0  0  0  0  0  0  0
  148.2696  136.9586  154.8584 H   0  0  0  0  0  0  0  0  0  0  0  0
  148.3525  135.3722  155.6037 H   0  0  0  0  0  0  0  0  0  0  0  0
  151.3909  137.1491  153.6364 H   0  0  0  0  0  0  0  0  0  0  0  0
  153.0108  135.7658  158.2496 H   0  0  0  0  0  0  0  0  0  0  0  0
  155.1737  136.8983  158.1405 H   0  0  0  0  0  0  0  0  0  0  0  0
  154.6038  137.9771  156.8731 H   0  0  0  0  0  0  0  0  0  0  0  0
  154.7641  136.2522  156.5639 H   0  0  0  0  0  0  0  0  0  0  0  0
  151.4678  137.4953  159.0421 H   0  0  0  0  0  0  0  0  0  0  0  0
  153.2809  136.6364  160.5421 H   0  0  0  0  0  0  0  0  0  0  0  0
  152.8050  138.2738  160.9476 H   0  0  0  0  0  0  0  0  0  0  0  0
  154.3037  137.9915  160.0748 H   0  0  0  0  0  0  0  0  0  0  0  0
  152.3053  139.1276  157.3477 H   0  0  0  0  0  0  0  0  0  0  0  0
  150.7959  139.7487  159.2151 H   0  0  0  0  0  0  0  0  0  0  0  0
  152.2490  140.1932  160.0838 H   0  0  0  0  0  0  0  0  0  0  0  0
  153.2327  144.4021  158.7130 H   0  0  0  0  0  0  0  0  0  0  0  0
  151.8174  144.0759  157.7481 H   0  0  0  0  0  0  0  0  0  0  0  0
  151.2983  145.7669  159.5149 H   0  0  0  0  0  0  0  0  0  0  0  0
  150.3375  144.3201  159.7603 H   0  0  0  0  0  0  0  0  0  0  0  0
  151.0794  142.7497  161.5365 H   0  0  0  0  0  0  0  0  0  0  0  0
  152.7830  142.2090  163.2889 H   0  0  0  0  0  0  0  0  0  0  0  0
  152.0009  143.7533  163.6110 H   0  0  0  0  0  0  0  0  0  0  0  0
  153.6279  143.7155  162.9358 H   0  0  0  0  0  0  0  0  0  0  0  0
  153.1487  141.4602  160.8271 H   0  0  0  0  0  0  0  0  0  0  0  0
  153.9439  142.9528  160.4502 H   0  0  0  0  0  0  0  0  0  0  0  0
  150.3074  135.8907  157.6023 H   0  0  0  0  0  0  0  0  0  0  0  0
  1  2  1  0  0  0  0
  1 22  1  0  0  0  0
  1 23  1  0  0  0  0
  1 24  1  0  0  0  0
  2 21  2  0  0  0  0
  2  3  1  0  0  0  0
  3  4  2  0  0  0  0
  3 25  1  0  0  0  0
  4  5  1  0  0  0  0
  5  6  1  0  0  0  0
  5 21  1  0  0  0  0
  6  7  1  0  0  0  0
  6  8  1  0  0  0  0
  6 26  1  0  0  0  0
  7 27  1  0  0  0  0
  7 28  1  0  0  0  0
  7 29  1  0  0  0  0
  8  9  1  0  0  0  0
  8 10  1  0  0  0  0
  8 30  1  0  0  0  0
  9 31  1  0  0  0  0
  9 32  1  0  0  0  0
  9 33  1  0  0  0  0
 10 11  1  0  0  0  0
 10 34  1  0  0  0  0
 11 12  1  0  0  0  0
 11 35  1  0  0  0  0
 11 36  1  0  0  0  0
 12 13  2  0  0  0  0
 12 14  1  0  0  0  0
 14 20  1  0  0  0  0
 14 15  1  0  0  0  0
 15 16  1  0  0  0  0
 15 37  1  0  0  0  0
 15 38  1  0  0  0  0
 16 17  1  0  0  0  0
 16 39  1  0  0  0  0
 16 40  1  0  0  0  0
 17 18  1  0  0  0  0
 18 19  1  0  0  0  0
 18 20  1  0  0  0  0
 18 41  1  0  0  0  0
 19 42  1  0  0  0  0
 19 43  1  0  0  0  0
 19 44  1  0  0  0  0
 20 45  1  0  0  0  0
 20 46  1  0  0  0  0
 21 47  1  0  0  0  0
M  END
> <s_m_source_file>
AV-unprocessed.smi

> <i_m_source_file_index>
3056

> <i_lp_mmshare_version>
43012

> <i_f3d_flags>
0

> <s_epik_input>
W0NIM11jMVtjSF1ubihbY0hdMSlbQ0BIXShbQ0gzXSlbQ0BIXShbQ0gzXSlbTkhdW0NIMl1DKD1PKU4yW0NIMl1bQ0gyXU9bQ0BASF0oW0NIM10pW0NIMl0y

> <s_epik_cmdline>
J2VwaWtfcHl0aG9uJywgJy1waCcsICc3LjAnLCAnLXRuJywgJzgnLCAnLW1hJywgJzIwMCcsICctbWV0YWxfYmluZGluZycsICctaW1hZScsICc8aW5maWxlLm1hZT4nLCAnLW9tYWUnLCAnPG91dGZpbGUubWFlPic=

> <r_lp_tautomer_probability>
1

> <r_epik_Ionization_Penalty>
0.667689

> <r_epik_Ionization_Penalty_Charging>
0

> <r_epik_Ionization_Penalty_Neutral>
0.667689

> <r_epik_State_Penalty>
0.684601

> <r_epik_Charging_Adjusted_Penalty>
0.684601

> <i_epik_Tot_Q>
0

> <i_epik_Tot_abs_Q>
0

> <r_epik_Metal_State_Penalty>
0.681448

> <b_epik_Metal_Only>
0

> <s_lp_Force_Field>
OPLS_2005

> <r_lp_Energy>
31.287

> <b_lp_Chiralities_Consistent>
1

> <s_lp_Variant>
AV-unprocessed.smi:3056-16

> <Gold.Version>
5.8.1

> <Gold.Id.Protein>
6NUR|6NUR_protein|mol2

> <Gold.PLP.Fitness>
44.7144

> <Gold.PLP.PLP>
-39.1084

> <Gold.PLP.part.hbond>
-1.0000

> <Gold.PLP.part.metal>
0.0000

> <Gold.PLP.part.buried>
-5.3876

> <Gold.PLP.part.nonpolar>
-33.2065

> <Gold.PLP.part.repulsive>
0.2587

> <Gold.PLP.ligand.clash>
0.0000

> <Gold.PLP.ligand.torsion>
0.3505

> <Gold.PLP.Chemscore.Hbond>
0.9440

> <Gold.PLP.Chemscore.CHOScore>
1.0889

> <Gold.PLP.Chemscore.Metal>
0.0000

> <Gold.Chemscore.Hbonds>
donor molecule, donor type, donor heavy atom, donor atom, acceptor molecule, acceptor atom, score
      P1  H 10752 10764       L1     4  0.22
      L1  C     3    25       P1  7949  1.00

> <Gold.PLP.Chemscore.Internal.Correction>
0.2083

> <Gold.Rescore>
     Score         DG    S(hbond)    S(metal)    S(lipo)     H(rot)  DE(clash)    DE(int)     intcor
     14.60     -15.08       0.74        0.00      97.63       1.68       0.04       0.44       ----

> <Gold.Chemscore.Fitness>
14.6049

> <Gold.Chemscore.DG>
-15.0779

> <Gold.Chemscore.ZeroCoef>
-5.4800

> <Gold.Chemscore.Hbond>
0.7409

> <Gold.Chemscore.Metal>
0.0000

> <Gold.Chemscore.Lipo>
97.6267

> <Gold.Chemscore.Internal_Hbond>
0.0000

> <Gold.Chemscore.DEClash>
0.0352

> <Gold.Chemscore.DEInternal>
0.4377

> <Gold.Chemscore.Rot>
1.6793

> <Gold.Chemscore.Internal.Correction>
   9.000000E+99

> <Gold.Chemscore.Hbond.Weighted>
-2.4746

> <Gold.Chemscore.Metal.Weighted>
-0.0000

> <Gold.Chemscore.Lipo.Weighted>
-11.4223

> <Gold.Chemscore.Internal_Hbond.Weighted>
0.0000

> <Gold.Chemscore.DEClash.Weighted>
0.0352

> <Gold.Chemscore.DEInternal.Weighted>
0.4377

> <Gold.Chemscore.Rot.Weighted>
4.2990

> <Gold.Chemscore.Internal.Correction.Weighted>
   9.000000E+99

> <Gold.Protein.RotatedTorsions>
[ 6907 6896 6895 6894 ] final  130.63 input  -60.11 | X-H torsion
[ 7974 7965 7964 7962 ] final  121.68 input  175.53 | X-H torsion
[ 8008 7997 7996 7995 ] final   61.46 input   59.86 | X-H torsion
[ 10167 10162 10161 10158 ] final  -49.73 input  -65.29 | X-H torsion
[ 10718 10713 10712 10709 ] final   52.35 input   66.30 | X-H torsion
[ 10763 10752 10751 10750 ] final  -51.22 input  -60.55 | X-H torsion
[ 11005 11000 10999 10996 ] final  -63.57 input  -57.11 | X-H torsion

> <Gold.Protein.ActiveResidues>
 VAL166  LYS551  ARG553  GLY616  TRP617  ASP618  TYR619  PRO620  LYS621  CYS622 
 ASP623  PHE694  ASN695  SER759  ASP760  ASP761  ALA762  ILE779  LEU786  VAL792 
 PHE793  MET794  SER795  GLU796  ALA797  LYS798  CYS799  TRP800  GLU811  SER814 

> <Gold.Protein.RotatedAtoms>
  152.3507  133.6176  159.5942 H   0  0  0  0  0  0  0  0  0  0  0  0  # atno 6907 bound_to 6896
  150.7536  133.9578  159.3515 H   0  0  0  0  0  0  0  0  0  0  0  0  # atno 6908 bound_to 6896
  151.7430  135.0851  160.0370 H   0  0  0  0  0  0  0  0  0  0  0  0  # atno 6909 bound_to 6896
  145.1164  139.3418  143.4736 H   0  0  0  0  0  0  0  0  0  0  0  0  # atno 7974 bound_to 7965
  155.5987  140.3493  155.4587 H   0  0  0  0  0  0  0  0  0  0  0  0  # atno 8008 bound_to 7997
  156.0245  140.1261  157.0348 H   0  0  0  0  0  0  0  0  0  0  0  0  # atno 8009 bound_to 7997
  154.4328  140.1056  156.5997 H   0  0  0  0  0  0  0  0  0  0  0  0  # atno 8010 bound_to 7997
  140.6671  143.2686  151.4257 H   0  0  0  0  0  0  0  0  0  0  0  0  # atno 10167 bound_to 10162
  157.5066  130.8473  149.8383 H   0  0  0  0  0  0  0  0  0  0  0  0  # atno 10718 bound_to 10713
  154.1231  135.6531  153.4907 H   0  0  0  0  0  0  0  0  0  0  0  0  # atno 10763 bound_to 10752
  153.0219  135.5275  154.7076 H   0  0  0  0  0  0  0  0  0  0  0  0  # atno 10764 bound_to 10752
  154.6290  135.2974  155.0209 H   0  0  0  0  0  0  0  0  0  0  0  0  # atno 10765 bound_to 10752
  141.1397  133.6654  156.5700 H   0  0  0  0  0  0  0  0  0  0  0  0  # atno 11005 bound_to 11000
  146.3523  140.1105  142.8604 LP  0  0  0  0  0  0  0  0  0  0  0  0  # atno 17320 bound_to 7965
  145.0789  140.9207  143.4837 LP  0  0  0  0  0  0  0  0  0  0  0  0  # atno 17321 bound_to 7965
  139.5924  144.1470  152.2104 LP  0  0  0  0  0  0  0  0  0  0  0  0  # atno 17342 bound_to 10162
  140.0828  144.5686  150.7110 LP  0  0  0  0  0  0  0  0  0  0  0  0  # atno 17343 bound_to 10162
  156.0262  130.3778  150.1815 LP  0  0  0  0  0  0  0  0  0  0  0  0  # atno 17370 bound_to 10713
  157.0005  130.9921  151.3392 LP  0  0  0  0  0  0  0  0  0  0  0  0  # atno 17371 bound_to 10713
  140.3920  134.7432  157.4727 LP  0  0  0  0  0  0  0  0  0  0  0  0  # atno 17394 bound_to 11000
  140.0559  134.6064  155.8806 LP  0  0  0  0  0  0  0  0  0  0  0  0  # atno 17395 bound_to 11000

$$$$
