AV-unprocessed.smi:2013|AV-procd|sdf|8159|dock9
  -GOLD-   2272010403D 1   1.00000     0.00000
 Structure written by MMmdl.
 50 51  0  0  0  0  0  0  0  0  1 V2000
  147.9888  141.2494  154.6794 C   0  0  0  0  0  0  0  0  0  0  0  0
  148.1992  140.2172  153.5578 C   0  0  0  0  0  0  0  0  0  0  0  0
  146.8670  139.8739  152.8585 C   0  0  0  0  0  0  0  0  0  0  0  0
  149.0881  139.0120  154.0071 C   0  0  2  0  0  0  0  0  0  0  0  0
  148.3460  137.9922  154.9121 C   0  0  0  0  0  0  0  0  0  0  0  0
  148.3672  136.6499  154.3441 N   0  0  0  0  0  0  0  0  0  0  0  0
  148.2667  135.5204  155.0575 C   0  0  0  0  0  0  0  0  0  0  0  0
  148.1670  135.5069  156.2853 O   0  0  0  0  0  0  0  0  0  0  0  0
  148.2967  134.2161  154.2485 C   0  0  0  0  0  0  0  0  0  0  0  0
  149.3024  133.2551  154.7205 N   0  0  0  0  0  0  0  0  0  0  0  0
  150.2349  133.6502  155.6619 C   0  0  0  0  0  0  0  0  0  0  0  0
  151.1840  132.8288  156.1609 C   0  0  0  0  0  0  0  0  0  0  0  0
  151.2818  131.4431  155.7192 C   0  0  0  0  0  0  0  0  0  0  0  0
  152.1167  130.6537  156.1629 O   0  0  0  0  0  0  0  0  0  0  0  0
  150.3270  131.0689  154.7436 N   0  0  0  0  0  0  0  0  0  0  0  0
  150.3388  129.7015  154.2664 C   0  0  0  0  0  0  0  0  0  0  0  0
  149.3246  131.9281  154.2392 C   0  0  0  0  0  0  0  0  0  0  0  0
  148.4888  131.5465  153.4160 O   0  0  0  0  0  0  0  0  0  0  0  0
  150.4459  139.3729  154.4630 N   0  0  0  0  0  0  0  0  0  0  0  0
  151.3787  138.2476  154.4433 C   0  0  0  0  0  0  0  0  0  0  0  0
  152.8111  138.6876  154.7873 C   0  0  0  0  0  0  0  0  0  0  0  0
  152.8168  139.3248  156.0602 O   0  0  0  0  0  0  0  0  0  0  0  0
  151.9575  140.4588  156.1085 C   0  0  0  0  0  0  0  0  0  0  0  0
  150.5174  140.0418  155.7605 C   0  0  0  0  0  0  0  0  0  0  0  0
  147.3509  140.8566  155.4715 H   0  0  0  0  0  0  0  0  0  0  0  0
  147.5152  142.1533  154.2956 H   0  0  0  0  0  0  0  0  0  0  0  0
  148.9384  141.5424  155.1283 H   0  0  0  0  0  0  0  0  0  0  0  0
  148.7823  140.7406  152.7989 H   0  0  0  0  0  0  0  0  0  0  0  0
  146.1339  139.4349  153.5305 H   0  0  0  0  0  0  0  0  0  0  0  0
  147.0043  139.1935  152.0190 H   0  0  0  0  0  0  0  0  0  0  0  0
  146.4117  140.7780  152.4534 H   0  0  0  0  0  0  0  0  0  0  0  0
  149.2457  138.4732  153.0711 H   0  0  0  0  0  0  0  0  0  0  0  0
  148.8082  137.9442  155.8980 H   0  0  0  0  0  0  0  0  0  0  0  0
  147.3098  138.2927  155.0688 H   0  0  0  0  0  0  0  0  0  0  0  0
  148.4513  136.5771  153.3404 H   0  0  0  0  0  0  0  0  0  0  0  0
  147.3059  133.7589  154.2644 H   0  0  0  0  0  0  0  0  0  0  0  0
  148.4875  134.4670  153.2042 H   0  0  0  0  0  0  0  0  0  0  0  0
  150.2017  134.6675  156.0243 H   0  0  0  0  0  0  0  0  0  0  0  0
  151.8783  133.2010  156.8997 H   0  0  0  0  0  0  0  0  0  0  0  0
  150.0505  129.6867  153.2142 H   0  0  0  0  0  0  0  0  0  0  0  0
  149.6312  129.1455  154.8830 H   0  0  0  0  0  0  0  0  0  0  0  0
  151.3449  129.2877  154.3443 H   0  0  0  0  0  0  0  0  0  0  0  0
  151.0708  137.4861  155.1595 H   0  0  0  0  0  0  0  0  0  0  0  0
  151.3748  137.7758  153.4603 H   0  0  0  0  0  0  0  0  0  0  0  0
  153.4763  137.8246  154.8175 H   0  0  0  0  0  0  0  0  0  0  0  0
  153.2009  139.3674  154.0278 H   0  0  0  0  0  0  0  0  0  0  0  0
  151.9951  140.8927  157.1076 H   0  0  0  0  0  0  0  0  0  0  0  0
  152.3146  141.2216  155.4151 H   0  0  0  0  0  0  0  0  0  0  0  0
  149.9021  140.9358  155.7649 H   0  0  0  0  0  0  0  0  0  0  0  0
  150.1370  139.3861  156.5441 H   0  0  0  0  0  0  0  0  0  0  0  0
  1  2  1  0  0  0  0
  1 25  1  0  0  0  0
  1 26  1  0  0  0  0
  1 27  1  0  0  0  0
  2  3  1  0  0  0  0
  2  4  1  0  0  0  0
  2 28  1  0  0  0  0
  3 29  1  0  0  0  0
  3 30  1  0  0  0  0
  3 31  1  0  0  0  0
  4  5  1  0  0  0  0
  4 19  1  0  0  0  0
  4 32  1  0  0  0  0
  5  6  1  0  0  0  0
  5 33  1  0  0  0  0
  5 34  1  0  0  0  0
  6  7  1  0  0  0  0
  6 35  1  0  0  0  0
  7  8  2  0  0  0  0
  7  9  1  0  0  0  0
  9 10  1  0  0  0  0
  9 36  1  0  0  0  0
  9 37  1  0  0  0  0
 10 17  1  0  0  0  0
 10 11  1  0  0  0  0
 11 12  2  0  0  0  0
 11 38  1  0  0  0  0
 12 13  1  0  0  0  0
 12 39  1  0  0  0  0
 13 14  2  0  0  0  0
 13 15  1  0  0  0  0
 15 16  1  0  0  0  0
 15 17  1  0  0  0  0
 16 40  1  0  0  0  0
 16 41  1  0  0  0  0
 16 42  1  0  0  0  0
 17 18  2  0  0  0  0
 19 24  1  0  0  0  0
 19 20  1  0  0  0  0
 20 21  1  0  0  0  0
 20 43  1  0  0  0  0
 20 44  1  0  0  0  0
 21 22  1  0  0  0  0
 21 45  1  0  0  0  0
 21 46  1  0  0  0  0
 22 23  1  0  0  0  0
 23 24  1  0  0  0  0
 23 47  1  0  0  0  0
 23 48  1  0  0  0  0
 24 49  1  0  0  0  0
 24 50  1  0  0  0  0
M  END
> <s_m_source_file>
AV-unprocessed.smi

> <i_m_source_file_index>
2013

> <i_lp_mmshare_version>
43012

> <i_f3d_flags>
0

> <s_epik_input>
W0NIMl0xW0NIMl1PW0NIMl1bQ0gyXU4xW0NASF0oW0NIXShbQ0gzXSlbQ0gzXSlbQ0gyXVtOSF1DKD1PKVtDSDJdbjJbY0hdW2NIXWMoPU8pbihbQ0gzXSljMj1P

> <s_epik_cmdline>
J2VwaWtfcHl0aG9uJywgJy1waCcsICc3LjAnLCAnLXRuJywgJzgnLCAnLW1hJywgJzIwMCcsICctbWV0YWxfYmluZGluZycsICctaW1hZScsICc8aW5maWxlLm1hZT4nLCAnLW9tYWUnLCAnPG91dGZpbGUubWFlPic=

> <r_lp_tautomer_probability>
1

> <r_epik_Ionization_Penalty>
0.45351

> <r_epik_Ionization_Penalty_Charging>
1.24653e-08

> <r_epik_Ionization_Penalty_Neutral>
0.45351

> <r_epik_State_Penalty>
0.456487

> <r_epik_Charging_Adjusted_Penalty>
0.456487

> <i_epik_Tot_Q>
0

> <i_epik_Tot_abs_Q>
0

> <r_epik_Metal_State_Penalty>
0.456449

> <b_epik_Metal_Only>
0

> <s_lp_Force_Field>
OPLS_2005

> <r_lp_Energy>
47.2128

> <b_lp_Chiralities_Consistent>
1

> <s_lp_Variant>
AV-unprocessed.smi:2013-3

> <Gold.Version>
5.8.1

> <Gold.Id.Protein>
6NUR|6NUR_protein|mol2

> <Gold.PLP.Fitness>
43.7183

> <Gold.PLP.PLP>
-38.0294

> <Gold.PLP.part.hbond>
-2.7231

> <Gold.PLP.part.metal>
0.0000

> <Gold.PLP.part.buried>
-1.0027

> <Gold.PLP.part.nonpolar>
-34.6395

> <Gold.PLP.part.repulsive>
0.2446

> <Gold.PLP.ligand.clash>
0.0000

> <Gold.PLP.ligand.torsion>
1.2219

> <Gold.PLP.Chemscore.Hbond>
2.5460

> <Gold.PLP.Chemscore.CHOScore>
0.0000

> <Gold.PLP.Chemscore.Metal>
0.0000

> <Gold.Chemscore.Hbonds>
donor molecule, donor type, donor heavy atom, donor atom, acceptor molecule, acceptor atom, score
      L1  H     6    35       P1  7948  1.00
      P1  H  7989  7998       L1    19  0.51
      P1  H  7997  8010       L1    22  0.95

> <Gold.PLP.Chemscore.Internal.Correction>
0.4948

> <Gold.Rescore>
     Score         DG    S(hbond)    S(metal)    S(lipo)     H(rot)  DE(clash)    DE(int)     intcor
     11.58     -14.71       1.77        0.00      76.49       2.20       0.45       2.68       ----

> <Gold.Chemscore.Fitness>
11.5793

> <Gold.Chemscore.DG>
-14.7089

> <Gold.Chemscore.ZeroCoef>
-5.4800

> <Gold.Chemscore.Hbond>
1.7729

> <Gold.Chemscore.Metal>
0.0000

> <Gold.Chemscore.Lipo>
76.4901

> <Gold.Chemscore.Internal_Hbond>
0.0000

> <Gold.Chemscore.DEClash>
0.4526

> <Gold.Chemscore.DEInternal>
2.6769

> <Gold.Chemscore.Rot>
2.2039

> <Gold.Chemscore.Internal.Correction>
   9.000000E+99

> <Gold.Chemscore.Hbonds>
donor molecule, donor type, donor heavy atom, donor atom, acceptor molecule, acceptor atom, score
      L1  H     6    35       P1  7948  0.98
      P1  H  7989  7998       L1    19  0.01
      P1  H  7997  8010       L1    22  0.12

> <Gold.Chemscore.Hbond.Weighted>
-5.9215

> <Gold.Chemscore.Metal.Weighted>
-0.0000

> <Gold.Chemscore.Lipo.Weighted>
-8.9493

> <Gold.Chemscore.Internal_Hbond.Weighted>
0.0000

> <Gold.Chemscore.DEClash.Weighted>
0.4526

> <Gold.Chemscore.DEInternal.Weighted>
2.6769

> <Gold.Chemscore.Rot.Weighted>
5.6420

> <Gold.Chemscore.Internal.Correction.Weighted>
   9.000000E+99

> <Gold.Protein.RotatedTorsions>
[ 6907 6896 6895 6894 ] final  123.55 input  -60.11 | X-H torsion
[ 7974 7965 7964 7962 ] final   50.87 input  175.53 | X-H torsion
[ 8008 7997 7996 7995 ] final   87.02 input   59.86 | X-H torsion
[ 10167 10162 10161 10158 ] final  -92.14 input  -65.29 | X-H torsion
[ 10718 10713 10712 10709 ] final  -97.16 input   66.30 | X-H torsion
[ 10763 10752 10751 10750 ] final    6.70 input  -60.55 | X-H torsion
[ 11005 11000 10999 10996 ] final  -95.96 input  -57.11 | X-H torsion

> <Gold.Protein.ActiveResidues>
 VAL166  LYS551  ARG553  GLY616  TRP617  ASP618  TYR619  PRO620  LYS621  CYS622 
 ASP623  PHE694  ASN695  SER759  ASP760  ASP761  ALA762  ILE779  LEU786  VAL792 
 PHE793  MET794  SER795  GLU796  ALA797  LYS798  CYS799  TRP800  GLU811  SER814 

> <Gold.Protein.RotatedAtoms>
  152.4152  133.7027  159.6432 H   0  0  0  0  0  0  0  0  0  0  0  0  # atno 6907 bound_to 6896
  150.8030  133.8552  159.3225 H   0  0  0  0  0  0  0  0  0  0  0  0  # atno 6908 bound_to 6896
  151.6284  135.1027  160.0168 H   0  0  0  0  0  0  0  0  0  0  0  0  # atno 6909 bound_to 6896
  145.9969  139.4398  143.0039 H   0  0  0  0  0  0  0  0  0  0  0  0  # atno 7974 bound_to 7965
  155.9701  140.3386  155.6568 H   0  0  0  0  0  0  0  0  0  0  0  0  # atno 8008 bound_to 7997
  155.6685  140.0724  157.2547 H   0  0  0  0  0  0  0  0  0  0  0  0  # atno 8009 bound_to 7997
  154.4164  140.1696  156.1841 H   0  0  0  0  0  0  0  0  0  0  0  0  # atno 8010 bound_to 7997
  140.3378  143.2959  151.9870 H   0  0  0  0  0  0  0  0  0  0  0  0  # atno 10167 bound_to 10162
  156.0077  130.5182  150.6333 H   0  0  0  0  0  0  0  0  0  0  0  0  # atno 10718 bound_to 10713
  153.2447  135.6907  153.7744 H   0  0  0  0  0  0  0  0  0  0  0  0  # atno 10763 bound_to 10752
  153.6860  135.3320  155.3191 H   0  0  0  0  0  0  0  0  0  0  0  0  # atno 10764 bound_to 10752
  154.8370  135.4534  154.1383 H   0  0  0  0  0  0  0  0  0  0  0  0  # atno 10765 bound_to 10752
  141.1426  133.8063  157.0507 H   0  0  0  0  0  0  0  0  0  0  0  0  # atno 11005 bound_to 11000
  145.7546  140.9959  143.1232 LP  0  0  0  0  0  0  0  0  0  0  0  0  # atno 17320 bound_to 7965
  144.6907  139.9255  143.7469 LP  0  0  0  0  0  0  0  0  0  0  0  0  # atno 17321 bound_to 7965
  139.4845  144.6182  151.7306 LP  0  0  0  0  0  0  0  0  0  0  0  0  # atno 17342 bound_to 10162
  140.5337  144.0689  150.6063 LP  0  0  0  0  0  0  0  0  0  0  0  0  # atno 17343 bound_to 10162
  157.4127  131.0826  151.1205 LP  0  0  0  0  0  0  0  0  0  0  0  0  # atno 17370 bound_to 10713
  157.1832  130.6319  149.5679 LP  0  0  0  0  0  0  0  0  0  0  0  0  # atno 17371 bound_to 10713
  140.0634  134.9742  157.1344 LP  0  0  0  0  0  0  0  0  0  0  0  0  # atno 17394 bound_to 11000
  140.3815  134.2281  155.7171 LP  0  0  0  0  0  0  0  0  0  0  0  0  # atno 17395 bound_to 11000

$$$$
