AV-unprocessed.smi:290|AV-procd|sdf|2234|dock2
  -GOLD-   2262022103D 1   1.00000     0.00000
 Structure written by MMmdl.
 59 62  0  0  0  0  0  0  0  0  2 V2000
  152.8225  142.0312  160.7721 C   0  0  0  0  0  0  0  0  0  0  0  0
  151.8094  143.0814  160.2909 C   0  0  1  0  0  0  0  0  0  0  0  0
  152.4665  144.3453  160.2643 O   0  0  0  0  0  0  0  0  0  0  0  0
  151.8506  145.1531  159.2777 C   0  0  0  0  0  0  0  0  0  0  0  0
  151.6338  144.1657  158.1416 C   0  0  0  0  0  0  0  0  0  0  0  0
  151.2151  142.8877  158.8662 C   0  0  2  0  0  0  0  0  0  0  0  0
  149.8024  142.9006  158.9853 O   0  0  0  0  0  0  0  0  0  0  0  0
  151.6239  141.5910  158.1188 C   0  0  0  0  0  0  0  0  0  0  0  0
  150.5321  140.9845  157.3712 N   0  0  0  0  0  0  0  0  0  0  0  0
  149.9280  141.4874  156.2428 C   0  0  0  0  0  0  0  0  0  0  0  0
  148.9632  140.7558  155.7585 N   0  0  0  0  0  0  0  0  0  0  0  0
  148.9010  139.6525  156.6043 C   0  0  0  0  0  0  0  0  0  0  0  0
  148.0918  138.4771  156.6706 C   0  0  0  0  0  0  0  0  0  0  0  0
  147.0984  138.1469  155.8019 N   0  0  0  0  0  0  0  0  0  0  0  0
  146.4991  139.1704  154.9612 C   0  0  0  0  0  0  0  0  0  0  0  0
  146.1818  138.4652  153.6494 C   0  0  0  0  0  0  0  0  0  0  0  0
  145.9174  137.0065  154.0566 C   0  0  1  0  0  0  0  0  0  0  0  0
  146.1197  136.0675  152.9106 N   0  3  1  0  0  0  0  0  0  0  0  0
  146.1409  134.6313  153.2809 C   0  0  0  0  0  0  0  0  0  0  0  0
  145.1871  136.3189  151.7781 C   0  0  0  0  0  0  0  0  0  0  0  0
  145.4050  135.3227  150.6276 C   0  0  0  0  0  0  0  0  0  0  0  0
  144.7680  135.7946  149.4591 O   0  0  0  0  0  0  0  0  0  0  0  0
  146.8884  136.8107  155.2508 C   0  0  2  0  0  0  0  0  0  0  0  0
  146.3365  135.8681  156.3427 C   0  0  0  0  0  0  0  0  0  0  0  0
  148.3374  137.6133  157.6906 N   0  0  0  0  0  0  0  0  0  0  0  0
  149.3012  137.8639  158.5801 C   0  0  0  0  0  0  0  0  0  0  0  0
  150.1274  138.9082  158.6393 N   0  0  0  0  0  0  0  0  0  0  0  0
  149.8874  139.7864  157.6253 C   0  0  0  0  0  0  0  0  0  0  0  0
  144.8894  136.9227  154.4143 H   0  0  0  0  0  0  0  0  0  0  0  0
  147.8411  136.4470  154.8683 H   0  0  0  0  0  0  0  0  0  0  0  0
  152.3737  141.0390  160.8220 H   0  0  0  0  0  0  0  0  0  0  0  0
  153.1822  142.2758  161.7717 H   0  0  0  0  0  0  0  0  0  0  0  0
  153.6924  141.9821  160.1170 H   0  0  0  0  0  0  0  0  0  0  0  0
  151.0080  143.1469  161.0296 H   0  0  0  0  0  0  0  0  0  0  0  0
  150.9017  145.5398  159.6526 H   0  0  0  0  0  0  0  0  0  0  0  0
  152.4822  145.9943  158.9924 H   0  0  0  0  0  0  0  0  0  0  0  0
  150.9113  144.5137  157.4020 H   0  0  0  0  0  0  0  0  0  0  0  0
  152.5846  144.0123  157.6297 H   0  0  0  0  0  0  0  0  0  0  0  0
  149.4287  142.6144  158.1658 H   0  0  0  0  0  0  0  0  0  0  0  0
  152.4281  141.7967  157.4121 H   0  0  0  0  0  0  0  0  0  0  0  0
  152.0109  140.8509  158.8204 H   0  0  0  0  0  0  0  0  0  0  0  0
  150.2226  142.4232  155.7900 H   0  0  0  0  0  0  0  0  0  0  0  0
  145.5876  139.5298  155.4399 H   0  0  0  0  0  0  0  0  0  0  0  0
  147.1593  140.0231  154.7963 H   0  0  0  0  0  0  0  0  0  0  0  0
  145.3461  138.9368  153.1329 H   0  0  0  0  0  0  0  0  0  0  0  0
  147.0529  138.5180  152.9941 H   0  0  0  0  0  0  0  0  0  0  0  0
  145.2129  134.3424  153.7757 H   0  0  0  0  0  0  0  0  0  0  0  0
  146.9787  134.4007  153.9379 H   0  0  0  0  0  0  0  0  0  0  0  0
  146.2577  133.9989  152.4013 H   0  0  0  0  0  0  0  0  0  0  0  0
  144.1576  136.2634  152.1356 H   0  0  0  0  0  0  0  0  0  0  0  0
  145.2980  137.3262  151.3793 H   0  0  0  0  0  0  0  0  0  0  0  0
  146.4626  135.1543  150.4261 H   0  0  0  0  0  0  0  0  0  0  0  0
  144.9725  134.3560  150.8867 H   0  0  0  0  0  0  0  0  0  0  0  0
  145.0661  135.2807  148.7235 H   0  0  0  0  0  0  0  0  0  0  0  0
  146.1830  134.8536  155.9818 H   0  0  0  0  0  0  0  0  0  0  0  0
  145.3794  136.2276  156.7218 H   0  0  0  0  0  0  0  0  0  0  0  0
  147.0117  135.7985  157.1949 H   0  0  0  0  0  0  0  0  0  0  0  0
  149.4285  137.1219  159.3547 H   0  0  0  0  0  0  0  0  0  0  0  0
  147.0418  136.2788  152.5556 H   0  0  0  0  0  0  0  0  0  0  0  0
  1  2  1  0  0  0  0
  1 31  1  0  0  0  0
  1 32  1  0  0  0  0
  1 33  1  0  0  0  0
  2  6  1  0  0  0  0
  2  3  1  0  0  0  0
  2 34  1  0  0  0  0
  3  4  1  0  0  0  0
  4  5  1  0  0  0  0
  4 35  1  0  0  0  0
  4 36  1  0  0  0  0
  5  6  1  0  0  0  0
  5 37  1  0  0  0  0
  5 38  1  0  0  0  0
  6  7  1  0  0  0  0
  6  8  1  0  0  0  0
  7 39  1  0  0  0  0
  8  9  1  0  0  0  0
  8 40  1  0  0  0  0
  8 41  1  0  0  0  0
  9 28  1  0  0  0  0
  9 10  1  0  0  0  0
 10 11  2  0  0  0  0
 10 42  1  0  0  0  0
 11 12  1  0  0  0  0
 12 28  2  0  0  0  0
 12 13  1  0  0  0  0
 13 14  1  0  0  0  0
 13 25  2  0  0  0  0
 14 23  1  0  0  0  0
 14 15  1  0  0  0  0
 15 16  1  0  0  0  0
 15 43  1  0  0  0  0
 15 44  1  0  0  0  0
 16 17  1  0  0  0  0
 16 45  1  0  0  0  0
 16 46  1  0  0  0  0
 17 29  1  0  0  0  0
 17 18  1  0  0  0  0
 17 23  1  0  0  0  0
 18 19  1  0  0  0  0
 18 20  1  0  0  0  0
 18 59  1  0  0  0  0
 19 47  1  0  0  0  0
 19 48  1  0  0  0  0
 19 49  1  0  0  0  0
 20 21  1  0  0  0  0
 20 50  1  0  0  0  0
 20 51  1  0  0  0  0
 21 22  1  0  0  0  0
 21 52  1  0  0  0  0
 21 53  1  0  0  0  0
 22 54  1  0  0  0  0
 23 30  1  0  0  0  0
 23 24  1  0  0  0  0
 24 55  1  0  0  0  0
 24 56  1  0  0  0  0
 24 57  1  0  0  0  0
 25 26  1  0  0  0  0
 26 27  2  0  0  0  0
 26 58  1  0  0  0  0
 27 28  1  0  0  0  0
M  CHG  1  18   1
M  END
> <s_m_source_file>
AV-unprocessed.smi

> <i_m_source_file_index>
290

> <i_lp_mmshare_version>
43012

> <i_f3d_flags>
0

> <s_epik_input>
W0NIMl0xW0NIMl1PW0NAQEhdKFtDSDNdKVtDQEBdMShbT0hdKVtDSDJdbihbY0hdbjIpYyhjMjMpbltjSF1uYzNONFtDSDJdW0NIMl1bQ0BIXShbQ0BIXTRbQ0gzXSlOKFtDSDNdKVtDSDJdW0NIMl1bT0hd

> <s_epik_cmdline>
J2VwaWtfcHl0aG9uJywgJy1waCcsICc3LjAnLCAnLXRuJywgJzgnLCAnLW1hJywgJzIwMCcsICctbWV0YWxfYmluZGluZycsICctaW1hZScsICc8aW5maWxlLm1hZT4nLCAnLW9tYWUnLCAnPG91dGZpbGUubWFlPic=

> <r_lp_tautomer_probability>
1

> <r_epik_Ionization_Penalty>
0.0036983

> <r_epik_Ionization_Penalty_Charging>
0.0032725

> <r_epik_Ionization_Penalty_Neutral>
0.000425798

> <r_epik_State_Penalty>
-0

> <r_epik_Charging_Adjusted_Penalty>
0.0032725

> <i_epik_Tot_Q>
1

> <i_epik_Tot_abs_Q>
1

> <r_epik_Metal_State_Penalty>
-0

> <b_epik_Metal_Only>
0

> <s_lp_Force_Field>
OPLS_2005

> <r_lp_Energy>
60.3603

> <b_lp_Chiralities_Consistent>
1

> <s_lp_Variant>
AV-unprocessed.smi:290-20

> <Gold.Version>
5.8.1

> <Gold.Id.Protein>
6NUR|6NUR_protein|mol2

> <Gold.PLP.Fitness>
48.4609

> <Gold.PLP.PLP>
-39.0388

> <Gold.PLP.part.hbond>
-3.3868

> <Gold.PLP.part.metal>
0.0000

> <Gold.PLP.part.buried>
-5.4317

> <Gold.PLP.part.nonpolar>
-30.9193

> <Gold.PLP.part.repulsive>
0.1208

> <Gold.PLP.ligand.clash>
0.0000

> <Gold.PLP.ligand.torsion>
1.5002

> <Gold.PLP.Chemscore.Hbond>
3.0000

> <Gold.PLP.Chemscore.CHOScore>
1.0000

> <Gold.PLP.Chemscore.Metal>
0.0000

> <Gold.Chemscore.Hbonds>
donor molecule, donor type, donor heavy atom, donor atom, acceptor molecule, acceptor atom, score
      L1  H    18    59       P1  7948  2.00
      L1  H    22    54       P1  7921  1.00
      L1  C    10    42       P1  8028  0.67

> <Gold.PLP.Chemscore.Internal.Correction>
0.4225

> <Gold.Rescore>
     Score         DG    S(hbond)    S(metal)    S(lipo)     H(rot)  DE(clash)    DE(int)     intcor
      9.13     -13.91       1.99        0.00      88.61       3.35       0.03       4.75       ----

> <Gold.Chemscore.Fitness>
9.1281

> <Gold.Chemscore.DG>
-13.9088

> <Gold.Chemscore.ZeroCoef>
-5.4800

> <Gold.Chemscore.Hbond>
1.9887

> <Gold.Chemscore.Metal>
0.0000

> <Gold.Chemscore.Lipo>
88.6084

> <Gold.Chemscore.Internal_Hbond>
0.0000

> <Gold.Chemscore.DEClash>
0.0312

> <Gold.Chemscore.DEInternal>
4.7495

> <Gold.Chemscore.Rot>
3.3518

> <Gold.Chemscore.Internal.Correction>
   9.000000E+99

> <Gold.Chemscore.Hbonds>
donor molecule, donor type, donor heavy atom, donor atom, acceptor molecule, acceptor atom, score
      L1  H    18    59       P1  7948  0.93
      L1  H    22    54       P1  7921  0.95

> <Gold.Chemscore.Hbond.Weighted>
-6.6422

> <Gold.Chemscore.Metal.Weighted>
-0.0000

> <Gold.Chemscore.Lipo.Weighted>
-10.3672

> <Gold.Chemscore.Internal_Hbond.Weighted>
0.0000

> <Gold.Chemscore.DEClash.Weighted>
0.0312

> <Gold.Chemscore.DEInternal.Weighted>
4.7495

> <Gold.Chemscore.Rot.Weighted>
8.5806

> <Gold.Chemscore.Internal.Correction.Weighted>
   9.000000E+99

> <Gold.Protein.RotatedTorsions>
[ 6907 6896 6895 6894 ] final  151.28 input  -60.11 | X-H torsion
[ 7974 7965 7964 7962 ] final   35.21 input  175.53 | X-H torsion
[ 8008 7997 7996 7995 ] final   17.39 input   59.86 | X-H torsion
[ 10167 10162 10161 10158 ] final  -82.37 input  -65.29 | X-H torsion
[ 10718 10713 10712 10709 ] final   63.05 input   66.30 | X-H torsion
[ 10763 10752 10751 10750 ] final   92.01 input  -60.55 | X-H torsion
[ 11005 11000 10999 10996 ] final   60.86 input  -57.11 | X-H torsion

> <Gold.Protein.ActiveResidues>
 VAL166  LYS551  ARG553  GLY616  TRP617  ASP618  TYR619  PRO620  LYS621  CYS622 
 ASP623  PHE694  ASN695  SER759  ASP760  ASP761  ALA762  ILE779  LEU786  VAL792 
 PHE793  MET794  SER795  GLU796  ALA797  LYS798  CYS799  TRP800  GLU811  SER814 

> <Gold.Protein.RotatedAtoms>
  152.1028  133.4259  159.4594 H   0  0  0  0  0  0  0  0  0  0  0  0  # atno 6907 bound_to 6896
  150.6864  134.2740  159.4609 H   0  0  0  0  0  0  0  0  0  0  0  0  # atno 6908 bound_to 6896
  152.0602  134.9599  160.0625 H   0  0  0  0  0  0  0  0  0  0  0  0  # atno 6909 bound_to 6896
  146.1299  139.6171  142.9234 H   0  0  0  0  0  0  0  0  0  0  0  0  # atno 7974 bound_to 7965
  154.8908  140.2986  155.5372 H   0  0  0  0  0  0  0  0  0  0  0  0  # atno 8008 bound_to 7997
  156.3021  140.2425  156.3857 H   0  0  0  0  0  0  0  0  0  0  0  0  # atno 8009 bound_to 7997
  154.8621  140.0405  157.1660 H   0  0  0  0  0  0  0  0  0  0  0  0  # atno 8010 bound_to 7997
  140.4326  143.2543  151.8738 H   0  0  0  0  0  0  0  0  0  0  0  0  # atno 10167 bound_to 10162
  157.5944  130.9084  149.9665 H   0  0  0  0  0  0  0  0  0  0  0  0  # atno 10718 bound_to 10713
  153.2145  135.4377  155.0418 H   0  0  0  0  0  0  0  0  0  0  0  0  # atno 10763 bound_to 10752
  154.8217  135.3341  154.7020 H   0  0  0  0  0  0  0  0  0  0  0  0  # atno 10764 bound_to 10752
  153.7455  135.7002  153.5013 H   0  0  0  0  0  0  0  0  0  0  0  0  # atno 10765 bound_to 10752
  140.0202  134.6165  155.9651 H   0  0  0  0  0  0  0  0  0  0  0  0  # atno 11005 bound_to 11000
  145.5284  141.0428  143.2397 LP  0  0  0  0  0  0  0  0  0  0  0  0  # atno 17320 bound_to 7965
  144.7680  139.6801  143.7207 LP  0  0  0  0  0  0  0  0  0  0  0  0  # atno 17321 bound_to 7965
  139.4785  144.5318  151.8655 LP  0  0  0  0  0  0  0  0  0  0  0  0  # atno 17342 bound_to 10162
  140.4410  144.1986  150.5891 LP  0  0  0  0  0  0  0  0  0  0  0  0  # atno 17343 bound_to 10162
  156.1004  130.3656  150.0229 LP  0  0  0  0  0  0  0  0  0  0  0  0  # atno 17370 bound_to 10713
  156.8346  130.9404  151.3635 LP  0  0  0  0  0  0  0  0  0  0  0  0  # atno 17371 bound_to 10713
  141.1769  133.6541  156.4863 LP  0  0  0  0  0  0  0  0  0  0  0  0  # atno 17394 bound_to 11000
  140.4401  134.7023  157.4987 LP  0  0  0  0  0  0  0  0  0  0  0  0  # atno 17395 bound_to 11000

$$$$
