AV-unprocessed.smi:55|AV-procd|sdf|563|dock6
  -GOLD-   2262016463D 1   1.00000     0.00000
 Structure written by MMmdl.
 31 32  0  0  0  0  0  0  0  0  1 V2000
  152.8955  142.5650  160.2849 C   0  0  0  0  0  0  0  0  0  0  0  0
  152.1600  142.2012  159.0057 C   0  0  0  0  0  0  0  0  0  0  0  0
  152.2062  140.9554  158.4682 C   0  0  0  0  0  0  0  0  0  0  0  0
  151.5472  140.5875  157.3017 N   0  0  0  0  0  0  0  0  0  0  0  0
  151.7228  139.2071  156.7012 C   0  0  2  0  0  0  0  0  0  0  0  0
  152.2840  139.2074  155.2666 C   0  0  0  0  0  0  0  0  0  0  0  0
  151.1843  138.5297  154.4604 C   0  0  2  0  0  0  0  0  0  0  0  0
  150.4005  139.4828  153.7682 O   0  0  0  0  0  0  0  0  0  0  0  0
  150.3805  137.7725  155.5298 C   0  0  2  0  0  0  0  0  0  0  0  0
  148.9125  137.4478  155.2027 C   0  0  0  0  0  0  0  0  0  0  0  0
  148.8345  136.3062  154.3758 O   0  0  0  0  0  0  0  0  0  0  0  0
  150.4718  138.5962  156.6829 O   0  0  0  0  0  0  0  0  0  0  0  0
  150.8731  141.5832  156.5598 C   0  0  0  0  0  0  0  0  0  0  0  0
  150.3459  141.3707  155.4685 O   0  0  0  0  0  0  0  0  0  0  0  0
  150.8112  142.8590  157.1179 N   0  0  0  0  0  0  0  0  0  0  0  0
  151.3995  143.2497  158.3222 C   0  0  0  0  0  0  0  0  0  0  0  0
  151.2630  144.4060  158.7188 O   0  0  0  0  0  0  0  0  0  0  0  0
  152.3919  138.6491  157.3575 H   0  0  0  0  0  0  0  0  0  0  0  0
  151.5993  137.8431  153.7220 H   0  0  0  0  0  0  0  0  0  0  0  0
  150.9064  136.8454  155.7666 H   0  0  0  0  0  0  0  0  0  0  0  0
  150.3084  143.5650  156.6002 H   0  0  0  0  0  0  0  0  0  0  0  0
  153.4281  141.7103  160.7028 H   0  0  0  0  0  0  0  0  0  0  0  0
  152.1940  142.9232  161.0392 H   0  0  0  0  0  0  0  0  0  0  0  0
  153.6254  143.3524  160.0938 H   0  0  0  0  0  0  0  0  0  0  0  0
  152.8062  140.2183  158.9777 H   0  0  0  0  0  0  0  0  0  0  0  0
  152.5635  140.1982  154.9082 H   0  0  0  0  0  0  0  0  0  0  0  0
  153.1853  138.5928  155.2588 H   0  0  0  0  0  0  0  0  0  0  0  0
  150.2822  139.1828  152.8797 H   0  0  0  0  0  0  0  0  0  0  0  0
  148.3654  137.2421  156.1229 H   0  0  0  0  0  0  0  0  0  0  0  0
  148.4135  138.2881  154.7197 H   0  0  0  0  0  0  0  0  0  0  0  0
  148.7676  136.5909  153.4769 H   0  0  0  0  0  0  0  0  0  0  0  0
  1  2  1  0  0  0  0
  1 22  1  0  0  0  0
  1 23  1  0  0  0  0
  1 24  1  0  0  0  0
  2 16  1  0  0  0  0
  2  3  2  0  0  0  0
  3  4  1  0  0  0  0
  3 25  1  0  0  0  0
  4  5  1  0  0  0  0
  4 13  1  0  0  0  0
  5 18  1  0  0  0  0
  5 12  1  0  0  0  0
  5  6  1  0  0  0  0
  6  7  1  0  0  0  0
  6 26  1  0  0  0  0
  6 27  1  0  0  0  0
  7 19  1  0  0  0  0
  7  8  1  0  0  0  0
  7  9  1  0  0  0  0
  8 28  1  0  0  0  0
  9 20  1  0  0  0  0
  9 10  1  0  0  0  0
  9 12  1  0  0  0  0
 10 11  1  0  0  0  0
 10 29  1  0  0  0  0
 10 30  1  0  0  0  0
 11 31  1  0  0  0  0
 13 14  2  0  0  0  0
 13 15  1  0  0  0  0
 15 21  1  0  0  0  0
 15 16  1  0  0  0  0
 16 17  2  0  0  0  0
M  END
> <s_m_source_file>
AV-unprocessed.smi

> <i_m_source_file_index>
55

> <i_lp_mmshare_version>
43012

> <i_f3d_flags>
0

> <s_epik_input>
Tz1jMVtuSF1jKD1PKW4oW2NIXWMxW0NIM10pW0NAQEhdMltDSDJdW0NAQEhdKFtPSF0pW0NAQEhdKE8yKVtDSDJdW09IXQ==

> <s_epik_cmdline>
J2VwaWtfcHl0aG9uJywgJy1waCcsICc3LjAnLCAnLXRuJywgJzgnLCAnLW1hJywgJzIwMCcsICctbWV0YWxfYmluZGluZycsICctaW1hZScsICc8aW5maWxlLm1hZT4nLCAnLW9tYWUnLCAnPG91dGZpbGUubWFlPic=

> <r_lp_tautomer_probability>
0.999537

> <r_epik_Ionization_Penalty>
0.00121888

> <r_epik_Ionization_Penalty_Charging>
0.00121876

> <r_epik_Ionization_Penalty_Neutral>
1.19946e-07

> <r_epik_State_Penalty>
0.000805124

> <r_epik_Charging_Adjusted_Penalty>
0.00202389

> <i_epik_Tot_Q>
0

> <i_epik_Tot_abs_Q>
0

> <r_epik_Metal_State_Penalty>
0.662472

> <b_epik_Metal_Only>
0

> <s_epik_Chemistry_Notes>
This compound contains an acetal/aminal-like group ( X-CH(R)-Y where X, Y are N, S, or O) that may be acid/base labile, releasing an aldehyde.

> <s_lp_Force_Field>
OPLS_2005

> <r_lp_Energy>
26.1821

> <b_lp_Chiralities_Consistent>
1

> <s_lp_Variant>
AV-unprocessed.smi:55-3

> <Gold.Version>
5.8.1

> <Gold.Id.Protein>
6NUR|6NUR_protein|mol2

> <Gold.PLP.Fitness>
40.4676

> <Gold.PLP.PLP>
-29.8420

> <Gold.PLP.part.hbond>
-4.5522

> <Gold.PLP.part.metal>
0.0000

> <Gold.PLP.part.buried>
-4.2371

> <Gold.PLP.part.nonpolar>
-22.0896

> <Gold.PLP.part.repulsive>
0.2238

> <Gold.PLP.ligand.clash>
0.0000

> <Gold.PLP.ligand.torsion>
0.2933

> <Gold.PLP.Chemscore.Hbond>
3.7040

> <Gold.PLP.Chemscore.CHOScore>
0.0000

> <Gold.PLP.Chemscore.Metal>
0.0000

> <Gold.Chemscore.Hbonds>
donor molecule, donor type, donor heavy atom, donor atom, acceptor molecule, acceptor atom, score
      L1  H     8    28       P1  7957  0.70
      L1  H    11    31       P1  7948  0.96
      L1  H    15    21       P1  8028  0.96
      P1  H  7989  7998       L1     8  0.93

> <Gold.PLP.Chemscore.Internal.Correction>
0.1003

> <Gold.Rescore>
     Score         DG    S(hbond)    S(metal)    S(lipo)     H(rot)  DE(clash)    DE(int)     intcor
     10.03     -13.58       2.66        0.00      53.01       2.73       0.06       3.49       ----

> <Gold.Chemscore.Fitness>
10.0293

> <Gold.Chemscore.DG>
-13.5843

> <Gold.Chemscore.ZeroCoef>
-5.4800

> <Gold.Chemscore.Hbond>
2.6583

> <Gold.Chemscore.Metal>
0.0000

> <Gold.Chemscore.Lipo>
53.0127

> <Gold.Chemscore.Internal_Hbond>
0.0000

> <Gold.Chemscore.DEClash>
0.0601

> <Gold.Chemscore.DEInternal>
3.4949

> <Gold.Chemscore.Rot>
2.7253

> <Gold.Chemscore.Internal.Correction>
   9.000000E+99

> <Gold.Chemscore.Hbonds>
donor molecule, donor type, donor heavy atom, donor atom, acceptor molecule, acceptor atom, score
      L1  H     8    28       P1  7957  0.51
      L1  H    11    31       P1  7948  0.92
      L1  H    15    21       P1  8028  0.90
      P1  H  7989  7998       L1    14  0.07

> <Gold.Chemscore.Hbond.Weighted>
-8.8787

> <Gold.Chemscore.Metal.Weighted>
-0.0000

> <Gold.Chemscore.Lipo.Weighted>
-6.2025

> <Gold.Chemscore.Internal_Hbond.Weighted>
0.0000

> <Gold.Chemscore.DEClash.Weighted>
0.0601

> <Gold.Chemscore.DEInternal.Weighted>
3.4949

> <Gold.Chemscore.Rot.Weighted>
6.9769

> <Gold.Chemscore.Internal.Correction.Weighted>
   9.000000E+99

> <Gold.Protein.RotatedTorsions>
[ 6907 6896 6895 6894 ] final -103.06 input  -60.11 | X-H torsion
[ 7974 7965 7964 7962 ] final   91.69 input  175.53 | X-H torsion
[ 8008 7997 7996 7995 ] final  -47.31 input   59.86 | X-H torsion
[ 10167 10162 10161 10158 ] final  148.93 input  -65.29 | X-H torsion
[ 10718 10713 10712 10709 ] final  178.41 input   66.30 | X-H torsion
[ 10763 10752 10751 10750 ] final  131.14 input  -60.55 | X-H torsion
[ 11005 11000 10999 10996 ] final  164.37 input  -57.11 | X-H torsion

> <Gold.Protein.ActiveResidues>
 VAL166  LYS551  ARG553  GLY616  TRP617  ASP618  TYR619  PRO620  LYS621  CYS622 
 ASP623  PHE694  ASN695  SER759  ASP760  ASP761  ALA762  ILE779  LEU786  VAL792 
 PHE793  MET794  SER795  GLU796  ALA797  LYS798  CYS799  TRP800  GLU811  SER814 

> <Gold.Protein.RotatedAtoms>
  150.7223  134.0487  159.3790 H   0  0  0  0  0  0  0  0  0  0  0  0  # atno 6907 bound_to 6896
  151.8463  135.0571  160.0463 H   0  0  0  0  0  0  0  0  0  0  0  0  # atno 6908 bound_to 6896
  152.2824  133.5447  159.5542 H   0  0  0  0  0  0  0  0  0  0  0  0  # atno 6909 bound_to 6896
  145.5023  139.2276  143.2770 H   0  0  0  0  0  0  0  0  0  0  0  0  # atno 7974 bound_to 7965
  154.4015  140.1349  156.4154 H   0  0  0  0  0  0  0  0  0  0  0  0  # atno 8008 bound_to 7997
  155.7693  140.3484  155.5218 H   0  0  0  0  0  0  0  0  0  0  0  0  # atno 8009 bound_to 7997
  155.8782  140.0983  157.1494 H   0  0  0  0  0  0  0  0  0  0  0  0  # atno 8010 bound_to 7997
  139.4868  144.5641  151.7177 H   0  0  0  0  0  0  0  0  0  0  0  0  # atno 10167 bound_to 10162
  156.8909  130.9847  151.3049 H   0  0  0  0  0  0  0  0  0  0  0  0  # atno 10718 bound_to 10713
  153.7695  135.3184  155.3350 H   0  0  0  0  0  0  0  0  0  0  0  0  # atno 10763 bound_to 10752
  154.8201  135.4609  154.0758 H   0  0  0  0  0  0  0  0  0  0  0  0  # atno 10764 bound_to 10752
  153.2013  135.6923  153.8312 H   0  0  0  0  0  0  0  0  0  0  0  0  # atno 10765 bound_to 10752
  140.2452  134.8020  157.3449 H   0  0  0  0  0  0  0  0  0  0  0  0  # atno 11005 bound_to 11000
  146.2218  140.5825  142.9014 LP  0  0  0  0  0  0  0  0  0  0  0  0  # atno 17320 bound_to 7965
  144.7773  140.5766  143.6629 LP  0  0  0  0  0  0  0  0  0  0  0  0  # atno 17321 bound_to 7965
  140.5216  144.0870  150.6024 LP  0  0  0  0  0  0  0  0  0  0  0  0  # atno 17342 bound_to 10162
  140.3830  143.2793  152.0149 LP  0  0  0  0  0  0  0  0  0  0  0  0  # atno 17343 bound_to 10162
  157.6084  130.8564  149.8912 LP  0  0  0  0  0  0  0  0  0  0  0  0  # atno 17370 bound_to 10713
  156.0629  130.3697  150.0942 LP  0  0  0  0  0  0  0  0  0  0  0  0  # atno 17371 bound_to 10713
  140.1613  134.4725  155.7893 LP  0  0  0  0  0  0  0  0  0  0  0  0  # atno 17394 bound_to 11000
  141.2207  133.6902  156.7549 LP  0  0  0  0  0  0  0  0  0  0  0  0  # atno 17395 bound_to 11000

$$$$
