AV-unprocessed.smi:1115|AV-procd|sdf|4805|dock2
  -GOLD-   22720 3353D 1   1.00000     0.00000
 Structure written by MMmdl.
 51 52  0  0  0  0  0  0  0  0  2 V2000
  153.4623  142.3045  160.7910 C   0  0  0  0  0  0  0  0  0  0  0  0
  152.4281  142.9626  160.0024 N   0  0  0  0  0  0  0  0  0  0  0  0
  152.2230  144.4019  160.1290 C   0  0  0  0  0  0  0  0  0  0  0  0
  151.6719  142.2243  159.0633 C   0  0  0  0  0  0  0  0  0  0  0  0
  151.9398  140.8561  158.8093 C   0  0  0  0  0  0  0  0  0  0  0  0
  151.1588  140.1624  157.8649 C   0  0  0  0  0  0  0  0  0  0  0  0
  150.1191  140.8489  157.1969 C   0  0  0  0  0  0  0  0  0  0  0  0
  149.2783  140.2682  156.2092 N   0  0  0  0  0  0  0  0  0  0  0  0
  149.0021  138.9690  156.0044 C   0  0  0  0  0  0  0  0  0  0  0  0
  149.4116  138.0360  156.6947 O   0  0  0  0  0  0  0  0  0  0  0  0
  148.1862  138.8076  154.9526 N   0  0  0  0  0  0  0  0  0  0  0  0
  147.6894  137.5262  154.4502 C   0  0  0  0  0  0  0  0  0  0  0  0
  146.4667  137.6492  153.4896 C   0  0  0  0  0  0  0  0  0  0  0  0
  145.2092  137.9722  154.3401 C   0  0  0  0  0  0  0  0  0  0  0  0
  146.6871  138.8228  152.5040 C   0  0  0  0  0  0  0  0  0  0  0  0
  146.2944  136.3400  152.7551 N   0  3  0  0  0  0  0  0  0  0  0  0
  146.2276  135.1127  153.6011 C   0  0  0  0  0  0  0  0  0  0  0  0
  146.1964  133.8429  152.7316 C   0  0  0  0  0  0  0  0  0  0  0  0
  145.1082  133.8986  151.8220 O   0  0  0  0  0  0  0  0  0  0  0  0
  145.2245  135.0046  150.9402 C   0  0  0  0  0  0  0  0  0  0  0  0
  145.1892  136.3080  151.7533 C   0  0  0  0  0  0  0  0  0  0  0  0
  149.9363  142.2110  157.5047 C   0  0  0  0  0  0  0  0  0  0  0  0
  150.6807  142.8787  158.4103 N   0  0  0  0  0  0  0  0  0  0  0  0
  154.2189  141.8654  160.1403 H   0  0  0  0  0  0  0  0  0  0  0  0
  153.0307  141.5166  161.4086 H   0  0  0  0  0  0  0  0  0  0  0  0
  153.9638  143.0085  161.4551 H   0  0  0  0  0  0  0  0  0  0  0  0
  152.4374  144.9031  159.1846 H   0  0  0  0  0  0  0  0  0  0  0  0
  152.8738  144.8326  160.8903 H   0  0  0  0  0  0  0  0  0  0  0  0
  151.1924  144.6189  160.4110 H   0  0  0  0  0  0  0  0  0  0  0  0
  152.7313  140.3246  159.3154 H   0  0  0  0  0  0  0  0  0  0  0  0
  151.3847  139.1269  157.6637 H   0  0  0  0  0  0  0  0  0  0  0  0
  148.7955  140.9256  155.6143 H   0  0  0  0  0  0  0  0  0  0  0  0
  147.8943  139.6341  154.4511 H   0  0  0  0  0  0  0  0  0  0  0  0
  148.5428  137.0790  153.9451 H   0  0  0  0  0  0  0  0  0  0  0  0
  147.4486  136.8528  155.2748 H   0  0  0  0  0  0  0  0  0  0  0  0
  145.3421  138.8661  154.9485 H   0  0  0  0  0  0  0  0  0  0  0  0
  144.9637  137.1534  155.0176 H   0  0  0  0  0  0  0  0  0  0  0  0
  144.3345  138.1806  153.7244 H   0  0  0  0  0  0  0  0  0  0  0  0
  146.7092  139.7800  153.0259 H   0  0  0  0  0  0  0  0  0  0  0  0
  145.8894  138.8865  151.7640 H   0  0  0  0  0  0  0  0  0  0  0  0
  147.6325  138.7379  151.9683 H   0  0  0  0  0  0  0  0  0  0  0  0
  147.0969  135.0233  154.2501 H   0  0  0  0  0  0  0  0  0  0  0  0
  145.3449  135.1465  154.2405 H   0  0  0  0  0  0  0  0  0  0  0  0
  147.1345  133.7221  152.1869 H   0  0  0  0  0  0  0  0  0  0  0  0
  146.0817  132.9608  153.3619 H   0  0  0  0  0  0  0  0  0  0  0  0
  146.1420  134.9314  150.3538 H   0  0  0  0  0  0  0  0  0  0  0  0
  144.3934  134.9799  150.2350 H   0  0  0  0  0  0  0  0  0  0  0  0
  144.2239  136.3827  152.2551 H   0  0  0  0  0  0  0  0  0  0  0  0
  145.2509  137.1392  151.0549 H   0  0  0  0  0  0  0  0  0  0  0  0
  149.1647  142.7857  157.0135 H   0  0  0  0  0  0  0  0  0  0  0  0
  147.1456  136.2356  152.2210 H   0  0  0  0  0  0  0  0  0  0  0  0
  1  2  1  0  0  0  0
  1 24  1  0  0  0  0
  1 25  1  0  0  0  0
  1 26  1  0  0  0  0
  2  3  1  0  0  0  0
  2  4  1  0  0  0  0
  3 27  1  0  0  0  0
  3 28  1  0  0  0  0
  3 29  1  0  0  0  0
  4 23  1  0  0  0  0
  4  5  2  0  0  0  0
  5  6  1  0  0  0  0
  5 30  1  0  0  0  0
  6  7  2  0  0  0  0
  6 31  1  0  0  0  0
  7  8  1  0  0  0  0
  7 22  1  0  0  0  0
  8  9  1  0  0  0  0
  8 32  1  0  0  0  0
  9 10  2  0  0  0  0
  9 11  1  0  0  0  0
 11 12  1  0  0  0  0
 11 33  1  0  0  0  0
 12 13  1  0  0  0  0
 12 34  1  0  0  0  0
 12 35  1  0  0  0  0
 13 14  1  0  0  0  0
 13 15  1  0  0  0  0
 13 16  1  0  0  0  0
 14 36  1  0  0  0  0
 14 37  1  0  0  0  0
 14 38  1  0  0  0  0
 15 39  1  0  0  0  0
 15 40  1  0  0  0  0
 15 41  1  0  0  0  0
 16 21  1  0  0  0  0
 16 17  1  0  0  0  0
 16 51  1  0  0  0  0
 17 18  1  0  0  0  0
 17 42  1  0  0  0  0
 17 43  1  0  0  0  0
 18 19  1  0  0  0  0
 18 44  1  0  0  0  0
 18 45  1  0  0  0  0
 19 20  1  0  0  0  0
 20 21  1  0  0  0  0
 20 46  1  0  0  0  0
 20 47  1  0  0  0  0
 21 48  1  0  0  0  0
 21 49  1  0  0  0  0
 22 23  2  0  0  0  0
 22 50  1  0  0  0  0
M  CHG  1  16   1
M  END
> <s_m_source_file>
AV-unprocessed.smi

> <i_m_source_file_index>
1115

> <i_lp_mmshare_version>
43012

> <i_f3d_flags>
0

> <s_epik_input>
W0NIM11OKFtDSDNdKWMxW2NIXVtjSF1jKFtjSF1uMSlbTkhdQyg9TylbTkhdW0NIMl1DKFtDSDNdKShbQ0gzXSlOMltDSDJdW0NIMl1PW0NIMl1bQ0gyXTI=

> <s_epik_cmdline>
J2VwaWtfcHl0aG9uJywgJy1waCcsICc3LjAnLCAnLXRuJywgJzgnLCAnLW1hJywgJzIwMCcsICctbWV0YWxfYmluZGluZycsICctaW1hZScsICc8aW5maWxlLm1hZT4nLCAnLW9tYWUnLCAnPG91dGZpbGUubWFlPic=

> <r_epik_Ionization_Penalty>
1.14783

> <r_epik_Ionization_Penalty_Charging>
0.602531

> <r_epik_Ionization_Penalty_Neutral>
0.545303

> <r_epik_State_Penalty>
1.19446

> <r_epik_Charging_Adjusted_Penalty>
1.79699

> <i_epik_Tot_Q>
1

> <i_epik_Tot_abs_Q>
1

> <r_epik_Metal_State_Penalty>
0.937982

> <b_epik_Metal_Only>
0

> <s_lp_Force_Field>
OPLS_2005

> <r_lp_Energy>
30.1641

> <b_lp_Chiralities_Consistent>
1

> <s_lp_Variant>
AV-unprocessed.smi:1115-4

> <Gold.Version>
5.8.1

> <Gold.Id.Protein>
6NUR|6NUR_protein|mol2

> <Gold.PLP.Fitness>
41.6932

> <Gold.PLP.PLP>
-33.4912

> <Gold.PLP.part.hbond>
-1.0000

> <Gold.PLP.part.metal>
0.0000

> <Gold.PLP.part.buried>
-3.3959

> <Gold.PLP.part.nonpolar>
-29.3969

> <Gold.PLP.part.repulsive>
0.2444

> <Gold.PLP.ligand.clash>
0.0000

> <Gold.PLP.ligand.torsion>
0.4477

> <Gold.PLP.Chemscore.Hbond>
2.0000

> <Gold.PLP.Chemscore.CHOScore>
1.0000

> <Gold.PLP.Chemscore.Metal>
0.0000

> <Gold.Chemscore.Hbonds>
donor molecule, donor type, donor heavy atom, donor atom, acceptor molecule, acceptor atom, score
      L1  H    16    51       P1  7948  2.00
      L1  C    22    50       P1  8028  1.00

> <Gold.PLP.Chemscore.Internal.Correction>
0.0975

> <Gold.Rescore>
     Score         DG    S(hbond)    S(metal)    S(lipo)     H(rot)  DE(clash)    DE(int)     intcor
     12.86     -14.44       1.00        0.00      80.12       1.46       0.16       1.43       ----

> <Gold.Chemscore.Fitness>
12.8551

> <Gold.Chemscore.DG>
-14.4408

> <Gold.Chemscore.ZeroCoef>
-5.4800

> <Gold.Chemscore.Hbond>
0.9990

> <Gold.Chemscore.Metal>
0.0000

> <Gold.Chemscore.Lipo>
80.1196

> <Gold.Chemscore.Internal_Hbond>
0.0000

> <Gold.Chemscore.DEClash>
0.1562

> <Gold.Chemscore.DEInternal>
1.4296

> <Gold.Chemscore.Rot>
1.4648

> <Gold.Chemscore.Internal.Correction>
   9.000000E+99

> <Gold.Chemscore.Hbonds>
donor molecule, donor type, donor heavy atom, donor atom, acceptor molecule, acceptor atom, score
      L1  H    16    51       P1  7948  1.00

> <Gold.Chemscore.Hbond.Weighted>
-3.3367

> <Gold.Chemscore.Metal.Weighted>
-0.0000

> <Gold.Chemscore.Lipo.Weighted>
-9.3740

> <Gold.Chemscore.Internal_Hbond.Weighted>
0.0000

> <Gold.Chemscore.DEClash.Weighted>
0.1562

> <Gold.Chemscore.DEInternal.Weighted>
1.4296

> <Gold.Chemscore.Rot.Weighted>
3.7499

> <Gold.Chemscore.Internal.Correction.Weighted>
   9.000000E+99

> <Gold.Protein.RotatedTorsions>
[ 6907 6896 6895 6894 ] final  107.27 input  -60.11 | X-H torsion
[ 7974 7965 7964 7962 ] final   91.73 input  175.53 | X-H torsion
[ 8008 7997 7996 7995 ] final  134.18 input   59.86 | X-H torsion
[ 10167 10162 10161 10158 ] final  -20.80 input  -65.29 | X-H torsion
[ 10718 10713 10712 10709 ] final -122.37 input   66.30 | X-H torsion
[ 10763 10752 10751 10750 ] final  -37.14 input  -60.55 | X-H torsion
[ 11005 11000 10999 10996 ] final -169.12 input  -57.11 | X-H torsion

> <Gold.Protein.ActiveResidues>
 VAL166  LYS551  ARG553  GLY616  TRP617  ASP618  TYR619  PRO620  LYS621  CYS622 
 ASP623  PHE694  ASN695  SER759  ASP760  ASP761  ALA762  ILE779  LEU786  VAL792 
 PHE793  MET794  SER795  GLU796  ALA797  LYS798  CYS799  TRP800  GLU811  SER814 

> <Gold.Protein.RotatedAtoms>
  152.5161  133.9259  159.7556 H   0  0  0  0  0  0  0  0  0  0  0  0  # atno 6907 bound_to 6896
  150.9620  133.6426  159.2759 H   0  0  0  0  0  0  0  0  0  0  0  0  # atno 6908 bound_to 6896
  151.3668  135.0920  159.9505 H   0  0  0  0  0  0  0  0  0  0  0  0  # atno 6909 bound_to 6896
  145.5018  139.2276  143.2773 H   0  0  0  0  0  0  0  0  0  0  0  0  # atno 7974 bound_to 7965
  156.2997  140.2502  156.3375 H   0  0  0  0  0  0  0  0  0  0  0  0  # atno 8008 bound_to 7997
  154.9086  140.0404  157.1953 H   0  0  0  0  0  0  0  0  0  0  0  0  # atno 8009 bound_to 7997
  154.8428  140.2893  155.5653 H   0  0  0  0  0  0  0  0  0  0  0  0  # atno 8010 bound_to 7997
  140.7278  143.4688  151.0275 H   0  0  0  0  0  0  0  0  0  0  0  0  # atno 10167 bound_to 10162
  156.1413  130.6468  150.9775 H   0  0  0  0  0  0  0  0  0  0  0  0  # atno 10718 bound_to 10713
  153.8914  135.6811  153.4760 H   0  0  0  0  0  0  0  0  0  0  0  0  # atno 10763 bound_to 10752
  153.1179  135.4753  154.9144 H   0  0  0  0  0  0  0  0  0  0  0  0  # atno 10764 bound_to 10752
  154.7620  135.3213  154.8312 H   0  0  0  0  0  0  0  0  0  0  0  0  # atno 10765 bound_to 10752
  140.5344  134.5585  157.5083 H   0  0  0  0  0  0  0  0  0  0  0  0  # atno 11005 bound_to 11000
  146.2221  140.5819  142.9012 LP  0  0  0  0  0  0  0  0  0  0  0  0  # atno 17320 bound_to 7965
  144.7776  140.5772  143.6627 LP  0  0  0  0  0  0  0  0  0  0  0  0  # atno 17321 bound_to 7965
  139.8379  143.7603  152.3180 LP  0  0  0  0  0  0  0  0  0  0  0  0  # atno 17342 bound_to 10162
  139.7742  144.7466  151.0181 LP  0  0  0  0  0  0  0  0  0  0  0  0  # atno 17343 bound_to 10162
  157.6578  131.0886  150.7908 LP  0  0  0  0  0  0  0  0  0  0  0  0  # atno 17370 bound_to 10713
  156.7983  130.4912  149.5374 LP  0  0  0  0  0  0  0  0  0  0  0  0  # atno 17371 bound_to 10713
  139.9537  134.7572  156.0390 LP  0  0  0  0  0  0  0  0  0  0  0  0  # atno 17394 bound_to 11000
  141.1263  133.6598  156.3346 LP  0  0  0  0  0  0  0  0  0  0  0  0  # atno 17395 bound_to 11000

$$$$
