AV-unprocessed.smi:696|AV-procd|sdf|3386|dock4
  -GOLD-   22720 0363D 1   1.00000     0.00000
 Structure written by MMmdl.
 38 39  0  0  0  0  0  0  0  0  1 V2000
  152.2476  139.6517  156.5850 O   0  0  0  0  0  0  0  0  0  0  0  0
  151.2784  140.3776  156.8098 C   0  0  0  0  0  0  0  0  0  0  0  0
  150.1392  140.3203  156.1021 N   0  0  0  0  0  0  0  0  0  0  0  0
  149.8915  139.4151  154.9858 C   0  0  0  0  0  0  0  0  0  0  0  0
  148.5698  138.6392  155.1683 C   0  0  0  0  0  0  0  0  0  0  0  0
  147.5630  138.7908  154.0350 C   0  0  0  0  0  0  0  0  0  0  0  0
  146.5950  139.6355  153.9583 N   0  0  0  0  0  0  0  0  0  0  0  0
  146.0513  139.3116  152.7587 N   0  0  0  0  0  0  0  0  0  0  0  0
  146.6668  138.3053  152.1274 C   0  0  0  0  0  0  0  0  0  0  0  0
  146.3848  137.8141  151.0371 O   0  0  0  0  0  0  0  0  0  0  0  0
  147.6517  137.9572  152.9457 N   0  0  0  0  0  0  0  0  0  0  0  0
  151.3356  141.4140  157.9425 C   0  0  0  0  0  0  0  0  0  0  0  0
  151.2927  142.8445  157.3556 C   0  0  0  0  0  0  0  0  0  0  0  0
  150.9153  143.9108  158.3983 C   0  0  0  0  0  0  0  0  0  0  0  0
  152.0900  144.4929  159.2052 C   0  0  0  0  0  0  0  0  0  0  0  0
  153.2008  143.5095  159.6148 C   0  0  0  0  0  0  0  0  0  0  0  0
  152.7231  142.1081  160.0284 C   0  0  0  0  0  0  0  0  0  0  0  0
  152.5687  141.1508  158.8329 C   0  0  0  0  0  0  0  0  0  0  0  0
  145.2476  139.8254  152.4269 H   0  0  0  0  0  0  0  0  0  0  0  0
  148.3331  137.2251  152.8080 H   0  0  0  0  0  0  0  0  0  0  0  0
  149.3929  140.9529  156.3526 H   0  0  0  0  0  0  0  0  0  0  0  0
  149.8534  140.0155  154.0760 H   0  0  0  0  0  0  0  0  0  0  0  0
  150.7344  138.7300  154.8756 H   0  0  0  0  0  0  0  0  0  0  0  0
  148.7810  137.5762  155.2890 H   0  0  0  0  0  0  0  0  0  0  0  0
  148.0889  138.9608  156.0927 H   0  0  0  0  0  0  0  0  0  0  0  0
  150.4438  141.2725  158.5556 H   0  0  0  0  0  0  0  0  0  0  0  0
  152.2347  143.1002  156.8682 H   0  0  0  0  0  0  0  0  0  0  0  0
  150.5366  142.8766  156.5693 H   0  0  0  0  0  0  0  0  0  0  0  0
  150.4172  144.7387  157.8922 H   0  0  0  0  0  0  0  0  0  0  0  0
  150.1678  143.5055  159.0812 H   0  0  0  0  0  0  0  0  0  0  0  0
  152.5488  145.3011  158.6344 H   0  0  0  0  0  0  0  0  0  0  0  0
  151.6833  144.9645  160.1006 H   0  0  0  0  0  0  0  0  0  0  0  0
  153.9264  143.4200  158.8054 H   0  0  0  0  0  0  0  0  0  0  0  0
  153.7522  143.9549  160.4436 H   0  0  0  0  0  0  0  0  0  0  0  0
  153.4744  141.6821  160.6942 H   0  0  0  0  0  0  0  0  0  0  0  0
  151.8043  142.1620  160.6134 H   0  0  0  0  0  0  0  0  0  0  0  0
  152.5006  140.1342  159.2239 H   0  0  0  0  0  0  0  0  0  0  0  0
  153.4809  141.1721  158.2342 H   0  0  0  0  0  0  0  0  0  0  0  0
  1  2  2  0  0  0  0
  2  3  1  0  0  0  0
  2 12  1  0  0  0  0
  3  4  1  0  0  0  0
  3 21  1  0  0  0  0
  4  5  1  0  0  0  0
  4 22  1  0  0  0  0
  4 23  1  0  0  0  0
  5  6  1  0  0  0  0
  5 24  1  0  0  0  0
  5 25  1  0  0  0  0
  6 11  1  0  0  0  0
  6  7  2  0  0  0  0
  7  8  1  0  0  0  0
  8 19  1  0  0  0  0
  8  9  1  0  0  0  0
  9 10  2  0  0  0  0
  9 11  1  0  0  0  0
 11 20  1  0  0  0  0
 12 18  1  0  0  0  0
 12 13  1  0  0  0  0
 12 26  1  0  0  0  0
 13 14  1  0  0  0  0
 13 27  1  0  0  0  0
 13 28  1  0  0  0  0
 14 15  1  0  0  0  0
 14 29  1  0  0  0  0
 14 30  1  0  0  0  0
 15 16  1  0  0  0  0
 15 31  1  0  0  0  0
 15 32  1  0  0  0  0
 16 17  1  0  0  0  0
 16 33  1  0  0  0  0
 16 34  1  0  0  0  0
 17 18  1  0  0  0  0
 17 35  1  0  0  0  0
 17 36  1  0  0  0  0
 18 37  1  0  0  0  0
 18 38  1  0  0  0  0
M  END
> <s_m_source_file>
AV-unprocessed.smi

> <i_m_source_file_index>
696

> <i_lp_mmshare_version>
43012

> <i_f3d_flags>
0

> <s_epik_input>
W0NIMl0xW0NIMl1bQ0gyXVtDSDJdW0NIMl1bQ0gyXVtDSF0xQyg9TylbTkhdW0NIMl1bQ0gyXWMybltuSF1jKD1PKVtuSF0y

> <s_epik_cmdline>
J2VwaWtfcHl0aG9uJywgJy1waCcsICc3LjAnLCAnLXRuJywgJzgnLCAnLW1hJywgJzIwMCcsICctbWV0YWxfYmluZGluZycsICctaW1hZScsICc8aW5maWxlLm1hZT4nLCAnLW9tYWUnLCAnPG91dGZpbGUubWFlPic=

> <r_lp_tautomer_probability>
1

> <r_epik_Ionization_Penalty>
0.000812647

> <r_epik_Ionization_Penalty_Charging>
0.000812608

> <r_epik_Ionization_Penalty_Neutral>
3.92257e-08

> <r_epik_State_Penalty>
-0

> <r_epik_Charging_Adjusted_Penalty>
0.000812608

> <i_epik_Tot_Q>
0

> <i_epik_Tot_abs_Q>
0

> <r_epik_Metal_State_Penalty>
0.511782

> <b_epik_Metal_Only>
0

> <s_lp_Force_Field>
OPLS_2005

> <r_lp_Energy>
36.4871

> <b_lp_Chiralities_Consistent>
1

> <s_lp_Variant>
AV-unprocessed.smi:696-1

> <Gold.Version>
5.8.1

> <Gold.Id.Protein>
6NUR|6NUR_protein|mol2

> <Gold.PLP.Fitness>
46.1984

> <Gold.PLP.PLP>
-36.1733

> <Gold.PLP.part.hbond>
-4.7816

> <Gold.PLP.part.metal>
0.0000

> <Gold.PLP.part.buried>
-5.5530

> <Gold.PLP.part.nonpolar>
-29.4525

> <Gold.PLP.part.repulsive>
2.4222

> <Gold.PLP.ligand.clash>
0.0000

> <Gold.PLP.ligand.torsion>
0.9391

> <Gold.PLP.Chemscore.Hbond>
3.9520

> <Gold.PLP.Chemscore.CHOScore>
0.0000

> <Gold.PLP.Chemscore.Metal>
0.0000

> <Gold.Chemscore.Hbonds>
donor molecule, donor type, donor heavy atom, donor atom, acceptor molecule, acceptor atom, score
      L1  H     8    19       P1 10175  1.00
      L1  H    11    20       P1  7948  0.86
      P1  H  7954  7966       L1    10  0.80
      P1  H  7997  8010       L1     1  0.68

> <Gold.PLP.Chemscore.Internal.Correction>
0.0473

> <Gold.Rescore>
     Score         DG    S(hbond)    S(metal)    S(lipo)     H(rot)  DE(clash)    DE(int)     intcor
     19.98     -21.32       3.69        0.00      80.07       2.28       0.51       0.83       ----

> <Gold.Chemscore.Fitness>
19.9763

> <Gold.Chemscore.DG>
-21.3197

> <Gold.Chemscore.ZeroCoef>
-5.4800

> <Gold.Chemscore.Hbond>
3.6853

> <Gold.Chemscore.Metal>
0.0000

> <Gold.Chemscore.Lipo>
80.0674

> <Gold.Chemscore.Internal_Hbond>
0.0000

> <Gold.Chemscore.DEClash>
0.5089

> <Gold.Chemscore.DEInternal>
0.8345

> <Gold.Chemscore.Rot>
2.2801

> <Gold.Chemscore.Internal.Correction>
   9.000000E+99

> <Gold.Chemscore.Hbonds>
donor molecule, donor type, donor heavy atom, donor atom, acceptor molecule, acceptor atom, score
      L1  H     8    19       P1 10175  0.98
      L1  H    11    20       P1  7948  0.81
      P1  H  7954  7966       L1    10  0.43
      P1  H  7997  8010       L1     1  0.69

> <Gold.Chemscore.Hbond.Weighted>
-12.3088

> <Gold.Chemscore.Metal.Weighted>
-0.0000

> <Gold.Chemscore.Lipo.Weighted>
-9.3679

> <Gold.Chemscore.Internal_Hbond.Weighted>
0.0000

> <Gold.Chemscore.DEClash.Weighted>
0.5089

> <Gold.Chemscore.DEInternal.Weighted>
0.8345

> <Gold.Chemscore.Rot.Weighted>
5.8370

> <Gold.Chemscore.Internal.Correction.Weighted>
   9.000000E+99

> <Gold.Protein.RotatedTorsions>
[ 6907 6896 6895 6894 ] final   38.20 input  -60.11 | X-H torsion
[ 7974 7965 7964 7962 ] final  107.93 input  175.53 | X-H torsion
[ 8008 7997 7996 7995 ] final   63.50 input   59.86 | X-H torsion
[ 10167 10162 10161 10158 ] final  119.64 input  -65.29 | X-H torsion
[ 10718 10713 10712 10709 ] final  -56.58 input   66.30 | X-H torsion
[ 10763 10752 10751 10750 ] final  162.73 input  -60.55 | X-H torsion
[ 11005 11000 10999 10996 ] final   36.80 input  -57.11 | X-H torsion

> <Gold.Protein.ActiveResidues>
 VAL166  LYS551  ARG553  GLY616  TRP617  ASP618  TYR619  PRO620  LYS621  CYS622 
 ASP623  PHE694  ASN695  SER759  ASP760  ASP761  ALA762  ILE779  LEU786  VAL792 
 PHE793  MET794  SER795  GLU796  ALA797  LYS798  CYS799  TRP800  GLU811  SER814 

> <Gold.Protein.RotatedAtoms>
  152.1533  134.8971  160.0546 H   0  0  0  0  0  0  0  0  0  0  0  0  # atno 6907 bound_to 6896
  151.9995  133.3815  159.4184 H   0  0  0  0  0  0  0  0  0  0  0  0  # atno 6908 bound_to 6896
  150.6878  134.3772  159.5062 H   0  0  0  0  0  0  0  0  0  0  0  0  # atno 6909 bound_to 6896
  145.2873  139.2612  143.3884 H   0  0  0  0  0  0  0  0  0  0  0  0  # atno 7974 bound_to 7965
  155.6312  140.3496  155.4683 H   0  0  0  0  0  0  0  0  0  0  0  0  # atno 8008 bound_to 7997
  156.0001  140.1211  157.0579 H   0  0  0  0  0  0  0  0  0  0  0  0  # atno 8009 bound_to 7997
  154.4246  140.1102  156.5671 H   0  0  0  0  0  0  0  0  0  0  0  0  # atno 8010 bound_to 7997
  139.6033  144.7063  151.3012 H   0  0  0  0  0  0  0  0  0  0  0  0  # atno 10167 bound_to 10162
  156.1277  130.4161  150.0325 H   0  0  0  0  0  0  0  0  0  0  0  0  # atno 10718 bound_to 10713
  154.2829  135.2763  155.2689 H   0  0  0  0  0  0  0  0  0  0  0  0  # atno 10763 bound_to 10752
  154.5202  135.5758  153.6678 H   0  0  0  0  0  0  0  0  0  0  0  0  # atno 10764 bound_to 10752
  152.9926  135.6202  154.2989 H   0  0  0  0  0  0  0  0  0  0  0  0  # atno 10765 bound_to 10752
  140.2289  134.3551  155.7972 H   0  0  0  0  0  0  0  0  0  0  0  0  # atno 11005 bound_to 11000
  146.3197  140.3355  142.8644 LP  0  0  0  0  0  0  0  0  0  0  0  0  # atno 17320 bound_to 7965
  144.9202  140.7859  143.5753 LP  0  0  0  0  0  0  0  0  0  0  0  0  # atno 17321 bound_to 7965
  140.7266  143.6986  150.7863 LP  0  0  0  0  0  0  0  0  0  0  0  0  # atno 17342 bound_to 10162
  140.0567  143.5195  152.2647 LP  0  0  0  0  0  0  0  0  0  0  0  0  # atno 17343 bound_to 10162
  156.8245  130.9370  151.3640 LP  0  0  0  0  0  0  0  0  0  0  0  0  # atno 17370 bound_to 10713
  157.6458  130.8843  149.9535 LP  0  0  0  0  0  0  0  0  0  0  0  0  # atno 17371 bound_to 10713
  141.2219  133.7234  156.8699 LP  0  0  0  0  0  0  0  0  0  0  0  0  # atno 17394 bound_to 11000
  140.1771  134.9059  157.2903 LP  0  0  0  0  0  0  0  0  0  0  0  0  # atno 17395 bound_to 11000

$$$$
