AV-unprocessed.smi:3314|AV-procd|sdf|12745|dock4
  -GOLD-   2272019 83D 1   1.00000     0.00000
 Structure written by MMmdl.
 37 38  0  0  0  0  0  0  0  0  3 V2000
  151.3368  144.1239  159.4170 C   0  0  0  0  0  0  0  0  0  0  0  0
  151.9765  142.7929  159.7508 C   0  0  0  0  0  0  0  0  0  0  0  0
  152.3871  142.4967  161.0645 C   0  0  0  0  0  0  0  0  0  0  0  0
  152.9783  141.2416  161.3069 C   0  0  0  0  0  0  0  0  0  0  0  0
  153.4389  140.8612  162.6983 C   0  0  0  0  0  0  0  0  0  0  0  0
  153.1632  140.3138  160.3427 N   0  0  0  0  0  0  0  0  0  0  0  0
  152.7672  140.5846  159.0761 C   0  0  0  0  0  0  0  0  0  0  0  0
  152.9667  139.6585  158.1275 N   0  5  0  0  0  0  0  0  0  0  0  0
  151.9899  139.3899  157.2275 C   0  0  0  0  0  0  0  0  0  0  0  0
  151.1841  138.4569  157.2257 O   0  0  0  0  0  0  0  0  0  0  0  0
  151.9622  140.4372  156.0911 C   0  0  2  0  0  0  0  0  0  0  0  0
  150.6614  141.2725  156.0253 C   0  0  0  0  0  0  0  0  0  0  0  0
  149.5181  140.4419  155.5776 N   0  3  1  0  0  0  0  0  0  0  0  0
  148.2399  141.1836  155.5717 C   0  0  0  0  0  0  0  0  0  0  0  0
  149.8124  139.7968  154.2784 C   0  0  0  0  0  0  0  0  0  0  0  0
  151.1135  138.9829  154.3688 C   0  0  0  0  0  0  0  0  0  0  0  0
  152.1760  139.8266  154.8120 O   0  0  0  0  0  0  0  0  0  0  0  0
  152.1736  141.8249  158.7458 C   0  0  0  0  0  0  0  0  0  0  0  0
  151.1254  144.6994  160.3186 H   0  0  0  0  0  0  0  0  0  0  0  0
  150.3985  143.9694  158.8839 H   0  0  0  0  0  0  0  0  0  0  0  0
  152.0004  144.7117  158.7826 H   0  0  0  0  0  0  0  0  0  0  0  0
  152.2540  143.2104  161.8640 H   0  0  0  0  0  0  0  0  0  0  0  0
  153.7617  141.7428  163.2528 H   0  0  0  0  0  0  0  0  0  0  0  0
  154.2758  140.1628  162.6571 H   0  0  0  0  0  0  0  0  0  0  0  0
  152.6239  140.3888  163.2468 H   0  0  0  0  0  0  0  0  0  0  0  0
  152.7946  141.1199  156.2679 H   0  0  0  0  0  0  0  0  0  0  0  0
  150.4419  141.7132  156.9990 H   0  0  0  0  0  0  0  0  0  0  0  0
  150.7953  142.1048  155.3325 H   0  0  0  0  0  0  0  0  0  0  0  0
  148.2718  142.0133  154.8645 H   0  0  0  0  0  0  0  0  0  0  0  0
  148.0243  141.5843  156.5625 H   0  0  0  0  0  0  0  0  0  0  0  0
  147.4162  140.5259  155.2921 H   0  0  0  0  0  0  0  0  0  0  0  0
  148.9868  139.1435  153.9941 H   0  0  0  0  0  0  0  0  0  0  0  0
  149.9015  140.5593  153.5031 H   0  0  0  0  0  0  0  0  0  0  0  0
  150.9900  138.1224  155.0275 H   0  0  0  0  0  0  0  0  0  0  0  0
  151.3721  138.5847  153.3876 H   0  0  0  0  0  0  0  0  0  0  0  0
  151.8688  142.0303  157.7297 H   0  0  0  0  0  0  0  0  0  0  0  0
  149.4222  139.6993  156.2567 H   0  0  0  0  0  0  0  0  0  0  0  0
  1  2  1  0  0  0  0
  1 19  1  0  0  0  0
  1 20  1  0  0  0  0
  1 21  1  0  0  0  0
  2 18  2  0  0  0  0
  2  3  1  0  0  0  0
  3  4  2  0  0  0  0
  3 22  1  0  0  0  0
  4  5  1  0  0  0  0
  4  6  1  0  0  0  0
  5 23  1  0  0  0  0
  5 24  1  0  0  0  0
  5 25  1  0  0  0  0
  6  7  2  0  0  0  0
  7  8  1  0  0  0  0
  7 18  1  0  0  0  0
  8  9  1  0  0  0  0
  9 10  2  0  0  0  0
  9 11  1  0  0  0  0
 11 17  1  0  0  0  0
 11 12  1  0  0  0  0
 11 26  1  0  0  0  0
 12 13  1  0  0  0  0
 12 27  1  0  0  0  0
 12 28  1  0  0  0  0
 13 14  1  0  0  0  0
 13 15  1  0  0  0  0
 13 37  1  0  0  0  0
 14 29  1  0  0  0  0
 14 30  1  0  0  0  0
 14 31  1  0  0  0  0
 15 16  1  0  0  0  0
 15 32  1  0  0  0  0
 15 33  1  0  0  0  0
 16 17  1  0  0  0  0
 16 34  1  0  0  0  0
 16 35  1  0  0  0  0
 18 36  1  0  0  0  0
M  CHG  1   8  -1
M  CHG  1  13   1
M  END
> <s_m_source_file>
AV-unprocessed.smi

> <i_m_source_file_index>
3314

> <i_lp_mmshare_version>
43012

> <i_f3d_flags>
0

> <s_epik_input>
W0NIM11jMVtjSF1jKFtDSDNdKW5jKFtjSF0xKVtOSF1DKD1PKVtDQEBIXTJbQ0gyXU4oW0NIM10pW0NIMl1bQ0gyXU8y

> <s_epik_cmdline>
J2VwaWtfcHl0aG9uJywgJy1waCcsICc3LjAnLCAnLXRuJywgJzgnLCAnLW1hJywgJzIwMCcsICctbWV0YWxfYmluZGluZycsICctaW1hZScsICc8aW5maWxlLm1hZT4nLCAnLW9tYWUnLCAnPG91dGZpbGUubWFlPic=

> <r_epik_Ionization_Penalty>
13.8964

> <r_epik_Ionization_Penalty_Charging>
7.88995

> <r_epik_Ionization_Penalty_Neutral>
6.00641

> <r_epik_State_Penalty>
8.39989

> <r_epik_Charging_Adjusted_Penalty>
16.2898

> <i_epik_Tot_Q>
0

> <i_epik_Tot_abs_Q>
2

> <r_epik_Metal_State_Penalty>
4.31145

> <b_epik_Metal_Only>
1

> <s_lp_Force_Field>
OPLS_2005

> <r_lp_Energy>
7.08272

> <b_lp_Chiralities_Consistent>
1

> <s_lp_Variant>
AV-unprocessed.smi:3314-15

> <Gold.Version>
5.8.1

> <Gold.Id.Protein>
6NUR|6NUR_protein|mol2

> <Gold.PLP.Fitness>
46.5429

> <Gold.PLP.PLP>
-39.7062

> <Gold.PLP.part.hbond>
-2.0000

> <Gold.PLP.part.metal>
0.0000

> <Gold.PLP.part.buried>
-4.1954

> <Gold.PLP.part.nonpolar>
-32.5524

> <Gold.PLP.part.repulsive>
0.1392

> <Gold.PLP.ligand.clash>
0.0000

> <Gold.PLP.ligand.torsion>
1.1024

> <Gold.PLP.Chemscore.Hbond>
3.0000

> <Gold.PLP.Chemscore.CHOScore>
0.0000

> <Gold.PLP.Chemscore.Metal>
0.0000

> <Gold.Chemscore.Hbonds>
donor molecule, donor type, donor heavy atom, donor atom, acceptor molecule, acceptor atom, score
      P1  H  7989  7998       L1    17  0.20
      P1  H  7997  8010       L1     8  1.38

> <Gold.PLP.Chemscore.Internal.Correction>
0.0415

> <Gold.Rescore>
     Score         DG    S(hbond)    S(metal)    S(lipo)     H(rot)  DE(clash)    DE(int)     intcor
     16.75     -19.12       1.64        0.00      91.80       1.00       0.00       2.38       ----

> <Gold.Chemscore.Fitness>
16.7458

> <Gold.Chemscore.DG>
-19.1231

> <Gold.Chemscore.ZeroCoef>
-5.4800

> <Gold.Chemscore.Hbond>
1.6356

> <Gold.Chemscore.Metal>
0.0000

> <Gold.Chemscore.Lipo>
91.7967

> <Gold.Chemscore.Internal_Hbond>
0.0000

> <Gold.Chemscore.DEClash>
0.0015

> <Gold.Chemscore.DEInternal>
2.3758

> <Gold.Chemscore.Rot>
1.0000

> <Gold.Chemscore.Internal.Correction>
   9.000000E+99

> <Gold.Chemscore.Hbonds>
donor molecule, donor type, donor heavy atom, donor atom, acceptor molecule, acceptor atom, score
      P1  H  7997  8010       L1     8  0.07

> <Gold.Chemscore.Hbond.Weighted>
-5.4628

> <Gold.Chemscore.Metal.Weighted>
-0.0000

> <Gold.Chemscore.Lipo.Weighted>
-10.7402

> <Gold.Chemscore.Internal_Hbond.Weighted>
0.0000

> <Gold.Chemscore.DEClash.Weighted>
0.0015

> <Gold.Chemscore.DEInternal.Weighted>
2.3758

> <Gold.Chemscore.Rot.Weighted>
2.5600

> <Gold.Chemscore.Internal.Correction.Weighted>
   9.000000E+99

> <Gold.Protein.RotatedTorsions>
[ 6907 6896 6895 6894 ] final -170.37 input  -60.11 | X-H torsion
[ 7974 7965 7964 7962 ] final   86.53 input  175.53 | X-H torsion
[ 8008 7997 7996 7995 ] final   57.27 input   59.86 | X-H torsion
[ 10167 10162 10161 10158 ] final  -96.22 input  -65.29 | X-H torsion
[ 10718 10713 10712 10709 ] final  151.87 input   66.30 | X-H torsion
[ 10763 10752 10751 10750 ] final   92.47 input  -60.55 | X-H torsion
[ 11005 11000 10999 10996 ] final -161.19 input  -57.11 | X-H torsion

> <Gold.Protein.ActiveResidues>
 VAL166  LYS551  ARG553  GLY616  TRP617  ASP618  TYR619  PRO620  LYS621  CYS622 
 ASP623  PHE694  ASN695  SER759  ASP760  ASP761  ALA762  ILE779  LEU786  VAL792 
 PHE793  MET794  SER795  GLU796  ALA797  LYS798  CYS799  TRP800  GLU811  SER814 

> <Gold.Protein.RotatedAtoms>
  151.5066  133.3493  159.2877 H   0  0  0  0  0  0  0  0  0  0  0  0  # atno 6907 bound_to 6896
  150.8739  134.8120  159.7186 H   0  0  0  0  0  0  0  0  0  0  0  0  # atno 6908 bound_to 6896
  152.4717  134.4954  159.9760 H   0  0  0  0  0  0  0  0  0  0  0  0  # atno 6909 bound_to 6896
  145.5710  139.2314  143.2406 H   0  0  0  0  0  0  0  0  0  0  0  0  # atno 7974 bound_to 7965
  155.5310  140.3482  155.4426 H   0  0  0  0  0  0  0  0  0  0  0  0  # atno 8008 bound_to 7997
  156.0718  140.1365  156.9845 H   0  0  0  0  0  0  0  0  0  0  0  0  # atno 8009 bound_to 7997
  154.4532  140.0964  156.6656 H   0  0  0  0  0  0  0  0  0  0  0  0  # atno 8010 bound_to 7997
  140.2961  143.3191  152.0296 H   0  0  0  0  0  0  0  0  0  0  0  0  # atno 10167 bound_to 10162
  157.2651  131.0806  151.1638 H   0  0  0  0  0  0  0  0  0  0  0  0  # atno 10718 bound_to 10713
  153.2196  135.4360  155.0474 H   0  0  0  0  0  0  0  0  0  0  0  0  # atno 10763 bound_to 10752
  154.8243  135.3353  154.6947 H   0  0  0  0  0  0  0  0  0  0  0  0  # atno 10764 bound_to 10752
  153.7380  135.7006  153.5029 H   0  0  0  0  0  0  0  0  0  0  0  0  # atno 10765 bound_to 10752
  140.6232  134.4729  157.5225 H   0  0  0  0  0  0  0  0  0  0  0  0  # atno 11005 bound_to 11000
  146.1784  140.6537  142.9201 LP  0  0  0  0  0  0  0  0  0  0  0  0  # atno 17320 bound_to 7965
  144.7437  140.5012  143.6850 LP  0  0  0  0  0  0  0  0  0  0  0  0  # atno 17321 bound_to 7965
  139.4926  144.6490  151.6717 LP  0  0  0  0  0  0  0  0  0  0  0  0  # atno 17342 bound_to 10162
  140.5691  144.0139  150.6207 LP  0  0  0  0  0  0  0  0  0  0  0  0  # atno 17343 bound_to 10162
  157.3132  130.6900  149.6227 LP  0  0  0  0  0  0  0  0  0  0  0  0  # atno 17370 bound_to 10713
  155.9663  130.4357  150.5103 LP  0  0  0  0  0  0  0  0  0  0  0  0  # atno 17371 bound_to 10713
  139.9145  134.8275  156.1413 LP  0  0  0  0  0  0  0  0  0  0  0  0  # atno 17394 bound_to 11000
  141.0728  133.6789  156.2174 LP  0  0  0  0  0  0  0  0  0  0  0  0  # atno 17395 bound_to 11000

$$$$
