AV-unprocessed.smi:213|AV-procd|sdf|1637|dock10
  -GOLD-   2262020 03D 1   1.00000     0.00000
 Structure written by MMmdl.
 59 62  0  0  0  0  0  0  0  0  2 V2000
  146.1830  138.0553  152.3124 C   0  0  0  0  0  0  0  0  0  0  0  0
  146.2694  137.4670  153.7301 C   0  0  2  0  0  0  0  0  0  0  0  0
  145.8265  135.9835  153.7518 C   0  0  0  0  0  0  0  0  0  0  0  0
  146.9577  135.0358  153.5860 N   0  3  0  0  0  0  0  0  0  0  0  0
  147.8324  134.9589  154.7781 C   0  0  0  0  0  0  0  0  0  0  0  0
  149.0337  134.0426  154.4908 C   0  0  0  0  0  0  0  0  0  0  0  0
  148.5700  132.7531  154.1089 O   0  0  0  0  0  0  0  0  0  0  0  0
  147.7860  132.7969  152.9228 C   0  0  0  0  0  0  0  0  0  0  0  0
  146.5466  133.6771  153.1551 C   0  0  0  0  0  0  0  0  0  0  0  0
  145.5349  138.2925  154.7010 N   0  0  0  0  0  0  0  0  0  0  0  0
  144.2612  137.8132  155.2367 C   0  0  0  0  0  0  0  0  0  0  0  0
  146.2864  139.0775  155.5179 C   0  0  0  0  0  0  0  0  0  0  0  0
  145.8981  139.2599  156.8089 N   0  0  0  0  0  0  0  0  0  0  0  0
  146.6482  139.9831  157.6447 C   0  0  0  0  0  0  0  0  0  0  0  0
  147.8069  140.5974  157.4038 N   0  0  0  0  0  0  0  0  0  0  0  0
  148.1947  140.4361  156.1069 C   0  0  0  0  0  0  0  0  0  0  0  0
  147.5010  139.6967  155.1071 C   0  0  0  0  0  0  0  0  0  0  0  0
  148.2021  139.7507  153.9084 N   0  0  0  0  0  0  0  0  0  0  0  0
  149.2513  140.4753  154.1841 C   0  0  0  0  0  0  0  0  0  0  0  0
  149.3217  140.9376  155.4790 N   0  0  0  0  0  0  0  0  0  0  0  0
  150.3766  141.7638  156.0445 C   0  0  0  0  0  0  0  0  0  0  0  0
  150.1872  142.1066  157.5404 C   0  0  2  0  0  0  0  0  0  0  0  0
  149.0245  142.8950  157.6969 O   0  0  0  0  0  0  0  0  0  0  0  0
  151.4105  142.7853  158.2056 C   0  0  1  0  0  0  0  0  0  0  0  0
  151.7627  144.2247  157.7984 C   0  0  0  0  0  0  0  0  0  0  0  0
  152.4647  144.7834  159.0285 C   0  0  0  0  0  0  0  0  0  0  0  0
  152.2533  143.7195  160.1093 C   0  0  0  0  0  0  0  0  0  0  0  0
  151.2207  142.8838  159.6077 O   0  0  0  0  0  0  0  0  0  0  0  0
  146.8236  137.5033  151.6243 H   0  0  0  0  0  0  0  0  0  0  0  0
  146.5110  139.0952  152.3005 H   0  0  0  0  0  0  0  0  0  0  0  0
  145.1699  138.0170  151.9125 H   0  0  0  0  0  0  0  0  0  0  0  0
  147.3279  137.4879  153.9805 H   0  0  0  0  0  0  0  0  0  0  0  0
  145.3288  135.7835  154.7015 H   0  0  0  0  0  0  0  0  0  0  0  0
  145.0822  135.7953  152.9766 H   0  0  0  0  0  0  0  0  0  0  0  0
  148.1881  135.9552  155.0436 H   0  0  0  0  0  0  0  0  0  0  0  0
  147.2631  134.5810  155.6287 H   0  0  0  0  0  0  0  0  0  0  0  0
  149.6643  134.4630  153.7054 H   0  0  0  0  0  0  0  0  0  0  0  0
  149.6546  133.9459  155.3816 H   0  0  0  0  0  0  0  0  0  0  0  0
  148.3824  133.1747  152.0910 H   0  0  0  0  0  0  0  0  0  0  0  0
  147.4828  131.7831  152.6613 H   0  0  0  0  0  0  0  0  0  0  0  0
  145.9061  133.2282  153.9158 H   0  0  0  0  0  0  0  0  0  0  0  0
  145.9648  133.7246  152.2354 H   0  0  0  0  0  0  0  0  0  0  0  0
  143.7375  138.6109  155.7651 H   0  0  0  0  0  0  0  0  0  0  0  0
  144.4162  136.9869  155.9311 H   0  0  0  0  0  0  0  0  0  0  0  0
  143.6023  137.4686  154.4407 H   0  0  0  0  0  0  0  0  0  0  0  0
  146.2705  140.0769  158.6523 H   0  0  0  0  0  0  0  0  0  0  0  0
  150.0023  140.7040  153.4418 H   0  0  0  0  0  0  0  0  0  0  0  0
  151.3332  141.2644  155.8845 H   0  0  0  0  0  0  0  0  0  0  0  0
  150.4200  142.6885  155.4677 H   0  0  0  0  0  0  0  0  0  0  0  0
  149.9987  141.1655  158.0585 H   0  0  0  0  0  0  0  0  0  0  0  0
  149.0434  143.5844  157.0505 H   0  0  0  0  0  0  0  0  0  0  0  0
  152.2858  142.1492  158.0588 H   0  0  0  0  0  0  0  0  0  0  0  0
  152.3932  144.2680  156.9110 H   0  0  0  0  0  0  0  0  0  0  0  0
  150.8737  144.8223  157.5982 H   0  0  0  0  0  0  0  0  0  0  0  0
  153.5272  144.9521  158.8495 H   0  0  0  0  0  0  0  0  0  0  0  0
  152.0204  145.7354  159.3212 H   0  0  0  0  0  0  0  0  0  0  0  0
  153.1586  143.1258  160.2441 H   0  0  0  0  0  0  0  0  0  0  0  0
  151.9818  144.1489  161.0738 H   0  0  0  0  0  0  0  0  0  0  0  0
  147.5329  135.4148  152.8465 H   0  0  0  0  0  0  0  0  0  0  0  0
  1  2  1  0  0  0  0
  1 29  1  0  0  0  0
  1 30  1  0  0  0  0
  1 31  1  0  0  0  0
  2  3  1  0  0  0  0
  2 10  1  0  0  0  0
  2 32  1  0  0  0  0
  3  4  1  0  0  0  0
  3 33  1  0  0  0  0
  3 34  1  0  0  0  0
  4  9  1  0  0  0  0
  4  5  1  0  0  0  0
  4 59  1  0  0  0  0
  5  6  1  0  0  0  0
  5 35  1  0  0  0  0
  5 36  1  0  0  0  0
  6  7  1  0  0  0  0
  6 37  1  0  0  0  0
  6 38  1  0  0  0  0
  7  8  1  0  0  0  0
  8  9  1  0  0  0  0
  8 39  1  0  0  0  0
  8 40  1  0  0  0  0
  9 41  1  0  0  0  0
  9 42  1  0  0  0  0
 10 11  1  0  0  0  0
 10 12  1  0  0  0  0
 11 43  1  0  0  0  0
 11 44  1  0  0  0  0
 11 45  1  0  0  0  0
 12 17  1  0  0  0  0
 12 13  2  0  0  0  0
 13 14  1  0  0  0  0
 14 15  2  0  0  0  0
 14 46  1  0  0  0  0
 15 16  1  0  0  0  0
 16 20  1  0  0  0  0
 16 17  2  0  0  0  0
 17 18  1  0  0  0  0
 18 19  2  0  0  0  0
 19 20  1  0  0  0  0
 19 47  1  0  0  0  0
 20 21  1  0  0  0  0
 21 22  1  0  0  0  0
 21 48  1  0  0  0  0
 21 49  1  0  0  0  0
 22 23  1  0  0  0  0
 22 24  1  0  0  0  0
 22 50  1  0  0  0  0
 23 51  1  0  0  0  0
 24 28  1  0  0  0  0
 24 25  1  0  0  0  0
 24 52  1  0  0  0  0
 25 26  1  0  0  0  0
 25 53  1  0  0  0  0
 25 54  1  0  0  0  0
 26 27  1  0  0  0  0
 26 55  1  0  0  0  0
 26 56  1  0  0  0  0
 27 28  1  0  0  0  0
 27 57  1  0  0  0  0
 27 58  1  0  0  0  0
M  CHG  1   4   1
M  END
> <s_m_source_file>
AV-unprocessed.smi

> <i_m_source_file_index>
213

> <i_lp_mmshare_version>
43012

> <i_f3d_flags>
0

> <s_epik_input>
W0NIMl0xW0NIMl1PW0NIMl1bQ0gyXU4xW0NIMl1bQ0BASF0oW0NIM10pTihbQ0gzXSljKG5bY0hdbjIpYyhjMjMpbltjSF1uM1tDSDJdW0NASF0oW09IXSlbQ0BASF00W0NIMl1bQ0gyXVtDSDJdTzQ=

> <s_epik_cmdline>
J2VwaWtfcHl0aG9uJywgJy1waCcsICc3LjAnLCAnLXRuJywgJzgnLCAnLW1hJywgJzIwMCcsICctbWV0YWxfYmluZGluZycsICctaW1hZScsICc8aW5maWxlLm1hZT4nLCAnLW9tYWUnLCAnPG91dGZpbGUubWFlPic=

> <r_lp_tautomer_probability>
1

> <r_epik_Ionization_Penalty>
0.399679

> <r_epik_Ionization_Penalty_Charging>
0.399433

> <r_epik_Ionization_Penalty_Neutral>
0.000246213

> <r_epik_State_Penalty>
0.286032

> <r_epik_Charging_Adjusted_Penalty>
0.685465

> <i_epik_Tot_Q>
1

> <i_epik_Tot_abs_Q>
1

> <r_epik_Metal_State_Penalty>
0.286072

> <b_epik_Metal_Only>
0

> <s_lp_Force_Field>
OPLS_2005

> <r_lp_Energy>
48.2471

> <b_lp_Chiralities_Consistent>
1

> <s_lp_Variant>
AV-unprocessed.smi:213-5

> <Gold.Version>
5.8.1

> <Gold.Id.Protein>
6NUR|6NUR_protein|mol2

> <Gold.PLP.Fitness>
49.4522

> <Gold.PLP.PLP>
-39.6644

> <Gold.PLP.part.hbond>
-2.4140

> <Gold.PLP.part.metal>
0.0000

> <Gold.PLP.part.buried>
-4.6137

> <Gold.PLP.part.nonpolar>
-34.1262

> <Gold.PLP.part.repulsive>
0.4806

> <Gold.PLP.ligand.clash>
0.0000

> <Gold.PLP.ligand.torsion>
1.3127

> <Gold.PLP.Chemscore.Hbond>
3.0000

> <Gold.PLP.Chemscore.CHOScore>
0.7820

> <Gold.PLP.Chemscore.Metal>
0.0000

> <Gold.Chemscore.Hbonds>
donor molecule, donor type, donor heavy atom, donor atom, acceptor molecule, acceptor atom, score
      L1  H     4    59       P1  7948  2.00
      L1  H    23    51       P1  8028  1.00
      L1  C    19    47       P1  7957  0.79

> <Gold.PLP.Chemscore.Internal.Correction>
1.0672

> <Gold.Rescore>
     Score         DG    S(hbond)    S(metal)    S(lipo)     H(rot)  DE(clash)    DE(int)     intcor
     11.66     -15.60       1.86        0.00      95.31       2.83       0.23       3.70       ----

> <Gold.Chemscore.Fitness>
11.6644

> <Gold.Chemscore.DG>
-15.5951

> <Gold.Chemscore.ZeroCoef>
-5.4800

> <Gold.Chemscore.Hbond>
1.8552

> <Gold.Chemscore.Metal>
0.0000

> <Gold.Chemscore.Lipo>
95.3142

> <Gold.Chemscore.Internal_Hbond>
0.0000

> <Gold.Chemscore.DEClash>
0.2316

> <Gold.Chemscore.DEInternal>
3.6990

> <Gold.Chemscore.Rot>
2.8254

> <Gold.Chemscore.Internal.Correction>
   9.000000E+99

> <Gold.Chemscore.Hbonds>
donor molecule, donor type, donor heavy atom, donor atom, acceptor molecule, acceptor atom, score
      L1  H     4    59       P1  7948  1.00
      L1  H    23    51       P1  8028  0.55

> <Gold.Chemscore.Hbond.Weighted>
-6.1963

> <Gold.Chemscore.Metal.Weighted>
-0.0000

> <Gold.Chemscore.Lipo.Weighted>
-11.1518

> <Gold.Chemscore.Internal_Hbond.Weighted>
0.0000

> <Gold.Chemscore.DEClash.Weighted>
0.2316

> <Gold.Chemscore.DEInternal.Weighted>
3.6990

> <Gold.Chemscore.Rot.Weighted>
7.2330

> <Gold.Chemscore.Internal.Correction.Weighted>
   9.000000E+99

> <Gold.Protein.RotatedTorsions>
[ 6907 6896 6895 6894 ] final   45.75 input  -60.11 | X-H torsion
[ 7974 7965 7964 7962 ] final  106.78 input  175.53 | X-H torsion
[ 8008 7997 7996 7995 ] final  141.59 input   59.86 | X-H torsion
[ 10167 10162 10161 10158 ] final  139.33 input  -65.29 | X-H torsion
[ 10718 10713 10712 10709 ] final  164.68 input   66.30 | X-H torsion
[ 10763 10752 10751 10750 ] final   84.54 input  -60.55 | X-H torsion
[ 11005 11000 10999 10996 ] final    5.31 input  -57.11 | X-H torsion

> <Gold.Protein.ActiveResidues>
 VAL166  LYS551  ARG553  GLY616  TRP617  ASP618  TYR619  PRO620  LYS621  CYS622 
 ASP623  PHE694  ASN695  SER759  ASP760  ASP761  ALA762  ILE779  LEU786  VAL792 
 PHE793  MET794  SER795  GLU796  ALA797  LYS798  CYS799  TRP800  GLU811  SER814 

> <Gold.Protein.RotatedAtoms>
  152.2482  134.8160  160.0449 H   0  0  0  0  0  0  0  0  0  0  0  0  # atno 6907 bound_to 6896
  151.8849  133.3498  159.3787 H   0  0  0  0  0  0  0  0  0  0  0  0  # atno 6908 bound_to 6896
  150.7075  134.4908  159.5559 H   0  0  0  0  0  0  0  0  0  0  0  0  # atno 6909 bound_to 6896
  145.3022  139.2566  143.3808 H   0  0  0  0  0  0  0  0  0  0  0  0  # atno 7974 bound_to 7965
  156.2963  140.2311  156.4590 H   0  0  0  0  0  0  0  0  0  0  0  0  # atno 8008 bound_to 7997
  154.8035  140.0447  157.1311 H   0  0  0  0  0  0  0  0  0  0  0  0  # atno 8009 bound_to 7997
  154.9506  140.3041  155.5080 H   0  0  0  0  0  0  0  0  0  0  0  0  # atno 8010 bound_to 7997
  139.5082  144.6301  151.5839 H   0  0  0  0  0  0  0  0  0  0  0  0  # atno 10167 bound_to 10162
  157.0909  131.0417  151.2537 H   0  0  0  0  0  0  0  0  0  0  0  0  # atno 10718 bound_to 10713
  153.1391  135.4650  154.9468 H   0  0  0  0  0  0  0  0  0  0  0  0  # atno 10763 bound_to 10752
  154.7732  135.3165  154.8149 H   0  0  0  0  0  0  0  0  0  0  0  0  # atno 10764 bound_to 10752
  153.8676  135.6906  153.4831 H   0  0  0  0  0  0  0  0  0  0  0  0  # atno 10765 bound_to 10752
  140.5721  134.0092  155.8013 H   0  0  0  0  0  0  0  0  0  0  0  0  # atno 11005 bound_to 11000
  146.3148  140.3539  142.8658 LP  0  0  0  0  0  0  0  0  0  0  0  0  # atno 17320 bound_to 7965
  144.9084  140.7728  143.5823 LP  0  0  0  0  0  0  0  0  0  0  0  0  # atno 17321 bound_to 7965
  140.6031  143.9574  150.6400 LP  0  0  0  0  0  0  0  0  0  0  0  0  # atno 17342 bound_to 10162
  140.2792  143.3401  152.1167 LP  0  0  0  0  0  0  0  0  0  0  0  0  # atno 17343 bound_to 10162
  157.4722  130.7715  149.7334 LP  0  0  0  0  0  0  0  0  0  0  0  0  # atno 17370 bound_to 10713
  155.9898  130.3949  150.3055 LP  0  0  0  0  0  0  0  0  0  0  0  0  # atno 17371 bound_to 10713
  141.1049  133.9709  157.3013 LP  0  0  0  0  0  0  0  0  0  0  0  0  # atno 17394 bound_to 11000
  139.9357  135.0196  156.8547 LP  0  0  0  0  0  0  0  0  0  0  0  0  # atno 17395 bound_to 11000

$$$$
