AV-unprocessed.smi:2224|AV-procd|sdf|8996|dock9
  -GOLD-   2272012203D 1   1.00000     0.00000
 Structure written by MMmdl.
 44 46  0  0  0  0  0  0  0  0  1 V2000
  147.9406  132.9254  160.9694 C   0  0  0  0  0  0  0  0  0  0  0  0
  147.7031  134.4200  160.9166 C   0  0  0  0  0  0  0  0  0  0  0  0
  146.9340  135.0659  161.9036 C   0  0  0  0  0  0  0  0  0  0  0  0
  146.7499  136.4584  161.7965 C   0  0  0  0  0  0  0  0  0  0  0  0
  145.9345  137.2172  162.8224 C   0  0  0  0  0  0  0  0  0  0  0  0
  147.2731  137.1964  160.7940 N   0  0  0  0  0  0  0  0  0  0  0  0
  148.0151  136.5846  159.8378 C   0  0  0  0  0  0  0  0  0  0  0  0
  148.6123  137.2683  158.7460 N   0  0  0  0  0  0  0  0  0  0  0  0
  148.2160  138.4140  158.1646 C   0  0  0  0  0  0  0  0  0  0  0  0
  147.2249  139.0713  158.4835 O   0  0  0  0  0  0  0  0  0  0  0  0
  149.0392  138.7561  157.1648 N   0  0  0  0  0  0  0  0  0  0  0  0
  148.8686  139.9251  156.3002 C   0  0  1  0  0  0  0  0  0  0  0  0
  150.2126  140.5329  155.8395 C   0  0  1  0  0  0  0  0  0  0  0  0
  151.5408  140.1314  156.4333 C   0  0  0  0  0  0  0  0  0  0  0  0
  152.0577  139.0908  155.4355 C   0  0  0  0  0  0  0  0  0  0  0  0
  150.8953  138.6400  154.7430 O   0  0  0  0  0  0  0  0  0  0  0  0
  150.0439  139.7657  154.5383 C   0  0  1  0  0  0  0  0  0  0  0  0
  148.5427  139.5542  154.8282 C   0  0  0  0  0  0  0  0  0  0  0  0
  147.9801  138.1595  154.5212 C   0  0  0  0  0  0  0  0  0  0  0  0
  147.6214  140.5532  154.1219 C   0  0  0  0  0  0  0  0  0  0  0  0
  148.2501  135.1917  159.8718 C   0  0  0  0  0  0  0  0  0  0  0  0
  147.5376  132.4914  161.8851 H   0  0  0  0  0  0  0  0  0  0  0  0
  149.0086  132.7101  160.9324 H   0  0  0  0  0  0  0  0  0  0  0  0
  147.4614  132.4377  160.1203 H   0  0  0  0  0  0  0  0  0  0  0  0
  146.4968  134.5098  162.7201 H   0  0  0  0  0  0  0  0  0  0  0  0
  145.6742  136.5814  163.6690 H   0  0  0  0  0  0  0  0  0  0  0  0
  145.0108  137.5832  162.3736 H   0  0  0  0  0  0  0  0  0  0  0  0
  146.4960  138.0720  163.2006 H   0  0  0  0  0  0  0  0  0  0  0  0
  149.4361  136.8322  158.3599 H   0  0  0  0  0  0  0  0  0  0  0  0
  149.8250  138.1552  156.9642 H   0  0  0  0  0  0  0  0  0  0  0  0
  148.1984  140.6825  156.7109 H   0  0  0  0  0  0  0  0  0  0  0  0
  150.1140  141.6068  155.6741 H   0  0  0  0  0  0  0  0  0  0  0  0
  152.2286  140.9737  156.5121 H   0  0  0  0  0  0  0  0  0  0  0  0
  151.4341  139.7066  157.4312 H   0  0  0  0  0  0  0  0  0  0  0  0
  152.7389  139.5531  154.7197 H   0  0  0  0  0  0  0  0  0  0  0  0
  152.5800  138.2661  155.9210 H   0  0  0  0  0  0  0  0  0  0  0  0
  150.2876  140.3425  153.6448 H   0  0  0  0  0  0  0  0  0  0  0  0
  147.8894  137.9914  153.4477 H   0  0  0  0  0  0  0  0  0  0  0  0
  146.9910  138.0246  154.9599 H   0  0  0  0  0  0  0  0  0  0  0  0
  148.6157  137.3636  154.9097 H   0  0  0  0  0  0  0  0  0  0  0  0
  147.6000  140.3877  153.0444 H   0  0  0  0  0  0  0  0  0  0  0  0
  147.9454  141.5820  154.2817 H   0  0  0  0  0  0  0  0  0  0  0  0
  146.5969  140.4793  154.4880 H   0  0  0  0  0  0  0  0  0  0  0  0
  148.8426  134.7160  159.1036 H   0  0  0  0  0  0  0  0  0  0  0  0
  1  2  1  0  0  0  0
  1 22  1  0  0  0  0
  1 23  1  0  0  0  0
  1 24  1  0  0  0  0
  2 21  1  0  0  0  0
  2  3  2  0  0  0  0
  3  4  1  0  0  0  0
  3 25  1  0  0  0  0
  4  5  1  0  0  0  0
  4  6  2  0  0  0  0
  5 26  1  0  0  0  0
  5 27  1  0  0  0  0
  5 28  1  0  0  0  0
  6  7  1  0  0  0  0
  7  8  1  0  0  0  0
  7 21  2  0  0  0  0
  8  9  1  0  0  0  0
  8 29  1  0  0  0  0
  9 10  2  0  0  0  0
  9 11  1  0  0  0  0
 11 12  1  0  0  0  0
 11 30  1  0  0  0  0
 12 18  1  0  0  0  0
 12 13  1  0  0  0  0
 12 31  1  0  0  0  0
 13 17  1  0  0  0  0
 13 14  1  0  0  0  0
 13 32  1  0  0  0  0
 14 15  1  0  0  0  0
 14 33  1  0  0  0  0
 14 34  1  0  0  0  0
 15 16  1  0  0  0  0
 15 35  1  0  0  0  0
 15 36  1  0  0  0  0
 16 17  1  0  0  0  0
 17 18  1  0  0  0  0
 17 37  1  0  0  0  0
 18 19  1  0  0  0  0
 18 20  1  0  0  0  0
 19 38  1  0  0  0  0
 19 39  1  0  0  0  0
 19 40  1  0  0  0  0
 20 41  1  0  0  0  0
 20 42  1  0  0  0  0
 20 43  1  0  0  0  0
 21 44  1  0  0  0  0
M  END
> <s_m_source_file>
AV-unprocessed.smi

> <i_m_source_file_index>
2224

> <i_lp_mmshare_version>
43012

> <i_f3d_flags>
0

> <s_epik_input>
W0NIM11jMVtjSF1jKFtDSDNdKW5jKFtjSF0xKVtOSF1DKD1PKVtOSF1bQ0BIXTJDKFtDSDNdKShbQ0gzXSlbQ0BIXShbQ0BASF0yMylPW0NIMl1bQ0gyXTM=

> <s_epik_cmdline>
J2VwaWtfcHl0aG9uJywgJy1waCcsICc3LjAnLCAnLXRuJywgJzgnLCAnLW1hJywgJzIwMCcsICctbWV0YWxfYmluZGluZycsICctaW1hZScsICc8aW5maWxlLm1hZT4nLCAnLW9tYWUnLCAnPG91dGZpbGUubWFlPic=

> <r_lp_tautomer_probability>
1

> <r_epik_Ionization_Penalty>
0.000276544

> <r_epik_Ionization_Penalty_Charging>
0

> <r_epik_Ionization_Penalty_Neutral>
0.000276544

> <r_epik_State_Penalty>
-0

> <r_epik_Charging_Adjusted_Penalty>
0

> <i_epik_Tot_Q>
0

> <i_epik_Tot_abs_Q>
0

> <r_epik_Metal_State_Penalty>
-0

> <b_epik_Metal_Only>
0

> <s_lp_Force_Field>
OPLS_2005

> <r_lp_Energy>
39.8946

> <b_lp_Chiralities_Consistent>
1

> <s_lp_Variant>
AV-unprocessed.smi:2224-6

> <Gold.Version>
5.8.1

> <Gold.Id.Protein>
6NUR|6NUR_protein|mol2

> <Gold.PLP.Fitness>
38.8091

> <Gold.PLP.PLP>
-34.2670

> <Gold.PLP.part.hbond>
-3.0000

> <Gold.PLP.part.metal>
0.0000

> <Gold.PLP.part.buried>
-4.5049

> <Gold.PLP.part.nonpolar>
-28.5417

> <Gold.PLP.part.repulsive>
0.3455

> <Gold.PLP.ligand.clash>
0.0000

> <Gold.PLP.ligand.torsion>
0.3572

> <Gold.PLP.Chemscore.Hbond>
1.6896

> <Gold.PLP.Chemscore.CHOScore>
0.0000

> <Gold.PLP.Chemscore.Metal>
0.0000

> <Gold.Chemscore.Hbonds>
donor molecule, donor type, donor heavy atom, donor atom, acceptor molecule, acceptor atom, score
      P1  H  6931  6943       L1     6  0.17
      P1  H  6934  6947       L1     6  1.00

> <Gold.PLP.Chemscore.Internal.Correction>
0.1876

> <Gold.Rescore>
     Score         DG    S(hbond)    S(metal)    S(lipo)     H(rot)  DE(clash)    DE(int)     intcor
     13.69     -15.25       0.75        0.00      83.97       1.00       0.01       1.56       ----

> <Gold.Chemscore.Fitness>
13.6852

> <Gold.Chemscore.DG>
-15.2532

> <Gold.Chemscore.ZeroCoef>
-5.4800

> <Gold.Chemscore.Hbond>
0.7512

> <Gold.Chemscore.Metal>
0.0000

> <Gold.Chemscore.Lipo>
83.9667

> <Gold.Chemscore.Internal_Hbond>
0.0000

> <Gold.Chemscore.DEClash>
0.0060

> <Gold.Chemscore.DEInternal>
1.5619

> <Gold.Chemscore.Rot>
1.0000

> <Gold.Chemscore.Internal.Correction>
   9.000000E+99

> <Gold.Chemscore.Hbonds>
donor molecule, donor type, donor heavy atom, donor atom, acceptor molecule, acceptor atom, score
      P1  H  6931  6943       L1     6  0.01
      P1  H  6934  6947       L1     6  0.94

> <Gold.Chemscore.Hbond.Weighted>
-2.5091

> <Gold.Chemscore.Metal.Weighted>
-0.0000

> <Gold.Chemscore.Lipo.Weighted>
-9.8241

> <Gold.Chemscore.Internal_Hbond.Weighted>
0.0000

> <Gold.Chemscore.DEClash.Weighted>
0.0060

> <Gold.Chemscore.DEInternal.Weighted>
1.5619

> <Gold.Chemscore.Rot.Weighted>
2.5600

> <Gold.Chemscore.Internal.Correction.Weighted>
   9.000000E+99

> <Gold.Protein.RotatedTorsions>
[ 6907 6896 6895 6894 ] final  -38.48 input  -60.11 | X-H torsion
[ 7974 7965 7964 7962 ] final  -34.71 input  175.53 | X-H torsion
[ 8008 7997 7996 7995 ] final  -63.86 input   59.86 | X-H torsion
[ 10167 10162 10161 10158 ] final -114.60 input  -65.29 | X-H torsion
[ 10718 10713 10712 10709 ] final    0.18 input   66.30 | X-H torsion
[ 10763 10752 10751 10750 ] final  -28.73 input  -60.55 | X-H torsion
[ 11005 11000 10999 10996 ] final -106.29 input  -57.11 | X-H torsion

> <Gold.Protein.ActiveResidues>
 VAL166  LYS551  ARG553  GLY616  TRP617  ASP618  TYR619  PRO620  LYS621  CYS622 
 ASP623  PHE694  ASN695  SER759  ASP760  ASP761  ALA762  ILE779  LEU786  VAL792 
 PHE793  MET794  SER795  GLU796  ALA797  LYS798  CYS799  TRP800  GLU811  SER814 

> <Gold.Protein.RotatedAtoms>
  151.0019  134.9329  159.7958 H   0  0  0  0  0  0  0  0  0  0  0  0  # atno 6907 bound_to 6896
  152.5280  134.3143  159.9135 H   0  0  0  0  0  0  0  0  0  0  0  0  # atno 6908 bound_to 6896
  151.3148  133.4023  159.2684 H   0  0  0  0  0  0  0  0  0  0  0  0  # atno 6909 bound_to 6896
  146.0807  140.6071  142.8909 H   0  0  0  0  0  0  0  0  0  0  0  0  # atno 7974 bound_to 7965
  154.4578  140.0966  156.6808 H   0  0  0  0  0  0  0  0  0  0  0  0  # atno 8008 bound_to 7997
  155.5084  140.3475  155.4365 H   0  0  0  0  0  0  0  0  0  0  0  0  # atno 8009 bound_to 7997
  156.0812  140.1373  156.9698 H   0  0  0  0  0  0  0  0  0  0  0  0  # atno 8010 bound_to 7997
  140.0992  143.4628  152.1822 H   0  0  0  0  0  0  0  0  0  0  0  0  # atno 10167 bound_to 10162
  156.8296  130.5484  149.5688 H   0  0  0  0  0  0  0  0  0  0  0  0  # atno 10718 bound_to 10713
  153.7530  135.6924  153.4941 H   0  0  0  0  0  0  0  0  0  0  0  0  # atno 10763 bound_to 10752
  153.1990  135.4443  155.0242 H   0  0  0  0  0  0  0  0  0  0  0  0  # atno 10764 bound_to 10752
  154.8180  135.3408  154.7050 H   0  0  0  0  0  0  0  0  0  0  0  0  # atno 10765 bound_to 10752
  141.1012  133.8881  157.1838 H   0  0  0  0  0  0  0  0  0  0  0  0  # atno 11005 bound_to 11000
  144.7291  140.4618  143.6951 LP  0  0  0  0  0  0  0  0  0  0  0  0  # atno 17320 bound_to 7965
  145.6223  139.1525  143.3015 LP  0  0  0  0  0  0  0  0  0  0  0  0  # atno 17321 bound_to 7965
  139.5680  144.7447  151.3967 LP  0  0  0  0  0  0  0  0  0  0  0  0  # atno 17342 bound_to 10162
  140.6987  143.7686  150.7367 LP  0  0  0  0  0  0  0  0  0  0  0  0  # atno 17343 bound_to 10162
  156.0942  130.5919  150.9785 LP  0  0  0  0  0  0  0  0  0  0  0  0  # atno 17370 bound_to 10713
  157.6414  131.0910  150.8244 LP  0  0  0  0  0  0  0  0  0  0  0  0  # atno 17371 bound_to 10713
  139.9864  135.0080  156.9872 LP  0  0  0  0  0  0  0  0  0  0  0  0  # atno 17394 bound_to 11000
  140.5018  134.1090  155.7252 LP  0  0  0  0  0  0  0  0  0  0  0  0  # atno 17395 bound_to 11000

$$$$
