AV-unprocessed.smi:3231|AV-procd|sdf|12332|dock2
  -GOLD-   2272018183D 1   1.00000     0.00000
 Structure written by MMmdl.
 41 42  0  0  0  0  0  0  0  0  2 V2000
  146.0419  140.0634  153.6696 O   0  0  0  0  0  0  0  0  0  0  0  0
  146.7701  138.8733  153.4371 C   0  0  1  0  0  0  0  0  0  0  0  0
  146.0675  138.1162  152.2964 C   0  0  0  0  0  0  0  0  0  0  0  0
  146.5311  136.7168  152.2176 N   0  3  0  0  0  0  0  0  0  0  0  0
  145.7029  135.8531  151.3522 C   0  0  0  0  0  0  0  0  0  0  0  0
  146.2579  134.4200  151.2900 C   0  0  0  0  0  0  0  0  0  0  0  0
  145.2689  133.4561  150.8400 N   0  0  0  0  0  0  0  0  0  0  0  0
  145.4129  132.0948  150.6719 C   0  0  0  0  0  0  0  0  0  0  0  0
  144.2176  131.6122  150.2217 C   0  0  0  0  0  0  0  0  0  0  0  0
  143.3962  132.7708  150.1347 C   0  0  0  0  0  0  0  0  0  0  0  0
  144.0293  133.8728  150.5033 N   0  0  0  0  0  0  0  0  0  0  0  0
  148.2241  139.2451  153.0741 C   0  0  0  0  0  0  0  0  0  0  0  0
  149.1152  139.4621  154.2140 N   0  0  0  0  0  0  0  0  0  0  0  0
  149.5462  140.8529  154.3386 C   0  0  0  0  0  0  0  0  0  0  0  0
  150.5043  141.0536  155.5258 C   0  0  0  0  0  0  0  0  0  0  0  0
  151.6251  140.1870  155.3876 O   0  0  0  0  0  0  0  0  0  0  0  0
  151.2515  138.8154  155.3121 C   0  0  0  0  0  0  0  0  0  0  0  0
  150.2956  138.6076  154.1245 C   0  0  0  0  0  0  0  0  0  0  0  0
  145.2759  140.0594  153.1153 H   0  0  0  0  0  0  0  0  0  0  0  0
  146.7573  138.2568  154.3376 H   0  0  0  0  0  0  0  0  0  0  0  0
  144.9847  138.1416  152.4295 H   0  0  0  0  0  0  0  0  0  0  0  0
  146.2840  138.5994  151.3427 H   0  0  0  0  0  0  0  0  0  0  0  0
  147.4802  136.7093  151.8728 H   0  0  0  0  0  0  0  0  0  0  0  0
  144.6754  135.8468  151.7186 H   0  0  0  0  0  0  0  0  0  0  0  0
  145.6779  136.2779  150.3481 H   0  0  0  0  0  0  0  0  0  0  0  0
  147.1078  134.3786  150.6077 H   0  0  0  0  0  0  0  0  0  0  0  0
  146.6277  134.1136  152.2695 H   0  0  0  0  0  0  0  0  0  0  0  0
  146.3421  131.5868  150.8853 H   0  0  0  0  0  0  0  0  0  0  0  0
  143.9686  130.5881  149.9855 H   0  0  0  0  0  0  0  0  0  0  0  0
  142.3666  132.8433  149.8163 H   0  0  0  0  0  0  0  0  0  0  0  0
  148.6363  138.4188  152.4936 H   0  0  0  0  0  0  0  0  0  0  0  0
  148.2447  140.1047  152.4018 H   0  0  0  0  0  0  0  0  0  0  0  0
  150.0392  141.1718  153.4188 H   0  0  0  0  0  0  0  0  0  0  0  0
  148.6835  141.5042  154.4754 H   0  0  0  0  0  0  0  0  0  0  0  0
  150.8534  142.0856  155.5621 H   0  0  0  0  0  0  0  0  0  0  0  0
  149.9957  140.8538  156.4703 H   0  0  0  0  0  0  0  0  0  0  0  0
  152.1484  138.2085  155.1882 H   0  0  0  0  0  0  0  0  0  0  0  0
  150.7811  138.5066  156.2469 H   0  0  0  0  0  0  0  0  0  0  0  0
  149.9932  137.5604  154.0872 H   0  0  0  0  0  0  0  0  0  0  0  0
  150.8294  138.8106  153.1947 H   0  0  0  0  0  0  0  0  0  0  0  0
  146.5235  136.3325  153.1521 H   0  0  0  0  0  0  0  0  0  0  0  0
  1  2  1  0  0  0  0
  1 19  1  0  0  0  0
  2  3  1  0  0  0  0
  2 12  1  0  0  0  0
  2 20  1  0  0  0  0
  3  4  1  0  0  0  0
  3 21  1  0  0  0  0
  3 22  1  0  0  0  0
  4  5  1  0  0  0  0
  4 23  1  0  0  0  0
  4 41  1  0  0  0  0
  5  6  1  0  0  0  0
  5 24  1  0  0  0  0
  5 25  1  0  0  0  0
  6  7  1  0  0  0  0
  6 26  1  0  0  0  0
  6 27  1  0  0  0  0
  7 11  1  0  0  0  0
  7  8  1  0  0  0  0
  8  9  2  0  0  0  0
  8 28  1  0  0  0  0
  9 10  1  0  0  0  0
  9 29  1  0  0  0  0
 10 11  2  0  0  0  0
 10 30  1  0  0  0  0
 12 13  1  0  0  0  0
 12 31  1  0  0  0  0
 12 32  1  0  0  0  0
 13 18  1  0  0  0  0
 13 14  1  0  0  0  0
 14 15  1  0  0  0  0
 14 33  1  0  0  0  0
 14 34  1  0  0  0  0
 15 16  1  0  0  0  0
 15 35  1  0  0  0  0
 15 36  1  0  0  0  0
 16 17  1  0  0  0  0
 17 18  1  0  0  0  0
 17 37  1  0  0  0  0
 17 38  1  0  0  0  0
 18 39  1  0  0  0  0
 18 40  1  0  0  0  0
M  CHG  1   4   1
M  END
> <s_m_source_file>
AV-unprocessed.smi

> <i_m_source_file_index>
3231

> <i_lp_mmshare_version>
43012

> <i_f3d_flags>
0

> <s_epik_input>
W0NIMl0xW0NIMl1PW0NIMl1bQ0gyXU4xW0NIMl1bQ0BIXShbT0hdKVtDSDJdW05IXVtDSDJdW0NIMl1uMltjSF1bY0hdW2NIXW4y

> <s_epik_cmdline>
J2VwaWtfcHl0aG9uJywgJy1waCcsICc3LjAnLCAnLXRuJywgJzgnLCAnLW1hJywgJzIwMCcsICctbWV0YWxfYmluZGluZycsICctaW1hZScsICc8aW5maWxlLm1hZT4nLCAnLW9tYWUnLCAnPG91dGZpbGUubWFlPic=

> <r_lp_tautomer_probability>
1

> <r_epik_Ionization_Penalty>
0.1292

> <r_epik_Ionization_Penalty_Charging>
0.0387518

> <r_epik_Ionization_Penalty_Neutral>
0.0904484

> <r_epik_State_Penalty>
0.234133

> <r_epik_Charging_Adjusted_Penalty>
0.272885

> <i_epik_Tot_Q>
1

> <i_epik_Tot_abs_Q>
1

> <r_epik_Metal_State_Penalty>
0.234414

> <b_epik_Metal_Only>
0

> <s_lp_Force_Field>
OPLS_2005

> <r_lp_Energy>
29.6238

> <b_lp_Chiralities_Consistent>
1

> <s_lp_Variant>
AV-unprocessed.smi:3231-2

> <Gold.Version>
5.8.1

> <Gold.Id.Protein>
6NUR|6NUR_protein|mol2

> <Gold.PLP.Fitness>
49.6768

> <Gold.PLP.PLP>
-32.8185

> <Gold.PLP.part.hbond>
-3.0000

> <Gold.PLP.part.metal>
0.0000

> <Gold.PLP.part.buried>
-1.4827

> <Gold.PLP.part.nonpolar>
-29.2186

> <Gold.PLP.part.repulsive>
0.3606

> <Gold.PLP.ligand.clash>
0.0000

> <Gold.PLP.ligand.torsion>
1.2348

> <Gold.PLP.Chemscore.Hbond>
3.8960

> <Gold.PLP.Chemscore.CHOScore>
2.4225

> <Gold.PLP.Chemscore.Metal>
0.0000

> <Gold.Chemscore.Hbonds>
donor molecule, donor type, donor heavy atom, donor atom, acceptor molecule, acceptor atom, score
      L1  H     1    19       P1 10175  1.00
      L1  H     4    23       P1  7948  1.98
      P1  H  7989  7998       L1    16  0.19
      L1  C     8    28       P1 10747  0.33
      L1  C    10    30       P1 10186  1.00

> <Gold.PLP.Chemscore.Internal.Correction>
0.3723

> <Gold.Rescore>
     Score         DG    S(hbond)    S(metal)    S(lipo)     H(rot)  DE(clash)    DE(int)     intcor
     12.87     -15.08       2.04        0.00      85.63       2.83       0.86       1.35       ----

> <Gold.Chemscore.Fitness>
12.8689

> <Gold.Chemscore.DG>
-15.0825

> <Gold.Chemscore.ZeroCoef>
-5.4800

> <Gold.Chemscore.Hbond>
2.0407

> <Gold.Chemscore.Metal>
0.0000

> <Gold.Chemscore.Lipo>
85.6303

> <Gold.Chemscore.Internal_Hbond>
0.0000

> <Gold.Chemscore.DEClash>
0.8635

> <Gold.Chemscore.DEInternal>
1.3501

> <Gold.Chemscore.Rot>
2.8251

> <Gold.Chemscore.Internal.Correction>
   9.000000E+99

> <Gold.Chemscore.Hbonds>
donor molecule, donor type, donor heavy atom, donor atom, acceptor molecule, acceptor atom, score
      L1  H     1    19       P1 10175  1.00
      L1  H     4    23       P1  7948  0.91

> <Gold.Chemscore.Hbond.Weighted>
-6.8160

> <Gold.Chemscore.Metal.Weighted>
-0.0000

> <Gold.Chemscore.Lipo.Weighted>
-10.0187

> <Gold.Chemscore.Internal_Hbond.Weighted>
0.0000

> <Gold.Chemscore.DEClash.Weighted>
0.8635

> <Gold.Chemscore.DEInternal.Weighted>
1.3501

> <Gold.Chemscore.Rot.Weighted>
7.2322

> <Gold.Chemscore.Internal.Correction.Weighted>
   9.000000E+99

> <Gold.Protein.RotatedTorsions>
[ 6907 6896 6895 6894 ] final  -90.86 input  -60.11 | X-H torsion
[ 7974 7965 7964 7962 ] final -129.52 input  175.53 | X-H torsion
[ 8008 7997 7996 7995 ] final -149.13 input   59.86 | X-H torsion
[ 10167 10162 10161 10158 ] final   28.27 input  -65.29 | X-H torsion
[ 10718 10713 10712 10709 ] final  134.58 input   66.30 | X-H torsion
[ 10763 10752 10751 10750 ] final  137.62 input  -60.55 | X-H torsion
[ 11005 11000 10999 10996 ] final -165.99 input  -57.11 | X-H torsion

> <Gold.Protein.ActiveResidues>
 VAL166  LYS551  ARG553  GLY616  TRP617  ASP618  TYR619  PRO620  LYS621  CYS622 
 ASP623  PHE694  ASN695  SER759  ASP760  ASP761  ALA762  ILE779  LEU786  VAL792 
 PHE793  MET794  SER795  GLU796  ALA797  LYS798  CYS799  TRP800  GLU811  SER814 

> <Gold.Protein.RotatedAtoms>
  150.6886  134.2366  159.4455 H   0  0  0  0  0  0  0  0  0  0  0  0  # atno 6907 bound_to 6896
  152.0313  134.9763  160.0582 H   0  0  0  0  0  0  0  0  0  0  0  0  # atno 6908 bound_to 6896
  152.1302  133.4368  159.4754 H   0  0  0  0  0  0  0  0  0  0  0  0  # atno 6909 bound_to 6896
  144.9564  140.7400  143.4756 H   0  0  0  0  0  0  0  0  0  0  0  0  # atno 7974 bound_to 7965
  155.6028  140.0664  157.2728 H   0  0  0  0  0  0  0  0  0  0  0  0  # atno 8008 bound_to 7997
  154.4274  140.1815  156.1238 H   0  0  0  0  0  0  0  0  0  0  0  0  # atno 8009 bound_to 7997
  156.0146  140.3323  155.6979 H   0  0  0  0  0  0  0  0  0  0  0  0  # atno 8010 bound_to 7997
  140.4867  144.0531  150.6283 H   0  0  0  0  0  0  0  0  0  0  0  0  # atno 10167 bound_to 10162
  157.4658  131.1076  150.9864 H   0  0  0  0  0  0  0  0  0  0  0  0  # atno 10718 bound_to 10713
  153.8760  135.3050  155.3444 H   0  0  0  0  0  0  0  0  0  0  0  0  # atno 10763 bound_to 10752
  154.7783  135.4849  153.9794 H   0  0  0  0  0  0  0  0  0  0  0  0  # atno 10764 bound_to 10752
  153.1378  135.6818  153.9171 H   0  0  0  0  0  0  0  0  0  0  0  0  # atno 10765 bound_to 10752
  140.5695  134.5252  157.5159 H   0  0  0  0  0  0  0  0  0  0  0  0  # atno 11005 bound_to 11000
  145.2766  139.1934  143.4813 LP  0  0  0  0  0  0  0  0  0  0  0  0  # atno 17320 bound_to 7965
  146.3338  140.2721  142.8606 LP  0  0  0  0  0  0  0  0  0  0  0  0  # atno 17321 bound_to 7965
  140.3789  143.2814  152.0193 LP  0  0  0  0  0  0  0  0  0  0  0  0  # atno 17342 bound_to 10162
  139.4843  144.6171  151.7326 LP  0  0  0  0  0  0  0  0  0  0  0  0  # atno 17343 bound_to 10162
  157.0646  130.5839  149.5392 LP  0  0  0  0  0  0  0  0  0  0  0  0  # atno 17370 bound_to 10713
  156.0049  130.5135  150.7796 LP  0  0  0  0  0  0  0  0  0  0  0  0  # atno 17371 bound_to 10713
  139.9368  134.7860  156.0781 LP  0  0  0  0  0  0  0  0  0  0  0  0  # atno 17394 bound_to 11000
  141.1065  133.6658  156.2875 LP  0  0  0  0  0  0  0  0  0  0  0  0  # atno 17395 bound_to 11000

$$$$
