AV-unprocessed.smi:470|AV-procd|sdf|2654|dock10
  -GOLD-   2262023 63D 1   1.00000     0.00000
 Structure written by MMmdl.
 33 34  0  0  0  0  0  0  0  0  1 V2000
  153.2739  129.1942  154.3507 N   0  0  0  0  0  0  0  0  0  0  0  0
  152.3998  129.6782  155.2374 C   0  0  0  0  0  0  0  0  0  0  0  0
  152.7481  130.3596  156.1994 O   0  0  0  0  0  0  0  0  0  0  0  0
  150.9221  129.3535  155.0116 C   0  0  0  0  0  0  0  0  0  0  0  0
  150.1540  130.6081  154.7128 C   0  0  0  0  0  0  0  0  0  0  0  0
  149.9694  131.6823  155.5493 C   0  0  0  0  0  0  0  0  0  0  0  0
  148.9958  132.9262  154.8119 S   0  0  0  0  0  0  0  0  0  0  0  0
  148.9078  131.9427  153.3590 C   0  0  0  0  0  0  0  0  0  0  0  0
  148.1556  132.3461  152.2253 N   0  0  0  0  0  0  0  0  0  0  0  0
  147.0874  133.1640  152.1267 C   0  0  0  0  0  0  0  0  0  0  0  0
  146.6542  133.7100  153.1404 O   0  0  0  0  0  0  0  0  0  0  0  0
  146.4195  133.4642  150.7618 C   0  0  2  0  0  0  0  0  0  0  0  0
  145.2115  134.4293  150.8914 C   0  0  0  0  0  0  0  0  0  0  0  0
  143.9166  133.7362  151.2847 C   0  0  0  0  0  0  0  0  0  0  0  0
  143.7362  132.4067  151.2139 C   0  0  0  0  0  0  0  0  0  0  0  0
  144.8079  131.4432  150.7384 C   0  0  0  0  0  0  0  0  0  0  0  0
  145.9798  132.1666  150.0426 C   0  0  0  0  0  0  0  0  0  0  0  0
  149.5345  130.7673  153.4688 N   0  0  0  0  0  0  0  0  0  0  0  0
  154.2597  129.3791  154.4667 H   0  0  0  0  0  0  0  0  0  0  0  0
  152.9475  128.6398  153.5723 H   0  0  0  0  0  0  0  0  0  0  0  0
  150.8331  128.6458  154.1864 H   0  0  0  0  0  0  0  0  0  0  0  0
  150.5217  128.8492  155.8925 H   0  0  0  0  0  0  0  0  0  0  0  0
  150.3375  131.8103  156.5565 H   0  0  0  0  0  0  0  0  0  0  0  0
  148.4673  131.9488  151.3510 H   0  0  0  0  0  0  0  0  0  0  0  0
  147.1390  133.9926  150.1392 H   0  0  0  0  0  0  0  0  0  0  0  0
  145.4253  135.2116  151.6212 H   0  0  0  0  0  0  0  0  0  0  0  0
  145.0403  134.9387  149.9427 H   0  0  0  0  0  0  0  0  0  0  0  0
  143.1089  134.3699  151.6206 H   0  0  0  0  0  0  0  0  0  0  0  0
  142.7940  131.9756  151.5189 H   0  0  0  0  0  0  0  0  0  0  0  0
  145.1655  130.8814  151.6019 H   0  0  0  0  0  0  0  0  0  0  0  0
  144.3626  130.7198  150.0552 H   0  0  0  0  0  0  0  0  0  0  0  0
  145.6784  132.4243  149.0265 H   0  0  0  0  0  0  0  0  0  0  0  0
  146.8170  131.4769  149.9343 H   0  0  0  0  0  0  0  0  0  0  0  0
  1  2  1  0  0  0  0
  1 19  1  0  0  0  0
  1 20  1  0  0  0  0
  2  3  2  0  0  0  0
  2  4  1  0  0  0  0
  4  5  1  0  0  0  0
  4 21  1  0  0  0  0
  4 22  1  0  0  0  0
  5 18  1  0  0  0  0
  5  6  2  0  0  0  0
  6  7  1  0  0  0  0
  6 23  1  0  0  0  0
  7  8  1  0  0  0  0
  8  9  1  0  0  0  0
  8 18  2  0  0  0  0
  9 10  1  0  0  0  0
  9 24  1  0  0  0  0
 10 11  2  0  0  0  0
 10 12  1  0  0  0  0
 12 17  1  0  0  0  0
 12 13  1  0  0  0  0
 12 25  1  0  0  0  0
 13 14  1  0  0  0  0
 13 26  1  0  0  0  0
 13 27  1  0  0  0  0
 14 15  2  0  0  0  0
 14 28  1  0  0  0  0
 15 16  1  0  0  0  0
 15 29  1  0  0  0  0
 16 17  1  0  0  0  0
 16 30  1  0  0  0  0
 16 31  1  0  0  0  0
 17 32  1  0  0  0  0
 17 33  1  0  0  0  0
M  END
> <s_m_source_file>
AV-unprocessed.smi

> <i_m_source_file_index>
470

> <i_lp_mmshare_version>
43012

> <i_f3d_flags>
0

> <s_epik_input>
W05IMl1DKD1PKVtDSDJdYzFbY0hdc2MobjEpW05IXUMoPU8pW0NAQEhdMltDSDJdW0NIXT1bQ0hdW0NIMl1bQ0gyXTI=

> <s_epik_cmdline>
J2VwaWtfcHl0aG9uJywgJy1waCcsICc3LjAnLCAnLXRuJywgJzgnLCAnLW1hJywgJzIwMCcsICctbWV0YWxfYmluZGluZycsICctaW1hZScsICc8aW5maWxlLm1hZT4nLCAnLW9tYWUnLCAnPG91dGZpbGUubWFlPic=

> <r_lp_tautomer_probability>
1

> <r_epik_Ionization_Penalty>
0.00025496

> <r_epik_Ionization_Penalty_Charging>
0

> <r_epik_Ionization_Penalty_Neutral>
0.00025496

> <r_epik_State_Penalty>
-0

> <r_epik_Charging_Adjusted_Penalty>
0

> <i_epik_Tot_Q>
0

> <i_epik_Tot_abs_Q>
0

> <r_epik_Metal_State_Penalty>
0.149391

> <b_epik_Metal_Only>
0

> <s_lp_Force_Field>
OPLS_2005

> <r_lp_Energy>
11.789

> <b_lp_Chiralities_Consistent>
1

> <s_lp_Variant>
AV-unprocessed.smi:470-1

> <Gold.Version>
5.8.1

> <Gold.Id.Protein>
6NUR|6NUR_protein|mol2

> <Gold.PLP.Fitness>
39.0969

> <Gold.PLP.PLP>
-33.5285

> <Gold.PLP.part.hbond>
-2.0000

> <Gold.PLP.part.metal>
0.0000

> <Gold.PLP.part.buried>
-4.3303

> <Gold.PLP.part.nonpolar>
-28.4669

> <Gold.PLP.part.repulsive>
0.2996

> <Gold.PLP.ligand.clash>
0.0000

> <Gold.PLP.ligand.torsion>
0.2307

> <Gold.PLP.Chemscore.Hbond>
2.0000

> <Gold.PLP.Chemscore.CHOScore>
0.0000

> <Gold.PLP.Chemscore.Metal>
0.0000

> <Gold.Chemscore.Hbonds>
donor molecule, donor type, donor heavy atom, donor atom, acceptor molecule, acceptor atom, score
      L1  H     1    20       P1 10737  0.37
      L1  H     9    24       P1 10747  1.00

> <Gold.PLP.Chemscore.Internal.Correction>
0.0298

> <Gold.Rescore>
     Score         DG    S(hbond)    S(metal)    S(lipo)     H(rot)  DE(clash)    DE(int)     intcor
     13.37     -14.79       1.89        0.00      67.06       1.90       0.03       1.39       ----

> <Gold.Chemscore.Fitness>
13.3706

> <Gold.Chemscore.DG>
-14.7916

> <Gold.Chemscore.ZeroCoef>
-5.4800

> <Gold.Chemscore.Hbond>
1.8926

> <Gold.Chemscore.Metal>
0.0000

> <Gold.Chemscore.Lipo>
67.0624

> <Gold.Chemscore.Internal_Hbond>
0.0000

> <Gold.Chemscore.DEClash>
0.0271

> <Gold.Chemscore.DEInternal>
1.3938

> <Gold.Chemscore.Rot>
1.8968

> <Gold.Chemscore.Internal.Correction>
   9.000000E+99

> <Gold.Chemscore.Hbonds>
donor molecule, donor type, donor heavy atom, donor atom, acceptor molecule, acceptor atom, score
      L1  H     1    20       P1 10737  0.03
      L1  H     9    24       P1 10747  0.98

> <Gold.Chemscore.Hbond.Weighted>
-6.3211

> <Gold.Chemscore.Metal.Weighted>
-0.0000

> <Gold.Chemscore.Lipo.Weighted>
-7.8463

> <Gold.Chemscore.Internal_Hbond.Weighted>
0.0000

> <Gold.Chemscore.DEClash.Weighted>
0.0271

> <Gold.Chemscore.DEInternal.Weighted>
1.3938

> <Gold.Chemscore.Rot.Weighted>
4.8558

> <Gold.Chemscore.Internal.Correction.Weighted>
   9.000000E+99

> <Gold.Protein.RotatedTorsions>
[ 6907 6896 6895 6894 ] final  125.45 input  -60.11 | X-H torsion
[ 7974 7965 7964 7962 ] final -109.22 input  175.53 | X-H torsion
[ 8008 7997 7996 7995 ] final   19.89 input   59.86 | X-H torsion
[ 10167 10162 10161 10158 ] final -178.06 input  -65.29 | X-H torsion
[ 10718 10713 10712 10709 ] final  -47.75 input   66.30 | X-H torsion
[ 10763 10752 10751 10750 ] final   95.09 input  -60.55 | X-H torsion
[ 11005 11000 10999 10996 ] final  -53.48 input  -57.11 | X-H torsion

> <Gold.Protein.ActiveResidues>
 VAL166  LYS551  ARG553  GLY616  TRP617  ASP618  TYR619  PRO620  LYS621  CYS622 
 ASP623  PHE694  ASN695  SER759  ASP760  ASP761  ALA762  ILE779  LEU786  VAL792 
 PHE793  MET794  SER795  GLU796  ALA797  LYS798  CYS799  TRP800  GLU811  SER814 

> <Gold.Protein.RotatedAtoms>
  152.3991  133.6791  159.6300 H   0  0  0  0  0  0  0  0  0  0  0  0  # atno 6907 bound_to 6896
  150.7885  133.8822  159.3298 H   0  0  0  0  0  0  0  0  0  0  0  0  # atno 6908 bound_to 6896
  151.6592  135.0993  160.0227 H   0  0  0  0  0  0  0  0  0  0  0  0  # atno 6909 bound_to 6896
  145.1831  140.8980  143.3468 H   0  0  0  0  0  0  0  0  0  0  0  0  # atno 7974 bound_to 7965
  154.9274  140.3035  155.5185 H   0  0  0  0  0  0  0  0  0  0  0  0  # atno 8008 bound_to 7997
  156.3006  140.2360  156.4267 H   0  0  0  0  0  0  0  0  0  0  0  0  # atno 8009 bound_to 7997
  154.8270  140.0420  157.1439 H   0  0  0  0  0  0  0  0  0  0  0  0  # atno 8010 bound_to 7997
  139.5450  144.2259  152.0971 H   0  0  0  0  0  0  0  0  0  0  0  0  # atno 10167 bound_to 10162
  156.2054  130.4158  149.9185 H   0  0  0  0  0  0  0  0  0  0  0  0  # atno 10718 bound_to 10713
  153.2492  135.4266  155.0779 H   0  0  0  0  0  0  0  0  0  0  0  0  # atno 10763 bound_to 10752
  154.8374  135.3421  154.6538 H   0  0  0  0  0  0  0  0  0  0  0  0  # atno 10764 bound_to 10752
  153.6959  135.7031  153.5133 H   0  0  0  0  0  0  0  0  0  0  0  0  # atno 10765 bound_to 10752
  141.0978  133.6622  156.4178 H   0  0  0  0  0  0  0  0  0  0  0  0  # atno 11005 bound_to 11000
  145.0116  139.3505  143.6117 LP  0  0  0  0  0  0  0  0  0  0  0  0  # atno 17320 bound_to 7965
  146.3449  139.9380  142.8744 LP  0  0  0  0  0  0  0  0  0  0  0  0  # atno 17321 bound_to 7965
  140.1744  144.4905  150.6562 LP  0  0  0  0  0  0  0  0  0  0  0  0  # atno 17342 bound_to 10162
  140.6695  143.2280  151.5660 LP  0  0  0  0  0  0  0  0  0  0  0  0  # atno 17343 bound_to 10162
  156.6881  130.8885  151.3584 LP  0  0  0  0  0  0  0  0  0  0  0  0  # atno 17370 bound_to 10713
  157.7009  130.9332  150.0783 LP  0  0  0  0  0  0  0  0  0  0  0  0  # atno 17371 bound_to 10713
  140.5097  134.6407  157.5280 LP  0  0  0  0  0  0  0  0  0  0  0  0  # atno 17394 bound_to 11000
  139.9820  134.7122  155.9843 LP  0  0  0  0  0  0  0  0  0  0  0  0  # atno 17395 bound_to 11000

$$$$
