AV-unprocessed.smi:2893|AV-procd|sdf|11124|dock3
  -GOLD-   2272015593D 1   1.00000     0.00000
 Structure written by MMmdl.
 37 39  0  0  0  0  0  0  0  0  1 V2000
  154.5831  132.3675  157.6937 C   0  0  0  0  0  0  0  0  0  0  0  0
  153.2262  131.8893  158.2279 C   0  0  0  0  0  0  0  0  0  0  0  0
  152.2240  131.8245  157.1708 N   0  0  0  0  0  0  0  0  0  0  0  0
  151.7777  132.8734  156.4582 C   0  0  0  0  0  0  0  0  0  0  0  0
  152.1894  134.0231  156.6202 O   0  0  0  0  0  0  0  0  0  0  0  0
  150.7575  132.5604  155.3961 C   0  0  0  0  0  0  0  0  0  0  0  0
  150.3238  131.2312  155.1999 C   0  0  0  0  0  0  0  0  0  0  0  0
  149.3810  130.9909  154.1857 C   0  0  0  0  0  0  0  0  0  0  0  0
  148.9355  132.0925  153.4309 C   0  0  0  0  0  0  0  0  0  0  0  0
  147.9930  131.8806  152.4149 N   0  0  0  0  0  0  0  0  0  0  0  0
  146.6838  132.5258  152.4478 C   0  0  2  0  0  0  0  0  0  0  0  0
  145.5233  131.5289  152.4002 C   0  0  0  0  0  0  0  0  0  0  0  0
  144.6957  132.0635  151.2226 C   0  0  2  0  0  0  0  0  0  0  0  0
  145.3572  131.7407  149.8768 C   0  0  0  0  0  0  0  0  0  0  0  0
  146.5440  132.7020  149.8766 C   0  0  0  0  0  0  0  0  0  0  0  0
  146.3758  133.4173  151.2279 C   0  0  1  0  0  0  0  0  0  0  0  0
  144.9610  133.4534  151.3128 O   0  0  0  0  0  0  0  0  0  0  0  0
  149.3894  133.3480  153.6652 N   0  0  0  0  0  0  0  0  0  0  0  0
  150.2884  133.5766  154.6283 N   0  0  0  0  0  0  0  0  0  0  0  0
  155.3305  132.3746  158.4872 H   0  0  0  0  0  0  0  0  0  0  0  0
  154.5192  133.3792  157.2918 H   0  0  0  0  0  0  0  0  0  0  0  0
  154.9472  131.7138  156.9006 H   0  0  0  0  0  0  0  0  0  0  0  0
  153.3316  130.8927  158.6570 H   0  0  0  0  0  0  0  0  0  0  0  0
  152.8837  132.5403  159.0339 H   0  0  0  0  0  0  0  0  0  0  0  0
  151.8344  130.9160  156.9625 H   0  0  0  0  0  0  0  0  0  0  0  0
  150.6955  130.4169  155.8048 H   0  0  0  0  0  0  0  0  0  0  0  0
  149.0146  129.9927  153.9956 H   0  0  0  0  0  0  0  0  0  0  0  0
  148.2776  131.4135  151.5662 H   0  0  0  0  0  0  0  0  0  0  0  0
  146.5955  133.1158  153.3612 H   0  0  0  0  0  0  0  0  0  0  0  0
  145.8358  130.4957  152.2418 H   0  0  0  0  0  0  0  0  0  0  0  0
  144.9522  131.5704  153.3282 H   0  0  0  0  0  0  0  0  0  0  0  0
  143.6383  131.8021  151.2696 H   0  0  0  0  0  0  0  0  0  0  0  0
  145.6575  130.6952  149.8003 H   0  0  0  0  0  0  0  0  0  0  0  0
  144.6837  131.9654  149.0488 H   0  0  0  0  0  0  0  0  0  0  0  0
  147.5035  132.1945  149.7765 H   0  0  0  0  0  0  0  0  0  0  0  0
  146.4535  133.4130  149.0547 H   0  0  0  0  0  0  0  0  0  0  0  0
  146.8458  134.4002  151.2666 H   0  0  0  0  0  0  0  0  0  0  0  0
  1  2  1  0  0  0  0
  1 20  1  0  0  0  0
  1 21  1  0  0  0  0
  1 22  1  0  0  0  0
  2  3  1  0  0  0  0
  2 23  1  0  0  0  0
  2 24  1  0  0  0  0
  3  4  1  0  0  0  0
  3 25  1  0  0  0  0
  4  5  2  0  0  0  0
  4  6  1  0  0  0  0
  6 19  1  0  0  0  0
  6  7  2  0  0  0  0
  7  8  1  0  0  0  0
  7 26  1  0  0  0  0
  8  9  2  0  0  0  0
  8 27  1  0  0  0  0
  9 10  1  0  0  0  0
  9 18  1  0  0  0  0
 10 11  1  0  0  0  0
 10 28  1  0  0  0  0
 11 16  1  0  0  0  0
 11 12  1  0  0  0  0
 11 29  1  0  0  0  0
 12 13  1  0  0  0  0
 12 30  1  0  0  0  0
 12 31  1  0  0  0  0
 13 17  1  0  0  0  0
 13 14  1  0  0  0  0
 13 32  1  0  0  0  0
 14 15  1  0  0  0  0
 14 33  1  0  0  0  0
 14 34  1  0  0  0  0
 15 16  1  0  0  0  0
 15 35  1  0  0  0  0
 15 36  1  0  0  0  0
 16 17  1  0  0  0  0
 16 37  1  0  0  0  0
 18 19  2  0  0  0  0
M  END
> <s_m_source_file>
AV-unprocessed.smi

> <i_m_source_file_index>
2893

> <i_lp_mmshare_version>
43012

> <i_f3d_flags>
0

> <s_epik_input>
W0NIM11bQ0gyXVtOSF1DKD1PKWMxW2NIXVtjSF1jKG5uMSlbTkhdW0NASF0oW0NIMl1bQ0BASF0yMylbQ0BASF0oTzMpW0NIMl1bQ0gyXTI=

> <s_epik_cmdline>
J2VwaWtfcHl0aG9uJywgJy1waCcsICc3LjAnLCAnLXRuJywgJzgnLCAnLW1hJywgJzIwMCcsICctbWV0YWxfYmluZGluZycsICctaW1hZScsICc8aW5maWxlLm1hZT4nLCAnLW9tYWUnLCAnPG91dGZpbGUubWFlPic=

> <r_lp_tautomer_probability>
1

> <r_epik_Ionization_Penalty>
0.00432031

> <r_epik_Ionization_Penalty_Charging>
0

> <r_epik_Ionization_Penalty_Neutral>
0.00432031

> <r_epik_State_Penalty>
-0

> <r_epik_Charging_Adjusted_Penalty>
0

> <i_epik_Tot_Q>
0

> <i_epik_Tot_abs_Q>
0

> <r_epik_Metal_State_Penalty>
-0

> <b_epik_Metal_Only>
0

> <s_lp_Force_Field>
OPLS_2005

> <r_lp_Energy>
51.9869

> <b_lp_Chiralities_Consistent>
1

> <s_lp_Variant>
AV-unprocessed.smi:2893-3

> <Gold.Version>
5.8.1

> <Gold.Id.Protein>
6NUR|6NUR_protein|mol2

> <Gold.PLP.Fitness>
34.7319

> <Gold.PLP.PLP>
-30.4039

> <Gold.PLP.part.hbond>
-1.8782

> <Gold.PLP.part.metal>
0.0000

> <Gold.PLP.part.buried>
-5.6273

> <Gold.PLP.part.nonpolar>
-22.6064

> <Gold.PLP.part.repulsive>
0.2710

> <Gold.PLP.ligand.clash>
0.0000

> <Gold.PLP.ligand.torsion>
0.5786

> <Gold.PLP.Chemscore.Hbond>
1.8160

> <Gold.PLP.Chemscore.CHOScore>
0.0000

> <Gold.PLP.Chemscore.Metal>
0.0000

> <Gold.Chemscore.Hbonds>
donor molecule, donor type, donor heavy atom, donor atom, acceptor molecule, acceptor atom, score
      L1  H    10    28       P1 10747  1.00
      P1  H 10752 10765       L1     5  0.07

> <Gold.PLP.Chemscore.Internal.Correction>
0.0372

> <Gold.Rescore>
     Score         DG    S(hbond)    S(metal)    S(lipo)     H(rot)  DE(clash)    DE(int)     intcor
     16.27     -16.60       1.95        0.00      65.72       1.21       0.00       0.34       ----

> <Gold.Chemscore.Fitness>
16.2659

> <Gold.Chemscore.DG>
-16.6032

> <Gold.Chemscore.ZeroCoef>
-5.4800

> <Gold.Chemscore.Hbond>
1.9525

> <Gold.Chemscore.Metal>
0.0000

> <Gold.Chemscore.Lipo>
65.7215

> <Gold.Chemscore.Internal_Hbond>
0.0000

> <Gold.Chemscore.DEClash>
0.0024

> <Gold.Chemscore.DEInternal>
0.3350

> <Gold.Chemscore.Rot>
1.2061

> <Gold.Chemscore.Internal.Correction>
   9.000000E+99

> <Gold.Chemscore.Hbonds>
donor molecule, donor type, donor heavy atom, donor atom, acceptor molecule, acceptor atom, score
      L1  H    10    28       P1 10747  0.96
      P1  H 10752 10765       L1     5  0.07

> <Gold.Chemscore.Hbond.Weighted>
-6.5214

> <Gold.Chemscore.Metal.Weighted>
-0.0000

> <Gold.Chemscore.Lipo.Weighted>
-7.6894

> <Gold.Chemscore.Internal_Hbond.Weighted>
0.0000

> <Gold.Chemscore.DEClash.Weighted>
0.0024

> <Gold.Chemscore.DEInternal.Weighted>
0.3350

> <Gold.Chemscore.Rot.Weighted>
3.0876

> <Gold.Chemscore.Internal.Correction.Weighted>
   9.000000E+99

> <Gold.Protein.RotatedTorsions>
[ 6907 6896 6895 6894 ] final  -51.29 input  -60.11 | X-H torsion
[ 7974 7965 7964 7962 ] final -147.41 input  175.53 | X-H torsion
[ 8008 7997 7996 7995 ] final  169.59 input   59.86 | X-H torsion
[ 10167 10162 10161 10158 ] final -177.40 input  -65.29 | X-H torsion
[ 10718 10713 10712 10709 ] final   43.43 input   66.30 | X-H torsion
[ 10763 10752 10751 10750 ] final -106.88 input  -60.55 | X-H torsion
[ 11005 11000 10999 10996 ] final   -6.19 input  -57.11 | X-H torsion

> <Gold.Protein.ActiveResidues>
 VAL166  LYS551  ARG553  GLY616  TRP617  ASP618  TYR619  PRO620  LYS621  CYS622 
 ASP623  PHE694  ASN695  SER759  ASP760  ASP761  ALA762  ILE779  LEU786  VAL792 
 PHE793  MET794  SER795  GLU796  ALA797  LYS798  CYS799  TRP800  GLU811  SER814 

> <Gold.Protein.RotatedAtoms>
  150.8625  134.7981  159.7093 H   0  0  0  0  0  0  0  0  0  0  0  0  # atno 6907 bound_to 6896
  152.4657  134.5076  159.9754 H   0  0  0  0  0  0  0  0  0  0  0  0  # atno 6908 bound_to 6896
  151.5178  133.3434  159.2931 H   0  0  0  0  0  0  0  0  0  0  0  0  # atno 6909 bound_to 6896
  144.8095  140.5331  143.5652 H   0  0  0  0  0  0  0  0  0  0  0  0  # atno 7974 bound_to 7965
  156.1443  140.1560  156.8871 H   0  0  0  0  0  0  0  0  0  0  0  0  # atno 8008 bound_to 7997
  154.5014  140.0824  156.7844 H   0  0  0  0  0  0  0  0  0  0  0  0  # atno 8009 bound_to 7997
  155.4019  140.3415  155.4260 H   0  0  0  0  0  0  0  0  0  0  0  0  # atno 8010 bound_to 7997
  139.5482  144.2180  152.1027 H   0  0  0  0  0  0  0  0  0  0  0  0  # atno 10167 bound_to 10162
  157.4158  130.7941  149.7471 H   0  0  0  0  0  0  0  0  0  0  0  0  # atno 10718 bound_to 10713
  154.8040  135.4696  154.0346 H   0  0  0  0  0  0  0  0  0  0  0  0  # atno 10763 bound_to 10752
  153.1829  135.6843  153.8461 H   0  0  0  0  0  0  0  0  0  0  0  0  # atno 10764 bound_to 10752
  153.8005  135.3230  155.3367 H   0  0  0  0  0  0  0  0  0  0  0  0  # atno 10765 bound_to 10752
  140.6993  133.9003  155.8672 H   0  0  0  0  0  0  0  0  0  0  0  0  # atno 11005 bound_to 11000
  145.5357  139.1475  143.3475 LP  0  0  0  0  0  0  0  0  0  0  0  0  # atno 17320 bound_to 7965
  146.2392  140.5497  142.8941 LP  0  0  0  0  0  0  0  0  0  0  0  0  # atno 17321 bound_to 7965
  140.1670  144.4972  150.6600 LP  0  0  0  0  0  0  0  0  0  0  0  0  # atno 17342 bound_to 10162
  140.6737  143.2296  151.5562 LP  0  0  0  0  0  0  0  0  0  0  0  0  # atno 17343 bound_to 10162
  155.9865  130.3974  150.3211 LP  0  0  0  0  0  0  0  0  0  0  0  0  # atno 17370 bound_to 10713
  157.1353  131.0282  151.2951 LP  0  0  0  0  0  0  0  0  0  0  0  0  # atno 17371 bound_to 10713
  141.0177  134.0933  157.4154 LP  0  0  0  0  0  0  0  0  0  0  0  0  # atno 17394 bound_to 11000
  139.8901  135.0110  156.6718 LP  0  0  0  0  0  0  0  0  0  0  0  0  # atno 17395 bound_to 11000

$$$$
