AV-unprocessed.smi:2568|AV-procd|sdf|10088|dock9
  -GOLD-   2272014113D 1   1.00000     0.00000
 Structure written by MMmdl.
 25 26  0  0  0  0  0  0  0  0  2 V2000
  153.1241  138.5702  154.5818 C   0  0  0  0  0  0  0  0  0  0  0  0
  151.6468  138.6884  154.4170 C   0  0  0  0  0  0  0  0  0  0  0  0
  150.8699  137.6253  154.2016 N   0  0  0  0  0  0  0  0  0  0  0  0
  149.5861  138.0263  154.0875 N   0  0  0  0  0  0  0  0  0  0  0  0
  149.6883  139.3428  154.2666 C   0  0  0  0  0  0  0  0  0  0  0  0
  148.4802  140.2223  154.1756 C   0  0  2  0  0  0  0  0  0  0  0  0
  148.8204  141.7051  154.4165 C   0  0  0  0  0  0  0  0  0  0  0  0
  147.5837  142.5102  154.4096 N   0  3  0  0  0  0  0  0  0  0  0  0
  146.5992  141.9967  155.3830 C   0  0  0  0  0  0  0  0  0  0  0  0
  146.3347  140.5008  155.1338 C   0  0  0  0  0  0  0  0  0  0  0  0
  147.5621  139.7797  155.1732 O   0  0  0  0  0  0  0  0  0  0  0  0
  150.9559  139.8225  154.4588 N   0  0  0  0  0  0  0  0  0  0  0  0
  151.1568  136.6599  154.1217 H   0  0  0  0  0  0  0  0  0  0  0  0
  153.5673  139.5491  154.7679 H   0  0  0  0  0  0  0  0  0  0  0  0
  153.5692  138.1518  153.6789 H   0  0  0  0  0  0  0  0  0  0  0  0
  153.3563  137.9171  155.4235 H   0  0  0  0  0  0  0  0  0  0  0  0
  148.0279  140.0943  153.1898 H   0  0  0  0  0  0  0  0  0  0  0  0
  149.3222  141.8310  155.3771 H   0  0  0  0  0  0  0  0  0  0  0  0
  149.4983  142.0763  153.6472 H   0  0  0  0  0  0  0  0  0  0  0  0
  147.8061  143.4706  154.6303 H   0  0  0  0  0  0  0  0  0  0  0  0
  146.9821  142.1483  156.3931 H   0  0  0  0  0  0  0  0  0  0  0  0
  145.6754  142.5692  155.2996 H   0  0  0  0  0  0  0  0  0  0  0  0
  145.6671  140.1050  155.8991 H   0  0  0  0  0  0  0  0  0  0  0  0
  145.8421  140.3471  154.1724 H   0  0  0  0  0  0  0  0  0  0  0  0
  147.1771  142.4702  153.4856 H   0  0  0  0  0  0  0  0  0  0  0  0
  1 14  1  0  0  0  0
  1 15  1  0  0  0  0
  1 16  1  0  0  0  0
  1  2  1  0  0  0  0
  2 12  2  0  0  0  0
  2  3  1  0  0  0  0
  3  4  1  0  0  0  0
  3 13  1  0  0  0  0
  4  5  2  0  0  0  0
  5 12  1  0  0  0  0
  5  6  1  0  0  0  0
  6 11  1  0  0  0  0
  6  7  1  0  0  0  0
  6 17  1  0  0  0  0
  7  8  1  0  0  0  0
  7 18  1  0  0  0  0
  7 19  1  0  0  0  0
  8  9  1  0  0  0  0
  8 20  1  0  0  0  0
  8 25  1  0  0  0  0
  9 10  1  0  0  0  0
  9 21  1  0  0  0  0
  9 22  1  0  0  0  0
 10 11  1  0  0  0  0
 10 23  1  0  0  0  0
 10 24  1  0  0  0  0
M  CHG  1   8   1
M  END
> <s_m_source_file>
AV-unprocessed.smi

> <i_m_source_file_index>
2568

> <i_lp_mmshare_version>
43012

> <i_f3d_flags>
0

> <s_epik_input>
W0NIM11jMW5bbkhdYyhuMSlbQ0BASF0yW0NIMl1bTkhdW0NIMl1bQ0gyXU8y

> <s_epik_cmdline>
J2VwaWtfcHl0aG9uJywgJy1waCcsICc3LjAnLCAnLXRuJywgJzgnLCAnLW1hJywgJzIwMCcsICctbWV0YWxfYmluZGluZycsICctaW1hZScsICc8aW5maWxlLm1hZT4nLCAnLW9tYWUnLCAnPG91dGZpbGUubWFlPic=

> <r_lp_tautomer_probability>
0.948284

> <r_epik_Ionization_Penalty>
0.107151

> <r_epik_Ionization_Penalty_Charging>
0.100865

> <r_epik_Ionization_Penalty_Neutral>
0.00628602

> <r_epik_State_Penalty>
0.200426

> <r_epik_Charging_Adjusted_Penalty>
0.30129

> <i_epik_Tot_Q>
1

> <i_epik_Tot_abs_Q>
1

> <r_epik_Metal_State_Penalty>
0.501686

> <b_epik_Metal_Only>
0

> <s_lp_Force_Field>
OPLS_2005

> <r_lp_Energy>
11.0041

> <b_lp_Chiralities_Consistent>
1

> <s_lp_Variant>
AV-unprocessed.smi:2568-1

> <Gold.Version>
5.8.1

> <Gold.Id.Protein>
6NUR|6NUR_protein|mol2

> <Gold.PLP.Fitness>
28.7500

> <Gold.PLP.PLP>
-19.7646

> <Gold.PLP.part.hbond>
-2.4208

> <Gold.PLP.part.metal>
0.0000

> <Gold.PLP.part.buried>
-2.3908

> <Gold.PLP.part.nonpolar>
-16.2408

> <Gold.PLP.part.repulsive>
1.9954

> <Gold.PLP.ligand.clash>
0.0000

> <Gold.PLP.ligand.torsion>
0.0145

> <Gold.PLP.Chemscore.Hbond>
3.0000

> <Gold.PLP.Chemscore.CHOScore>
0.0000

> <Gold.PLP.Chemscore.Metal>
0.0000

> <Gold.Chemscore.Hbonds>
donor molecule, donor type, donor heavy atom, donor atom, acceptor molecule, acceptor atom, score
      L1  H     8    20       P1  8028  1.98
      P1  H  7989  7998       L1    12  1.00

> <Gold.PLP.Chemscore.Internal.Correction>
0.0143

> <Gold.Rescore>
     Score         DG    S(hbond)    S(metal)    S(lipo)     H(rot)  DE(clash)    DE(int)     intcor
     12.43     -12.51       1.84        0.00      29.53       1.00       0.05       0.03       ----

> <Gold.Chemscore.Fitness>
12.4331

> <Gold.Chemscore.DG>
-12.5129

> <Gold.Chemscore.ZeroCoef>
-5.4800

> <Gold.Chemscore.Hbond>
1.8378

> <Gold.Chemscore.Metal>
0.0000

> <Gold.Chemscore.Lipo>
29.5277

> <Gold.Chemscore.Internal_Hbond>
0.0000

> <Gold.Chemscore.DEClash>
0.0509

> <Gold.Chemscore.DEInternal>
0.0290

> <Gold.Chemscore.Rot>
1.0000

> <Gold.Chemscore.Internal.Correction>
   9.000000E+99

> <Gold.Chemscore.Hbonds>
donor molecule, donor type, donor heavy atom, donor atom, acceptor molecule, acceptor atom, score
      L1  H     8    20       P1  8028  0.52
      P1  H  7989  7998       L1    12  0.67

> <Gold.Chemscore.Hbond.Weighted>
-6.1382

> <Gold.Chemscore.Metal.Weighted>
-0.0000

> <Gold.Chemscore.Lipo.Weighted>
-3.4547

> <Gold.Chemscore.Internal_Hbond.Weighted>
0.0000

> <Gold.Chemscore.DEClash.Weighted>
0.0509

> <Gold.Chemscore.DEInternal.Weighted>
0.0290

> <Gold.Chemscore.Rot.Weighted>
2.5600

> <Gold.Chemscore.Internal.Correction.Weighted>
   9.000000E+99

> <Gold.Protein.RotatedTorsions>
[ 6907 6896 6895 6894 ] final  -93.67 input  -60.11 | X-H torsion
[ 7974 7965 7964 7962 ] final  122.67 input  175.53 | X-H torsion
[ 8008 7997 7996 7995 ] final  -38.72 input   59.86 | X-H torsion
[ 10167 10162 10161 10158 ] final -126.71 input  -65.29 | X-H torsion
[ 10718 10713 10712 10709 ] final  -84.88 input   66.30 | X-H torsion
[ 10763 10752 10751 10750 ] final   39.85 input  -60.55 | X-H torsion
[ 11005 11000 10999 10996 ] final  141.36 input  -57.11 | X-H torsion

> <Gold.Protein.ActiveResidues>
 VAL166  LYS551  ARG553  GLY616  TRP617  ASP618  TYR619  PRO620  LYS621  CYS622 
 ASP623  PHE694  ASN695  SER759  ASP760  ASP761  ALA762  ILE779  LEU786  VAL792 
 PHE793  MET794  SER795  GLU796  ALA797  LYS798  CYS799  TRP800  GLU811  SER814 

> <Gold.Protein.RotatedAtoms>
  150.6927  134.1931  159.4292 H   0  0  0  0  0  0  0  0  0  0  0  0  # atno 6907 bound_to 6896
  151.9901  134.9981  160.0570 H   0  0  0  0  0  0  0  0  0  0  0  0  # atno 6908 bound_to 6896
  152.1675  133.4587  159.4929 H   0  0  0  0  0  0  0  0  0  0  0  0  # atno 6909 bound_to 6896
  145.1049  139.3493  143.4793 H   0  0  0  0  0  0  0  0  0  0  0  0  # atno 7974 bound_to 7965
  154.4033  140.1570  156.2746 H   0  0  0  0  0  0  0  0  0  0  0  0  # atno 8008 bound_to 7997
  155.8923  140.3438  155.5943 H   0  0  0  0  0  0  0  0  0  0  0  0  # atno 8009 bound_to 7997
  155.7544  140.0809  157.2176 H   0  0  0  0  0  0  0  0  0  0  0  0  # atno 8010 bound_to 7997
  139.9685  143.5871  152.2421 H   0  0  0  0  0  0  0  0  0  0  0  0  # atno 10167 bound_to 10162
  156.0002  130.4712  150.4477 H   0  0  0  0  0  0  0  0  0  0  0  0  # atno 10718 bound_to 10713
  152.9954  135.6208  154.2532 H   0  0  0  0  0  0  0  0  0  0  0  0  # atno 10763 bound_to 10752
  154.2270  135.2793  155.2906 H   0  0  0  0  0  0  0  0  0  0  0  0  # atno 10764 bound_to 10752
  154.5481  135.5741  153.6956 H   0  0  0  0  0  0  0  0  0  0  0  0  # atno 10765 bound_to 10752
  140.0395  134.9312  157.0817 H   0  0  0  0  0  0  0  0  0  0  0  0  # atno 11005 bound_to 11000
  146.3528  140.0942  142.8611 LP  0  0  0  0  0  0  0  0  0  0  0  0  # atno 17320 bound_to 7965
  145.0913  140.9286  143.4767 LP  0  0  0  0  0  0  0  0  0  0  0  0  # atno 17321 bound_to 7965
  139.6499  144.7660  151.2169 LP  0  0  0  0  0  0  0  0  0  0  0  0  # atno 17342 bound_to 10162
  140.7530  143.6178  150.8543 LP  0  0  0  0  0  0  0  0  0  0  0  0  # atno 17343 bound_to 10162
  157.2512  131.0547  151.2378 LP  0  0  0  0  0  0  0  0  0  0  0  0  # atno 17370 bound_to 10713
  157.3526  130.7090  149.6450 LP  0  0  0  0  0  0  0  0  0  0  0  0  # atno 17371 bound_to 10713
  140.4092  134.2000  155.7163 LP  0  0  0  0  0  0  0  0  0  0  0  0  # atno 17394 bound_to 11000
  141.1875  133.8279  157.1027 LP  0  0  0  0  0  0  0  0  0  0  0  0  # atno 17395 bound_to 11000

$$$$
