AV-unprocessed.smi:37|AV-procd|sdf|319|dock2
  -GOLD-   2262016143D 1   1.00000     0.00000
 Structure written by MMmdl.
 43 44  0  0  0  0  0  0  0  0  2 V2000
  154.4570  139.6592  160.5199 C   0  0  0  0  0  0  0  0  0  0  0  0
  154.2080  138.2646  161.1101 C   0  0  0  0  0  0  0  0  0  0  0  0
  153.8648  137.2357  160.0352 C   0  0  0  0  0  0  0  0  0  0  0  0
  153.6023  136.0683  160.3252 O   0  0  0  0  0  0  0  0  0  0  0  0
  153.8956  137.7512  158.7962 O   0  0  0  0  0  0  0  0  0  0  0  0
  153.5851  136.9263  157.6858 C   0  0  0  0  0  0  0  0  0  0  0  0
  152.0766  136.9765  157.4225 C   0  0  2  0  0  0  0  0  0  0  0  0
  151.5878  135.6714  157.1073 O   0  0  0  0  0  0  0  0  0  0  0  0
  150.8891  135.7008  155.8992 C   0  0  1  0  0  0  0  0  0  0  0  0
  149.7108  134.7563  155.9545 N   0  0  0  0  0  0  0  0  0  0  0  0
  149.3497  133.9883  154.8595 C   0  0  0  0  0  0  0  0  0  0  0  0
  148.2979  133.1458  154.9149 C   0  0  0  0  0  0  0  0  0  0  0  0
  147.9734  132.4090  153.8384 F   0  0  0  0  0  0  0  0  0  0  0  0
  147.5201  133.0390  156.1481 C   0  0  0  0  0  0  0  0  0  0  0  0
  146.5601  132.2713  156.1916 O   0  0  0  0  0  0  0  0  0  0  0  0
  147.9000  133.8070  157.2103 N   0  5  0  0  0  0  0  0  0  0  0  0
  148.9651  134.6594  157.1598 C   0  0  0  0  0  0  0  0  0  0  0  0
  149.3187  135.3546  158.1126 O   0  0  0  0  0  0  0  0  0  0  0  0
  150.4767  137.1569  155.6752 C   0  0  1  0  0  0  0  0  0  0  0  0
  148.8647  137.6508  156.7538 Br  0  0  0  0  0  0  0  0  0  0  0  0
  151.7107  137.8540  156.2199 C   0  0  1  0  0  0  0  0  0  0  0  0
  151.4633  139.2003  156.6044 O   0  0  0  0  0  0  0  0  0  0  0  0
  151.0678  140.1046  155.6905 C   0  0  0  0  0  0  0  0  0  0  0  0
  150.7649  139.8652  154.5216 O   0  0  0  0  0  0  0  0  0  0  0  0
  151.0065  141.5224  156.2540 C   0  0  0  0  0  0  0  0  0  0  0  0
  150.0440  141.6333  157.4443 C   0  0  0  0  0  0  0  0  0  0  0  0
  154.6686  140.3781  161.3115 H   0  0  0  0  0  0  0  0  0  0  0  0
  153.5857  140.0191  159.9713 H   0  0  0  0  0  0  0  0  0  0  0  0
  155.3084  139.6600  159.8382 H   0  0  0  0  0  0  0  0  0  0  0  0
  155.0907  137.9257  161.6531 H   0  0  0  0  0  0  0  0  0  0  0  0
  153.3905  138.3083  161.8303 H   0  0  0  0  0  0  0  0  0  0  0  0
  154.1257  137.2957  156.8131 H   0  0  0  0  0  0  0  0  0  0  0  0
  153.9067  135.8989  157.8624 H   0  0  0  0  0  0  0  0  0  0  0  0
  151.5445  137.3286  158.3079 H   0  0  0  0  0  0  0  0  0  0  0  0
  151.5487  135.3177  155.1180 H   0  0  0  0  0  0  0  0  0  0  0  0
  149.9159  134.0474  153.9420 H   0  0  0  0  0  0  0  0  0  0  0  0
  150.2766  137.3651  154.6237 H   0  0  0  0  0  0  0  0  0  0  0  0
  152.5147  137.7936  155.4840 H   0  0  0  0  0  0  0  0  0  0  0  0
  152.0088  141.8239  156.5595 H   0  0  0  0  0  0  0  0  0  0  0  0
  150.6997  142.2034  155.4599 H   0  0  0  0  0  0  0  0  0  0  0  0
  150.0501  142.6452  157.8491 H   0  0  0  0  0  0  0  0  0  0  0  0
  150.3276  140.9539  158.2488 H   0  0  0  0  0  0  0  0  0  0  0  0
  149.0188  141.4020  157.1531 H   0  0  0  0  0  0  0  0  0  0  0  0
  1  2  1  0  0  0  0
  1 27  1  0  0  0  0
  1 28  1  0  0  0  0
  1 29  1  0  0  0  0
  2  3  1  0  0  0  0
  2 30  1  0  0  0  0
  2 31  1  0  0  0  0
  3  4  2  0  0  0  0
  3  5  1  0  0  0  0
  5  6  1  0  0  0  0
  6  7  1  0  0  0  0
  6 32  1  0  0  0  0
  6 33  1  0  0  0  0
  7 21  1  0  0  0  0
  7  8  1  0  0  0  0
  7 34  1  0  0  0  0
  8  9  1  0  0  0  0
  9 10  1  0  0  0  0
  9 19  1  0  0  0  0
  9 35  1  0  0  0  0
 10 17  1  0  0  0  0
 10 11  1  0  0  0  0
 11 12  2  0  0  0  0
 11 36  1  0  0  0  0
 12 13  1  0  0  0  0
 12 14  1  0  0  0  0
 14 15  2  0  0  0  0
 14 16  1  0  0  0  0
 16 17  1  0  0  0  0
 17 18  2  0  0  0  0
 19 20  1  0  0  0  0
 19 21  1  0  0  0  0
 19 37  1  0  0  0  0
 21 22  1  0  0  0  0
 21 38  1  0  0  0  0
 22 23  1  0  0  0  0
 23 24  2  0  0  0  0
 23 25  1  0  0  0  0
 25 26  1  0  0  0  0
 25 39  1  0  0  0  0
 25 40  1  0  0  0  0
 26 41  1  0  0  0  0
 26 42  1  0  0  0  0
 26 43  1  0  0  0  0
M  CHG  1  16  -1
M  END
> <s_m_source_file>
AV-unprocessed.smi

> <i_m_source_file_index>
37

> <i_lp_mmshare_version>
43012

> <i_f3d_flags>
0

> <s_epik_input>
W0NIM11bQ0gyXUMoPU8pT1tDSDJdW0NAQEhdMU9bQ0BASF0objJbY0hdYyhGKWMoPU8pW25IXWMyPU8pW0NAQEhdKEJyKVtDQEhdMU9DKD1PKVtDSDJdW0NIM10=

> <s_epik_cmdline>
J2VwaWtfcHl0aG9uJywgJy1waCcsICc3LjAnLCAnLXRuJywgJzgnLCAnLW1hJywgJzIwMCcsICctbWV0YWxfYmluZGluZycsICctaW1hZScsICc8aW5maWxlLm1hZT4nLCAnLW9tYWUnLCAnPG91dGZpbGUubWFlPic=

> <r_epik_Ionization_Penalty>
1.08158

> <r_epik_Ionization_Penalty_Charging>
9.05154e-09

> <r_epik_Ionization_Penalty_Neutral>
1.08158

> <r_epik_State_Penalty>
1.13706

> <r_epik_Charging_Adjusted_Penalty>
1.13706

> <i_epik_Tot_Q>
-1

> <i_epik_Tot_abs_Q>
1

> <r_epik_Metal_State_Penalty>
0.00343535

> <b_epik_Metal_Only>
0

> <s_epik_Chemistry_Notes>
This compound has an ester and may undergo hydrolysis at high or low pH. This compound contains an acetal/aminal-like group ( X-CH(R)-Y where X, Y are N, S, or O) that may be acid/base labile, releasing an aldehyde.

> <s_lp_Force_Field>
OPLS_2005

> <r_lp_Energy>
34.8687

> <b_lp_Chiralities_Consistent>
1

> <s_lp_Variant>
AV-unprocessed.smi:37-17

> <Gold.Version>
5.8.1

> <Gold.Id.Protein>
6NUR|6NUR_protein|mol2

> <Gold.PLP.Fitness>
37.1943

> <Gold.PLP.PLP>
-30.6866

> <Gold.PLP.part.hbond>
-3.1409

> <Gold.PLP.part.metal>
0.0000

> <Gold.PLP.part.buried>
-4.0305

> <Gold.PLP.part.nonpolar>
-22.8836

> <Gold.PLP.part.repulsive>
0.1339

> <Gold.PLP.ligand.clash>
0.0000

> <Gold.PLP.ligand.torsion>
1.4165

> <Gold.PLP.Chemscore.Hbond>
3.0000

> <Gold.PLP.Chemscore.CHOScore>
0.0000

> <Gold.PLP.Chemscore.Metal>
0.0000

> <Gold.Chemscore.Hbonds>
donor molecule, donor type, donor heavy atom, donor atom, acceptor molecule, acceptor atom, score
      P1  H  6896  6907       L1     4  1.00
      P1  H  6896  6909       L1    18  0.80
      P1  H  7989  7998       L1    24  1.00

> <Gold.PLP.Chemscore.Internal.Correction>
0.3407

> <Gold.Rescore>
     Score         DG    S(hbond)    S(metal)    S(lipo)     H(rot)  DE(clash)    DE(int)     intcor
      8.52     -13.39       2.97        0.00      54.25       3.27       0.00       4.87       ----

> <Gold.Chemscore.Fitness>
8.5181

> <Gold.Chemscore.DG>
-13.3855

> <Gold.Chemscore.ZeroCoef>
-5.4800

> <Gold.Chemscore.Hbond>
2.9705

> <Gold.Chemscore.Metal>
0.0000

> <Gold.Chemscore.Lipo>
54.2500

> <Gold.Chemscore.Internal_Hbond>
0.0000

> <Gold.Chemscore.DEClash>
0.0000

> <Gold.Chemscore.DEInternal>
4.8675

> <Gold.Chemscore.Rot>
3.2669

> <Gold.Chemscore.Internal.Correction>
   9.000000E+99

> <Gold.Chemscore.Hbonds>
donor molecule, donor type, donor heavy atom, donor atom, acceptor molecule, acceptor atom, score
      P1  H  6896  6907       L1     4  1.00
      P1  H  6896  6909       L1    18  0.75
      P1  H  7989  7998       L1    24  0.74

> <Gold.Chemscore.Hbond.Weighted>
-9.9216

> <Gold.Chemscore.Metal.Weighted>
-0.0000

> <Gold.Chemscore.Lipo.Weighted>
-6.3472

> <Gold.Chemscore.Internal_Hbond.Weighted>
0.0000

> <Gold.Chemscore.DEClash.Weighted>
0.0000

> <Gold.Chemscore.DEInternal.Weighted>
4.8675

> <Gold.Chemscore.Rot.Weighted>
8.3634

> <Gold.Chemscore.Internal.Correction.Weighted>
   9.000000E+99

> <Gold.Protein.RotatedTorsions>
[ 6907 6896 6895 6894 ] final   45.21 input  -60.11 | X-H torsion
[ 7974 7965 7964 7962 ] final  153.29 input  175.53 | X-H torsion
[ 8008 7997 7996 7995 ] final  -55.30 input   59.86 | X-H torsion
[ 10167 10162 10161 10158 ] final   27.16 input  -65.29 | X-H torsion
[ 10718 10713 10712 10709 ] final  -94.16 input   66.30 | X-H torsion
[ 10763 10752 10751 10750 ] final    4.02 input  -60.55 | X-H torsion
[ 11005 11000 10999 10996 ] final -113.83 input  -57.11 | X-H torsion

> <Gold.Protein.ActiveResidues>
 VAL166  LYS551  ARG553  GLY616  TRP617  ASP618  TYR619  PRO620  LYS621  CYS622 
 ASP623  PHE694  ASN695  SER759  ASP760  ASP761  ALA762  ILE779  LEU786  VAL792 
 PHE793  MET794  SER795  GLU796  ALA797  LYS798  CYS799  TRP800  GLU811  SER814 

> <Gold.Protein.RotatedAtoms>
  152.2418  134.8221  160.0458 H   0  0  0  0  0  0  0  0  0  0  0  0  # atno 6907 bound_to 6896
  151.8932  133.3516  159.3813 H   0  0  0  0  0  0  0  0  0  0  0  0  # atno 6908 bound_to 6896
  150.7056  134.4828  159.5523 H   0  0  0  0  0  0  0  0  0  0  0  0  # atno 6909 bound_to 6896
  144.8164  139.6781  143.6119 H   0  0  0  0  0  0  0  0  0  0  0  0  # atno 7974 bound_to 7965
  154.4190  140.1156  156.5454 H   0  0  0  0  0  0  0  0  0  0  0  0  # atno 8008 bound_to 7997
  155.6465  140.3496  155.4714 H   0  0  0  0  0  0  0  0  0  0  0  0  # atno 8009 bound_to 7997
  155.9828  140.1163  157.0701 H   0  0  0  0  0  0  0  0  0  0  0  0  # atno 8010 bound_to 7997
  140.4962  144.0388  150.6315 H   0  0  0  0  0  0  0  0  0  0  0  0  # atno 10167 bound_to 10162
  156.0023  130.5056  150.5885 H   0  0  0  0  0  0  0  0  0  0  0  0  # atno 10718 bound_to 10713
  153.2763  135.6936  153.7430 H   0  0  0  0  0  0  0  0  0  0  0  0  # atno 10763 bound_to 10752
  153.6434  135.3389  155.3079 H   0  0  0  0  0  0  0  0  0  0  0  0  # atno 10764 bound_to 10752
  154.8481  135.4437  154.1802 H   0  0  0  0  0  0  0  0  0  0  0  0  # atno 10765 bound_to 10752
  141.0590  133.9566  157.2702 H   0  0  0  0  0  0  0  0  0  0  0  0  # atno 11005 bound_to 11000
  146.2468  139.6114  142.9454 LP  0  0  0  0  0  0  0  0  0  0  0  0  # atno 17320 bound_to 7965
  145.5204  141.0432  143.2438 LP  0  0  0  0  0  0  0  0  0  0  0  0  # atno 17321 bound_to 7965
  140.3671  143.2875  152.0319 LP  0  0  0  0  0  0  0  0  0  0  0  0  # atno 17342 bound_to 10162
  139.4862  144.6258  151.7166 LP  0  0  0  0  0  0  0  0  0  0  0  0  # atno 17343 bound_to 10162
  157.3754  131.0772  151.1523 LP  0  0  0  0  0  0  0  0  0  0  0  0  # atno 17370 bound_to 10713
  157.2262  130.6504  149.5831 LP  0  0  0  0  0  0  0  0  0  0  0  0  # atno 17371 bound_to 10713
  139.9415  135.0190  156.8723 LP  0  0  0  0  0  0  0  0  0  0  0  0  # atno 17394 bound_to 11000
  140.5907  134.0264  155.7498 LP  0  0  0  0  0  0  0  0  0  0  0  0  # atno 17395 bound_to 11000

$$$$
