AV-unprocessed.smi:2263|AV-procd|sdf|9140|dock7
  -GOLD-   2272012343D 1   1.00000     0.00000
 Structure written by MMmdl.
 40 41  0  0  0  0  0  0  0  0  1 V2000
  155.2908  134.0692  166.4092 C   0  0  0  0  0  0  0  0  0  0  0  0
  155.0386  134.8914  165.1499 C   0  0  0  0  0  0  0  0  0  0  0  0
  155.0627  134.3509  164.0446 O   0  0  0  0  0  0  0  0  0  0  0  0
  154.8004  136.1990  165.3312 N   0  0  0  0  0  0  0  0  0  0  0  0
  154.5476  137.1586  164.2625 C   0  0  0  0  0  0  0  0  0  0  0  0
  155.6333  138.2455  164.2120 C   0  0  0  0  0  0  0  0  0  0  0  0
  155.6863  138.9366  162.8912 C   0  0  0  0  0  0  0  0  0  0  0  0
  154.6417  139.5639  162.3443 N   0  0  0  0  0  0  0  0  0  0  0  0
  154.9350  140.1033  161.0879 C   0  0  0  0  0  0  0  0  0  0  0  0
  153.8820  140.8549  160.3311 C   0  0  0  0  0  0  0  0  0  0  0  0
  153.3775  142.0857  161.1013 C   0  0  0  0  0  0  0  0  0  0  0  0
  152.2945  142.8753  160.3446 C   0  0  0  0  0  0  0  0  0  0  0  0
  152.6582  143.1650  158.8850 C   0  0  0  0  0  0  0  0  0  0  0  0
  151.8033  144.3717  158.4756 C   0  0  0  0  0  0  0  0  0  0  0  0
  151.3002  145.0101  159.7787 C   0  0  0  0  0  0  0  0  0  0  0  0
  152.0093  144.2678  160.9139 C   0  0  0  0  0  0  0  0  0  0  0  0
  156.2251  139.8646  160.6846 C   0  0  0  0  0  0  0  0  0  0  0  0
  157.1167  138.9471  161.8668 S   0  0  0  0  0  0  0  0  0  0  0  0
  156.1170  134.4915  166.9820 H   0  0  0  0  0  0  0  0  0  0  0  0
  155.5441  133.0391  166.1554 H   0  0  0  0  0  0  0  0  0  0  0  0
  154.4019  134.0566  167.0405 H   0  0  0  0  0  0  0  0  0  0  0  0
  154.7987  136.5560  166.2757 H   0  0  0  0  0  0  0  0  0  0  0  0
  154.4779  136.6418  163.3037 H   0  0  0  0  0  0  0  0  0  0  0  0
  153.5733  137.6150  164.4402 H   0  0  0  0  0  0  0  0  0  0  0  0
  155.4584  138.9892  164.9905 H   0  0  0  0  0  0  0  0  0  0  0  0
  156.6138  137.8115  164.4105 H   0  0  0  0  0  0  0  0  0  0  0  0
  154.2763  141.1703  159.3644 H   0  0  0  0  0  0  0  0  0  0  0  0
  153.0457  140.1914  160.1094 H   0  0  0  0  0  0  0  0  0  0  0  0
  152.9984  141.7806  162.0778 H   0  0  0  0  0  0  0  0  0  0  0  0
  154.2224  142.7476  161.2966 H   0  0  0  0  0  0  0  0  0  0  0  0
  151.3649  142.3033  160.3516 H   0  0  0  0  0  0  0  0  0  0  0  0
  153.7136  143.4317  158.8115 H   0  0  0  0  0  0  0  0  0  0  0  0
  152.4937  142.3023  158.2386 H   0  0  0  0  0  0  0  0  0  0  0  0
  152.3890  145.0771  157.8848 H   0  0  0  0  0  0  0  0  0  0  0  0
  150.9581  144.0568  157.8621 H   0  0  0  0  0  0  0  0  0  0  0  0
  151.4897  146.0832  159.8144 H   0  0  0  0  0  0  0  0  0  0  0  0
  150.2223  144.8660  159.8626 H   0  0  0  0  0  0  0  0  0  0  0  0
  151.4100  144.2369  161.8243 H   0  0  0  0  0  0  0  0  0  0  0  0
  152.9466  144.7733  161.1509 H   0  0  0  0  0  0  0  0  0  0  0  0
  156.7026  140.1696  159.7654 H   0  0  0  0  0  0  0  0  0  0  0  0
  1  2  1  0  0  0  0
  1 19  1  0  0  0  0
  1 20  1  0  0  0  0
  1 21  1  0  0  0  0
  2  3  2  0  0  0  0
  2  4  1  0  0  0  0
  4  5  1  0  0  0  0
  4 22  1  0  0  0  0
  5  6  1  0  0  0  0
  5 23  1  0  0  0  0
  5 24  1  0  0  0  0
  6  7  1  0  0  0  0
  6 25  1  0  0  0  0
  6 26  1  0  0  0  0
  7 18  1  0  0  0  0
  7  8  2  0  0  0  0
  8  9  1  0  0  0  0
  9 10  1  0  0  0  0
  9 17  2  0  0  0  0
 10 11  1  0  0  0  0
 10 27  1  0  0  0  0
 10 28  1  0  0  0  0
 11 12  1  0  0  0  0
 11 29  1  0  0  0  0
 11 30  1  0  0  0  0
 12 16  1  0  0  0  0
 12 13  1  0  0  0  0
 12 31  1  0  0  0  0
 13 14  1  0  0  0  0
 13 32  1  0  0  0  0
 13 33  1  0  0  0  0
 14 15  1  0  0  0  0
 14 34  1  0  0  0  0
 14 35  1  0  0  0  0
 15 16  1  0  0  0  0
 15 36  1  0  0  0  0
 15 37  1  0  0  0  0
 16 38  1  0  0  0  0
 16 39  1  0  0  0  0
 17 18  1  0  0  0  0
 17 40  1  0  0  0  0
M  END
> <s_m_source_file>
AV-unprocessed.smi

> <i_m_source_file_index>
2263

> <i_lp_mmshare_version>
43012

> <i_f3d_flags>
0

> <s_epik_input>
W0NIM11DKD1PKVtOSF1bQ0gyXVtDSDJdYzFuYyhbY0hdczEpW0NIMl1bQ0gyXVtDSF0yW0NIMl1bQ0gyXVtDSDJdW0NIMl0y

> <s_epik_cmdline>
J2VwaWtfcHl0aG9uJywgJy1waCcsICc3LjAnLCAnLXRuJywgJzgnLCAnLW1hJywgJzIwMCcsICctbWV0YWxfYmluZGluZycsICctaW1hZScsICc8aW5maWxlLm1hZT4nLCAnLW9tYWUnLCAnPG91dGZpbGUubWFlPic=

> <r_epik_Ionization_Penalty>
0.00116713

> <r_epik_Ionization_Penalty_Charging>
0

> <r_epik_Ionization_Penalty_Neutral>
0.00116713

> <r_epik_State_Penalty>
0.000768465

> <r_epik_Charging_Adjusted_Penalty>
0.000768465

> <i_epik_Tot_Q>
0

> <i_epik_Tot_abs_Q>
0

> <r_epik_Metal_State_Penalty>
-0

> <b_epik_Metal_Only>
0

> <s_lp_Force_Field>
OPLS_2005

> <r_lp_Energy>
10.4461

> <b_lp_Chiralities_Consistent>
1

> <s_lp_Variant>
AV-unprocessed.smi:2263-1

> <Gold.Version>
5.8.1

> <Gold.Id.Protein>
6NUR|6NUR_protein|mol2

> <Gold.PLP.Fitness>
47.3159

> <Gold.PLP.PLP>
-47.6158

> <Gold.PLP.part.hbond>
-0.7051

> <Gold.PLP.part.metal>
0.0000

> <Gold.PLP.part.buried>
-5.5181

> <Gold.PLP.part.nonpolar>
-42.1910

> <Gold.PLP.part.repulsive>
0.0882

> <Gold.PLP.ligand.clash>
0.0000

> <Gold.PLP.ligand.torsion>
0.1825

> <Gold.PLP.Chemscore.Hbond>
0.0000

> <Gold.PLP.Chemscore.CHOScore>
0.0000

> <Gold.PLP.Chemscore.Metal>
0.0000

> <Gold.PLP.Chemscore.Internal.Correction>
0.0652

> <Gold.Rescore>
     Score         DG    S(hbond)    S(metal)    S(lipo)     H(rot)  DE(clash)    DE(int)     intcor
     16.09     -16.37       0.00        0.00     132.37       1.80       0.03       0.24       ----

> <Gold.Chemscore.Fitness>
16.0949

> <Gold.Chemscore.DG>
-16.3661

> <Gold.Chemscore.ZeroCoef>
-5.4800

> <Gold.Chemscore.Hbond>
0.0000

> <Gold.Chemscore.Metal>
0.0000

> <Gold.Chemscore.Lipo>
132.3669

> <Gold.Chemscore.Internal_Hbond>
0.0000

> <Gold.Chemscore.DEClash>
0.0308

> <Gold.Chemscore.DEInternal>
0.2404

> <Gold.Chemscore.Rot>
1.7972

> <Gold.Chemscore.Internal.Correction>
   9.000000E+99

> <Gold.Chemscore.Hbond.Weighted>
-0.0000

> <Gold.Chemscore.Metal.Weighted>
-0.0000

> <Gold.Chemscore.Lipo.Weighted>
-15.4869

> <Gold.Chemscore.Internal_Hbond.Weighted>
0.0000

> <Gold.Chemscore.DEClash.Weighted>
0.0308

> <Gold.Chemscore.DEInternal.Weighted>
0.2404

> <Gold.Chemscore.Rot.Weighted>
4.6008

> <Gold.Chemscore.Internal.Correction.Weighted>
   9.000000E+99

> <Gold.Protein.RotatedTorsions>
[ 6907 6896 6895 6894 ] final   74.60 input  -60.11 | X-H torsion
[ 7974 7965 7964 7962 ] final   87.74 input  175.53 | X-H torsion
[ 8008 7997 7996 7995 ] final   20.43 input   59.86 | X-H torsion
[ 10167 10162 10161 10158 ] final  -51.12 input  -65.29 | X-H torsion
[ 10718 10713 10712 10709 ] final    1.14 input   66.30 | X-H torsion
[ 10763 10752 10751 10750 ] final -154.21 input  -60.55 | X-H torsion
[ 11005 11000 10999 10996 ] final  163.92 input  -57.11 | X-H torsion

> <Gold.Protein.ActiveResidues>
 VAL166  LYS551  ARG553  GLY616  TRP617  ASP618  TYR619  PRO620  LYS621  CYS622 
 ASP623  PHE694  ASN695  SER759  ASP760  ASP761  ALA762  ILE779  LEU786  VAL792 
 PHE793  MET794  SER795  GLU796  ALA797  LYS798  CYS799  TRP800  GLU811  SER814 

> <Gold.Protein.RotatedAtoms>
  152.4984  134.4247  159.9491 H   0  0  0  0  0  0  0  0  0  0  0  0  # atno 6907 bound_to 6896
  151.4221  133.3689  159.2765 H   0  0  0  0  0  0  0  0  0  0  0  0  # atno 6908 bound_to 6896
  150.9215  134.8655  159.7551 H   0  0  0  0  0  0  0  0  0  0  0  0  # atno 6909 bound_to 6896
  145.5550  139.2299  143.2491 H   0  0  0  0  0  0  0  0  0  0  0  0  # atno 7974 bound_to 7965
  154.9355  140.3046  155.5146 H   0  0  0  0  0  0  0  0  0  0  0  0  # atno 8008 bound_to 7997
  156.3000  140.2346  156.4356 H   0  0  0  0  0  0  0  0  0  0  0  0  # atno 8009 bound_to 7997
  154.8196  140.0424  157.1389 H   0  0  0  0  0  0  0  0  0  0  0  0  # atno 8010 bound_to 7997
  140.6604  143.2631  151.4458 H   0  0  0  0  0  0  0  0  0  0  0  0  # atno 10167 bound_to 10162
  156.8438  130.5530  149.5675 H   0  0  0  0  0  0  0  0  0  0  0  0  # atno 10718 bound_to 10713
  154.7874  135.3195  154.7854 H   0  0  0  0  0  0  0  0  0  0  0  0  # atno 10763 bound_to 10752
  153.8551  135.6858  153.4792 H   0  0  0  0  0  0  0  0  0  0  0  0  # atno 10764 bound_to 10752
  153.1531  135.4691  154.9605 H   0  0  0  0  0  0  0  0  0  0  0  0  # atno 10765 bound_to 10752
  140.2407  134.8053  157.3408 H   0  0  0  0  0  0  0  0  0  0  0  0  # atno 11005 bound_to 11000
  146.1890  140.6374  142.9154 LP  0  0  0  0  0  0  0  0  0  0  0  0  # atno 17320 bound_to 7965
  144.7511  140.5192  143.6801 LP  0  0  0  0  0  0  0  0  0  0  0  0  # atno 17321 bound_to 7965
  139.5836  144.1653  152.2001 LP  0  0  0  0  0  0  0  0  0  0  0  0  # atno 17342 bound_to 10162
  140.0986  144.5559  150.7004 LP  0  0  0  0  0  0  0  0  0  0  0  0  # atno 17343 bound_to 10162
  156.0866  130.5863  150.9659 LP  0  0  0  0  0  0  0  0  0  0  0  0  # atno 17370 bound_to 10713
  157.6341  131.0918  150.8383 LP  0  0  0  0  0  0  0  0  0  0  0  0  # atno 17371 bound_to 10713
  140.1656  134.4673  155.7865 LP  0  0  0  0  0  0  0  0  0  0  0  0  # atno 17394 bound_to 11000
  141.2211  133.6920  156.7620 LP  0  0  0  0  0  0  0  0  0  0  0  0  # atno 17395 bound_to 11000

$$$$
