AV-unprocessed.smi:837|AV-procd|sdf|3904|dock4
  -GOLD-   22720 1363D 1   1.00000     0.00000
 Structure written by MMmdl.
 49 51  0  0  0  0  0  0  0  0  3 V2000
  150.6855  142.1408  157.4357 C   0  0  0  0  0  0  0  0  0  0  0  0
  151.3875  141.1775  158.4178 C   0  0  2  0  0  0  0  0  0  0  0  0
  152.6419  141.8377  159.0307 C   0  0  0  0  0  0  0  0  0  0  0  0
  153.2968  140.9433  160.0941 C   0  0  0  0  0  0  0  0  0  0  0  0
  153.6512  139.5662  159.5177 C   0  0  0  0  0  0  0  0  0  0  0  0
  152.4129  138.8854  158.9098 C   0  0  0  0  0  0  0  0  0  0  0  0
  151.7125  139.7619  157.8391 C   0  0  2  0  0  0  0  0  0  0  0  0
  152.5312  139.8435  156.6389 N   0  5  0  0  0  0  0  0  0  0  0  0
  151.8627  139.2707  155.6122 C   0  0  0  0  0  0  0  0  0  0  0  0
  152.2615  139.1497  154.4540 O   0  0  0  0  0  0  0  0  0  0  0  0
  150.6633  138.8071  156.0127 N   0  0  0  0  0  0  0  0  0  0  0  0
  149.7212  138.0761  155.1572 C   0  0  0  0  0  0  0  0  0  0  0  0
  149.9645  136.5675  155.2506 C   0  0  0  0  0  0  0  0  0  0  0  0
  151.1015  136.1127  155.1286 O   0  0  0  0  0  0  0  0  0  0  0  0
  148.8784  135.8064  155.4495 N   0  0  0  0  0  0  0  0  0  0  0  0
  148.8546  134.3473  155.4682 C   0  0  0  0  0  0  0  0  0  0  0  0
  148.9965  133.7115  154.0664 C   0  0  0  0  0  0  0  0  0  0  0  0
  147.6806  133.2953  153.4244 C   0  0  0  0  0  0  0  0  0  0  0  0
  147.5784  133.1599  152.0212 C   0  0  0  0  0  0  0  0  0  0  0  0
  146.3461  132.7825  151.4490 C   0  0  0  0  0  0  0  0  0  0  0  0
  145.2376  132.5619  152.2900 C   0  0  0  0  0  0  0  0  0  0  0  0
  145.3712  132.7003  153.6270 N   0  3  0  0  0  0  0  0  0  0  0  0
  146.5369  133.0483  154.2151 C   0  0  0  0  0  0  0  0  0  0  0  0
  150.4766  139.0438  157.3156 C   0  0  0  0  0  0  0  0  0  0  0  0
  149.5000  138.7393  158.0016 O   0  0  0  0  0  0  0  0  0  0  0  0
  151.3149  142.3662  156.5745 H   0  0  0  0  0  0  0  0  0  0  0  0
  150.4500  143.0868  157.9235 H   0  0  0  0  0  0  0  0  0  0  0  0
  149.7464  141.7312  157.0643 H   0  0  0  0  0  0  0  0  0  0  0  0
  150.6878  141.0284  159.2421 H   0  0  0  0  0  0  0  0  0  0  0  0
  153.3652  142.0621  158.2457 H   0  0  0  0  0  0  0  0  0  0  0  0
  152.3754  142.7940  159.4816 H   0  0  0  0  0  0  0  0  0  0  0  0
  154.1938  141.4250  160.4840 H   0  0  0  0  0  0  0  0  0  0  0  0
  152.6175  140.8226  160.9389 H   0  0  0  0  0  0  0  0  0  0  0  0
  154.4262  139.6746  158.7580 H   0  0  0  0  0  0  0  0  0  0  0  0
  154.0740  138.9352  160.2997 H   0  0  0  0  0  0  0  0  0  0  0  0
  152.6928  137.9162  158.4947 H   0  0  0  0  0  0  0  0  0  0  0  0
  151.7112  138.6683  159.7167 H   0  0  0  0  0  0  0  0  0  0  0  0
  148.6917  138.2869  155.4512 H   0  0  0  0  0  0  0  0  0  0  0  0
  149.8084  138.4129  154.1225 H   0  0  0  0  0  0  0  0  0  0  0  0
  147.9894  136.2768  155.5421 H   0  0  0  0  0  0  0  0  0  0  0  0
  149.6210  133.9644  156.1434 H   0  0  0  0  0  0  0  0  0  0  0  0
  147.8955  134.0567  155.8970 H   0  0  0  0  0  0  0  0  0  0  0  0
  149.5012  134.4165  153.4047 H   0  0  0  0  0  0  0  0  0  0  0  0
  149.6488  132.8397  154.1235 H   0  0  0  0  0  0  0  0  0  0  0  0
  148.4300  133.3510  151.3848 H   0  0  0  0  0  0  0  0  0  0  0  0
  146.2464  132.6842  150.3780 H   0  0  0  0  0  0  0  0  0  0  0  0
  144.2546  132.2894  151.9350 H   0  0  0  0  0  0  0  0  0  0  0  0
  146.5146  133.1322  155.2915 H   0  0  0  0  0  0  0  0  0  0  0  0
  144.5544  132.5418  154.2171 H   0  0  0  0  0  0  0  0  0  0  0  0
  1  2  1  0  0  0  0
  1 26  1  0  0  0  0
  1 27  1  0  0  0  0
  1 28  1  0  0  0  0
  2  7  1  0  0  0  0
  2  3  1  0  0  0  0
  2 29  1  0  0  0  0
  3  4  1  0  0  0  0
  3 30  1  0  0  0  0
  3 31  1  0  0  0  0
  4  5  1  0  0  0  0
  4 32  1  0  0  0  0
  4 33  1  0  0  0  0
  5  6  1  0  0  0  0
  5 34  1  0  0  0  0
  5 35  1  0  0  0  0
  6  7  1  0  0  0  0
  6 36  1  0  0  0  0
  6 37  1  0  0  0  0
  7 24  1  0  0  0  0
  7  8  1  0  0  0  0
  8  9  1  0  0  0  0
  9 10  2  0  0  0  0
  9 11  1  0  0  0  0
 11 12  1  0  0  0  0
 11 24  1  0  0  0  0
 12 13  1  0  0  0  0
 12 38  1  0  0  0  0
 12 39  1  0  0  0  0
 13 14  2  0  0  0  0
 13 15  1  0  0  0  0
 15 16  1  0  0  0  0
 15 40  1  0  0  0  0
 16 17  1  0  0  0  0
 16 41  1  0  0  0  0
 16 42  1  0  0  0  0
 17 18  1  0  0  0  0
 17 43  1  0  0  0  0
 17 44  1  0  0  0  0
 18 23  1  0  0  0  0
 18 19  2  0  0  0  0
 19 20  1  0  0  0  0
 19 45  1  0  0  0  0
 20 21  2  0  0  0  0
 20 46  1  0  0  0  0
 21 22  1  0  0  0  0
 21 47  1  0  0  0  0
 22 23  2  0  0  0  0
 22 49  1  0  0  0  0
 23 48  1  0  0  0  0
 24 25  2  0  0  0  0
M  CHG  1   8  -1
M  CHG  1  22   1
M  END
> <s_m_source_file>
AV-unprocessed.smi

> <i_m_source_file_index>
837

> <i_lp_mmshare_version>
43012

> <i_f3d_flags>
0

> <s_epik_input>
W0NIMl0xW0NIMl1bQ0gyXVtDSDJdW0NAQEhdKFtDSDNdKVtDQEBdMTJbTkhdQyg9TylOKEMyPU8pW0NIMl1DKD1PKVtOSF1bQ0gyXVtDSDJdYzNbY0hdW2NIXVtjSF1uW2NIXTM=

> <s_epik_cmdline>
J2VwaWtfcHl0aG9uJywgJy1waCcsICc3LjAnLCAnLXRuJywgJzgnLCAnLW1hJywgJzIwMCcsICctbWV0YWxfYmluZGluZycsICctaW1hZScsICc8aW5maWxlLm1hZT4nLCAnLW9tYWUnLCAnPG91dGZpbGUubWFlPic=

> <r_lp_tautomer_probability>
1

> <r_epik_Ionization_Penalty>
8.27169

> <r_epik_Ionization_Penalty_Charging>
8.27169

> <r_epik_Ionization_Penalty_Neutral>
1.56557e-07

> <r_epik_State_Penalty>
8.42098

> <r_epik_Charging_Adjusted_Penalty>
16.6927

> <i_epik_Tot_Q>
0

> <i_epik_Tot_abs_Q>
2

> <r_epik_Metal_State_Penalty>
4.38565

> <b_epik_Metal_Only>
1

> <s_lp_Force_Field>
OPLS_2005

> <r_lp_Energy>
17.0357

> <b_lp_Chiralities_Consistent>
1

> <s_lp_Variant>
AV-unprocessed.smi:837-13

> <Gold.Version>
5.8.1

> <Gold.Id.Protein>
6NUR|6NUR_protein|mol2

> <Gold.PLP.Fitness>
50.6417

> <Gold.PLP.PLP>
-35.7440

> <Gold.PLP.part.hbond>
-4.0000

> <Gold.PLP.part.metal>
0.0000

> <Gold.PLP.part.buried>
-5.0457

> <Gold.PLP.part.nonpolar>
-28.6976

> <Gold.PLP.part.repulsive>
0.2184

> <Gold.PLP.ligand.clash>
0.0000

> <Gold.PLP.ligand.torsion>
1.1514

> <Gold.PLP.Chemscore.Hbond>
5.7255

> <Gold.PLP.Chemscore.CHOScore>
0.0000

> <Gold.PLP.Chemscore.Metal>
0.0000

> <Gold.Chemscore.Hbonds>
donor molecule, donor type, donor heavy atom, donor atom, acceptor molecule, acceptor atom, score
      L1  H    22    49       P1 10957  1.62
      P1  H  7989  7998       L1    10  0.73
      P1  H  7997  8008       L1     8  2.00
      P1  H 10752 10763       L1    14  1.00

> <Gold.PLP.Chemscore.Internal.Correction>
0.0240

> <Gold.Rescore>
     Score         DG    S(hbond)    S(metal)    S(lipo)     H(rot)  DE(clash)    DE(int)     intcor
     20.62     -21.79       3.45        0.00      82.89       1.92       0.06       1.11       ----

> <Gold.Chemscore.Fitness>
20.6222

> <Gold.Chemscore.DG>
-21.7857

> <Gold.Chemscore.ZeroCoef>
-5.4800

> <Gold.Chemscore.Hbond>
3.4482

> <Gold.Chemscore.Metal>
0.0000

> <Gold.Chemscore.Lipo>
82.8854

> <Gold.Chemscore.Internal_Hbond>
0.0000

> <Gold.Chemscore.DEClash>
0.0575

> <Gold.Chemscore.DEInternal>
1.1060

> <Gold.Chemscore.Rot>
1.9175

> <Gold.Chemscore.Internal.Correction>
   9.000000E+99

> <Gold.Chemscore.Hbonds>
donor molecule, donor type, donor heavy atom, donor atom, acceptor molecule, acceptor atom, score
      L1  H    22    49       P1 10957  0.56
      P1  H  7989  7998       L1    10  0.38
      P1  H  7997  8008       L1     8  0.92
      P1  H 10752 10763       L1    14  0.95

> <Gold.Chemscore.Hbond.Weighted>
-11.5169

> <Gold.Chemscore.Metal.Weighted>
-0.0000

> <Gold.Chemscore.Lipo.Weighted>
-9.6976

> <Gold.Chemscore.Internal_Hbond.Weighted>
0.0000

> <Gold.Chemscore.DEClash.Weighted>
0.0575

> <Gold.Chemscore.DEInternal.Weighted>
1.1060

> <Gold.Chemscore.Rot.Weighted>
4.9087

> <Gold.Chemscore.Internal.Correction.Weighted>
   9.000000E+99

> <Gold.Protein.RotatedTorsions>
[ 6907 6896 6895 6894 ] final   46.70 input  -60.11 | X-H torsion
[ 7974 7965 7964 7962 ] final  162.85 input  175.53 | X-H torsion
[ 8008 7997 7996 7995 ] final  -43.35 input   59.86 | X-H torsion
[ 10167 10162 10161 10158 ] final  -80.17 input  -65.29 | X-H torsion
[ 10718 10713 10712 10709 ] final   59.88 input   66.30 | X-H torsion
[ 10763 10752 10751 10750 ] final   49.14 input  -60.55 | X-H torsion
[ 11005 11000 10999 10996 ] final   63.97 input  -57.11 | X-H torsion

> <Gold.Protein.ActiveResidues>
 VAL166  LYS551  ARG553  GLY616  TRP617  ASP618  TYR619  PRO620  LYS621  CYS622 
 ASP623  PHE694  ASN695  SER759  ASP760  ASP761  ALA762  ILE779  LEU786  VAL792 
 PHE793  MET794  SER795  GLU796  ALA797  LYS798  CYS799  TRP800  GLU811  SER814 

> <Gold.Protein.RotatedAtoms>
  152.2594  134.8050  160.0432 H   0  0  0  0  0  0  0  0  0  0  0  0  # atno 6907 bound_to 6896
  151.8701  133.3469  159.3740 H   0  0  0  0  0  0  0  0  0  0  0  0  # atno 6908 bound_to 6896
  150.7111  134.5048  159.5623 H   0  0  0  0  0  0  0  0  0  0  0  0  # atno 6909 bound_to 6896
  144.7617  139.8099  143.6330 H   0  0  0  0  0  0  0  0  0  0  0  0  # atno 7974 bound_to 7965
  154.3997  140.1450  156.3504 H   0  0  0  0  0  0  0  0  0  0  0  0  # atno 8008 bound_to 7997
  155.8274  140.3467  155.5530 H   0  0  0  0  0  0  0  0  0  0  0  0  # atno 8009 bound_to 7997
  155.8224  140.0900  157.1831 H   0  0  0  0  0  0  0  0  0  0  0  0  # atno 8010 bound_to 7997
  140.4527  143.2478  151.8464 H   0  0  0  0  0  0  0  0  0  0  0  0  # atno 10167 bound_to 10162
  157.5710  130.8907  149.9267 H   0  0  0  0  0  0  0  0  0  0  0  0  # atno 10718 bound_to 10713
  152.9788  135.5921  154.4041 H   0  0  0  0  0  0  0  0  0  0  0  0  # atno 10763 bound_to 10752
  154.3683  135.2767  155.2283 H   0  0  0  0  0  0  0  0  0  0  0  0  # atno 10764 bound_to 10752
  154.4249  135.6050  153.6087 H   0  0  0  0  0  0  0  0  0  0  0  0  # atno 10765 bound_to 10752
  139.9989  134.6473  155.9963 H   0  0  0  0  0  0  0  0  0  0  0  0  # atno 11005 bound_to 11000
  146.1686  139.4827  142.9942 LP  0  0  0  0  0  0  0  0  0  0  0  0  # atno 17320 bound_to 7965
  145.6599  141.0243  143.1714 LP  0  0  0  0  0  0  0  0  0  0  0  0  # atno 17321 bound_to 7965
  139.4798  144.5100  151.8945 LP  0  0  0  0  0  0  0  0  0  0  0  0  # atno 17342 bound_to 10162
  140.4187  144.2272  150.5887 LP  0  0  0  0  0  0  0  0  0  0  0  0  # atno 17343 bound_to 10162
  156.0755  130.3679  150.0686 LP  0  0  0  0  0  0  0  0  0  0  0  0  # atno 17370 bound_to 10713
  156.8839  130.9565  151.3596 LP  0  0  0  0  0  0  0  0  0  0  0  0  # atno 17371 bound_to 10713
  141.1626  133.6538  156.4371 LP  0  0  0  0  0  0  0  0  0  0  0  0  # atno 17394 bound_to 11000
  140.4765  134.6704  157.5152 LP  0  0  0  0  0  0  0  0  0  0  0  0  # atno 17395 bound_to 11000

$$$$
