AV-unprocessed.smi:1816|AV-procd|sdf|7364|dock10
  -GOLD-   22720 9 23D 1   1.00000     0.00000
 Structure written by MMmdl.
 36 37  0  0  0  0  0  0  0  0  2 V2000
  147.3602  140.5235  154.2380 C   0  0  0  0  0  0  0  0  0  0  0  0
  147.6590  139.3331  153.2990 C   0  0  2  0  0  0  0  0  0  0  0  0
  146.3588  138.5552  152.9663 C   0  0  0  0  0  0  0  0  0  0  0  0
  146.6103  137.2849  152.2927 N   0  0  0  0  0  0  0  0  0  0  0  0
  145.6628  136.4049  151.9398 C   0  0  0  0  0  0  0  0  0  0  0  0
  144.4635  136.5826  152.1526 O   0  0  0  0  0  0  0  0  0  0  0  0
  146.1964  135.3289  151.3399 N   0  0  0  0  0  0  0  0  0  0  0  0
  145.5197  134.1877  150.8428 C   0  0  0  0  0  0  0  0  0  0  0  0
  144.1857  134.1827  150.8352 N   0  0  0  0  0  0  0  0  0  0  0  0
  143.6683  132.9922  150.3164 C   0  0  0  0  0  0  0  0  0  0  0  0
  144.6317  132.0943  149.9290 C   0  0  0  0  0  0  0  0  0  0  0  0
  146.2401  132.7086  150.2022 S   0  0  0  0  0  0  0  0  0  0  0  0
  148.6796  138.4176  153.8862 N   0  3  0  0  0  0  0  0  0  0  0  0
  150.0276  139.0132  154.0738 C   0  0  0  0  0  0  0  0  0  0  0  0
  150.5903  138.4640  155.3921 C   0  0  0  0  0  0  0  0  0  0  0  0
  149.6392  137.3394  155.7830 C   0  0  0  0  0  0  0  0  0  0  0  0
  148.3156  137.7852  155.1732 C   0  0  0  0  0  0  0  0  0  0  0  0
  146.6086  141.1904  153.8154 H   0  0  0  0  0  0  0  0  0  0  0  0
  148.2432  141.1374  154.4144 H   0  0  0  0  0  0  0  0  0  0  0  0
  146.9908  140.1819  155.2052 H   0  0  0  0  0  0  0  0  0  0  0  0
  148.0768  139.7355  152.3748 H   0  0  0  0  0  0  0  0  0  0  0  0
  145.7706  138.3555  153.8629 H   0  0  0  0  0  0  0  0  0  0  0  0
  145.7241  139.1579  152.3160 H   0  0  0  0  0  0  0  0  0  0  0  0
  147.5719  137.0629  152.0785 H   0  0  0  0  0  0  0  0  0  0  0  0
  147.1995  135.3209  151.2282 H   0  0  0  0  0  0  0  0  0  0  0  0
  142.5970  132.8673  150.2589 H   0  0  0  0  0  0  0  0  0  0  0  0
  144.4929  131.1124  149.5017 H   0  0  0  0  0  0  0  0  0  0  0  0
  150.6600  138.7402  153.2284 H   0  0  0  0  0  0  0  0  0  0  0  0
  149.9857  140.1027  154.1188 H   0  0  0  0  0  0  0  0  0  0  0  0
  151.6219  138.1234  155.2992 H   0  0  0  0  0  0  0  0  0  0  0  0
  150.5671  139.2447  156.1538 H   0  0  0  0  0  0  0  0  0  0  0  0
  149.9623  136.4031  155.3257 H   0  0  0  0  0  0  0  0  0  0  0  0
  149.5805  137.1865  156.8610 H   0  0  0  0  0  0  0  0  0  0  0  0
  147.8400  138.5201  155.8251 H   0  0  0  0  0  0  0  0  0  0  0  0
  147.6279  136.9498  155.0383 H   0  0  0  0  0  0  0  0  0  0  0  0
  148.8020  137.6557  153.2346 H   0  0  0  0  0  0  0  0  0  0  0  0
  1  2  1  0  0  0  0
  1 18  1  0  0  0  0
  1 19  1  0  0  0  0
  1 20  1  0  0  0  0
  2  3  1  0  0  0  0
  2 13  1  0  0  0  0
  2 21  1  0  0  0  0
  3  4  1  0  0  0  0
  3 22  1  0  0  0  0
  3 23  1  0  0  0  0
  4  5  1  0  0  0  0
  4 24  1  0  0  0  0
  5  6  2  0  0  0  0
  5  7  1  0  0  0  0
  7  8  1  0  0  0  0
  7 25  1  0  0  0  0
  8 12  1  0  0  0  0
  8  9  2  0  0  0  0
  9 10  1  0  0  0  0
 10 11  2  0  0  0  0
 10 26  1  0  0  0  0
 11 12  1  0  0  0  0
 11 27  1  0  0  0  0
 13 17  1  0  0  0  0
 13 14  1  0  0  0  0
 13 36  1  0  0  0  0
 14 15  1  0  0  0  0
 14 28  1  0  0  0  0
 14 29  1  0  0  0  0
 15 16  1  0  0  0  0
 15 30  1  0  0  0  0
 15 31  1  0  0  0  0
 16 17  1  0  0  0  0
 16 32  1  0  0  0  0
 16 33  1  0  0  0  0
 17 34  1  0  0  0  0
 17 35  1  0  0  0  0
M  CHG  1  13   1
M  END
> <s_m_source_file>
AV-unprocessed.smi

> <i_m_source_file_index>
1816

> <i_lp_mmshare_version>
43012

> <i_f3d_flags>
0

> <s_epik_input>
W0NIMl0xW0NIMl1bQ0gyXVtDSDJdTjFbQ0BIXShbQ0gzXSlbQ0gyXVtOSF1DKD1PKVtOSF1jMm5bY0hdW2NIXXMy

> <s_epik_cmdline>
J2VwaWtfcHl0aG9uJywgJy1waCcsICc3LjAnLCAnLXRuJywgJzgnLCAnLW1hJywgJzIwMCcsICctbWV0YWxfYmluZGluZycsICctaW1hZScsICc8aW5maWxlLm1hZT4nLCAnLW9tYWUnLCAnPG91dGZpbGUubWFlPic=

> <r_lp_tautomer_probability>
0.999

> <r_epik_Ionization_Penalty>
0.000988651

> <r_epik_Ionization_Penalty_Charging>
0.000848324

> <r_epik_Ionization_Penalty_Neutral>
0.000140327

> <r_epik_State_Penalty>
0.000546901

> <r_epik_Charging_Adjusted_Penalty>
0.00139523

> <i_epik_Tot_Q>
1

> <i_epik_Tot_abs_Q>
1

> <r_epik_Metal_State_Penalty>
0.0571994

> <b_epik_Metal_Only>
0

> <s_lp_Force_Field>
OPLS_2005

> <r_lp_Energy>
26.1685

> <b_lp_Chiralities_Consistent>
1

> <s_lp_Variant>
AV-unprocessed.smi:1816-1

> <Gold.Version>
5.8.1

> <Gold.Id.Protein>
6NUR|6NUR_protein|mol2

> <Gold.PLP.Fitness>
40.4477

> <Gold.PLP.PLP>
-25.9569

> <Gold.PLP.part.hbond>
-3.0438

> <Gold.PLP.part.metal>
0.0000

> <Gold.PLP.part.buried>
-1.8620

> <Gold.PLP.part.nonpolar>
-21.8456

> <Gold.PLP.part.repulsive>
0.6050

> <Gold.PLP.ligand.clash>
0.0000

> <Gold.PLP.ligand.torsion>
0.1177

> <Gold.PLP.Chemscore.Hbond>
3.9120

> <Gold.PLP.Chemscore.CHOScore>
0.9863

> <Gold.PLP.Chemscore.Metal>
0.0000

> <Gold.Chemscore.Hbonds>
donor molecule, donor type, donor heavy atom, donor atom, acceptor molecule, acceptor atom, score
      L1  H     4    24       P1  7948  1.00
      L1  H     7    25       P1  7948  0.90
      L1  H    13    36       P1  7948  2.00
      L1  C    10    26       P1 10186  0.97

> <Gold.PLP.Chemscore.Internal.Correction>
0.0312

> <Gold.Rescore>
     Score         DG    S(hbond)    S(metal)    S(lipo)     H(rot)  DE(clash)    DE(int)     intcor
     16.06     -17.70       2.64        0.00      64.16       1.60       0.07       1.56       ----

> <Gold.Chemscore.Fitness>
16.0629

> <Gold.Chemscore.DG>
-17.6962

> <Gold.Chemscore.ZeroCoef>
-5.4800

> <Gold.Chemscore.Hbond>
2.6386

> <Gold.Chemscore.Metal>
0.0000

> <Gold.Chemscore.Lipo>
64.1606

> <Gold.Chemscore.Internal_Hbond>
0.0000

> <Gold.Chemscore.DEClash>
0.0736

> <Gold.Chemscore.DEInternal>
1.5596

> <Gold.Chemscore.Rot>
1.6029

> <Gold.Chemscore.Internal.Correction>
   9.000000E+99

> <Gold.Chemscore.Hbonds>
donor molecule, donor type, donor heavy atom, donor atom, acceptor molecule, acceptor atom, score
      L1  H     4    24       P1  7948  0.99
      L1  H     7    25       P1  7948  0.65
      L1  H    13    36       P1  7948  0.98

> <Gold.Chemscore.Hbond.Weighted>
-8.8129

> <Gold.Chemscore.Metal.Weighted>
-0.0000

> <Gold.Chemscore.Lipo.Weighted>
-7.5068

> <Gold.Chemscore.Internal_Hbond.Weighted>
0.0000

> <Gold.Chemscore.DEClash.Weighted>
0.0736

> <Gold.Chemscore.DEInternal.Weighted>
1.5596

> <Gold.Chemscore.Rot.Weighted>
4.1035

> <Gold.Chemscore.Internal.Correction.Weighted>
   9.000000E+99

> <Gold.Protein.RotatedTorsions>
[ 6907 6896 6895 6894 ] final  -99.25 input  -60.11 | X-H torsion
[ 7974 7965 7964 7962 ] final  104.75 input  175.53 | X-H torsion
[ 8008 7997 7996 7995 ] final -143.11 input   59.86 | X-H torsion
[ 10167 10162 10161 10158 ] final -132.50 input  -65.29 | X-H torsion
[ 10718 10713 10712 10709 ] final -115.38 input   66.30 | X-H torsion
[ 10763 10752 10751 10750 ] final  118.97 input  -60.55 | X-H torsion
[ 11005 11000 10999 10996 ] final -106.73 input  -57.11 | X-H torsion

> <Gold.Protein.ActiveResidues>
 VAL166  LYS551  ARG553  GLY616  TRP617  ASP618  TYR619  PRO620  LYS621  CYS622 
 ASP623  PHE694  ASN695  SER759  ASP760  ASP761  ALA762  ILE779  LEU786  VAL792 
 PHE793  MET794  SER795  GLU796  ALA797  LYS798  CYS799  TRP800  GLU811  SER814 

> <Gold.Protein.RotatedAtoms>
  150.7074  134.1069  159.3985 H   0  0  0  0  0  0  0  0  0  0  0  0  # atno 6907 bound_to 6896
  151.9055  135.0358  160.0519 H   0  0  0  0  0  0  0  0  0  0  0  0  # atno 6908 bound_to 6896
  152.2379  133.5075  159.5289 H   0  0  0  0  0  0  0  0  0  0  0  0  # atno 6909 bound_to 6896
  145.3287  139.2492  143.3672 H   0  0  0  0  0  0  0  0  0  0  0  0  # atno 7974 bound_to 7965
  155.5052  140.0579  157.2932 H   0  0  0  0  0  0  0  0  0  0  0  0  # atno 8008 bound_to 7997
  154.4572  140.1979  156.0295 H   0  0  0  0  0  0  0  0  0  0  0  0  # atno 8009 bound_to 7997
  156.0822  140.3245  155.7712 H   0  0  0  0  0  0  0  0  0  0  0  0  # atno 8010 bound_to 7997
  139.9079  143.6529  152.2581 H   0  0  0  0  0  0  0  0  0  0  0  0  # atno 10167 bound_to 10162
  156.0892  130.6077  150.8898 H   0  0  0  0  0  0  0  0  0  0  0  0  # atno 10718 bound_to 10713
  153.5759  135.3493  155.2856 H   0  0  0  0  0  0  0  0  0  0  0  0  # atno 10763 bound_to 10752
  154.8675  135.4170  154.2674 H   0  0  0  0  0  0  0  0  0  0  0  0  # atno 10764 bound_to 10752
  153.3450  135.7052  153.6906 H   0  0  0  0  0  0  0  0  0  0  0  0  # atno 10765 bound_to 10752
  141.0990  133.8919  157.1891 H   0  0  0  0  0  0  0  0  0  0  0  0  # atno 11005 bound_to 11000
  146.3054  140.3861  142.8689 LP  0  0  0  0  0  0  0  0  0  0  0  0  # atno 17320 bound_to 7965
  144.8881  140.7488  143.5944 LP  0  0  0  0  0  0  0  0  0  0  0  0  # atno 17321 bound_to 7965
  139.6968  144.7640  151.1342 LP  0  0  0  0  0  0  0  0  0  0  0  0  # atno 17342 bound_to 10162
  140.7692  143.5512  150.9202 LP  0  0  0  0  0  0  0  0  0  0  0  0  # atno 17343 bound_to 10162
  157.6035  131.0940  150.8919 LP  0  0  0  0  0  0  0  0  0  0  0  0  # atno 17370 bound_to 10713
  156.9071  130.5267  149.5281 LP  0  0  0  0  0  0  0  0  0  0  0  0  # atno 17371 bound_to 10713
  139.9835  135.0090  156.9806 LP  0  0  0  0  0  0  0  0  0  0  0  0  # atno 17394 bound_to 11000
  140.5070  134.1040  155.7262 LP  0  0  0  0  0  0  0  0  0  0  0  0  # atno 17395 bound_to 11000

$$$$
