AV-unprocessed.smi:72|AV-procd|sdf|722|dock4
  -GOLD-   2262017 43D 1   1.00000     0.00000
 Structure written by MMmdl.
 28 29  0  0  0  0  0  0  0  0  2 V2000
  153.2605  137.2965  155.9268 N   0  0  0  0  0  0  0  0  0  0  0  0
  152.4632  138.2427  155.6855 C   0  0  0  0  0  0  0  0  0  0  0  0
  151.5946  138.1849  154.5314 N   0  0  0  0  0  0  0  0  0  0  0  0
  150.7449  139.1514  154.3666 C   0  0  0  0  0  0  0  0  0  0  0  0
  150.6178  140.2452  155.3263 N   0  0  0  0  0  0  0  0  0  0  0  0
  149.6326  141.3892  155.1098 C   0  0  1  0  0  0  0  0  0  0  0  0
  149.1459  141.3529  153.7943 O   0  0  0  0  0  0  0  0  0  0  0  0
  147.8029  140.8733  153.7373 C   0  0  1  0  0  0  0  0  0  0  0  0
  147.7698  139.3331  153.6043 C   0  0  0  0  0  0  0  0  0  0  0  0
  147.7367  138.9693  152.2407 O   0  0  0  0  0  0  0  0  0  0  0  0
  147.2323  141.4256  155.0471 C   0  0  1  0  0  0  0  0  0  0  0  0
  146.0838  140.7319  155.4945 O   0  0  0  0  0  0  0  0  0  0  0  0
  148.3895  141.2930  156.0279 C   0  0  2  0  0  0  0  0  0  0  0  0
  148.3342  142.3584  156.9556 O   0  0  0  0  0  0  0  0  0  0  0  0
  151.5699  140.3312  156.3808 C   0  0  0  0  0  0  0  0  0  0  0  0
  151.5601  141.3311  157.0981 O   0  0  0  0  0  0  0  0  0  0  0  0
  152.4622  139.3153  156.5478 N   0  5  0  0  0  0  0  0  0  0  0  0
  150.2287  142.2915  155.2560 H   0  0  0  0  0  0  0  0  0  0  0  0
  147.2830  141.3199  152.8886 H   0  0  0  0  0  0  0  0  0  0  0  0
  146.9801  142.4772  154.8992 H   0  0  0  0  0  0  0  0  0  0  0  0
  148.3626  140.3250  156.5313 H   0  0  0  0  0  0  0  0  0  0  0  0
  153.8130  137.4624  156.7554 H   0  0  0  0  0  0  0  0  0  0  0  0
  150.0800  139.1970  153.5045 H   0  0  0  0  0  0  0  0  0  0  0  0
  148.6029  138.8502  154.1124 H   0  0  0  0  0  0  0  0  0  0  0  0
  146.8602  138.9299  154.0490 H   0  0  0  0  0  0  0  0  0  0  0  0
  148.1130  138.1069  152.1515 H   0  0  0  0  0  0  0  0  0  0  0  0
  145.6519  141.2648  156.1450 H   0  0  0  0  0  0  0  0  0  0  0  0
  148.4645  143.1667  156.4820 H   0  0  0  0  0  0  0  0  0  0  0  0
  1  2  2  0  0  0  0
  1 22  1  0  0  0  0
  2 17  1  0  0  0  0
  2  3  1  0  0  0  0
  3  4  2  0  0  0  0
  4  5  1  0  0  0  0
  4 23  1  0  0  0  0
  5  6  1  0  0  0  0
  5 15  1  0  0  0  0
  6 18  1  0  0  0  0
  6 13  1  0  0  0  0
  6  7  1  0  0  0  0
  7  8  1  0  0  0  0
  8 19  1  0  0  0  0
  8  9  1  0  0  0  0
  8 11  1  0  0  0  0
  9 10  1  0  0  0  0
  9 24  1  0  0  0  0
  9 25  1  0  0  0  0
 10 26  1  0  0  0  0
 11 20  1  0  0  0  0
 11 12  1  0  0  0  0
 11 13  1  0  0  0  0
 12 27  1  0  0  0  0
 13 21  1  0  0  0  0
 13 14  1  0  0  0  0
 14 28  1  0  0  0  0
 15 16  2  0  0  0  0
 15 17  1  0  0  0  0
M  CHG  1  17  -1
M  END
> <s_m_source_file>
AV-unprocessed.smi

> <i_m_source_file_index>
72

> <i_lp_mmshare_version>
43012

> <i_f3d_flags>
0

> <s_epik_input>
W05IMl1jMW5bY0hdbihjKD1PKW4xKVtDQEBIXTJPW0NASF0oW0NIMl1bT0hdKVtDQEBIXShbT0hdKVtDQEhdMltPSF0=

> <s_epik_cmdline>
J2VwaWtfcHl0aG9uJywgJy1waCcsICc3LjAnLCAnLXRuJywgJzgnLCAnLW1hJywgJzIwMCcsICctbWV0YWxfYmluZGluZycsICctaW1hZScsICc8aW5maWxlLm1hZT4nLCAnLW9tYWUnLCAnPG91dGZpbGUubWFlPic=

> <r_lp_tautomer_probability>
7.17554e-07

> <r_epik_Ionization_Penalty>
12.8705

> <r_epik_Ionization_Penalty_Charging>
5.64144

> <r_epik_Ionization_Penalty_Neutral>
7.22905

> <r_epik_State_Penalty>
3.30104

> <r_epik_Charging_Adjusted_Penalty>
8.94249

> <i_epik_Tot_Q>
-1

> <i_epik_Tot_abs_Q>
1

> <r_epik_Metal_State_Penalty>
0.529074

> <b_epik_Metal_Only>
1

> <s_epik_Chemistry_Notes>
This compound contains an acetal/aminal-like group ( X-CH(R)-Y where X, Y are N, S, or O) that may be acid/base labile, releasing an aldehyde.

> <s_lp_Force_Field>
OPLS_2005

> <r_lp_Energy>
34.2272

> <b_lp_Chiralities_Consistent>
1

> <s_lp_Variant>
AV-unprocessed.smi:72-60

> <Gold.Version>
5.8.1

> <Gold.Id.Protein>
6NUR|6NUR_protein|mol2

> <Gold.PLP.Fitness>
44.4543

> <Gold.PLP.PLP>
-27.4302

> <Gold.PLP.part.hbond>
-6.6378

> <Gold.PLP.part.metal>
0.0000

> <Gold.PLP.part.buried>
-1.8446

> <Gold.PLP.part.nonpolar>
-19.4764

> <Gold.PLP.part.repulsive>
1.3599

> <Gold.PLP.ligand.clash>
0.0000

> <Gold.PLP.ligand.torsion>
0.8320

> <Gold.PLP.Chemscore.Hbond>
5.2002

> <Gold.PLP.Chemscore.CHOScore>
0.9973

> <Gold.PLP.Chemscore.Metal>
0.0000

> <Gold.Chemscore.Hbonds>
donor molecule, donor type, donor heavy atom, donor atom, acceptor molecule, acceptor atom, score
      L1  H    10    26       P1  7948  0.96
      L1  H    14    28       P1  8028  1.00
      P1  H  7997  8010       L1    17  1.79
      P1  H  8011  8017       L1     7  0.82
      P1  H 10752 10764       L1     1  0.42
      L1  C     4    23       P1  7957  1.00

> <Gold.PLP.Chemscore.Internal.Correction>
0.0958

> <Gold.Rescore>
     Score         DG    S(hbond)    S(metal)    S(lipo)     H(rot)  DE(clash)    DE(int)     intcor
      7.02      -8.93       3.36        0.00      21.94       4.04       1.22       0.69       ----

> <Gold.Chemscore.Fitness>
7.0242

> <Gold.Chemscore.DG>
-8.9330

> <Gold.Chemscore.ZeroCoef>
-5.4800

> <Gold.Chemscore.Hbond>
3.3622

> <Gold.Chemscore.Metal>
0.0000

> <Gold.Chemscore.Lipo>
21.9353

> <Gold.Chemscore.Internal_Hbond>
0.0000

> <Gold.Chemscore.DEClash>
1.2205

> <Gold.Chemscore.DEInternal>
0.6884

> <Gold.Chemscore.Rot>
4.0403

> <Gold.Chemscore.Internal.Correction>
   9.000000E+99

> <Gold.Chemscore.Hbonds>
donor molecule, donor type, donor heavy atom, donor atom, acceptor molecule, acceptor atom, score
      L1  H    10    26       P1  7948  0.91
      L1  H    14    28       P1  8028  0.70
      P1  H  7997  8010       L1    17  0.21
      P1  H  8011  8017       L1     7  0.77
      P1  H 10752 10764       L1     1  0.40

> <Gold.Chemscore.Hbond.Weighted>
-11.2297

> <Gold.Chemscore.Metal.Weighted>
-0.0000

> <Gold.Chemscore.Lipo.Weighted>
-2.5664

> <Gold.Chemscore.Internal_Hbond.Weighted>
0.0000

> <Gold.Chemscore.DEClash.Weighted>
1.2205

> <Gold.Chemscore.DEInternal.Weighted>
0.6884

> <Gold.Chemscore.Rot.Weighted>
10.3431

> <Gold.Chemscore.Internal.Correction.Weighted>
   9.000000E+99

> <Gold.Protein.RotatedTorsions>
[ 6907 6896 6895 6894 ] final  157.72 input  -60.11 | X-H torsion
[ 7974 7965 7964 7962 ] final   83.87 input  175.53 | X-H torsion
[ 8008 7997 7996 7995 ] final   82.94 input   59.86 | X-H torsion
[ 10167 10162 10161 10158 ] final  168.11 input  -65.29 | X-H torsion
[ 10718 10713 10712 10709 ] final -149.98 input   66.30 | X-H torsion
[ 10763 10752 10751 10750 ] final  -31.97 input  -60.55 | X-H torsion
[ 11005 11000 10999 10996 ] final -178.16 input  -57.11 | X-H torsion

> <Gold.Protein.ActiveResidues>
 VAL166  LYS551  ARG553  GLY616  TRP617  ASP618  TYR619  PRO620  LYS621  CYS622 
 ASP623  PHE694  ASN695  SER759  ASP760  ASP761  ALA762  ILE779  LEU786  VAL792 
 PHE793  MET794  SER795  GLU796  ALA797  LYS798  CYS799  TRP800  GLU811  SER814 

> <Gold.Protein.RotatedAtoms>
  152.0110  133.3861  159.4219 H   0  0  0  0  0  0  0  0  0  0  0  0  # atno 6907 bound_to 6896
  150.6899  134.3730  159.5010 H   0  0  0  0  0  0  0  0  0  0  0  0  # atno 6908 bound_to 6896
  152.1491  134.9002  160.0600 H   0  0  0  0  0  0  0  0  0  0  0  0  # atno 6909 bound_to 6896
  145.6062  139.2360  143.2218 H   0  0  0  0  0  0  0  0  0  0  0  0  # atno 7974 bound_to 7965
  155.9173  140.3423  155.6145 H   0  0  0  0  0  0  0  0  0  0  0  0  # atno 8008 bound_to 7997
  155.7315  140.0796  157.2305 H   0  0  0  0  0  0  0  0  0  0  0  0  # atno 8009 bound_to 7997
  154.4064  140.1587  156.2502 H   0  0  0  0  0  0  0  0  0  0  0  0  # atno 8010 bound_to 7997
  139.4960  144.3850  151.9581 H   0  0  0  0  0  0  0  0  0  0  0  0  # atno 10167 bound_to 10162
  156.4402  130.8118  151.2347 H   0  0  0  0  0  0  0  0  0  0  0  0  # atno 10718 bound_to 10713
  153.8061  135.6886  153.4848 H   0  0  0  0  0  0  0  0  0  0  0  0  # atno 10763 bound_to 10752
  153.1658  135.4562  154.9833 H   0  0  0  0  0  0  0  0  0  0  0  0  # atno 10764 bound_to 10752
  154.7987  135.3329  154.7545 H   0  0  0  0  0  0  0  0  0  0  0  0  # atno 10765 bound_to 10752
  140.4328  134.6503  157.4720 H   0  0  0  0  0  0  0  0  0  0  0  0  # atno 11005 bound_to 11000
  146.1539  140.6886  142.9309 LP  0  0  0  0  0  0  0  0  0  0  0  0  # atno 17320 bound_to 7965
  144.7289  140.4611  143.6952 LP  0  0  0  0  0  0  0  0  0  0  0  0  # atno 17321 bound_to 7965
  140.3286  144.3343  150.5992 LP  0  0  0  0  0  0  0  0  0  0  0  0  # atno 17342 bound_to 10162
  140.5663  143.2186  151.7677 LP  0  0  0  0  0  0  0  0  0  0  0  0  # atno 17343 bound_to 10162
  157.7506  131.0171  150.3570 LP  0  0  0  0  0  0  0  0  0  0  0  0  # atno 17370 bound_to 10713
  156.3926  130.3900  149.7019 LP  0  0  0  0  0  0  0  0  0  0  0  0  # atno 17371 bound_to 10713
  140.0122  134.6673  155.9363 LP  0  0  0  0  0  0  0  0  0  0  0  0  # atno 17394 bound_to 11000
  141.1738  133.6539  156.4752 LP  0  0  0  0  0  0  0  0  0  0  0  0  # atno 17395 bound_to 11000

$$$$
