AV-unprocessed.smi:1032|AV-procd|sdf|4488|dock7
  -GOLD-   22720 2473D 1   1.00000     0.00000
 Structure written by MMmdl.
 47 48  0  0  0  0  0  0  0  0  3 V2000
  148.2769  140.2018  155.6831 C   0  0  0  0  0  0  0  0  0  0  0  0
  148.2646  139.3620  154.3939 C   0  0  2  0  0  0  0  0  0  0  0  0
  147.6814  137.9532  154.6064 C   0  0  0  0  0  0  0  0  0  0  0  0
  148.6533  137.0254  155.3576 C   0  0  0  0  0  0  0  0  0  0  0  0
  149.9685  136.9497  154.6707 N   0  3  2  0  0  0  0  0  0  0  0  0
  150.8769  135.9574  155.3015 C   0  0  0  0  0  0  0  0  0  0  0  0
  150.1202  134.7400  155.8712 C   0  0  2  0  0  0  0  0  0  0  0  0
  150.9771  134.0925  156.7919 O   0  0  0  0  0  0  0  0  0  0  0  0
  149.7525  133.7303  154.7640 C   0  0  0  0  0  0  0  0  0  0  0  0
  148.8378  134.3034  153.7808 N   0  0  0  0  0  0  0  0  0  0  0  0
  147.7078  133.7219  153.3531 C   0  0  0  0  0  0  0  0  0  0  0  0
  147.3280  132.6169  153.7409 O   0  0  0  0  0  0  0  0  0  0  0  0
  147.0764  134.4857  152.4448 N   0  0  0  0  0  0  0  0  0  0  0  0
  145.8476  134.2304  151.7773 C   0  0  0  0  0  0  0  0  0  0  0  0
  145.3162  135.2581  150.9667 C   0  0  0  0  0  0  0  0  0  0  0  0
  144.0914  135.0546  150.2987 C   0  0  0  0  0  0  0  0  0  0  0  0
  143.4308  133.8862  150.4463 N   0  3  0  0  0  0  0  0  0  0  0  0
  143.8906  132.8810  151.2219 C   0  0  0  0  0  0  0  0  0  0  0  0
  145.1104  133.0263  151.9138 C   0  0  0  0  0  0  0  0  0  0  0  0
  150.5837  138.2953  154.5190 C   0  0  0  0  0  0  0  0  0  0  0  0
  149.6552  139.2471  153.7438 C   0  0  0  0  0  0  0  0  0  0  0  0
  148.9058  139.7621  156.4565 H   0  0  0  0  0  0  0  0  0  0  0  0
  147.2716  140.3001  156.0936 H   0  0  0  0  0  0  0  0  0  0  0  0
  148.6489  141.2083  155.4889 H   0  0  0  0  0  0  0  0  0  0  0  0
  147.6145  139.8858  153.6917 H   0  0  0  0  0  0  0  0  0  0  0  0
  146.7332  138.0140  155.1417 H   0  0  0  0  0  0  0  0  0  0  0  0
  147.4518  137.5117  153.6357 H   0  0  0  0  0  0  0  0  0  0  0  0
  148.7947  137.3666  156.3839 H   0  0  0  0  0  0  0  0  0  0  0  0
  148.2136  136.0288  155.4161 H   0  0  0  0  0  0  0  0  0  0  0  0
  151.6176  135.6399  154.5656 H   0  0  0  0  0  0  0  0  0  0  0  0
  151.4400  136.4253  156.1109 H   0  0  0  0  0  0  0  0  0  0  0  0
  149.2203  135.0660  156.3913 H   0  0  0  0  0  0  0  0  0  0  0  0
  151.5231  134.7426  157.2079 H   0  0  0  0  0  0  0  0  0  0  0  0
  150.6534  133.4047  154.2407 H   0  0  0  0  0  0  0  0  0  0  0  0
  149.3110  132.8272  155.1875 H   0  0  0  0  0  0  0  0  0  0  0  0
  149.0833  135.2082  153.4056 H   0  0  0  0  0  0  0  0  0  0  0  0
  147.5589  135.3252  152.1593 H   0  0  0  0  0  0  0  0  0  0  0  0
  145.8424  136.1946  150.8498 H   0  0  0  0  0  0  0  0  0  0  0  0
  143.6227  135.7872  149.6576 H   0  0  0  0  0  0  0  0  0  0  0  0
  143.2703  131.9979  151.2712 H   0  0  0  0  0  0  0  0  0  0  0  0
  145.4485  132.2179  152.5438 H   0  0  0  0  0  0  0  0  0  0  0  0
  150.8152  138.7064  155.5025 H   0  0  0  0  0  0  0  0  0  0  0  0
  151.5308  138.2219  153.9859 H   0  0  0  0  0  0  0  0  0  0  0  0
  149.5428  138.8767  152.7237 H   0  0  0  0  0  0  0  0  0  0  0  0
  150.1150  140.2323  153.6577 H   0  0  0  0  0  0  0  0  0  0  0  0
  149.7790  136.6051  153.7400 H   0  0  0  0  0  0  0  0  0  0  0  0
  142.5451  133.7595  149.9556 H   0  0  0  0  0  0  0  0  0  0  0  0
  1  2  1  0  0  0  0
  1 22  1  0  0  0  0
  1 23  1  0  0  0  0
  1 24  1  0  0  0  0
  2 21  1  0  0  0  0
  2  3  1  0  0  0  0
  2 25  1  0  0  0  0
  3  4  1  0  0  0  0
  3 26  1  0  0  0  0
  3 27  1  0  0  0  0
  4  5  1  0  0  0  0
  4 28  1  0  0  0  0
  4 29  1  0  0  0  0
  5  6  1  0  0  0  0
  5 20  1  0  0  0  0
  5 46  1  0  0  0  0
  6  7  1  0  0  0  0
  6 30  1  0  0  0  0
  6 31  1  0  0  0  0
  7  8  1  0  0  0  0
  7  9  1  0  0  0  0
  7 32  1  0  0  0  0
  8 33  1  0  0  0  0
  9 10  1  0  0  0  0
  9 34  1  0  0  0  0
  9 35  1  0  0  0  0
 10 11  1  0  0  0  0
 10 36  1  0  0  0  0
 11 12  2  0  0  0  0
 11 13  1  0  0  0  0
 13 14  1  0  0  0  0
 13 37  1  0  0  0  0
 14 19  1  0  0  0  0
 14 15  2  0  0  0  0
 15 16  1  0  0  0  0
 15 38  1  0  0  0  0
 16 17  2  0  0  0  0
 16 39  1  0  0  0  0
 17 18  1  0  0  0  0
 17 47  1  0  0  0  0
 18 19  2  0  0  0  0
 18 40  1  0  0  0  0
 19 41  1  0  0  0  0
 20 21  1  0  0  0  0
 20 42  1  0  0  0  0
 20 43  1  0  0  0  0
 21 44  1  0  0  0  0
 21 45  1  0  0  0  0
M  CHG  1   5   1
M  CHG  1  17   1
M  END
> <s_m_source_file>
AV-unprocessed.smi

> <i_m_source_file_index>
1032

> <i_lp_mmshare_version>
43012

> <i_f3d_flags>
0

> <s_epik_input>
W0NIM11bQ0hdMVtDSDJdW0NIMl1OKFtDSDJdW0NIMl0xKVtDSDJdW0NASF0oW09IXSlbQ0gyXVtOSF1DKD1PKVtOSF1jMltjSF1bY0hdbltjSF1bY0hdMg==

> <s_epik_cmdline>
J2VwaWtfcHl0aG9uJywgJy1waCcsICc3LjAnLCAnLXRuJywgJzgnLCAnLW1hJywgJzIwMCcsICctbWV0YWxfYmluZGluZycsICctaW1hZScsICc8aW5maWxlLm1hZT4nLCAnLW9tYWUnLCAnPG91dGZpbGUubWFlPic=

> <r_epik_Ionization_Penalty>
1.02509

> <r_epik_Ionization_Penalty_Charging>
1.02507

> <r_epik_Ionization_Penalty_Neutral>
1.85474e-05

> <r_epik_State_Penalty>
1.07411

> <r_epik_Charging_Adjusted_Penalty>
2.09917

> <i_epik_Tot_Q>
2

> <i_epik_Tot_abs_Q>
2

> <r_epik_Metal_State_Penalty>
1.1725

> <b_epik_Metal_Only>
0

> <s_lp_Force_Field>
OPLS_2005

> <r_lp_Energy>
33.8521

> <b_lp_Chiralities_Consistent>
1

> <s_lp_Variant>
AV-unprocessed.smi:1032-7

> <Gold.Version>
5.8.1

> <Gold.Id.Protein>
6NUR|6NUR_protein|mol2

> <Gold.PLP.Fitness>
45.8230

> <Gold.PLP.PLP>
-29.3750

> <Gold.PLP.part.hbond>
-4.6269

> <Gold.PLP.part.metal>
0.0000

> <Gold.PLP.part.buried>
1.1644

> <Gold.PLP.part.nonpolar>
-25.4291

> <Gold.PLP.part.repulsive>
0.1578

> <Gold.PLP.ligand.clash>
0.0000

> <Gold.PLP.ligand.torsion>
0.4711

> <Gold.PLP.Chemscore.Hbond>
5.7840

> <Gold.PLP.Chemscore.CHOScore>
0.0000

> <Gold.PLP.Chemscore.Metal>
0.0000

> <Gold.Chemscore.Hbonds>
donor molecule, donor type, donor heavy atom, donor atom, acceptor molecule, acceptor atom, score
      L1  H     5    46       P1  7948  1.92
      L1  H    10    36       P1  7948  0.83
      L1  H    13    37       P1  7948  1.00
      L1  H    17    47       P1 10186  1.89

> <Gold.PLP.Chemscore.Internal.Correction>
0.0382

> <Gold.Rescore>
     Score         DG    S(hbond)    S(metal)    S(lipo)     H(rot)  DE(clash)    DE(int)     intcor
     14.59     -16.85       2.80        0.00      68.57       2.34       0.28       1.98       ----

> <Gold.Chemscore.Fitness>
14.5939

> <Gold.Chemscore.DG>
-16.8548

> <Gold.Chemscore.ZeroCoef>
-5.4800

> <Gold.Chemscore.Hbond>
2.7966

> <Gold.Chemscore.Metal>
0.0000

> <Gold.Chemscore.Lipo>
68.5709

> <Gold.Chemscore.Internal_Hbond>
0.0000

> <Gold.Chemscore.DEClash>
0.2786

> <Gold.Chemscore.DEInternal>
1.9823

> <Gold.Chemscore.Rot>
2.3393

> <Gold.Chemscore.Internal.Correction>
   9.000000E+99

> <Gold.Chemscore.Hbonds>
donor molecule, donor type, donor heavy atom, donor atom, acceptor molecule, acceptor atom, score
      L1  H     5    46       P1  7948  0.45
      L1  H    10    36       P1  7948  0.28
      L1  H    13    37       P1  7948  0.96
      L1  H    17    47       P1 10186  0.91

> <Gold.Chemscore.Hbond.Weighted>
-9.3407

> <Gold.Chemscore.Metal.Weighted>
-0.0000

> <Gold.Chemscore.Lipo.Weighted>
-8.0228

> <Gold.Chemscore.Internal_Hbond.Weighted>
0.0000

> <Gold.Chemscore.DEClash.Weighted>
0.2786

> <Gold.Chemscore.DEInternal.Weighted>
1.9823

> <Gold.Chemscore.Rot.Weighted>
5.9886

> <Gold.Chemscore.Internal.Correction.Weighted>
   9.000000E+99

> <Gold.Protein.RotatedTorsions>
[ 6907 6896 6895 6894 ] final  -70.17 input  -60.11 | X-H torsion
[ 7974 7965 7964 7962 ] final  -20.23 input  175.53 | X-H torsion
[ 8008 7997 7996 7995 ] final  -38.48 input   59.86 | X-H torsion
[ 10167 10162 10161 10158 ] final  113.56 input  -65.29 | X-H torsion
[ 10718 10713 10712 10709 ] final -176.29 input   66.30 | X-H torsion
[ 10763 10752 10751 10750 ] final  167.21 input  -60.55 | X-H torsion
[ 11005 11000 10999 10996 ] final   27.61 input  -57.11 | X-H torsion

> <Gold.Protein.ActiveResidues>
 VAL166  LYS551  ARG553  GLY616  TRP617  ASP618  TYR619  PRO620  LYS621  CYS622 
 ASP623  PHE694  ASN695  SER759  ASP760  ASP761  ALA762  ILE779  LEU786  VAL792 
 PHE793  MET794  SER795  GLU796  ALA797  LYS798  CYS799  TRP800  GLU811  SER814 

> <Gold.Protein.RotatedAtoms>
  150.7270  134.5491  159.5785 H   0  0  0  0  0  0  0  0  0  0  0  0  # atno 6907 bound_to 6896
  152.2983  134.7638  160.0372 H   0  0  0  0  0  0  0  0  0  0  0  0  # atno 6908 bound_to 6896
  151.8228  133.3361  159.3626 H   0  0  0  0  0  0  0  0  0  0  0  0  # atno 6909 bound_to 6896
  146.1799  140.4172  142.8498 H   0  0  0  0  0  0  0  0  0  0  0  0  # atno 7974 bound_to 7965
  154.4036  140.1576  156.2707 H   0  0  0  0  0  0  0  0  0  0  0  0  # atno 8008 bound_to 7997
  155.8955  140.3436  155.5966 H   0  0  0  0  0  0  0  0  0  0  0  0  # atno 8009 bound_to 7997
  155.7508  140.0804  157.2192 H   0  0  0  0  0  0  0  0  0  0  0  0  # atno 8010 bound_to 7997
  139.6453  144.7126  151.2156 H   0  0  0  0  0  0  0  0  0  0  0  0  # atno 10167 bound_to 10162
  156.8124  130.9591  151.3115 H   0  0  0  0  0  0  0  0  0  0  0  0  # atno 10718 bound_to 10713
  154.3504  135.2753  155.2375 H   0  0  0  0  0  0  0  0  0  0  0  0  # atno 10763 bound_to 10752
  154.4606  135.5908  153.6257 H   0  0  0  0  0  0  0  0  0  0  0  0  # atno 10764 bound_to 10752
  152.9850  135.6064  154.3714 H   0  0  0  0  0  0  0  0  0  0  0  0  # atno 10765 bound_to 10752
  140.3244  134.2507  155.7712 H   0  0  0  0  0  0  0  0  0  0  0  0  # atno 11005 bound_to 11000
  144.8298  140.6688  143.6298 LP  0  0  0  0  0  0  0  0  0  0  0  0  # atno 17320 bound_to 7965
  145.4105  139.1581  143.4128 LP  0  0  0  0  0  0  0  0  0  0  0  0  # atno 17321 bound_to 7965
  140.7511  143.6242  150.8484 LP  0  0  0  0  0  0  0  0  0  0  0  0  # atno 17342 bound_to 10162
  139.9884  143.5874  152.2919 LP  0  0  0  0  0  0  0  0  0  0  0  0  # atno 17343 bound_to 10162
  157.6499  130.8875  149.9612 LP  0  0  0  0  0  0  0  0  0  0  0  0  # atno 17370 bound_to 10713
  156.1036  130.3654  150.0173 LP  0  0  0  0  0  0  0  0  0  0  0  0  # atno 17371 bound_to 10713
  141.2079  133.7794  157.0093 LP  0  0  0  0  0  0  0  0  0  0  0  0  # atno 17394 bound_to 11000
  140.0914  134.9590  157.1781 LP  0  0  0  0  0  0  0  0  0  0  0  0  # atno 17395 bound_to 11000

$$$$
