AV-unprocessed.smi:651|AV-procd|sdf|3190|dock2
  -GOLD-   22720 0113D 1   1.00000     0.00000
 Structure written by MMmdl.
 39 40  0  0  0  0  0  0  0  0  2 V2000
  151.1367  145.3677  159.3079 C   0  0  0  0  0  0  0  0  0  0  0  0
  151.3655  143.9602  158.7988 C   0  0  0  0  0  0  0  0  0  0  0  0
  152.2284  143.0557  159.4537 C   0  0  0  0  0  0  0  0  0  0  0  0
  152.3915  141.7568  158.9285 C   0  0  0  0  0  0  0  0  0  0  0  0
  151.6886  141.3878  157.7601 C   0  0  0  0  0  0  0  0  0  0  0  0
  151.8381  139.9926  157.1746 C   0  0  0  0  0  0  0  0  0  0  0  0
  151.3124  139.9046  155.7365 C   0  0  0  0  0  0  0  0  0  0  0  0
  152.0826  139.8816  154.7752 O   0  0  0  0  0  0  0  0  0  0  0  0
  149.9787  139.8445  155.6075 N   0  0  0  0  0  0  0  0  0  0  0  0
  149.2581  139.7433  154.3366 C   0  0  2  0  0  0  0  0  0  0  0  0
  148.4501  141.0253  154.0547 C   0  0  0  0  0  0  0  0  0  0  0  0
  147.0651  140.5832  153.5679 C   0  0  0  0  0  0  0  0  0  0  0  0
  147.1886  139.0872  153.2716 C   0  0  0  0  0  0  0  0  0  0  0  0
  148.2570  138.5586  154.2405 C   0  0  2  0  0  0  0  0  0  0  0  0
  147.6181  138.1236  155.5774 C   0  0  0  0  0  0  0  0  0  0  0  0
  147.8176  136.8596  155.9590 N   0  0  0  0  0  0  0  0  0  0  0  0
  146.9644  138.9121  156.2585 O   0  0  0  0  0  0  0  0  0  0  0  0
  150.8398  142.3354  157.1482 C   0  0  0  0  0  0  0  0  0  0  0  0
  150.7100  143.5693  157.6828 N   0  3  0  0  0  0  0  0  0  0  0  0
  152.0060  145.7258  159.8602 H   0  0  0  0  0  0  0  0  0  0  0  0
  150.2735  145.3917  159.9735 H   0  0  0  0  0  0  0  0  0  0  0  0
  150.9537  146.0559  158.4820 H   0  0  0  0  0  0  0  0  0  0  0  0
  152.7576  143.3502  160.3483 H   0  0  0  0  0  0  0  0  0  0  0  0
  153.0457  141.0516  159.4204 H   0  0  0  0  0  0  0  0  0  0  0  0
  152.8897  139.7028  157.1897 H   0  0  0  0  0  0  0  0  0  0  0  0
  151.3028  139.2757  157.7987 H   0  0  0  0  0  0  0  0  0  0  0  0
  149.4171  139.8607  156.4469 H   0  0  0  0  0  0  0  0  0  0  0  0
  149.9890  139.6326  153.5330 H   0  0  0  0  0  0  0  0  0  0  0  0
  148.3481  141.6516  154.9423 H   0  0  0  0  0  0  0  0  0  0  0  0
  148.9530  141.6264  153.2964 H   0  0  0  0  0  0  0  0  0  0  0  0
  146.3298  140.7447  154.3570 H   0  0  0  0  0  0  0  0  0  0  0  0
  146.7334  141.1476  152.6960 H   0  0  0  0  0  0  0  0  0  0  0  0
  146.2302  138.5731  153.3610 H   0  0  0  0  0  0  0  0  0  0  0  0
  147.5318  138.9456  152.2459 H   0  0  0  0  0  0  0  0  0  0  0  0
  148.7560  137.6916  153.8036 H   0  0  0  0  0  0  0  0  0  0  0  0
  147.4298  136.5284  156.8305 H   0  0  0  0  0  0  0  0  0  0  0  0
  148.3657  136.2416  155.3780 H   0  0  0  0  0  0  0  0  0  0  0  0
  150.2598  142.1436  156.2569 H   0  0  0  0  0  0  0  0  0  0  0  0
  150.0882  144.2355  157.2244 H   0  0  0  0  0  0  0  0  0  0  0  0
  1  2  1  0  0  0  0
  1 20  1  0  0  0  0
  1 21  1  0  0  0  0
  1 22  1  0  0  0  0
  2 19  1  0  0  0  0
  2  3  2  0  0  0  0
  3  4  1  0  0  0  0
  3 23  1  0  0  0  0
  4  5  2  0  0  0  0
  4 24  1  0  0  0  0
  5  6  1  0  0  0  0
  5 18  1  0  0  0  0
  6  7  1  0  0  0  0
  6 25  1  0  0  0  0
  6 26  1  0  0  0  0
  7  8  2  0  0  0  0
  7  9  1  0  0  0  0
  9 10  1  0  0  0  0
  9 27  1  0  0  0  0
 10 14  1  0  0  0  0
 10 11  1  0  0  0  0
 10 28  1  0  0  0  0
 11 12  1  0  0  0  0
 11 29  1  0  0  0  0
 11 30  1  0  0  0  0
 12 13  1  0  0  0  0
 12 31  1  0  0  0  0
 12 32  1  0  0  0  0
 13 14  1  0  0  0  0
 13 33  1  0  0  0  0
 13 34  1  0  0  0  0
 14 15  1  0  0  0  0
 14 35  1  0  0  0  0
 15 16  1  0  0  0  0
 15 17  2  0  0  0  0
 16 36  1  0  0  0  0
 16 37  1  0  0  0  0
 18 19  2  0  0  0  0
 18 38  1  0  0  0  0
 19 39  1  0  0  0  0
M  CHG  1  19   1
M  END
> <s_m_source_file>
AV-unprocessed.smi

> <i_m_source_file_index>
651

> <i_lp_mmshare_version>
43012

> <i_f3d_flags>
0

> <s_epik_input>
W0NIM11jMVtjSF1bY0hdYyhbY0hdbjEpW0NIMl1DKD1PKVtOSF1bQ0BASF0yW0NIMl1bQ0gyXVtDSDJdW0NASF0yQyg9TylbTkgyXQ==

> <s_epik_cmdline>
J2VwaWtfcHl0aG9uJywgJy1waCcsICc3LjAnLCAnLXRuJywgJzgnLCAnLW1hJywgJzIwMCcsICctbWV0YWxfYmluZGluZycsICctaW1hZScsICc8aW5maWxlLm1hZT4nLCAnLW9tYWUnLCAnPG91dGZpbGUubWFlPic=

> <r_epik_Ionization_Penalty>
2.14971

> <r_epik_Ionization_Penalty_Charging>
2.14971

> <r_epik_Ionization_Penalty_Neutral>
1.65229e-07

> <r_epik_State_Penalty>
2.28946

> <r_epik_Charging_Adjusted_Penalty>
4.43917

> <i_epik_Tot_Q>
1

> <i_epik_Tot_abs_Q>
1

> <r_epik_Metal_State_Penalty>
2.30508

> <b_epik_Metal_Only>
0

> <s_lp_Force_Field>
OPLS_2005

> <r_lp_Energy>
19.6238

> <b_lp_Chiralities_Consistent>
1

> <s_lp_Variant>
AV-unprocessed.smi:651-7

> <Gold.Version>
5.8.1

> <Gold.Id.Protein>
6NUR|6NUR_protein|mol2

> <Gold.PLP.Fitness>
43.6705

> <Gold.PLP.PLP>
-36.0608

> <Gold.PLP.part.hbond>
-2.0000

> <Gold.PLP.part.metal>
0.0000

> <Gold.PLP.part.buried>
-3.8532

> <Gold.PLP.part.nonpolar>
-31.6642

> <Gold.PLP.part.repulsive>
0.1175

> <Gold.PLP.ligand.clash>
0.0000

> <Gold.PLP.ligand.torsion>
0.4745

> <Gold.PLP.Chemscore.Hbond>
2.8320

> <Gold.PLP.Chemscore.CHOScore>
0.0000

> <Gold.PLP.Chemscore.Metal>
0.0000

> <Gold.Chemscore.Hbonds>
donor molecule, donor type, donor heavy atom, donor atom, acceptor molecule, acceptor atom, score
      L1  H    19    39       P1  8028  2.00
      P1  H  7989  7998       L1     8  0.82

> <Gold.PLP.Chemscore.Internal.Correction>
0.0627

> <Gold.Rescore>
     Score         DG    S(hbond)    S(metal)    S(lipo)     H(rot)  DE(clash)    DE(int)     intcor
     16.62     -17.04       1.58        0.00      98.40       2.04       0.01       0.41       ----

> <Gold.Chemscore.Fitness>
16.6195

> <Gold.Chemscore.DG>
-17.0393

> <Gold.Chemscore.ZeroCoef>
-5.4800

> <Gold.Chemscore.Hbond>
1.5766

> <Gold.Chemscore.Metal>
0.0000

> <Gold.Chemscore.Lipo>
98.3964

> <Gold.Chemscore.Internal_Hbond>
0.0000

> <Gold.Chemscore.DEClash>
0.0141

> <Gold.Chemscore.DEInternal>
0.4057

> <Gold.Chemscore.Rot>
2.0386

> <Gold.Chemscore.Internal.Correction>
   9.000000E+99

> <Gold.Chemscore.Hbonds>
donor molecule, donor type, donor heavy atom, donor atom, acceptor molecule, acceptor atom, score
      L1  H    19    39       P1  8028  0.64
      P1  H  7989  7998       L1     8  0.75

> <Gold.Chemscore.Hbond.Weighted>
-5.2657

> <Gold.Chemscore.Metal.Weighted>
-0.0000

> <Gold.Chemscore.Lipo.Weighted>
-11.5124

> <Gold.Chemscore.Internal_Hbond.Weighted>
0.0000

> <Gold.Chemscore.DEClash.Weighted>
0.0141

> <Gold.Chemscore.DEInternal.Weighted>
0.4057

> <Gold.Chemscore.Rot.Weighted>
5.2188

> <Gold.Chemscore.Internal.Correction.Weighted>
   9.000000E+99

> <Gold.Protein.RotatedTorsions>
[ 6907 6896 6895 6894 ] final   91.85 input  -60.11 | X-H torsion
[ 7974 7965 7964 7962 ] final    3.59 input  175.53 | X-H torsion
[ 8008 7997 7996 7995 ] final  156.43 input   59.86 | X-H torsion
[ 10167 10162 10161 10158 ] final  144.95 input  -65.29 | X-H torsion
[ 10718 10713 10712 10709 ] final  177.80 input   66.30 | X-H torsion
[ 10763 10752 10751 10750 ] final   45.44 input  -60.55 | X-H torsion
[ 11005 11000 10999 10996 ] final -168.18 input  -57.11 | X-H torsion

> <Gold.Protein.ActiveResidues>
 VAL166  LYS551  ARG553  GLY616  TRP617  ASP618  TYR619  PRO620  LYS621  CYS622 
 ASP623  PHE694  ASN695  SER759  ASP760  ASP761  ALA762  ILE779  LEU786  VAL792 
 PHE793  MET794  SER795  GLU796  ALA797  LYS798  CYS799  TRP800  GLU811  SER814 

> <Gold.Protein.RotatedAtoms>
  152.5451  134.1592  159.8550 H   0  0  0  0  0  0  0  0  0  0  0  0  # atno 6907 bound_to 6896
  151.1612  133.4837  159.2602 H   0  0  0  0  0  0  0  0  0  0  0  0  # atno 6908 bound_to 6896
  151.1371  135.0171  159.8664 H   0  0  0  0  0  0  0  0  0  0  0  0  # atno 6909 bound_to 6896
  146.2445  140.0662  142.8365 H   0  0  0  0  0  0  0  0  0  0  0  0  # atno 7974 bound_to 7965
  156.2423  140.1912  156.6954 H   0  0  0  0  0  0  0  0  0  0  0  0  # atno 8008 bound_to 7997
  154.6221  140.0607  156.9654 H   0  0  0  0  0  0  0  0  0  0  0  0  # atno 8009 bound_to 7997
  155.1846  140.3279  155.4372 H   0  0  0  0  0  0  0  0  0  0  0  0  # atno 8010 bound_to 7997
  139.4936  144.5936  151.6630 H   0  0  0  0  0  0  0  0  0  0  0  0  # atno 10167 bound_to 10162
  156.9000  130.9875  151.3037 H   0  0  0  0  0  0  0  0  0  0  0  0  # atno 10718 bound_to 10713
  152.9824  135.6039  154.3438 H   0  0  0  0  0  0  0  0  0  0  0  0  # atno 10763 bound_to 10752
  154.3132  135.2771  155.2557 H   0  0  0  0  0  0  0  0  0  0  0  0  # atno 10764 bound_to 10752
  154.4757  135.5930  153.6409 H   0  0  0  0  0  0  0  0  0  0  0  0  # atno 10765 bound_to 10752
  140.5449  134.5486  157.5108 H   0  0  0  0  0  0  0  0  0  0  0  0  # atno 11005 bound_to 11000
  145.0856  140.9250  143.4799 LP  0  0  0  0  0  0  0  0  0  0  0  0  # atno 17320 bound_to 7965
  145.0824  139.2950  143.5777 LP  0  0  0  0  0  0  0  0  0  0  0  0  # atno 17321 bound_to 7965
  140.5568  144.0334  150.6151 LP  0  0  0  0  0  0  0  0  0  0  0  0  # atno 17342 bound_to 10162
  140.3407  143.3021  152.0591 LP  0  0  0  0  0  0  0  0  0  0  0  0  # atno 17343 bound_to 10162
  157.6032  130.8528  149.8834 LP  0  0  0  0  0  0  0  0  0  0  0  0  # atno 17370 bound_to 10713
  156.0586  130.3704  150.1033 LP  0  0  0  0  0  0  0  0  0  0  0  0  # atno 17371 bound_to 10713
  139.9485  134.7659  156.0505 LP  0  0  0  0  0  0  0  0  0  0  0  0  # atno 17394 bound_to 11000
  141.1206  133.6614  156.3204 LP  0  0  0  0  0  0  0  0  0  0  0  0  # atno 17395 bound_to 11000

$$$$
