AV-unprocessed.smi:252|AV-procd|sdf|1939|dock9
  -GOLD-   2262021 63D 1   1.00000     0.00000
 Structure written by MMmdl.
 56 59  0  0  0  0  0  0  0  0  1 V2000
  152.2430  145.2154  159.5108 C   0  0  0  0  0  0  0  0  0  0  0  0
  152.1338  143.8123  160.1285 C   0  0  0  0  0  0  0  0  0  0  0  0
  151.7570  142.7227  159.1192 C   0  0  0  0  0  0  0  0  0  0  0  0
  152.5558  141.8366  158.8133 O   0  0  0  0  0  0  0  0  0  0  0  0
  150.5204  142.8063  158.6051 N   0  0  0  0  0  0  0  0  0  0  0  0
  149.9449  141.8762  157.6390 C   0  0  1  0  0  0  0  0  0  0  0  0
  150.6277  142.0615  156.2707 C   0  0  0  0  0  0  0  0  0  0  0  0
  150.1081  141.0257  155.2611 C   0  0  0  0  0  0  0  0  0  0  0  0
  150.2632  139.5995  155.8118 C   0  0  0  0  0  0  0  0  0  0  0  0
  149.6140  139.4828  157.1141 N   0  0  0  0  0  0  0  0  0  0  0  0
  149.5127  138.2124  157.5573 C   0  0  0  0  0  0  0  0  0  0  0  0
  149.6409  137.9426  158.8830 N   0  0  0  0  0  0  0  0  0  0  0  0
  149.5399  136.6822  159.3169 C   0  0  0  0  0  0  0  0  0  0  0  0
  149.3215  135.5702  158.6105 N   0  0  0  0  0  0  0  0  0  0  0  0
  149.1972  135.8428  157.2793 C   0  0  0  0  0  0  0  0  0  0  0  0
  149.2731  137.1280  156.6747 C   0  0  0  0  0  0  0  0  0  0  0  0
  149.0863  137.0245  155.3025 N   0  0  0  0  0  0  0  0  0  0  0  0
  148.9086  135.7465  155.1058 C   0  0  0  0  0  0  0  0  0  0  0  0
  148.9757  134.9610  156.2356 N   0  0  0  0  0  0  0  0  0  0  0  0
  148.8208  133.5158  156.3012 C   0  0  0  0  0  0  0  0  0  0  0  0
  149.7719  132.7259  155.3613 C   0  0  2  0  0  0  0  0  0  0  0  0
  151.1089  133.0408  155.7088 O   0  0  0  0  0  0  0  0  0  0  0  0
  149.5688  133.0231  153.8790 C   0  0  0  0  0  0  0  0  0  0  0  0
  148.4444  132.0686  153.5113 C   0  0  0  0  0  0  0  0  0  0  0  0
  148.7690  130.8848  154.2243 O   0  0  0  0  0  0  0  0  0  0  0  0
  149.4761  131.2044  155.4238 C   0  0  1  0  0  0  0  0  0  0  0  0
  150.7065  130.2823  155.4718 C   0  0  0  0  0  0  0  0  0  0  0  0
  150.0964  140.4195  158.1251 C   0  0  0  0  0  0  0  0  0  0  0  0
  152.5360  145.9459  160.2648 H   0  0  0  0  0  0  0  0  0  0  0  0
  151.2904  145.5408  159.0908 H   0  0  0  0  0  0  0  0  0  0  0  0
  152.9900  145.2438  158.7167 H   0  0  0  0  0  0  0  0  0  0  0  0
  153.0854  143.5457  160.5900 H   0  0  0  0  0  0  0  0  0  0  0  0
  151.3897  143.8210  160.9257 H   0  0  0  0  0  0  0  0  0  0  0  0
  149.9311  143.5669  158.9109 H   0  0  0  0  0  0  0  0  0  0  0  0
  148.8825  142.1002  157.5218 H   0  0  0  0  0  0  0  0  0  0  0  0
  150.4520  143.0694  155.8930 H   0  0  0  0  0  0  0  0  0  0  0  0
  151.7080  141.9505  156.3765 H   0  0  0  0  0  0  0  0  0  0  0  0
  149.0563  141.2202  155.0469 H   0  0  0  0  0  0  0  0  0  0  0  0
  150.6412  141.1219  154.3149 H   0  0  0  0  0  0  0  0  0  0  0  0
  149.8288  138.8821  155.1140 H   0  0  0  0  0  0  0  0  0  0  0  0
  151.3216  139.3525  155.9084 H   0  0  0  0  0  0  0  0  0  0  0  0
  149.6495  136.5439  160.3823 H   0  0  0  0  0  0  0  0  0  0  0  0
  148.7322  135.3363  154.1218 H   0  0  0  0  0  0  0  0  0  0  0  0
  148.9770  133.2052  157.3354 H   0  0  0  0  0  0  0  0  0  0  0  0
  147.7802  133.2809  156.0737 H   0  0  0  0  0  0  0  0  0  0  0  0
  151.2141  133.9792  155.6754 H   0  0  0  0  0  0  0  0  0  0  0  0
  149.3432  134.0627  153.6466 H   0  0  0  0  0  0  0  0  0  0  0  0
  150.4597  132.7506  153.3105 H   0  0  0  0  0  0  0  0  0  0  0  0
  147.4805  132.4493  153.8511 H   0  0  0  0  0  0  0  0  0  0  0  0
  148.3812  131.8846  152.4388 H   0  0  0  0  0  0  0  0  0  0  0  0
  148.8358  130.9743  156.2767 H   0  0  0  0  0  0  0  0  0  0  0  0
  151.2835  130.4362  156.3840 H   0  0  0  0  0  0  0  0  0  0  0  0
  151.3655  130.4529  154.6199 H   0  0  0  0  0  0  0  0  0  0  0  0
  150.4046  129.2348  155.4506 H   0  0  0  0  0  0  0  0  0  0  0  0
  151.1439  140.2061  158.3444 H   0  0  0  0  0  0  0  0  0  0  0  0
  149.5398  140.2726  159.0519 H   0  0  0  0  0  0  0  0  0  0  0  0
  1  2  1  0  0  0  0
  1 29  1  0  0  0  0
  1 30  1  0  0  0  0
  1 31  1  0  0  0  0
  2  3  1  0  0  0  0
  2 32  1  0  0  0  0
  2 33  1  0  0  0  0
  3  4  2  0  0  0  0
  3  5  1  0  0  0  0
  5  6  1  0  0  0  0
  5 34  1  0  0  0  0
  6 28  1  0  0  0  0
  6  7  1  0  0  0  0
  6 35  1  0  0  0  0
  7  8  1  0  0  0  0
  7 36  1  0  0  0  0
  7 37  1  0  0  0  0
  8  9  1  0  0  0  0
  8 38  1  0  0  0  0
  8 39  1  0  0  0  0
  9 10  1  0  0  0  0
  9 40  1  0  0  0  0
  9 41  1  0  0  0  0
 10 11  1  0  0  0  0
 10 28  1  0  0  0  0
 11 16  1  0  0  0  0
 11 12  2  0  0  0  0
 12 13  1  0  0  0  0
 13 14  2  0  0  0  0
 13 42  1  0  0  0  0
 14 15  1  0  0  0  0
 15 19  1  0  0  0  0
 15 16  2  0  0  0  0
 16 17  1  0  0  0  0
 17 18  2  0  0  0  0
 18 19  1  0  0  0  0
 18 43  1  0  0  0  0
 19 20  1  0  0  0  0
 20 21  1  0  0  0  0
 20 44  1  0  0  0  0
 20 45  1  0  0  0  0
 21 26  1  0  0  0  0
 21 22  1  0  0  0  0
 21 23  1  0  0  0  0
 22 46  1  0  0  0  0
 23 24  1  0  0  0  0
 23 47  1  0  0  0  0
 23 48  1  0  0  0  0
 24 25  1  0  0  0  0
 24 49  1  0  0  0  0
 24 50  1  0  0  0  0
 25 26  1  0  0  0  0
 26 27  1  0  0  0  0
 26 51  1  0  0  0  0
 27 52  1  0  0  0  0
 27 53  1  0  0  0  0
 27 54  1  0  0  0  0
 28 55  1  0  0  0  0
 28 56  1  0  0  0  0
M  END
> <s_m_source_file>
AV-unprocessed.smi

> <i_m_source_file_index>
252

> <i_lp_mmshare_version>
43012

> <i_f3d_flags>
0

> <s_epik_input>
W0NIM11bQ0gyXUMoPU8pW05IXVtDQEBIXTFbQ0gyXVtDSDJdW0NIMl1OKFtDSDJdMSljKG5bY0hdbjIpYyhjMjMpbltjSF1uM1tDSDJdW0NAQF00KFtPSF0pW0NIMl1bQ0gyXU9bQ0BIXTRbQ0gzXQ==

> <s_epik_cmdline>
J2VwaWtfcHl0aG9uJywgJy1waCcsICc3LjAnLCAnLXRuJywgJzgnLCAnLW1hJywgJzIwMCcsICctbWV0YWxfYmluZGluZycsICctaW1hZScsICc8aW5maWxlLm1hZT4nLCAnLW9tYWUnLCAnPG91dGZpbGUubWFlPic=

> <r_lp_tautomer_probability>
1

> <r_epik_Ionization_Penalty>
0.00182575

> <r_epik_Ionization_Penalty_Charging>
0

> <r_epik_Ionization_Penalty_Neutral>
0.00182575

> <r_epik_State_Penalty>
0.00104524

> <r_epik_Charging_Adjusted_Penalty>
0.00104524

> <i_epik_Tot_Q>
0

> <i_epik_Tot_abs_Q>
0

> <r_epik_Metal_State_Penalty>
-0

> <b_epik_Metal_Only>
0

> <s_lp_Force_Field>
OPLS_2005

> <r_lp_Energy>
37.9455

> <b_lp_Chiralities_Consistent>
1

> <s_lp_Variant>
AV-unprocessed.smi:252-4

> <Gold.Version>
5.8.1

> <Gold.Id.Protein>
6NUR|6NUR_protein|mol2

> <Gold.PLP.Fitness>
40.6724

> <Gold.PLP.PLP>
-35.6664

> <Gold.PLP.part.hbond>
-1.5218

> <Gold.PLP.part.metal>
0.0000

> <Gold.PLP.part.buried>
-4.2402

> <Gold.PLP.part.nonpolar>
-29.4598

> <Gold.PLP.part.repulsive>
0.2146

> <Gold.PLP.ligand.clash>
0.0000

> <Gold.PLP.ligand.torsion>
0.6218

> <Gold.PLP.Chemscore.Hbond>
1.0000

> <Gold.PLP.Chemscore.CHOScore>
1.0000

> <Gold.PLP.Chemscore.Metal>
0.0000

> <Gold.Chemscore.Hbonds>
donor molecule, donor type, donor heavy atom, donor atom, acceptor molecule, acceptor atom, score
      P1  H  6896  6908       L1    14  1.00
      L1  C    18    43       P1  7948  1.00

> <Gold.PLP.Chemscore.Internal.Correction>
0.2496

> <Gold.Rescore>
     Score         DG    S(hbond)    S(metal)    S(lipo)     H(rot)  DE(clash)    DE(int)     intcor
      7.66     -10.90       0.84        0.00      81.57       2.70       0.07       3.18       ----

> <Gold.Chemscore.Fitness>
7.6571

> <Gold.Chemscore.DG>
-10.9023

> <Gold.Chemscore.ZeroCoef>
-5.4800

> <Gold.Chemscore.Hbond>
0.8387

> <Gold.Chemscore.Metal>
0.0000

> <Gold.Chemscore.Lipo>
81.5686

> <Gold.Chemscore.Internal_Hbond>
0.0000

> <Gold.Chemscore.DEClash>
0.0689

> <Gold.Chemscore.DEInternal>
3.1764

> <Gold.Chemscore.Rot>
2.7041

> <Gold.Chemscore.Internal.Correction>
   9.000000E+99

> <Gold.Chemscore.Hbonds>
donor molecule, donor type, donor heavy atom, donor atom, acceptor molecule, acceptor atom, score
      P1  H  6896  6908       L1    14  0.24

> <Gold.Chemscore.Hbond.Weighted>
-2.8013

> <Gold.Chemscore.Metal.Weighted>
-0.0000

> <Gold.Chemscore.Lipo.Weighted>
-9.5435

> <Gold.Chemscore.Internal_Hbond.Weighted>
0.0000

> <Gold.Chemscore.DEClash.Weighted>
0.0689

> <Gold.Chemscore.DEInternal.Weighted>
3.1764

> <Gold.Chemscore.Rot.Weighted>
6.9225

> <Gold.Chemscore.Internal.Correction.Weighted>
   9.000000E+99

> <Gold.Protein.RotatedTorsions>
[ 6907 6896 6895 6894 ] final  153.88 input  -60.11 | X-H torsion
[ 7974 7965 7964 7962 ] final  -68.44 input  175.53 | X-H torsion
[ 8008 7997 7996 7995 ] final  107.76 input   59.86 | X-H torsion
[ 10167 10162 10161 10158 ] final -127.07 input  -65.29 | X-H torsion
[ 10718 10713 10712 10709 ] final  159.08 input   66.30 | X-H torsion
[ 10763 10752 10751 10750 ] final   -3.39 input  -60.55 | X-H torsion
[ 11005 11000 10999 10996 ] final  109.22 input  -57.11 | X-H torsion

> <Gold.Protein.ActiveResidues>
 VAL166  LYS551  ARG553  GLY616  TRP617  ASP618  TYR619  PRO620  LYS621  CYS622 
 ASP623  PHE694  ASN695  SER759  ASP760  ASP761  ALA762  ILE779  LEU786  VAL792 
 PHE793  MET794  SER795  GLU796  ALA797  LYS798  CYS799  TRP800  GLU811  SER814 

> <Gold.Protein.RotatedAtoms>
  152.0664  133.4086  159.4439 H   0  0  0  0  0  0  0  0  0  0  0  0  # atno 6907 bound_to 6896
  150.6864  134.3141  159.4768 H   0  0  0  0  0  0  0  0  0  0  0  0  # atno 6908 bound_to 6896
  152.0968  134.9369  160.0621 H   0  0  0  0  0  0  0  0  0  0  0  0  # atno 6909 bound_to 6896
  145.7165  140.9057  143.0653 H   0  0  0  0  0  0  0  0  0  0  0  0  # atno 7974 bound_to 7965
  156.1850  140.3089  155.9221 H   0  0  0  0  0  0  0  0  0  0  0  0  # atno 8008 bound_to 7997
  155.3301  140.0460  157.3059 H   0  0  0  0  0  0  0  0  0  0  0  0  # atno 8009 bound_to 7997
  154.5385  140.2254  155.8691 H   0  0  0  0  0  0  0  0  0  0  0  0  # atno 8010 bound_to 7997
  139.9647  143.5911  152.2433 H   0  0  0  0  0  0  0  0  0  0  0  0  # atno 10167 bound_to 10162
  157.1691  131.0606  151.2192 H   0  0  0  0  0  0  0  0  0  0  0  0  # atno 10718 bound_to 10713
  153.3707  135.6994  153.6640 H   0  0  0  0  0  0  0  0  0  0  0  0  # atno 10763 bound_to 10752
  153.5291  135.3596  155.2668 H   0  0  0  0  0  0  0  0  0  0  0  0  # atno 10764 bound_to 10752
  154.8681  135.4176  154.2985 H   0  0  0  0  0  0  0  0  0  0  0  0  # atno 10765 bound_to 10752
  139.8858  134.9452  156.6093 H   0  0  0  0  0  0  0  0  0  0  0  0  # atno 11005 bound_to 11000
  144.6928  139.9144  143.7465 LP  0  0  0  0  0  0  0  0  0  0  0  0  # atno 17320 bound_to 7965
  146.0665  139.3656  143.0549 LP  0  0  0  0  0  0  0  0  0  0  0  0  # atno 17321 bound_to 7965
  139.6527  144.7661  151.2117 LP  0  0  0  0  0  0  0  0  0  0  0  0  # atno 17342 bound_to 10162
  140.7542  143.6135  150.8582 LP  0  0  0  0  0  0  0  0  0  0  0  0  # atno 17343 bound_to 10162
  157.4060  130.7359  149.6803 LP  0  0  0  0  0  0  0  0  0  0  0  0  # atno 17370 bound_to 10713
  155.9741  130.4108  150.3949 LP  0  0  0  0  0  0  0  0  0  0  0  0  # atno 17371 bound_to 10713
  140.7824  133.8649  155.8578 LP  0  0  0  0  0  0  0  0  0  0  0  0  # atno 17394 bound_to 11000
  140.9749  134.1483  157.4545 LP  0  0  0  0  0  0  0  0  0  0  0  0  # atno 17395 bound_to 11000

$$$$
