AV-unprocessed.smi:765|AV-procd|sdf|3649|dock6
  -GOLD-   22720 1 53D 1   1.00000     0.00000
 Structure written by MMmdl.
 39 40  0  0  0  0  0  0  0  0  1 V2000
  146.3692  142.0157  153.8740 C   0  0  0  0  0  0  0  0  0  0  0  0
  147.3923  141.2409  154.7165 C   0  0  2  0  0  0  0  0  0  0  0  0
  146.7007  140.3947  155.8002 C   0  0  0  0  0  0  0  0  0  0  0  0
  147.7210  139.6327  156.6570 C   0  0  0  0  0  0  0  0  0  0  0  0
  148.7446  140.5960  157.2789 C   0  0  0  0  0  0  0  0  0  0  0  0
  149.4784  141.4409  156.2139 C   0  0  2  0  0  0  0  0  0  0  0  0
  150.3053  140.5546  155.3700 C   0  0  0  0  0  0  0  0  0  0  0  0
  150.9526  139.8595  154.7088 N   0  0  0  0  0  0  0  0  0  0  0  0
  150.3079  142.4111  156.9309 N   0  0  0  0  0  0  0  0  0  0  0  0
  151.3788  142.1496  157.6996 C   0  0  0  0  0  0  0  0  0  0  0  0
  151.7838  141.0104  157.9319 O   0  0  0  0  0  0  0  0  0  0  0  0
  152.1079  143.3743  158.2724 C   0  0  1  0  0  0  0  0  0  0  0  0
  151.2796  144.6685  158.1724 C   0  0  0  0  0  0  0  0  0  0  0  0
  152.5121  143.1178  159.6488 N   0  0  0  0  0  0  0  0  0  0  0  0
  152.2166  143.8409  160.7887 C   0  0  0  0  0  0  0  0  0  0  0  0
  152.8138  143.2083  161.8407 C   0  0  0  0  0  0  0  0  0  0  0  0
  153.4644  142.0951  161.2397 C   0  0  0  0  0  0  0  0  0  0  0  0
  153.2824  142.0436  159.9302 N   0  0  0  0  0  0  0  0  0  0  0  0
  148.4267  142.1894  155.3559 C   0  0  0  0  0  0  0  0  0  0  0  0
  145.8002  142.7162  154.4862 H   0  0  0  0  0  0  0  0  0  0  0  0
  145.6602  141.3384  153.3970 H   0  0  0  0  0  0  0  0  0  0  0  0
  146.8611  142.5860  153.0854 H   0  0  0  0  0  0  0  0  0  0  0  0
  147.9201  140.5628  154.0448 H   0  0  0  0  0  0  0  0  0  0  0  0
  146.0983  141.0392  156.4423 H   0  0  0  0  0  0  0  0  0  0  0  0
  146.0100  139.6880  155.3390 H   0  0  0  0  0  0  0  0  0  0  0  0
  147.2048  139.0826  157.4441 H   0  0  0  0  0  0  0  0  0  0  0  0
  148.2321  138.8876  156.0465 H   0  0  0  0  0  0  0  0  0  0  0  0
  148.2282  141.2526  157.9812 H   0  0  0  0  0  0  0  0  0  0  0  0
  149.4661  140.0284  157.8683 H   0  0  0  0  0  0  0  0  0  0  0  0
  150.0594  143.3820  156.8069 H   0  0  0  0  0  0  0  0  0  0  0  0
  153.0101  143.5191  157.6745 H   0  0  0  0  0  0  0  0  0  0  0  0
  150.9887  144.8724  157.1414 H   0  0  0  0  0  0  0  0  0  0  0  0
  151.8559  145.5246  158.5241 H   0  0  0  0  0  0  0  0  0  0  0  0
  150.3697  144.6160  158.7719 H   0  0  0  0  0  0  0  0  0  0  0  0
  151.6099  144.7342  160.7556 H   0  0  0  0  0  0  0  0  0  0  0  0
  152.7901  143.4971  162.8808 H   0  0  0  0  0  0  0  0  0  0  0  0
  154.0594  141.3277  161.7127 H   0  0  0  0  0  0  0  0  0  0  0  0
  148.9226  142.7582  154.5684 H   0  0  0  0  0  0  0  0  0  0  0  0
  147.9058  142.9222  155.9747 H   0  0  0  0  0  0  0  0  0  0  0  0
  1  2  1  0  0  0  0
  1 20  1  0  0  0  0
  1 21  1  0  0  0  0
  1 22  1  0  0  0  0
  2 19  1  0  0  0  0
  2  3  1  0  0  0  0
  2 23  1  0  0  0  0
  3  4  1  0  0  0  0
  3 24  1  0  0  0  0
  3 25  1  0  0  0  0
  4  5  1  0  0  0  0
  4 26  1  0  0  0  0
  4 27  1  0  0  0  0
  5  6  1  0  0  0  0
  5 28  1  0  0  0  0
  5 29  1  0  0  0  0
  6  7  1  0  0  0  0
  6  9  1  0  0  0  0
  6 19  1  0  0  0  0
  7  8  3  0  0  0  0
  9 10  1  0  0  0  0
  9 30  1  0  0  0  0
 10 11  2  0  0  0  0
 10 12  1  0  0  0  0
 12 13  1  0  0  0  0
 12 14  1  0  0  0  0
 12 31  1  0  0  0  0
 13 32  1  0  0  0  0
 13 33  1  0  0  0  0
 13 34  1  0  0  0  0
 14 18  1  0  0  0  0
 14 15  1  0  0  0  0
 15 16  2  0  0  0  0
 15 35  1  0  0  0  0
 16 17  1  0  0  0  0
 16 36  1  0  0  0  0
 17 18  2  0  0  0  0
 17 37  1  0  0  0  0
 19 38  1  0  0  0  0
 19 39  1  0  0  0  0
M  END
> <s_m_source_file>
AV-unprocessed.smi

> <i_m_source_file_index>
765

> <i_lp_mmshare_version>
43012

> <i_f3d_flags>
0

> <s_epik_input>
W0NIM11bQ0BASF0oW0NIMl0xKVtDSDJdW0NIMl1bQ0gyXVtDQEBdMShDI04pW05IXUMoPU8pW0NASF0oW0NIM10pbjJbY0hdW2NIXVtjSF1uMg==

> <s_epik_cmdline>
J2VwaWtfcHl0aG9uJywgJy1waCcsICc3LjAnLCAnLXRuJywgJzgnLCAnLW1hJywgJzIwMCcsICctbWV0YWxfYmluZGluZycsICctaW1hZScsICc8aW5maWxlLm1hZT4nLCAnLW9tYWUnLCAnPG91dGZpbGUubWFlPic=

> <r_lp_tautomer_probability>
1

> <r_epik_Ionization_Penalty>
2.71142e-05

> <r_epik_Ionization_Penalty_Charging>
0

> <r_epik_Ionization_Penalty_Neutral>
2.71142e-05

> <r_epik_State_Penalty>
-0

> <r_epik_Charging_Adjusted_Penalty>
0

> <i_epik_Tot_Q>
0

> <i_epik_Tot_abs_Q>
0

> <r_epik_Metal_State_Penalty>
-0

> <b_epik_Metal_Only>
0

> <s_lp_Force_Field>
OPLS_2005

> <r_lp_Energy>
10.7608

> <b_lp_Chiralities_Consistent>
1

> <s_lp_Variant>
AV-unprocessed.smi:765-7

> <Gold.Version>
5.8.1

> <Gold.Id.Protein>
6NUR|6NUR_protein|mol2

> <Gold.PLP.Fitness>
43.3267

> <Gold.PLP.PLP>
-38.6997

> <Gold.PLP.part.hbond>
-2.0000

> <Gold.PLP.part.metal>
0.0000

> <Gold.PLP.part.buried>
-2.2171

> <Gold.PLP.part.nonpolar>
-34.2218

> <Gold.PLP.part.repulsive>
0.0999

> <Gold.PLP.ligand.clash>
0.0000

> <Gold.PLP.ligand.torsion>
0.5277

> <Gold.PLP.Chemscore.Hbond>
1.8723

> <Gold.PLP.Chemscore.CHOScore>
0.0000

> <Gold.PLP.Chemscore.Metal>
0.0000

> <Gold.Chemscore.Hbonds>
donor molecule, donor type, donor heavy atom, donor atom, acceptor molecule, acceptor atom, score
      L1  H     9    30       P1  8028  0.71
      P1  H  7989  7998       L1     8  1.00

> <Gold.PLP.Chemscore.Internal.Correction>
0.0656

> <Gold.Rescore>
     Score         DG    S(hbond)    S(metal)    S(lipo)     H(rot)  DE(clash)    DE(int)     intcor
     13.40     -17.95       1.73        0.00      88.17       1.42       1.52       3.03       ----

> <Gold.Chemscore.Fitness>
13.3997

> <Gold.Chemscore.DG>
-17.9529

> <Gold.Chemscore.ZeroCoef>
-5.4800

> <Gold.Chemscore.Hbond>
1.7330

> <Gold.Chemscore.Metal>
0.0000

> <Gold.Chemscore.Lipo>
88.1682

> <Gold.Chemscore.Internal_Hbond>
0.0000

> <Gold.Chemscore.DEClash>
1.5191

> <Gold.Chemscore.DEInternal>
3.0340

> <Gold.Chemscore.Rot>
1.4183

> <Gold.Chemscore.Internal.Correction>
   9.000000E+99

> <Gold.Chemscore.Hbonds>
donor molecule, donor type, donor heavy atom, donor atom, acceptor molecule, acceptor atom, score
      L1  H     9    30       P1  8028  0.69
      P1  H  7989  7998       L1     8  0.55

> <Gold.Chemscore.Hbond.Weighted>
-5.7881

> <Gold.Chemscore.Metal.Weighted>
-0.0000

> <Gold.Chemscore.Lipo.Weighted>
-10.3157

> <Gold.Chemscore.Internal_Hbond.Weighted>
0.0000

> <Gold.Chemscore.DEClash.Weighted>
1.5191

> <Gold.Chemscore.DEInternal.Weighted>
3.0340

> <Gold.Chemscore.Rot.Weighted>
3.6309

> <Gold.Chemscore.Internal.Correction.Weighted>
   9.000000E+99

> <Gold.Protein.RotatedTorsions>
[ 6907 6896 6895 6894 ] final  126.67 input  -60.11 | X-H torsion
[ 7974 7965 7964 7962 ] final   -0.61 input  175.53 | X-H torsion
[ 8008 7997 7996 7995 ] final -146.52 input   59.86 | X-H torsion
[ 10167 10162 10161 10158 ] final  120.14 input  -65.29 | X-H torsion
[ 10718 10713 10712 10709 ] final  158.05 input   66.30 | X-H torsion
[ 10763 10752 10751 10750 ] final  -21.07 input  -60.55 | X-H torsion
[ 11005 11000 10999 10996 ] final -142.89 input  -57.11 | X-H torsion

> <Gold.Protein.ActiveResidues>
 VAL166  LYS551  ARG553  GLY616  TRP617  ASP618  TYR619  PRO620  LYS621  CYS622 
 ASP623  PHE694  ASN695  SER759  ASP760  ASP761  ALA762  ILE779  LEU786  VAL792 
 PHE793  MET794  SER795  GLU796  ALA797  LYS798  CYS799  TRP800  GLU811  SER814 

> <Gold.Protein.RotatedAtoms>
  152.3882  133.6642  159.6216 H   0  0  0  0  0  0  0  0  0  0  0  0  # atno 6907 bound_to 6896
  150.7796  133.8998  159.3347 H   0  0  0  0  0  0  0  0  0  0  0  0  # atno 6908 bound_to 6896
  151.6790  135.0966  160.0264 H   0  0  0  0  0  0  0  0  0  0  0  0  # atno 6909 bound_to 6896
  146.2425  140.1296  142.8338 H   0  0  0  0  0  0  0  0  0  0  0  0  # atno 7974 bound_to 7965
  155.5607  140.0625  157.2829 H   0  0  0  0  0  0  0  0  0  0  0  0  # atno 8008 bound_to 7997
  154.4391  140.1886  156.0825 H   0  0  0  0  0  0  0  0  0  0  0  0  # atno 8009 bound_to 7997
  156.0449  140.3291  155.7289 H   0  0  0  0  0  0  0  0  0  0  0  0  # atno 8010 bound_to 7997
  139.6001  144.7054  151.3083 H   0  0  0  0  0  0  0  0  0  0  0  0  # atno 10167 bound_to 10162
  157.1832  131.0637  151.2120 H   0  0  0  0  0  0  0  0  0  0  0  0  # atno 10718 bound_to 10713
  153.6304  135.6989  153.5277 H   0  0  0  0  0  0  0  0  0  0  0  0  # atno 10763 bound_to 10752
  153.2864  135.4170  155.1126 H   0  0  0  0  0  0  0  0  0  0  0  0  # atno 10764 bound_to 10752
  154.8523  135.3614  154.5847 H   0  0  0  0  0  0  0  0  0  0  0  0  # atno 10765 bound_to 10752
  140.8180  134.2665  157.4912 H   0  0  0  0  0  0  0  0  0  0  0  0  # atno 11005 bound_to 11000
  145.0337  140.8891  143.5094 LP  0  0  0  0  0  0  0  0  0  0  0  0  # atno 17320 bound_to 7965
  145.1365  139.2599  143.5512 LP  0  0  0  0  0  0  0  0  0  0  0  0  # atno 17321 bound_to 7965
  140.7243  143.7049  150.7816 LP  0  0  0  0  0  0  0  0  0  0  0  0  # atno 17342 bound_to 10162
  140.0623  143.5142  152.2621 LP  0  0  0  0  0  0  0  0  0  0  0  0  # atno 17343 bound_to 10162
  157.3932  130.7293  149.6713 LP  0  0  0  0  0  0  0  0  0  0  0  0  # atno 17370 bound_to 10713
  155.9721  130.4141  150.4114 LP  0  0  0  0  0  0  0  0  0  0  0  0  # atno 17371 bound_to 10713
  139.8710  134.9520  156.4101 LP  0  0  0  0  0  0  0  0  0  0  0  0  # atno 17394 bound_to 11000
  140.9128  133.7699  155.9813 LP  0  0  0  0  0  0  0  0  0  0  0  0  # atno 17395 bound_to 11000

$$$$
