AV-unprocessed.smi:215|AV-procd|sdf|1651|dock7
  -GOLD-   2262020 33D 1   1.00000     0.00000
 Structure written by MMmdl.
 59 62  0  0  0  0  0  0  0  0  2 V2000
  145.8058  136.4000  155.3303 C   0  0  0  0  0  0  0  0  0  0  0  0
  146.7173  136.8379  154.1622 C   0  0  1  0  0  0  0  0  0  0  0  0
  145.9753  136.8510  152.7980 C   0  0  2  0  0  0  0  0  0  0  0  0
  146.1516  135.6265  151.9537 N   0  3  2  0  0  0  0  0  0  0  0  0
  145.3139  135.6844  150.7268 C   0  0  0  0  0  0  0  0  0  0  0  0
  145.9879  134.3375  152.6870 C   0  0  0  0  0  0  0  0  0  0  0  0
  146.3596  133.0929  151.8584 C   0  0  0  0  0  0  0  0  0  0  0  0
  147.7450  132.8347  151.9549 O   0  0  0  0  0  0  0  0  0  0  0  0
  146.5267  138.1129  152.1124 C   0  0  0  0  0  0  0  0  0  0  0  0
  146.8084  139.0721  153.2609 C   0  0  0  0  0  0  0  0  0  0  0  0
  147.1748  138.2085  154.3688 N   0  0  0  0  0  0  0  0  0  0  0  0
  148.0597  138.6047  155.3223 C   0  0  0  0  0  0  0  0  0  0  0  0
  148.3143  137.7419  156.3410 N   0  0  0  0  0  0  0  0  0  0  0  0
  149.1789  138.0640  157.3066 C   0  0  0  0  0  0  0  0  0  0  0  0
  149.8916  139.1816  157.4470 N   0  0  0  0  0  0  0  0  0  0  0  0
  149.6421  140.0578  156.4328 C   0  0  0  0  0  0  0  0  0  0  0  0
  148.7449  139.8573  155.3430 C   0  0  0  0  0  0  0  0  0  0  0  0
  148.7420  140.9899  154.5346 N   0  0  0  0  0  0  0  0  0  0  0  0
  149.5867  141.8028  155.1066 C   0  0  0  0  0  0  0  0  0  0  0  0
  150.1951  141.3113  156.2379 N   0  0  0  0  0  0  0  0  0  0  0  0
  151.1285  141.9983  157.0819 C   0  0  0  0  0  0  0  0  0  0  0  0
  150.7937  142.3301  158.5404 C   0  0  0  0  0  0  0  0  0  0  0  0
  151.6368  143.6214  158.4260 C   0  0  0  0  0  0  0  0  0  0  0  0
  151.0788  144.8744  159.1300 C   0  0  0  0  0  0  0  0  0  0  0  0
  149.6665  144.9300  159.1029 O   0  0  0  0  0  0  0  0  0  0  0  0
  153.1007  143.4595  158.8783 C   0  0  0  0  0  0  0  0  0  0  0  0
  153.1860  143.0685  160.2339 O   0  0  0  0  0  0  0  0  0  0  0  0
  151.3954  143.4957  156.9038 C   0  0  0  0  0  0  0  0  0  0  0  0
  147.5951  136.1975  154.0852 H   0  0  0  0  0  0  0  0  0  0  0  0
  144.9095  137.0011  152.9804 H   0  0  0  0  0  0  0  0  0  0  0  0
  145.4012  135.3991  155.1936 H   0  0  0  0  0  0  0  0  0  0  0  0
  144.9578  137.0773  155.4380 H   0  0  0  0  0  0  0  0  0  0  0  0
  146.3387  136.4011  156.2805 H   0  0  0  0  0  0  0  0  0  0  0  0
  144.2554  135.5939  150.9738 H   0  0  0  0  0  0  0  0  0  0  0  0
  145.5702  134.8947  150.0227 H   0  0  0  0  0  0  0  0  0  0  0  0
  145.4521  136.6171  150.1821 H   0  0  0  0  0  0  0  0  0  0  0  0
  146.6290  134.3148  153.5656 H   0  0  0  0  0  0  0  0  0  0  0  0
  144.9606  134.2555  153.0445 H   0  0  0  0  0  0  0  0  0  0  0  0
  145.8274  132.2245  152.2474 H   0  0  0  0  0  0  0  0  0  0  0  0
  146.0674  133.1813  150.8130 H   0  0  0  0  0  0  0  0  0  0  0  0
  148.0076  132.3039  151.2178 H   0  0  0  0  0  0  0  0  0  0  0  0
  147.4622  137.8828  151.5998 H   0  0  0  0  0  0  0  0  0  0  0  0
  145.8409  138.5460  151.3840 H   0  0  0  0  0  0  0  0  0  0  0  0
  147.5965  139.7790  152.9979 H   0  0  0  0  0  0  0  0  0  0  0  0
  145.9138  139.6352  153.5293 H   0  0  0  0  0  0  0  0  0  0  0  0
  149.3214  137.3189  158.0754 H   0  0  0  0  0  0  0  0  0  0  0  0
  149.7920  142.7873  154.7121 H   0  0  0  0  0  0  0  0  0  0  0  0
  152.0599  141.4330  157.0195 H   0  0  0  0  0  0  0  0  0  0  0  0
  149.7284  142.5126  158.6897 H   0  0  0  0  0  0  0  0  0  0  0  0
  151.1654  141.6029  159.2628 H   0  0  0  0  0  0  0  0  0  0  0  0
  151.3940  144.9056  160.1734 H   0  0  0  0  0  0  0  0  0  0  0  0
  151.4508  145.7860  158.6617 H   0  0  0  0  0  0  0  0  0  0  0  0
  149.3947  145.2472  158.2553 H   0  0  0  0  0  0  0  0  0  0  0  0
  153.6204  142.7205  158.2673 H   0  0  0  0  0  0  0  0  0  0  0  0
  153.6561  144.3908  158.7658 H   0  0  0  0  0  0  0  0  0  0  0  0
  153.8970  143.5410  160.6391 H   0  0  0  0  0  0  0  0  0  0  0  0
  152.2581  143.7250  156.2777 H   0  0  0  0  0  0  0  0  0  0  0  0
  150.5121  144.0330  156.5549 H   0  0  0  0  0  0  0  0  0  0  0  0
  147.1136  135.6419  151.6451 H   0  0  0  0  0  0  0  0  0  0  0  0
  1  2  1  0  0  0  0
  1 31  1  0  0  0  0
  1 32  1  0  0  0  0
  1 33  1  0  0  0  0
  2 29  1  0  0  0  0
  2 11  1  0  0  0  0
  2  3  1  0  0  0  0
  3 30  1  0  0  0  0
  3  4  1  0  0  0  0
  3  9  1  0  0  0  0
  4  5  1  0  0  0  0
  4  6  1  0  0  0  0
  4 59  1  0  0  0  0
  5 34  1  0  0  0  0
  5 35  1  0  0  0  0
  5 36  1  0  0  0  0
  6  7  1  0  0  0  0
  6 37  1  0  0  0  0
  6 38  1  0  0  0  0
  7  8  1  0  0  0  0
  7 39  1  0  0  0  0
  7 40  1  0  0  0  0
  8 41  1  0  0  0  0
  9 10  1  0  0  0  0
  9 42  1  0  0  0  0
  9 43  1  0  0  0  0
 10 11  1  0  0  0  0
 10 44  1  0  0  0  0
 10 45  1  0  0  0  0
 11 12  1  0  0  0  0
 12 17  1  0  0  0  0
 12 13  2  0  0  0  0
 13 14  1  0  0  0  0
 14 15  2  0  0  0  0
 14 46  1  0  0  0  0
 15 16  1  0  0  0  0
 16 20  1  0  0  0  0
 16 17  2  0  0  0  0
 17 18  1  0  0  0  0
 18 19  2  0  0  0  0
 19 20  1  0  0  0  0
 19 47  1  0  0  0  0
 20 21  1  0  0  0  0
 21 28  1  0  0  0  0
 21 22  1  0  0  0  0
 21 48  1  0  0  0  0
 22 23  1  0  0  0  0
 22 49  1  0  0  0  0
 22 50  1  0  0  0  0
 23 24  1  0  0  0  0
 23 26  1  0  0  0  0
 23 28  1  0  0  0  0
 24 25  1  0  0  0  0
 24 51  1  0  0  0  0
 24 52  1  0  0  0  0
 25 53  1  0  0  0  0
 26 27  1  0  0  0  0
 26 54  1  0  0  0  0
 26 55  1  0  0  0  0
 27 56  1  0  0  0  0
 28 57  1  0  0  0  0
 28 58  1  0  0  0  0
M  CHG  1   4   1
M  END
> <s_m_source_file>
AV-unprocessed.smi

> <i_m_source_file_index>
215

> <i_lp_mmshare_version>
43012

> <i_f3d_flags>
0

> <s_epik_input>
W09IXVtDSDJdW0NIMl1OKFtDSDNdKVtDQEBIXShbQ0BIXTFbQ0gzXSlbQ0gyXVtDSDJdTjFjKG5bY0hdbjIpYyhjMjMpbltjSF1uM1tDSF0oW0NIMl00KVtDSDJdQzQoW0NIMl1bT0hdKVtDSDJdW09IXQ==

> <s_epik_cmdline>
J2VwaWtfcHl0aG9uJywgJy1waCcsICc3LjAnLCAnLXRuJywgJzgnLCAnLW1hJywgJzIwMCcsICctbWV0YWxfYmluZGluZycsICctaW1hZScsICc8aW5maWxlLm1hZT4nLCAnLW9tYWUnLCAnPG91dGZpbGUubWFlPic=

> <r_lp_tautomer_probability>
1

> <r_epik_Ionization_Penalty>
0.0036237

> <r_epik_Ionization_Penalty_Charging>
0.0032725

> <r_epik_Ionization_Penalty_Neutral>
0.000351196

> <r_epik_State_Penalty>
-0

> <r_epik_Charging_Adjusted_Penalty>
0.0032725

> <i_epik_Tot_Q>
1

> <i_epik_Tot_abs_Q>
1

> <r_epik_Metal_State_Penalty>
-0

> <b_epik_Metal_Only>
0

> <s_lp_Force_Field>
OPLS_2005

> <r_lp_Energy>
68.3917

> <b_lp_Chiralities_Consistent>
1

> <s_lp_Variant>
AV-unprocessed.smi:215-2

> <Gold.Version>
5.8.1

> <Gold.Id.Protein>
6NUR|6NUR_protein|mol2

> <Gold.PLP.Fitness>
52.6804

> <Gold.PLP.PLP>
-39.0313

> <Gold.PLP.part.hbond>
-3.0000

> <Gold.PLP.part.metal>
0.0000

> <Gold.PLP.part.buried>
-2.7624

> <Gold.PLP.part.nonpolar>
-34.0287

> <Gold.PLP.part.repulsive>
0.1801

> <Gold.PLP.ligand.clash>
0.0000

> <Gold.PLP.ligand.torsion>
0.8458

> <Gold.PLP.Chemscore.Hbond>
3.9920

> <Gold.PLP.Chemscore.CHOScore>
0.9268

> <Gold.PLP.Chemscore.Metal>
0.0000

> <Gold.Chemscore.Hbonds>
donor molecule, donor type, donor heavy atom, donor atom, acceptor molecule, acceptor atom, score
      L1  H     4    59       P1  7948  2.00
      L1  H     8    41       P1 10747  1.00
      L1  H    25    53       P1  8029  0.90
      L1  C    19    47       P1  8028  0.86

> <Gold.PLP.Chemscore.Internal.Correction>
0.5844

> <Gold.Rescore>
     Score         DG    S(hbond)    S(metal)    S(lipo)     H(rot)  DE(clash)    DE(int)     intcor
     11.04     -15.20       2.76        0.00     102.33       4.48       0.97       3.19       ----

> <Gold.Chemscore.Fitness>
11.0440

> <Gold.Chemscore.DG>
-15.1960

> <Gold.Chemscore.ZeroCoef>
-5.4800

> <Gold.Chemscore.Hbond>
2.7571

> <Gold.Chemscore.Metal>
0.0000

> <Gold.Chemscore.Lipo>
102.3307

> <Gold.Chemscore.Internal_Hbond>
0.0000

> <Gold.Chemscore.DEClash>
0.9651

> <Gold.Chemscore.DEInternal>
3.1869

> <Gold.Chemscore.Rot>
4.4787

> <Gold.Chemscore.Internal.Correction>
   9.000000E+99

> <Gold.Chemscore.Hbonds>
donor molecule, donor type, donor heavy atom, donor atom, acceptor molecule, acceptor atom, score
      L1  H     4    59       P1  7948  0.96
      L1  H     8    41       P1 10747  0.96
      L1  H    25    53       P1  8029  0.52

> <Gold.Chemscore.Hbond.Weighted>
-9.2088

> <Gold.Chemscore.Metal.Weighted>
-0.0000

> <Gold.Chemscore.Lipo.Weighted>
-11.9727

> <Gold.Chemscore.Internal_Hbond.Weighted>
0.0000

> <Gold.Chemscore.DEClash.Weighted>
0.9651

> <Gold.Chemscore.DEInternal.Weighted>
3.1869

> <Gold.Chemscore.Rot.Weighted>
11.4655

> <Gold.Chemscore.Internal.Correction.Weighted>
   9.000000E+99

> <Gold.Protein.RotatedTorsions>
[ 6907 6896 6895 6894 ] final   33.15 input  -60.11 | X-H torsion
[ 7974 7965 7964 7962 ] final -135.31 input  175.53 | X-H torsion
[ 8008 7997 7996 7995 ] final   -5.79 input   59.86 | X-H torsion
[ 10167 10162 10161 10158 ] final  151.76 input  -65.29 | X-H torsion
[ 10718 10713 10712 10709 ] final  116.34 input   66.30 | X-H torsion
[ 10763 10752 10751 10750 ] final  121.01 input  -60.55 | X-H torsion
[ 11005 11000 10999 10996 ] final  -96.64 input  -57.11 | X-H torsion

> <Gold.Protein.ActiveResidues>
 VAL166  LYS551  ARG553  GLY616  TRP617  ASP618  TYR619  PRO620  LYS621  CYS622 
 ASP623  PHE694  ASN695  SER759  ASP760  ASP761  ALA762  ILE779  LEU786  VAL792 
 PHE793  MET794  SER795  GLU796  ALA797  LYS798  CYS799  TRP800  GLU811  SER814 

> <Gold.Protein.RotatedAtoms>
  152.0845  134.9449  160.0572 H   0  0  0  0  0  0  0  0  0  0  0  0  # atno 6907 bound_to 6896
  152.0724  133.4108  159.4473 H   0  0  0  0  0  0  0  0  0  0  0  0  # atno 6908 bound_to 6896
  150.6836  134.2996  159.4744 H   0  0  0  0  0  0  0  0  0  0  0  0  # atno 6909 bound_to 6896
  144.9025  140.6790  143.5076 H   0  0  0  0  0  0  0  0  0  0  0  0  # atno 7974 bound_to 7965
  154.6003  140.2449  155.7801 H   0  0  0  0  0  0  0  0  0  0  0  0  # atno 8008 bound_to 7997
  156.2306  140.2968  156.0132 H   0  0  0  0  0  0  0  0  0  0  0  0  # atno 8009 bound_to 7997
  155.2222  140.0401  157.2940 H   0  0  0  0  0  0  0  0  0  0  0  0  # atno 8010 bound_to 7997
  139.4838  144.5414  151.7558 H   0  0  0  0  0  0  0  0  0  0  0  0  # atno 10167 bound_to 10162
  157.6166  131.1024  150.7459 H   0  0  0  0  0  0  0  0  0  0  0  0  # atno 10718 bound_to 10713
  153.6074  135.3437  155.2967 H   0  0  0  0  0  0  0  0  0  0  0  0  # atno 10763 bound_to 10752
  154.8625  135.4242  154.2347 H   0  0  0  0  0  0  0  0  0  0  0  0  # atno 10764 bound_to 10752
  153.3189  135.7037  153.7120 H   0  0  0  0  0  0  0  0  0  0  0  0  # atno 10765 bound_to 10752
  141.1405  133.8112  157.0598 H   0  0  0  0  0  0  0  0  0  0  0  0  # atno 11005 bound_to 11000
  145.3592  139.1686  143.4393 LP  0  0  0  0  0  0  0  0  0  0  0  0  # atno 17320 bound_to 7965
  146.3116  140.3652  142.8668 LP  0  0  0  0  0  0  0  0  0  0  0  0  # atno 17321 bound_to 7965
  140.4954  144.1248  150.5959 LP  0  0  0  0  0  0  0  0  0  0  0  0  # atno 17342 bound_to 10162
  140.4123  143.2651  151.9817 LP  0  0  0  0  0  0  0  0  0  0  0  0  # atno 17343 bound_to 10162
  156.7825  130.4864  149.5398 LP  0  0  0  0  0  0  0  0  0  0  0  0  # atno 17370 bound_to 10713
  156.1291  130.6165  151.0307 LP  0  0  0  0  0  0  0  0  0  0  0  0  # atno 17371 bound_to 10713
  140.0578  134.9771  157.1252 LP  0  0  0  0  0  0  0  0  0  0  0  0  # atno 17394 bound_to 11000
  140.3893  134.2202  155.7167 LP  0  0  0  0  0  0  0  0  0  0  0  0  # atno 17395 bound_to 11000

$$$$
