AV-unprocessed.smi:3156|AV-procd|sdf|12033|dock5
  -GOLD-   2272017453D 1   1.00000     0.00000
 Structure written by MMmdl.
 41 42  0  0  0  0  0  0  0  0  2 V2000
  149.7358  139.9528  154.9384 C   0  0  0  0  0  0  0  0  0  0  0  0
  149.0813  141.3283  154.6885 C   0  0  2  0  0  0  0  0  0  0  0  0
  149.5727  142.3133  155.6795 N   0  3  0  0  0  0  0  0  0  0  0  0
  149.7383  141.8003  157.0560 C   0  0  0  0  0  0  0  0  0  0  0  0
  150.8892  142.5187  157.7743 C   0  0  2  0  0  0  0  0  0  0  0  0
  150.9472  142.1544  159.2708 C   0  0  0  0  0  0  0  0  0  0  0  0
  152.0381  142.9635  159.9818 C   0  0  0  0  0  0  0  0  0  0  0  0
  151.8344  144.4570  159.7079 C   0  0  0  0  0  0  0  0  0  0  0  0
  151.7261  144.7119  158.1965 C   0  0  0  0  0  0  0  0  0  0  0  0
  150.6753  143.9233  157.6460 O   0  0  0  0  0  0  0  0  0  0  0  0
  147.5299  141.2757  154.7289 C   0  0  1  0  0  0  0  0  0  0  0  0
  146.8797  142.4886  154.0347 C   0  0  0  0  0  0  0  0  0  0  0  0
  147.0023  140.0380  154.1672 N   0  0  0  0  0  0  0  0  0  0  0  0
  147.1985  139.5225  152.9023 C   0  0  0  0  0  0  0  0  0  0  0  0
  146.5066  138.3478  152.8277 C   0  0  0  0  0  0  0  0  0  0  0  0
  145.9138  138.2219  154.1147 C   0  0  0  0  0  0  0  0  0  0  0  0
  146.2117  139.2335  154.9139 N   0  0  0  0  0  0  0  0  0  0  0  0
  149.4459  139.2221  154.1834 H   0  0  0  0  0  0  0  0  0  0  0  0
  149.4523  139.5518  155.9121 H   0  0  0  0  0  0  0  0  0  0  0  0
  150.8233  140.0090  154.9091 H   0  0  0  0  0  0  0  0  0  0  0  0
  149.3778  141.6697  153.6951 H   0  0  0  0  0  0  0  0  0  0  0  0
  150.4795  142.6322  155.3696 H   0  0  0  0  0  0  0  0  0  0  0  0
  148.8161  141.9208  157.6242 H   0  0  0  0  0  0  0  0  0  0  0  0
  149.9469  140.7310  157.0046 H   0  0  0  0  0  0  0  0  0  0  0  0
  151.8340  142.2478  157.2988 H   0  0  0  0  0  0  0  0  0  0  0  0
  149.9821  142.3573  159.7373 H   0  0  0  0  0  0  0  0  0  0  0  0
  151.1357  141.0874  159.3946 H   0  0  0  0  0  0  0  0  0  0  0  0
  152.0211  142.7669  161.0541 H   0  0  0  0  0  0  0  0  0  0  0  0
  153.0201  142.6544  159.6211 H   0  0  0  0  0  0  0  0  0  0  0  0
  150.9235  144.7997  160.2006 H   0  0  0  0  0  0  0  0  0  0  0  0
  152.6560  145.0351  160.1319 H   0  0  0  0  0  0  0  0  0  0  0  0
  151.5120  145.7642  158.0088 H   0  0  0  0  0  0  0  0  0  0  0  0
  152.6674  144.4847  157.6941 H   0  0  0  0  0  0  0  0  0  0  0  0
  147.2222  141.2944  155.7760 H   0  0  0  0  0  0  0  0  0  0  0  0
  147.1541  143.4247  154.5209 H   0  0  0  0  0  0  0  0  0  0  0  0
  145.7919  142.4177  154.0630 H   0  0  0  0  0  0  0  0  0  0  0  0
  147.1791  142.5594  152.9884 H   0  0  0  0  0  0  0  0  0  0  0  0
  147.8053  140.0297  152.1665 H   0  0  0  0  0  0  0  0  0  0  0  0
  146.4357  137.6793  151.9826 H   0  0  0  0  0  0  0  0  0  0  0  0
  145.2795  137.4315  154.4889 H   0  0  0  0  0  0  0  0  0  0  0  0
  148.9444  143.1042  155.6936 H   0  0  0  0  0  0  0  0  0  0  0  0
  1  2  1  0  0  0  0
  1 18  1  0  0  0  0
  1 19  1  0  0  0  0
  1 20  1  0  0  0  0
  2  3  1  0  0  0  0
  2 11  1  0  0  0  0
  2 21  1  0  0  0  0
  3  4  1  0  0  0  0
  3 22  1  0  0  0  0
  3 41  1  0  0  0  0
  4  5  1  0  0  0  0
  4 23  1  0  0  0  0
  4 24  1  0  0  0  0
  5 10  1  0  0  0  0
  5  6  1  0  0  0  0
  5 25  1  0  0  0  0
  6  7  1  0  0  0  0
  6 26  1  0  0  0  0
  6 27  1  0  0  0  0
  7  8  1  0  0  0  0
  7 28  1  0  0  0  0
  7 29  1  0  0  0  0
  8  9  1  0  0  0  0
  8 30  1  0  0  0  0
  8 31  1  0  0  0  0
  9 10  1  0  0  0  0
  9 32  1  0  0  0  0
  9 33  1  0  0  0  0
 11 12  1  0  0  0  0
 11 13  1  0  0  0  0
 11 34  1  0  0  0  0
 12 35  1  0  0  0  0
 12 36  1  0  0  0  0
 12 37  1  0  0  0  0
 13 17  1  0  0  0  0
 13 14  1  0  0  0  0
 14 15  2  0  0  0  0
 14 38  1  0  0  0  0
 15 16  1  0  0  0  0
 15 39  1  0  0  0  0
 16 17  2  0  0  0  0
 16 40  1  0  0  0  0
M  CHG  1   3   1
M  END
> <s_m_source_file>
AV-unprocessed.smi

> <i_m_source_file_index>
3156

> <i_lp_mmshare_version>
43012

> <i_f3d_flags>
0

> <s_epik_input>
bjFbY0hdW2NIXVtjSF1uMVtDQEBIXShbQ0gzXSlbQ0BIXShbQ0gzXSlbTkhdW0NIMl1bQ0BASF0yW0NIMl1bQ0gyXVtDSDJdW0NIMl1PMg==

> <s_epik_cmdline>
J2VwaWtfcHl0aG9uJywgJy1waCcsICc3LjAnLCAnLXRuJywgJzgnLCAnLW1hJywgJzIwMCcsICctbWV0YWxfYmluZGluZycsICctaW1hZScsICc8aW5maWxlLm1hZT4nLCAnLW9tYWUnLCAnPG91dGZpbGUubWFlPic=

> <r_lp_tautomer_probability>
1

> <r_epik_Ionization_Penalty>
0.00658015

> <r_epik_Ionization_Penalty_Charging>
0.00656881

> <r_epik_Ionization_Penalty_Neutral>
1.13431e-05

> <r_epik_State_Penalty>
0.0048654

> <r_epik_Charging_Adjusted_Penalty>
0.0114342

> <i_epik_Tot_Q>
1

> <i_epik_Tot_abs_Q>
1

> <r_epik_Metal_State_Penalty>
-0

> <b_epik_Metal_Only>
0

> <s_lp_Force_Field>
OPLS_2005

> <r_lp_Energy>
17.6132

> <b_lp_Chiralities_Consistent>
1

> <s_lp_Variant>
AV-unprocessed.smi:3156-5

> <Gold.Version>
5.8.1

> <Gold.Id.Protein>
6NUR|6NUR_protein|mol2

> <Gold.PLP.Fitness>
45.4599

> <Gold.PLP.PLP>
-38.2594

> <Gold.PLP.part.hbond>
-1.0000

> <Gold.PLP.part.metal>
0.0000

> <Gold.PLP.part.buried>
-0.4283

> <Gold.PLP.part.nonpolar>
-36.5387

> <Gold.PLP.part.repulsive>
0.9727

> <Gold.PLP.ligand.clash>
0.0000

> <Gold.PLP.ligand.torsion>
0.9319

> <Gold.PLP.Chemscore.Hbond>
2.0000

> <Gold.PLP.Chemscore.CHOScore>
0.9963

> <Gold.PLP.Chemscore.Metal>
0.0000

> <Gold.Chemscore.Hbonds>
donor molecule, donor type, donor heavy atom, donor atom, acceptor molecule, acceptor atom, score
      L1  H     3    41       P1  8028  1.76
      L1  C    14    38       P1  7957  1.00

> <Gold.PLP.Chemscore.Internal.Correction>
0.0756

> <Gold.Rescore>
     Score         DG    S(hbond)    S(metal)    S(lipo)     H(rot)  DE(clash)    DE(int)     intcor
     15.60     -16.59       1.00        0.00     101.29       1.59       0.05       0.94       ----

> <Gold.Chemscore.Fitness>
15.5971

> <Gold.Chemscore.DG>
-16.5886

> <Gold.Chemscore.ZeroCoef>
-5.4800

> <Gold.Chemscore.Hbond>
0.9993

> <Gold.Chemscore.Metal>
0.0000

> <Gold.Chemscore.Lipo>
101.2925

> <Gold.Chemscore.Internal_Hbond>
0.0000

> <Gold.Chemscore.DEClash>
0.0498

> <Gold.Chemscore.DEInternal>
0.9417

> <Gold.Chemscore.Rot>
1.5938

> <Gold.Chemscore.Internal.Correction>
   9.000000E+99

> <Gold.Chemscore.Hbonds>
donor molecule, donor type, donor heavy atom, donor atom, acceptor molecule, acceptor atom, score
      L1  H     3    41       P1  8028  0.86

> <Gold.Chemscore.Hbond.Weighted>
-3.3377

> <Gold.Chemscore.Metal.Weighted>
-0.0000

> <Gold.Chemscore.Lipo.Weighted>
-11.8512

> <Gold.Chemscore.Internal_Hbond.Weighted>
0.0000

> <Gold.Chemscore.DEClash.Weighted>
0.0498

> <Gold.Chemscore.DEInternal.Weighted>
0.9417

> <Gold.Chemscore.Rot.Weighted>
4.0802

> <Gold.Chemscore.Internal.Correction.Weighted>
   9.000000E+99

> <Gold.Protein.RotatedTorsions>
[ 6907 6896 6895 6894 ] final -156.64 input  -60.11 | X-H torsion
[ 7974 7965 7964 7962 ] final  134.04 input  175.53 | X-H torsion
[ 8008 7997 7996 7995 ] final   16.17 input   59.86 | X-H torsion
[ 10167 10162 10161 10158 ] final  -97.36 input  -65.29 | X-H torsion
[ 10718 10713 10712 10709 ] final  -67.13 input   66.30 | X-H torsion
[ 10763 10752 10751 10750 ] final  -40.51 input  -60.55 | X-H torsion
[ 11005 11000 10999 10996 ] final    1.96 input  -57.11 | X-H torsion

> <Gold.Protein.ActiveResidues>
 VAL166  LYS551  ARG553  GLY616  TRP617  ASP618  TYR619  PRO620  LYS621  CYS622 
 ASP623  PHE694  ASN695  SER759  ASP760  ASP761  ALA762  ILE779  LEU786  VAL792 
 PHE793  MET794  SER795  GLU796  ALA797  LYS798  CYS799  TRP800  GLU811  SER814 

> <Gold.Protein.RotatedAtoms>
  151.2907  133.4167  159.2632 H   0  0  0  0  0  0  0  0  0  0  0  0  # atno 6907 bound_to 6896
  151.0280  134.9518  159.8106 H   0  0  0  0  0  0  0  0  0  0  0  0  # atno 6908 bound_to 6896
  152.5339  134.2869  159.9081 H   0  0  0  0  0  0  0  0  0  0  0  0  # atno 6909 bound_to 6896
  144.9804  139.4511  143.5389 H   0  0  0  0  0  0  0  0  0  0  0  0  # atno 7974 bound_to 7965
  154.8731  140.2961  155.5470 H   0  0  0  0  0  0  0  0  0  0  0  0  # atno 8008 bound_to 7997
  156.3021  140.2456  156.3656 H   0  0  0  0  0  0  0  0  0  0  0  0  # atno 8009 bound_to 7997
  154.8796  140.0398  157.1763 H   0  0  0  0  0  0  0  0  0  0  0  0  # atno 8010 bound_to 7997
  140.2842  143.3262  152.0411 H   0  0  0  0  0  0  0  0  0  0  0  0  # atno 10167 bound_to 10162
  156.0574  130.4273  150.1810 H   0  0  0  0  0  0  0  0  0  0  0  0  # atno 10718 bound_to 10713
  153.9471  135.6755  153.4744 H   0  0  0  0  0  0  0  0  0  0  0  0  # atno 10763 bound_to 10752
  153.0902  135.4878  154.8673 H   0  0  0  0  0  0  0  0  0  0  0  0  # atno 10764 bound_to 10752
  154.7345  135.3146  154.8793 H   0  0  0  0  0  0  0  0  0  0  0  0  # atno 10765 bound_to 10752
  140.6096  133.9760  155.8171 H   0  0  0  0  0  0  0  0  0  0  0  0  # atno 11005 bound_to 11000
  146.3406  139.9073  142.8785 LP  0  0  0  0  0  0  0  0  0  0  0  0  # atno 17320 bound_to 7965
  145.2429  141.0016  143.3925 LP  0  0  0  0  0  0  0  0  0  0  0  0  # atno 17321 bound_to 7965
  139.4954  144.6570  151.6549 LP  0  0  0  0  0  0  0  0  0  0  0  0  # atno 17342 bound_to 10162
  140.5786  143.9984  150.6256 LP  0  0  0  0  0  0  0  0  0  0  0  0  # atno 17343 bound_to 10162
  156.9884  130.9886  151.3420 LP  0  0  0  0  0  0  0  0  0  0  0  0  # atno 17370 bound_to 10713
  157.5555  130.8211  149.8199 LP  0  0  0  0  0  0  0  0  0  0  0  0  # atno 17371 bound_to 10713
  141.0817  134.0052  157.3376 LP  0  0  0  0  0  0  0  0  0  0  0  0  # atno 17394 bound_to 11000
  139.9198  135.0199  156.8019 LP  0  0  0  0  0  0  0  0  0  0  0  0  # atno 17395 bound_to 11000

$$$$
