AV-unprocessed.smi:2511|AV-procd|sdf|9887|dock3
  -GOLD-   2272013523D 1   1.00000     0.00000
 Structure written by MMmdl.
 40 41  0  0  0  0  0  0  0  0  1 V2000
  145.3605  138.9289  151.6241 N   0  0  0  0  0  0  0  0  0  0  0  0
  146.6772  138.7318  151.7505 C   0  0  0  0  0  0  0  0  0  0  0  0
  147.2816  137.8979  151.0779 O   0  0  0  0  0  0  0  0  0  0  0  0
  147.3947  139.6201  152.7315 C   0  0  0  0  0  0  0  0  0  0  0  0
  148.4942  139.1171  153.4638 C   0  0  0  0  0  0  0  0  0  0  0  0
  149.1486  139.9583  154.3839 C   0  0  0  0  0  0  0  0  0  0  0  0
  148.6860  141.2852  154.5461 C   0  0  0  0  0  0  0  0  0  0  0  0
  149.2461  142.2278  155.4497 N   0  0  0  0  0  0  0  0  0  0  0  0
  150.3193  142.0957  156.2542 C   0  0  0  0  0  0  0  0  0  0  0  0
  151.0062  141.0808  156.3460 O   0  0  0  0  0  0  0  0  0  0  0  0
  150.6152  143.1996  156.9648 N   0  0  0  0  0  0  0  0  0  0  0  0
  151.7030  143.4028  157.9247 C   0  0  1  0  0  0  0  0  0  0  0  0
  151.3206  144.5343  158.8957 C   0  0  0  0  0  0  0  0  0  0  0  0
  152.4049  144.7458  159.9626 C   0  0  0  0  0  0  0  0  0  0  0  0
  152.6988  143.4447  160.7252 C   0  0  0  0  0  0  0  0  0  0  0  0
  153.0963  142.3018  159.7676 C   0  0  1  0  0  0  0  0  0  0  0  0
  153.4116  140.9952  160.5249 C   0  0  0  0  0  0  0  0  0  0  0  0
  154.0717  141.2488  161.6554 F   0  0  0  0  0  0  0  0  0  0  0  0
  152.2805  140.3544  160.8204 F   0  0  0  0  0  0  0  0  0  0  0  0
  154.1552  140.1939  159.7618 F   0  0  0  0  0  0  0  0  0  0  0  0
  152.0006  142.1004  158.6990 C   0  0  0  0  0  0  0  0  0  0  0  0
  147.5700  141.6866  153.7848 C   0  0  0  0  0  0  0  0  0  0  0  0
  146.9402  140.8857  152.9000 N   0  0  0  0  0  0  0  0  0  0  0  0
  144.8249  138.3619  150.9834 H   0  0  0  0  0  0  0  0  0  0  0  0
  144.9106  139.6455  152.1757 H   0  0  0  0  0  0  0  0  0  0  0  0
  148.8374  138.1015  153.3287 H   0  0  0  0  0  0  0  0  0  0  0  0
  149.9771  139.5640  154.9508 H   0  0  0  0  0  0  0  0  0  0  0  0
  148.8216  143.1436  155.4338 H   0  0  0  0  0  0  0  0  0  0  0  0
  150.0126  143.9966  156.8173 H   0  0  0  0  0  0  0  0  0  0  0  0
  152.6030  143.7165  157.3926 H   0  0  0  0  0  0  0  0  0  0  0  0
  151.1626  145.4626  158.3450 H   0  0  0  0  0  0  0  0  0  0  0  0
  150.3739  144.3000  159.3851 H   0  0  0  0  0  0  0  0  0  0  0  0
  153.3188  145.1070  159.4892 H   0  0  0  0  0  0  0  0  0  0  0  0
  152.0911  145.5220  160.6612 H   0  0  0  0  0  0  0  0  0  0  0  0
  153.4949  143.6227  161.4486 H   0  0  0  0  0  0  0  0  0  0  0  0
  151.8190  143.1560  161.3014 H   0  0  0  0  0  0  0  0  0  0  0  0
  154.0087  142.6052  159.2513 H   0  0  0  0  0  0  0  0  0  0  0  0
  151.0870  141.7415  159.1754 H   0  0  0  0  0  0  0  0  0  0  0  0
  152.3085  141.3187  158.0044 H   0  0  0  0  0  0  0  0  0  0  0  0
  147.1703  142.6855  153.8841 H   0  0  0  0  0  0  0  0  0  0  0  0
  1  2  1  0  0  0  0
  1 24  1  0  0  0  0
  1 25  1  0  0  0  0
  2  3  2  0  0  0  0
  2  4  1  0  0  0  0
  4 23  1  0  0  0  0
  4  5  2  0  0  0  0
  5  6  1  0  0  0  0
  5 26  1  0  0  0  0
  6  7  2  0  0  0  0
  6 27  1  0  0  0  0
  7  8  1  0  0  0  0
  7 22  1  0  0  0  0
  8  9  1  0  0  0  0
  8 28  1  0  0  0  0
  9 10  2  0  0  0  0
  9 11  1  0  0  0  0
 11 12  1  0  0  0  0
 11 29  1  0  0  0  0
 12 21  1  0  0  0  0
 12 13  1  0  0  0  0
 12 30  1  0  0  0  0
 13 14  1  0  0  0  0
 13 31  1  0  0  0  0
 13 32  1  0  0  0  0
 14 15  1  0  0  0  0
 14 33  1  0  0  0  0
 14 34  1  0  0  0  0
 15 16  1  0  0  0  0
 15 35  1  0  0  0  0
 15 36  1  0  0  0  0
 16 17  1  0  0  0  0
 16 21  1  0  0  0  0
 16 37  1  0  0  0  0
 17 18  1  0  0  0  0
 17 19  1  0  0  0  0
 17 20  1  0  0  0  0
 21 38  1  0  0  0  0
 21 39  1  0  0  0  0
 22 23  2  0  0  0  0
 22 40  1  0  0  0  0
M  END
> <s_m_source_file>
AV-unprocessed.smi

> <i_m_source_file_index>
2511

> <i_lp_mmshare_version>
43012

> <i_f3d_flags>
0

> <s_epik_input>
W05IMl1DKD1PKWMxW2NIXVtjSF1jKFtjSF1uMSlbTkhdQyg9TylbTkhdW0NAQEhdMltDSDJdW0NIMl1bQ0gyXVtDQEBIXShDKEYpKEYpRilbQ0gyXTI=

> <s_epik_cmdline>
J2VwaWtfcHl0aG9uJywgJy1waCcsICc3LjAnLCAnLXRuJywgJzgnLCAnLW1hJywgJzIwMCcsICctbWV0YWxfYmluZGluZycsICctaW1hZScsICc8aW5maWxlLm1hZT4nLCAnLW9tYWUnLCAnPG91dGZpbGUubWFlPic=

> <r_lp_tautomer_probability>
1

> <r_epik_Ionization_Penalty>
4.28758e-05

> <r_epik_Ionization_Penalty_Charging>
0

> <r_epik_Ionization_Penalty_Neutral>
4.28758e-05

> <r_epik_State_Penalty>
-0

> <r_epik_Charging_Adjusted_Penalty>
0

> <i_epik_Tot_Q>
0

> <i_epik_Tot_abs_Q>
0

> <r_epik_Metal_State_Penalty>
-0

> <b_epik_Metal_Only>
0

> <s_lp_Force_Field>
OPLS_2005

> <r_lp_Energy>
28.5247

> <b_lp_Chiralities_Consistent>
1

> <s_lp_Variant>
AV-unprocessed.smi:2511-2

> <Gold.Version>
5.8.1

> <Gold.Id.Protein>
6NUR|6NUR_protein|mol2

> <Gold.PLP.Fitness>
49.2175

> <Gold.PLP.PLP>
-39.7752

> <Gold.PLP.part.hbond>
-4.4877

> <Gold.PLP.part.metal>
0.0000

> <Gold.PLP.part.buried>
0.4760

> <Gold.PLP.part.nonpolar>
-41.7342

> <Gold.PLP.part.repulsive>
5.1960

> <Gold.PLP.ligand.clash>
0.0000

> <Gold.PLP.ligand.torsion>
1.3269

> <Gold.PLP.Chemscore.Hbond>
4.0240

> <Gold.PLP.Chemscore.CHOScore>
0.0000

> <Gold.PLP.Chemscore.Metal>
0.0000

> <Gold.Chemscore.Hbonds>
donor molecule, donor type, donor heavy atom, donor atom, acceptor molecule, acceptor atom, score
      L1  H     1    24       P1 10171  0.70
      L1  H     1    25       P1 10175  0.87
      L1  H     8    28       P1  8028  1.00
      L1  H    11    29       P1  8028  0.88
      P1  H  7954  7966       L1     3  0.86

> <Gold.PLP.Chemscore.Internal.Correction>
0.0241

> <Gold.Rescore>
     Score         DG    S(hbond)    S(metal)    S(lipo)     H(rot)  DE(clash)    DE(int)     intcor
     21.35     -29.00       3.98        0.00     109.35       1.00       3.98       3.66       ----

> <Gold.Chemscore.Fitness>
21.3548

> <Gold.Chemscore.DG>
-28.9985

> <Gold.Chemscore.ZeroCoef>
-5.4800

> <Gold.Chemscore.Hbond>
3.9774

> <Gold.Chemscore.Metal>
0.0000

> <Gold.Chemscore.Lipo>
109.3504

> <Gold.Chemscore.Internal_Hbond>
0.0000

> <Gold.Chemscore.DEClash>
3.9807

> <Gold.Chemscore.DEInternal>
3.6630

> <Gold.Chemscore.Rot>
1.0000

> <Gold.Chemscore.Internal.Correction>
   9.000000E+99

> <Gold.Chemscore.Hbonds>
donor molecule, donor type, donor heavy atom, donor atom, acceptor molecule, acceptor atom, score
      L1  H     1    24       P1 10171  0.66
      L1  H     1    25       P1 10175  0.81
      L1  H     8    28       P1  8028  0.95
      L1  H    11    29       P1  8028  0.85
      P1  H  7954  7966       L1     3  0.84

> <Gold.Chemscore.Hbond.Weighted>
-13.2845

> <Gold.Chemscore.Metal.Weighted>
-0.0000

> <Gold.Chemscore.Lipo.Weighted>
-12.7940

> <Gold.Chemscore.Internal_Hbond.Weighted>
0.0000

> <Gold.Chemscore.DEClash.Weighted>
3.9807

> <Gold.Chemscore.DEInternal.Weighted>
3.6630

> <Gold.Chemscore.Rot.Weighted>
2.5600

> <Gold.Chemscore.Internal.Correction.Weighted>
   9.000000E+99

> <Gold.Protein.RotatedTorsions>
[ 6907 6896 6895 6894 ] final   82.90 input  -60.11 | X-H torsion
[ 7974 7965 7964 7962 ] final  121.41 input  175.53 | X-H torsion
[ 8008 7997 7996 7995 ] final   25.69 input   59.86 | X-H torsion
[ 10167 10162 10161 10158 ] final -121.91 input  -65.29 | X-H torsion
[ 10718 10713 10712 10709 ] final -148.30 input   66.30 | X-H torsion
[ 10763 10752 10751 10750 ] final -165.87 input  -60.55 | X-H torsion
[ 11005 11000 10999 10996 ] final  131.71 input  -57.11 | X-H torsion

> <Gold.Protein.ActiveResidues>
 VAL166  LYS551  ARG553  GLY616  TRP617  ASP618  TYR619  PRO620  LYS621  CYS622 
 ASP623  PHE694  ASN695  SER759  ASP760  ASP761  ALA762  ILE779  LEU786  VAL792 
 PHE793  MET794  SER795  GLU796  ALA797  LYS798  CYS799  TRP800  GLU811  SER814 

> <Gold.Protein.RotatedAtoms>
  152.5312  134.2978  159.9066 H   0  0  0  0  0  0  0  0  0  0  0  0  # atno 6907 bound_to 6896
  151.2929  133.4151  159.2642 H   0  0  0  0  0  0  0  0  0  0  0  0  # atno 6908 bound_to 6896
  151.0185  134.9467  159.8103 H   0  0  0  0  0  0  0  0  0  0  0  0  # atno 6909 bound_to 6896
  145.1197  139.3397  143.4721 H   0  0  0  0  0  0  0  0  0  0  0  0  # atno 7974 bound_to 7965
  155.0156  140.3141  155.4813 H   0  0  0  0  0  0  0  0  0  0  0  0  # atno 8008 bound_to 7997
  156.2901  140.2206  156.5214 H   0  0  0  0  0  0  0  0  0  0  0  0  # atno 8009 bound_to 7997
  154.7496  140.0467  157.0870 H   0  0  0  0  0  0  0  0  0  0  0  0  # atno 8010 bound_to 7997
  140.0199  143.5355  152.2225 H   0  0  0  0  0  0  0  0  0  0  0  0  # atno 10167 bound_to 10162
  156.4186  130.8017  151.2239 H   0  0  0  0  0  0  0  0  0  0  0  0  # atno 10718 bound_to 10713
  154.6889  135.2967  154.9507 H   0  0  0  0  0  0  0  0  0  0  0  0  # atno 10763 bound_to 10752
  154.0477  135.6649  153.4801 H   0  0  0  0  0  0  0  0  0  0  0  0  # atno 10764 bound_to 10752
  153.0598  135.5122  154.7971 H   0  0  0  0  0  0  0  0  0  0  0  0  # atno 10765 bound_to 10752
  139.9747  134.9567  156.9478 H   0  0  0  0  0  0  0  0  0  0  0  0  # atno 11005 bound_to 11000
  146.3522  140.1151  142.8602 LP  0  0  0  0  0  0  0  0  0  0  0  0  # atno 17320 bound_to 7965
  145.0754  140.9185  143.4857 LP  0  0  0  0  0  0  0  0  0  0  0  0  # atno 17321 bound_to 7965
  139.6147  144.7617  151.2873 LP  0  0  0  0  0  0  0  0  0  0  0  0  # atno 17342 bound_to 10162
  140.7347  143.6759  150.8042 LP  0  0  0  0  0  0  0  0  0  0  0  0  # atno 17343 bound_to 10162
  157.7508  131.0235  150.3838 LP  0  0  0  0  0  0  0  0  0  0  0  0  # atno 17370 bound_to 10713
  156.4150  130.3941  149.6864 LP  0  0  0  0  0  0  0  0  0  0  0  0  # atno 17371 bound_to 10713
  140.5220  134.0898  155.7294 LP  0  0  0  0  0  0  0  0  0  0  0  0  # atno 17394 bound_to 11000
  141.1424  133.9114  157.2294 LP  0  0  0  0  0  0  0  0  0  0  0  0  # atno 17395 bound_to 11000

$$$$
