AV-unprocessed.smi:876|AV-procd|sdf|4023|dock1
  -GOLD-   22720 1513D 1   1.00000     0.00000
 Structure written by MMmdl.
 40 41  0  0  0  0  0  0  0  0  1 V2000
  153.7122  142.5556  162.8315 C   0  0  0  0  0  0  0  0  0  0  0  0
  153.6998  141.7590  161.6107 N   0  0  0  0  0  0  0  0  0  0  0  0
  154.6370  140.6512  161.4553 C   0  0  0  0  0  0  0  0  0  0  0  0
  152.8045  142.0761  160.5635 C   0  0  0  0  0  0  0  0  0  0  0  0
  152.4122  143.4128  160.3045 C   0  0  0  0  0  0  0  0  0  0  0  0
  151.5177  143.6791  159.2500 C   0  0  0  0  0  0  0  0  0  0  0  0
  151.0371  142.6031  158.4688 C   0  0  0  0  0  0  0  0  0  0  0  0
  150.1182  142.7345  157.3919 N   0  0  0  0  0  0  0  0  0  0  0  0
  149.1419  141.8932  157.0100 C   0  0  0  0  0  0  0  0  0  0  0  0
  148.8435  140.8412  157.5747 O   0  0  0  0  0  0  0  0  0  0  0  0
  148.5030  142.3545  155.9257 N   0  0  0  0  0  0  0  0  0  0  0  0
  147.3919  141.6794  155.2639 C   0  0  2  0  0  0  0  0  0  0  0  0
  147.2317  142.1808  153.8548 C   0  0  0  0  0  0  0  0  0  0  0  0
  145.9999  142.6173  153.6022 C   0  0  0  0  0  0  0  0  0  0  0  0
  145.0836  142.5043  154.7938 C   0  0  2  0  0  0  0  0  0  0  0  0
  144.3845  143.8297  155.1427 C   0  0  0  0  0  0  0  0  0  0  0  0
  143.6128  144.2871  154.0516 O   0  0  0  0  0  0  0  0  0  0  0  0
  146.0201  141.9920  155.9178 C   0  0  0  0  0  0  0  0  0  0  0  0
  151.4734  141.3079  158.8087 C   0  0  0  0  0  0  0  0  0  0  0  0
  152.3303  141.0482  159.8177 N   0  0  0  0  0  0  0  0  0  0  0  0
  147.5701  140.6034  155.2253 H   0  0  0  0  0  0  0  0  0  0  0  0
  144.3359  141.7423  154.5689 H   0  0  0  0  0  0  0  0  0  0  0  0
  152.7477  142.4960  163.3368 H   0  0  0  0  0  0  0  0  0  0  0  0
  153.9253  143.6010  162.6058 H   0  0  0  0  0  0  0  0  0  0  0  0
  154.4741  142.2047  163.5277 H   0  0  0  0  0  0  0  0  0  0  0  0
  155.3106  140.8341  160.6173 H   0  0  0  0  0  0  0  0  0  0  0  0
  154.1015  139.7187  161.2726 H   0  0  0  0  0  0  0  0  0  0  0  0
  155.2452  140.5157  162.3497 H   0  0  0  0  0  0  0  0  0  0  0  0
  152.7737  144.2400  160.8964 H   0  0  0  0  0  0  0  0  0  0  0  0
  151.2118  144.6987  159.0764 H   0  0  0  0  0  0  0  0  0  0  0  0
  150.1879  143.5960  156.8703 H   0  0  0  0  0  0  0  0  0  0  0  0
  148.8062  143.2314  155.5279 H   0  0  0  0  0  0  0  0  0  0  0  0
  148.0414  142.1602  153.1402 H   0  0  0  0  0  0  0  0  0  0  0  0
  145.6620  143.0047  152.6522 H   0  0  0  0  0  0  0  0  0  0  0  0
  143.7239  143.6940  155.9994 H   0  0  0  0  0  0  0  0  0  0  0  0
  145.1132  144.5944  155.4137 H   0  0  0  0  0  0  0  0  0  0  0  0
  143.4456  143.5574  153.4748 H   0  0  0  0  0  0  0  0  0  0  0  0
  145.6065  141.1057  156.4007 H   0  0  0  0  0  0  0  0  0  0  0  0
  146.1267  142.7486  156.6971 H   0  0  0  0  0  0  0  0  0  0  0  0
  151.1274  140.4489  158.2525 H   0  0  0  0  0  0  0  0  0  0  0  0
  1  2  1  0  0  0  0
  1 23  1  0  0  0  0
  1 24  1  0  0  0  0
  1 25  1  0  0  0  0
  2  3  1  0  0  0  0
  2  4  1  0  0  0  0
  3 26  1  0  0  0  0
  3 27  1  0  0  0  0
  3 28  1  0  0  0  0
  4 20  1  0  0  0  0
  4  5  2  0  0  0  0
  5  6  1  0  0  0  0
  5 29  1  0  0  0  0
  6  7  2  0  0  0  0
  6 30  1  0  0  0  0
  7  8  1  0  0  0  0
  7 19  1  0  0  0  0
  8  9  1  0  0  0  0
  8 31  1  0  0  0  0
  9 10  2  0  0  0  0
  9 11  1  0  0  0  0
 11 12  1  0  0  0  0
 11 32  1  0  0  0  0
 12 21  1  0  0  0  0
 12 18  1  0  0  0  0
 12 13  1  0  0  0  0
 13 14  2  0  0  0  0
 13 33  1  0  0  0  0
 14 15  1  0  0  0  0
 14 34  1  0  0  0  0
 15 22  1  0  0  0  0
 15 16  1  0  0  0  0
 15 18  1  0  0  0  0
 16 17  1  0  0  0  0
 16 35  1  0  0  0  0
 16 36  1  0  0  0  0
 17 37  1  0  0  0  0
 18 38  1  0  0  0  0
 18 39  1  0  0  0  0
 19 20  2  0  0  0  0
 19 40  1  0  0  0  0
M  END
> <s_m_source_file>
AV-unprocessed.smi

> <i_m_source_file_index>
876

> <i_lp_mmshare_version>
43012

> <i_f3d_flags>
0

> <s_epik_input>
W0NIM11OKFtDSDNdKWMxW2NIXVtjSF1jKFtjSF1uMSlbTkhdQyg9TylbTkhdW0NAQEhdMltDSF09W0NIXVtDQEBIXShbQ0gyXTIpW0NIMl1bT0hd

> <s_epik_cmdline>
J2VwaWtfcHl0aG9uJywgJy1waCcsICc3LjAnLCAnLXRuJywgJzgnLCAnLW1hJywgJzIwMCcsICctbWV0YWxfYmluZGluZycsICctaW1hZScsICc8aW5maWxlLm1hZT4nLCAnLW9tYWUnLCAnPG91dGZpbGUubWFlPic=

> <r_lp_tautomer_probability>
1

> <r_epik_Ionization_Penalty>
0.617998

> <r_epik_Ionization_Penalty_Charging>
0

> <r_epik_Ionization_Penalty_Neutral>
0.617998

> <r_epik_State_Penalty>
0.632637

> <r_epik_Charging_Adjusted_Penalty>
0.632637

> <i_epik_Tot_Q>
0

> <i_epik_Tot_abs_Q>
0

> <r_epik_Metal_State_Penalty>
0.305596

> <b_epik_Metal_Only>
0

> <s_lp_Force_Field>
OPLS_2005

> <r_lp_Energy>
21.6673

> <b_lp_Chiralities_Consistent>
1

> <s_lp_Variant>
AV-unprocessed.smi:876-5

> <Gold.Version>
5.8.1

> <Gold.Id.Protein>
6NUR|6NUR_protein|mol2

> <Gold.PLP.Fitness>
46.2705

> <Gold.PLP.PLP>
-40.3111

> <Gold.PLP.part.hbond>
-2.7465

> <Gold.PLP.part.metal>
0.0000

> <Gold.PLP.part.buried>
-5.0647

> <Gold.PLP.part.nonpolar>
-33.5725

> <Gold.PLP.part.repulsive>
0.1258

> <Gold.PLP.ligand.clash>
0.0000

> <Gold.PLP.ligand.torsion>
1.0070

> <Gold.PLP.Chemscore.Hbond>
2.6527

> <Gold.PLP.Chemscore.CHOScore>
0.0000

> <Gold.PLP.Chemscore.Metal>
0.0000

> <Gold.Chemscore.Hbonds>
donor molecule, donor type, donor heavy atom, donor atom, acceptor molecule, acceptor atom, score
      L1  H     8    31       P1  8028  0.61
      L1  H    11    32       P1  8028  0.86
      L1  H    17    37       P1 10174  1.00

> <Gold.PLP.Chemscore.Internal.Correction>
0.0154

> <Gold.Rescore>
     Score         DG    S(hbond)    S(metal)    S(lipo)     H(rot)  DE(clash)    DE(int)     intcor
     18.00     -20.08       2.78        0.00      84.73       1.80       0.07       2.01       ----

> <Gold.Chemscore.Fitness>
18.0029

> <Gold.Chemscore.DG>
-20.0844

> <Gold.Chemscore.ZeroCoef>
-5.4800

> <Gold.Chemscore.Hbond>
2.7825

> <Gold.Chemscore.Metal>
0.0000

> <Gold.Chemscore.Lipo>
84.7320

> <Gold.Chemscore.Internal_Hbond>
0.0000

> <Gold.Chemscore.DEClash>
0.0682

> <Gold.Chemscore.DEInternal>
2.0133

> <Gold.Chemscore.Rot>
1.7980

> <Gold.Chemscore.Internal.Correction>
   9.000000E+99

> <Gold.Chemscore.Hbonds>
donor molecule, donor type, donor heavy atom, donor atom, acceptor molecule, acceptor atom, score
      L1  H     8    31       P1  8028  0.59
      L1  H    11    32       P1  8028  0.80
      L1  H    17    37       P1 10174  0.90

> <Gold.Chemscore.Hbond.Weighted>
-9.2936

> <Gold.Chemscore.Metal.Weighted>
-0.0000

> <Gold.Chemscore.Lipo.Weighted>
-9.9136

> <Gold.Chemscore.Internal_Hbond.Weighted>
0.0000

> <Gold.Chemscore.DEClash.Weighted>
0.0682

> <Gold.Chemscore.DEInternal.Weighted>
2.0133

> <Gold.Chemscore.Rot.Weighted>
4.6029

> <Gold.Chemscore.Internal.Correction.Weighted>
   9.000000E+99

> <Gold.Protein.RotatedTorsions>
[ 6907 6896 6895 6894 ] final   67.47 input  -60.11 | X-H torsion
[ 7974 7965 7964 7962 ] final   38.65 input  175.53 | X-H torsion
[ 8008 7997 7996 7995 ] final  113.30 input   59.86 | X-H torsion
[ 10167 10162 10161 10158 ] final  -60.87 input  -65.29 | X-H torsion
[ 10718 10713 10712 10709 ] final  116.73 input   66.30 | X-H torsion
[ 10763 10752 10751 10750 ] final -106.86 input  -60.55 | X-H torsion
[ 11005 11000 10999 10996 ] final  -37.59 input  -57.11 | X-H torsion

> <Gold.Protein.ActiveResidues>
 VAL166  LYS551  ARG553  GLY616  TRP617  ASP618  TYR619  PRO620  LYS621  CYS622 
 ASP623  PHE694  ASN695  SER759  ASP760  ASP761  ALA762  ILE779  LEU786  VAL792 
 PHE793  MET794  SER795  GLU796  ALA797  LYS798  CYS799  TRP800  GLU811  SER814 

> <Gold.Protein.RotatedAtoms>
  152.4554  134.5304  159.9808 H   0  0  0  0  0  0  0  0  0  0  0  0  # atno 6907 bound_to 6896
  151.5366  133.3434  159.2935 H   0  0  0  0  0  0  0  0  0  0  0  0  # atno 6908 bound_to 6896
  150.8496  134.7847  159.7061 H   0  0  0  0  0  0  0  0  0  0  0  0  # atno 6909 bound_to 6896
  146.1046  139.5747  142.9392 H   0  0  0  0  0  0  0  0  0  0  0  0  # atno 7974 bound_to 7965
  156.2249  140.2982  156.0043 H   0  0  0  0  0  0  0  0  0  0  0  0  # atno 8008 bound_to 7997
  155.2383  140.0421  157.2988 H   0  0  0  0  0  0  0  0  0  0  0  0  # atno 8009 bound_to 7997
  154.5900  140.2399  155.7942 H   0  0  0  0  0  0  0  0  0  0  0  0  # atno 8010 bound_to 7997
  140.6043  143.2369  151.5857 H   0  0  0  0  0  0  0  0  0  0  0  0  # atno 10167 bound_to 10162
  157.6141  131.1029  150.7515 H   0  0  0  0  0  0  0  0  0  0  0  0  # atno 10718 bound_to 10713
  154.8039  135.4696  154.0343 H   0  0  0  0  0  0  0  0  0  0  0  0  # atno 10763 bound_to 10752
  153.1827  135.6843  153.8463 H   0  0  0  0  0  0  0  0  0  0  0  0  # atno 10764 bound_to 10752
  153.8007  135.3230  155.3367 H   0  0  0  0  0  0  0  0  0  0  0  0  # atno 10765 bound_to 10752
  140.9963  133.6978  156.1941 H   0  0  0  0  0  0  0  0  0  0  0  0  # atno 11005 bound_to 11000
  145.5787  141.0385  143.2134 LP  0  0  0  0  0  0  0  0  0  0  0  0  # atno 17320 bound_to 7965
  144.7460  139.7319  143.7292 LP  0  0  0  0  0  0  0  0  0  0  0  0  # atno 17321 bound_to 7965
  139.5313  144.2907  152.1154 LP  0  0  0  0  0  0  0  0  0  0  0  0  # atno 17342 bound_to 10162
  140.2094  144.4578  150.6393 LP  0  0  0  0  0  0  0  0  0  0  0  0  # atno 17343 bound_to 10162
  156.7886  130.4882  149.5388 LP  0  0  0  0  0  0  0  0  0  0  0  0  # atno 17370 bound_to 10713
  156.1256  130.6141  151.0259 LP  0  0  0  0  0  0  0  0  0  0  0  0  # atno 17371 bound_to 10713
  140.6960  134.4615  157.5587 LP  0  0  0  0  0  0  0  0  0  0  0  0  # atno 17394 bound_to 11000
  139.9016  134.8542  156.1871 LP  0  0  0  0  0  0  0  0  0  0  0  0  # atno 17395 bound_to 11000

$$$$
