AV-unprocessed.smi:3136|AV-procd|sdf|11948|dock5
  -GOLD-   2272017343D 1   1.00000     0.00000
 Structure written by MMmdl.
 40 40  0  0  0  0  0  0  0  0  2 V2000
  151.7165  138.9079  154.6490 C   0  0  0  0  0  0  0  0  0  0  0  0
  150.3176  138.6287  154.0836 C   0  0  0  0  0  0  0  0  0  0  0  0
  149.6928  137.4837  154.7363 N   0  0  0  0  0  0  0  0  0  0  0  0
  150.2830  136.2972  154.9466 C   0  0  0  0  0  0  0  0  0  0  0  0
  151.4385  136.0481  154.6020 O   0  0  0  0  0  0  0  0  0  0  0  0
  149.4261  135.2395  155.6508 C   0  0  0  0  0  0  0  0  0  0  0  0
  148.9370  134.1199  154.7146 C   0  0  0  0  0  0  0  0  0  0  0  0
  147.9186  134.6291  153.7718 N   0  3  0  0  0  0  0  0  0  0  0  0
  147.1566  133.5919  153.0378 C   0  0  2  0  0  0  0  0  0  0  0  0
  148.1195  132.5351  152.4559 C   0  0  0  0  0  0  0  0  0  0  0  0
  146.2719  134.2620  151.9519 C   0  0  2  0  0  0  0  0  0  0  0  0
  145.6001  135.5558  152.4520 C   0  0  0  0  0  0  0  0  0  0  0  0
  145.2640  133.3527  151.4204 N   0  0  0  0  0  0  0  0  0  0  0  0
  145.1058  132.0065  151.6788 C   0  0  0  0  0  0  0  0  0  0  0  0
  144.0302  131.5751  150.9568 C   0  0  0  0  0  0  0  0  0  0  0  0
  143.5907  132.7430  150.2736 C   0  0  0  0  0  0  0  0  0  0  0  0
  144.3308  133.8039  150.5515 N   0  0  0  0  0  0  0  0  0  0  0  0
  152.1879  139.7377  154.1222 H   0  0  0  0  0  0  0  0  0  0  0  0
  152.3655  138.0376  154.5446 H   0  0  0  0  0  0  0  0  0  0  0  0
  151.6733  139.1705  155.7064 H   0  0  0  0  0  0  0  0  0  0  0  0
  149.6851  139.5126  154.1796 H   0  0  0  0  0  0  0  0  0  0  0  0
  150.3892  138.4135  153.0172 H   0  0  0  0  0  0  0  0  0  0  0  0
  148.7406  137.6046  155.0500 H   0  0  0  0  0  0  0  0  0  0  0  0
  150.0104  134.8088  156.4651 H   0  0  0  0  0  0  0  0  0  0  0  0
  148.5704  135.7397  156.1064 H   0  0  0  0  0  0  0  0  0  0  0  0
  149.7790  133.7076  154.1587 H   0  0  0  0  0  0  0  0  0  0  0  0
  148.5040  133.3063  155.2988 H   0  0  0  0  0  0  0  0  0  0  0  0
  147.2551  135.1645  154.3136 H   0  0  0  0  0  0  0  0  0  0  0  0
  146.4934  133.0935  153.7468 H   0  0  0  0  0  0  0  0  0  0  0  0
  147.5825  131.7235  151.9650 H   0  0  0  0  0  0  0  0  0  0  0  0
  148.7317  132.0736  153.2298 H   0  0  0  0  0  0  0  0  0  0  0  0
  148.7929  132.9780  151.7212 H   0  0  0  0  0  0  0  0  0  0  0  0
  146.9177  134.5310  151.1141 H   0  0  0  0  0  0  0  0  0  0  0  0
  146.3361  136.3091  152.7330 H   0  0  0  0  0  0  0  0  0  0  0  0
  144.9695  135.3693  153.3221 H   0  0  0  0  0  0  0  0  0  0  0  0
  144.9712  135.9940  151.6763 H   0  0  0  0  0  0  0  0  0  0  0  0
  145.7633  131.4716  152.3485 H   0  0  0  0  0  0  0  0  0  0  0  0
  143.6203  130.5767  150.9202 H   0  0  0  0  0  0  0  0  0  0  0  0
  142.7621  132.8502  149.5892 H   0  0  0  0  0  0  0  0  0  0  0  0
  148.3575  135.2464  153.1037 H   0  0  0  0  0  0  0  0  0  0  0  0
  1  2  1  0  0  0  0
  1 18  1  0  0  0  0
  1 19  1  0  0  0  0
  1 20  1  0  0  0  0
  2  3  1  0  0  0  0
  2 21  1  0  0  0  0
  2 22  1  0  0  0  0
  3  4  1  0  0  0  0
  3 23  1  0  0  0  0
  4  5  2  0  0  0  0
  4  6  1  0  0  0  0
  6  7  1  0  0  0  0
  6 24  1  0  0  0  0
  6 25  1  0  0  0  0
  7  8  1  0  0  0  0
  7 26  1  0  0  0  0
  7 27  1  0  0  0  0
  8  9  1  0  0  0  0
  8 28  1  0  0  0  0
  8 40  1  0  0  0  0
  9 10  1  0  0  0  0
  9 11  1  0  0  0  0
  9 29  1  0  0  0  0
 10 30  1  0  0  0  0
 10 31  1  0  0  0  0
 10 32  1  0  0  0  0
 11 12  1  0  0  0  0
 11 13  1  0  0  0  0
 11 33  1  0  0  0  0
 12 34  1  0  0  0  0
 12 35  1  0  0  0  0
 12 36  1  0  0  0  0
 13 17  1  0  0  0  0
 13 14  1  0  0  0  0
 14 15  2  0  0  0  0
 14 37  1  0  0  0  0
 15 16  1  0  0  0  0
 15 38  1  0  0  0  0
 16 17  2  0  0  0  0
 16 39  1  0  0  0  0
M  CHG  1   8   1
M  END
> <s_m_source_file>
AV-unprocessed.smi

> <i_m_source_file_index>
3136

> <i_lp_mmshare_version>
43012

> <i_f3d_flags>
0

> <s_epik_input>
W0NIM11bQ0gyXVtOSF1DKD1PKVtDSDJdW0NIMl1bTkhdW0NASF0oW0NIM10pW0NASF0oW0NIM10pbjFbY0hdW2NIXVtjSF1uMQ==

> <s_epik_cmdline>
J2VwaWtfcHl0aG9uJywgJy1waCcsICc3LjAnLCAnLXRuJywgJzgnLCAnLW1hJywgJzIwMCcsICctbWV0YWxfYmluZGluZycsICctaW1hZScsICc8aW5maWxlLm1hZT4nLCAnLW9tYWUnLCAnPG91dGZpbGUubWFlPic=

> <r_lp_tautomer_probability>
1

> <r_epik_Ionization_Penalty>
0.00463447

> <r_epik_Ionization_Penalty_Charging>
0.00462393

> <r_epik_Ionization_Penalty_Neutral>
1.05394e-05

> <r_epik_State_Penalty>
-0

> <r_epik_Charging_Adjusted_Penalty>
0.00462393

> <i_epik_Tot_Q>
1

> <i_epik_Tot_abs_Q>
1

> <r_epik_Metal_State_Penalty>
-0

> <b_epik_Metal_Only>
0

> <s_lp_Force_Field>
OPLS_2005

> <r_lp_Energy>
10.4266

> <b_lp_Chiralities_Consistent>
1

> <s_lp_Variant>
AV-unprocessed.smi:3136-1

> <Gold.Version>
5.8.1

> <Gold.Id.Protein>
6NUR|6NUR_protein|mol2

> <Gold.PLP.Fitness>
40.3509

> <Gold.PLP.PLP>
-30.0001

> <Gold.PLP.part.hbond>
-2.4063

> <Gold.PLP.part.metal>
0.0000

> <Gold.PLP.part.buried>
-1.6816

> <Gold.PLP.part.nonpolar>
-26.2907

> <Gold.PLP.part.repulsive>
0.3313

> <Gold.PLP.ligand.clash>
0.0000

> <Gold.PLP.ligand.torsion>
0.7371

> <Gold.PLP.Chemscore.Hbond>
3.0000

> <Gold.PLP.Chemscore.CHOScore>
0.8834

> <Gold.PLP.Chemscore.Metal>
0.0000

> <Gold.Chemscore.Hbonds>
donor molecule, donor type, donor heavy atom, donor atom, acceptor molecule, acceptor atom, score
      L1  H     8    40       P1  7948  2.00
      P1  H 10752 10763       L1     5  1.00
      L1  C    16    39       P1 10186  1.00

> <Gold.PLP.Chemscore.Internal.Correction>
0.1749

> <Gold.Rescore>
     Score         DG    S(hbond)    S(metal)    S(lipo)     H(rot)  DE(clash)    DE(int)     intcor
     12.62     -14.39       1.99        0.00      70.07       2.32       0.04       1.73       ----

> <Gold.Chemscore.Fitness>
12.6169

> <Gold.Chemscore.DG>
-14.3895

> <Gold.Chemscore.ZeroCoef>
-5.4800

> <Gold.Chemscore.Hbond>
1.9881

> <Gold.Chemscore.Metal>
0.0000

> <Gold.Chemscore.Lipo>
70.0679

> <Gold.Chemscore.Internal_Hbond>
0.0000

> <Gold.Chemscore.DEClash>
0.0424

> <Gold.Chemscore.DEInternal>
1.7302

> <Gold.Chemscore.Rot>
2.3159

> <Gold.Chemscore.Internal.Correction>
   9.000000E+99

> <Gold.Chemscore.Hbonds>
donor molecule, donor type, donor heavy atom, donor atom, acceptor molecule, acceptor atom, score
      L1  H     8    40       P1  7948  0.96
      P1  H 10752 10763       L1     5  0.96

> <Gold.Chemscore.Hbond.Weighted>
-6.6401

> <Gold.Chemscore.Metal.Weighted>
-0.0000

> <Gold.Chemscore.Lipo.Weighted>
-8.1979

> <Gold.Chemscore.Internal_Hbond.Weighted>
0.0000

> <Gold.Chemscore.DEClash.Weighted>
0.0424

> <Gold.Chemscore.DEInternal.Weighted>
1.7302

> <Gold.Chemscore.Rot.Weighted>
5.9286

> <Gold.Chemscore.Internal.Correction.Weighted>
   9.000000E+99

> <Gold.Protein.RotatedTorsions>
[ 6907 6896 6895 6894 ] final -154.68 input  -60.11 | X-H torsion
[ 7974 7965 7964 7962 ] final  -47.99 input  175.53 | X-H torsion
[ 8008 7997 7996 7995 ] final  118.24 input   59.86 | X-H torsion
[ 10167 10162 10161 10158 ] final   -9.06 input  -65.29 | X-H torsion
[ 10718 10713 10712 10709 ] final -108.73 input   66.30 | X-H torsion
[ 10763 10752 10751 10750 ] final   69.32 input  -60.55 | X-H torsion
[ 11005 11000 10999 10996 ] final -139.65 input  -57.11 | X-H torsion

> <Gold.Protein.ActiveResidues>
 VAL166  LYS551  ARG553  GLY616  TRP617  ASP618  TYR619  PRO620  LYS621  CYS622 
 ASP623  PHE694  ASN695  SER759  ASP760  ASP761  ALA762  ILE779  LEU786  VAL792 
 PHE793  MET794  SER795  GLU796  ALA797  LYS798  CYS799  TRP800  GLU811  SER814 

> <Gold.Protein.RotatedAtoms>
  151.2611  133.4302  159.2615 H   0  0  0  0  0  0  0  0  0  0  0  0  # atno 6907 bound_to 6896
  151.0530  134.9686  159.8231 H   0  0  0  0  0  0  0  0  0  0  0  0  # atno 6908 bound_to 6896
  152.5386  134.2564  159.8971 H   0  0  0  0  0  0  0  0  0  0  0  0  # atno 6909 bound_to 6896
  145.9559  140.7527  142.9482 H   0  0  0  0  0  0  0  0  0  0  0  0  # atno 7974 bound_to 7965
  156.2536  140.2879  156.0803 H   0  0  0  0  0  0  0  0  0  0  0  0  # atno 8008 bound_to 7997
  155.1574  140.0399  157.2852 H   0  0  0  0  0  0  0  0  0  0  0  0  # atno 8009 bound_to 7997
  154.6417  140.2524  155.7321 H   0  0  0  0  0  0  0  0  0  0  0  0  # atno 8010 bound_to 7997
  140.7077  143.5900  150.8904 H   0  0  0  0  0  0  0  0  0  0  0  0  # atno 10167 bound_to 10162
  156.0500  130.5728  150.8002 H   0  0  0  0  0  0  0  0  0  0  0  0  # atno 10718 bound_to 10713
  153.0281  135.5215  154.7270 H   0  0  0  0  0  0  0  0  0  0  0  0  # atno 10763 bound_to 10752
  154.6309  135.2900  155.0220 H   0  0  0  0  0  0  0  0  0  0  0  0  # atno 10764 bound_to 10752
  154.1173  135.6613  153.4948 H   0  0  0  0  0  0  0  0  0  0  0  0  # atno 10765 bound_to 10752
  140.8499  134.2298  157.4766 H   0  0  0  0  0  0  0  0  0  0  0  0  # atno 11005 bound_to 11000
  144.6805  140.2510  143.7331 LP  0  0  0  0  0  0  0  0  0  0  0  0  # atno 17320 bound_to 7965
  145.8108  139.2002  143.1994 LP  0  0  0  0  0  0  0  0  0  0  0  0  # atno 17321 bound_to 7965
  139.9625  143.6147  152.2998 LP  0  0  0  0  0  0  0  0  0  0  0  0  # atno 17342 bound_to 10162
  139.6705  144.7661  151.1792 LP  0  0  0  0  0  0  0  0  0  0  0  0  # atno 17343 bound_to 10162
  157.5417  131.0941  150.9818 LP  0  0  0  0  0  0  0  0  0  0  0  0  # atno 17370 bound_to 10713
  157.0099  130.5633  149.5320 LP  0  0  0  0  0  0  0  0  0  0  0  0  # atno 17371 bound_to 10713
  139.8704  134.9678  156.4609 LP  0  0  0  0  0  0  0  0  0  0  0  0  # atno 17394 bound_to 11000
  140.8801  133.7924  155.9457 LP  0  0  0  0  0  0  0  0  0  0  0  0  # atno 17395 bound_to 11000

$$$$
