AV-unprocessed.smi:1044|AV-procd|sdf|4543|dock9
  -GOLD-   22720 2573D 1   1.00000     0.00000
 Structure written by MMmdl.
 45 46  0  0  0  0  0  0  0  0  1 V2000
  139.8997  139.3837  153.8632 C   0  0  0  0  0  0  0  0  0  0  0  0
  140.2807  137.9175  153.6449 C   0  0  0  0  0  0  0  0  0  0  0  0
  141.7011  137.8142  153.6218 O   0  0  0  0  0  0  0  0  0  0  0  0
  142.2743  136.6138  153.2472 C   0  0  0  0  0  0  0  0  0  0  0  0
  141.4860  135.5109  153.1943 N   0  0  0  0  0  0  0  0  0  0  0  0
  142.0425  134.3399  152.8233 C   0  0  0  0  0  0  0  0  0  0  0  0
  143.4006  134.2069  152.4819 C   0  0  0  0  0  0  0  0  0  0  0  0
  144.2210  135.3492  152.5370 C   0  0  0  0  0  0  0  0  0  0  0  0
  143.6543  136.5837  152.9380 C   0  0  0  0  0  0  0  0  0  0  0  0
  144.3825  137.8039  153.0093 N   0  0  0  0  0  0  0  0  0  0  0  0
  145.6705  138.0001  153.3387 C   0  0  0  0  0  0  0  0  0  0  0  0
  146.4633  137.1215  153.6770 O   0  0  0  0  0  0  0  0  0  0  0  0
  145.9920  139.2998  153.2716 N   0  0  0  0  0  0  0  0  0  0  0  0
  147.3080  139.8573  153.5670 C   0  0  1  0  0  0  0  0  0  0  0  0
  147.2274  141.3897  153.6051 C   0  0  0  0  0  0  0  0  0  0  0  0
  148.6048  141.9705  153.9434 C   0  0  0  0  0  0  0  0  0  0  0  0
  149.1401  141.4005  155.2683 C   0  0  0  0  0  0  0  0  0  0  0  0
  149.1370  139.9229  155.2697 N   0  0  0  0  0  0  0  0  0  0  0  0
  150.6167  139.0471  155.0015 S   0  0  0  0  0  0  0  0  0  0  0  0
  150.7756  137.9701  156.4836 C   0  0  0  0  0  0  0  0  0  0  0  0
  150.4235  138.1856  153.8250 O   0  0  0  0  0  0  0  0  0  0  0  0
  151.7221  140.0172  155.0204 O   0  0  0  0  0  0  0  0  0  0  0  0
  147.8443  139.3075  154.9068 C   0  0  0  0  0  0  0  0  0  0  0  0
  138.8165  139.5048  153.8867 H   0  0  0  0  0  0  0  0  0  0  0  0
  140.2893  140.0133  153.0627 H   0  0  0  0  0  0  0  0  0  0  0  0
  140.2984  139.7553  154.8075 H   0  0  0  0  0  0  0  0  0  0  0  0
  139.8667  137.3088  154.4504 H   0  0  0  0  0  0  0  0  0  0  0  0
  139.8580  137.5658  152.7024 H   0  0  0  0  0  0  0  0  0  0  0  0
  141.3839  133.4846  152.7915 H   0  0  0  0  0  0  0  0  0  0  0  0
  143.8036  133.2515  152.1803 H   0  0  0  0  0  0  0  0  0  0  0  0
  145.2586  135.2564  152.2567 H   0  0  0  0  0  0  0  0  0  0  0  0
  143.8380  138.6368  152.8381 H   0  0  0  0  0  0  0  0  0  0  0  0
  145.2747  139.9527  152.9921 H   0  0  0  0  0  0  0  0  0  0  0  0
  147.9881  139.5796  152.7616 H   0  0  0  0  0  0  0  0  0  0  0  0
  146.8867  141.7769  152.6442 H   0  0  0  0  0  0  0  0  0  0  0  0
  146.4987  141.7111  154.3508 H   0  0  0  0  0  0  0  0  0  0  0  0
  149.3021  141.7573  153.1342 H   0  0  0  0  0  0  0  0  0  0  0  0
  148.5401  143.0568  154.0103 H   0  0  0  0  0  0  0  0  0  0  0  0
  150.1419  141.7802  155.4670 H   0  0  0  0  0  0  0  0  0  0  0  0
  148.5135  141.7451  156.0914 H   0  0  0  0  0  0  0  0  0  0  0  0
  151.6720  137.3589  156.3839 H   0  0  0  0  0  0  0  0  0  0  0  0
  149.9088  137.3166  156.5640 H   0  0  0  0  0  0  0  0  0  0  0  0
  150.8665  138.5834  157.3789 H   0  0  0  0  0  0  0  0  0  0  0  0
  147.1306  139.5165  155.7047 H   0  0  0  0  0  0  0  0  0  0  0  0
  147.9462  138.2230  154.8641 H   0  0  0  0  0  0  0  0  0  0  0  0
  1  2  1  0  0  0  0
  1 24  1  0  0  0  0
  1 25  1  0  0  0  0
  1 26  1  0  0  0  0
  2  3  1  0  0  0  0
  2 27  1  0  0  0  0
  2 28  1  0  0  0  0
  3  4  1  0  0  0  0
  4  9  1  0  0  0  0
  4  5  2  0  0  0  0
  5  6  1  0  0  0  0
  6  7  2  0  0  0  0
  6 29  1  0  0  0  0
  7  8  1  0  0  0  0
  7 30  1  0  0  0  0
  8  9  2  0  0  0  0
  8 31  1  0  0  0  0
  9 10  1  0  0  0  0
 10 11  1  0  0  0  0
 10 32  1  0  0  0  0
 11 12  2  0  0  0  0
 11 13  1  0  0  0  0
 13 14  1  0  0  0  0
 13 33  1  0  0  0  0
 14 23  1  0  0  0  0
 14 15  1  0  0  0  0
 14 34  1  0  0  0  0
 15 16  1  0  0  0  0
 15 35  1  0  0  0  0
 15 36  1  0  0  0  0
 16 17  1  0  0  0  0
 16 37  1  0  0  0  0
 16 38  1  0  0  0  0
 17 18  1  0  0  0  0
 17 39  1  0  0  0  0
 17 40  1  0  0  0  0
 18 19  1  0  0  0  0
 18 23  1  0  0  0  0
 19 20  1  0  0  0  0
 19 21  2  0  0  0  0
 19 22  2  0  0  0  0
 20 41  1  0  0  0  0
 20 42  1  0  0  0  0
 20 43  1  0  0  0  0
 23 44  1  0  0  0  0
 23 45  1  0  0  0  0
M  END
> <s_m_source_file>
AV-unprocessed.smi

> <i_m_source_file_index>
1044

> <i_lp_mmshare_version>
43012

> <i_f3d_flags>
0

> <s_epik_input>
W0NIM11bQ0gyXU9jMW5bY0hdW2NIXVtjSF1jMVtOSF1DKD1PKVtOSF1bQ0BASF0yW0NIMl1bQ0gyXVtDSDJdTihbQ0gyXTIpUyg9TykoPU8pW0NIM10=

> <s_epik_cmdline>
J2VwaWtfcHl0aG9uJywgJy1waCcsICc3LjAnLCAnLXRuJywgJzgnLCAnLW1hJywgJzIwMCcsICctbWV0YWxfYmluZGluZycsICctaW1hZScsICc8aW5maWxlLm1hZT4nLCAnLW9tYWUnLCAnPG91dGZpbGUubWFlPic=

> <r_lp_tautomer_probability>
1

> <r_epik_Ionization_Penalty>
0.000106941

> <r_epik_Ionization_Penalty_Charging>
0

> <r_epik_Ionization_Penalty_Neutral>
0.000106941

> <r_epik_State_Penalty>
-0

> <r_epik_Charging_Adjusted_Penalty>
0

> <i_epik_Tot_Q>
0

> <i_epik_Tot_abs_Q>
0

> <r_epik_Metal_State_Penalty>
-0

> <b_epik_Metal_Only>
0

> <s_lp_Force_Field>
OPLS_2005

> <r_lp_Energy>
2.58549

> <b_lp_Chiralities_Consistent>
1

> <s_lp_Variant>
AV-unprocessed.smi:1044-2

> <Gold.Version>
5.8.1

> <Gold.Id.Protein>
6NUR|6NUR_protein|mol2

> <Gold.PLP.Fitness>
37.9409

> <Gold.PLP.PLP>
-29.8705

> <Gold.PLP.part.hbond>
-3.0353

> <Gold.PLP.part.metal>
0.0000

> <Gold.PLP.part.buried>
-3.7511

> <Gold.PLP.part.nonpolar>
-25.0898

> <Gold.PLP.part.repulsive>
1.1528

> <Gold.PLP.ligand.clash>
0.0000

> <Gold.PLP.ligand.torsion>
1.5555

> <Gold.PLP.Chemscore.Hbond>
2.9920

> <Gold.PLP.Chemscore.CHOScore>
0.0442

> <Gold.PLP.Chemscore.Metal>
0.0000

> <Gold.Chemscore.Hbonds>
donor molecule, donor type, donor heavy atom, donor atom, acceptor molecule, acceptor atom, score
      L1  H    10    32       P1 10175  1.00
      L1  H    13    33       P1 10175  1.00
      P1  H  7989  7998       L1    22  0.99
      L1  C     6    29       P1 10957  0.04

> <Gold.PLP.Chemscore.Internal.Correction>
2.0726

> <Gold.Rescore>
     Score         DG    S(hbond)    S(metal)    S(lipo)     H(rot)  DE(clash)    DE(int)     intcor
     14.99     -19.03       2.82        0.00      67.20       1.45       1.29       2.75       ----

> <Gold.Chemscore.Fitness>
14.9945

> <Gold.Chemscore.DG>
-19.0349

> <Gold.Chemscore.ZeroCoef>
-5.4800

> <Gold.Chemscore.Hbond>
2.8194

> <Gold.Chemscore.Metal>
0.0000

> <Gold.Chemscore.Lipo>
67.2020

> <Gold.Chemscore.Internal_Hbond>
0.0000

> <Gold.Chemscore.DEClash>
1.2924

> <Gold.Chemscore.DEInternal>
2.7480

> <Gold.Chemscore.Rot>
1.4549

> <Gold.Chemscore.Internal.Correction>
   9.000000E+99

> <Gold.Chemscore.Hbonds>
donor molecule, donor type, donor heavy atom, donor atom, acceptor molecule, acceptor atom, score
      L1  H    10    32       P1 10175  0.98
      L1  H    13    33       P1 10175  0.99
      P1  H  7989  7998       L1    22  0.56

> <Gold.Chemscore.Hbond.Weighted>
-9.4167

> <Gold.Chemscore.Metal.Weighted>
-0.0000

> <Gold.Chemscore.Lipo.Weighted>
-7.8626

> <Gold.Chemscore.Internal_Hbond.Weighted>
0.0000

> <Gold.Chemscore.DEClash.Weighted>
1.2924

> <Gold.Chemscore.DEInternal.Weighted>
2.7480

> <Gold.Chemscore.Rot.Weighted>
3.7244

> <Gold.Chemscore.Internal.Correction.Weighted>
   9.000000E+99

> <Gold.Protein.RotatedTorsions>
[ 6907 6896 6895 6894 ] final -152.95 input  -60.11 | X-H torsion
[ 7974 7965 7964 7962 ] final -163.77 input  175.53 | X-H torsion
[ 8008 7997 7996 7995 ] final  130.71 input   59.86 | X-H torsion
[ 10167 10162 10161 10158 ] final  144.71 input  -65.29 | X-H torsion
[ 10718 10713 10712 10709 ] final -133.66 input   66.30 | X-H torsion
[ 10763 10752 10751 10750 ] final   36.84 input  -60.55 | X-H torsion
[ 11005 11000 10999 10996 ] final -116.12 input  -57.11 | X-H torsion

> <Gold.Protein.ActiveResidues>
 VAL166  LYS551  ARG553  GLY616  TRP617  ASP618  TYR619  PRO620  LYS621  CYS622 
 ASP623  PHE694  ASN695  SER759  ASP760  ASP761  ALA762  ILE779  LEU786  VAL792 
 PHE793  MET794  SER795  GLU796  ALA797  LYS798  CYS799  TRP800  GLU811  SER814 

> <Gold.Protein.RotatedAtoms>
  151.2354  133.4428  159.2605 H   0  0  0  0  0  0  0  0  0  0  0  0  # atno 6907 bound_to 6896
  151.0755  134.9826  159.8340 H   0  0  0  0  0  0  0  0  0  0  0  0  # atno 6908 bound_to 6896
  152.5418  134.2297  159.8872 H   0  0  0  0  0  0  0  0  0  0  0  0  # atno 6909 bound_to 6896
  144.7316  140.3059  143.6196 H   0  0  0  0  0  0  0  0  0  0  0  0  # atno 7974 bound_to 7965
  156.2959  140.2589  156.2806 H   0  0  0  0  0  0  0  0  0  0  0  0  # atno 8008 bound_to 7997
  154.9605  140.0392  157.2206 H   0  0  0  0  0  0  0  0  0  0  0  0  # atno 8009 bound_to 7997
  154.7951  140.2818  155.5967 H   0  0  0  0  0  0  0  0  0  0  0  0  # atno 8010 bound_to 7997
  139.4941  144.5952  151.6597 H   0  0  0  0  0  0  0  0  0  0  0  0  # atno 10167 bound_to 10162
  156.2473  130.7132  151.1017 H   0  0  0  0  0  0  0  0  0  0  0  0  # atno 10718 bound_to 10713
  153.0061  135.6294  154.2050 H   0  0  0  0  0  0  0  0  0  0  0  0  # atno 10763 bound_to 10752
  154.1793  135.2814  155.3058 H   0  0  0  0  0  0  0  0  0  0  0  0  # atno 10764 bound_to 10752
  154.5847  135.5636  153.7279 H   0  0  0  0  0  0  0  0  0  0  0  0  # atno 10765 bound_to 10752
  141.0443  133.9787  157.2943 H   0  0  0  0  0  0  0  0  0  0  0  0  # atno 11005 bound_to 11000
  145.7714  139.1858  143.2210 LP  0  0  0  0  0  0  0  0  0  0  0  0  # atno 17320 bound_to 7965
  146.0908  140.7658  142.9596 LP  0  0  0  0  0  0  0  0  0  0  0  0  # atno 17321 bound_to 7965
  140.5589  144.0302  150.6160 LP  0  0  0  0  0  0  0  0  0  0  0  0  # atno 17342 bound_to 10162
  140.3381  143.3036  152.0617 LP  0  0  0  0  0  0  0  0  0  0  0  0  # atno 17343 bound_to 10162
  157.7200  131.0687  150.6174 LP  0  0  0  0  0  0  0  0  0  0  0  0  # atno 17370 bound_to 10713
  156.6251  130.4416  149.5807 LP  0  0  0  0  0  0  0  0  0  0  0  0  # atno 17371 bound_to 10713
  139.9300  135.0200  156.8366 LP  0  0  0  0  0  0  0  0  0  0  0  0  # atno 17394 bound_to 11000
  140.6176  134.0024  155.7604 LP  0  0  0  0  0  0  0  0  0  0  0  0  # atno 17395 bound_to 11000

$$$$
