AV-unprocessed.smi:3263|AV-procd|sdf|12491|dock9
  -GOLD-   2272018393D 1   1.00000     0.00000
 Structure written by MMmdl.
 42 44  0  0  0  0  0  0  0  0  2 V2000
  144.5972  135.7392  153.2159 O   0  0  0  0  0  0  0  0  0  0  0  0
  145.7823  135.7239  152.8823 C   0  0  0  0  0  0  0  0  0  0  0  0
  146.4654  134.4191  152.4520 C   0  0  0  0  0  0  0  0  0  0  0  0
  145.9578  133.8547  151.1044 C   0  0  1  0  0  0  0  0  0  0  0  0
  145.9224  132.3081  151.0296 C   0  0  0  0  0  0  0  0  0  0  0  0
  144.4636  132.0083  150.6414 C   0  0  2  0  0  0  0  0  0  0  0  0
  144.2136  132.4605  149.1909 C   0  0  0  0  0  0  0  0  0  0  0  0
  144.1999  133.9959  149.3125 C   0  0  0  0  0  0  0  0  0  0  0  0
  144.4840  134.2201  150.8103 C   0  0  1  0  0  0  0  0  0  0  0  0
  143.7112  133.0647  151.4396 C   0  0  0  0  0  0  0  0  0  0  0  0
  146.5512  136.8237  152.8724 N   0  0  0  0  0  0  0  0  0  0  0  0
  146.1042  138.1597  153.2495 C   0  0  0  0  0  0  0  0  0  0  0  0
  147.0471  139.2485  152.7088 C   0  0  0  0  0  0  0  0  0  0  0  0
  148.2902  139.4076  153.5620 C   0  0  0  0  0  0  0  0  0  0  0  0
  148.5399  140.5767  154.3134 C   0  0  0  0  0  0  0  0  0  0  0  0
  149.7193  140.6626  155.0825 C   0  0  0  0  0  0  0  0  0  0  0  0
  150.6234  139.5802  155.0832 C   0  0  0  0  0  0  0  0  0  0  0  0
  150.3249  138.4376  154.3132 C   0  0  0  0  0  0  0  0  0  0  0  0
  149.1849  138.3934  153.5888 N   0  3  0  0  0  0  0  0  0  0  0  0
  147.5422  134.5862  152.4171 H   0  0  0  0  0  0  0  0  0  0  0  0
  146.2975  133.6736  153.2308 H   0  0  0  0  0  0  0  0  0  0  0  0
  146.5911  134.2514  150.3089 H   0  0  0  0  0  0  0  0  0  0  0  0
  146.6346  131.9118  150.3051 H   0  0  0  0  0  0  0  0  0  0  0  0
  146.1510  131.8577  151.9964 H   0  0  0  0  0  0  0  0  0  0  0  0
  144.1615  130.9792  150.8383 H   0  0  0  0  0  0  0  0  0  0  0  0
  144.9870  132.1041  148.5095 H   0  0  0  0  0  0  0  0  0  0  0  0
  143.2520  132.0958  148.8280 H   0  0  0  0  0  0  0  0  0  0  0  0
  144.9399  134.4732  148.6692 H   0  0  0  0  0  0  0  0  0  0  0  0
  143.2203  134.3919  149.0418 H   0  0  0  0  0  0  0  0  0  0  0  0
  144.1934  135.2120  151.1580 H   0  0  0  0  0  0  0  0  0  0  0  0
  142.6416  133.0899  151.2232 H   0  0  0  0  0  0  0  0  0  0  0  0
  143.8543  132.9781  152.5178 H   0  0  0  0  0  0  0  0  0  0  0  0
  147.5135  136.7267  152.5812 H   0  0  0  0  0  0  0  0  0  0  0  0
  145.0990  138.3037  152.8525 H   0  0  0  0  0  0  0  0  0  0  0  0
  146.0224  138.2300  154.3358 H   0  0  0  0  0  0  0  0  0  0  0  0
  147.3514  139.0140  151.6879 H   0  0  0  0  0  0  0  0  0  0  0  0
  146.5255  140.2054  152.6606 H   0  0  0  0  0  0  0  0  0  0  0  0
  147.8384  141.3983  154.3010 H   0  0  0  0  0  0  0  0  0  0  0  0
  149.9281  141.5483  155.6645 H   0  0  0  0  0  0  0  0  0  0  0  0
  151.5320  139.6260  155.6656 H   0  0  0  0  0  0  0  0  0  0  0  0
  150.9584  137.5645  154.2552 H   0  0  0  0  0  0  0  0  0  0  0  0
  148.9896  137.5566  153.0389 H   0  0  0  0  0  0  0  0  0  0  0  0
  1  2  2  0  0  0  0
  2  3  1  0  0  0  0
  2 11  1  0  0  0  0
  3  4  1  0  0  0  0
  3 20  1  0  0  0  0
  3 21  1  0  0  0  0
  4  9  1  0  0  0  0
  4  5  1  0  0  0  0
  4 22  1  0  0  0  0
  5  6  1  0  0  0  0
  5 23  1  0  0  0  0
  5 24  1  0  0  0  0
  6 10  1  0  0  0  0
  6  7  1  0  0  0  0
  6 25  1  0  0  0  0
  7  8  1  0  0  0  0
  7 26  1  0  0  0  0
  7 27  1  0  0  0  0
  8  9  1  0  0  0  0
  8 28  1  0  0  0  0
  8 29  1  0  0  0  0
  9 10  1  0  0  0  0
  9 30  1  0  0  0  0
 10 31  1  0  0  0  0
 10 32  1  0  0  0  0
 11 12  1  0  0  0  0
 11 33  1  0  0  0  0
 12 13  1  0  0  0  0
 12 34  1  0  0  0  0
 12 35  1  0  0  0  0
 13 14  1  0  0  0  0
 13 36  1  0  0  0  0
 13 37  1  0  0  0  0
 14 19  1  0  0  0  0
 14 15  2  0  0  0  0
 15 16  1  0  0  0  0
 15 38  1  0  0  0  0
 16 17  2  0  0  0  0
 16 39  1  0  0  0  0
 17 18  1  0  0  0  0
 17 40  1  0  0  0  0
 18 19  2  0  0  0  0
 18 41  1  0  0  0  0
 19 42  1  0  0  0  0
M  CHG  1  19   1
M  END
> <s_m_source_file>
AV-unprocessed.smi

> <i_m_source_file_index>
3263

> <i_lp_mmshare_version>
43012

> <i_f3d_flags>
0

> <s_epik_input>
W0NIMl0xW0NIMl1bQ0BASF0oW0NIMl0yKVtDQEBIXShbQ0gyXVtDQEhdMTIpW0NIMl1DKD1PKVtOSF1bQ0gyXVtDSDJdYzNbY0hdW2NIXVtjSF1bY0hdbjM=

> <s_epik_cmdline>
J2VwaWtfcHl0aG9uJywgJy1waCcsICc3LjAnLCAnLXRuJywgJzgnLCAnLW1hJywgJzIwMCcsICctbWV0YWxfYmluZGluZycsICctaW1hZScsICc8aW5maWxlLm1hZT4nLCAnLW9tYWUnLCAnPG91dGZpbGUubWFlPic=

> <r_epik_Ionization_Penalty>
1.83579

> <r_epik_Ionization_Penalty_Charging>
1.83579

> <r_epik_Ionization_Penalty_Neutral>
2.47288e-08

> <r_epik_State_Penalty>
1.95213

> <r_epik_Charging_Adjusted_Penalty>
3.78793

> <i_epik_Tot_Q>
1

> <i_epik_Tot_abs_Q>
1

> <r_epik_Metal_State_Penalty>
1.97847

> <b_epik_Metal_Only>
0

> <s_lp_Force_Field>
OPLS_2005

> <r_lp_Energy>
52.562

> <b_lp_Chiralities_Consistent>
1

> <s_lp_Variant>
AV-unprocessed.smi:3263-6

> <Gold.Version>
5.8.1

> <Gold.Id.Protein>
6NUR|6NUR_protein|mol2

> <Gold.PLP.Fitness>
43.7976

> <Gold.PLP.PLP>
-36.3013

> <Gold.PLP.part.hbond>
-3.0000

> <Gold.PLP.part.metal>
0.0000

> <Gold.PLP.part.buried>
3.6943

> <Gold.PLP.part.nonpolar>
-36.5065

> <Gold.PLP.part.repulsive>
0.1421

> <Gold.PLP.ligand.clash>
0.0000

> <Gold.PLP.ligand.torsion>
0.7651

> <Gold.PLP.Chemscore.Hbond>
3.0000

> <Gold.PLP.Chemscore.CHOScore>
0.0000

> <Gold.PLP.Chemscore.Metal>
0.0000

> <Gold.Chemscore.Hbonds>
donor molecule, donor type, donor heavy atom, donor atom, acceptor molecule, acceptor atom, score
      L1  H    11    33       P1  7948  1.00
      L1  H    19    42       P1  7948  2.00

> <Gold.PLP.Chemscore.Internal.Correction>
0.0264

> <Gold.Rescore>
     Score         DG    S(hbond)    S(metal)    S(lipo)     H(rot)  DE(clash)    DE(int)     intcor
     17.12     -20.66       1.99        0.00     106.99       1.56       1.44       2.09       ----

> <Gold.Chemscore.Fitness>
17.1244

> <Gold.Chemscore.DG>
-20.6575

> <Gold.Chemscore.ZeroCoef>
-5.4800

> <Gold.Chemscore.Hbond>
1.9950

> <Gold.Chemscore.Metal>
0.0000

> <Gold.Chemscore.Lipo>
106.9912

> <Gold.Chemscore.Internal_Hbond>
0.0000

> <Gold.Chemscore.DEClash>
1.4386

> <Gold.Chemscore.DEInternal>
2.0946

> <Gold.Chemscore.Rot>
1.5640

> <Gold.Chemscore.Internal.Correction>
   9.000000E+99

> <Gold.Chemscore.Hbonds>
donor molecule, donor type, donor heavy atom, donor atom, acceptor molecule, acceptor atom, score
      L1  H    11    33       P1  7948  1.00
      L1  H    19    42       P1  7948  1.00

> <Gold.Chemscore.Hbond.Weighted>
-6.6633

> <Gold.Chemscore.Metal.Weighted>
-0.0000

> <Gold.Chemscore.Lipo.Weighted>
-12.5180

> <Gold.Chemscore.Internal_Hbond.Weighted>
0.0000

> <Gold.Chemscore.DEClash.Weighted>
1.4386

> <Gold.Chemscore.DEInternal.Weighted>
2.0946

> <Gold.Chemscore.Rot.Weighted>
4.0038

> <Gold.Chemscore.Internal.Correction.Weighted>
   9.000000E+99

> <Gold.Protein.RotatedTorsions>
[ 6907 6896 6895 6894 ] final -170.19 input  -60.11 | X-H torsion
[ 7974 7965 7964 7962 ] final -144.29 input  175.53 | X-H torsion
[ 8008 7997 7996 7995 ] final   25.19 input   59.86 | X-H torsion
[ 10167 10162 10161 10158 ] final  -10.27 input  -65.29 | X-H torsion
[ 10718 10713 10712 10709 ] final   68.89 input   66.30 | X-H torsion
[ 10763 10752 10751 10750 ] final -132.74 input  -60.55 | X-H torsion
[ 11005 11000 10999 10996 ] final  127.76 input  -57.11 | X-H torsion

> <Gold.Protein.ActiveResidues>
 VAL166  LYS551  ARG553  GLY616  TRP617  ASP618  TYR619  PRO620  LYS621  CYS622 
 ASP623  PHE694  ASN695  SER759  ASP760  ASP761  ALA762  ILE779  LEU786  VAL792 
 PHE793  MET794  SER795  GLU796  ALA797  LYS798  CYS799  TRP800  GLU811  SER814 

> <Gold.Protein.RotatedAtoms>
  151.5037  133.3499  159.2873 H   0  0  0  0  0  0  0  0  0  0  0  0  # atno 6907 bound_to 6896
  150.8756  134.8141  159.7198 H   0  0  0  0  0  0  0  0  0  0  0  0  # atno 6908 bound_to 6896
  152.4728  134.4928  159.9752 H   0  0  0  0  0  0  0  0  0  0  0  0  # atno 6909 bound_to 6896
  144.8308  140.5729  143.5516 H   0  0  0  0  0  0  0  0  0  0  0  0  # atno 7974 bound_to 7965
  155.0079  140.3133  155.4841 H   0  0  0  0  0  0  0  0  0  0  0  0  # atno 8008 bound_to 7997
  156.2914  140.2220  156.5133 H   0  0  0  0  0  0  0  0  0  0  0  0  # atno 8009 bound_to 7997
  154.7561  140.0462  157.0922 H   0  0  0  0  0  0  0  0  0  0  0  0  # atno 8010 bound_to 7997
  140.7109  143.5767  150.9035 H   0  0  0  0  0  0  0  0  0  0  0  0  # atno 10167 bound_to 10162
  157.6315  130.9397  150.0438 H   0  0  0  0  0  0  0  0  0  0  0  0  # atno 10718 bound_to 10713
  154.8740  135.3788  154.4459 H   0  0  0  0  0  0  0  0  0  0  0  0  # atno 10763 bound_to 10752
  153.5139  135.7029  153.5771 H   0  0  0  0  0  0  0  0  0  0  0  0  # atno 10764 bound_to 10752
  153.4048  135.3939  155.1978 H   0  0  0  0  0  0  0  0  0  0  0  0  # atno 10765 bound_to 10752
  139.9524  134.9619  156.8902 H   0  0  0  0  0  0  0  0  0  0  0  0  # atno 11005 bound_to 11000
  145.4899  139.1489  143.3715 LP  0  0  0  0  0  0  0  0  0  0  0  0  # atno 17320 bound_to 7965
  146.2611  140.5037  142.8853 LP  0  0  0  0  0  0  0  0  0  0  0  0  # atno 17321 bound_to 7965
  139.9493  143.6291  152.3033 LP  0  0  0  0  0  0  0  0  0  0  0  0  # atno 17342 bound_to 10162
  139.6804  144.7656  151.1620 LP  0  0  0  0  0  0  0  0  0  0  0  0  # atno 17343 bound_to 10162
  156.1522  130.3642  149.9422 LP  0  0  0  0  0  0  0  0  0  0  0  0  # atno 17370 bound_to 10713
  156.7439  130.9090  151.3634 LP  0  0  0  0  0  0  0  0  0  0  0  0  # atno 17371 bound_to 10713
  140.5687  134.0464  155.7423 LP  0  0  0  0  0  0  0  0  0  0  0  0  # atno 17394 bound_to 11000
  141.1190  133.9493  157.2767 LP  0  0  0  0  0  0  0  0  0  0  0  0  # atno 17395 bound_to 11000

$$$$
