AV-unprocessed.smi:40|AV-procd|sdf|370|dock1
  -GOLD-   2262016213D 1   1.00000     0.00000
 Structure written by MMmdl.
 47 48  0  0  0  0  0  0  0  0  1 V2000
  152.0092  145.2722  159.1898 C   0  0  0  0  0  0  0  0  0  0  0  0
  151.8676  143.7446  159.1931 C   0  0  0  0  0  0  0  0  0  0  0  0
  151.3495  143.1675  157.8657 C   0  0  0  0  0  0  0  0  0  0  0  0
  151.4420  141.6331  157.7752 C   0  0  0  0  0  0  0  0  0  0  0  0
  151.1674  141.0995  156.3625 C   0  0  0  0  0  0  0  0  0  0  0  0
  150.0423  140.2400  156.4068 O   0  0  0  0  0  0  0  0  0  0  0  0
  149.4464  139.8256  155.2728 C   0  0  0  0  0  0  0  0  0  0  0  0
  149.7033  140.2628  154.1516 O   0  0  0  0  0  0  0  0  0  0  0  0
  148.4382  138.8265  155.5657 N   0  0  0  0  0  0  0  0  0  0  0  0
  147.6582  138.2069  154.6539 C   0  0  0  0  0  0  0  0  0  0  0  0
  147.6182  138.7108  153.4344 N   0  0  0  0  0  0  0  0  0  0  0  0
  146.8393  138.2010  152.4297 C   0  0  0  0  0  0  0  0  0  0  0  0
  146.8151  138.7339  151.3212 O   0  0  0  0  0  0  0  0  0  0  0  0
  146.0572  137.0595  152.7270 N   0  0  0  0  0  0  0  0  0  0  0  0
  145.1524  136.4818  151.6614 C   0  0  1  0  0  0  0  0  0  0  0  0
  145.4548  135.1271  151.5056 O   0  0  0  0  0  0  0  0  0  0  0  0
  144.2495  134.3750  151.4318 C   0  0  1  0  0  0  0  0  0  0  0  0
  144.4846  132.9043  151.8073 C   0  0  0  0  0  0  0  0  0  0  0  0
  143.2536  135.1534  152.3012 C   0  0  1  0  0  0  0  0  0  0  0  0
  143.3880  134.8002  153.6679 O   0  0  0  0  0  0  0  0  0  0  0  0
  143.6541  136.5993  152.0211 C   0  0  1  0  0  0  0  0  0  0  0  0
  143.3380  137.4870  153.0818 O   0  0  0  0  0  0  0  0  0  0  0  0
  146.1049  136.5040  153.9966 C   0  0  0  0  0  0  0  0  0  0  0  0
  146.8730  137.0284  154.9740 C   0  0  0  0  0  0  0  0  0  0  0  0
  146.9022  136.4658  156.1948 F   0  0  0  0  0  0  0  0  0  0  0  0
  145.4017  136.9925  150.7303 H   0  0  0  0  0  0  0  0  0  0  0  0
  143.9077  134.4216  150.3962 H   0  0  0  0  0  0  0  0  0  0  0  0
  142.2226  134.9587  152.0042 H   0  0  0  0  0  0  0  0  0  0  0  0
  143.1385  136.9412  151.1227 H   0  0  0  0  0  0  0  0  0  0  0  0
  152.3160  145.6329  160.1718 H   0  0  0  0  0  0  0  0  0  0  0  0
  151.0639  145.7549  158.9399 H   0  0  0  0  0  0  0  0  0  0  0  0
  152.7577  145.6049  158.4710 H   0  0  0  0  0  0  0  0  0  0  0  0
  152.8226  143.2850  159.4499 H   0  0  0  0  0  0  0  0  0  0  0  0
  151.1758  143.4639  159.9880 H   0  0  0  0  0  0  0  0  0  0  0  0
  150.3072  143.4683  157.7518 H   0  0  0  0  0  0  0  0  0  0  0  0
  151.8867  143.6212  157.0320 H   0  0  0  0  0  0  0  0  0  0  0  0
  152.4362  141.3072  158.0797 H   0  0  0  0  0  0  0  0  0  0  0  0
  150.7413  141.1780  158.4761 H   0  0  0  0  0  0  0  0  0  0  0  0
  150.9838  141.9234  155.6715 H   0  0  0  0  0  0  0  0  0  0  0  0
  152.0349  140.5486  155.9968 H   0  0  0  0  0  0  0  0  0  0  0  0
  148.3968  138.5248  156.5279 H   0  0  0  0  0  0  0  0  0  0  0  0
  143.5515  132.3411  151.7882 H   0  0  0  0  0  0  0  0  0  0  0  0
  144.9180  132.8064  152.8028 H   0  0  0  0  0  0  0  0  0  0  0  0
  145.1721  132.4326  151.1050 H   0  0  0  0  0  0  0  0  0  0  0  0
  143.0723  133.9171  153.7823 H   0  0  0  0  0  0  0  0  0  0  0  0
  143.4513  138.3732  152.7730 H   0  0  0  0  0  0  0  0  0  0  0  0
  145.5147  135.6301  154.2290 H   0  0  0  0  0  0  0  0  0  0  0  0
  1  2  1  0  0  0  0
  1 30  1  0  0  0  0
  1 31  1  0  0  0  0
  1 32  1  0  0  0  0
  2  3  1  0  0  0  0
  2 33  1  0  0  0  0
  2 34  1  0  0  0  0
  3  4  1  0  0  0  0
  3 35  1  0  0  0  0
  3 36  1  0  0  0  0
  4  5  1  0  0  0  0
  4 37  1  0  0  0  0
  4 38  1  0  0  0  0
  5  6  1  0  0  0  0
  5 39  1  0  0  0  0
  5 40  1  0  0  0  0
  6  7  1  0  0  0  0
  7  8  2  0  0  0  0
  7  9  1  0  0  0  0
  9 10  1  0  0  0  0
  9 41  1  0  0  0  0
 10 24  1  0  0  0  0
 10 11  2  0  0  0  0
 11 12  1  0  0  0  0
 12 13  2  0  0  0  0
 12 14  1  0  0  0  0
 14 15  1  0  0  0  0
 14 23  1  0  0  0  0
 15 26  1  0  0  0  0
 15 21  1  0  0  0  0
 15 16  1  0  0  0  0
 16 17  1  0  0  0  0
 17 27  1  0  0  0  0
 17 18  1  0  0  0  0
 17 19  1  0  0  0  0
 18 42  1  0  0  0  0
 18 43  1  0  0  0  0
 18 44  1  0  0  0  0
 19 28  1  0  0  0  0
 19 20  1  0  0  0  0
 19 21  1  0  0  0  0
 20 45  1  0  0  0  0
 21 29  1  0  0  0  0
 21 22  1  0  0  0  0
 22 46  1  0  0  0  0
 23 24  2  0  0  0  0
 23 47  1  0  0  0  0
 24 25  1  0  0  0  0
M  END
> <s_m_source_file>
AV-unprocessed.smi

> <i_m_source_file_index>
40

> <i_lp_mmshare_version>
43012

> <i_f3d_flags>
0

> <s_epik_input>
W0NIM11bQ0gyXVtDSDJdW0NIMl1bQ0gyXU9DKD1PKVtOSF1jMW5jKD1PKW4oW2NIXWMxRilbQ0BASF0yT1tDQEhdKFtDSDNdKVtDQEBIXShbT0hdKVtDQEhdMltPSF0=

> <s_epik_cmdline>
J2VwaWtfcHl0aG9uJywgJy1waCcsICc3LjAnLCAnLXRuJywgJzgnLCAnLW1hJywgJzIwMCcsICctbWV0YWxfYmluZGluZycsICctaW1hZScsICc8aW5maWxlLm1hZT4nLCAnLW9tYWUnLCAnPG91dGZpbGUubWFlPic=

> <r_lp_tautomer_probability>
1

> <r_epik_Ionization_Penalty>
2.29506e-06

> <r_epik_Ionization_Penalty_Charging>
8.26867e-09

> <r_epik_Ionization_Penalty_Neutral>
2.2868e-06

> <r_epik_State_Penalty>
-0

> <r_epik_Charging_Adjusted_Penalty>
8.26867e-09

> <i_epik_Tot_Q>
0

> <i_epik_Tot_abs_Q>
0

> <r_epik_Metal_State_Penalty>
-0

> <b_epik_Metal_Only>
0

> <s_epik_Chemistry_Notes>
This compound has an ester and may undergo hydrolysis at high or low pH. This compound contains an acetal/aminal-like group ( X-CH(R)-Y where X, Y are N, S, or O) that may be acid/base labile, releasing an aldehyde.

> <s_lp_Force_Field>
OPLS_2005

> <r_lp_Energy>
45.3247

> <b_lp_Chiralities_Consistent>
1

> <s_lp_Variant>
AV-unprocessed.smi:40-4

> <Gold.Version>
5.8.1

> <Gold.Id.Protein>
6NUR|6NUR_protein|mol2

> <Gold.PLP.Fitness>
39.5806

> <Gold.PLP.PLP>
-32.4043

> <Gold.PLP.part.hbond>
-3.0000

> <Gold.PLP.part.metal>
0.0000

> <Gold.PLP.part.buried>
-2.2592

> <Gold.PLP.part.nonpolar>
-29.1229

> <Gold.PLP.part.repulsive>
3.1419

> <Gold.PLP.ligand.clash>
0.0000

> <Gold.PLP.ligand.torsion>
0.6164

> <Gold.PLP.Chemscore.Hbond>
2.7015

> <Gold.PLP.Chemscore.CHOScore>
0.0000

> <Gold.PLP.Chemscore.Metal>
0.0000

> <Gold.Chemscore.Hbonds>
donor molecule, donor type, donor heavy atom, donor atom, acceptor molecule, acceptor atom, score
      L1  H    20    45       P1 10957  0.06
      L1  H    22    46       P1 10175  0.84
      P1  H  7954  7966       L1    13  0.73
      P1  H  7989  7998       L1     8  0.64

> <Gold.PLP.Chemscore.Internal.Correction>
0.3045

> <Gold.Rescore>
     Score         DG    S(hbond)    S(metal)    S(lipo)     H(rot)  DE(clash)    DE(int)     intcor
      9.17     -13.42       2.70        0.00      71.67       3.70       1.50       2.74       ----

> <Gold.Chemscore.Fitness>
9.1731

> <Gold.Chemscore.DG>
-13.4159

> <Gold.Chemscore.ZeroCoef>
-5.4800

> <Gold.Chemscore.Hbond>
2.6979

> <Gold.Chemscore.Metal>
0.0000

> <Gold.Chemscore.Lipo>
71.6743

> <Gold.Chemscore.Internal_Hbond>
0.0000

> <Gold.Chemscore.DEClash>
1.4987

> <Gold.Chemscore.DEInternal>
2.7441

> <Gold.Chemscore.Rot>
3.6957

> <Gold.Chemscore.Internal.Correction>
   9.000000E+99

> <Gold.Chemscore.Hbonds>
donor molecule, donor type, donor heavy atom, donor atom, acceptor molecule, acceptor atom, score
      L1  H    20    45       P1 10957  0.10
      L1  H    22    46       P1 10175  0.82
      P1  H  7954  7966       L1    13  0.63
      P1  H  7989  7998       L1     8  0.62

> <Gold.Chemscore.Hbond.Weighted>
-9.0110

> <Gold.Chemscore.Metal.Weighted>
-0.0000

> <Gold.Chemscore.Lipo.Weighted>
-8.3859

> <Gold.Chemscore.Internal_Hbond.Weighted>
0.0000

> <Gold.Chemscore.DEClash.Weighted>
1.4987

> <Gold.Chemscore.DEInternal.Weighted>
2.7441

> <Gold.Chemscore.Rot.Weighted>
9.4610

> <Gold.Chemscore.Internal.Correction.Weighted>
   9.000000E+99

> <Gold.Protein.RotatedTorsions>
[ 6907 6896 6895 6894 ] final  111.85 input  -60.11 | X-H torsion
[ 7974 7965 7964 7962 ] final   63.40 input  175.53 | X-H torsion
[ 8008 7997 7996 7995 ] final  173.36 input   59.86 | X-H torsion
[ 10167 10162 10161 10158 ] final -144.40 input  -65.29 | X-H torsion
[ 10718 10713 10712 10709 ] final   38.50 input   66.30 | X-H torsion
[ 10763 10752 10751 10750 ] final   28.85 input  -60.55 | X-H torsion
[ 11005 11000 10999 10996 ] final   69.86 input  -57.11 | X-H torsion

> <Gold.Protein.ActiveResidues>
 VAL166  LYS551  ARG553  GLY616  TRP617  ASP618  TYR619  PRO620  LYS621  CYS622 
 ASP623  PHE694  ASN695  SER759  ASP760  ASP761  ALA762  ILE779  LEU786  VAL792 
 PHE793  MET794  SER795  GLU796  ALA797  LYS798  CYS799  TRP800  GLU811  SER814 

> <Gold.Protein.RotatedAtoms>
  152.4948  133.8600  159.7244 H   0  0  0  0  0  0  0  0  0  0  0  0  # atno 6907 bound_to 6896
  150.9114  133.6984  159.2860 H   0  0  0  0  0  0  0  0  0  0  0  0  # atno 6908 bound_to 6896
  151.4392  135.1022  159.9717 H   0  0  0  0  0  0  0  0  0  0  0  0  # atno 6909 bound_to 6896
  145.8623  139.3323  143.0811 H   0  0  0  0  0  0  0  0  0  0  0  0  # atno 7974 bound_to 7965
  156.1083  140.1462  156.9374 H   0  0  0  0  0  0  0  0  0  0  0  0  # atno 8008 bound_to 7997
  154.4749  140.0898  156.7281 H   0  0  0  0  0  0  0  0  0  0  0  0  # atno 8009 bound_to 7997
  155.4641  140.3439  155.4319 H   0  0  0  0  0  0  0  0  0  0  0  0  # atno 8010 bound_to 7997
  139.7902  143.7977  152.2649 H   0  0  0  0  0  0  0  0  0  0  0  0  # atno 10167 bound_to 10162
  157.3596  130.7642  149.7038 H   0  0  0  0  0  0  0  0  0  0  0  0  # atno 10718 bound_to 10713
  153.0466  135.6503  154.0801 H   0  0  0  0  0  0  0  0  0  0  0  0  # atno 10763 bound_to 10752
  154.0498  135.2896  155.3344 H   0  0  0  0  0  0  0  0  0  0  0  0  # atno 10764 bound_to 10752
  154.6728  135.5350  153.8226 H   0  0  0  0  0  0  0  0  0  0  0  0  # atno 10765 bound_to 10752
  139.9630  134.7028  156.0605 H   0  0  0  0  0  0  0  0  0  0  0  0  # atno 11005 bound_to 11000
  145.9233  140.9100  143.0393 LP  0  0  0  0  0  0  0  0  0  0  0  0  # atno 17320 bound_to 7965
  144.6726  140.1319  143.7443 LP  0  0  0  0  0  0  0  0  0  0  0  0  # atno 17321 bound_to 7965
  139.8066  144.7353  150.9753 LP  0  0  0  0  0  0  0  0  0  0  0  0  # atno 17342 bound_to 10162
  140.7820  143.4292  151.0720 LP  0  0  0  0  0  0  0  0  0  0  0  0  # atno 17343 bound_to 10162
  155.9735  130.4117  150.3997 LP  0  0  0  0  0  0  0  0  0  0  0  0  # atno 17370 bound_to 10713
  157.2072  131.0452  151.2619 LP  0  0  0  0  0  0  0  0  0  0  0  0  # atno 17371 bound_to 10713
  141.1308  133.6587  156.3460 LP  0  0  0  0  0  0  0  0  0  0  0  0  # atno 17394 bound_to 11000
  140.5458  134.6076  157.5393 LP  0  0  0  0  0  0  0  0  0  0  0  0  # atno 17395 bound_to 11000

$$$$
