AV-unprocessed.smi:109|AV-procd|sdf|1058|dock5
  -GOLD-   2262018123D 1   1.00000     0.00000
 Structure written by MMmdl.
 58 61  0  0  0  0  0  0  0  0  1 V2000
  149.7020  141.1419  153.9187 O   0  0  0  0  0  0  0  0  0  0  0  0
  150.0724  140.1351  154.8357 C   0  0  0  0  0  0  0  0  0  0  0  0
  150.9411  140.7383  155.9510 C   0  0  0  0  0  0  0  0  0  0  0  0
  150.2411  141.8920  156.7034 C   0  0  1  0  0  0  0  0  0  0  0  0
  149.1225  141.3654  157.4852 N   0  0  0  0  0  0  0  0  0  0  0  0
  147.8409  141.6821  157.1951 C   0  0  0  0  0  0  0  0  0  0  0  0
  147.2542  141.2762  156.0384 N   0  0  0  0  0  0  0  0  0  0  0  0
  145.9830  141.5998  155.7824 C   0  0  0  0  0  0  0  0  0  0  0  0
  145.1338  142.3057  156.5330 N   0  0  0  0  0  0  0  0  0  0  0  0
  145.7198  142.7142  157.6955 C   0  0  0  0  0  0  0  0  0  0  0  0
  147.0573  142.4469  158.0971 C   0  0  0  0  0  0  0  0  0  0  0  0
  147.2969  143.0181  159.3401 N   0  0  0  0  0  0  0  0  0  0  0  0
  146.1620  143.5851  159.6521 C   0  0  0  0  0  0  0  0  0  0  0  0
  145.1609  143.4582  158.7109 N   0  0  0  0  0  0  0  0  0  0  0  0
  143.7526  143.9657  158.7393 C   0  0  1  0  0  0  0  0  0  0  0  0
  142.8956  142.8701  158.5949 O   0  0  0  0  0  0  0  0  0  0  0  0
  142.4008  142.5042  159.8749 C   0  0  2  0  0  0  0  0  0  0  0  0
  141.2451  141.4828  159.8137 C   0  0  0  0  0  0  0  0  0  0  0  0
  140.4742  141.4246  160.9954 O   0  0  0  0  0  0  0  0  0  0  0  0
  142.2228  143.8439  160.6015 C   0  0  2  0  0  0  0  0  0  0  0  0
  141.0156  144.4900  160.2364 O   0  0  0  0  0  0  0  0  0  0  0  0
  143.4571  144.6073  160.1140 C   0  0  2  0  0  0  0  0  0  0  0  0
  143.2521  146.0060  160.0455 O   0  0  0  0  0  0  0  0  0  0  0  0
  151.1931  142.7360  157.5960 C   0  0  0  0  0  0  0  0  0  0  0  0
  151.8332  141.9103  158.7334 C   0  0  0  0  0  0  0  0  0  0  0  0
  152.8438  142.7467  159.5355 C   0  0  0  0  0  0  0  0  0  0  0  0
  152.1928  144.0222  160.0927 C   0  0  0  0  0  0  0  0  0  0  0  0
  151.5513  144.8522  158.9700 C   0  0  0  0  0  0  0  0  0  0  0  0
  150.5413  144.0167  158.1662 C   0  0  0  0  0  0  0  0  0  0  0  0
  143.6776  144.6429  157.8873 H   0  0  0  0  0  0  0  0  0  0  0  0
  143.2232  141.9871  160.3732 H   0  0  0  0  0  0  0  0  0  0  0  0
  142.2270  143.7166  161.6845 H   0  0  0  0  0  0  0  0  0  0  0  0
  144.2891  144.4083  160.7918 H   0  0  0  0  0  0  0  0  0  0  0  0
  149.8099  140.8043  153.0427 H   0  0  0  0  0  0  0  0  0  0  0  0
  149.1709  139.6847  155.2516 H   0  0  0  0  0  0  0  0  0  0  0  0
  150.6101  139.3532  154.2987 H   0  0  0  0  0  0  0  0  0  0  0  0
  151.2284  139.9531  156.6514 H   0  0  0  0  0  0  0  0  0  0  0  0
  151.8654  141.0961  155.4996 H   0  0  0  0  0  0  0  0  0  0  0  0
  149.8375  142.5560  155.9380 H   0  0  0  0  0  0  0  0  0  0  0  0
  149.3729  140.7419  158.2390 H   0  0  0  0  0  0  0  0  0  0  0  0
  145.5902  141.2411  154.8424 H   0  0  0  0  0  0  0  0  0  0  0  0
  146.0303  144.1124  160.5854 H   0  0  0  0  0  0  0  0  0  0  0  0
  140.5868  141.7170  158.9769 H   0  0  0  0  0  0  0  0  0  0  0  0
  141.6473  140.4865  159.6283 H   0  0  0  0  0  0  0  0  0  0  0  0
  139.9967  142.2354  161.0840 H   0  0  0  0  0  0  0  0  0  0  0  0
  140.2911  143.9770  160.5610 H   0  0  0  0  0  0  0  0  0  0  0  0
  143.9289  146.3804  159.5024 H   0  0  0  0  0  0  0  0  0  0  0  0
  152.0203  143.0589  156.9621 H   0  0  0  0  0  0  0  0  0  0  0  0
  151.0682  141.5371  159.4138 H   0  0  0  0  0  0  0  0  0  0  0  0
  152.3342  141.0340  158.3210 H   0  0  0  0  0  0  0  0  0  0  0  0
  153.2535  142.1514  160.3521 H   0  0  0  0  0  0  0  0  0  0  0  0
  153.6857  143.0153  158.8962 H   0  0  0  0  0  0  0  0  0  0  0  0
  151.4338  143.7540  160.8288 H   0  0  0  0  0  0  0  0  0  0  0  0
  152.9368  144.6204  160.6196 H   0  0  0  0  0  0  0  0  0  0  0  0
  151.0563  145.7275  159.3915 H   0  0  0  0  0  0  0  0  0  0  0  0
  152.3283  145.2282  158.3033 H   0  0  0  0  0  0  0  0  0  0  0  0
  150.1314  144.6246  157.3592 H   0  0  0  0  0  0  0  0  0  0  0  0
  149.7045  143.7572  158.8148 H   0  0  0  0  0  0  0  0  0  0  0  0
  1  2  1  0  0  0  0
  1 34  1  0  0  0  0
  2  3  1  0  0  0  0
  2 35  1  0  0  0  0
  2 36  1  0  0  0  0
  3  4  1  0  0  0  0
  3 37  1  0  0  0  0
  3 38  1  0  0  0  0
  4  5  1  0  0  0  0
  4 24  1  0  0  0  0
  4 39  1  0  0  0  0
  5  6  1  0  0  0  0
  5 40  1  0  0  0  0
  6 11  1  0  0  0  0
  6  7  2  0  0  0  0
  7  8  1  0  0  0  0
  8  9  2  0  0  0  0
  8 41  1  0  0  0  0
  9 10  1  0  0  0  0
 10 14  1  0  0  0  0
 10 11  2  0  0  0  0
 11 12  1  0  0  0  0
 12 13  2  0  0  0  0
 13 14  1  0  0  0  0
 13 42  1  0  0  0  0
 14 15  1  0  0  0  0
 15 30  1  0  0  0  0
 15 22  1  0  0  0  0
 15 16  1  0  0  0  0
 16 17  1  0  0  0  0
 17 31  1  0  0  0  0
 17 18  1  0  0  0  0
 17 20  1  0  0  0  0
 18 19  1  0  0  0  0
 18 43  1  0  0  0  0
 18 44  1  0  0  0  0
 19 45  1  0  0  0  0
 20 32  1  0  0  0  0
 20 21  1  0  0  0  0
 20 22  1  0  0  0  0
 21 46  1  0  0  0  0
 22 33  1  0  0  0  0
 22 23  1  0  0  0  0
 23 47  1  0  0  0  0
 24 29  1  0  0  0  0
 24 25  1  0  0  0  0
 24 48  1  0  0  0  0
 25 26  1  0  0  0  0
 25 49  1  0  0  0  0
 25 50  1  0  0  0  0
 26 27  1  0  0  0  0
 26 51  1  0  0  0  0
 26 52  1  0  0  0  0
 27 28  1  0  0  0  0
 27 53  1  0  0  0  0
 27 54  1  0  0  0  0
 28 29  1  0  0  0  0
 28 55  1  0  0  0  0
 28 56  1  0  0  0  0
 29 57  1  0  0  0  0
 29 58  1  0  0  0  0
M  END
> <s_m_source_file>
AV-unprocessed.smi

> <i_m_source_file_index>
109

> <i_lp_mmshare_version>
43012

> <i_f3d_flags>
0

> <s_epik_input>
W0NIMl0xW0NIMl1bQ0gyXVtDSDJdW0NIMl1bQ0hdMVtDQEhdKFtDSDJdW0NIMl1bT0hdKVtOSF1jKG5bY0hdbjIpYyhjMjMpbltjSF1uM1tDQEBIXTRPW0NASF0oW0NIMl1bT0hdKVtDQEBIXShbT0hdKVtDQEhdNFtPSF0=

> <s_epik_cmdline>
J2VwaWtfcHl0aG9uJywgJy1waCcsICc3LjAnLCAnLXRuJywgJzgnLCAnLW1hJywgJzIwMCcsICctbWV0YWxfYmluZGluZycsICctaW1hZScsICc8aW5maWxlLm1hZT4nLCAnLW9tYWUnLCAnPG91dGZpbGUubWFlPic=

> <r_lp_tautomer_probability>
1

> <r_epik_Ionization_Penalty>
0.000793976

> <r_epik_Ionization_Penalty_Charging>
0

> <r_epik_Ionization_Penalty_Neutral>
0.000793976

> <r_epik_State_Penalty>
-0

> <r_epik_Charging_Adjusted_Penalty>
0

> <i_epik_Tot_Q>
0

> <i_epik_Tot_abs_Q>
0

> <r_epik_Metal_State_Penalty>
-0

> <b_epik_Metal_Only>
0

> <s_epik_Chemistry_Notes>
This compound contains an acetal/aminal-like group ( X-CH(R)-Y where X, Y are N, S, or O) that may be acid/base labile, releasing an aldehyde.

> <s_lp_Force_Field>
OPLS_2005

> <r_lp_Energy>
57.9674

> <b_lp_Chiralities_Consistent>
1

> <s_lp_Variant>
AV-unprocessed.smi:109-28

> <Gold.Version>
5.8.1

> <Gold.Id.Protein>
6NUR|6NUR_protein|mol2

> <Gold.PLP.Fitness>
47.5403

> <Gold.PLP.PLP>
-44.8553

> <Gold.PLP.part.hbond>
-7.1729

> <Gold.PLP.part.metal>
0.0000

> <Gold.PLP.part.buried>
-5.8349

> <Gold.PLP.part.nonpolar>
-31.6760

> <Gold.PLP.part.repulsive>
0.2987

> <Gold.PLP.ligand.clash>
0.0000

> <Gold.PLP.ligand.torsion>
0.9953

> <Gold.PLP.Chemscore.Hbond>
1.4873

> <Gold.PLP.Chemscore.CHOScore>
0.0000

> <Gold.PLP.Chemscore.Metal>
0.0000

> <Gold.Chemscore.Hbonds>
donor molecule, donor type, donor heavy atom, donor atom, acceptor molecule, acceptor atom, score
      L1  H     1    34       P1  7957  0.99

> <Gold.PLP.Chemscore.Internal.Correction>
0.2136

> <Gold.Rescore>
     Score         DG    S(hbond)    S(metal)    S(lipo)     H(rot)  DE(clash)    DE(int)     intcor
      3.87      -6.03       1.08        0.00      93.39       5.47       1.21       0.95       ----

> <Gold.Chemscore.Fitness>
3.8730

> <Gold.Chemscore.DG>
-6.0296

> <Gold.Chemscore.ZeroCoef>
-5.4800

> <Gold.Chemscore.Hbond>
1.0828

> <Gold.Chemscore.Metal>
0.0000

> <Gold.Chemscore.Lipo>
93.3897

> <Gold.Chemscore.Internal_Hbond>
0.0000

> <Gold.Chemscore.DEClash>
1.2090

> <Gold.Chemscore.DEInternal>
0.9476

> <Gold.Chemscore.Rot>
5.4662

> <Gold.Chemscore.Internal.Correction>
   9.000000E+99

> <Gold.Chemscore.Hbonds>
donor molecule, donor type, donor heavy atom, donor atom, acceptor molecule, acceptor atom, score
      L1  H     1    34       P1  7957  0.92
      P1  H  6933  6944       L1    12  0.01

> <Gold.Chemscore.Hbond.Weighted>
-3.6165

> <Gold.Chemscore.Metal.Weighted>
-0.0000

> <Gold.Chemscore.Lipo.Weighted>
-10.9266

> <Gold.Chemscore.Internal_Hbond.Weighted>
0.0000

> <Gold.Chemscore.DEClash.Weighted>
1.2090

> <Gold.Chemscore.DEInternal.Weighted>
0.9476

> <Gold.Chemscore.Rot.Weighted>
13.9935

> <Gold.Chemscore.Internal.Correction.Weighted>
   9.000000E+99

> <Gold.Protein.RotatedTorsions>
[ 6907 6896 6895 6894 ] final -150.76 input  -60.11 | X-H torsion
[ 7974 7965 7964 7962 ] final  -85.07 input  175.53 | X-H torsion
[ 8008 7997 7996 7995 ] final  160.61 input   59.86 | X-H torsion
[ 10167 10162 10161 10158 ] final -112.93 input  -65.29 | X-H torsion
[ 10718 10713 10712 10709 ] final -178.62 input   66.30 | X-H torsion
[ 10763 10752 10751 10750 ] final   55.54 input  -60.55 | X-H torsion
[ 11005 11000 10999 10996 ] final   28.46 input  -57.11 | X-H torsion

> <Gold.Protein.ActiveResidues>
 VAL166  LYS551  ARG553  GLY616  TRP617  ASP618  TYR619  PRO620  LYS621  CYS622 
 ASP623  PHE694  ASN695  SER759  ASP760  ASP761  ALA762  ILE779  LEU786  VAL792 
 PHE793  MET794  SER795  GLU796  ALA797  LYS798  CYS799  TRP800  GLU811  SER814 

> <Gold.Protein.RotatedAtoms>
  151.2032  133.4598  159.2596 H   0  0  0  0  0  0  0  0  0  0  0  0  # atno 6907 bound_to 6896
  151.1048  134.9993  159.8476 H   0  0  0  0  0  0  0  0  0  0  0  0  # atno 6908 bound_to 6896
  152.5446  134.1956  159.8744 H   0  0  0  0  0  0  0  0  0  0  0  0  # atno 6909 bound_to 6896
  145.4981  140.9549  143.1775 H   0  0  0  0  0  0  0  0  0  0  0  0  # atno 7974 bound_to 7965
  156.2160  140.1799  156.7588 H   0  0  0  0  0  0  0  0  0  0  0  0  # atno 8008 bound_to 7997
  154.5792  140.0669  156.9109 H   0  0  0  0  0  0  0  0  0  0  0  0  # atno 8009 bound_to 7997
  155.2532  140.3330  155.4282 H   0  0  0  0  0  0  0  0  0  0  0  0  # atno 8010 bound_to 7997
  140.1173  143.4474  152.1714 H   0  0  0  0  0  0  0  0  0  0  0  0  # atno 10167 bound_to 10162
  156.8470  130.9706  151.3095 H   0  0  0  0  0  0  0  0  0  0  0  0  # atno 10718 bound_to 10713
  152.9818  135.5707  154.5084 H   0  0  0  0  0  0  0  0  0  0  0  0  # atno 10763 bound_to 10752
  154.4592  135.2781  155.1727 H   0  0  0  0  0  0  0  0  0  0  0  0  # atno 10764 bound_to 10752
  154.3322  135.6247  153.5610 H   0  0  0  0  0  0  0  0  0  0  0  0  # atno 10765 bound_to 10752
  140.3153  134.2604  155.7726 H   0  0  0  0  0  0  0  0  0  0  0  0  # atno 11005 bound_to 11000
  144.7795  139.6556  143.7160 LP  0  0  0  0  0  0  0  0  0  0  0  0  # atno 17320 bound_to 7965
  146.2243  139.5693  142.9598 LP  0  0  0  0  0  0  0  0  0  0  0  0  # atno 17321 bound_to 7965
  139.5587  144.7391  151.4218 LP  0  0  0  0  0  0  0  0  0  0  0  0  # atno 17342 bound_to 10162
  140.6892  143.7902  150.7230 LP  0  0  0  0  0  0  0  0  0  0  0  0  # atno 17343 bound_to 10162
  157.6324  130.8740  149.9298 LP  0  0  0  0  0  0  0  0  0  0  0  0  # atno 17370 bound_to 10713
  156.0849  130.3669  150.0507 LP  0  0  0  0  0  0  0  0  0  0  0  0  # atno 17371 bound_to 10713
  141.2099  133.7735  156.9967 LP  0  0  0  0  0  0  0  0  0  0  0  0  # atno 17394 bound_to 11000
  140.0989  134.9547  157.1892 LP  0  0  0  0  0  0  0  0  0  0  0  0  # atno 17395 bound_to 11000

$$$$
