AV-unprocessed.smi:1607|AV-procd|sdf|6465|dock4
  -GOLD-   22720 7123D 1   1.00000     0.00000
 Structure written by MMmdl.
 39 40  0  0  0  0  0  0  0  0  2 V2000
  147.6027  133.3233  153.0941 C   0  0  0  0  0  0  0  0  0  0  0  0
  146.0926  133.6014  152.9902 C   0  0  2  0  0  0  0  0  0  0  0  0
  145.5028  133.1965  151.6264 C   0  0  0  0  0  0  0  0  0  0  0  0
  145.9063  134.1897  150.5275 C   0  0  0  0  0  0  0  0  0  0  0  0
  145.5542  135.6310  150.9287 C   0  0  0  0  0  0  0  0  0  0  0  0
  146.1777  135.9915  152.2282 N   0  3  1  0  0  0  0  0  0  0  0  0
  145.9849  137.4232  152.5696 C   0  0  0  0  0  0  0  0  0  0  0  0
  146.5172  137.7643  153.9752 C   0  0  0  0  0  0  0  0  0  0  0  0
  147.9662  137.6192  154.0512 N   0  0  0  0  0  0  0  0  0  0  0  0
  148.7891  138.4740  154.6787 C   0  0  0  0  0  0  0  0  0  0  0  0
  148.3958  139.4921  155.2482 O   0  0  0  0  0  0  0  0  0  0  0  0
  150.2798  138.1281  154.6637 C   0  0  0  0  0  0  0  0  0  0  0  0
  150.9758  138.7563  155.7716 N   0  0  0  0  0  0  0  0  0  0  0  0
  151.7312  138.2361  156.7414 C   0  0  0  0  0  0  0  0  0  0  0  0
  152.1810  139.1701  157.5653 N   0  0  0  0  0  0  0  0  0  0  0  0
  151.6499  140.3359  157.0392 N   0  0  0  0  0  0  0  0  0  0  0  0
  150.9344  140.0968  155.9746 N   0  0  0  0  0  0  0  0  0  0  0  0
  145.7468  135.0694  153.3145 C   0  0  0  0  0  0  0  0  0  0  0  0
  148.1781  133.9229  152.3892 H   0  0  0  0  0  0  0  0  0  0  0  0
  147.8222  132.2743  152.8937 H   0  0  0  0  0  0  0  0  0  0  0  0
  147.9727  133.5483  154.0948 H   0  0  0  0  0  0  0  0  0  0  0  0
  145.6144  132.9785  153.7474 H   0  0  0  0  0  0  0  0  0  0  0  0
  145.8136  132.1861  151.3585 H   0  0  0  0  0  0  0  0  0  0  0  0
  144.4146  133.1707  151.6997 H   0  0  0  0  0  0  0  0  0  0  0  0
  146.9759  134.1133  150.3301 H   0  0  0  0  0  0  0  0  0  0  0  0
  145.4053  133.9314  149.5940 H   0  0  0  0  0  0  0  0  0  0  0  0
  145.9018  136.3104  150.1493 H   0  0  0  0  0  0  0  0  0  0  0  0
  144.4718  135.7520  150.9961 H   0  0  0  0  0  0  0  0  0  0  0  0
  146.5208  138.0433  151.8493 H   0  0  0  0  0  0  0  0  0  0  0  0
  144.9296  137.6824  152.4711 H   0  0  0  0  0  0  0  0  0  0  0  0
  146.2450  138.7771  154.2735 H   0  0  0  0  0  0  0  0  0  0  0  0
  146.0711  137.0958  154.7120 H   0  0  0  0  0  0  0  0  0  0  0  0
  148.3708  136.8066  153.6081 H   0  0  0  0  0  0  0  0  0  0  0  0
  150.4299  137.0493  154.7272 H   0  0  0  0  0  0  0  0  0  0  0  0
  150.7202  138.4602  153.7224 H   0  0  0  0  0  0  0  0  0  0  0  0
  151.9466  137.1828  156.8443 H   0  0  0  0  0  0  0  0  0  0  0  0
  144.6696  135.1699  153.4576 H   0  0  0  0  0  0  0  0  0  0  0  0
  146.2089  135.3463  154.2614 H   0  0  0  0  0  0  0  0  0  0  0  0
  147.1716  135.8591  152.1064 H   0  0  0  0  0  0  0  0  0  0  0  0
  1  2  1  0  0  0  0
  1 19  1  0  0  0  0
  1 20  1  0  0  0  0
  1 21  1  0  0  0  0
  2 18  1  0  0  0  0
  2  3  1  0  0  0  0
  2 22  1  0  0  0  0
  3  4  1  0  0  0  0
  3 23  1  0  0  0  0
  3 24  1  0  0  0  0
  4  5  1  0  0  0  0
  4 25  1  0  0  0  0
  4 26  1  0  0  0  0
  5  6  1  0  0  0  0
  5 27  1  0  0  0  0
  5 28  1  0  0  0  0
  6  7  1  0  0  0  0
  6 18  1  0  0  0  0
  6 39  1  0  0  0  0
  7  8  1  0  0  0  0
  7 29  1  0  0  0  0
  7 30  1  0  0  0  0
  8  9  1  0  0  0  0
  8 31  1  0  0  0  0
  8 32  1  0  0  0  0
  9 10  1  0  0  0  0
  9 33  1  0  0  0  0
 10 11  2  0  0  0  0
 10 12  1  0  0  0  0
 12 13  1  0  0  0  0
 12 34  1  0  0  0  0
 12 35  1  0  0  0  0
 13 17  1  0  0  0  0
 13 14  1  0  0  0  0
 14 15  2  0  0  0  0
 14 36  1  0  0  0  0
 15 16  1  0  0  0  0
 16 17  2  0  0  0  0
 18 37  1  0  0  0  0
 18 38  1  0  0  0  0
M  CHG  1   6   1
M  END
> <s_m_source_file>
AV-unprocessed.smi

> <i_m_source_file_index>
1607

> <i_lp_mmshare_version>
43012

> <i_f3d_flags>
0

> <s_epik_input>
W0NIM11bQ0BASF0xW0NIMl1bQ0gyXVtDSDJdTihbQ0gyXTEpW0NIMl1bQ0gyXVtOSF1DKD1PKVtDSDJdbjJbY0hdbm5uMg==

> <s_epik_cmdline>
J2VwaWtfcHl0aG9uJywgJy1waCcsICc3LjAnLCAnLXRuJywgJzgnLCAnLW1hJywgJzIwMCcsICctbWV0YWxfYmluZGluZycsICctaW1hZScsICc8aW5maWxlLm1hZT4nLCAnLW9tYWUnLCAnPG91dGZpbGUubWFlPic=

> <r_lp_tautomer_probability>
1

> <r_epik_Ionization_Penalty>
0.00268321

> <r_epik_Ionization_Penalty_Charging>
0.00267875

> <r_epik_Ionization_Penalty_Neutral>
4.46125e-06

> <r_epik_State_Penalty>
0.00186642

> <r_epik_Charging_Adjusted_Penalty>
0.00454517

> <i_epik_Tot_Q>
1

> <i_epik_Tot_abs_Q>
1

> <r_epik_Metal_State_Penalty>
-0

> <b_epik_Metal_Only>
0

> <s_lp_Force_Field>
OPLS_2005

> <r_lp_Energy>
22.0016

> <b_lp_Chiralities_Consistent>
1

> <s_lp_Variant>
AV-unprocessed.smi:1607-3

> <Gold.Version>
5.8.1

> <Gold.Id.Protein>
6NUR|6NUR_protein|mol2

> <Gold.PLP.Fitness>
40.0347

> <Gold.PLP.PLP>
-26.1457

> <Gold.PLP.part.hbond>
-4.6283

> <Gold.PLP.part.metal>
0.0000

> <Gold.PLP.part.buried>
-0.6968

> <Gold.PLP.part.nonpolar>
-21.7929

> <Gold.PLP.part.repulsive>
0.1614

> <Gold.PLP.ligand.clash>
0.0000

> <Gold.PLP.ligand.torsion>
0.5287

> <Gold.PLP.Chemscore.Hbond>
4.9760

> <Gold.PLP.Chemscore.CHOScore>
0.0000

> <Gold.PLP.Chemscore.Metal>
0.0000

> <Gold.Chemscore.Hbonds>
donor molecule, donor type, donor heavy atom, donor atom, acceptor molecule, acceptor atom, score
      L1  H     6    39       P1  7948  2.00
      L1  H     9    33       P1  7948  0.78

> <Gold.PLP.Chemscore.Internal.Correction>
0.0184

> <Gold.Rescore>
     Score         DG    S(hbond)    S(metal)    S(lipo)     H(rot)  DE(clash)    DE(int)     intcor
     10.16     -14.00       2.83        0.00      50.90       2.69       1.77       2.07       ----

> <Gold.Chemscore.Fitness>
10.1591

> <Gold.Chemscore.DG>
-13.9964

> <Gold.Chemscore.ZeroCoef>
-5.4800

> <Gold.Chemscore.Hbond>
2.8309

> <Gold.Chemscore.Metal>
0.0000

> <Gold.Chemscore.Lipo>
50.9042

> <Gold.Chemscore.Internal_Hbond>
0.0000

> <Gold.Chemscore.DEClash>
1.7696

> <Gold.Chemscore.DEInternal>
2.0677

> <Gold.Chemscore.Rot>
2.6932

> <Gold.Chemscore.Internal.Correction>
   9.000000E+99

> <Gold.Chemscore.Hbonds>
donor molecule, donor type, donor heavy atom, donor atom, acceptor molecule, acceptor atom, score
      L1  H     6    39       P1  7948  1.00
      L1  H     9    33       P1  7948  0.77

> <Gold.Chemscore.Hbond.Weighted>
-9.4552

> <Gold.Chemscore.Metal.Weighted>
-0.0000

> <Gold.Chemscore.Lipo.Weighted>
-5.9558

> <Gold.Chemscore.Internal_Hbond.Weighted>
0.0000

> <Gold.Chemscore.DEClash.Weighted>
1.7696

> <Gold.Chemscore.DEInternal.Weighted>
2.0677

> <Gold.Chemscore.Rot.Weighted>
6.8945

> <Gold.Chemscore.Internal.Correction.Weighted>
   9.000000E+99

> <Gold.Protein.RotatedTorsions>
[ 6907 6896 6895 6894 ] final   56.32 input  -60.11 | X-H torsion
[ 7974 7965 7964 7962 ] final  102.33 input  175.53 | X-H torsion
[ 8008 7997 7996 7995 ] final  -59.11 input   59.86 | X-H torsion
[ 10167 10162 10161 10158 ] final   39.80 input  -65.29 | X-H torsion
[ 10718 10713 10712 10709 ] final  153.18 input   66.30 | X-H torsion
[ 10763 10752 10751 10750 ] final  115.03 input  -60.55 | X-H torsion
[ 11005 11000 10999 10996 ] final   67.64 input  -57.11 | X-H torsion

> <Gold.Protein.ActiveResidues>
 VAL166  LYS551  ARG553  GLY616  TRP617  ASP618  TYR619  PRO620  LYS621  CYS622 
 ASP623  PHE694  ASN695  SER759  ASP760  ASP761  ALA762  ILE779  LEU786  VAL792 
 PHE793  MET794  SER795  GLU796  ALA797  LYS798  CYS799  TRP800  GLU811  SER814 

> <Gold.Protein.RotatedAtoms>
  152.3625  134.6851  160.0202 H   0  0  0  0  0  0  0  0  0  0  0  0  # atno 6907 bound_to 6896
  151.7170  133.3308  159.3313 H   0  0  0  0  0  0  0  0  0  0  0  0  # atno 6908 bound_to 6896
  150.7615  134.6416  159.6284 H   0  0  0  0  0  0  0  0  0  0  0  0  # atno 6909 bound_to 6896
  145.3605  139.2419  143.3509 H   0  0  0  0  0  0  0  0  0  0  0  0  # atno 7974 bound_to 7965
  154.4338  140.1069  156.6064 H   0  0  0  0  0  0  0  0  0  0  0  0  # atno 8008 bound_to 7997
  155.5856  140.3491  155.4533 H   0  0  0  0  0  0  0  0  0  0  0  0  # atno 8009 bound_to 7997
  156.0286  140.1255  157.0272 H   0  0  0  0  0  0  0  0  0  0  0  0  # atno 8010 bound_to 7997
  140.3804  144.1986  150.6131 H   0  0  0  0  0  0  0  0  0  0  0  0  # atno 10167 bound_to 10162
  157.2482  131.0773  151.1748 H   0  0  0  0  0  0  0  0  0  0  0  0  # atno 10718 bound_to 10713
  153.5161  135.3608  155.2609 H   0  0  0  0  0  0  0  0  0  0  0  0  # atno 10763 bound_to 10752
  154.8738  135.4034  154.3313 H   0  0  0  0  0  0  0  0  0  0  0  0  # atno 10764 bound_to 10752
  153.3975  135.7074  153.6517 H   0  0  0  0  0  0  0  0  0  0  0  0  # atno 10765 bound_to 10752
  139.9759  134.6823  156.0355 H   0  0  0  0  0  0  0  0  0  0  0  0  # atno 11005 bound_to 11000
  146.2929  140.4238  142.8732 LP  0  0  0  0  0  0  0  0  0  0  0  0  # atno 17320 bound_to 7965
  144.8650  140.7193  143.6083 LP  0  0  0  0  0  0  0  0  0  0  0  0  # atno 17321 bound_to 7965
  140.4943  143.2337  151.8773 LP  0  0  0  0  0  0  0  0  0  0  0  0  # atno 17342 bound_to 10162
  139.4796  144.5131  151.8905 LP  0  0  0  0  0  0  0  0  0  0  0  0  # atno 17343 bound_to 10162
  157.3307  130.6983  149.6322 LP  0  0  0  0  0  0  0  0  0  0  0  0  # atno 17370 bound_to 10713
  155.9667  130.4308  150.4894 LP  0  0  0  0  0  0  0  0  0  0  0  0  # atno 17371 bound_to 10713
  141.1436  133.6560  156.3801 LP  0  0  0  0  0  0  0  0  0  0  0  0  # atno 17394 bound_to 11000
  140.5196  134.6317  157.5313 LP  0  0  0  0  0  0  0  0  0  0  0  0  # atno 17395 bound_to 11000

$$$$
