AV-unprocessed.smi:99|AV-procd|sdf|885|dock4
  -GOLD-   2262017363D 1   1.00000     0.00000
 Structure written by MMmdl.
 52 55  0  0  0  0  0  0  0  0  2 V2000
  150.8899  139.6820  157.2999 O   0  0  0  0  0  0  0  0  0  0  0  0
  151.2608  139.6759  158.4755 C   0  0  0  0  0  0  0  0  0  0  0  0
  151.1013  138.6256  159.3024 O   0  0  0  0  0  0  0  0  0  0  0  0
  150.5311  137.4207  158.8196 C   0  0  0  0  0  0  0  0  0  0  0  0
  149.0097  137.4749  159.0148 C   0  0  2  0  0  0  0  0  0  0  0  0
  148.7120  137.0728  160.3474 O   0  0  0  0  0  0  0  0  0  0  0  0
  148.3270  135.7305  160.3964 C   0  0  1  0  0  0  0  0  0  0  0  0
  146.9841  135.6343  161.0849 N   0  0  0  0  0  0  0  0  0  0  0  0
  146.6912  134.5772  161.9306 C   0  0  0  0  0  0  0  0  0  0  0  0
  145.5055  134.4959  162.5681 C   0  0  0  0  0  0  0  0  0  0  0  0
  144.5098  135.5442  162.3649 C   0  0  0  0  0  0  0  0  0  0  0  0
  143.4259  135.4551  162.9381 O   0  0  0  0  0  0  0  0  0  0  0  0
  144.8309  136.5854  161.5435 N   0  5  0  0  0  0  0  0  0  0  0  0
  146.0343  136.6756  160.9055 C   0  0  0  0  0  0  0  0  0  0  0  0
  146.3458  137.6244  160.1849 O   0  0  0  0  0  0  0  0  0  0  0  0
  148.2125  135.2052  158.9575 C   0  0  2  0  0  0  0  0  0  0  0  0
  149.2683  134.3277  158.6249 O   0  0  0  0  0  0  0  0  0  0  0  0
  148.2725  136.4715  158.1199 C   0  0  1  0  0  0  0  0  0  0  0  0
  146.9425  136.9082  157.8651 O   0  0  0  0  0  0  0  0  0  0  0  0
  146.6964  138.0369  157.1700 C   0  0  0  0  0  0  0  0  0  0  0  0
  147.5714  138.8351  156.8282 O   0  0  0  0  0  0  0  0  0  0  0  0
  145.2475  138.2202  156.8683 C   0  0  0  0  0  0  0  0  0  0  0  0
  144.8284  139.3583  156.1407 C   0  0  0  0  0  0  0  0  0  0  0  0
  143.4659  139.5580  155.8443 C   0  0  0  0  0  0  0  0  0  0  0  0
  142.5060  138.6225  156.2724 C   0  0  0  0  0  0  0  0  0  0  0  0
  142.9103  137.4857  156.9965 C   0  0  0  0  0  0  0  0  0  0  0  0
  144.2721  137.2840  157.2935 C   0  0  0  0  0  0  0  0  0  0  0  0
  151.9313  140.8340  159.1341 C   0  0  0  0  0  0  0  0  0  0  0  0
  151.7191  142.1379  158.6283 C   0  0  0  0  0  0  0  0  0  0  0  0
  152.3382  143.2504  159.2307 C   0  0  0  0  0  0  0  0  0  0  0  0
  153.1781  143.0725  160.3454 C   0  0  0  0  0  0  0  0  0  0  0  0
  153.3981  141.7805  160.8574 C   0  0  0  0  0  0  0  0  0  0  0  0
  152.7795  140.6669  160.2567 C   0  0  0  0  0  0  0  0  0  0  0  0
  150.7666  137.3202  157.7593 H   0  0  0  0  0  0  0  0  0  0  0  0
  150.9579  136.5597  159.3357 H   0  0  0  0  0  0  0  0  0  0  0  0
  148.6617  138.4938  158.8402 H   0  0  0  0  0  0  0  0  0  0  0  0
  149.0316  135.1804  161.0224 H   0  0  0  0  0  0  0  0  0  0  0  0
  147.4210  133.7999  162.1005 H   0  0  0  0  0  0  0  0  0  0  0  0
  145.2956  133.6665  163.2274 H   0  0  0  0  0  0  0  0  0  0  0  0
  147.2778  134.6609  158.8098 H   0  0  0  0  0  0  0  0  0  0  0  0
  149.5858  134.5612  157.7653 H   0  0  0  0  0  0  0  0  0  0  0  0
  148.7902  136.2992  157.1746 H   0  0  0  0  0  0  0  0  0  0  0  0
  145.5471  140.0907  155.8018 H   0  0  0  0  0  0  0  0  0  0  0  0
  143.1575  140.4308  155.2875 H   0  0  0  0  0  0  0  0  0  0  0  0
  141.4613  138.7761  156.0453 H   0  0  0  0  0  0  0  0  0  0  0  0
  142.1755  136.7657  157.3257 H   0  0  0  0  0  0  0  0  0  0  0  0
  144.5467  136.4002  157.8508 H   0  0  0  0  0  0  0  0  0  0  0  0
  151.0783  142.2990  157.7734 H   0  0  0  0  0  0  0  0  0  0  0  0
  152.1677  144.2414  158.8365 H   0  0  0  0  0  0  0  0  0  0  0  0
  153.6534  143.9254  160.8070 H   0  0  0  0  0  0  0  0  0  0  0  0
  154.0427  141.6424  161.7130 H   0  0  0  0  0  0  0  0  0  0  0  0
  152.9708  139.6890  160.6741 H   0  0  0  0  0  0  0  0  0  0  0  0
  1  2  2  0  0  0  0
  2  3  1  0  0  0  0
  2 28  1  0  0  0  0
  3  4  1  0  0  0  0
  4  5  1  0  0  0  0
  4 34  1  0  0  0  0
  4 35  1  0  0  0  0
  5 18  1  0  0  0  0
  5  6  1  0  0  0  0
  5 36  1  0  0  0  0
  6  7  1  0  0  0  0
  7  8  1  0  0  0  0
  7 16  1  0  0  0  0
  7 37  1  0  0  0  0
  8 14  1  0  0  0  0
  8  9  1  0  0  0  0
  9 10  2  0  0  0  0
  9 38  1  0  0  0  0
 10 11  1  0  0  0  0
 10 39  1  0  0  0  0
 11 12  2  0  0  0  0
 11 13  1  0  0  0  0
 13 14  1  0  0  0  0
 14 15  2  0  0  0  0
 16 17  1  0  0  0  0
 16 18  1  0  0  0  0
 16 40  1  0  0  0  0
 17 41  1  0  0  0  0
 18 19  1  0  0  0  0
 18 42  1  0  0  0  0
 19 20  1  0  0  0  0
 20 21  2  0  0  0  0
 20 22  1  0  0  0  0
 22 27  1  0  0  0  0
 22 23  2  0  0  0  0
 23 24  1  0  0  0  0
 23 43  1  0  0  0  0
 24 25  2  0  0  0  0
 24 44  1  0  0  0  0
 25 26  1  0  0  0  0
 25 45  1  0  0  0  0
 26 27  2  0  0  0  0
 26 46  1  0  0  0  0
 27 47  1  0  0  0  0
 28 33  1  0  0  0  0
 28 29  2  0  0  0  0
 29 30  1  0  0  0  0
 29 48  1  0  0  0  0
 30 31  2  0  0  0  0
 30 49  1  0  0  0  0
 31 32  1  0  0  0  0
 31 50  1  0  0  0  0
 32 33  2  0  0  0  0
 32 51  1  0  0  0  0
 33 52  1  0  0  0  0
M  CHG  1  13  -1
M  END
> <s_m_source_file>
AV-unprocessed.smi

> <i_m_source_file_index>
99

> <i_lp_mmshare_version>
43012

> <i_f3d_flags>
0

> <s_epik_input>
W2NIXTFbY0hdW2NIXVtjSF1bY0hdYzFDKD1PKU9bQ0gyXVtDQEBIXTJPW0NAQEhdKG4zW2NIXVtjSF1jKD1PKVtuSF1jMz1PKVtDQEBIXShbT0hdKVtDQEhdMk9DKD1PKWM0W2NIXVtjSF1bY0hdW2NIXVtjSF00

> <s_epik_cmdline>
J2VwaWtfcHl0aG9uJywgJy1waCcsICc3LjAnLCAnLXRuJywgJzgnLCAnLW1hJywgJzIwMCcsICctbWV0YWxfYmluZGluZycsICctaW1hZScsICc8aW5maWxlLm1hZT4nLCAnLW9tYWUnLCAnPG91dGZpbGUubWFlPic=

> <r_lp_tautomer_probability>
1

> <r_epik_Ionization_Penalty>
2.89159

> <r_epik_Ionization_Penalty_Charging>
2.1077e-08

> <r_epik_Ionization_Penalty_Neutral>
2.89159

> <r_epik_State_Penalty>
2.88671

> <r_epik_Charging_Adjusted_Penalty>
2.88671

> <i_epik_Tot_Q>
-1

> <i_epik_Tot_abs_Q>
1

> <r_epik_Metal_State_Penalty>
0.0727308

> <b_epik_Metal_Only>
1

> <s_epik_Chemistry_Notes>
This compound has an ester and may undergo hydrolysis at high or low pH. This compound contains an acetal/aminal-like group ( X-CH(R)-Y where X, Y are N, S, or O) that may be acid/base labile, releasing an aldehyde.

> <s_lp_Force_Field>
OPLS_2005

> <r_lp_Energy>
38.0652

> <b_lp_Chiralities_Consistent>
1

> <s_lp_Variant>
AV-unprocessed.smi:99-21

> <Gold.Version>
5.8.1

> <Gold.Id.Protein>
6NUR|6NUR_protein|mol2

> <Gold.PLP.Fitness>
46.1850

> <Gold.PLP.PLP>
-43.5880

> <Gold.PLP.part.hbond>
-3.9197

> <Gold.PLP.part.metal>
0.0000

> <Gold.PLP.part.buried>
-7.2988

> <Gold.PLP.part.nonpolar>
-33.1077

> <Gold.PLP.part.repulsive>
0.0808

> <Gold.PLP.ligand.clash>
2.5618

> <Gold.PLP.ligand.torsion>
1.3955

> <Gold.PLP.Chemscore.Hbond>
2.5760

> <Gold.PLP.Chemscore.CHOScore>
0.0000

> <Gold.PLP.Chemscore.Metal>
0.0000

> <Gold.Chemscore.Hbonds>
donor molecule, donor type, donor heavy atom, donor atom, acceptor molecule, acceptor atom, score
      P1  H  6896  6908       L1    17  1.00
      P1  H  6931  6943       L1     6  0.69
      P1  H  6934  6947       L1    15  1.00

> <Gold.PLP.Chemscore.Internal.Correction>
0.2218

> <Gold.Rescore>
     Score         DG    S(hbond)    S(metal)    S(lipo)     H(rot)  DE(clash)    DE(int)     intcor
     10.14     -16.34       2.51        0.00      89.78       3.13       0.03       6.17       ----

> <Gold.Chemscore.Fitness>
10.1400

> <Gold.Chemscore.DG>
-16.3413

> <Gold.Chemscore.ZeroCoef>
-5.4800

> <Gold.Chemscore.Hbond>
2.5096

> <Gold.Chemscore.Metal>
0.0000

> <Gold.Chemscore.Lipo>
89.7754

> <Gold.Chemscore.Internal_Hbond>
0.0000

> <Gold.Chemscore.DEClash>
0.0310

> <Gold.Chemscore.DEInternal>
6.1703

> <Gold.Chemscore.Rot>
3.1346

> <Gold.Chemscore.Internal.Correction>
   9.000000E+99

> <Gold.Chemscore.Hbonds>
donor molecule, donor type, donor heavy atom, donor atom, acceptor molecule, acceptor atom, score
      P1  H  6896  6908       L1    17  0.25
      P1  H  6931  6943       L1     6  0.66
      P1  H  6934  6947       L1    15  0.97

> <Gold.Chemscore.Hbond.Weighted>
-8.3821

> <Gold.Chemscore.Metal.Weighted>
-0.0000

> <Gold.Chemscore.Lipo.Weighted>
-10.5037

> <Gold.Chemscore.Internal_Hbond.Weighted>
0.0000

> <Gold.Chemscore.DEClash.Weighted>
0.0310

> <Gold.Chemscore.DEInternal.Weighted>
6.1703

> <Gold.Chemscore.Rot.Weighted>
8.0246

> <Gold.Chemscore.Internal.Correction.Weighted>
   9.000000E+99

> <Gold.Protein.RotatedTorsions>
[ 6907 6896 6895 6894 ] final  139.38 input  -60.11 | X-H torsion
[ 7974 7965 7964 7962 ] final  178.13 input  175.53 | X-H torsion
[ 8008 7997 7996 7995 ] final   91.00 input   59.86 | X-H torsion
[ 10167 10162 10161 10158 ] final    0.83 input  -65.29 | X-H torsion
[ 10718 10713 10712 10709 ] final  105.80 input   66.30 | X-H torsion
[ 10763 10752 10751 10750 ] final  121.51 input  -60.55 | X-H torsion
[ 11005 11000 10999 10996 ] final  108.18 input  -57.11 | X-H torsion

> <Gold.Protein.ActiveResidues>
 VAL166  LYS551  ARG553  GLY616  TRP617  ASP618  TYR619  PRO620  LYS621  CYS622 
 ASP623  PHE694  ASN695  SER759  ASP760  ASP761  ALA762  ILE779  LEU786  VAL792 
 PHE793  MET794  SER795  GLU796  ALA797  LYS798  CYS799  TRP800  GLU811  SER814 

> <Gold.Protein.RotatedAtoms>
  152.2556  133.5252  159.5350 H   0  0  0  0  0  0  0  0  0  0  0  0  # atno 6907 bound_to 6896
  150.7108  134.0900  159.3937 H   0  0  0  0  0  0  0  0  0  0  0  0  # atno 6908 bound_to 6896
  151.8819  135.0450  160.0540 H   0  0  0  0  0  0  0  0  0  0  0  0  # atno 6909 bound_to 6896
  144.7160  140.0351  143.6438 H   0  0  0  0  0  0  0  0  0  0  0  0  # atno 7974 bound_to 7965
  156.0187  140.3343  155.7015 H   0  0  0  0  0  0  0  0  0  0  0  0  # atno 8008 bound_to 7997
  155.6054  140.0660  157.2739 H   0  0  0  0  0  0  0  0  0  0  0  0  # atno 8009 bound_to 7997
  154.4308  140.1803  156.1205 H   0  0  0  0  0  0  0  0  0  0  0  0  # atno 8010 bound_to 7997
  140.6711  143.7047  150.7924 H   0  0  0  0  0  0  0  0  0  0  0  0  # atno 10167 bound_to 10162
  157.6692  131.0836  150.5911 H   0  0  0  0  0  0  0  0  0  0  0  0  # atno 10718 bound_to 10713
  153.6153  135.3423  155.2992 H   0  0  0  0  0  0  0  0  0  0  0  0  # atno 10763 bound_to 10752
  154.8611  135.4260  154.2266 H   0  0  0  0  0  0  0  0  0  0  0  0  # atno 10764 bound_to 10752
  153.3126  135.7032  153.7174 H   0  0  0  0  0  0  0  0  0  0  0  0  # atno 10765 bound_to 10752
  139.8840  134.9423  156.5933 H   0  0  0  0  0  0  0  0  0  0  0  0  # atno 11005 bound_to 11000
  146.0070  139.3138  143.0893 LP  0  0  0  0  0  0  0  0  0  0  0  0  # atno 17320 bound_to 7965
  145.8726  140.9411  143.0642 LP  0  0  0  0  0  0  0  0  0  0  0  0  # atno 17321 bound_to 7965
  140.0732  143.5041  152.2569 LP  0  0  0  0  0  0  0  0  0  0  0  0  # atno 17342 bound_to 10162
  139.5979  144.7573  151.3241 LP  0  0  0  0  0  0  0  0  0  0  0  0  # atno 17343 bound_to 10162
  156.6212  130.4406  149.5822 LP  0  0  0  0  0  0  0  0  0  0  0  0  # atno 17370 bound_to 10713
  156.2354  130.6820  151.1505 LP  0  0  0  0  0  0  0  0  0  0  0  0  # atno 17371 bound_to 10713
  140.7939  133.8560  155.8669 LP  0  0  0  0  0  0  0  0  0  0  0  0  # atno 17394 bound_to 11000
  140.9653  134.1602  157.4621 LP  0  0  0  0  0  0  0  0  0  0  0  0  # atno 17395 bound_to 11000

$$$$
