AV-unprocessed.smi:3031|AV-procd|sdf|11541|dock10
  -GOLD-   2272016493D 1   1.00000     0.00000
 Structure written by MMmdl.
 47 48  0  0  0  0  0  0  0  0  2 V2000
  145.3975  130.9425  151.1037 C   0  0  0  0  0  0  0  0  0  0  0  0
  145.3295  132.3955  151.4760 C   0  0  0  0  0  0  0  0  0  0  0  0
  145.1008  132.9601  152.7633 C   0  0  0  0  0  0  0  0  0  0  0  0
  145.0994  134.2831  152.7512 N   0  0  0  0  0  0  0  0  0  0  0  0
  145.3268  134.6085  151.4611 N   0  0  0  0  0  0  0  0  0  0  0  0
  145.3805  136.0046  151.0680 C   0  0  0  0  0  0  0  0  0  0  0  0
  145.1230  136.9692  152.2447 C   0  0  2  0  0  0  0  0  0  0  0  0
  143.6469  136.9323  152.6630 C   0  0  0  0  0  0  0  0  0  0  0  0
  145.4985  138.3575  151.8921 N   0  3  0  0  0  0  0  0  0  0  0  0
  146.9181  138.7022  152.1246 C   0  0  0  0  0  0  0  0  0  0  0  0
  147.0695  139.7123  153.2769 C   0  0  2  0  0  0  0  0  0  0  0  0
  146.4694  140.9226  152.8574 O   0  0  0  0  0  0  0  0  0  0  0  0
  148.5230  140.0646  153.6697 C   0  0  0  0  0  0  0  0  0  0  0  0
  148.6855  140.9211  154.8483 N   0  0  0  0  0  0  0  0  0  0  0  0
  147.9202  140.4457  156.0019 C   0  0  0  0  0  0  0  0  0  0  0  0
  148.1165  141.3463  157.2343 C   0  0  0  0  0  0  0  0  0  0  0  0
  149.5008  141.4161  157.5574 O   0  0  0  0  0  0  0  0  0  0  0  0
  150.2907  141.9032  156.4784 C   0  0  0  0  0  0  0  0  0  0  0  0
  150.0895  141.0041  155.2460 C   0  0  0  0  0  0  0  0  0  0  0  0
  145.4713  133.4891  150.6698 C   0  0  0  0  0  0  0  0  0  0  0  0
  145.3823  130.2969  151.9822 H   0  0  0  0  0  0  0  0  0  0  0  0
  146.3090  130.7110  150.5520 H   0  0  0  0  0  0  0  0  0  0  0  0
  144.5565  130.6491  150.4752 H   0  0  0  0  0  0  0  0  0  0  0  0
  144.9351  132.4499  153.7010 H   0  0  0  0  0  0  0  0  0  0  0  0
  146.3488  136.2091  150.6072 H   0  0  0  0  0  0  0  0  0  0  0  0
  144.6314  136.1575  150.2900 H   0  0  0  0  0  0  0  0  0  0  0  0
  145.7107  136.6450  153.1054 H   0  0  0  0  0  0  0  0  0  0  0  0
  143.3480  135.9264  152.9596 H   0  0  0  0  0  0  0  0  0  0  0  0
  142.9934  137.2460  151.8480 H   0  0  0  0  0  0  0  0  0  0  0  0
  143.4621  137.5915  153.5118 H   0  0  0  0  0  0  0  0  0  0  0  0
  145.2838  138.5109  150.9165 H   0  0  0  0  0  0  0  0  0  0  0  0
  147.4234  137.7704  152.3675 H   0  0  0  0  0  0  0  0  0  0  0  0
  147.3718  139.0952  151.2148 H   0  0  0  0  0  0  0  0  0  0  0  0
  146.5305  139.3578  154.1565 H   0  0  0  0  0  0  0  0  0  0  0  0
  145.5319  140.8025  152.8352 H   0  0  0  0  0  0  0  0  0  0  0  0
  149.1262  139.1607  153.7690 H   0  0  0  0  0  0  0  0  0  0  0  0
  148.9450  140.5909  152.8116 H   0  0  0  0  0  0  0  0  0  0  0  0
  146.8592  140.3966  155.7784 H   0  0  0  0  0  0  0  0  0  0  0  0
  148.2260  139.4290  156.2538 H   0  0  0  0  0  0  0  0  0  0  0  0
  147.7269  142.3482  157.0475 H   0  0  0  0  0  0  0  0  0  0  0  0
  147.5718  140.9442  158.0889 H   0  0  0  0  0  0  0  0  0  0  0  0
  150.0157  142.9347  156.2534 H   0  0  0  0  0  0  0  0  0  0  0  0
  151.3390  141.9087  156.7775 H   0  0  0  0  0  0  0  0  0  0  0  0
  150.4742  140.0054  155.4602 H   0  0  0  0  0  0  0  0  0  0  0  0
  150.6858  141.3978  154.4221 H   0  0  0  0  0  0  0  0  0  0  0  0
  145.6576  133.5625  149.6084 H   0  0  0  0  0  0  0  0  0  0  0  0
  144.9382  138.9891  152.4460 H   0  0  0  0  0  0  0  0  0  0  0  0
  1  2  1  0  0  0  0
  1 21  1  0  0  0  0
  1 22  1  0  0  0  0
  1 23  1  0  0  0  0
  2 20  2  0  0  0  0
  2  3  1  0  0  0  0
  3  4  2  0  0  0  0
  3 24  1  0  0  0  0
  4  5  1  0  0  0  0
  5  6  1  0  0  0  0
  5 20  1  0  0  0  0
  6  7  1  0  0  0  0
  6 25  1  0  0  0  0
  6 26  1  0  0  0  0
  7  8  1  0  0  0  0
  7  9  1  0  0  0  0
  7 27  1  0  0  0  0
  8 28  1  0  0  0  0
  8 29  1  0  0  0  0
  8 30  1  0  0  0  0
  9 10  1  0  0  0  0
  9 31  1  0  0  0  0
  9 47  1  0  0  0  0
 10 11  1  0  0  0  0
 10 32  1  0  0  0  0
 10 33  1  0  0  0  0
 11 12  1  0  0  0  0
 11 13  1  0  0  0  0
 11 34  1  0  0  0  0
 12 35  1  0  0  0  0
 13 14  1  0  0  0  0
 13 36  1  0  0  0  0
 13 37  1  0  0  0  0
 14 19  1  0  0  0  0
 14 15  1  0  0  0  0
 15 16  1  0  0  0  0
 15 38  1  0  0  0  0
 15 39  1  0  0  0  0
 16 17  1  0  0  0  0
 16 40  1  0  0  0  0
 16 41  1  0  0  0  0
 17 18  1  0  0  0  0
 18 19  1  0  0  0  0
 18 42  1  0  0  0  0
 18 43  1  0  0  0  0
 19 44  1  0  0  0  0
 19 45  1  0  0  0  0
 20 46  1  0  0  0  0
M  CHG  1   9   1
M  END
> <s_m_source_file>
AV-unprocessed.smi

> <i_m_source_file_index>
3031

> <i_lp_mmshare_version>
43012

> <i_f3d_flags>
0

> <s_epik_input>
W0NIM11jMVtjSF1ubihbY0hdMSlbQ0gyXVtDQEhdKFtDSDNdKVtOSF1bQ0gyXVtDQEhdKFtPSF0pW0NIMl1OMltDSDJdW0NIMl1PW0NIMl1bQ0gyXTI=

> <s_epik_cmdline>
J2VwaWtfcHl0aG9uJywgJy1waCcsICc3LjAnLCAnLXRuJywgJzgnLCAnLW1hJywgJzIwMCcsICctbWV0YWxfYmluZGluZycsICctaW1hZScsICc8aW5maWxlLm1hZT4nLCAnLW9tYWUnLCAnPG91dGZpbGUubWFlPic=

> <r_lp_tautomer_probability>
1

> <r_epik_Ionization_Penalty>
0.108564

> <r_epik_Ionization_Penalty_Charging>
0.01811

> <r_epik_Ionization_Penalty_Neutral>
0.0904541

> <r_epik_State_Penalty>
0.141043

> <r_epik_Charging_Adjusted_Penalty>
0.159153

> <i_epik_Tot_Q>
1

> <i_epik_Tot_abs_Q>
1

> <r_epik_Metal_State_Penalty>
0.141052

> <b_epik_Metal_Only>
0

> <s_lp_Force_Field>
OPLS_2005

> <r_lp_Energy>
31.5788

> <b_lp_Chiralities_Consistent>
1

> <s_lp_Variant>
AV-unprocessed.smi:3031-1

> <Gold.Version>
5.8.1

> <Gold.Id.Protein>
6NUR|6NUR_protein|mol2

> <Gold.PLP.Fitness>
47.5818

> <Gold.PLP.PLP>
-31.9711

> <Gold.PLP.part.hbond>
-3.0000

> <Gold.PLP.part.metal>
0.0000

> <Gold.PLP.part.buried>
1.4272

> <Gold.PLP.part.nonpolar>
-30.3963

> <Gold.PLP.part.repulsive>
0.2952

> <Gold.PLP.ligand.clash>
0.0000

> <Gold.PLP.ligand.torsion>
0.8556

> <Gold.PLP.Chemscore.Hbond>
3.7040

> <Gold.PLP.Chemscore.CHOScore>
2.0000

> <Gold.PLP.Chemscore.Metal>
0.0000

> <Gold.Chemscore.Hbonds>
donor molecule, donor type, donor heavy atom, donor atom, acceptor molecule, acceptor atom, score
      L1  H     9    31       P1 10171  0.82
      L1  H     9    47       P1 10175  1.86
      L1  H    12    35       P1 10175  1.00
      L1  C     3    24       P1 10957  0.84
      L1  C    20    46       P1  7921  1.00

> <Gold.PLP.Chemscore.Internal.Correction>
0.2100

> <Gold.Rescore>
     Score         DG    S(hbond)    S(metal)    S(lipo)     H(rot)  DE(clash)    DE(int)     intcor
     15.64     -16.74       2.54        0.00      81.25       2.63       0.21       0.89       ----

> <Gold.Chemscore.Fitness>
15.6399

> <Gold.Chemscore.DG>
-16.7428

> <Gold.Chemscore.ZeroCoef>
-5.4800

> <Gold.Chemscore.Hbond>
2.5394

> <Gold.Chemscore.Metal>
0.0000

> <Gold.Chemscore.Lipo>
81.2495

> <Gold.Chemscore.Internal_Hbond>
0.0000

> <Gold.Chemscore.DEClash>
0.2094

> <Gold.Chemscore.DEInternal>
0.8936

> <Gold.Chemscore.Rot>
2.6270

> <Gold.Chemscore.Internal.Correction>
   9.000000E+99

> <Gold.Chemscore.Hbonds>
donor molecule, donor type, donor heavy atom, donor atom, acceptor molecule, acceptor atom, score
      L1  H     9    31       P1 10171  0.81
      L1  H     9    47       P1 10175  0.90
      L1  H    12    35       P1 10175  0.40

> <Gold.Chemscore.Hbond.Weighted>
-8.4818

> <Gold.Chemscore.Metal.Weighted>
-0.0000

> <Gold.Chemscore.Lipo.Weighted>
-9.5062

> <Gold.Chemscore.Internal_Hbond.Weighted>
0.0000

> <Gold.Chemscore.DEClash.Weighted>
0.2094

> <Gold.Chemscore.DEInternal.Weighted>
0.8936

> <Gold.Chemscore.Rot.Weighted>
6.7251

> <Gold.Chemscore.Internal.Correction.Weighted>
   9.000000E+99

> <Gold.Protein.RotatedTorsions>
[ 6907 6896 6895 6894 ] final   41.92 input  -60.11 | X-H torsion
[ 7974 7965 7964 7962 ] final  -59.41 input  175.53 | X-H torsion
[ 8008 7997 7996 7995 ] final    9.69 input   59.86 | X-H torsion
[ 10167 10162 10161 10158 ] final  -24.62 input  -65.29 | X-H torsion
[ 10718 10713 10712 10709 ] final  -56.50 input   66.30 | X-H torsion
[ 10763 10752 10751 10750 ] final   73.50 input  -60.55 | X-H torsion
[ 11005 11000 10999 10996 ] final  -68.04 input  -57.11 | X-H torsion

> <Gold.Protein.ActiveResidues>
 VAL166  LYS551  ARG553  GLY616  TRP617  ASP618  TYR619  PRO620  LYS621  CYS622 
 ASP623  PHE694  ASN695  SER759  ASP760  ASP761  ALA762  ILE779  LEU786  VAL792 
 PHE793  MET794  SER795  GLU796  ALA797  LYS798  CYS799  TRP800  GLU811  SER814 

> <Gold.Protein.RotatedAtoms>
  152.2013  134.8585  160.0507 H   0  0  0  0  0  0  0  0  0  0  0  0  # atno 6907 bound_to 6896
  151.9437  133.3640  159.3983 H   0  0  0  0  0  0  0  0  0  0  0  0  # atno 6908 bound_to 6896
  150.6955  134.4336  159.5304 H   0  0  0  0  0  0  0  0  0  0  0  0  # atno 6909 bound_to 6896
  145.8278  140.8499  143.0099 H   0  0  0  0  0  0  0  0  0  0  0  0  # atno 7974 bound_to 7965
  154.7833  140.2823  155.6047 H   0  0  0  0  0  0  0  0  0  0  0  0  # atno 8008 bound_to 7997
  156.2953  140.2619  156.2592 H   0  0  0  0  0  0  0  0  0  0  0  0  # atno 8009 bound_to 7997
  154.9757  140.0375  157.2245 H   0  0  0  0  0  0  0  0  0  0  0  0  # atno 8010 bound_to 7997
  140.7288  143.4337  151.0763 H   0  0  0  0  0  0  0  0  0  0  0  0  # atno 10167 bound_to 10162
  156.1283  130.4161  150.0314 H   0  0  0  0  0  0  0  0  0  0  0  0  # atno 10718 bound_to 10713
  153.0526  135.5060  154.7903 H   0  0  0  0  0  0  0  0  0  0  0  0  # atno 10763 bound_to 10752
  154.6754  135.2959  154.9688 H   0  0  0  0  0  0  0  0  0  0  0  0  # atno 10764 bound_to 10752
  154.0492  135.6706  153.4851 H   0  0  0  0  0  0  0  0  0  0  0  0  # atno 10765 bound_to 10752
  141.1522  133.6732  156.6385 H   0  0  0  0  0  0  0  0  0  0  0  0  # atno 11005 bound_to 11000
  144.6742  140.0627  143.7475 LP  0  0  0  0  0  0  0  0  0  0  0  0  # atno 17320 bound_to 7965
  145.9605  139.2797  143.1158 LP  0  0  0  0  0  0  0  0  0  0  0  0  # atno 17321 bound_to 7965
  139.7996  143.8102  152.3161 LP  0  0  0  0  0  0  0  0  0  0  0  0  # atno 17342 bound_to 10162
  139.8114  144.7334  150.9692 LP  0  0  0  0  0  0  0  0  0  0  0  0  # atno 17343 bound_to 10162
  156.8233  130.9366  151.3640 LP  0  0  0  0  0  0  0  0  0  0  0  0  # atno 17370 bound_to 10713
  157.6463  130.8847  149.9546 LP  0  0  0  0  0  0  0  0  0  0  0  0  # atno 17371 bound_to 10713
  140.3411  134.7848  157.4398 LP  0  0  0  0  0  0  0  0  0  0  0  0  # atno 17394 bound_to 11000
  140.0937  134.5566  155.8419 LP  0  0  0  0  0  0  0  0  0  0  0  0  # atno 17395 bound_to 11000

$$$$
