AV-unprocessed.smi:1555|AV-procd|sdf|6264|dock8
  -GOLD-   22720 6453D 1   1.00000     0.00000
 Structure written by MMmdl.
 42 43  0  0  0  0  0  0  0  0  2 V2000
  146.4844  139.1029  151.0396 C   0  0  0  0  0  0  0  0  0  0  0  0
  146.3746  138.5781  152.4804 C   0  0  2  0  0  0  0  0  0  0  0  0
  147.5808  138.9714  153.3608 C   0  0  0  0  0  0  0  0  0  0  0  0
  147.5378  140.3710  153.7937 N   0  0  0  0  0  0  0  0  0  0  0  0
  146.4775  141.2352  153.6958 C   0  0  0  0  0  0  0  0  0  0  0  0
  146.8941  142.4265  154.2320 C   0  0  0  0  0  0  0  0  0  0  0  0
  148.1882  142.2378  154.6377 N   0  3  0  0  0  0  0  0  0  0  0  0
  148.5768  140.9861  154.3735 C   0  0  0  0  0  0  0  0  0  0  0  0
  146.2237  137.1264  152.4510 N   0  0  0  0  0  0  0  0  0  0  0  0
  145.1035  136.4501  152.7598 C   0  0  0  0  0  0  0  0  0  0  0  0
  144.0682  137.0248  153.1002 O   0  0  0  0  0  0  0  0  0  0  0  0
  145.2068  135.1009  152.6563 N   0  0  0  0  0  0  0  0  0  0  0  0
  144.1771  134.1149  153.0258 C   0  0  0  0  0  0  0  0  0  0  0  0
  143.5614  133.5357  151.7393 C   0  0  0  0  0  0  0  0  0  0  0  0
  144.6447  132.9038  150.8339 C   0  0  0  0  0  0  0  0  0  0  0  0
  144.0727  132.4158  149.4904 C   0  0  0  0  0  0  0  0  0  0  0  0
  143.7571  133.5089  148.6537 O   0  0  0  0  0  0  0  0  0  0  0  0
  145.8126  133.8914  150.6173 C   0  0  0  0  0  0  0  0  0  0  0  0
  146.3247  134.4585  151.9543 C   0  0  0  0  0  0  0  0  0  0  0  0
  146.5070  140.1924  151.0108 H   0  0  0  0  0  0  0  0  0  0  0  0
  145.6320  138.7825  150.4395 H   0  0  0  0  0  0  0  0  0  0  0  0
  147.3893  138.7374  150.5528 H   0  0  0  0  0  0  0  0  0  0  0  0
  145.4693  139.0072  152.9145 H   0  0  0  0  0  0  0  0  0  0  0  0
  147.6198  138.3586  154.2623 H   0  0  0  0  0  0  0  0  0  0  0  0
  148.5172  138.8034  152.8257 H   0  0  0  0  0  0  0  0  0  0  0  0
  145.5313  140.9453  153.2617 H   0  0  0  0  0  0  0  0  0  0  0  0
  146.3796  143.3688  154.3530 H   0  0  0  0  0  0  0  0  0  0  0  0
  149.5410  140.5588  154.5841 H   0  0  0  0  0  0  0  0  0  0  0  0
  147.0332  136.5898  152.1746 H   0  0  0  0  0  0  0  0  0  0  0  0
  144.6402  133.3160  153.6069 H   0  0  0  0  0  0  0  0  0  0  0  0
  143.3896  134.5133  153.6652 H   0  0  0  0  0  0  0  0  0  0  0  0
  142.8068  132.7926  151.9990 H   0  0  0  0  0  0  0  0  0  0  0  0
  143.0414  134.3278  151.1985 H   0  0  0  0  0  0  0  0  0  0  0  0
  145.0514  132.0377  151.3587 H   0  0  0  0  0  0  0  0  0  0  0  0
  144.7799  131.7610  148.9805 H   0  0  0  0  0  0  0  0  0  0  0  0
  143.1610  131.8401  149.6534 H   0  0  0  0  0  0  0  0  0  0  0  0
  144.5586  133.9550  148.4259 H   0  0  0  0  0  0  0  0  0  0  0  0
  146.6289  133.3948  150.0917 H   0  0  0  0  0  0  0  0  0  0  0  0
  145.4886  134.7136  149.9775 H   0  0  0  0  0  0  0  0  0  0  0  0
  147.1578  135.1393  151.7737 H   0  0  0  0  0  0  0  0  0  0  0  0
  146.7293  133.6564  152.5733 H   0  0  0  0  0  0  0  0  0  0  0  0
  148.7687  142.9415  155.0767 H   0  0  0  0  0  0  0  0  0  0  0  0
  1  2  1  0  0  0  0
  1 20  1  0  0  0  0
  1 21  1  0  0  0  0
  1 22  1  0  0  0  0
  2  3  1  0  0  0  0
  2  9  1  0  0  0  0
  2 23  1  0  0  0  0
  3  4  1  0  0  0  0
  3 24  1  0  0  0  0
  3 25  1  0  0  0  0
  4  8  1  0  0  0  0
  4  5  1  0  0  0  0
  5  6  2  0  0  0  0
  5 26  1  0  0  0  0
  6  7  1  0  0  0  0
  6 27  1  0  0  0  0
  7  8  2  0  0  0  0
  7 42  1  0  0  0  0
  8 28  1  0  0  0  0
  9 10  1  0  0  0  0
  9 29  1  0  0  0  0
 10 11  2  0  0  0  0
 10 12  1  0  0  0  0
 12 19  1  0  0  0  0
 12 13  1  0  0  0  0
 13 14  1  0  0  0  0
 13 30  1  0  0  0  0
 13 31  1  0  0  0  0
 14 15  1  0  0  0  0
 14 32  1  0  0  0  0
 14 33  1  0  0  0  0
 15 16  1  0  0  0  0
 15 18  1  0  0  0  0
 15 34  1  0  0  0  0
 16 17  1  0  0  0  0
 16 35  1  0  0  0  0
 16 36  1  0  0  0  0
 17 37  1  0  0  0  0
 18 19  1  0  0  0  0
 18 38  1  0  0  0  0
 18 39  1  0  0  0  0
 19 40  1  0  0  0  0
 19 41  1  0  0  0  0
M  CHG  1   7   1
M  END
> <s_m_source_file>
AV-unprocessed.smi

> <i_m_source_file_index>
1555

> <i_lp_mmshare_version>
43012

> <i_f3d_flags>
0

> <s_epik_input>
W2NIXTFuW2NIXVtjSF1uMVtDSDJdW0NAQEhdKFtDSDNdKVtOSF1DKD1PKU4yW0NIMl1bQ0gyXVtDSF0oW0NIMl1bT0hdKVtDSDJdW0NIMl0y

> <s_epik_cmdline>
J2VwaWtfcHl0aG9uJywgJy1waCcsICc3LjAnLCAnLXRuJywgJzgnLCAnLW1hJywgJzIwMCcsICctbWV0YWxfYmluZGluZycsICctaW1hZScsICc8aW5maWxlLm1hZT4nLCAnLW9tYWUnLCAnPG91dGZpbGUubWFlPic=

> <r_lp_tautomer_probability>
1

> <r_epik_Ionization_Penalty>
0.253261

> <r_epik_Ionization_Penalty_Charging>
0

> <r_epik_Ionization_Penalty_Neutral>
0.253261

> <r_epik_State_Penalty>
0.244619

> <r_epik_Charging_Adjusted_Penalty>
0.244619

> <i_epik_Tot_Q>
1

> <i_epik_Tot_abs_Q>
1

> <r_epik_Metal_State_Penalty>
0.535039

> <b_epik_Metal_Only>
0

> <s_lp_Force_Field>
OPLS_2005

> <r_lp_Energy>
34.4969

> <b_lp_Chiralities_Consistent>
1

> <s_lp_Variant>
AV-unprocessed.smi:1555-1

> <Gold.Version>
5.8.1

> <Gold.Id.Protein>
6NUR|6NUR_protein|mol2

> <Gold.PLP.Fitness>
47.4717

> <Gold.PLP.PLP>
-34.9531

> <Gold.PLP.part.hbond>
-3.8430

> <Gold.PLP.part.metal>
0.0000

> <Gold.PLP.part.buried>
1.6167

> <Gold.PLP.part.nonpolar>
-33.2869

> <Gold.PLP.part.repulsive>
0.4101

> <Gold.PLP.ligand.clash>
1.2398

> <Gold.PLP.ligand.torsion>
0.4477

> <Gold.PLP.Chemscore.Hbond>
3.8560

> <Gold.PLP.Chemscore.CHOScore>
1.0000

> <Gold.PLP.Chemscore.Metal>
0.0000

> <Gold.Chemscore.Hbonds>
donor molecule, donor type, donor heavy atom, donor atom, acceptor molecule, acceptor atom, score
      L1  H     7    42       P1  8028  1.79
      L1  H     9    29       P1  7948  1.00
      L1  H    17    37       P1  7921  1.00
      L1  C     5    26       P1 10175  1.00

> <Gold.PLP.Chemscore.Internal.Correction>
0.0858

> <Gold.Rescore>
     Score         DG    S(hbond)    S(metal)    S(lipo)     H(rot)  DE(clash)    DE(int)     intcor
     16.42     -17.60       2.88        0.00      77.41       2.56       0.63       0.56       ----

> <Gold.Chemscore.Fitness>
16.4191

> <Gold.Chemscore.DG>
-17.6027

> <Gold.Chemscore.ZeroCoef>
-5.4800

> <Gold.Chemscore.Hbond>
2.8824

> <Gold.Chemscore.Metal>
0.0000

> <Gold.Chemscore.Lipo>
77.4074

> <Gold.Chemscore.Internal_Hbond>
0.0000

> <Gold.Chemscore.DEClash>
0.6269

> <Gold.Chemscore.DEInternal>
0.5568

> <Gold.Chemscore.Rot>
2.5630

> <Gold.Chemscore.Internal.Correction>
   9.000000E+99

> <Gold.Chemscore.Hbonds>
donor molecule, donor type, donor heavy atom, donor atom, acceptor molecule, acceptor atom, score
      L1  H     7    42       P1  8028  0.88
      L1  H     9    29       P1  7948  0.98
      L1  H    17    37       P1  7921  0.99

> <Gold.Chemscore.Hbond.Weighted>
-9.6273

> <Gold.Chemscore.Metal.Weighted>
-0.0000

> <Gold.Chemscore.Lipo.Weighted>
-9.0567

> <Gold.Chemscore.Internal_Hbond.Weighted>
0.0000

> <Gold.Chemscore.DEClash.Weighted>
0.6269

> <Gold.Chemscore.DEInternal.Weighted>
0.5568

> <Gold.Chemscore.Rot.Weighted>
6.5612

> <Gold.Chemscore.Internal.Correction.Weighted>
   9.000000E+99

> <Gold.Protein.RotatedTorsions>
[ 6907 6896 6895 6894 ] final  -22.50 input  -60.11 | X-H torsion
[ 7974 7965 7964 7962 ] final -106.19 input  175.53 | X-H torsion
[ 8008 7997 7996 7995 ] final  144.81 input   59.86 | X-H torsion
[ 10167 10162 10161 10158 ] final   66.55 input  -65.29 | X-H torsion
[ 10718 10713 10712 10709 ] final -109.98 input   66.30 | X-H torsion
[ 10763 10752 10751 10750 ] final  -55.27 input  -60.55 | X-H torsion
[ 11005 11000 10999 10996 ] final  145.81 input  -57.11 | X-H torsion

> <Gold.Protein.ActiveResidues>
 VAL166  LYS551  ARG553  GLY616  TRP617  ASP618  TYR619  PRO620  LYS621  CYS622 
 ASP623  PHE694  ASN695  SER759  ASP760  ASP761  ALA762  ILE779  LEU786  VAL792 
 PHE793  MET794  SER795  GLU796  ALA797  LYS798  CYS799  TRP800  GLU811  SER814 

> <Gold.Protein.RotatedAtoms>
  151.2176  135.0506  159.8936 H   0  0  0  0  0  0  0  0  0  0  0  0  # atno 6907 bound_to 6896
  152.5418  134.0676  159.8190 H   0  0  0  0  0  0  0  0  0  0  0  0  # atno 6908 bound_to 6896
  151.0837  133.5321  159.2651 H   0  0  0  0  0  0  0  0  0  0  0  0  # atno 6909 bound_to 6896
  145.2210  140.9134  143.3259 H   0  0  0  0  0  0  0  0  0  0  0  0  # atno 7974 bound_to 7965
  156.2899  140.2226  156.5114 H   0  0  0  0  0  0  0  0  0  0  0  0  # atno 8008 bound_to 7997
  154.7605  140.0473  157.0991 H   0  0  0  0  0  0  0  0  0  0  0  0  # atno 8009 bound_to 7997
  154.9996  140.3100  155.4876 H   0  0  0  0  0  0  0  0  0  0  0  0  # atno 8010 bound_to 7997
  140.0992  144.4919  150.7048 H   0  0  0  0  0  0  0  0  0  0  0  0  # atno 10167 bound_to 10162
  156.0566  130.5791  150.8174 H   0  0  0  0  0  0  0  0  0  0  0  0  # atno 10718 bound_to 10713
  154.1881  135.6432  153.5052 H   0  0  0  0  0  0  0  0  0  0  0  0  # atno 10763 bound_to 10752
  153.0042  135.5422  154.6444 H   0  0  0  0  0  0  0  0  0  0  0  0  # atno 10764 bound_to 10752
  154.5826  135.2926  155.0690 H   0  0  0  0  0  0  0  0  0  0  0  0  # atno 10765 bound_to 10752
  140.0742  134.9134  157.1395 H   0  0  0  0  0  0  0  0  0  0  0  0  # atno 11005 bound_to 11000
  144.9766  139.3826  143.6283 LP  0  0  0  0  0  0  0  0  0  0  0  0  # atno 17320 bound_to 7965
  146.3376  139.8887  142.8812 LP  0  0  0  0  0  0  0  0  0  0  0  0  # atno 17321 bound_to 7965
  140.6987  143.2420  151.4927 LP  0  0  0  0  0  0  0  0  0  0  0  0  # atno 17342 bound_to 10162
  139.5681  144.1994  152.1795 LP  0  0  0  0  0  0  0  0  0  0  0  0  # atno 17343 bound_to 10162
  157.5540  131.0944  150.9654 LP  0  0  0  0  0  0  0  0  0  0  0  0  # atno 17370 bound_to 10713
  156.9908  130.5562  149.5303 LP  0  0  0  0  0  0  0  0  0  0  0  0  # atno 17371 bound_to 10713
  140.3582  134.2523  155.7190 LP  0  0  0  0  0  0  0  0  0  0  0  0  # atno 17394 bound_to 11000
  141.2023  133.7941  157.0397 LP  0  0  0  0  0  0  0  0  0  0  0  0  # atno 17395 bound_to 11000

$$$$
