AV-unprocessed.smi:2557|AV-procd|sdf|10028|dock2
  -GOLD-   2272014 73D 1   1.00000     0.00000
 Structure written by MMmdl.
 39 41  0  0  0  0  0  0  0  0  3 V2000
  150.6440  138.6196  154.1245 O   0  5  0  0  0  0  0  0  0  0  0  0
  150.1363  139.5619  154.7768 C   0  0  0  0  0  0  0  0  0  0  0  0
  150.6165  140.3403  155.8323 C   0  0  0  0  0  0  0  0  0  0  0  0
  151.9724  140.1465  156.3712 C   0  0  0  0  0  0  0  0  0  0  0  0
  152.7872  139.3123  155.9800 O   0  0  0  0  0  0  0  0  0  0  0  0
  152.2938  140.9825  157.3773 N   0  0  0  0  0  0  0  0  0  0  0  0
  151.4304  141.9585  157.8796 C   0  0  0  0  0  0  0  0  0  0  0  0
  152.0742  142.7410  159.0255 C   0  0  0  0  0  0  0  0  0  0  0  0
  152.5036  141.8105  160.1825 C   0  0  0  0  0  0  0  0  0  0  0  0
  153.1919  142.5920  161.3142 C   0  0  0  0  0  0  0  0  0  0  0  0
  152.3012  143.7321  161.8307 C   0  0  0  0  0  0  0  0  0  0  0  0
  151.8801  144.6664  160.6864 C   0  0  0  0  0  0  0  0  0  0  0  0
  151.1814  143.8854  159.5619 C   0  0  0  0  0  0  0  0  0  0  0  0
  150.2238  142.1717  157.4490 N   0  0  0  0  0  0  0  0  0  0  0  0
  149.8258  141.3562  156.4157 N   0  0  0  0  0  0  0  0  0  0  0  0
  148.7568  139.7750  154.3019 C   0  0  0  0  0  0  0  0  0  0  0  0
  148.3461  141.0411  153.8247 C   0  0  0  0  0  0  0  0  0  0  0  0
  147.0188  141.2202  153.3865 C   0  0  0  0  0  0  0  0  0  0  0  0
  146.1511  140.1859  153.4304 N   0  3  0  0  0  0  0  0  0  0  0  0
  146.4958  138.9615  153.8848 C   0  0  0  0  0  0  0  0  0  0  0  0
  147.8101  138.7252  154.3353 C   0  0  0  0  0  0  0  0  0  0  0  0
  152.9785  143.2037  158.6262 H   0  0  0  0  0  0  0  0  0  0  0  0
  151.6308  141.2908  160.5808 H   0  0  0  0  0  0  0  0  0  0  0  0
  153.1828  141.0370  159.8214 H   0  0  0  0  0  0  0  0  0  0  0  0
  153.4422  141.9167  162.1329 H   0  0  0  0  0  0  0  0  0  0  0  0
  154.1360  143.0013  160.9525 H   0  0  0  0  0  0  0  0  0  0  0  0
  151.4132  143.3156  162.3080 H   0  0  0  0  0  0  0  0  0  0  0  0
  152.8292  144.2984  162.5986 H   0  0  0  0  0  0  0  0  0  0  0  0
  151.2161  145.4434  161.0663 H   0  0  0  0  0  0  0  0  0  0  0  0
  152.7575  145.1773  160.2878 H   0  0  0  0  0  0  0  0  0  0  0  0
  150.9221  144.5714  158.7541 H   0  0  0  0  0  0  0  0  0  0  0  0
  150.2409  143.4828  159.9417 H   0  0  0  0  0  0  0  0  0  0  0  0
  148.8867  141.5254  156.0733 H   0  0  0  0  0  0  0  0  0  0  0  0
  149.0462  141.8636  153.7966 H   0  0  0  0  0  0  0  0  0  0  0  0
  146.6280  142.1530  153.0073 H   0  0  0  0  0  0  0  0  0  0  0  0
  145.7164  138.2139  153.8755 H   0  0  0  0  0  0  0  0  0  0  0  0
  148.0938  137.7494  154.7023 H   0  0  0  0  0  0  0  0  0  0  0  0
  153.2124  140.8923  157.7854 H   0  0  0  0  0  0  0  0  0  0  0  0
  145.1946  140.3365  153.1096 H   0  0  0  0  0  0  0  0  0  0  0  0
  1  2  1  0  0  0  0
  2  3  2  0  0  0  0
  2 16  1  0  0  0  0
  3 15  1  0  0  0  0
  3  4  1  0  0  0  0
  4  5  2  0  0  0  0
  4  6  1  0  0  0  0
  6  7  1  0  0  0  0
  6 38  1  0  0  0  0
  7  8  1  0  0  0  0
  7 14  2  0  0  0  0
  8 13  1  0  0  0  0
  8  9  1  0  0  0  0
  8 22  1  0  0  0  0
  9 10  1  0  0  0  0
  9 23  1  0  0  0  0
  9 24  1  0  0  0  0
 10 11  1  0  0  0  0
 10 25  1  0  0  0  0
 10 26  1  0  0  0  0
 11 12  1  0  0  0  0
 11 27  1  0  0  0  0
 11 28  1  0  0  0  0
 12 13  1  0  0  0  0
 12 29  1  0  0  0  0
 12 30  1  0  0  0  0
 13 31  1  0  0  0  0
 13 32  1  0  0  0  0
 14 15  1  0  0  0  0
 15 33  1  0  0  0  0
 16 21  1  0  0  0  0
 16 17  2  0  0  0  0
 17 18  1  0  0  0  0
 17 34  1  0  0  0  0
 18 19  2  0  0  0  0
 18 35  1  0  0  0  0
 19 20  1  0  0  0  0
 19 39  1  0  0  0  0
 20 21  2  0  0  0  0
 20 36  1  0  0  0  0
 21 37  1  0  0  0  0
M  CHG  1   1  -1
M  CHG  1  19   1
M  END
> <s_m_source_file>
AV-unprocessed.smi

> <i_m_source_file_index>
2557

> <i_lp_mmshare_version>
43012

> <i_f3d_flags>
0

> <s_epik_input>
W2NIXTFbY0hdbltjSF1bY0hdYzFDKD1PKUMyPUMoW09IXSlOPUMoW05IXVtOSF0yKVtDSF0zW0NIMl1bQ0gyXVtDSDJdW0NIMl1bQ0gyXTM=

> <s_epik_cmdline>
J2VwaWtfcHl0aG9uJywgJy1waCcsICc3LjAnLCAnLXRuJywgJzgnLCAnLW1hJywgJzIwMCcsICctbWV0YWxfYmluZGluZycsICctaW1hZScsICc8aW5maWxlLm1hZT4nLCAnLW9tYWUnLCAnPG91dGZpbGUubWFlPic=

> <r_epik_Ionization_Penalty>
1.90808

> <r_epik_Ionization_Penalty_Charging>
1.90154

> <r_epik_Ionization_Penalty_Neutral>
0.00653609

> <r_epik_State_Penalty>
1.20174

> <r_epik_Charging_Adjusted_Penalty>
3.10328

> <i_epik_Tot_Q>
0

> <i_epik_Tot_abs_Q>
2

> <r_epik_Metal_State_Penalty>
5.22546

> <b_epik_Metal_Only>
0

> <s_epik_Chemistry_Notes>
This compound has an imine and may undergo hydrolysis.

> <s_lp_Force_Field>
OPLS_2005

> <r_lp_Energy>
32.353

> <b_lp_Chiralities_Consistent>
1

> <s_lp_Variant>
AV-unprocessed.smi:2557-2

> <Gold.Version>
5.8.1

> <Gold.Id.Protein>
6NUR|6NUR_protein|mol2

> <Gold.PLP.Fitness>
48.8315

> <Gold.PLP.PLP>
-39.8544

> <Gold.PLP.part.hbond>
-2.0000

> <Gold.PLP.part.metal>
0.0000

> <Gold.PLP.part.buried>
-3.9500

> <Gold.PLP.part.nonpolar>
-35.3722

> <Gold.PLP.part.repulsive>
0.4802

> <Gold.PLP.ligand.clash>
0.0000

> <Gold.PLP.ligand.torsion>
1.0947

> <Gold.PLP.Chemscore.Hbond>
3.0000

> <Gold.PLP.Chemscore.CHOScore>
0.0000

> <Gold.PLP.Chemscore.Metal>
0.0000

> <Gold.Chemscore.Hbonds>
donor molecule, donor type, donor heavy atom, donor atom, acceptor molecule, acceptor atom, score
      L1  H    19    39       P1 10175  2.00
      P1  H  7997  8009       L1     5  0.94

> <Gold.PLP.Chemscore.Internal.Correction>
2.1665

> <Gold.Rescore>
     Score         DG    S(hbond)    S(metal)    S(lipo)     H(rot)  DE(clash)    DE(int)     intcor
     18.00     -20.58       1.65        0.00     103.95       1.00       0.44       2.13       ----

> <Gold.Chemscore.Fitness>
18.0033

> <Gold.Chemscore.DG>
-20.5780

> <Gold.Chemscore.ZeroCoef>
-5.4800

> <Gold.Chemscore.Hbond>
1.6454

> <Gold.Chemscore.Metal>
0.0000

> <Gold.Chemscore.Lipo>
103.9514

> <Gold.Chemscore.Internal_Hbond>
0.0000

> <Gold.Chemscore.DEClash>
0.4413

> <Gold.Chemscore.DEInternal>
2.1333

> <Gold.Chemscore.Rot>
1.0000

> <Gold.Chemscore.Internal.Correction>
   9.000000E+99

> <Gold.Chemscore.Hbonds>
donor molecule, donor type, donor heavy atom, donor atom, acceptor molecule, acceptor atom, score
      L1  H    19    39       P1 10175  0.98
      P1  H  7997  8009       L1     5  0.23

> <Gold.Chemscore.Hbond.Weighted>
-5.4957

> <Gold.Chemscore.Metal.Weighted>
-0.0000

> <Gold.Chemscore.Lipo.Weighted>
-12.1623

> <Gold.Chemscore.Internal_Hbond.Weighted>
0.0000

> <Gold.Chemscore.DEClash.Weighted>
0.4413

> <Gold.Chemscore.DEInternal.Weighted>
2.1333

> <Gold.Chemscore.Rot.Weighted>
2.5600

> <Gold.Chemscore.Internal.Correction.Weighted>
   9.000000E+99

> <Gold.Protein.RotatedTorsions>
[ 6907 6896 6895 6894 ] final -176.14 input  -60.11 | X-H torsion
[ 7974 7965 7964 7962 ] final -158.73 input  175.53 | X-H torsion
[ 8008 7997 7996 7995 ] final  178.81 input   59.86 | X-H torsion
[ 10167 10162 10161 10158 ] final   97.74 input  -65.29 | X-H torsion
[ 10718 10713 10712 10709 ] final  128.20 input   66.30 | X-H torsion
[ 10763 10752 10751 10750 ] final  159.20 input  -60.55 | X-H torsion
[ 11005 11000 10999 10996 ] final  -91.29 input  -57.11 | X-H torsion

> <Gold.Protein.ActiveResidues>
 VAL166  LYS551  ARG553  GLY616  TRP617  ASP618  TYR619  PRO620  LYS621  CYS622 
 ASP623  PHE694  ASN695  SER759  ASP760  ASP761  ALA762  ILE779  LEU786  VAL792 
 PHE793  MET794  SER795  GLU796  ALA797  LYS798  CYS799  TRP800  GLU811  SER814 

> <Gold.Protein.RotatedAtoms>
  151.5999  133.3357  159.3044 H   0  0  0  0  0  0  0  0  0  0  0  0  # atno 6907 bound_to 6896
  150.8213  134.7426  159.6786 H   0  0  0  0  0  0  0  0  0  0  0  0  # atno 6908 bound_to 6896
  152.4307  134.5789  159.9994 H   0  0  0  0  0  0  0  0  0  0  0  0  # atno 6909 bound_to 6896
  144.7493  140.3785  143.6060 H   0  0  0  0  0  0  0  0  0  0  0  0  # atno 7974 bound_to 7965
  156.0505  140.1324  157.0055 H   0  0  0  0  0  0  0  0  0  0  0  0  # atno 8008 bound_to 7997
  154.4433  140.1012  156.6440 H   0  0  0  0  0  0  0  0  0  0  0  0  # atno 8009 bound_to 7997
  155.5530  140.3463  155.4475 H   0  0  0  0  0  0  0  0  0  0  0  0  # atno 8010 bound_to 7997
  139.7773  144.6901  151.0072 H   0  0  0  0  0  0  0  0  0  0  0  0  # atno 10167 bound_to 10162
  157.5265  131.1098  150.9074 H   0  0  0  0  0  0  0  0  0  0  0  0  # atno 10718 bound_to 10713
  154.2280  135.2779  155.2900 H   0  0  0  0  0  0  0  0  0  0  0  0  # atno 10763 bound_to 10752
  154.5647  135.5636  153.7043 H   0  0  0  0  0  0  0  0  0  0  0  0  # atno 10764 bound_to 10752
  153.0026  135.6306  154.2421 H   0  0  0  0  0  0  0  0  0  0  0  0  # atno 10765 bound_to 10752
  141.1548  133.7746  156.9858 H   0  0  0  0  0  0  0  0  0  0  0  0  # atno 11005 bound_to 11000
  145.7002  139.1659  143.2597 LP  0  0  0  0  0  0  0  0  0  0  0  0  # atno 17320 bound_to 7965
  146.1421  140.7043  142.9362 LP  0  0  0  0  0  0  0  0  0  0  0  0  # atno 17321 bound_to 7965
  140.7817  143.4522  151.0396 LP  0  0  0  0  0  0  0  0  0  0  0  0  # atno 17342 bound_to 10162
  139.8204  143.7828  152.3176 LP  0  0  0  0  0  0  0  0  0  0  0  0  # atno 17343 bound_to 10162
  156.9668  130.5476  149.5288 LP  0  0  0  0  0  0  0  0  0  0  0  0  # atno 17370 bound_to 10713
  156.0391  130.5475  150.8727 LP  0  0  0  0  0  0  0  0  0  0  0  0  # atno 17371 bound_to 10713
  140.1035  134.9521  157.1959 LP  0  0  0  0  0  0  0  0  0  0  0  0  # atno 17394 bound_to 11000
  140.3287  134.2834  155.7232 LP  0  0  0  0  0  0  0  0  0  0  0  0  # atno 17395 bound_to 11000

$$$$
