AV-unprocessed.smi:3187|AV-procd|sdf|12179|dock8
  -GOLD-   2272018 23D 1   1.00000     0.00000
 Structure written by MMmdl.
 42 43  0  0  0  0  0  0  0  0  3 V2000
  152.0078  144.6767  157.7635 C   0  0  0  0  0  0  0  0  0  0  0  0
  152.2265  143.9863  159.0998 C   0  0  0  0  0  0  0  0  0  0  0  0
  152.0087  144.6418  160.2572 C   0  0  0  0  0  0  0  0  0  0  0  0
  152.2482  144.0621  161.6403 C   0  0  0  0  0  0  0  0  0  0  0  0
  152.5863  142.5626  161.6154 C   0  0  0  0  0  0  0  0  0  0  0  0
  153.4689  142.2071  160.4067 C   0  0  1  0  0  0  0  0  0  0  0  0
  154.0191  140.7729  160.4920 C   0  0  0  0  0  0  0  0  0  0  0  0
  152.7462  142.5422  159.0711 C   0  0  1  0  0  0  0  0  0  0  0  0
  151.6309  141.5250  158.7126 C   0  0  0  0  0  0  0  0  0  0  0  0
  152.1622  140.2672  158.1512 N   0  3  0  0  0  0  0  0  0  0  0  0
  151.3206  139.6726  157.0948 C   0  0  0  0  0  0  0  0  0  0  0  0
  151.0912  140.6665  155.9473 C   0  0  0  0  0  0  0  0  0  0  0  0
  150.0626  140.1966  155.0162 N   0  0  0  0  0  0  0  0  0  0  0  0
  148.8775  140.8142  154.7076 C   0  0  0  0  0  0  0  0  0  0  0  0
  148.2416  140.0079  153.7989 C   0  0  0  0  0  0  0  0  0  0  0  0
  149.0649  138.9339  153.5905 N   0  3  0  0  0  0  0  0  0  0  0  0
  150.1722  139.0505  154.3312 C   0  0  0  0  0  0  0  0  0  0  0  0
  152.8684  144.5304  157.1104 H   0  0  0  0  0  0  0  0  0  0  0  0
  151.8735  145.7509  157.8960 H   0  0  0  0  0  0  0  0  0  0  0  0
  151.1183  144.3016  157.2604 H   0  0  0  0  0  0  0  0  0  0  0  0
  151.6665  145.6664  160.2341 H   0  0  0  0  0  0  0  0  0  0  0  0
  153.0742  144.6164  162.0869 H   0  0  0  0  0  0  0  0  0  0  0  0
  151.3742  144.2409  162.2673 H   0  0  0  0  0  0  0  0  0  0  0  0
  153.0844  142.2905  162.5468 H   0  0  0  0  0  0  0  0  0  0  0  0
  151.6660  141.9790  161.5856 H   0  0  0  0  0  0  0  0  0  0  0  0
  154.3439  142.8579  160.4567 H   0  0  0  0  0  0  0  0  0  0  0  0
  153.2246  140.0349  160.6029 H   0  0  0  0  0  0  0  0  0  0  0  0
  154.6782  140.6641  161.3539 H   0  0  0  0  0  0  0  0  0  0  0  0
  154.5992  140.5189  159.6044 H   0  0  0  0  0  0  0  0  0  0  0  0
  153.5059  142.4910  158.2895 H   0  0  0  0  0  0  0  0  0  0  0  0
  151.0545  141.2550  159.5965 H   0  0  0  0  0  0  0  0  0  0  0  0
  150.9330  141.9669  158.0005 H   0  0  0  0  0  0  0  0  0  0  0  0
  153.0764  140.4563  157.7649 H   0  0  0  0  0  0  0  0  0  0  0  0
  151.8017  138.7689  156.7174 H   0  0  0  0  0  0  0  0  0  0  0  0
  150.3641  139.3739  157.5263 H   0  0  0  0  0  0  0  0  0  0  0  0
  150.7710  141.6349  156.3350 H   0  0  0  0  0  0  0  0  0  0  0  0
  152.0116  140.8331  155.3853 H   0  0  0  0  0  0  0  0  0  0  0  0
  148.5807  141.7569  155.1445 H   0  0  0  0  0  0  0  0  0  0  0  0
  147.2903  140.1152  153.2978 H   0  0  0  0  0  0  0  0  0  0  0  0
  150.9911  138.3542  154.3672 H   0  0  0  0  0  0  0  0  0  0  0  0
  152.2619  139.6002  158.9034 H   0  0  0  0  0  0  0  0  0  0  0  0
  148.8669  138.1620  152.9658 H   0  0  0  0  0  0  0  0  0  0  0  0
  1  2  1  0  0  0  0
  1 18  1  0  0  0  0
  1 19  1  0  0  0  0
  1 20  1  0  0  0  0
  2  8  1  0  0  0  0
  2  3  2  0  0  0  0
  3  4  1  0  0  0  0
  3 21  1  0  0  0  0
  4  5  1  0  0  0  0
  4 22  1  0  0  0  0
  4 23  1  0  0  0  0
  5  6  1  0  0  0  0
  5 24  1  0  0  0  0
  5 25  1  0  0  0  0
  6  7  1  0  0  0  0
  6  8  1  0  0  0  0
  6 26  1  0  0  0  0
  7 27  1  0  0  0  0
  7 28  1  0  0  0  0
  7 29  1  0  0  0  0
  8  9  1  0  0  0  0
  8 30  1  0  0  0  0
  9 10  1  0  0  0  0
  9 31  1  0  0  0  0
  9 32  1  0  0  0  0
 10 11  1  0  0  0  0
 10 33  1  0  0  0  0
 10 41  1  0  0  0  0
 11 12  1  0  0  0  0
 11 34  1  0  0  0  0
 11 35  1  0  0  0  0
 12 13  1  0  0  0  0
 12 36  1  0  0  0  0
 12 37  1  0  0  0  0
 13 17  1  0  0  0  0
 13 14  1  0  0  0  0
 14 15  2  0  0  0  0
 14 38  1  0  0  0  0
 15 16  1  0  0  0  0
 15 39  1  0  0  0  0
 16 17  2  0  0  0  0
 16 42  1  0  0  0  0
 17 40  1  0  0  0  0
M  CHG  1  10   1
M  CHG  1  16   1
M  END
> <s_m_source_file>
AV-unprocessed.smi

> <i_m_source_file_index>
3187

> <i_lp_mmshare_version>
43012

> <i_f3d_flags>
0

> <s_epik_input>
W0NIM11DMT1bQ0hdW0NIMl1bQ0gyXVtDQEBIXShbQ0gzXSlbQ0BIXTFbQ0gyXVtOSF1bQ0gyXVtDSDJdbjJbY0hdW2NIXW5bY0hdMg==

> <s_epik_cmdline>
J2VwaWtfcHl0aG9uJywgJy1waCcsICc3LjAnLCAnLXRuJywgJzgnLCAnLW1hJywgJzIwMCcsICctbWV0YWxfYmluZGluZycsICctaW1hZScsICc8aW5maWxlLm1hZT4nLCAnLW9tYWUnLCAnPG91dGZpbGUubWFlPic=

> <r_lp_tautomer_probability>
1

> <r_epik_Ionization_Penalty>
1.51066

> <r_epik_Ionization_Penalty_Charging>
0.0026721

> <r_epik_Ionization_Penalty_Neutral>
1.50798

> <r_epik_State_Penalty>
1.12593

> <r_epik_Charging_Adjusted_Penalty>
1.12861

> <i_epik_Tot_Q>
2

> <i_epik_Tot_abs_Q>
2

> <r_epik_Metal_State_Penalty>
5.12155

> <b_epik_Metal_Only>
0

> <s_lp_Force_Field>
OPLS_2005

> <r_lp_Energy>
24.2531

> <b_lp_Chiralities_Consistent>
1

> <s_lp_Variant>
AV-unprocessed.smi:3187-5

> <Gold.Version>
5.8.1

> <Gold.Id.Protein>
6NUR|6NUR_protein|mol2

> <Gold.PLP.Fitness>
54.4708

> <Gold.PLP.PLP>
-49.3640

> <Gold.PLP.part.hbond>
-2.0000

> <Gold.PLP.part.metal>
0.0000

> <Gold.PLP.part.buried>
-1.6258

> <Gold.PLP.part.nonpolar>
-45.2698

> <Gold.PLP.part.repulsive>
0.1685

> <Gold.PLP.ligand.clash>
0.0000

> <Gold.PLP.ligand.torsion>
0.4784

> <Gold.PLP.Chemscore.Hbond>
2.0000

> <Gold.PLP.Chemscore.CHOScore>
0.0000

> <Gold.PLP.Chemscore.Metal>
0.0000

> <Gold.Chemscore.Hbonds>
donor molecule, donor type, donor heavy atom, donor atom, acceptor molecule, acceptor atom, score
      L1  H    16    42       P1  7948  1.17

> <Gold.PLP.Chemscore.Internal.Correction>
0.0636

> <Gold.Rescore>
     Score         DG    S(hbond)    S(metal)    S(lipo)     H(rot)  DE(clash)    DE(int)     intcor
     17.79     -18.56       0.99        0.00     126.70       1.97       0.11       0.66       ----

> <Gold.Chemscore.Fitness>
17.7902

> <Gold.Chemscore.DG>
-18.5622

> <Gold.Chemscore.ZeroCoef>
-5.4800

> <Gold.Chemscore.Hbond>
0.9910

> <Gold.Chemscore.Metal>
0.0000

> <Gold.Chemscore.Lipo>
126.6983

> <Gold.Chemscore.Internal_Hbond>
0.0000

> <Gold.Chemscore.DEClash>
0.1103

> <Gold.Chemscore.DEInternal>
0.6618

> <Gold.Chemscore.Rot>
1.9732

> <Gold.Chemscore.Internal.Correction>
   9.000000E+99

> <Gold.Chemscore.Hbonds>
donor molecule, donor type, donor heavy atom, donor atom, acceptor molecule, acceptor atom, score
      L1  H    16    42       P1  7948  0.58

> <Gold.Chemscore.Hbond.Weighted>
-3.3099

> <Gold.Chemscore.Metal.Weighted>
-0.0000

> <Gold.Chemscore.Lipo.Weighted>
-14.8237

> <Gold.Chemscore.Internal_Hbond.Weighted>
0.0000

> <Gold.Chemscore.DEClash.Weighted>
0.1103

> <Gold.Chemscore.DEInternal.Weighted>
0.6618

> <Gold.Chemscore.Rot.Weighted>
5.0514

> <Gold.Chemscore.Internal.Correction.Weighted>
   9.000000E+99

> <Gold.Protein.RotatedTorsions>
[ 6907 6896 6895 6894 ] final   25.66 input  -60.11 | X-H torsion
[ 7974 7965 7964 7962 ] final -167.45 input  175.53 | X-H torsion
[ 8008 7997 7996 7995 ] final  -76.28 input   59.86 | X-H torsion
[ 10167 10162 10161 10158 ] final -141.25 input  -65.29 | X-H torsion
[ 10718 10713 10712 10709 ] final -140.58 input   66.30 | X-H torsion
[ 10763 10752 10751 10750 ] final  135.42 input  -60.55 | X-H torsion
[ 11005 11000 10999 10996 ] final   10.27 input  -57.11 | X-H torsion

> <Gold.Protein.ActiveResidues>
 VAL166  LYS551  ARG553  GLY616  TRP617  ASP618  TYR619  PRO620  LYS621  CYS622 
 ASP623  PHE694  ASN695  SER759  ASP760  ASP761  ALA762  ILE779  LEU786  VAL792 
 PHE793  MET794  SER795  GLU796  ALA797  LYS798  CYS799  TRP800  GLU811  SER814 

> <Gold.Protein.RotatedAtoms>
  151.9759  135.0053  160.0554 H   0  0  0  0  0  0  0  0  0  0  0  0  # atno 6907 bound_to 6896
  152.1740  133.4658  159.4932 H   0  0  0  0  0  0  0  0  0  0  0  0  # atno 6908 bound_to 6896
  150.6906  134.1834  159.4300 H   0  0  0  0  0  0  0  0  0  0  0  0  # atno 6909 bound_to 6896
  144.7223  140.2517  143.6277 H   0  0  0  0  0  0  0  0  0  0  0  0  # atno 7974 bound_to 7965
  154.5491  140.0729  156.8639 H   0  0  0  0  0  0  0  0  0  0  0  0  # atno 8008 bound_to 7997
  155.3028  140.3385  155.4229 H   0  0  0  0  0  0  0  0  0  0  0  0  # atno 8009 bound_to 7997
  156.1945  140.1698  156.8011 H   0  0  0  0  0  0  0  0  0  0  0  0  # atno 8010 bound_to 7997
  139.8203  143.7583  152.2666 H   0  0  0  0  0  0  0  0  0  0  0  0  # atno 10167 bound_to 10162
  156.3240  130.7549  151.1653 H   0  0  0  0  0  0  0  0  0  0  0  0  # atno 10718 bound_to 10713
  153.8397  135.3093  155.3425 H   0  0  0  0  0  0  0  0  0  0  0  0  # atno 10763 bound_to 10752
  154.7938  135.4767  154.0116 H   0  0  0  0  0  0  0  0  0  0  0  0  # atno 10764 bound_to 10752
  153.1583  135.6856  153.8871 H   0  0  0  0  0  0  0  0  0  0  0  0  # atno 10765 bound_to 10752
  140.5163  134.0602  155.7832 H   0  0  0  0  0  0  0  0  0  0  0  0  # atno 11005 bound_to 11000
  145.8222  139.2048  143.1931 LP  0  0  0  0  0  0  0  0  0  0  0  0  # atno 17320 bound_to 7965
  146.0504  140.8075  142.9784 LP  0  0  0  0  0  0  0  0  0  0  0  0  # atno 17321 bound_to 7965
  139.7759  144.7461  151.0158 LP  0  0  0  0  0  0  0  0  0  0  0  0  # atno 17342 bound_to 10162
  140.7813  143.4594  151.0299 LP  0  0  0  0  0  0  0  0  0  0  0  0  # atno 17343 bound_to 10162
  157.7417  131.0500  150.5075 LP  0  0  0  0  0  0  0  0  0  0  0  0  # atno 17370 bound_to 10713
  156.5231  130.4167  149.6240 LP  0  0  0  0  0  0  0  0  0  0  0  0  # atno 17371 bound_to 10713
  141.1358  133.9224  157.2436 LP  0  0  0  0  0  0  0  0  0  0  0  0  # atno 17394 bound_to 11000
  139.9630  135.0149  156.9313 LP  0  0  0  0  0  0  0  0  0  0  0  0  # atno 17395 bound_to 11000

$$$$
