AV-unprocessed.smi:215|AV-procd|sdf|1653|dock8
  -GOLD-   2262020 43D 1   1.00000     0.00000
 Structure written by MMmdl.
 59 62  0  0  0  0  0  0  0  0  2 V2000
  151.3099  142.9467  161.8022 C   0  0  0  0  0  0  0  0  0  0  0  0
  152.0080  141.9716  160.8245 C   0  0  1  0  0  0  0  0  0  0  0  0
  153.1034  142.6313  159.9595 C   0  0  1  0  0  0  0  0  0  0  0  0
  152.7184  143.9416  159.3539 N   0  3  2  0  0  0  0  0  0  0  0  0
  152.0290  143.7668  158.0491 C   0  0  0  0  0  0  0  0  0  0  0  0
  153.8408  144.9168  159.2522 C   0  0  0  0  0  0  0  0  0  0  0  0
  153.3788  146.2934  158.7427 C   0  0  0  0  0  0  0  0  0  0  0  0
  152.3571  146.8009  159.5753 O   0  0  0  0  0  0  0  0  0  0  0  0
  154.2990  142.6626  160.9284 C   0  0  0  0  0  0  0  0  0  0  0  0
  154.1218  141.4003  161.7826 C   0  0  0  0  0  0  0  0  0  0  0  0
  152.7531  140.9519  161.5494 N   0  0  0  0  0  0  0  0  0  0  0  0
  152.1798  139.9711  162.2991 C   0  0  0  0  0  0  0  0  0  0  0  0
  151.1001  139.3234  161.7863 N   0  0  0  0  0  0  0  0  0  0  0  0
  150.4963  138.3515  162.4747 C   0  0  0  0  0  0  0  0  0  0  0  0
  150.7995  137.8749  163.6819 N   0  0  0  0  0  0  0  0  0  0  0  0
  151.8746  138.5230  164.2143 C   0  0  0  0  0  0  0  0  0  0  0  0
  152.6156  139.5756  163.6004 C   0  0  0  0  0  0  0  0  0  0  0  0
  153.6280  139.9890  164.4600 N   0  0  0  0  0  0  0  0  0  0  0  0
  153.4976  139.2265  165.5099 C   0  0  0  0  0  0  0  0  0  0  0  0
  152.4740  138.3098  165.4444 N   0  0  0  0  0  0  0  0  0  0  0  0
  152.1049  137.3621  166.4577 C   0  0  0  0  0  0  0  0  0  0  0  0
  150.7979  137.5175  167.2354 C   0  0  0  0  0  0  0  0  0  0  0  0
  151.4734  136.8964  168.4789 C   0  0  0  0  0  0  0  0  0  0  0  0
  151.1341  137.5774  169.8152 C   0  0  0  0  0  0  0  0  0  0  0  0
  149.8081  137.2922  170.2125 O   0  0  0  0  0  0  0  0  0  0  0  0
  151.2956  135.3719  168.6284 C   0  0  0  0  0  0  0  0  0  0  0  0
  149.9550  135.0338  168.9226 O   0  0  0  0  0  0  0  0  0  0  0  0
  152.7996  137.3431  167.8209 C   0  0  0  0  0  0  0  0  0  0  0  0
  151.2732  141.5083  160.1678 H   0  0  0  0  0  0  0  0  0  0  0  0
  153.3558  141.9478  159.1457 H   0  0  0  0  0  0  0  0  0  0  0  0
  150.7612  143.7262  161.2749 H   0  0  0  0  0  0  0  0  0  0  0  0
  152.0209  143.4374  162.4669 H   0  0  0  0  0  0  0  0  0  0  0  0
  150.5880  142.4260  162.4315 H   0  0  0  0  0  0  0  0  0  0  0  0
  152.6952  143.3087  157.3170 H   0  0  0  0  0  0  0  0  0  0  0  0
  151.6870  144.7174  157.6429 H   0  0  0  0  0  0  0  0  0  0  0  0
  151.1468  143.1341  158.1373 H   0  0  0  0  0  0  0  0  0  0  0  0
  154.3261  145.0779  160.2129 H   0  0  0  0  0  0  0  0  0  0  0  0
  154.6127  144.5111  158.5965 H   0  0  0  0  0  0  0  0  0  0  0  0
  154.2132  146.9949  158.7632 H   0  0  0  0  0  0  0  0  0  0  0  0
  153.0276  146.2586  157.7124 H   0  0  0  0  0  0  0  0  0  0  0  0
  151.8876  147.4736  159.1054 H   0  0  0  0  0  0  0  0  0  0  0  0
  155.2628  142.6643  160.4188 H   0  0  0  0  0  0  0  0  0  0  0  0
  154.2538  143.5476  161.5647 H   0  0  0  0  0  0  0  0  0  0  0  0
  154.8130  140.6191  161.4641 H   0  0  0  0  0  0  0  0  0  0  0  0
  154.3047  141.6116  162.8371 H   0  0  0  0  0  0  0  0  0  0  0  0
  149.6498  137.8892  161.9881 H   0  0  0  0  0  0  0  0  0  0  0  0
  154.1486  139.3159  166.3676 H   0  0  0  0  0  0  0  0  0  0  0  0
  152.1573  136.3722  166.0016 H   0  0  0  0  0  0  0  0  0  0  0  0
  150.5173  138.5624  167.3812 H   0  0  0  0  0  0  0  0  0  0  0  0
  149.9628  136.9435  166.8325 H   0  0  0  0  0  0  0  0  0  0  0  0
  151.8166  137.2710  170.6083 H   0  0  0  0  0  0  0  0  0  0  0  0
  151.2297  138.6604  169.7327 H   0  0  0  0  0  0  0  0  0  0  0  0
  149.8070  136.4778  170.6919 H   0  0  0  0  0  0  0  0  0  0  0  0
  151.6000  134.8437  167.7246 H   0  0  0  0  0  0  0  0  0  0  0  0
  151.9203  134.9792  169.4309 H   0  0  0  0  0  0  0  0  0  0  0  0
  149.7586  134.2043  168.5146 H   0  0  0  0  0  0  0  0  0  0  0  0
  153.6176  136.6260  167.8957 H   0  0  0  0  0  0  0  0  0  0  0  0
  153.1232  138.3325  168.1483 H   0  0  0  0  0  0  0  0  0  0  0  0
  152.0502  144.3533  159.9904 H   0  0  0  0  0  0  0  0  0  0  0  0
  1  2  1  0  0  0  0
  1 31  1  0  0  0  0
  1 32  1  0  0  0  0
  1 33  1  0  0  0  0
  2 29  1  0  0  0  0
  2 11  1  0  0  0  0
  2  3  1  0  0  0  0
  3 30  1  0  0  0  0
  3  4  1  0  0  0  0
  3  9  1  0  0  0  0
  4  5  1  0  0  0  0
  4  6  1  0  0  0  0
  4 59  1  0  0  0  0
  5 34  1  0  0  0  0
  5 35  1  0  0  0  0
  5 36  1  0  0  0  0
  6  7  1  0  0  0  0
  6 37  1  0  0  0  0
  6 38  1  0  0  0  0
  7  8  1  0  0  0  0
  7 39  1  0  0  0  0
  7 40  1  0  0  0  0
  8 41  1  0  0  0  0
  9 10  1  0  0  0  0
  9 42  1  0  0  0  0
  9 43  1  0  0  0  0
 10 11  1  0  0  0  0
 10 44  1  0  0  0  0
 10 45  1  0  0  0  0
 11 12  1  0  0  0  0
 12 17  1  0  0  0  0
 12 13  2  0  0  0  0
 13 14  1  0  0  0  0
 14 15  2  0  0  0  0
 14 46  1  0  0  0  0
 15 16  1  0  0  0  0
 16 20  1  0  0  0  0
 16 17  2  0  0  0  0
 17 18  1  0  0  0  0
 18 19  2  0  0  0  0
 19 20  1  0  0  0  0
 19 47  1  0  0  0  0
 20 21  1  0  0  0  0
 21 28  1  0  0  0  0
 21 22  1  0  0  0  0
 21 48  1  0  0  0  0
 22 23  1  0  0  0  0
 22 49  1  0  0  0  0
 22 50  1  0  0  0  0
 23 24  1  0  0  0  0
 23 26  1  0  0  0  0
 23 28  1  0  0  0  0
 24 25  1  0  0  0  0
 24 51  1  0  0  0  0
 24 52  1  0  0  0  0
 25 53  1  0  0  0  0
 26 27  1  0  0  0  0
 26 54  1  0  0  0  0
 26 55  1  0  0  0  0
 27 56  1  0  0  0  0
 28 57  1  0  0  0  0
 28 58  1  0  0  0  0
M  CHG  1   4   1
M  END
> <s_m_source_file>
AV-unprocessed.smi

> <i_m_source_file_index>
215

> <i_lp_mmshare_version>
43012

> <i_f3d_flags>
0

> <s_epik_input>
W09IXVtDSDJdW0NIMl1OKFtDSDNdKVtDQEBIXShbQ0BIXTFbQ0gzXSlbQ0gyXVtDSDJdTjFjKG5bY0hdbjIpYyhjMjMpbltjSF1uM1tDSF0oW0NIMl00KVtDSDJdQzQoW0NIMl1bT0hdKVtDSDJdW09IXQ==

> <s_epik_cmdline>
J2VwaWtfcHl0aG9uJywgJy1waCcsICc3LjAnLCAnLXRuJywgJzgnLCAnLW1hJywgJzIwMCcsICctbWV0YWxfYmluZGluZycsICctaW1hZScsICc8aW5maWxlLm1hZT4nLCAnLW9tYWUnLCAnPG91dGZpbGUubWFlPic=

> <r_lp_tautomer_probability>
1

> <r_epik_Ionization_Penalty>
0.0036237

> <r_epik_Ionization_Penalty_Charging>
0.0032725

> <r_epik_Ionization_Penalty_Neutral>
0.000351196

> <r_epik_State_Penalty>
-0

> <r_epik_Charging_Adjusted_Penalty>
0.0032725

> <i_epik_Tot_Q>
1

> <i_epik_Tot_abs_Q>
1

> <r_epik_Metal_State_Penalty>
-0

> <b_epik_Metal_Only>
0

> <s_lp_Force_Field>
OPLS_2005

> <r_lp_Energy>
66.6502

> <b_lp_Chiralities_Consistent>
1

> <s_lp_Variant>
AV-unprocessed.smi:215-4

> <Gold.Version>
5.8.1

> <Gold.Id.Protein>
6NUR|6NUR_protein|mol2

> <Gold.PLP.Fitness>
49.7975

> <Gold.PLP.PLP>
-46.0137

> <Gold.PLP.part.hbond>
-2.0000

> <Gold.PLP.part.metal>
0.0000

> <Gold.PLP.part.buried>
-6.0973

> <Gold.PLP.part.nonpolar>
-38.8186

> <Gold.PLP.part.repulsive>
0.0324

> <Gold.PLP.ligand.clash>
0.0000

> <Gold.PLP.ligand.torsion>
1.4729

> <Gold.PLP.Chemscore.Hbond>
2.0000

> <Gold.PLP.Chemscore.CHOScore>
0.0000

> <Gold.PLP.Chemscore.Metal>
0.0000

> <Gold.PLP.Chemscore.Internal.Correction>
0.7296

> <Gold.Rescore>
     Score         DG    S(hbond)    S(metal)    S(lipo)     H(rot)  DE(clash)    DE(int)     intcor
     11.60     -12.67       1.79        0.00     108.50       4.48       0.02       1.05       ----

> <Gold.Chemscore.Fitness>
11.5967

> <Gold.Chemscore.DG>
-12.6715

> <Gold.Chemscore.ZeroCoef>
-5.4800

> <Gold.Chemscore.Hbond>
1.7853

> <Gold.Chemscore.Metal>
0.0000

> <Gold.Chemscore.Lipo>
108.4959

> <Gold.Chemscore.Internal_Hbond>
0.0000

> <Gold.Chemscore.DEClash>
0.0202

> <Gold.Chemscore.DEInternal>
1.0546

> <Gold.Chemscore.Rot>
4.4787

> <Gold.Chemscore.Internal.Correction>
   9.000000E+99

> <Gold.Chemscore.Hbond.Weighted>
-5.9630

> <Gold.Chemscore.Metal.Weighted>
-0.0000

> <Gold.Chemscore.Lipo.Weighted>
-12.6940

> <Gold.Chemscore.Internal_Hbond.Weighted>
0.0000

> <Gold.Chemscore.DEClash.Weighted>
0.0202

> <Gold.Chemscore.DEInternal.Weighted>
1.0546

> <Gold.Chemscore.Rot.Weighted>
11.4655

> <Gold.Chemscore.Internal.Correction.Weighted>
   9.000000E+99

> <Gold.Protein.RotatedTorsions>
[ 6907 6896 6895 6894 ] final  167.29 input  -60.11 | X-H torsion
[ 7974 7965 7964 7962 ] final  -11.58 input  175.53 | X-H torsion
[ 8008 7997 7996 7995 ] final -130.81 input   59.86 | X-H torsion
[ 10167 10162 10161 10158 ] final   -7.64 input  -65.29 | X-H torsion
[ 10718 10713 10712 10709 ] final  179.19 input   66.30 | X-H torsion
[ 10763 10752 10751 10750 ] final   18.40 input  -60.55 | X-H torsion
[ 11005 11000 10999 10996 ] final   67.12 input  -57.11 | X-H torsion

> <Gold.Protein.ActiveResidues>
 VAL166  LYS551  ARG553  GLY616  TRP617  ASP618  TYR619  PRO620  LYS621  CYS622 
 ASP623  PHE694  ASN695  SER759  ASP760  ASP761  ALA762  ILE779  LEU786  VAL792 
 PHE793  MET794  SER795  GLU796  ALA797  LYS798  CYS799  TRP800  GLU811  SER814 

> <Gold.Protein.RotatedAtoms>
  151.8656  133.3465  159.3717 H   0  0  0  0  0  0  0  0  0  0  0  0  # atno 6907 bound_to 6896
  150.7167  134.5163  159.5641 H   0  0  0  0  0  0  0  0  0  0  0  0  # atno 6908 bound_to 6896
  152.2685  134.7958  160.0469 H   0  0  0  0  0  0  0  0  0  0  0  0  # atno 6909 bound_to 6896
  146.2182  140.2931  142.8370 H   0  0  0  0  0  0  0  0  0  0  0  0  # atno 7974 bound_to 7965
  155.3020  140.0453  157.3030 H   0  0  0  0  0  0  0  0  0  0  0  0  # atno 8008 bound_to 7997
  154.5481  140.2309  155.8496 H   0  0  0  0  0  0  0  0  0  0  0  0  # atno 8009 bound_to 7997
  156.1942  140.3042  155.9401 H   0  0  0  0  0  0  0  0  0  0  0  0  # atno 8010 bound_to 7997
  140.7035  143.6058  150.8753 H   0  0  0  0  0  0  0  0  0  0  0  0  # atno 10167 bound_to 10162
  156.8794  130.9810  151.3064 H   0  0  0  0  0  0  0  0  0  0  0  0  # atno 10718 bound_to 10713
  153.1253  135.6728  153.9268 H   0  0  0  0  0  0  0  0  0  0  0  0  # atno 10763 bound_to 10752
  153.8771  135.3062  155.3445 H   0  0  0  0  0  0  0  0  0  0  0  0  # atno 10764 bound_to 10752
  154.7659  135.4964  153.9633 H   0  0  0  0  0  0  0  0  0  0  0  0  # atno 10765 bound_to 10752
  139.9790  134.6775  156.0298 H   0  0  0  0  0  0  0  0  0  0  0  0  # atno 11005 bound_to 11000
  144.9112  140.7759  143.5806 LP  0  0  0  0  0  0  0  0  0  0  0  0  # atno 17320 bound_to 7965
  145.2862  139.1900  143.4764 LP  0  0  0  0  0  0  0  0  0  0  0  0  # atno 17321 bound_to 7965
  139.9781  143.5981  152.2952 LP  0  0  0  0  0  0  0  0  0  0  0  0  # atno 17342 bound_to 10162
  139.6592  144.7662  151.1995 LP  0  0  0  0  0  0  0  0  0  0  0  0  # atno 17343 bound_to 10162
  157.6149  130.8611  149.9012 LP  0  0  0  0  0  0  0  0  0  0  0  0  # atno 17370 bound_to 10713
  156.0685  130.3688  150.0826 LP  0  0  0  0  0  0  0  0  0  0  0  0  # atno 17371 bound_to 10713
  141.1464  133.6555  156.3881 LP  0  0  0  0  0  0  0  0  0  0  0  0  # atno 17394 bound_to 11000
  140.5135  134.6372  157.5293 LP  0  0  0  0  0  0  0  0  0  0  0  0  # atno 17395 bound_to 11000

$$$$
