AV-unprocessed.smi:1135|AV-procd|sdf|4858|dock1
  -GOLD-   22720 3433D 1   1.00000     0.00000
 Structure written by MMmdl.
 45 46  0  0  0  0  0  0  0  0  1 V2000
  137.0374  137.0018  155.7534 C   0  0  0  0  0  0  0  0  0  0  0  0
  138.4111  137.1217  155.0787 C   0  0  2  0  0  0  0  0  0  0  0  0
  139.4213  137.8421  155.9865 C   0  0  0  0  0  0  0  0  0  0  0  0
  140.7985  137.9753  155.3129 C   0  0  0  0  0  0  0  0  0  0  0  0
  140.7558  138.6648  153.9254 C   0  0  1  0  0  0  0  0  0  0  0  0
  140.4720  140.1781  154.0866 C   0  0  0  0  0  0  0  0  0  0  0  0
  142.0883  138.4692  153.3377 N   0  0  0  0  0  0  0  0  0  0  0  0
  142.7570  137.3193  153.1473 C   0  0  0  0  0  0  0  0  0  0  0  0
  142.3339  136.2035  153.4498 O   0  0  0  0  0  0  0  0  0  0  0  0
  143.9508  137.5340  152.5776 N   0  0  0  0  0  0  0  0  0  0  0  0
  144.9036  136.4898  152.2191 C   0  0  0  0  0  0  0  0  0  0  0  0
  144.5530  135.8492  150.8659 C   0  0  0  0  0  0  0  0  0  0  0  0
  144.7727  134.3481  150.8644 C   0  0  0  0  0  0  0  0  0  0  0  0
  143.6980  133.4634  151.0973 C   0  0  0  0  0  0  0  0  0  0  0  0
  143.9549  132.0787  151.0886 C   0  0  0  0  0  0  0  0  0  0  0  0
  145.2698  131.6343  150.8509 C   0  0  0  0  0  0  0  0  0  0  0  0
  146.2736  132.5987  150.6316 C   0  0  0  0  0  0  0  0  0  0  0  0
  146.0378  133.9288  150.6358 N   0  0  0  0  0  0  0  0  0  0  0  0
  139.6854  137.9696  153.0403 C   0  0  0  0  0  0  0  0  0  0  0  0
  138.3125  137.8413  153.7234 C   0  0  0  0  0  0  0  0  0  0  0  0
  136.6115  137.9838  155.9619 H   0  0  0  0  0  0  0  0  0  0  0  0
  137.1103  136.4631  156.6986 H   0  0  0  0  0  0  0  0  0  0  0  0
  136.3334  136.4615  155.1200 H   0  0  0  0  0  0  0  0  0  0  0  0
  138.7794  136.1106  154.8982 H   0  0  0  0  0  0  0  0  0  0  0  0
  139.0420  138.8276  156.2578 H   0  0  0  0  0  0  0  0  0  0  0  0
  139.5310  137.2941  156.9231 H   0  0  0  0  0  0  0  0  0  0  0  0
  141.4785  138.5100  155.9775 H   0  0  0  0  0  0  0  0  0  0  0  0
  141.2159  136.9724  155.2056 H   0  0  0  0  0  0  0  0  0  0  0  0
  139.5286  140.3653  154.5976 H   0  0  0  0  0  0  0  0  0  0  0  0
  140.4102  140.6872  153.1250 H   0  0  0  0  0  0  0  0  0  0  0  0
  141.2555  140.6669  154.6665 H   0  0  0  0  0  0  0  0  0  0  0  0
  142.5551  139.3141  153.0418 H   0  0  0  0  0  0  0  0  0  0  0  0
  144.2157  138.4852  152.3673 H   0  0  0  0  0  0  0  0  0  0  0  0
  145.8958  136.9396  152.1732 H   0  0  0  0  0  0  0  0  0  0  0  0
  144.9426  135.7307  153.0023 H   0  0  0  0  0  0  0  0  0  0  0  0
  143.5127  136.0554  150.6105 H   0  0  0  0  0  0  0  0  0  0  0  0
  145.1567  136.2953  150.0742 H   0  0  0  0  0  0  0  0  0  0  0  0
  142.7002  133.8354  151.2792 H   0  0  0  0  0  0  0  0  0  0  0  0
  143.1581  131.3707  151.2624 H   0  0  0  0  0  0  0  0  0  0  0  0
  145.5035  130.5800  150.8385 H   0  0  0  0  0  0  0  0  0  0  0  0
  147.2932  132.2935  150.4488 H   0  0  0  0  0  0  0  0  0  0  0  0
  139.5620  138.5012  152.0965 H   0  0  0  0  0  0  0  0  0  0  0  0
  140.0300  136.9682  152.7770 H   0  0  0  0  0  0  0  0  0  0  0  0
  137.6335  137.2982  153.0655 H   0  0  0  0  0  0  0  0  0  0  0  0
  137.8743  138.8304  153.8587 H   0  0  0  0  0  0  0  0  0  0  0  0
  1  2  1  0  0  0  0
  1 21  1  0  0  0  0
  1 22  1  0  0  0  0
  1 23  1  0  0  0  0
  2 20  1  0  0  0  0
  2  3  1  0  0  0  0
  2 24  1  0  0  0  0
  3  4  1  0  0  0  0
  3 25  1  0  0  0  0
  3 26  1  0  0  0  0
  4  5  1  0  0  0  0
  4 27  1  0  0  0  0
  4 28  1  0  0  0  0
  5  6  1  0  0  0  0
  5  7  1  0  0  0  0
  5 19  1  0  0  0  0
  6 29  1  0  0  0  0
  6 30  1  0  0  0  0
  6 31  1  0  0  0  0
  7  8  1  0  0  0  0
  7 32  1  0  0  0  0
  8  9  2  0  0  0  0
  8 10  1  0  0  0  0
 10 11  1  0  0  0  0
 10 33  1  0  0  0  0
 11 12  1  0  0  0  0
 11 34  1  0  0  0  0
 11 35  1  0  0  0  0
 12 13  1  0  0  0  0
 12 36  1  0  0  0  0
 12 37  1  0  0  0  0
 13 18  1  0  0  0  0
 13 14  2  0  0  0  0
 14 15  1  0  0  0  0
 14 38  1  0  0  0  0
 15 16  2  0  0  0  0
 15 39  1  0  0  0  0
 16 17  1  0  0  0  0
 16 40  1  0  0  0  0
 17 18  2  0  0  0  0
 17 41  1  0  0  0  0
 19 20  1  0  0  0  0
 19 42  1  0  0  0  0
 19 43  1  0  0  0  0
 20 44  1  0  0  0  0
 20 45  1  0  0  0  0
M  END
> <s_m_source_file>
AV-unprocessed.smi

> <i_m_source_file_index>
1135

> <i_lp_mmshare_version>
43012

> <i_f3d_flags>
0

> <s_epik_input>
W0NIMl0xW0NIMl1bQ0BIXShbQ0gzXSlbQ0gyXVtDSDJdW0NAQF0xKFtDSDNdKVtOSF1DKD1PKVtOSF1bQ0gyXVtDSDJdYzJbY0hdW2NIXVtjSF1bY0hdbjI=

> <s_epik_cmdline>
J2VwaWtfcHl0aG9uJywgJy1waCcsICc3LjAnLCAnLXRuJywgJzgnLCAnLW1hJywgJzIwMCcsICctbWV0YWxfYmluZGluZycsICctaW1hZScsICc8aW5maWxlLm1hZT4nLCAnLW9tYWUnLCAnPG91dGZpbGUubWFlPic=

> <r_epik_Ionization_Penalty>
0.0448679

> <r_epik_Ionization_Penalty_Charging>
0

> <r_epik_Ionization_Penalty_Neutral>
0.0448679

> <r_epik_State_Penalty>
0.0379931

> <r_epik_Charging_Adjusted_Penalty>
0.0379931

> <i_epik_Tot_Q>
0

> <i_epik_Tot_abs_Q>
0

> <r_epik_Metal_State_Penalty>
0.0353093

> <b_epik_Metal_Only>
0

> <s_lp_Force_Field>
OPLS_2005

> <r_lp_Energy>
8.69074

> <b_lp_Chiralities_Consistent>
1

> <s_lp_Variant>
AV-unprocessed.smi:1135-1

> <Gold.Version>
5.8.1

> <Gold.Id.Protein>
6NUR|6NUR_protein|mol2

> <Gold.PLP.Fitness>
43.8210

> <Gold.PLP.PLP>
-36.6831

> <Gold.PLP.part.hbond>
-3.0000

> <Gold.PLP.part.metal>
0.0000

> <Gold.PLP.part.buried>
-4.7103

> <Gold.PLP.part.nonpolar>
-30.3799

> <Gold.PLP.part.repulsive>
0.5713

> <Gold.PLP.ligand.clash>
0.0000

> <Gold.PLP.ligand.torsion>
0.8000

> <Gold.PLP.Chemscore.Hbond>
1.9040

> <Gold.PLP.Chemscore.CHOScore>
1.0000

> <Gold.PLP.Chemscore.Metal>
0.0000

> <Gold.Chemscore.Hbonds>
donor molecule, donor type, donor heavy atom, donor atom, acceptor molecule, acceptor atom, score
      L1  H     7    32       P1 10175  1.00
      L1  H    10    33       P1 10175  0.90
      L1  C    17    41       P1 10747  1.00

> <Gold.PLP.Chemscore.Internal.Correction>
0.0258

> <Gold.Rescore>
     Score         DG    S(hbond)    S(metal)    S(lipo)     H(rot)  DE(clash)    DE(int)     intcor
     17.66     -19.56       1.91        0.00      96.79       1.42       0.19       1.71       ----

> <Gold.Chemscore.Fitness>
17.6603

> <Gold.Chemscore.DG>
-19.5614

> <Gold.Chemscore.ZeroCoef>
-5.4800

> <Gold.Chemscore.Hbond>
1.9149

> <Gold.Chemscore.Metal>
0.0000

> <Gold.Chemscore.Lipo>
96.7876

> <Gold.Chemscore.Internal_Hbond>
0.0000

> <Gold.Chemscore.DEClash>
0.1949

> <Gold.Chemscore.DEInternal>
1.7062

> <Gold.Chemscore.Rot>
1.4213

> <Gold.Chemscore.Internal.Correction>
   9.000000E+99

> <Gold.Chemscore.Hbonds>
donor molecule, donor type, donor heavy atom, donor atom, acceptor molecule, acceptor atom, score
      L1  H     7    32       P1 10175  0.99
      L1  H    10    33       P1 10175  0.81

> <Gold.Chemscore.Hbond.Weighted>
-6.3957

> <Gold.Chemscore.Metal.Weighted>
-0.0000

> <Gold.Chemscore.Lipo.Weighted>
-11.3242

> <Gold.Chemscore.Internal_Hbond.Weighted>
0.0000

> <Gold.Chemscore.DEClash.Weighted>
0.1949

> <Gold.Chemscore.DEInternal.Weighted>
1.7062

> <Gold.Chemscore.Rot.Weighted>
3.6385

> <Gold.Chemscore.Internal.Correction.Weighted>
   9.000000E+99

> <Gold.Protein.RotatedTorsions>
[ 6907 6896 6895 6894 ] final   53.84 input  -60.11 | X-H torsion
[ 7974 7965 7964 7962 ] final   -5.45 input  175.53 | X-H torsion
[ 8008 7997 7996 7995 ] final  -91.50 input   59.86 | X-H torsion
[ 10167 10162 10161 10158 ] final  -14.22 input  -65.29 | X-H torsion
[ 10718 10713 10712 10709 ] final   22.19 input   66.30 | X-H torsion
[ 10763 10752 10751 10750 ] final   -9.02 input  -60.55 | X-H torsion
[ 11005 11000 10999 10996 ] final   98.81 input  -57.11 | X-H torsion

> <Gold.Protein.ActiveResidues>
 VAL166  LYS551  ARG553  GLY616  TRP617  ASP618  TYR619  PRO620  LYS621  CYS622 
 ASP623  PHE694  ASN695  SER759  ASP760  ASP761  ALA762  ILE779  LEU786  VAL792 
 PHE793  MET794  SER795  GLU796  ALA797  LYS798  CYS799  TRP800  GLU811  SER814 

> <Gold.Protein.RotatedAtoms>
  152.3378  134.7175  160.0271 H   0  0  0  0  0  0  0  0  0  0  0  0  # atno 6907 bound_to 6896
  151.7570  133.3326  159.3415 H   0  0  0  0  0  0  0  0  0  0  0  0  # atno 6908 bound_to 6896
  150.7461  134.6072  159.6112 H   0  0  0  0  0  0  0  0  0  0  0  0  # atno 6909 bound_to 6896
  146.2352  140.2023  142.8334 H   0  0  0  0  0  0  0  0  0  0  0  0  # atno 7974 bound_to 7965
  154.7115  140.0519  157.0554 H   0  0  0  0  0  0  0  0  0  0  0  0  # atno 8008 bound_to 7997
  155.0548  140.3183  155.4661 H   0  0  0  0  0  0  0  0  0  0  0  0  # atno 8009 bound_to 7997
  156.2790  140.2109  156.5675 H   0  0  0  0  0  0  0  0  0  0  0  0  # atno 8010 bound_to 7997
  140.7197  143.5344  150.9482 H   0  0  0  0  0  0  0  0  0  0  0  0  # atno 10167 bound_to 10162
  157.1489  130.6666  149.6005 H   0  0  0  0  0  0  0  0  0  0  0  0  # atno 10718 bound_to 10713
  153.4487  135.7015  153.6122 H   0  0  0  0  0  0  0  0  0  0  0  0  # atno 10763 bound_to 10752
  153.4466  135.3767  155.2260 H   0  0  0  0  0  0  0  0  0  0  0  0  # atno 10764 bound_to 10752
  154.8728  135.3987  154.3896 H   0  0  0  0  0  0  0  0  0  0  0  0  # atno 10765 bound_to 10752
  139.8771  134.9066  156.4512 H   0  0  0  0  0  0  0  0  0  0  0  0  # atno 11005 bound_to 11000
  144.9772  140.8425  143.5419 LP  0  0  0  0  0  0  0  0  0  0  0  0  # atno 17320 bound_to 7965
  145.2012  139.2251  143.5192 LP  0  0  0  0  0  0  0  0  0  0  0  0  # atno 17321 bound_to 7965
  139.9065  143.6772  152.3122 LP  0  0  0  0  0  0  0  0  0  0  0  0  # atno 17342 bound_to 10162
  139.7140  144.7615  151.1065 LP  0  0  0  0  0  0  0  0  0  0  0  0  # atno 17343 bound_to 10162
  155.9774  130.4751  150.6592 LP  0  0  0  0  0  0  0  0  0  0  0  0  # atno 17370 bound_to 10713
  157.4238  131.0840  151.1105 LP  0  0  0  0  0  0  0  0  0  0  0  0  # atno 17371 bound_to 10713
  140.8931  133.7834  155.9594 LP  0  0  0  0  0  0  0  0  0  0  0  0  # atno 17394 bound_to 11000
  140.8732  134.2701  157.5180 LP  0  0  0  0  0  0  0  0  0  0  0  0  # atno 17395 bound_to 11000

$$$$
