AV-unprocessed.smi:2364|AV-procd|sdf|9418|dock1
  -GOLD-   2272013 53D 1   1.00000     0.00000
 Structure written by MMmdl.
 46 47  0  0  0  0  0  0  0  0  1 V2000
  151.4804  138.4795  155.0147 C   0  0  0  0  0  0  0  0  0  0  0  0
  151.4591  139.6990  155.9538 C   0  0  0  0  0  0  0  0  0  0  0  0
  150.0547  140.2736  156.2961 C   0  0  2  0  0  0  0  0  0  0  0  0
  149.4303  140.8910  155.0252 C   0  0  0  0  0  0  0  0  0  0  0  0
  150.2145  141.3748  157.3793 C   0  0  0  0  0  0  0  0  0  0  0  0
  150.8273  142.5444  156.8714 O   0  0  0  0  0  0  0  0  0  0  0  0
  149.1472  139.2149  156.7646 N   0  0  0  0  0  0  0  0  0  0  0  0
  149.1550  138.5670  157.9423 C   0  0  0  0  0  0  0  0  0  0  0  0
  149.9774  138.7712  158.8357 O   0  0  0  0  0  0  0  0  0  0  0  0
  148.1516  137.6743  158.0049 N   0  0  0  0  0  0  0  0  0  0  0  0
  147.8299  136.7869  159.0650 C   0  0  0  0  0  0  0  0  0  0  0  0
  148.0175  135.4479  158.8919 N   0  0  0  0  0  0  0  0  0  0  0  0
  147.6149  135.0241  160.0828 C   0  0  0  0  0  0  0  0  0  0  0  0
  147.1826  135.9942  160.8991 N   0  0  0  0  0  0  0  0  0  0  0  0
  146.7521  135.9486  162.3001 C   0  0  0  0  0  0  0  0  0  0  0  0
  146.9419  134.5480  162.9285 C   0  0  0  0  0  0  0  0  0  0  0  0
  145.9900  133.5053  162.3129 C   0  0  0  0  0  0  0  0  0  0  0  0
  144.5234  133.9464  162.4500 C   0  0  0  0  0  0  0  0  0  0  0  0
  144.2989  135.3533  161.8709 C   0  0  0  0  0  0  0  0  0  0  0  0
  145.2739  136.3711  162.4922 C   0  0  0  0  0  0  0  0  0  0  0  0
  147.3634  137.1740  160.2533 N   0  0  0  0  0  0  0  0  0  0  0  0
  152.5041  138.1386  154.8598 H   0  0  0  0  0  0  0  0  0  0  0  0
  151.0678  138.7138  154.0340 H   0  0  0  0  0  0  0  0  0  0  0  0
  150.9196  137.6401  155.4254 H   0  0  0  0  0  0  0  0  0  0  0  0
  151.9783  139.4249  156.8723 H   0  0  0  0  0  0  0  0  0  0  0  0
  152.0689  140.4872  155.5102 H   0  0  0  0  0  0  0  0  0  0  0  0
  150.0622  141.6797  154.6159 H   0  0  0  0  0  0  0  0  0  0  0  0
  148.4523  141.3290  155.2265 H   0  0  0  0  0  0  0  0  0  0  0  0
  149.2829  140.1483  154.2417 H   0  0  0  0  0  0  0  0  0  0  0  0
  149.2547  141.6496  157.8165 H   0  0  0  0  0  0  0  0  0  0  0  0
  150.8274  141.0049  158.2018 H   0  0  0  0  0  0  0  0  0  0  0  0
  150.1770  143.0431  156.4008 H   0  0  0  0  0  0  0  0  0  0  0  0
  148.4175  138.9596  156.1156 H   0  0  0  0  0  0  0  0  0  0  0  0
  147.5475  137.6205  157.1984 H   0  0  0  0  0  0  0  0  0  0  0  0
  147.6393  133.9806  160.3584 H   0  0  0  0  0  0  0  0  0  0  0  0
  147.3836  136.6557  162.8393 H   0  0  0  0  0  0  0  0  0  0  0  0
  147.9759  134.2161  162.8370 H   0  0  0  0  0  0  0  0  0  0  0  0
  146.7514  134.6105  164.0008 H   0  0  0  0  0  0  0  0  0  0  0  0
  146.2298  133.3538  161.2601 H   0  0  0  0  0  0  0  0  0  0  0  0
  146.1320  132.5409  162.8008 H   0  0  0  0  0  0  0  0  0  0  0  0
  143.8705  133.2297  161.9514 H   0  0  0  0  0  0  0  0  0  0  0  0
  144.2411  133.9396  163.5034 H   0  0  0  0  0  0  0  0  0  0  0  0
  144.4241  135.3292  160.7878 H   0  0  0  0  0  0  0  0  0  0  0  0
  143.2708  135.6675  162.0527 H   0  0  0  0  0  0  0  0  0  0  0  0
  145.0636  136.4565  163.5592 H   0  0  0  0  0  0  0  0  0  0  0  0
  145.0918  137.3646  162.0814 H   0  0  0  0  0  0  0  0  0  0  0  0
  1  2  1  0  0  0  0
  1 22  1  0  0  0  0
  1 23  1  0  0  0  0
  1 24  1  0  0  0  0
  2  3  1  0  0  0  0
  2 25  1  0  0  0  0
  2 26  1  0  0  0  0
  3  4  1  0  0  0  0
  3  5  1  0  0  0  0
  3  7  1  0  0  0  0
  4 27  1  0  0  0  0
  4 28  1  0  0  0  0
  4 29  1  0  0  0  0
  5  6  1  0  0  0  0
  5 30  1  0  0  0  0
  5 31  1  0  0  0  0
  6 32  1  0  0  0  0
  7  8  1  0  0  0  0
  7 33  1  0  0  0  0
  8  9  2  0  0  0  0
  8 10  1  0  0  0  0
 10 11  1  0  0  0  0
 10 34  1  0  0  0  0
 11 21  2  0  0  0  0
 11 12  1  0  0  0  0
 12 13  2  0  0  0  0
 13 14  1  0  0  0  0
 13 35  1  0  0  0  0
 14 15  1  0  0  0  0
 14 21  1  0  0  0  0
 15 20  1  0  0  0  0
 15 16  1  0  0  0  0
 15 36  1  0  0  0  0
 16 17  1  0  0  0  0
 16 37  1  0  0  0  0
 16 38  1  0  0  0  0
 17 18  1  0  0  0  0
 17 39  1  0  0  0  0
 17 40  1  0  0  0  0
 18 19  1  0  0  0  0
 18 41  1  0  0  0  0
 18 42  1  0  0  0  0
 19 20  1  0  0  0  0
 19 43  1  0  0  0  0
 19 44  1  0  0  0  0
 20 45  1  0  0  0  0
 20 46  1  0  0  0  0
M  END
> <s_m_source_file>
AV-unprocessed.smi

> <i_m_source_file_index>
2364

> <i_lp_mmshare_version>
43012

> <i_f3d_flags>
0

> <s_epik_input>
W0NIM11bQ0gyXVtDQEBdKFtDSDNdKShbQ0gyXVtPSF0pW05IXUMoPU8pW05IXWMxbltjSF1uKG4xKVtDSF0yW0NIMl1bQ0gyXVtDSDJdW0NIMl1bQ0gyXTI=

> <s_epik_cmdline>
J2VwaWtfcHl0aG9uJywgJy1waCcsICc3LjAnLCAnLXRuJywgJzgnLCAnLW1hJywgJzIwMCcsICctbWV0YWxfYmluZGluZycsICctaW1hZScsICc8aW5maWxlLm1hZT4nLCAnLW9tYWUnLCAnPG91dGZpbGUubWFlPic=

> <r_lp_tautomer_probability>
1

> <r_epik_Ionization_Penalty>
9.31261e-05

> <r_epik_Ionization_Penalty_Charging>
0

> <r_epik_Ionization_Penalty_Neutral>
9.31261e-05

> <r_epik_State_Penalty>
-0

> <r_epik_Charging_Adjusted_Penalty>
0

> <i_epik_Tot_Q>
0

> <i_epik_Tot_abs_Q>
0

> <r_epik_Metal_State_Penalty>
-0

> <b_epik_Metal_Only>
0

> <s_lp_Force_Field>
OPLS_2005

> <r_lp_Energy>
24.8913

> <b_lp_Chiralities_Consistent>
1

> <s_lp_Variant>
AV-unprocessed.smi:2364-2

> <Gold.Version>
5.8.1

> <Gold.Id.Protein>
6NUR|6NUR_protein|mol2

> <Gold.PLP.Fitness>
43.1939

> <Gold.PLP.PLP>
-39.8336

> <Gold.PLP.part.hbond>
-2.9388

> <Gold.PLP.part.metal>
0.0000

> <Gold.PLP.part.buried>
-4.1766

> <Gold.PLP.part.nonpolar>
-33.9714

> <Gold.PLP.part.repulsive>
0.0976

> <Gold.PLP.ligand.clash>
0.0000

> <Gold.PLP.ligand.torsion>
1.1617

> <Gold.PLP.Chemscore.Hbond>
1.8601

> <Gold.PLP.Chemscore.CHOScore>
0.0000

> <Gold.PLP.Chemscore.Metal>
0.0000

> <Gold.Chemscore.Hbonds>
donor molecule, donor type, donor heavy atom, donor atom, acceptor molecule, acceptor atom, score
      L1  H     6    32       P1  8028  0.47
      P1  H  6934  6947       L1    21  1.00

> <Gold.PLP.Chemscore.Internal.Correction>
0.1035

> <Gold.Rescore>
     Score         DG    S(hbond)    S(metal)    S(lipo)     H(rot)  DE(clash)    DE(int)     intcor
     14.04     -15.10       1.96        0.00      77.23       2.34       0.00       1.06       ----

> <Gold.Chemscore.Fitness>
14.0378

> <Gold.Chemscore.DG>
-15.0996

> <Gold.Chemscore.ZeroCoef>
-5.4800

> <Gold.Chemscore.Hbond>
1.9648

> <Gold.Chemscore.Metal>
0.0000

> <Gold.Chemscore.Lipo>
77.2308

> <Gold.Chemscore.Internal_Hbond>
0.0000

> <Gold.Chemscore.DEClash>
0.0048

> <Gold.Chemscore.DEInternal>
1.0569

> <Gold.Chemscore.Rot>
2.3354

> <Gold.Chemscore.Internal.Correction>
   9.000000E+99

> <Gold.Chemscore.Hbonds>
donor molecule, donor type, donor heavy atom, donor atom, acceptor molecule, acceptor atom, score
      L1  H     6    32       P1  8028  0.48
      P1  H  6934  6947       L1    21  0.95

> <Gold.Chemscore.Hbond.Weighted>
-6.5623

> <Gold.Chemscore.Metal.Weighted>
-0.0000

> <Gold.Chemscore.Lipo.Weighted>
-9.0360

> <Gold.Chemscore.Internal_Hbond.Weighted>
0.0000

> <Gold.Chemscore.DEClash.Weighted>
0.0048

> <Gold.Chemscore.DEInternal.Weighted>
1.0569

> <Gold.Chemscore.Rot.Weighted>
5.9787

> <Gold.Chemscore.Internal.Correction.Weighted>
   9.000000E+99

> <Gold.Protein.RotatedTorsions>
[ 6907 6896 6895 6894 ] final  -15.24 input  -60.11 | X-H torsion
[ 7974 7965 7964 7962 ] final    3.25 input  175.53 | X-H torsion
[ 8008 7997 7996 7995 ] final  -84.92 input   59.86 | X-H torsion
[ 10167 10162 10161 10158 ] final  119.22 input  -65.29 | X-H torsion
[ 10718 10713 10712 10709 ] final  100.65 input   66.30 | X-H torsion
[ 10763 10752 10751 10750 ] final   16.02 input  -60.55 | X-H torsion
[ 11005 11000 10999 10996 ] final  122.01 input  -57.11 | X-H torsion

> <Gold.Protein.ActiveResidues>
 VAL166  LYS551  ARG553  GLY616  TRP617  ASP618  TYR619  PRO620  LYS621  CYS622 
 ASP623  PHE694  ASN695  SER759  ASP760  ASP761  ALA762  ILE779  LEU786  VAL792 
 PHE793  MET794  SER795  GLU796  ALA797  LYS798  CYS799  TRP800  GLU811  SER814 

> <Gold.Protein.RotatedAtoms>
  151.3271  135.0832  159.9325 H   0  0  0  0  0  0  0  0  0  0  0  0  # atno 6907 bound_to 6896
  152.5243  133.9581  159.7714 H   0  0  0  0  0  0  0  0  0  0  0  0  # atno 6908 bound_to 6896
  150.9912  133.6095  159.2738 H   0  0  0  0  0  0  0  0  0  0  0  0  # atno 6909 bound_to 6896
  146.2445  140.0714  142.8362 H   0  0  0  0  0  0  0  0  0  0  0  0  # atno 7974 bound_to 7965
  154.6350  140.0598  156.9778 H   0  0  0  0  0  0  0  0  0  0  0  0  # atno 8008 bound_to 7997
  155.1605  140.3282  155.4394 H   0  0  0  0  0  0  0  0  0  0  0  0  # atno 8009 bound_to 7997
  156.2502  140.1931  156.6713 H   0  0  0  0  0  0  0  0  0  0  0  0  # atno 8010 bound_to 7997
  139.6060  144.7070  151.2952 H   0  0  0  0  0  0  0  0  0  0  0  0  # atno 10167 bound_to 10162
  157.6849  131.0704  150.5132 H   0  0  0  0  0  0  0  0  0  0  0  0  # atno 10718 bound_to 10713
  153.1470  135.6771  153.8939 H   0  0  0  0  0  0  0  0  0  0  0  0  # atno 10763 bound_to 10752
  153.8378  135.3109  155.3425 H   0  0  0  0  0  0  0  0  0  0  0  0  # atno 10764 bound_to 10752
  154.7833  135.4876  153.9976 H   0  0  0  0  0  0  0  0  0  0  0  0  # atno 10765 bound_to 10752
  139.9250  134.9640  156.8045 H   0  0  0  0  0  0  0  0  0  0  0  0  # atno 11005 bound_to 11000
  145.0813  140.9222  143.4824 LP  0  0  0  0  0  0  0  0  0  0  0  0  # atno 17320 bound_to 7965
  145.0868  139.2919  143.5755 LP  0  0  0  0  0  0  0  0  0  0  0  0  # atno 17321 bound_to 7965
  140.7285  143.6933  150.7904 LP  0  0  0  0  0  0  0  0  0  0  0  0  # atno 17342 bound_to 10162
  140.0519  143.5241  152.2669 LP  0  0  0  0  0  0  0  0  0  0  0  0  # atno 17343 bound_to 10162
  156.5448  130.4217  149.6136 LP  0  0  0  0  0  0  0  0  0  0  0  0  # atno 17370 bound_to 10713
  156.2953  130.7147  151.2006 LP  0  0  0  0  0  0  0  0  0  0  0  0  # atno 17371 bound_to 10713
  140.6363  133.9860  155.7685 LP  0  0  0  0  0  0  0  0  0  0  0  0  # atno 17394 bound_to 11000
  141.0801  134.0076  157.3399 LP  0  0  0  0  0  0  0  0  0  0  0  0  # atno 17395 bound_to 11000

$$$$
