AV-unprocessed.smi:2591|AV-procd|sdf|10157|dock8
  -GOLD-   2272014173D 1   1.00000     0.00000
 Structure written by MMmdl.
 34 35  0  0  0  0  0  0  0  0  1 V2000
  151.6222  138.3916  154.4089 C   0  0  0  0  0  0  0  0  0  0  0  0
  151.1346  139.7452  154.6261 N   0  0  0  0  0  0  0  0  0  0  0  0
  149.6946  139.8379  154.4287 C   0  0  0  0  0  0  0  0  0  0  0  0
  149.1831  141.2692  154.6630 C   0  0  0  0  0  0  0  0  0  0  0  0
  149.5545  141.7023  155.9684 O   0  0  0  0  0  0  0  0  0  0  0  0
  150.9650  141.6705  156.1929 C   0  0  1  0  0  0  0  0  0  0  0  0
  151.2537  142.1838  157.6111 C   0  0  0  0  0  0  0  0  0  0  0  0
  150.6240  143.1422  158.0615 O   0  0  0  0  0  0  0  0  0  0  0  0
  152.1980  141.5082  158.2938 N   0  0  0  0  0  0  0  0  0  0  0  0
  152.6675  141.7384  159.6140 C   0  0  0  0  0  0  0  0  0  0  0  0
  153.6068  140.7955  160.0878 C   0  0  0  0  0  0  0  0  0  0  0  0
  154.1316  140.9245  161.3920 C   0  0  0  0  0  0  0  0  0  0  0  0
  155.1468  139.9265  161.9271 C   0  0  0  0  0  0  0  0  0  0  0  0
  156.2415  139.9088  161.1660 F   0  0  0  0  0  0  0  0  0  0  0  0
  155.5084  140.2398  163.1719 F   0  0  0  0  0  0  0  0  0  0  0  0
  154.6061  138.7088  161.9304 F   0  0  0  0  0  0  0  0  0  0  0  0
  153.7035  142.0127  162.1793 C   0  0  0  0  0  0  0  0  0  0  0  0
  152.7683  142.9078  161.6298 C   0  0  0  0  0  0  0  0  0  0  0  0
  152.2623  142.7764  160.3864 N   0  0  0  0  0  0  0  0  0  0  0  0
  151.4792  140.2318  155.9558 C   0  0  0  0  0  0  0  0  0  0  0  0
  151.3857  138.0529  153.3997 H   0  0  0  0  0  0  0  0  0  0  0  0
  151.1740  137.6928  155.1166 H   0  0  0  0  0  0  0  0  0  0  0  0
  152.7052  138.3483  154.5284 H   0  0  0  0  0  0  0  0  0  0  0  0
  149.4380  139.5212  153.4172 H   0  0  0  0  0  0  0  0  0  0  0  0
  149.1827  139.1559  155.1095 H   0  0  0  0  0  0  0  0  0  0  0  0
  149.5908  141.9521  153.9163 H   0  0  0  0  0  0  0  0  0  0  0  0
  148.0977  141.3041  154.5708 H   0  0  0  0  0  0  0  0  0  0  0  0
  151.4502  142.3519  155.4915 H   0  0  0  0  0  0  0  0  0  0  0  0
  152.6309  140.7382  157.8050 H   0  0  0  0  0  0  0  0  0  0  0  0
  153.9218  139.9778  159.4555 H   0  0  0  0  0  0  0  0  0  0  0  0
  154.0814  142.1632  163.1799 H   0  0  0  0  0  0  0  0  0  0  0  0
  152.4177  143.7533  162.2031 H   0  0  0  0  0  0  0  0  0  0  0  0
  151.0605  139.5642  156.7113 H   0  0  0  0  0  0  0  0  0  0  0  0
  152.5625  140.2040  156.0814 H   0  0  0  0  0  0  0  0  0  0  0  0
  1  2  1  0  0  0  0
  1 21  1  0  0  0  0
  1 22  1  0  0  0  0
  1 23  1  0  0  0  0
  2 20  1  0  0  0  0
  2  3  1  0  0  0  0
  3  4  1  0  0  0  0
  3 24  1  0  0  0  0
  3 25  1  0  0  0  0
  4  5  1  0  0  0  0
  4 26  1  0  0  0  0
  4 27  1  0  0  0  0
  5  6  1  0  0  0  0
  6  7  1  0  0  0  0
  6 20  1  0  0  0  0
  6 28  1  0  0  0  0
  7  8  2  0  0  0  0
  7  9  1  0  0  0  0
  9 10  1  0  0  0  0
  9 29  1  0  0  0  0
 10 19  1  0  0  0  0
 10 11  2  0  0  0  0
 11 12  1  0  0  0  0
 11 30  1  0  0  0  0
 12 13  1  0  0  0  0
 12 17  2  0  0  0  0
 13 14  1  0  0  0  0
 13 15  1  0  0  0  0
 13 16  1  0  0  0  0
 17 18  1  0  0  0  0
 17 31  1  0  0  0  0
 18 19  2  0  0  0  0
 18 32  1  0  0  0  0
 20 33  1  0  0  0  0
 20 34  1  0  0  0  0
M  END
> <s_m_source_file>
AV-unprocessed.smi

> <i_m_source_file_index>
2591

> <i_lp_mmshare_version>
43012

> <i_f3d_flags>
0

> <s_epik_input>
W0NIM11OMVtDSDJdW0NIMl1PW0NASF0oW0NIMl0xKUMoPU8pW05IXWMyW2NIXWMoQyhGKShGKUYpW2NIXVtjSF1uMg==

> <s_epik_cmdline>
J2VwaWtfcHl0aG9uJywgJy1waCcsICc3LjAnLCAnLXRuJywgJzgnLCAnLW1hJywgJzIwMCcsICctbWV0YWxfYmluZGluZycsICctaW1hZScsICc8aW5maWxlLm1hZT4nLCAnLW9tYWUnLCAnPG91dGZpbGUubWFlPic=

> <r_epik_Ionization_Penalty>
0.526245

> <r_epik_Ionization_Penalty_Charging>
0

> <r_epik_Ionization_Penalty_Neutral>
0.526245

> <r_epik_State_Penalty>
0.534659

> <r_epik_Charging_Adjusted_Penalty>
0.534659

> <i_epik_Tot_Q>
0

> <i_epik_Tot_abs_Q>
0

> <r_epik_Metal_State_Penalty>
0.534657

> <b_epik_Metal_Only>
0

> <s_lp_Force_Field>
OPLS_2005

> <r_lp_Energy>
21.9247

> <b_lp_Chiralities_Consistent>
1

> <s_lp_Variant>
AV-unprocessed.smi:2591-5

> <Gold.Version>
5.8.1

> <Gold.Id.Protein>
6NUR|6NUR_protein|mol2

> <Gold.PLP.Fitness>
46.4213

> <Gold.PLP.PLP>
-44.5494

> <Gold.PLP.part.hbond>
-1.0000

> <Gold.PLP.part.metal>
0.0000

> <Gold.PLP.part.buried>
-5.8579

> <Gold.PLP.part.nonpolar>
-36.9074

> <Gold.PLP.part.repulsive>
0.5858

> <Gold.PLP.ligand.clash>
1.1672

> <Gold.PLP.ligand.torsion>
0.5235

> <Gold.PLP.Chemscore.Hbond>
1.0000

> <Gold.PLP.Chemscore.CHOScore>
0.0000

> <Gold.PLP.Chemscore.Metal>
0.0000

> <Gold.Chemscore.Hbonds>
donor molecule, donor type, donor heavy atom, donor atom, acceptor molecule, acceptor atom, score
      P1  H  7989  7998       L1     2  1.00

> <Gold.PLP.Chemscore.Internal.Correction>
1.0861

> <Gold.Rescore>
     Score         DG    S(hbond)    S(metal)    S(lipo)     H(rot)  DE(clash)    DE(int)     intcor
     12.07     -13.90       0.26        0.00      86.53       1.00       0.05       1.79       ----

> <Gold.Chemscore.Fitness>
12.0654

> <Gold.Chemscore.DG>
-13.9042

> <Gold.Chemscore.ZeroCoef>
-5.4800

> <Gold.Chemscore.Hbond>
0.2575

> <Gold.Chemscore.Metal>
0.0000

> <Gold.Chemscore.Lipo>
86.5312

> <Gold.Chemscore.Internal_Hbond>
0.0000

> <Gold.Chemscore.DEClash>
0.0458

> <Gold.Chemscore.DEInternal>
1.7929

> <Gold.Chemscore.Rot>
1.0000

> <Gold.Chemscore.Internal.Correction>
   9.000000E+99

> <Gold.Chemscore.Hbonds>
donor molecule, donor type, donor heavy atom, donor atom, acceptor molecule, acceptor atom, score
      P1  H  7989  7998       L1     2  0.16

> <Gold.Chemscore.Hbond.Weighted>
-0.8600

> <Gold.Chemscore.Metal.Weighted>
-0.0000

> <Gold.Chemscore.Lipo.Weighted>
-10.1241

> <Gold.Chemscore.Internal_Hbond.Weighted>
0.0000

> <Gold.Chemscore.DEClash.Weighted>
0.0458

> <Gold.Chemscore.DEInternal.Weighted>
1.7929

> <Gold.Chemscore.Rot.Weighted>
2.5600

> <Gold.Chemscore.Internal.Correction.Weighted>
   9.000000E+99

> <Gold.Protein.RotatedTorsions>
[ 6907 6896 6895 6894 ] final -106.98 input  -60.11 | X-H torsion
[ 7974 7965 7964 7962 ] final  -48.07 input  175.53 | X-H torsion
[ 8008 7997 7996 7995 ] final   76.57 input   59.86 | X-H torsion
[ 10167 10162 10161 10158 ] final  -27.83 input  -65.29 | X-H torsion
[ 10718 10713 10712 10709 ] final   36.43 input   66.30 | X-H torsion
[ 10763 10752 10751 10750 ] final -166.15 input  -60.55 | X-H torsion
[ 11005 11000 10999 10996 ] final  110.95 input  -57.11 | X-H torsion

> <Gold.Protein.ActiveResidues>
 VAL166  LYS551  ARG553  GLY616  TRP617  ASP618  TYR619  PRO620  LYS621  CYS622 
 ASP623  PHE694  ASN695  SER759  ASP760  ASP761  ALA762  ILE779  LEU786  VAL792 
 PHE793  MET794  SER795  GLU796  ALA797  LYS798  CYS799  TRP800  GLU811  SER814 

> <Gold.Protein.RotatedAtoms>
  150.7419  133.9894  159.3601 H   0  0  0  0  0  0  0  0  0  0  0  0  # atno 6907 bound_to 6896
  151.7841  135.0751  160.0387 H   0  0  0  0  0  0  0  0  0  0  0  0  # atno 6908 bound_to 6896
  152.3253  133.5862  159.5809 H   0  0  0  0  0  0  0  0  0  0  0  0  # atno 6909 bound_to 6896
  145.9550  140.7536  142.9486 H   0  0  0  0  0  0  0  0  0  0  0  0  # atno 7974 bound_to 7965
  155.8292  140.3467  155.5561 H   0  0  0  0  0  0  0  0  0  0  0  0  # atno 8008 bound_to 7997
  155.8260  140.0920  157.1840 H   0  0  0  0  0  0  0  0  0  0  0  0  # atno 8009 bound_to 7997
  154.4004  140.1421  156.3544 H   0  0  0  0  0  0  0  0  0  0  0  0  # atno 8010 bound_to 7997
  140.7274  143.4061  151.1183 H   0  0  0  0  0  0  0  0  0  0  0  0  # atno 10167 bound_to 10162
  157.3347  130.7516  149.6871 H   0  0  0  0  0  0  0  0  0  0  0  0  # atno 10718 bound_to 10713
  154.6861  135.2963  154.9545 H   0  0  0  0  0  0  0  0  0  0  0  0  # atno 10763 bound_to 10752
  154.0524  135.6643  153.4806 H   0  0  0  0  0  0  0  0  0  0  0  0  # atno 10764 bound_to 10752
  153.0580  135.5133  154.7929 H   0  0  0  0  0  0  0  0  0  0  0  0  # atno 10765 bound_to 10752
  139.8893  134.9496  156.6357 H   0  0  0  0  0  0  0  0  0  0  0  0  # atno 11005 bound_to 11000
  144.6803  140.2496  143.7333 LP  0  0  0  0  0  0  0  0  0  0  0  0  # atno 17320 bound_to 7965
  145.8119  139.2007  143.1988 LP  0  0  0  0  0  0  0  0  0  0  0  0  # atno 17321 bound_to 7965
  139.7687  143.8526  152.3116 LP  0  0  0  0  0  0  0  0  0  0  0  0  # atno 17342 bound_to 10162
  139.8437  144.7198  150.9299 LP  0  0  0  0  0  0  0  0  0  0  0  0  # atno 17343 bound_to 10162
  155.9700  130.4185  150.4330 LP  0  0  0  0  0  0  0  0  0  0  0  0  # atno 17370 bound_to 10713
  157.2368  131.0516  151.2460 LP  0  0  0  0  0  0  0  0  0  0  0  0  # atno 17371 bound_to 10713
  140.7632  133.8800  155.8434 LP  0  0  0  0  0  0  0  0  0  0  0  0  # atno 17394 bound_to 11000
  140.9904  134.1286  157.4413 LP  0  0  0  0  0  0  0  0  0  0  0  0  # atno 17395 bound_to 11000

$$$$
