AV-unprocessed.smi:244|AV-procd|sdf|1870|dock6
  -GOLD-   2262020513D 1   1.00000     0.00000
 Structure written by MMmdl.
 57 61  0  0  0  0  0  0  0  0  2 V2000
  147.4385  133.5751  152.9010 C   0  0  0  0  0  0  0  0  0  0  0  0
  146.8161  134.4126  151.8497 N   0  3  1  0  0  0  0  0  0  0  0  0
  146.0366  133.6335  150.8524 C   0  0  0  0  0  0  0  0  0  0  0  0
  144.6643  133.1967  151.3989 C   0  0  0  0  0  0  0  0  0  0  0  0
  143.8769  134.4106  151.9081 C   0  0  1  0  0  0  0  0  0  0  0  0
  142.6373  133.9827  152.4612 O   0  0  0  0  0  0  0  0  0  0  0  0
  141.8430  135.0851  152.8878 C   0  0  0  0  0  0  0  0  0  0  0  0
  142.5935  135.8639  153.9804 C   0  0  0  0  0  0  0  0  0  0  0  0
  143.9094  136.2765  153.5004 N   0  0  0  0  0  0  0  0  0  0  0  0
  144.5562  137.0557  154.3960 C   0  0  0  0  0  0  0  0  0  0  0  0
  144.3403  136.8888  155.7276 N   0  0  0  0  0  0  0  0  0  0  0  0
  145.0068  137.6411  156.6089 C   0  0  0  0  0  0  0  0  0  0  0  0
  145.9213  138.5859  156.3771 N   0  0  0  0  0  0  0  0  0  0  0  0
  146.1413  138.7478  155.0404 C   0  0  0  0  0  0  0  0  0  0  0  0
  145.5004  138.0334  153.9909 C   0  0  0  0  0  0  0  0  0  0  0  0
  145.9731  138.4636  152.7585 N   0  0  0  0  0  0  0  0  0  0  0  0
  146.8452  139.3861  153.0624 C   0  0  0  0  0  0  0  0  0  0  0  0
  147.0253  139.6060  154.4104 N   0  0  0  0  0  0  0  0  0  0  0  0
  147.9399  140.5565  155.0237 C   0  0  0  0  0  0  0  0  0  0  0  0
  149.4399  140.2523  154.7762 C   0  0  0  0  0  0  0  0  0  0  0  0
  149.7449  140.8593  153.5337 O   0  0  0  0  0  0  0  0  0  0  0  0
  150.3627  140.8603  155.8545 C   0  0  0  0  0  0  0  0  0  0  0  0
  151.8350  140.4660  155.6390 C   0  0  0  0  0  0  0  0  0  0  0  0
  151.9576  139.0490  155.5978 O   0  0  0  0  0  0  0  0  0  0  0  0
  151.2458  138.4638  154.5136 C   0  0  0  0  0  0  0  0  0  0  0  0
  149.7391  138.7411  154.6638 C   0  0  0  0  0  0  0  0  0  0  0  0
  144.6951  135.1520  152.9865 C   0  0  2  0  0  0  0  0  0  0  0  0
  146.0609  135.5748  152.3865 C   0  0  0  0  0  0  0  0  0  0  0  0
  146.6929  133.0868  153.5283 H   0  0  0  0  0  0  0  0  0  0  0  0
  148.0767  134.1814  153.5444 H   0  0  0  0  0  0  0  0  0  0  0  0
  148.0630  132.8017  152.4531 H   0  0  0  0  0  0  0  0  0  0  0  0
  145.8915  134.2587  149.9703 H   0  0  0  0  0  0  0  0  0  0  0  0
  146.6107  132.7671  150.5215 H   0  0  0  0  0  0  0  0  0  0  0  0
  144.0995  132.6892  150.6165 H   0  0  0  0  0  0  0  0  0  0  0  0
  144.7925  132.4719  152.2033 H   0  0  0  0  0  0  0  0  0  0  0  0
  143.6782  135.0768  151.0658 H   0  0  0  0  0  0  0  0  0  0  0  0
  141.6089  135.7312  152.0405 H   0  0  0  0  0  0  0  0  0  0  0  0
  140.8948  134.7121  153.2753 H   0  0  0  0  0  0  0  0  0  0  0  0
  142.0144  136.7401  154.2761 H   0  0  0  0  0  0  0  0  0  0  0  0
  142.7015  135.2353  154.8656 H   0  0  0  0  0  0  0  0  0  0  0  0
  144.7780  137.4572  157.6485 H   0  0  0  0  0  0  0  0  0  0  0  0
  147.3971  139.9264  152.3066 H   0  0  0  0  0  0  0  0  0  0  0  0
  147.6920  141.5498  154.6466 H   0  0  0  0  0  0  0  0  0  0  0  0
  147.7341  140.5809  156.0951 H   0  0  0  0  0  0  0  0  0  0  0  0
  149.6410  140.2143  152.8509 H   0  0  0  0  0  0  0  0  0  0  0  0
  150.2626  141.9462  155.8773 H   0  0  0  0  0  0  0  0  0  0  0  0
  150.0652  140.5037  156.8403 H   0  0  0  0  0  0  0  0  0  0  0  0
  152.2318  140.9042  154.7220 H   0  0  0  0  0  0  0  0  0  0  0  0
  152.4454  140.8460  156.4582 H   0  0  0  0  0  0  0  0  0  0  0  0
  151.6262  138.8445  153.5646 H   0  0  0  0  0  0  0  0  0  0  0  0
  151.4280  137.3890  154.5163 H   0  0  0  0  0  0  0  0  0  0  0  0
  149.3983  138.2271  155.5620 H   0  0  0  0  0  0  0  0  0  0  0  0
  149.1897  138.3013  153.8305 H   0  0  0  0  0  0  0  0  0  0  0  0
  144.8697  134.4676  153.8182 H   0  0  0  0  0  0  0  0  0  0  0  0
  146.6826  136.0852  153.1229 H   0  0  0  0  0  0  0  0  0  0  0  0
  145.9006  136.2871  151.5758 H   0  0  0  0  0  0  0  0  0  0  0  0
  147.5948  134.8058  151.3405 H   0  0  0  0  0  0  0  0  0  0  0  0
  1  2  1  0  0  0  0
  1 29  1  0  0  0  0
  1 30  1  0  0  0  0
  1 31  1  0  0  0  0
  2 28  1  0  0  0  0
  2  3  1  0  0  0  0
  2 57  1  0  0  0  0
  3  4  1  0  0  0  0
  3 32  1  0  0  0  0
  3 33  1  0  0  0  0
  4  5  1  0  0  0  0
  4 34  1  0  0  0  0
  4 35  1  0  0  0  0
  5 27  1  0  0  0  0
  5  6  1  0  0  0  0
  5 36  1  0  0  0  0
  6  7  1  0  0  0  0
  7  8  1  0  0  0  0
  7 37  1  0  0  0  0
  7 38  1  0  0  0  0
  8  9  1  0  0  0  0
  8 39  1  0  0  0  0
  8 40  1  0  0  0  0
  9 10  1  0  0  0  0
  9 27  1  0  0  0  0
 10 15  1  0  0  0  0
 10 11  2  0  0  0  0
 11 12  1  0  0  0  0
 12 13  2  0  0  0  0
 12 41  1  0  0  0  0
 13 14  1  0  0  0  0
 14 18  1  0  0  0  0
 14 15  2  0  0  0  0
 15 16  1  0  0  0  0
 16 17  2  0  0  0  0
 17 18  1  0  0  0  0
 17 42  1  0  0  0  0
 18 19  1  0  0  0  0
 19 20  1  0  0  0  0
 19 43  1  0  0  0  0
 19 44  1  0  0  0  0
 20 26  1  0  0  0  0
 20 21  1  0  0  0  0
 20 22  1  0  0  0  0
 21 45  1  0  0  0  0
 22 23  1  0  0  0  0
 22 46  1  0  0  0  0
 22 47  1  0  0  0  0
 23 24  1  0  0  0  0
 23 48  1  0  0  0  0
 23 49  1  0  0  0  0
 24 25  1  0  0  0  0
 25 26  1  0  0  0  0
 25 50  1  0  0  0  0
 25 51  1  0  0  0  0
 26 52  1  0  0  0  0
 26 53  1  0  0  0  0
 27 28  1  0  0  0  0
 27 54  1  0  0  0  0
 28 55  1  0  0  0  0
 28 56  1  0  0  0  0
M  CHG  1   2   1
M  END
> <s_m_source_file>
AV-unprocessed.smi

> <i_m_source_file_index>
244

> <i_lp_mmshare_version>
43012

> <i_f3d_flags>
0

> <s_epik_input>
W0NIMl0xW0NIMl1OKFtDSDNdKVtDSDJdW0NAQEhdKFtDQEhdMTIpTihbQ0gyXVtDSDJdTzIpYyhuW2NIXW4zKWMoYzM0KW5bY0hdbjRbQ0gyXUM1KFtPSF0pW0NIMl1bQ0gyXU9bQ0gyXVtDSDJdNQ==

> <s_epik_cmdline>
J2VwaWtfcHl0aG9uJywgJy1waCcsICc3LjAnLCAnLXRuJywgJzgnLCAnLW1hJywgJzIwMCcsICctbWV0YWxfYmluZGluZycsICctaW1hZScsICc8aW5maWxlLm1hZT4nLCAnLW9tYWUnLCAnPG91dGZpbGUubWFlPic=

> <r_lp_tautomer_probability>
1

> <r_epik_Ionization_Penalty>
0.0136215

> <r_epik_Ionization_Penalty_Charging>
0.0131385

> <r_epik_Ionization_Penalty_Neutral>
0.000483022

> <r_epik_State_Penalty>
0.0104001

> <r_epik_Charging_Adjusted_Penalty>
0.0235387

> <i_epik_Tot_Q>
1

> <i_epik_Tot_abs_Q>
1

> <r_epik_Metal_State_Penalty>
0.0104469

> <b_epik_Metal_Only>
0

> <s_lp_Force_Field>
OPLS_2005

> <r_lp_Energy>
43.6006

> <b_lp_Chiralities_Consistent>
1

> <s_lp_Variant>
AV-unprocessed.smi:244-7

> <Gold.Version>
5.8.1

> <Gold.Id.Protein>
6NUR|6NUR_protein|mol2

> <Gold.PLP.Fitness>
43.7922

> <Gold.PLP.PLP>
-33.0055

> <Gold.PLP.part.hbond>
-3.5231

> <Gold.PLP.part.metal>
0.0000

> <Gold.PLP.part.buried>
-4.6400

> <Gold.PLP.part.nonpolar>
-25.1194

> <Gold.PLP.part.repulsive>
0.7707

> <Gold.PLP.ligand.clash>
0.3748

> <Gold.PLP.ligand.torsion>
1.1157

> <Gold.PLP.Chemscore.Hbond>
3.4289

> <Gold.PLP.Chemscore.CHOScore>
1.0000

> <Gold.PLP.Chemscore.Metal>
0.0000

> <Gold.Chemscore.Hbonds>
donor molecule, donor type, donor heavy atom, donor atom, acceptor molecule, acceptor atom, score
      L1  H     2    57       P1  7948  1.25
      L1  H    21    45       P1  7957  0.83
      P1  H  7989  7998       L1    21  0.25
      P1  H  8011  8017       L1    21  0.80
      L1  C    17    42       P1  7957  1.00

> <Gold.PLP.Chemscore.Internal.Correction>
0.1062

> <Gold.Rescore>
     Score         DG    S(hbond)    S(metal)    S(lipo)     H(rot)  DE(clash)    DE(int)     intcor
     10.61     -14.34       1.56        0.00      76.90       2.09       0.19       3.54       ----

> <Gold.Chemscore.Fitness>
10.6150

> <Gold.Chemscore.DG>
-14.3443

> <Gold.Chemscore.ZeroCoef>
-5.4800

> <Gold.Chemscore.Hbond>
1.5628

> <Gold.Chemscore.Metal>
0.0000

> <Gold.Chemscore.Lipo>
76.9029

> <Gold.Chemscore.Internal_Hbond>
0.0000

> <Gold.Chemscore.DEClash>
0.1897

> <Gold.Chemscore.DEInternal>
3.5397

> <Gold.Chemscore.Rot>
2.0911

> <Gold.Chemscore.Internal.Correction>
   9.000000E+99

> <Gold.Chemscore.Hbonds>
donor molecule, donor type, donor heavy atom, donor atom, acceptor molecule, acceptor atom, score
      L1  H     2    57       P1  7948  0.14
      L1  H    21    45       P1  7957  0.83
      P1  H  7989  7998       L1    21  0.02
      P1  H  8011  8017       L1    21  0.11

> <Gold.Chemscore.Hbond.Weighted>
-5.2198

> <Gold.Chemscore.Metal.Weighted>
-0.0000

> <Gold.Chemscore.Lipo.Weighted>
-8.9976

> <Gold.Chemscore.Internal_Hbond.Weighted>
0.0000

> <Gold.Chemscore.DEClash.Weighted>
0.1897

> <Gold.Chemscore.DEInternal.Weighted>
3.5397

> <Gold.Chemscore.Rot.Weighted>
5.3531

> <Gold.Chemscore.Internal.Correction.Weighted>
   9.000000E+99

> <Gold.Protein.RotatedTorsions>
[ 6907 6896 6895 6894 ] final  155.90 input  -60.11 | X-H torsion
[ 7974 7965 7964 7962 ] final   21.18 input  175.53 | X-H torsion
[ 8008 7997 7996 7995 ] final -131.00 input   59.86 | X-H torsion
[ 10167 10162 10161 10158 ] final  160.76 input  -65.29 | X-H torsion
[ 10718 10713 10712 10709 ] final   91.79 input   66.30 | X-H torsion
[ 10763 10752 10751 10750 ] final  100.73 input  -60.55 | X-H torsion
[ 11005 11000 10999 10996 ] final  142.78 input  -57.11 | X-H torsion

> <Gold.Protein.ActiveResidues>
 VAL166  LYS551  ARG553  GLY616  TRP617  ASP618  TYR619  PRO620  LYS621  CYS622 
 ASP623  PHE694  ASN695  SER759  ASP760  ASP761  ALA762  ILE779  LEU786  VAL792 
 PHE793  MET794  SER795  GLU796  ALA797  LYS798  CYS799  TRP800  GLU811  SER814 

> <Gold.Protein.RotatedAtoms>
  152.0374  133.3963  159.4322 H   0  0  0  0  0  0  0  0  0  0  0  0  # atno 6907 bound_to 6896
  150.6878  134.3453  159.4895 H   0  0  0  0  0  0  0  0  0  0  0  0  # atno 6908 bound_to 6896
  152.1247  134.9179  160.0612 H   0  0  0  0  0  0  0  0  0  0  0  0  # atno 6909 bound_to 6896
  146.2082  139.8063  142.8710 H   0  0  0  0  0  0  0  0  0  0  0  0  # atno 7974 bound_to 7965
  155.3050  140.0454  157.3032 H   0  0  0  0  0  0  0  0  0  0  0  0  # atno 8008 bound_to 7997
  154.5465  140.2304  155.8522 H   0  0  0  0  0  0  0  0  0  0  0  0  # atno 8009 bound_to 7997
  156.1928  140.3046  155.9374 H   0  0  0  0  0  0  0  0  0  0  0  0  # atno 8010 bound_to 7997
  139.4843  144.4602  151.8714 H   0  0  0  0  0  0  0  0  0  0  0  0  # atno 10167 bound_to 10162
  157.6960  131.0420  150.3783 H   0  0  0  0  0  0  0  0  0  0  0  0  # atno 10718 bound_to 10713
  153.3177  135.4069  155.1390 H   0  0  0  0  0  0  0  0  0  0  0  0  # atno 10763 bound_to 10752
  154.8592  135.3580  154.5638 H   0  0  0  0  0  0  0  0  0  0  0  0  # atno 10764 bound_to 10752
  153.6070  135.7069  153.5420 H   0  0  0  0  0  0  0  0  0  0  0  0  # atno 10765 bound_to 10752
  140.0503  134.9259  157.1005 H   0  0  0  0  0  0  0  0  0  0  0  0  # atno 11005 bound_to 11000
  145.3242  141.0251  143.3483 LP  0  0  0  0  0  0  0  0  0  0  0  0  # atno 17320 bound_to 7965
  144.8844  139.4859  143.6707 LP  0  0  0  0  0  0  0  0  0  0  0  0  # atno 17321 bound_to 7965
  140.4064  144.2426  150.5890 LP  0  0  0  0  0  0  0  0  0  0  0  0  # atno 17342 bound_to 10162
  140.5008  143.2318  151.8681 LP  0  0  0  0  0  0  0  0  0  0  0  0  # atno 17343 bound_to 10162
  156.4200  130.3951  149.6831 LP  0  0  0  0  0  0  0  0  0  0  0  0  # atno 17370 bound_to 10713
  156.4086  130.7710  151.2722 LP  0  0  0  0  0  0  0  0  0  0  0  0  # atno 17371 bound_to 10713
  140.3928  134.2166  155.7165 LP  0  0  0  0  0  0  0  0  0  0  0  0  # atno 17394 bound_to 11000
  141.1927  133.8167  157.0829 LP  0  0  0  0  0  0  0  0  0  0  0  0  # atno 17395 bound_to 11000

$$$$
