AV-unprocessed.smi:2167|AV-procd|sdf|8817|dock5
  -GOLD-   2272012 03D 1   1.00000     0.00000
 Structure written by MMmdl.
 41 42  0  0  0  0  0  0  0  0  1 V2000
  143.2197  133.4585  151.7608 C   0  0  0  0  0  0  0  0  0  0  0  0
  144.2706  134.5780  151.7472 C   0  0  0  0  0  0  0  0  0  0  0  0
  144.3570  135.3061  150.3981 C   0  0  0  0  0  0  0  0  0  0  0  0
  145.6095  134.0997  152.2144 C   0  0  0  0  0  0  0  0  0  0  0  0
  146.2809  134.6502  153.2304 N   0  0  0  0  0  0  0  0  0  0  0  0
  147.5019  134.0153  153.4810 C   0  0  0  0  0  0  0  0  0  0  0  0
  148.3847  134.4907  154.6011 C   0  0  0  0  0  0  0  0  0  0  0  0
  147.9999  135.9033  155.0534 C   0  0  0  0  0  0  0  0  0  0  0  0
  147.5013  136.0758  156.1653 O   0  0  0  0  0  0  0  0  0  0  0  0
  148.2182  136.9023  154.1812 N   0  0  0  0  0  0  0  0  0  0  0  0
  147.9114  138.3154  154.4092 C   0  0  1  0  0  0  0  0  0  0  0  0
  149.2041  139.1197  154.1409 C   0  0  0  0  0  0  0  0  0  0  0  0
  149.2297  140.4987  154.8227 C   0  0  0  0  0  0  0  0  0  0  0  0
  148.1757  141.4945  154.3151 C   0  0  0  0  0  0  0  0  0  0  0  0
  146.7268  141.0368  154.5543 C   0  0  0  0  0  0  0  0  0  0  0  0
  146.3036  140.0310  153.5888 N   0  0  0  0  0  0  0  0  0  0  0  0
  146.8048  138.7953  153.4409 C   0  0  0  0  0  0  0  0  0  0  0  0
  146.3914  138.0607  152.5436 O   0  0  0  0  0  0  0  0  0  0  0  0
  147.7552  132.9758  152.6204 C   0  0  0  0  0  0  0  0  0  0  0  0
  146.4606  132.7464  151.4780 S   0  0  0  0  0  0  0  0  0  0  0  0
  143.1264  133.0205  152.7549 H   0  0  0  0  0  0  0  0  0  0  0  0
  143.4830  132.6593  151.0671 H   0  0  0  0  0  0  0  0  0  0  0  0
  142.2386  133.8376  151.4737 H   0  0  0  0  0  0  0  0  0  0  0  0
  143.9387  135.3192  152.4754 H   0  0  0  0  0  0  0  0  0  0  0  0
  145.0516  136.1452  150.4490 H   0  0  0  0  0  0  0  0  0  0  0  0
  143.3846  135.6999  150.1013 H   0  0  0  0  0  0  0  0  0  0  0  0
  144.6997  134.6373  149.6078 H   0  0  0  0  0  0  0  0  0  0  0  0
  148.3142  133.8215  155.4593 H   0  0  0  0  0  0  0  0  0  0  0  0
  149.4302  134.4834  154.2901 H   0  0  0  0  0  0  0  0  0  0  0  0
  148.6230  136.6662  153.2870 H   0  0  0  0  0  0  0  0  0  0  0  0
  147.5915  138.4511  155.4440 H   0  0  0  0  0  0  0  0  0  0  0  0
  150.0574  138.5592  154.5268 H   0  0  0  0  0  0  0  0  0  0  0  0
  149.3856  139.2241  153.0696 H   0  0  0  0  0  0  0  0  0  0  0  0
  149.1177  140.3709  155.9002 H   0  0  0  0  0  0  0  0  0  0  0  0
  150.2172  140.9382  154.6784 H   0  0  0  0  0  0  0  0  0  0  0  0
  148.3287  142.4411  154.8344 H   0  0  0  0  0  0  0  0  0  0  0  0
  148.3340  141.7060  153.2567 H   0  0  0  0  0  0  0  0  0  0  0  0
  146.5906  140.6719  155.5733 H   0  0  0  0  0  0  0  0  0  0  0  0
  146.0581  141.8903  154.4423 H   0  0  0  0  0  0  0  0  0  0  0  0
  145.5767  140.3096  152.9456 H   0  0  0  0  0  0  0  0  0  0  0  0
  148.6200  132.3294  152.5933 H   0  0  0  0  0  0  0  0  0  0  0  0
  1  2  1  0  0  0  0
  1 21  1  0  0  0  0
  1 22  1  0  0  0  0
  1 23  1  0  0  0  0
  2  3  1  0  0  0  0
  2  4  1  0  0  0  0
  2 24  1  0  0  0  0
  3 25  1  0  0  0  0
  3 26  1  0  0  0  0
  3 27  1  0  0  0  0
  4 20  1  0  0  0  0
  4  5  2  0  0  0  0
  5  6  1  0  0  0  0
  6  7  1  0  0  0  0
  6 19  2  0  0  0  0
  7  8  1  0  0  0  0
  7 28  1  0  0  0  0
  7 29  1  0  0  0  0
  8  9  2  0  0  0  0
  8 10  1  0  0  0  0
 10 11  1  0  0  0  0
 10 30  1  0  0  0  0
 11 17  1  0  0  0  0
 11 12  1  0  0  0  0
 11 31  1  0  0  0  0
 12 13  1  0  0  0  0
 12 32  1  0  0  0  0
 12 33  1  0  0  0  0
 13 14  1  0  0  0  0
 13 34  1  0  0  0  0
 13 35  1  0  0  0  0
 14 15  1  0  0  0  0
 14 36  1  0  0  0  0
 14 37  1  0  0  0  0
 15 16  1  0  0  0  0
 15 38  1  0  0  0  0
 15 39  1  0  0  0  0
 16 17  1  0  0  0  0
 16 40  1  0  0  0  0
 17 18  2  0  0  0  0
 19 20  1  0  0  0  0
 19 41  1  0  0  0  0
M  END
> <s_m_source_file>
AV-unprocessed.smi

> <i_m_source_file_index>
2167

> <i_lp_mmshare_version>
43012

> <i_f3d_flags>
0

> <s_epik_input>
W0NIM11bQ0hdKFtDSDNdKWMxbmMoW2NIXXMxKVtDSDJdQyg9TylbTkhdW0NAQEhdMltDSDJdW0NIMl1bQ0gyXVtDSDJdW05IXUMyPU8=

> <s_epik_cmdline>
J2VwaWtfcHl0aG9uJywgJy1waCcsICc3LjAnLCAnLXRuJywgJzgnLCAnLW1hJywgJzIwMCcsICctbWV0YWxfYmluZGluZycsICctaW1hZScsICc8aW5maWxlLm1hZT4nLCAnLW9tYWUnLCAnPG91dGZpbGUubWFlPic=

> <r_lp_tautomer_probability>
1

> <r_epik_Ionization_Penalty>
3.1619e-05

> <r_epik_Ionization_Penalty_Charging>
0

> <r_epik_Ionization_Penalty_Neutral>
3.1619e-05

> <r_epik_State_Penalty>
-0

> <r_epik_Charging_Adjusted_Penalty>
0

> <i_epik_Tot_Q>
0

> <i_epik_Tot_abs_Q>
0

> <r_epik_Metal_State_Penalty>
-0

> <b_epik_Metal_Only>
0

> <s_lp_Force_Field>
OPLS_2005

> <r_lp_Energy>
3.21442

> <b_lp_Chiralities_Consistent>
1

> <s_lp_Variant>
AV-unprocessed.smi:2167-2

> <Gold.Version>
5.8.1

> <Gold.Id.Protein>
6NUR|6NUR_protein|mol2

> <Gold.PLP.Fitness>
35.7858

> <Gold.PLP.PLP>
-29.8543

> <Gold.PLP.part.hbond>
-1.8661

> <Gold.PLP.part.metal>
0.0000

> <Gold.PLP.part.buried>
-1.9943

> <Gold.PLP.part.nonpolar>
-26.6978

> <Gold.PLP.part.repulsive>
0.4026

> <Gold.PLP.ligand.clash>
0.0000

> <Gold.PLP.ligand.torsion>
0.4800

> <Gold.PLP.Chemscore.Hbond>
1.9100

> <Gold.PLP.Chemscore.CHOScore>
0.3628

> <Gold.PLP.Chemscore.Metal>
0.0000

> <Gold.Chemscore.Hbonds>
donor molecule, donor type, donor heavy atom, donor atom, acceptor molecule, acceptor atom, score
      L1  H    10    30       P1  7948  0.98
      L1  H    16    40       P1 10175  1.00
      L1  C    19    41       P1 10747  0.33

> <Gold.PLP.Chemscore.Internal.Correction>
0.0729

> <Gold.Rescore>
     Score         DG    S(hbond)    S(metal)    S(lipo)     H(rot)  DE(clash)    DE(int)     intcor
     15.79     -16.19       1.97        0.00      69.86       1.57       0.01       0.39       ----

> <Gold.Chemscore.Fitness>
15.7888

> <Gold.Chemscore.DG>
-16.1946

> <Gold.Chemscore.ZeroCoef>
-5.4800

> <Gold.Chemscore.Hbond>
1.9666

> <Gold.Chemscore.Metal>
0.0000

> <Gold.Chemscore.Lipo>
69.8602

> <Gold.Chemscore.Internal_Hbond>
0.0000

> <Gold.Chemscore.DEClash>
0.0131

> <Gold.Chemscore.DEInternal>
0.3926

> <Gold.Chemscore.Rot>
1.5733

> <Gold.Chemscore.Internal.Correction>
   9.000000E+99

> <Gold.Chemscore.Hbonds>
donor molecule, donor type, donor heavy atom, donor atom, acceptor molecule, acceptor atom, score
      L1  H    10    30       P1  7948  0.91
      L1  H    16    40       P1 10175  0.89

> <Gold.Chemscore.Hbond.Weighted>
-6.5685

> <Gold.Chemscore.Metal.Weighted>
-0.0000

> <Gold.Chemscore.Lipo.Weighted>
-8.1736

> <Gold.Chemscore.Internal_Hbond.Weighted>
0.0000

> <Gold.Chemscore.DEClash.Weighted>
0.0131

> <Gold.Chemscore.DEInternal.Weighted>
0.3926

> <Gold.Chemscore.Rot.Weighted>
4.0276

> <Gold.Chemscore.Internal.Correction.Weighted>
   9.000000E+99

> <Gold.Protein.RotatedTorsions>
[ 6907 6896 6895 6894 ] final -166.61 input  -60.11 | X-H torsion
[ 7974 7965 7964 7962 ] final   71.60 input  175.53 | X-H torsion
[ 8008 7997 7996 7995 ] final -150.10 input   59.86 | X-H torsion
[ 10167 10162 10161 10158 ] final    4.21 input  -65.29 | X-H torsion
[ 10718 10713 10712 10709 ] final  160.15 input   66.30 | X-H torsion
[ 10763 10752 10751 10750 ] final -172.90 input  -60.55 | X-H torsion
[ 11005 11000 10999 10996 ] final   54.21 input  -57.11 | X-H torsion

> <Gold.Protein.ActiveResidues>
 VAL166  LYS551  ARG553  GLY616  TRP617  ASP618  TYR619  PRO620  LYS621  CYS622 
 ASP623  PHE694  ASN695  SER759  ASP760  ASP761  ALA762  ILE779  LEU786  VAL792 
 PHE793  MET794  SER795  GLU796  ALA797  LYS798  CYS799  TRP800  GLU811  SER814 

> <Gold.Protein.RotatedAtoms>
  151.4463  133.3629  159.2788 H   0  0  0  0  0  0  0  0  0  0  0  0  # atno 6907 bound_to 6896
  150.9122  134.8541  159.7443 H   0  0  0  0  0  0  0  0  0  0  0  0  # atno 6908 bound_to 6896
  152.4938  134.4394  159.9590 H   0  0  0  0  0  0  0  0  0  0  0  0  # atno 6909 bound_to 6896
  145.7638  139.2812  143.1361 H   0  0  0  0  0  0  0  0  0  0  0  0  # atno 7974 bound_to 7965
  155.6181  140.0678  157.2686 H   0  0  0  0  0  0  0  0  0  0  0  0  # atno 8008 bound_to 7997
  154.4236  140.1789  156.1391 H   0  0  0  0  0  0  0  0  0  0  0  0  # atno 8009 bound_to 7997
  156.0031  140.3334  155.6869 H   0  0  0  0  0  0  0  0  0  0  0  0  # atno 8010 bound_to 7997
  140.6546  143.7458  150.7633 H   0  0  0  0  0  0  0  0  0  0  0  0  # atno 10167 bound_to 10162
  157.1544  131.0572  151.2264 H   0  0  0  0  0  0  0  0  0  0  0  0  # atno 10718 bound_to 10713
  154.6140  135.2867  155.0400 H   0  0  0  0  0  0  0  0  0  0  0  0  # atno 10763 bound_to 10752
  154.1620  135.6486  153.4992 H   0  0  0  0  0  0  0  0  0  0  0  0  # atno 10764 bound_to 10752
  153.0207  135.5380  154.6904 H   0  0  0  0  0  0  0  0  0  0  0  0  # atno 10765 bound_to 10752
  140.0705  134.5476  155.9052 H   0  0  0  0  0  0  0  0  0  0  0  0  # atno 11005 bound_to 11000
  146.0238  140.8323  142.9910 LP  0  0  0  0  0  0  0  0  0  0  0  0  # atno 17320 bound_to 7965
  144.6825  140.2668  143.7311 LP  0  0  0  0  0  0  0  0  0  0  0  0  # atno 17321 bound_to 7965
  140.1116  143.4694  152.2367 LP  0  0  0  0  0  0  0  0  0  0  0  0  # atno 17342 bound_to 10162
  139.5767  144.7491  151.3747 LP  0  0  0  0  0  0  0  0  0  0  0  0  # atno 17343 bound_to 10162
  157.4190  130.7427  149.6898 LP  0  0  0  0  0  0  0  0  0  0  0  0  # atno 17370 bound_to 10713
  155.9765  130.4075  150.3777 LP  0  0  0  0  0  0  0  0  0  0  0  0  # atno 17371 bound_to 10713
  141.2010  133.6616  156.5926 LP  0  0  0  0  0  0  0  0  0  0  0  0  # atno 17394 bound_to 11000
  140.3634  134.7668  157.4550 LP  0  0  0  0  0  0  0  0  0  0  0  0  # atno 17395 bound_to 11000

$$$$
