AV-unprocessed.smi:2179|AV-procd|sdf|8856|dock8
  -GOLD-   2272012 53D 1   1.00000     0.00000
 Structure written by MMmdl.
 47 48  0  0  0  0  0  0  0  0  1 V2000
  145.1581  134.9632  151.0241 C   0  0  0  0  0  0  0  0  0  0  0  0
  145.0234  136.1418  151.9827 C   0  0  0  0  0  0  0  0  0  0  0  0
  143.9190  136.4442  152.4331 O   0  0  0  0  0  0  0  0  0  0  0  0
  146.1544  136.7943  152.2909 N   0  0  0  0  0  0  0  0  0  0  0  0
  146.2404  137.9396  153.1887 C   0  0  0  0  0  0  0  0  0  0  0  0
  147.0908  139.0702  152.5819 C   0  0  0  0  0  0  0  0  0  0  0  0
  147.9400  139.6968  153.5872 N   0  0  0  0  0  0  0  0  0  0  0  0
  148.6480  139.0350  154.5169 C   0  0  0  0  0  0  0  0  0  0  0  0
  148.6762  137.8072  154.6035 O   0  0  0  0  0  0  0  0  0  0  0  0
  149.4765  139.8897  155.4316 C   0  0  0  0  0  0  0  0  0  0  0  0
  149.7676  141.2374  155.1284 C   0  0  0  0  0  0  0  0  0  0  0  0
  150.5283  141.9962  156.0385 C   0  0  0  0  0  0  0  0  0  0  0  0
  150.9781  141.3921  157.2364 C   0  0  0  0  0  0  0  0  0  0  0  0
  151.7431  142.1331  158.1637 N   0  0  0  0  0  0  0  0  0  0  0  0
  152.2454  141.3862  159.3137 C   0  0  0  0  0  0  0  0  0  0  0  0
  153.3124  142.2062  160.0635 C   0  0  2  0  0  0  0  0  0  0  0  0
  153.7766  141.5094  161.3467 C   0  0  0  0  0  0  0  0  0  0  0  0
  152.7675  143.4747  160.4161 O   0  0  0  0  0  0  0  0  0  0  0  0
  152.3859  144.2388  159.2756 C   0  0  2  0  0  0  0  0  0  0  0  0
  151.9055  145.6124  159.7551 C   0  0  0  0  0  0  0  0  0  0  0  0
  151.2901  143.4803  158.5043 C   0  0  0  0  0  0  0  0  0  0  0  0
  150.6826  140.1025  157.5324 N   0  0  0  0  0  0  0  0  0  0  0  0
  149.9522  139.3790  156.6579 C   0  0  0  0  0  0  0  0  0  0  0  0
  145.3440  134.0450  151.5818 H   0  0  0  0  0  0  0  0  0  0  0  0
  145.9808  135.1157  150.3246 H   0  0  0  0  0  0  0  0  0  0  0  0
  144.2420  134.8336  150.4468 H   0  0  0  0  0  0  0  0  0  0  0  0
  147.0162  136.4756  151.8719 H   0  0  0  0  0  0  0  0  0  0  0  0
  145.2267  138.2959  153.3741 H   0  0  0  0  0  0  0  0  0  0  0  0
  146.6412  137.6277  154.1550 H   0  0  0  0  0  0  0  0  0  0  0  0
  147.7007  138.6980  151.7566 H   0  0  0  0  0  0  0  0  0  0  0  0
  146.4418  139.8407  152.1645 H   0  0  0  0  0  0  0  0  0  0  0  0
  147.9970  140.7047  153.5738 H   0  0  0  0  0  0  0  0  0  0  0  0
  149.4115  141.6968  154.2178 H   0  0  0  0  0  0  0  0  0  0  0  0
  150.7402  143.0312  155.8159 H   0  0  0  0  0  0  0  0  0  0  0  0
  151.4088  141.1628  159.9771 H   0  0  0  0  0  0  0  0  0  0  0  0
  152.6768  140.4313  159.0168 H   0  0  0  0  0  0  0  0  0  0  0  0
  154.1800  142.3564  159.4181 H   0  0  0  0  0  0  0  0  0  0  0  0
  154.2148  140.5352  161.1283 H   0  0  0  0  0  0  0  0  0  0  0  0
  152.9455  141.3565  162.0359 H   0  0  0  0  0  0  0  0  0  0  0  0
  154.5307  142.1051  161.8618 H   0  0  0  0  0  0  0  0  0  0  0  0
  153.2562  144.3814  158.6324 H   0  0  0  0  0  0  0  0  0  0  0  0
  151.6104  146.2404  158.9142 H   0  0  0  0  0  0  0  0  0  0  0  0
  152.6946  146.1334  160.2978 H   0  0  0  0  0  0  0  0  0  0  0  0
  151.0474  145.5198  160.4216 H   0  0  0  0  0  0  0  0  0  0  0  0
  151.0391  144.0331  157.5980 H   0  0  0  0  0  0  0  0  0  0  0  0
  150.3834  143.4117  159.1075 H   0  0  0  0  0  0  0  0  0  0  0  0
  149.7489  138.3592  156.9510 H   0  0  0  0  0  0  0  0  0  0  0  0
  1  2  1  0  0  0  0
  1 24  1  0  0  0  0
  1 25  1  0  0  0  0
  1 26  1  0  0  0  0
  2  3  2  0  0  0  0
  2  4  1  0  0  0  0
  4  5  1  0  0  0  0
  4 27  1  0  0  0  0
  5  6  1  0  0  0  0
  5 28  1  0  0  0  0
  5 29  1  0  0  0  0
  6  7  1  0  0  0  0
  6 30  1  0  0  0  0
  6 31  1  0  0  0  0
  7  8  1  0  0  0  0
  7 32  1  0  0  0  0
  8  9  2  0  0  0  0
  8 10  1  0  0  0  0
 10 23  1  0  0  0  0
 10 11  2  0  0  0  0
 11 12  1  0  0  0  0
 11 33  1  0  0  0  0
 12 13  2  0  0  0  0
 12 34  1  0  0  0  0
 13 14  1  0  0  0  0
 13 22  1  0  0  0  0
 14 21  1  0  0  0  0
 14 15  1  0  0  0  0
 15 16  1  0  0  0  0
 15 35  1  0  0  0  0
 15 36  1  0  0  0  0
 16 17  1  0  0  0  0
 16 18  1  0  0  0  0
 16 37  1  0  0  0  0
 17 38  1  0  0  0  0
 17 39  1  0  0  0  0
 17 40  1  0  0  0  0
 18 19  1  0  0  0  0
 19 20  1  0  0  0  0
 19 21  1  0  0  0  0
 19 41  1  0  0  0  0
 20 42  1  0  0  0  0
 20 43  1  0  0  0  0
 20 44  1  0  0  0  0
 21 45  1  0  0  0  0
 21 46  1  0  0  0  0
 22 23  2  0  0  0  0
 23 47  1  0  0  0  0
M  END
> <s_m_source_file>
AV-unprocessed.smi

> <i_m_source_file_index>
2179

> <i_lp_mmshare_version>
43012

> <i_f3d_flags>
0

> <s_epik_input>
W0NIM11DKD1PKVtOSF1bQ0gyXVtDSDJdW05IXUMoPU8pYzFbY0hdW2NIXWMobltjSF0xKU4yW0NIMl1bQ0BASF0oW0NIM10pT1tDQEBIXShbQ0gzXSlbQ0gyXTI=

> <s_epik_cmdline>
J2VwaWtfcHl0aG9uJywgJy1waCcsICc3LjAnLCAnLXRuJywgJzgnLCAnLW1hJywgJzIwMCcsICctbWV0YWxfYmluZGluZycsICctaW1hZScsICc8aW5maWxlLm1hZT4nLCAnLW9tYWUnLCAnPG91dGZpbGUubWFlPic=

> <r_lp_tautomer_probability>
1

> <r_epik_Ionization_Penalty>
2.00433e-05

> <r_epik_Ionization_Penalty_Charging>
0

> <r_epik_Ionization_Penalty_Neutral>
2.00433e-05

> <r_epik_State_Penalty>
-0

> <r_epik_Charging_Adjusted_Penalty>
0

> <i_epik_Tot_Q>
0

> <i_epik_Tot_abs_Q>
0

> <r_epik_Metal_State_Penalty>
-0

> <b_epik_Metal_Only>
0

> <s_lp_Force_Field>
OPLS_2005

> <r_lp_Energy>
13.6511

> <b_lp_Chiralities_Consistent>
1

> <s_lp_Variant>
AV-unprocessed.smi:2179-1

> <Gold.Version>
5.8.1

> <Gold.Id.Protein>
6NUR|6NUR_protein|mol2

> <Gold.PLP.Fitness>
45.4590

> <Gold.PLP.PLP>
-43.7123

> <Gold.PLP.part.hbond>
-2.0000

> <Gold.PLP.part.metal>
0.0000

> <Gold.PLP.part.buried>
-3.6824

> <Gold.PLP.part.nonpolar>
-38.4334

> <Gold.PLP.part.repulsive>
0.8045

> <Gold.PLP.ligand.clash>
0.0000

> <Gold.PLP.ligand.torsion>
0.8020

> <Gold.PLP.Chemscore.Hbond>
1.0000

> <Gold.PLP.Chemscore.CHOScore>
0.0000

> <Gold.PLP.Chemscore.Metal>
0.0000

> <Gold.Chemscore.Hbonds>
donor molecule, donor type, donor heavy atom, donor atom, acceptor molecule, acceptor atom, score
      L1  H     4    27       P1  7948  1.00

> <Gold.PLP.Chemscore.Internal.Correction>
0.3508

> <Gold.Rescore>
     Score         DG    S(hbond)    S(metal)    S(lipo)     H(rot)  DE(clash)    DE(int)     intcor
     14.28     -16.66       0.99        0.00     107.86       1.86       0.33       2.05       ----

> <Gold.Chemscore.Fitness>
14.2818

> <Gold.Chemscore.DG>
-16.6622

> <Gold.Chemscore.ZeroCoef>
-5.4800

> <Gold.Chemscore.Hbond>
0.9943

> <Gold.Chemscore.Metal>
0.0000

> <Gold.Chemscore.Lipo>
107.8557

> <Gold.Chemscore.Internal_Hbond>
0.0000

> <Gold.Chemscore.DEClash>
0.3283

> <Gold.Chemscore.DEInternal>
2.0521

> <Gold.Chemscore.Rot>
1.8586

> <Gold.Chemscore.Internal.Correction>
   9.000000E+99

> <Gold.Chemscore.Hbonds>
donor molecule, donor type, donor heavy atom, donor atom, acceptor molecule, acceptor atom, score
      L1  H     4    27       P1  7948  0.97

> <Gold.Chemscore.Hbond.Weighted>
-3.3210

> <Gold.Chemscore.Metal.Weighted>
-0.0000

> <Gold.Chemscore.Lipo.Weighted>
-12.6191

> <Gold.Chemscore.Internal_Hbond.Weighted>
0.0000

> <Gold.Chemscore.DEClash.Weighted>
0.3283

> <Gold.Chemscore.DEInternal.Weighted>
2.0521

> <Gold.Chemscore.Rot.Weighted>
4.7579

> <Gold.Chemscore.Internal.Correction.Weighted>
   9.000000E+99

> <Gold.Protein.RotatedTorsions>
[ 6907 6896 6895 6894 ] final -128.79 input  -60.11 | X-H torsion
[ 7974 7965 7964 7962 ] final  -37.63 input  175.53 | X-H torsion
[ 8008 7997 7996 7995 ] final   75.89 input   59.86 | X-H torsion
[ 10167 10162 10161 10158 ] final  150.91 input  -65.29 | X-H torsion
[ 10718 10713 10712 10709 ] final   74.08 input   66.30 | X-H torsion
[ 10763 10752 10751 10750 ] final -131.69 input  -60.55 | X-H torsion
[ 11005 11000 10999 10996 ] final   39.35 input  -57.11 | X-H torsion

> <Gold.Protein.ActiveResidues>
 VAL166  LYS551  ARG553  GLY616  TRP617  ASP618  TYR619  PRO620  LYS621  CYS622 
 ASP623  PHE694  ASN695  SER759  ASP760  ASP761  ALA762  ILE779  LEU786  VAL792 
 PHE793  MET794  SER795  GLU796  ALA797  LYS798  CYS799  TRP800  GLU811  SER814 

> <Gold.Protein.RotatedAtoms>
  150.9217  133.6872  159.2830 H   0  0  0  0  0  0  0  0  0  0  0  0  # atno 6907 bound_to 6896
  151.4324  135.1010  159.9656 H   0  0  0  0  0  0  0  0  0  0  0  0  # atno 6908 bound_to 6896
  152.4983  133.8644  159.7322 H   0  0  0  0  0  0  0  0  0  0  0  0  # atno 6909 bound_to 6896
  146.0558  140.6418  142.9020 H   0  0  0  0  0  0  0  0  0  0  0  0  # atno 7974 bound_to 7965
  155.8195  140.3470  155.5505 H   0  0  0  0  0  0  0  0  0  0  0  0  # atno 8008 bound_to 7997
  155.8357  140.0934  157.1785 H   0  0  0  0  0  0  0  0  0  0  0  0  # atno 8009 bound_to 7997
  154.4004  140.1404  156.3655 H   0  0  0  0  0  0  0  0  0  0  0  0  # atno 8010 bound_to 7997
  139.4845  144.5484  151.7443 H   0  0  0  0  0  0  0  0  0  0  0  0  # atno 10167 bound_to 10162
  157.6576  130.9660  150.1160 H   0  0  0  0  0  0  0  0  0  0  0  0  # atno 10718 bound_to 10713
  154.8749  135.3822  154.4287 H   0  0  0  0  0  0  0  0  0  0  0  0  # atno 10763 bound_to 10752
  153.4984  135.7030  153.5850 H   0  0  0  0  0  0  0  0  0  0  0  0  # atno 10764 bound_to 10752
  153.4193  135.3905  155.2068 H   0  0  0  0  0  0  0  0  0  0  0  0  # atno 10765 bound_to 10752
  140.2037  134.3840  155.8083 H   0  0  0  0  0  0  0  0  0  0  0  0  # atno 11005 bound_to 11000
  144.7147  140.4167  143.7053 LP  0  0  0  0  0  0  0  0  0  0  0  0  # atno 17320 bound_to 7965
  145.6646  139.1587  143.2789 LP  0  0  0  0  0  0  0  0  0  0  0  0  # atno 17321 bound_to 7965
  140.5034  144.1134  150.5976 LP  0  0  0  0  0  0  0  0  0  0  0  0  # atno 17342 bound_to 10162
  140.4035  143.2692  151.9919 LP  0  0  0  0  0  0  0  0  0  0  0  0  # atno 17343 bound_to 10162
  156.2044  130.3662  149.8748 LP  0  0  0  0  0  0  0  0  0  0  0  0  # atno 17370 bound_to 10713
  156.6644  130.8795  151.3552 LP  0  0  0  0  0  0  0  0  0  0  0  0  # atno 17371 bound_to 10713
  141.2227  133.7107  156.8300 LP  0  0  0  0  0  0  0  0  0  0  0  0  # atno 17394 bound_to 11000
  140.2026  134.8886  157.3186 LP  0  0  0  0  0  0  0  0  0  0  0  0  # atno 17395 bound_to 11000

$$$$
