AV-unprocessed.smi:2580|AV-procd|sdf|10128|dock1
  -GOLD-   2272014143D 1   1.00000     0.00000
 Structure written by MMmdl.
 29 30  0  0  0  0  0  0  0  0  1 V2000
  149.1727  138.8407  156.5873 C   0  0  0  0  0  0  0  0  0  0  0  0
  150.4811  138.8238  155.7758 C   0  0  1  0  0  0  0  0  0  0  0  0
  150.3133  139.1439  154.3043 C   0  0  0  0  0  0  0  0  0  0  0  0
  151.7569  139.4143  153.8976 C   0  0  0  0  0  0  0  0  0  0  0  0
  152.3550  140.0493  155.0244 O   0  0  0  0  0  0  0  0  0  0  0  0
  151.6008  139.7952  156.2110 C   0  0  1  0  0  0  0  0  0  0  0  0
  151.1277  141.1523  156.7581 C   0  0  0  0  0  0  0  0  0  0  0  0
  150.0764  141.6477  156.3496 O   0  0  0  0  0  0  0  0  0  0  0  0
  151.9421  141.7274  157.6621 N   0  0  0  0  0  0  0  0  0  0  0  0
  151.7720  142.9570  158.3556 C   0  0  0  0  0  0  0  0  0  0  0  0
  150.5953  143.6326  158.3845 N   0  0  0  0  0  0  0  0  0  0  0  0
  150.5135  144.7932  159.0678 C   0  0  0  0  0  0  0  0  0  0  0  0
  151.5985  145.3525  159.7659 C   0  0  0  0  0  0  0  0  0  0  0  0
  152.8236  144.6633  159.7465 C   0  0  0  0  0  0  0  0  0  0  0  0
  152.9153  143.4504  159.0348 C   0  0  0  0  0  0  0  0  0  0  0  0
  154.4220  142.6000  159.0105 Cl  0  0  0  0  0  0  0  0  0  0  0  0
  148.6429  139.7890  156.4944 H   0  0  0  0  0  0  0  0  0  0  0  0
  149.3672  138.6662  157.6457 H   0  0  0  0  0  0  0  0  0  0  0  0
  148.4967  138.0579  156.2429 H   0  0  0  0  0  0  0  0  0  0  0  0
  150.8894  137.8141  155.8488 H   0  0  0  0  0  0  0  0  0  0  0  0
  149.8590  138.3310  153.7372 H   0  0  0  0  0  0  0  0  0  0  0  0
  149.7054  140.0389  154.1663 H   0  0  0  0  0  0  0  0  0  0  0  0
  152.2798  138.4761  153.7070 H   0  0  0  0  0  0  0  0  0  0  0  0
  151.8330  140.0331  153.0033 H   0  0  0  0  0  0  0  0  0  0  0  0
  152.2458  139.3104  156.9459 H   0  0  0  0  0  0  0  0  0  0  0  0
  152.7868  141.2210  157.8844 H   0  0  0  0  0  0  0  0  0  0  0  0
  149.5545  145.2897  159.0567 H   0  0  0  0  0  0  0  0  0  0  0  0
  151.4932  146.2847  160.3010 H   0  0  0  0  0  0  0  0  0  0  0  0
  153.6811  145.0596  160.2700 H   0  0  0  0  0  0  0  0  0  0  0  0
  1  2  1  0  0  0  0
  1 17  1  0  0  0  0
  1 18  1  0  0  0  0
  1 19  1  0  0  0  0
  2  6  1  0  0  0  0
  2  3  1  0  0  0  0
  2 20  1  0  0  0  0
  3  4  1  0  0  0  0
  3 21  1  0  0  0  0
  3 22  1  0  0  0  0
  4  5  1  0  0  0  0
  4 23  1  0  0  0  0
  4 24  1  0  0  0  0
  5  6  1  0  0  0  0
  6  7  1  0  0  0  0
  6 25  1  0  0  0  0
  7  8  2  0  0  0  0
  7  9  1  0  0  0  0
  9 10  1  0  0  0  0
  9 26  1  0  0  0  0
 10 15  1  0  0  0  0
 10 11  2  0  0  0  0
 11 12  1  0  0  0  0
 12 13  2  0  0  0  0
 12 27  1  0  0  0  0
 13 14  1  0  0  0  0
 13 28  1  0  0  0  0
 14 15  2  0  0  0  0
 14 29  1  0  0  0  0
 15 16  1  0  0  0  0
M  END
> <s_m_source_file>
AV-unprocessed.smi

> <i_m_source_file_index>
2580

> <i_lp_mmshare_version>
43012

> <i_f3d_flags>
0

> <s_epik_input>
W0NIM11bQ0BASF0xW0NIMl1bQ0gyXU9bQ0BIXTFDKD1PKVtOSF1jMm5bY0hdW2NIXVtjSF1jMkNs

> <s_epik_cmdline>
J2VwaWtfcHl0aG9uJywgJy1waCcsICc3LjAnLCAnLXRuJywgJzgnLCAnLW1hJywgJzIwMCcsICctbWV0YWxfYmluZGluZycsICctaW1hZScsICc8aW5maWxlLm1hZT4nLCAnLW9tYWUnLCAnPG91dGZpbGUubWFlPic=

> <r_lp_tautomer_probability>
1

> <r_epik_Ionization_Penalty>
4.32497e-05

> <r_epik_Ionization_Penalty_Charging>
0

> <r_epik_Ionization_Penalty_Neutral>
4.32497e-05

> <r_epik_State_Penalty>
-0

> <r_epik_Charging_Adjusted_Penalty>
0

> <i_epik_Tot_Q>
0

> <i_epik_Tot_abs_Q>
0

> <r_epik_Metal_State_Penalty>
-0

> <b_epik_Metal_Only>
0

> <s_lp_Force_Field>
OPLS_2005

> <r_lp_Energy>
21.8513

> <b_lp_Chiralities_Consistent>
1

> <s_lp_Variant>
AV-unprocessed.smi:2580-2

> <Gold.Version>
5.8.1

> <Gold.Id.Protein>
6NUR|6NUR_protein|mol2

> <Gold.PLP.Fitness>
38.8442

> <Gold.PLP.PLP>
-34.4078

> <Gold.PLP.part.hbond>
-1.0000

> <Gold.PLP.part.metal>
0.0000

> <Gold.PLP.part.buried>
-5.6256

> <Gold.PLP.part.nonpolar>
-27.4130

> <Gold.PLP.part.repulsive>
0.3057

> <Gold.PLP.ligand.clash>
0.0000

> <Gold.PLP.ligand.torsion>
0.7794

> <Gold.PLP.Chemscore.Hbond>
1.0000

> <Gold.PLP.Chemscore.CHOScore>
0.9946

> <Gold.PLP.Chemscore.Metal>
0.0000

> <Gold.Chemscore.Hbonds>
donor molecule, donor type, donor heavy atom, donor atom, acceptor molecule, acceptor atom, score
      L1  C    12    27       P1  8029  1.00

> <Gold.PLP.Chemscore.Internal.Correction>
0.0114

> <Gold.Rescore>
     Score         DG    S(hbond)    S(metal)    S(lipo)     H(rot)  DE(clash)    DE(int)     intcor
     15.21     -16.08       0.98        0.00      84.55       1.00       0.01       0.86       ----

> <Gold.Chemscore.Fitness>
15.2078

> <Gold.Chemscore.DG>
-16.0792

> <Gold.Chemscore.ZeroCoef>
-5.4800

> <Gold.Chemscore.Hbond>
0.9779

> <Gold.Chemscore.Metal>
0.0000

> <Gold.Chemscore.Lipo>
84.5547

> <Gold.Chemscore.Internal_Hbond>
0.0000

> <Gold.Chemscore.DEClash>
0.0126

> <Gold.Chemscore.DEInternal>
0.8587

> <Gold.Chemscore.Rot>
1.0000

> <Gold.Chemscore.Internal.Correction>
   9.000000E+99

> <Gold.Chemscore.Hbond.Weighted>
-3.2663

> <Gold.Chemscore.Metal.Weighted>
-0.0000

> <Gold.Chemscore.Lipo.Weighted>
-9.8929

> <Gold.Chemscore.Internal_Hbond.Weighted>
0.0000

> <Gold.Chemscore.DEClash.Weighted>
0.0126

> <Gold.Chemscore.DEInternal.Weighted>
0.8587

> <Gold.Chemscore.Rot.Weighted>
2.5600

> <Gold.Chemscore.Internal.Correction.Weighted>
   9.000000E+99

> <Gold.Protein.RotatedTorsions>
[ 6907 6896 6895 6894 ] final  163.66 input  -60.11 | X-H torsion
[ 7974 7965 7964 7962 ] final -134.40 input  175.53 | X-H torsion
[ 8008 7997 7996 7995 ] final -171.64 input   59.86 | X-H torsion
[ 10167 10162 10161 10158 ] final   87.50 input  -65.29 | X-H torsion
[ 10718 10713 10712 10709 ] final  -28.62 input   66.30 | X-H torsion
[ 10763 10752 10751 10750 ] final   66.16 input  -60.55 | X-H torsion
[ 11005 11000 10999 10996 ] final  175.72 input  -57.11 | X-H torsion

> <Gold.Protein.ActiveResidues>
 VAL166  LYS551  ARG553  GLY616  TRP617  ASP618  TYR619  PRO620  LYS621  CYS622 
 ASP623  PHE694  ASN695  SER759  ASP760  ASP761  ALA762  ILE779  LEU786  VAL792 
 PHE793  MET794  SER795  GLU796  ALA797  LYS798  CYS799  TRP800  GLU811  SER814 

> <Gold.Protein.RotatedAtoms>
  151.9218  133.3587  159.3899 H   0  0  0  0  0  0  0  0  0  0  0  0  # atno 6907 bound_to 6896
  150.7035  134.4627  159.5397 H   0  0  0  0  0  0  0  0  0  0  0  0  # atno 6908 bound_to 6896
  152.2252  134.8375  160.0531 H   0  0  0  0  0  0  0  0  0  0  0  0  # atno 6909 bound_to 6896
  144.9106  140.6890  143.5027 H   0  0  0  0  0  0  0  0  0  0  0  0  # atno 7974 bound_to 7965
  155.9342  140.1096  157.1108 H   0  0  0  0  0  0  0  0  0  0  0  0  # atno 8008 bound_to 7997
  154.4076  140.1231  156.4907 H   0  0  0  0  0  0  0  0  0  0  0  0  # atno 8009 bound_to 7997
  155.7043  140.3471  155.4948 H   0  0  0  0  0  0  0  0  0  0  0  0  # atno 8010 bound_to 7997
  139.8767  144.6463  150.8889 H   0  0  0  0  0  0  0  0  0  0  0  0  # atno 10167 bound_to 10162
  156.4229  130.4430  149.7171 H   0  0  0  0  0  0  0  0  0  0  0  0  # atno 10718 bound_to 10713
  153.0127  135.5331  154.6780 H   0  0  0  0  0  0  0  0  0  0  0  0  # atno 10763 bound_to 10752
  154.5947  135.2862  155.0601 H   0  0  0  0  0  0  0  0  0  0  0  0  # atno 10764 bound_to 10752
  154.1680  135.6536  153.5055 H   0  0  0  0  0  0  0  0  0  0  0  0  # atno 10765 bound_to 10752
  140.3653  134.7077  157.4357 H   0  0  0  0  0  0  0  0  0  0  0  0  # atno 11005 bound_to 11000
  145.3461  139.1719  143.4459 LP  0  0  0  0  0  0  0  0  0  0  0  0  # atno 17320 bound_to 7965
  146.3156  140.3508  142.8656 LP  0  0  0  0  0  0  0  0  0  0  0  0  # atno 17321 bound_to 7965
  140.7751  143.3619  151.1812 LP  0  0  0  0  0  0  0  0  0  0  0  0  # atno 17342 bound_to 10162
  139.7234  143.9187  152.2993 LP  0  0  0  0  0  0  0  0  0  0  0  0  # atno 17343 bound_to 10162
  156.4104  130.7719  151.2732 LP  0  0  0  0  0  0  0  0  0  0  0  0  # atno 17370 bound_to 10713
  157.7508  131.0213  150.3744 LP  0  0  0  0  0  0  0  0  0  0  0  0  # atno 17371 bound_to 10713
  140.0594  134.6016  155.8766 LP  0  0  0  0  0  0  0  0  0  0  0  0  # atno 17394 bound_to 11000
  141.1971  133.6595  156.5727 LP  0  0  0  0  0  0  0  0  0  0  0  0  # atno 17395 bound_to 11000

$$$$
