AV-unprocessed.smi:2341|AV-procd|sdf|9352|dock4
  -GOLD-   2272012573D 1   1.00000     0.00000
 Structure written by MMmdl.
 52 54  0  0  0  0  0  0  0  0  2 V2000
  143.6544  133.4732  151.3320 C   0  0  0  0  0  0  0  0  0  0  0  0
  144.3824  134.7159  151.7992 C   0  0  0  0  0  0  0  0  0  0  0  0
  144.4653  135.0426  153.1662 C   0  0  0  0  0  0  0  0  0  0  0  0
  145.1543  136.2110  153.5439 C   0  0  0  0  0  0  0  0  0  0  0  0
  145.7422  137.0244  152.5491 C   0  0  0  0  0  0  0  0  0  0  0  0
  146.4124  138.1784  153.0354 N   0  0  0  0  0  0  0  0  0  0  0  0
  147.1828  138.2918  154.1316 C   0  0  0  0  0  0  0  0  0  0  0  0
  147.4435  137.3813  154.9185 O   0  0  0  0  0  0  0  0  0  0  0  0
  147.6475  139.5420  154.2715 N   0  0  0  0  0  0  0  0  0  0  0  0
  148.5036  140.0004  155.3617 C   0  0  2  0  0  0  0  0  0  0  0  0
  147.6920  140.8602  156.3391 C   0  0  0  0  0  0  0  0  0  0  0  0
  148.5779  141.4284  157.4616 C   0  0  0  0  0  0  0  0  0  0  0  0
  149.7228  142.2153  156.9166 N   0  3  1  0  0  0  0  0  0  0  0  0
  150.5784  142.9140  157.9317 C   0  0  0  0  0  0  0  0  0  0  0  0
  151.5237  143.9949  157.3412 C   0  0  0  0  0  0  0  0  0  0  0  0
  152.3999  144.6533  158.4192 C   0  0  0  0  0  0  0  0  0  0  0  0
  153.2206  143.6099  159.1862 C   0  0  0  0  0  0  0  0  0  0  0  0
  152.3036  142.5416  159.7939 C   0  0  0  0  0  0  0  0  0  0  0  0
  151.4252  141.8822  158.7188 C   0  0  0  0  0  0  0  0  0  0  0  0
  150.5326  141.3820  155.9820 C   0  0  0  0  0  0  0  0  0  0  0  0
  149.6835  140.8279  154.8273 C   0  0  0  0  0  0  0  0  0  0  0  0
  145.6560  136.7017  151.2345 N   0  0  0  0  0  0  0  0  0  0  0  0
  144.9958  135.5815  150.8732 C   0  0  0  0  0  0  0  0  0  0  0  0
  143.3946  132.8279  152.1716 H   0  0  0  0  0  0  0  0  0  0  0  0
  144.2797  132.9021  150.6454 H   0  0  0  0  0  0  0  0  0  0  0  0
  142.7357  133.7476  150.8136 H   0  0  0  0  0  0  0  0  0  0  0  0
  144.0102  134.4118  153.9157 H   0  0  0  0  0  0  0  0  0  0  0  0
  145.2275  136.4759  154.5887 H   0  0  0  0  0  0  0  0  0  0  0  0
  146.2887  139.0147  152.4844 H   0  0  0  0  0  0  0  0  0  0  0  0
  147.3833  140.2274  153.5786 H   0  0  0  0  0  0  0  0  0  0  0  0
  148.8873  139.1333  155.9031 H   0  0  0  0  0  0  0  0  0  0  0  0
  147.2185  141.6843  155.8030 H   0  0  0  0  0  0  0  0  0  0  0  0
  146.8836  140.2705  156.7733 H   0  0  0  0  0  0  0  0  0  0  0  0
  147.9351  142.0534  158.0800 H   0  0  0  0  0  0  0  0  0  0  0  0
  148.9539  140.6217  158.0930 H   0  0  0  0  0  0  0  0  0  0  0  0
  149.9125  143.4254  158.6295 H   0  0  0  0  0  0  0  0  0  0  0  0
  152.1664  143.5525  156.5786 H   0  0  0  0  0  0  0  0  0  0  0  0
  150.9528  144.7875  156.8572 H   0  0  0  0  0  0  0  0  0  0  0  0
  153.0668  145.3840  157.9603 H   0  0  0  0  0  0  0  0  0  0  0  0
  151.7688  145.2069  159.1156 H   0  0  0  0  0  0  0  0  0  0  0  0
  153.9396  143.1397  158.5140 H   0  0  0  0  0  0  0  0  0  0  0  0
  153.8008  144.0947  159.9719 H   0  0  0  0  0  0  0  0  0  0  0  0
  152.9035  141.7840  160.2989 H   0  0  0  0  0  0  0  0  0  0  0  0
  151.6699  142.9934  160.5582 H   0  0  0  0  0  0  0  0  0  0  0  0
  150.7943  141.1417  159.2079 H   0  0  0  0  0  0  0  0  0  0  0  0
  152.0602  141.3279  158.0260 H   0  0  0  0  0  0  0  0  0  0  0  0
  151.3527  141.9573  155.5561 H   0  0  0  0  0  0  0  0  0  0  0  0
  150.9877  140.5577  156.5335 H   0  0  0  0  0  0  0  0  0  0  0  0
  150.3096  140.2152  154.1777 H   0  0  0  0  0  0  0  0  0  0  0  0
  149.3168  141.6533  154.2149 H   0  0  0  0  0  0  0  0  0  0  0  0
  144.9564  135.3719  149.8144 H   0  0  0  0  0  0  0  0  0  0  0  0
  149.3029  142.9484  156.3628 H   0  0  0  0  0  0  0  0  0  0  0  0
  1  2  1  0  0  0  0
  1 24  1  0  0  0  0
  1 25  1  0  0  0  0
  1 26  1  0  0  0  0
  2 23  1  0  0  0  0
  2  3  2  0  0  0  0
  3  4  1  0  0  0  0
  3 27  1  0  0  0  0
  4  5  2  0  0  0  0
  4 28  1  0  0  0  0
  5  6  1  0  0  0  0
  5 22  1  0  0  0  0
  6  7  1  0  0  0  0
  6 29  1  0  0  0  0
  7  8  2  0  0  0  0
  7  9  1  0  0  0  0
  9 10  1  0  0  0  0
  9 30  1  0  0  0  0
 10 21  1  0  0  0  0
 10 11  1  0  0  0  0
 10 31  1  0  0  0  0
 11 12  1  0  0  0  0
 11 32  1  0  0  0  0
 11 33  1  0  0  0  0
 12 13  1  0  0  0  0
 12 34  1  0  0  0  0
 12 35  1  0  0  0  0
 13 14  1  0  0  0  0
 13 20  1  0  0  0  0
 13 52  1  0  0  0  0
 14 19  1  0  0  0  0
 14 15  1  0  0  0  0
 14 36  1  0  0  0  0
 15 16  1  0  0  0  0
 15 37  1  0  0  0  0
 15 38  1  0  0  0  0
 16 17  1  0  0  0  0
 16 39  1  0  0  0  0
 16 40  1  0  0  0  0
 17 18  1  0  0  0  0
 17 41  1  0  0  0  0
 17 42  1  0  0  0  0
 18 19  1  0  0  0  0
 18 43  1  0  0  0  0
 18 44  1  0  0  0  0
 19 45  1  0  0  0  0
 19 46  1  0  0  0  0
 20 21  1  0  0  0  0
 20 47  1  0  0  0  0
 20 48  1  0  0  0  0
 21 49  1  0  0  0  0
 21 50  1  0  0  0  0
 22 23  2  0  0  0  0
 23 51  1  0  0  0  0
M  CHG  1  13   1
M  END
> <s_m_source_file>
AV-unprocessed.smi

> <i_m_source_file_index>
2341

> <i_lp_mmshare_version>
43012

> <i_f3d_flags>
0

> <s_epik_input>
W0NIM11jMVtjSF1bY0hdYyhuW2NIXTEpW05IXUMoPU8pW05IXVtDSF0yW0NIMl1bQ0gyXU4oW0NIMl1bQ0gyXTIpW0NIXTNbQ0gyXVtDSDJdW0NIMl1bQ0gyXVtDSDJdMw==

> <s_epik_cmdline>
J2VwaWtfcHl0aG9uJywgJy1waCcsICc3LjAnLCAnLXRuJywgJzgnLCAnLW1hJywgJzIwMCcsICctbWV0YWxfYmluZGluZycsICctaW1hZScsICc8aW5maWxlLm1hZT4nLCAnLW9tYWUnLCAnPG91dGZpbGUubWFlPic=

> <r_epik_Ionization_Penalty>
0.00176486

> <r_epik_Ionization_Penalty_Charging>
0.00171891

> <r_epik_Ionization_Penalty_Neutral>
4.59494e-05

> <r_epik_State_Penalty>
0.00116222

> <r_epik_Charging_Adjusted_Penalty>
0.00288114

> <i_epik_Tot_Q>
1

> <i_epik_Tot_abs_Q>
1

> <r_epik_Metal_State_Penalty>
-0

> <b_epik_Metal_Only>
0

> <s_lp_Force_Field>
OPLS_2005

> <r_lp_Energy>
29.4095

> <b_lp_Chiralities_Consistent>
1

> <s_lp_Variant>
AV-unprocessed.smi:2341-1

> <Gold.Version>
5.8.1

> <Gold.Id.Protein>
6NUR|6NUR_protein|mol2

> <Gold.PLP.Fitness>
47.6297

> <Gold.PLP.PLP>
-39.7304

> <Gold.PLP.part.hbond>
-1.3897

> <Gold.PLP.part.metal>
0.0000

> <Gold.PLP.part.buried>
-4.9517

> <Gold.PLP.part.nonpolar>
-34.8270

> <Gold.PLP.part.repulsive>
0.4890

> <Gold.PLP.ligand.clash>
0.0000

> <Gold.PLP.ligand.torsion>
0.5703

> <Gold.PLP.Chemscore.Hbond>
2.0000

> <Gold.PLP.Chemscore.CHOScore>
1.0000

> <Gold.PLP.Chemscore.Metal>
0.0000

> <Gold.Chemscore.Hbonds>
donor molecule, donor type, donor heavy atom, donor atom, acceptor molecule, acceptor atom, score
      L1  H    13    52       P1  8028  2.00
      L1  C    23    51       P1  7921  0.99

> <Gold.PLP.Chemscore.Internal.Correction>
0.0398

> <Gold.Rescore>
     Score         DG    S(hbond)    S(metal)    S(lipo)     H(rot)  DE(clash)    DE(int)     intcor
     16.59     -19.24       0.98        0.00     115.59       1.19       0.70       1.96       ----

> <Gold.Chemscore.Fitness>
16.5859

> <Gold.Chemscore.DG>
-19.2428

> <Gold.Chemscore.ZeroCoef>
-5.4800

> <Gold.Chemscore.Hbond>
0.9849

> <Gold.Chemscore.Metal>
0.0000

> <Gold.Chemscore.Lipo>
115.5923

> <Gold.Chemscore.Internal_Hbond>
0.0000

> <Gold.Chemscore.DEClash>
0.6994

> <Gold.Chemscore.DEInternal>
1.9575

> <Gold.Chemscore.Rot>
1.1918

> <Gold.Chemscore.Internal.Correction>
   9.000000E+99

> <Gold.Chemscore.Hbonds>
donor molecule, donor type, donor heavy atom, donor atom, acceptor molecule, acceptor atom, score
      L1  H    13    52       P1  8028  0.99

> <Gold.Chemscore.Hbond.Weighted>
-3.2896

> <Gold.Chemscore.Metal.Weighted>
-0.0000

> <Gold.Chemscore.Lipo.Weighted>
-13.5243

> <Gold.Chemscore.Internal_Hbond.Weighted>
0.0000

> <Gold.Chemscore.DEClash.Weighted>
0.6994

> <Gold.Chemscore.DEInternal.Weighted>
1.9575

> <Gold.Chemscore.Rot.Weighted>
3.0511

> <Gold.Chemscore.Internal.Correction.Weighted>
   9.000000E+99

> <Gold.Protein.RotatedTorsions>
[ 6907 6896 6895 6894 ] final -155.84 input  -60.11 | X-H torsion
[ 7974 7965 7964 7962 ] final  123.84 input  175.53 | X-H torsion
[ 8008 7997 7996 7995 ] final  -35.53 input   59.86 | X-H torsion
[ 10167 10162 10161 10158 ] final  -10.60 input  -65.29 | X-H torsion
[ 10718 10713 10712 10709 ] final  139.99 input   66.30 | X-H torsion
[ 10763 10752 10751 10750 ] final  -51.25 input  -60.55 | X-H torsion
[ 11005 11000 10999 10996 ] final   96.39 input  -57.11 | X-H torsion

> <Gold.Protein.ActiveResidues>
 VAL166  LYS551  ARG553  GLY616  TRP617  ASP618  TYR619  PRO620  LYS621  CYS622 
 ASP623  PHE694  ASN695  SER759  ASP760  ASP761  ALA762  ILE779  LEU786  VAL792 
 PHE793  MET794  SER795  GLU796  ALA797  LYS798  CYS799  TRP800  GLU811  SER814 

> <Gold.Protein.RotatedAtoms>
  151.2786  133.4220  159.2625 H   0  0  0  0  0  0  0  0  0  0  0  0  # atno 6907 bound_to 6896
  151.0381  134.9588  159.8157 H   0  0  0  0  0  0  0  0  0  0  0  0  # atno 6908 bound_to 6896
  152.5359  134.2744  159.9036 H   0  0  0  0  0  0  0  0  0  0  0  0  # atno 6909 bound_to 6896
  145.0913  139.3585  143.4859 H   0  0  0  0  0  0  0  0  0  0  0  0  # atno 7974 bound_to 7965
  154.4093  140.1655  156.2227 H   0  0  0  0  0  0  0  0  0  0  0  0  # atno 8008 bound_to 7997
  155.9350  140.3412  155.6257 H   0  0  0  0  0  0  0  0  0  0  0  0  # atno 8009 bound_to 7997
  155.7060  140.0751  157.2381 H   0  0  0  0  0  0  0  0  0  0  0  0  # atno 8010 bound_to 7997
  140.7118  143.5730  150.9072 H   0  0  0  0  0  0  0  0  0  0  0  0  # atno 10167 bound_to 10162
  157.4083  131.1025  151.0481 H   0  0  0  0  0  0  0  0  0  0  0  0  # atno 10718 bound_to 10713
  154.1235  135.6531  153.4907 H   0  0  0  0  0  0  0  0  0  0  0  0  # atno 10763 bound_to 10752
  153.0218  135.5276  154.7073 H   0  0  0  0  0  0  0  0  0  0  0  0  # atno 10764 bound_to 10752
  154.6287  135.2973  155.0212 H   0  0  0  0  0  0  0  0  0  0  0  0  # atno 10765 bound_to 10752
  139.8782  134.8948  156.4152 H   0  0  0  0  0  0  0  0  0  0  0  0  # atno 11005 bound_to 11000
  146.3531  140.0748  142.8621 LP  0  0  0  0  0  0  0  0  0  0  0  0  # atno 17320 bound_to 7965
  145.1063  140.9377  143.4683 LP  0  0  0  0  0  0  0  0  0  0  0  0  # atno 17321 bound_to 7965
  139.9456  143.6331  152.3042 LP  0  0  0  0  0  0  0  0  0  0  0  0  # atno 17342 bound_to 10162
  139.6831  144.7654  151.1572 LP  0  0  0  0  0  0  0  0  0  0  0  0  # atno 17343 bound_to 10162
  157.1454  130.6161  149.5567 LP  0  0  0  0  0  0  0  0  0  0  0  0  # atno 17370 bound_to 10713
  155.9843  130.4867  150.6976 LP  0  0  0  0  0  0  0  0  0  0  0  0  # atno 17371 bound_to 10713
  140.9172  133.7670  155.9863 LP  0  0  0  0  0  0  0  0  0  0  0  0  # atno 17394 bound_to 11000
  140.8480  134.2988  157.5287 LP  0  0  0  0  0  0  0  0  0  0  0  0  # atno 17395 bound_to 11000

$$$$
