AV-unprocessed.smi:2482|AV-procd|sdf|9783|dock10
  -GOLD-   2272013423D 1   1.00000     0.00000
 Structure written by MMmdl.
 34 35  0  0  0  0  0  0  0  0  3 V2000
  152.4166  143.9625  161.7117 C   0  0  0  0  0  0  0  0  0  0  0  0
  152.3708  142.8753  160.6541 C   0  0  0  0  0  0  0  0  0  0  0  0
  152.9897  141.7201  160.9798 N   0  0  0  0  0  0  0  0  0  0  0  0
  152.9804  140.7251  160.0710 C   0  0  0  0  0  0  0  0  0  0  0  0
  152.3592  140.8337  158.8127 C   0  0  0  0  0  0  0  0  0  0  0  0
  151.7007  142.0332  158.4612 C   0  0  0  0  0  0  0  0  0  0  0  0
  151.1087  142.1532  157.2614 N   0  5  0  0  0  0  0  0  0  0  0  0
  150.3025  141.1652  156.8030 C   0  0  0  0  0  0  0  0  0  0  0  0
  149.8017  140.2308  157.4324 O   0  0  0  0  0  0  0  0  0  0  0  0
  150.0314  141.3134  155.2890 C   0  0  2  0  0  0  0  0  0  0  0  0
  148.5375  141.4706  154.9180 C   0  0  0  0  0  0  0  0  0  0  0  0
  147.7982  140.2038  155.1314 N   0  3  1  0  0  0  0  0  0  0  0  0
  146.3524  140.3321  154.8530 C   0  0  0  0  0  0  0  0  0  0  0  0
  148.4303  139.0928  154.3848 C   0  0  0  0  0  0  0  0  0  0  0  0
  149.9125  138.9645  154.7724 C   0  0  0  0  0  0  0  0  0  0  0  0
  150.5741  140.2098  154.5534 O   0  0  0  0  0  0  0  0  0  0  0  0
  151.7176  143.0836  159.4157 C   0  0  0  0  0  0  0  0  0  0  0  0
  150.9525  144.6027  159.0792 Cl  0  0  0  0  0  0  0  0  0  0  0  0
  151.4067  144.2322  162.0218 H   0  0  0  0  0  0  0  0  0  0  0  0
  152.9068  144.8533  161.3179 H   0  0  0  0  0  0  0  0  0  0  0  0
  152.9660  143.6392  162.5967 H   0  0  0  0  0  0  0  0  0  0  0  0
  153.4846  139.8131  160.3541 H   0  0  0  0  0  0  0  0  0  0  0  0
  152.3872  140.0005  158.1255 H   0  0  0  0  0  0  0  0  0  0  0  0
  150.5551  142.2119  154.9588 H   0  0  0  0  0  0  0  0  0  0  0  0
  148.0819  142.2696  155.5052 H   0  0  0  0  0  0  0  0  0  0  0  0
  148.4500  141.7670  153.8716 H   0  0  0  0  0  0  0  0  0  0  0  0
  146.1754  140.5771  153.8049 H   0  0  0  0  0  0  0  0  0  0  0  0
  145.9117  141.1171  155.4684 H   0  0  0  0  0  0  0  0  0  0  0  0
  145.8335  139.4005  155.0800 H   0  0  0  0  0  0  0  0  0  0  0  0
  147.9095  138.1589  154.5997 H   0  0  0  0  0  0  0  0  0  0  0  0
  148.3388  139.2731  153.3125 H   0  0  0  0  0  0  0  0  0  0  0  0
  150.0181  138.6376  155.8075 H   0  0  0  0  0  0  0  0  0  0  0  0
  150.3931  138.2031  154.1582 H   0  0  0  0  0  0  0  0  0  0  0  0
  147.8883  139.9831  156.1136 H   0  0  0  0  0  0  0  0  0  0  0  0
  1  2  1  0  0  0  0
  1 19  1  0  0  0  0
  1 20  1  0  0  0  0
  1 21  1  0  0  0  0
  2 17  1  0  0  0  0
  2  3  2  0  0  0  0
  3  4  1  0  0  0  0
  4  5  2  0  0  0  0
  4 22  1  0  0  0  0
  5  6  1  0  0  0  0
  5 23  1  0  0  0  0
  6  7  1  0  0  0  0
  6 17  2  0  0  0  0
  7  8  1  0  0  0  0
  8  9  2  0  0  0  0
  8 10  1  0  0  0  0
 10 16  1  0  0  0  0
 10 11  1  0  0  0  0
 10 24  1  0  0  0  0
 11 12  1  0  0  0  0
 11 25  1  0  0  0  0
 11 26  1  0  0  0  0
 12 13  1  0  0  0  0
 12 14  1  0  0  0  0
 12 34  1  0  0  0  0
 13 27  1  0  0  0  0
 13 28  1  0  0  0  0
 13 29  1  0  0  0  0
 14 15  1  0  0  0  0
 14 30  1  0  0  0  0
 14 31  1  0  0  0  0
 15 16  1  0  0  0  0
 15 32  1  0  0  0  0
 15 33  1  0  0  0  0
 17 18  1  0  0  0  0
M  CHG  1   7  -1
M  CHG  1  12   1
M  END
> <s_m_source_file>
AV-unprocessed.smi

> <i_m_source_file_index>
2482

> <i_lp_mmshare_version>
43012

> <i_f3d_flags>
0

> <s_epik_input>
W0NIM11jMW5bY0hdW2NIXWMoYzFDbClbTkhdQyg9TylbQ0BASF0yW0NIMl1OKFtDSDNdKVtDSDJdW0NIMl1PMg==

> <s_epik_cmdline>
J2VwaWtfcHl0aG9uJywgJy1waCcsICc3LjAnLCAnLXRuJywgJzgnLCAnLW1hJywgJzIwMCcsICctbWV0YWxfYmluZGluZycsICctaW1hZScsICc8aW5maWxlLm1hZT4nLCAnLW9tYWUnLCAnPG91dGZpbGUubWFlPic=

> <r_epik_Ionization_Penalty>
6.9249

> <r_epik_Ionization_Penalty_Charging>
6.74596

> <r_epik_Ionization_Penalty_Neutral>
0.178941

> <r_epik_State_Penalty>
6.78185

> <r_epik_Charging_Adjusted_Penalty>
13.5278

> <i_epik_Tot_Q>
0

> <i_epik_Tot_abs_Q>
2

> <r_epik_Metal_State_Penalty>
2.70608

> <b_epik_Metal_Only>
1

> <s_lp_Force_Field>
OPLS_2005

> <r_lp_Energy>
12.3895

> <b_lp_Chiralities_Consistent>
1

> <s_lp_Variant>
AV-unprocessed.smi:2482-9

> <Gold.Version>
5.8.1

> <Gold.Id.Protein>
6NUR|6NUR_protein|mol2

> <Gold.PLP.Fitness>
36.7397

> <Gold.PLP.PLP>
-34.2082

> <Gold.PLP.part.hbond>
-0.9454

> <Gold.PLP.part.metal>
0.0000

> <Gold.PLP.part.buried>
-5.4374

> <Gold.PLP.part.nonpolar>
-27.3834

> <Gold.PLP.part.repulsive>
0.1626

> <Gold.PLP.ligand.clash>
0.0000

> <Gold.PLP.ligand.torsion>
0.4696

> <Gold.PLP.Chemscore.Hbond>
1.0000

> <Gold.PLP.Chemscore.CHOScore>
0.0000

> <Gold.PLP.Chemscore.Metal>
0.0000

> <Gold.Chemscore.Hbonds>
donor molecule, donor type, donor heavy atom, donor atom, acceptor molecule, acceptor atom, score
      P1  H  7989  7998       L1    16  1.00

> <Gold.PLP.Chemscore.Internal.Correction>
0.4706

> <Gold.Rescore>
     Score         DG    S(hbond)    S(metal)    S(lipo)     H(rot)  DE(clash)    DE(int)     intcor
     14.79     -17.65       0.87        0.00     101.04       1.00       0.06       2.80       ----

> <Gold.Chemscore.Fitness>
14.7939

> <Gold.Chemscore.DG>
-17.6523

> <Gold.Chemscore.ZeroCoef>
-5.4800

> <Gold.Chemscore.Hbond>
0.8715

> <Gold.Chemscore.Metal>
0.0000

> <Gold.Chemscore.Lipo>
101.0385

> <Gold.Chemscore.Internal_Hbond>
0.0000

> <Gold.Chemscore.DEClash>
0.0551

> <Gold.Chemscore.DEInternal>
2.8033

> <Gold.Chemscore.Rot>
1.0000

> <Gold.Chemscore.Internal.Correction>
   9.000000E+99

> <Gold.Chemscore.Hbonds>
donor molecule, donor type, donor heavy atom, donor atom, acceptor molecule, acceptor atom, score
      P1  H  7989  7998       L1    16  0.49

> <Gold.Chemscore.Hbond.Weighted>
-2.9108

> <Gold.Chemscore.Metal.Weighted>
-0.0000

> <Gold.Chemscore.Lipo.Weighted>
-11.8215

> <Gold.Chemscore.Internal_Hbond.Weighted>
0.0000

> <Gold.Chemscore.DEClash.Weighted>
0.0551

> <Gold.Chemscore.DEInternal.Weighted>
2.8033

> <Gold.Chemscore.Rot.Weighted>
2.5600

> <Gold.Chemscore.Internal.Correction.Weighted>
   9.000000E+99

> <Gold.Protein.RotatedTorsions>
[ 6907 6896 6895 6894 ] final  141.26 input  -60.11 | X-H torsion
[ 7974 7965 7964 7962 ] final  -68.40 input  175.53 | X-H torsion
[ 8008 7997 7996 7995 ] final  166.32 input   59.86 | X-H torsion
[ 10167 10162 10161 10158 ] final  -61.93 input  -65.29 | X-H torsion
[ 10718 10713 10712 10709 ] final  -91.68 input   66.30 | X-H torsion
[ 10763 10752 10751 10750 ] final -150.32 input  -60.55 | X-H torsion
[ 11005 11000 10999 10996 ] final -160.81 input  -57.11 | X-H torsion

> <Gold.Protein.ActiveResidues>
 VAL166  LYS551  ARG553  GLY616  TRP617  ASP618  TYR619  PRO620  LYS621  CYS622 
 ASP623  PHE694  ASN695  SER759  ASP760  ASP761  ALA762  ILE779  LEU786  VAL792 
 PHE793  MET794  SER795  GLU796  ALA797  LYS798  CYS799  TRP800  GLU811  SER814 

> <Gold.Protein.RotatedAtoms>
  152.2331  133.5074  159.5226 H   0  0  0  0  0  0  0  0  0  0  0  0  # atno 6907 bound_to 6896
  150.7043  134.1189  159.4036 H   0  0  0  0  0  0  0  0  0  0  0  0  # atno 6908 bound_to 6896
  151.9110  135.0338  160.0565 H   0  0  0  0  0  0  0  0  0  0  0  0  # atno 6909 bound_to 6896
  145.7169  140.9055  143.0651 H   0  0  0  0  0  0  0  0  0  0  0  0  # atno 7974 bound_to 7965
  156.1728  140.1646  156.8416 H   0  0  0  0  0  0  0  0  0  0  0  0  # atno 8008 bound_to 7997
  154.5275  140.0764  156.8319 H   0  0  0  0  0  0  0  0  0  0  0  0  # atno 8009 bound_to 7997
  155.3476  140.3388  155.4241 H   0  0  0  0  0  0  0  0  0  0  0  0  # atno 8010 bound_to 7997
  140.5973  143.2353  151.6008 H   0  0  0  0  0  0  0  0  0  0  0  0  # atno 10167 bound_to 10162
  155.9995  130.4957  150.5510 H   0  0  0  0  0  0  0  0  0  0  0  0  # atno 10718 bound_to 10713
  154.8126  135.3287  154.7264 H   0  0  0  0  0  0  0  0  0  0  0  0  # atno 10763 bound_to 10752
  153.7910  135.6911  153.4876 H   0  0  0  0  0  0  0  0  0  0  0  0  # atno 10764 bound_to 10752
  153.1916  135.4549  155.0103 H   0  0  0  0  0  0  0  0  0  0  0  0  # atno 10765 bound_to 10752
  140.6274  134.4687  157.5227 H   0  0  0  0  0  0  0  0  0  0  0  0  # atno 11005 bound_to 11000
  144.6927  139.9150  143.7465 LP  0  0  0  0  0  0  0  0  0  0  0  0  # atno 17320 bound_to 7965
  146.0661  139.3652  143.0551 LP  0  0  0  0  0  0  0  0  0  0  0  0  # atno 17321 bound_to 7965
  139.5267  144.3039  152.1050 LP  0  0  0  0  0  0  0  0  0  0  0  0  # atno 17342 bound_to 10162
  140.2213  144.4463  150.6340 LP  0  0  0  0  0  0  0  0  0  0  0  0  # atno 17343 bound_to 10162
  157.3433  131.0720  151.1771 LP  0  0  0  0  0  0  0  0  0  0  0  0  # atno 17370 bound_to 10713
  157.2612  130.6659  149.5975 LP  0  0  0  0  0  0  0  0  0  0  0  0  # atno 17371 bound_to 10713
  139.9129  134.8306  156.1464 LP  0  0  0  0  0  0  0  0  0  0  0  0  # atno 17394 bound_to 11000
  141.0700  133.6801  156.2120 LP  0  0  0  0  0  0  0  0  0  0  0  0  # atno 17395 bound_to 11000

$$$$
