AV-unprocessed.smi:2556|AV-procd|sdf|10026|dock7
  -GOLD-   2272014 73D 1   1.00000     0.00000
 Structure written by MMmdl.
 34 36  0  0  0  0  0  0  0  0  2 V2000
  152.2342  143.5568  161.0653 C   0  0  0  0  0  0  0  0  0  0  0  0
  152.4657  142.3846  160.2158 N   0  0  0  0  0  0  0  0  0  0  0  0
  153.4598  141.4690  160.4567 C   0  0  0  0  0  0  0  0  0  0  0  0
  154.1900  141.6322  161.4344 O   0  0  0  0  0  0  0  0  0  0  0  0
  153.6208  140.3924  159.6086 N   0  5  0  0  0  0  0  0  0  0  0  0
  152.8609  140.1169  158.5013 C   0  0  0  0  0  0  0  0  0  0  0  0
  152.9887  139.1669  157.7306 O   0  0  0  0  0  0  0  0  0  0  0  0
  151.8000  141.1225  158.2964 C   0  0  0  0  0  0  0  0  0  0  0  0
  151.6039  142.2018  159.1020 C   0  0  0  0  0  0  0  0  0  0  0  0
  150.5323  142.9749  158.6684 N   0  0  0  0  0  0  0  0  0  0  0  0
  150.1251  142.3013  157.5919 C   0  0  0  0  0  0  0  0  0  0  0  0
  150.8251  141.1856  157.3019 N   0  0  0  0  0  0  0  0  0  0  0  0
  150.5823  140.2802  156.1899 C   0  0  0  0  0  0  0  0  0  0  0  0
  149.9027  140.9768  154.9946 C   0  0  1  0  0  0  0  0  0  0  0  0
  150.1068  140.2209  153.8155 O   0  0  0  0  0  0  0  0  0  0  0  0
  148.4294  141.2325  155.2719 C   0  0  0  0  0  0  0  0  0  0  0  0
  147.8209  140.7531  156.4535 C   0  0  0  0  0  0  0  0  0  0  0  0
  146.4576  141.0047  156.7025 C   0  0  0  0  0  0  0  0  0  0  0  0
  145.6956  141.7400  155.7742 C   0  0  0  0  0  0  0  0  0  0  0  0
  146.2986  142.2258  154.5981 C   0  0  0  0  0  0  0  0  0  0  0  0
  147.6618  141.9740  154.3485 C   0  0  0  0  0  0  0  0  0  0  0  0
  152.9602  143.6821  161.8689 H   0  0  0  0  0  0  0  0  0  0  0  0
  151.2468  143.4919  161.5232 H   0  0  0  0  0  0  0  0  0  0  0  0
  152.2644  144.4639  160.4610 H   0  0  0  0  0  0  0  0  0  0  0  0
  149.2860  142.6280  156.9953 H   0  0  0  0  0  0  0  0  0  0  0  0
  151.5345  139.8461  155.8817 H   0  0  0  0  0  0  0  0  0  0  0  0
  149.9728  139.4498  156.5475 H   0  0  0  0  0  0  0  0  0  0  0  0
  150.3838  141.9405  154.8249 H   0  0  0  0  0  0  0  0  0  0  0  0
  149.5616  140.5817  153.1332 H   0  0  0  0  0  0  0  0  0  0  0  0
  148.3979  140.1931  157.1750 H   0  0  0  0  0  0  0  0  0  0  0  0
  145.9970  140.6353  157.6067 H   0  0  0  0  0  0  0  0  0  0  0  0
  144.6504  141.9338  155.9657 H   0  0  0  0  0  0  0  0  0  0  0  0
  145.7164  142.7934  153.8875 H   0  0  0  0  0  0  0  0  0  0  0  0
  148.1177  142.3552  153.4460 H   0  0  0  0  0  0  0  0  0  0  0  0
  1  2  1  0  0  0  0
  1 22  1  0  0  0  0
  1 23  1  0  0  0  0
  1 24  1  0  0  0  0
  2  9  1  0  0  0  0
  2  3  1  0  0  0  0
  3  4  2  0  0  0  0
  3  5  1  0  0  0  0
  5  6  1  0  0  0  0
  6  7  2  0  0  0  0
  6  8  1  0  0  0  0
  8 12  1  0  0  0  0
  8  9  2  0  0  0  0
  9 10  1  0  0  0  0
 10 11  2  0  0  0  0
 11 12  1  0  0  0  0
 11 25  1  0  0  0  0
 12 13  1  0  0  0  0
 13 14  1  0  0  0  0
 13 26  1  0  0  0  0
 13 27  1  0  0  0  0
 14 15  1  0  0  0  0
 14 16  1  0  0  0  0
 14 28  1  0  0  0  0
 15 29  1  0  0  0  0
 16 21  1  0  0  0  0
 16 17  2  0  0  0  0
 17 18  1  0  0  0  0
 17 30  1  0  0  0  0
 18 19  2  0  0  0  0
 18 31  1  0  0  0  0
 19 20  1  0  0  0  0
 19 32  1  0  0  0  0
 20 21  2  0  0  0  0
 20 33  1  0  0  0  0
 21 34  1  0  0  0  0
M  CHG  1   5  -1
M  END
> <s_m_source_file>
AV-unprocessed.smi

> <i_m_source_file_index>
2556

> <i_lp_mmshare_version>
43012

> <i_f3d_flags>
0

> <s_epik_input>
Tz1jMVtuSF1jKD1PKW4oW0NIM10pYyhjMTIpbltjSF1uMltDSDJdW0NASF0oW09IXSljM1tjSF1bY0hdW2NIXVtjSF1bY0hdMw==

> <s_epik_cmdline>
J2VwaWtfcHl0aG9uJywgJy1waCcsICc3LjAnLCAnLXRuJywgJzgnLCAnLW1hJywgJzIwMCcsICctbWV0YWxfYmluZGluZycsICctaW1hZScsICc8aW5maWxlLm1hZT4nLCAnLW9tYWUnLCAnPG91dGZpbGUubWFlPic=

> <r_lp_tautomer_probability>
1

> <r_epik_Ionization_Penalty>
4.84872

> <r_epik_Ionization_Penalty_Charging>
0.03865

> <r_epik_Ionization_Penalty_Neutral>
4.81007

> <r_epik_State_Penalty>
4.80988

> <r_epik_Charging_Adjusted_Penalty>
4.84853

> <i_epik_Tot_Q>
-1

> <i_epik_Tot_abs_Q>
1

> <r_epik_Metal_State_Penalty>
0.994041

> <b_epik_Metal_Only>
1

> <s_lp_Force_Field>
OPLS_2005

> <r_lp_Energy>
31.8708

> <b_lp_Chiralities_Consistent>
1

> <s_lp_Variant>
AV-unprocessed.smi:2556-4

> <Gold.Version>
5.8.1

> <Gold.Id.Protein>
6NUR|6NUR_protein|mol2

> <Gold.PLP.Fitness>
47.2055

> <Gold.PLP.PLP>
-39.3551

> <Gold.PLP.part.hbond>
-3.7316

> <Gold.PLP.part.metal>
0.0000

> <Gold.PLP.part.buried>
-3.8545

> <Gold.PLP.part.nonpolar>
-32.1254

> <Gold.PLP.part.repulsive>
0.1019

> <Gold.PLP.ligand.clash>
0.0000

> <Gold.PLP.ligand.torsion>
0.5483

> <Gold.PLP.Chemscore.Hbond>
1.9738

> <Gold.PLP.Chemscore.CHOScore>
1.0000

> <Gold.PLP.Chemscore.Metal>
0.0000

> <Gold.Chemscore.Hbonds>
donor molecule, donor type, donor heavy atom, donor atom, acceptor molecule, acceptor atom, score
      L1  H    15    29       P1  7957  0.50
      P1  H  7989  7998       L1    15  0.59
      P1  H  7997  8010       L1     7  0.70
      L1  C    11    25       P1  8028  1.00

> <Gold.PLP.Chemscore.Internal.Correction>
0.0258

> <Gold.Rescore>
     Score         DG    S(hbond)    S(metal)    S(lipo)     H(rot)  DE(clash)    DE(int)     intcor
     10.87     -11.62       1.77        0.00      52.03       2.28       0.18       0.57       ----

> <Gold.Chemscore.Fitness>
10.8712

> <Gold.Chemscore.DG>
-11.6211

> <Gold.Chemscore.ZeroCoef>
-5.4800

> <Gold.Chemscore.Hbond>
1.7656

> <Gold.Chemscore.Metal>
0.0000

> <Gold.Chemscore.Lipo>
52.0253

> <Gold.Chemscore.Internal_Hbond>
0.0000

> <Gold.Chemscore.DEClash>
0.1833

> <Gold.Chemscore.DEInternal>
0.5666

> <Gold.Chemscore.Rot>
2.2824

> <Gold.Chemscore.Internal.Correction>
   9.000000E+99

> <Gold.Chemscore.Hbonds>
donor molecule, donor type, donor heavy atom, donor atom, acceptor molecule, acceptor atom, score
      L1  H    15    29       P1  7957  0.47
      P1  H  7989  7998       L1    15  0.03
      P1  H  7997  8010       L1     7  0.07

> <Gold.Chemscore.Hbond.Weighted>
-5.8972

> <Gold.Chemscore.Metal.Weighted>
-0.0000

> <Gold.Chemscore.Lipo.Weighted>
-6.0870

> <Gold.Chemscore.Internal_Hbond.Weighted>
0.0000

> <Gold.Chemscore.DEClash.Weighted>
0.1833

> <Gold.Chemscore.DEInternal.Weighted>
0.5666

> <Gold.Chemscore.Rot.Weighted>
5.8431

> <Gold.Chemscore.Internal.Correction.Weighted>
   9.000000E+99

> <Gold.Protein.RotatedTorsions>
[ 6907 6896 6895 6894 ] final   95.41 input  -60.11 | X-H torsion
[ 7974 7965 7964 7962 ] final   34.37 input  175.53 | X-H torsion
[ 8008 7997 7996 7995 ] final   62.29 input   59.86 | X-H torsion
[ 10167 10162 10161 10158 ] final   71.34 input  -65.29 | X-H torsion
[ 10718 10713 10712 10709 ] final   97.16 input   66.30 | X-H torsion
[ 10763 10752 10751 10750 ] final  165.12 input  -60.55 | X-H torsion
[ 11005 11000 10999 10996 ] final    8.84 input  -57.11 | X-H torsion

> <Gold.Protein.ActiveResidues>
 VAL166  LYS551  ARG553  GLY616  TRP617  ASP618  TYR619  PRO620  LYS621  CYS622 
 ASP623  PHE694  ASN695  SER759  ASP760  ASP761  ALA762  ILE779  LEU786  VAL792 
 PHE793  MET794  SER795  GLU796  ALA797  LYS798  CYS799  TRP800  GLU811  SER814 

> <Gold.Protein.RotatedAtoms>
  152.5444  134.1044  159.8331 H   0  0  0  0  0  0  0  0  0  0  0  0  # atno 6907 bound_to 6896
  151.1118  133.5160  159.2613 H   0  0  0  0  0  0  0  0  0  0  0  0  # atno 6908 bound_to 6896
  151.1876  135.0398  159.8873 H   0  0  0  0  0  0  0  0  0  0  0  0  # atno 6909 bound_to 6896
  146.1357  139.6277  142.9197 H   0  0  0  0  0  0  0  0  0  0  0  0  # atno 7974 bound_to 7965
  155.6120  140.3495  155.4625 H   0  0  0  0  0  0  0  0  0  0  0  0  # atno 8008 bound_to 7997
  156.0147  140.1240  157.0443 H   0  0  0  0  0  0  0  0  0  0  0  0  # atno 8009 bound_to 7997
  154.4293  140.1074  156.5865 H   0  0  0  0  0  0  0  0  0  0  0  0  # atno 8010 bound_to 7997
  140.0471  144.5342  150.7391 H   0  0  0  0  0  0  0  0  0  0  0  0  # atno 10167 bound_to 10162
  157.6916  131.0601  150.4601 H   0  0  0  0  0  0  0  0  0  0  0  0  # atno 10718 bound_to 10713
  154.3193  135.2756  155.2527 H   0  0  0  0  0  0  0  0  0  0  0  0  # atno 10763 bound_to 10752
  154.4888  135.5839  153.6447 H   0  0  0  0  0  0  0  0  0  0  0  0  # atno 10764 bound_to 10752
  152.9878  135.6129  154.3376 H   0  0  0  0  0  0  0  0  0  0  0  0  # atno 10765 bound_to 10752
  140.5324  134.0453  155.7878 H   0  0  0  0  0  0  0  0  0  0  0  0  # atno 11005 bound_to 11000
  145.5161  141.0434  143.2461 LP  0  0  0  0  0  0  0  0  0  0  0  0  # atno 17320 bound_to 7965
  144.7737  139.6677  143.7184 LP  0  0  0  0  0  0  0  0  0  0  0  0  # atno 17321 bound_to 7965
  140.7234  143.2611  151.4203 LP  0  0  0  0  0  0  0  0  0  0  0  0  # atno 17342 bound_to 10162
  139.5976  144.1363  152.2162 LP  0  0  0  0  0  0  0  0  0  0  0  0  # atno 17343 bound_to 10162
  156.4946  130.4103  149.6387 LP  0  0  0  0  0  0  0  0  0  0  0  0  # atno 17370 bound_to 10713
  156.3385  130.7369  151.2310 LP  0  0  0  0  0  0  0  0  0  0  0  0  # atno 17371 bound_to 10713
  141.1273  133.9361  157.2608 LP  0  0  0  0  0  0  0  0  0  0  0  0  # atno 17394 bound_to 11000
  139.9547  135.0168  156.9094 LP  0  0  0  0  0  0  0  0  0  0  0  0  # atno 17395 bound_to 11000

$$$$
