AV-unprocessed.smi:2851|AV-procd|sdf|10971|dock5
  -GOLD-   2272015423D 1   1.00000     0.00000
 Structure written by MMmdl.
 43 44  0  0  0  0  0  0  0  0  2 V2000
  151.4526  145.4279  160.3511 C   0  0  0  0  0  0  0  0  0  0  0  0
  152.2409  144.1553  160.4727 C   0  0  0  0  0  0  0  0  0  0  0  0
  152.8643  143.8824  161.6072 N   0  0  0  0  0  0  0  0  0  0  0  0
  153.4520  142.6871  161.3970 N   0  0  0  0  0  0  0  0  0  0  0  0
  154.2224  142.0770  162.4631 C   0  0  0  0  0  0  0  0  0  0  0  0
  153.2103  142.2104  160.1234 C   0  0  0  0  0  0  0  0  0  0  0  0
  153.7520  140.9005  159.6476 C   0  0  0  0  0  0  0  0  0  0  0  0
  152.4251  143.1380  159.4910 C   0  0  0  0  0  0  0  0  0  0  0  0
  151.8632  143.1069  158.0918 C   0  0  0  0  0  0  0  0  0  0  0  0
  151.0857  141.8075  157.8852 C   0  0  0  0  0  0  0  0  0  0  0  0
  150.3690  141.3846  158.7905 O   0  0  0  0  0  0  0  0  0  0  0  0
  151.2818  141.2046  156.6981 N   0  0  0  0  0  0  0  0  0  0  0  0
  150.7708  139.9532  156.1148 C   0  0  0  0  0  0  0  0  0  0  0  0
  152.0326  139.2166  155.5985 C   0  0  0  0  0  0  0  0  0  0  0  0
  152.9134  138.9018  156.4298 O   0  0  0  0  0  0  0  0  0  0  0  0
  152.1272  139.0158  154.3660 O   0  5  0  0  0  0  0  0  0  0  0  0
  149.9633  139.0182  157.0751 C   0  0  0  0  0  0  0  0  0  0  0  0
  148.5522  139.5337  157.4241 C   0  0  0  0  0  0  0  0  0  0  0  0
  147.7417  139.8562  156.1649 C   0  0  0  0  0  0  0  0  0  0  0  0
  148.4945  140.8613  155.2869 C   0  0  0  0  0  0  0  0  0  0  0  0
  149.8805  140.3242  154.8931 C   0  0  0  0  0  0  0  0  0  0  0  0
  151.9703  146.1464  159.7158 H   0  0  0  0  0  0  0  0  0  0  0  0
  151.2891  145.8976  161.3217 H   0  0  0  0  0  0  0  0  0  0  0  0
  150.4745  145.2385  159.9084 H   0  0  0  0  0  0  0  0  0  0  0  0
  155.2831  142.1140  162.2143 H   0  0  0  0  0  0  0  0  0  0  0  0
  153.9205  141.0367  162.5861 H   0  0  0  0  0  0  0  0  0  0  0  0
  154.0597  142.6025  163.4050 H   0  0  0  0  0  0  0  0  0  0  0  0
  153.6422  140.7949  158.5687 H   0  0  0  0  0  0  0  0  0  0  0  0
  153.2234  140.0721  160.1196 H   0  0  0  0  0  0  0  0  0  0  0  0
  154.8117  140.8056  159.8839 H   0  0  0  0  0  0  0  0  0  0  0  0
  151.1962  143.9505  157.9118 H   0  0  0  0  0  0  0  0  0  0  0  0
  152.6508  143.1837  157.3413 H   0  0  0  0  0  0  0  0  0  0  0  0
  151.9280  141.6858  156.0900 H   0  0  0  0  0  0  0  0  0  0  0  0
  149.8368  138.0474  156.5925 H   0  0  0  0  0  0  0  0  0  0  0  0
  150.5189  138.8038  157.9883 H   0  0  0  0  0  0  0  0  0  0  0  0
  148.0263  138.7867  158.0191 H   0  0  0  0  0  0  0  0  0  0  0  0
  148.6123  140.4259  158.0455 H   0  0  0  0  0  0  0  0  0  0  0  0
  147.5536  138.9414  155.6016 H   0  0  0  0  0  0  0  0  0  0  0  0
  146.7669  140.2582  156.4421 H   0  0  0  0  0  0  0  0  0  0  0  0
  147.9135  141.0743  154.3892 H   0  0  0  0  0  0  0  0  0  0  0  0
  148.6012  141.8083  155.8174 H   0  0  0  0  0  0  0  0  0  0  0  0
  150.3765  141.0656  154.2640 H   0  0  0  0  0  0  0  0  0  0  0  0
  149.7375  139.4451  154.2619 H   0  0  0  0  0  0  0  0  0  0  0  0
  1  2  1  0  0  0  0
  1 22  1  0  0  0  0
  1 23  1  0  0  0  0
  1 24  1  0  0  0  0
  2  8  1  0  0  0  0
  2  3  2  0  0  0  0
  3  4  1  0  0  0  0
  4  5  1  0  0  0  0
  4  6  1  0  0  0  0
  5 25  1  0  0  0  0
  5 26  1  0  0  0  0
  5 27  1  0  0  0  0
  6  7  1  0  0  0  0
  6  8  2  0  0  0  0
  7 28  1  0  0  0  0
  7 29  1  0  0  0  0
  7 30  1  0  0  0  0
  8  9  1  0  0  0  0
  9 10  1  0  0  0  0
  9 31  1  0  0  0  0
  9 32  1  0  0  0  0
 10 11  2  0  0  0  0
 10 12  1  0  0  0  0
 12 13  1  0  0  0  0
 12 33  1  0  0  0  0
 13 21  1  0  0  0  0
 13 14  1  0  0  0  0
 13 17  1  0  0  0  0
 14 15  2  0  0  0  0
 14 16  1  0  0  0  0
 17 18  1  0  0  0  0
 17 34  1  0  0  0  0
 17 35  1  0  0  0  0
 18 19  1  0  0  0  0
 18 36  1  0  0  0  0
 18 37  1  0  0  0  0
 19 20  1  0  0  0  0
 19 38  1  0  0  0  0
 19 39  1  0  0  0  0
 20 21  1  0  0  0  0
 20 40  1  0  0  0  0
 20 41  1  0  0  0  0
 21 42  1  0  0  0  0
 21 43  1  0  0  0  0
M  CHG  1  16  -1
M  END
> <s_m_source_file>
AV-unprocessed.smi

> <i_m_source_file_index>
2851

> <i_lp_mmshare_version>
43012

> <i_f3d_flags>
0

> <s_epik_input>
W0NIM11jMW5uKFtDSDNdKWMoW0NIM10pYzFbQ0gyXUMoPU8pW05IXUMyKEMoPU8pW09IXSlbQ0gyXVtDSDJdW0NIMl1bQ0gyXVtDSDJdMg==

> <s_epik_cmdline>
J2VwaWtfcHl0aG9uJywgJy1waCcsICc3LjAnLCAnLXRuJywgJzgnLCAnLW1hJywgJzIwMCcsICctbWV0YWxfYmluZGluZycsICctaW1hZScsICc8aW5maWxlLm1hZT4nLCAnLW9tYWUnLCAnPG91dGZpbGUubWFlPic=

> <r_lp_tautomer_probability>
1

> <r_epik_Ionization_Penalty>
0.00398412

> <r_epik_Ionization_Penalty_Charging>
0.000391215

> <r_epik_Ionization_Penalty_Neutral>
0.0035929

> <r_epik_State_Penalty>
-0

> <r_epik_Charging_Adjusted_Penalty>
0.000391215

> <i_epik_Tot_Q>
-1

> <i_epik_Tot_abs_Q>
1

> <r_epik_Metal_State_Penalty>
-0

> <b_epik_Metal_Only>
0

> <s_lp_Force_Field>
OPLS_2005

> <r_lp_Energy>
3.24008

> <b_lp_Chiralities_Consistent>
1

> <s_lp_Variant>
AV-unprocessed.smi:2851-1

> <Gold.Version>
5.8.1

> <Gold.Id.Protein>
6NUR|6NUR_protein|mol2

> <Gold.PLP.Fitness>
50.6145

> <Gold.PLP.PLP>
-43.0272

> <Gold.PLP.part.hbond>
-2.0572

> <Gold.PLP.part.metal>
0.0000

> <Gold.PLP.part.buried>
-0.4500

> <Gold.PLP.part.nonpolar>
-39.4891

> <Gold.PLP.part.repulsive>
0.3782

> <Gold.PLP.ligand.clash>
0.0000

> <Gold.PLP.ligand.torsion>
0.4043

> <Gold.PLP.Chemscore.Hbond>
2.7771

> <Gold.PLP.Chemscore.CHOScore>
0.0000

> <Gold.PLP.Chemscore.Metal>
0.0000

> <Gold.Chemscore.Hbonds>
donor molecule, donor type, donor heavy atom, donor atom, acceptor molecule, acceptor atom, score
      P1  H  7989  7998       L1    16  0.69
      P1  H  7997  8009       L1    15  2.00

> <Gold.PLP.Chemscore.Internal.Correction>
0.0645

> <Gold.Rescore>
     Score         DG    S(hbond)    S(metal)    S(lipo)     H(rot)  DE(clash)    DE(int)     intcor
     11.48     -16.53       1.09        0.00     104.58       1.88       2.11       2.94       ----

> <Gold.Chemscore.Fitness>
11.4798

> <Gold.Chemscore.DG>
-16.5278

> <Gold.Chemscore.ZeroCoef>
-5.4800

> <Gold.Chemscore.Hbond>
1.0860

> <Gold.Chemscore.Metal>
0.0000

> <Gold.Chemscore.Lipo>
104.5796

> <Gold.Chemscore.Internal_Hbond>
0.0000

> <Gold.Chemscore.DEClash>
2.1099

> <Gold.Chemscore.DEInternal>
2.9381

> <Gold.Chemscore.Rot>
1.8809

> <Gold.Chemscore.Internal.Correction>
   9.000000E+99

> <Gold.Chemscore.Hbonds>
donor molecule, donor type, donor heavy atom, donor atom, acceptor molecule, acceptor atom, score
      P1  H  7989  7998       L1    16  0.34
      P1  H  7997  8009       L1    15  0.64

> <Gold.Chemscore.Hbond.Weighted>
-3.6271

> <Gold.Chemscore.Metal.Weighted>
-0.0000

> <Gold.Chemscore.Lipo.Weighted>
-12.2358

> <Gold.Chemscore.Internal_Hbond.Weighted>
0.0000

> <Gold.Chemscore.DEClash.Weighted>
2.1099

> <Gold.Chemscore.DEInternal.Weighted>
2.9381

> <Gold.Chemscore.Rot.Weighted>
4.8152

> <Gold.Chemscore.Internal.Correction.Weighted>
   9.000000E+99

> <Gold.Protein.RotatedTorsions>
[ 6907 6896 6895 6894 ] final  164.74 input  -60.11 | X-H torsion
[ 7974 7965 7964 7962 ] final  -56.95 input  175.53 | X-H torsion
[ 8008 7997 7996 7995 ] final -157.03 input   59.86 | X-H torsion
[ 10167 10162 10161 10158 ] final -138.37 input  -65.29 | X-H torsion
[ 10718 10713 10712 10709 ] final  -88.21 input   66.30 | X-H torsion
[ 10763 10752 10751 10750 ] final   90.69 input  -60.55 | X-H torsion
[ 11005 11000 10999 10996 ] final  114.29 input  -57.11 | X-H torsion

> <Gold.Protein.ActiveResidues>
 VAL166  LYS551  ARG553  GLY616  TRP617  ASP618  TYR619  PRO620  LYS621  CYS622 
 ASP623  PHE694  ASN695  SER759  ASP760  ASP761  ALA762  ILE779  LEU786  VAL792 
 PHE793  MET794  SER795  GLU796  ALA797  LYS798  CYS799  TRP800  GLU811  SER814 

> <Gold.Protein.RotatedAtoms>
  151.9052  133.3547  159.3844 H   0  0  0  0  0  0  0  0  0  0  0  0  # atno 6907 bound_to 6896
  150.7071  134.4788  159.5470 H   0  0  0  0  0  0  0  0  0  0  0  0  # atno 6908 bound_to 6896
  152.2384  134.8253  160.0515 H   0  0  0  0  0  0  0  0  0  0  0  0  # atno 6909 bound_to 6896
  145.8567  140.8314  142.9958 H   0  0  0  0  0  0  0  0  0  0  0  0  # atno 7974 bound_to 7965
  155.7262  140.0796  157.2309 H   0  0  0  0  0  0  0  0  0  0  0  0  # atno 8008 bound_to 7997
  154.4038  140.1603  156.2512 H   0  0  0  0  0  0  0  0  0  0  0  0  # atno 8009 bound_to 7997
  155.9151  140.3401  155.6131 H   0  0  0  0  0  0  0  0  0  0  0  0  # atno 8010 bound_to 7997
  139.8485  143.7229  152.2659 H   0  0  0  0  0  0  0  0  0  0  0  0  # atno 10167 bound_to 10162
  155.9984  130.4827  150.4985 H   0  0  0  0  0  0  0  0  0  0  0  0  # atno 10718 bound_to 10713
  153.2002  135.4425  155.0257 H   0  0  0  0  0  0  0  0  0  0  0  0  # atno 10763 bound_to 10752
  154.8142  135.3308  154.7224 H   0  0  0  0  0  0  0  0  0  0  0  0  # atno 10764 bound_to 10752
  153.7669  135.6987  153.4969 H   0  0  0  0  0  0  0  0  0  0  0  0  # atno 10765 bound_to 10752
  139.8976  134.9565  156.6870 H   0  0  0  0  0  0  0  0  0  0  0  0  # atno 11005 bound_to 11000
  144.6727  140.1034  143.7459 LP  0  0  0  0  0  0  0  0  0  0  0  0  # atno 17320 bound_to 7965
  145.9295  139.2597  143.1333 LP  0  0  0  0  0  0  0  0  0  0  0  0  # atno 17321 bound_to 7965
  139.7488  144.7540  151.0538 LP  0  0  0  0  0  0  0  0  0  0  0  0  # atno 17342 bound_to 10162
  140.7790  143.4884  150.9925 LP  0  0  0  0  0  0  0  0  0  0  0  0  # atno 17343 bound_to 10162
  157.2972  131.0638  151.2093 LP  0  0  0  0  0  0  0  0  0  0  0  0  # atno 17370 bound_to 10713
  157.3085  130.6878  149.6203 LP  0  0  0  0  0  0  0  0  0  0  0  0  # atno 17371 bound_to 10713
  140.7255  133.9104  155.8175 LP  0  0  0  0  0  0  0  0  0  0  0  0  # atno 17394 bound_to 11000
  141.0194  134.0910  157.4137 LP  0  0  0  0  0  0  0  0  0  0  0  0  # atno 17395 bound_to 11000

$$$$
