AV-unprocessed.smi:756|AV-procd|sdf|3613|dock3
  -GOLD-   22720 1 13D 1   1.00000     0.00000
 Structure written by MMmdl.
 42 43  0  0  0  0  0  0  0  0  1 V2000
  147.0841  142.9302  153.5946 C   0  0  0  0  0  0  0  0  0  0  0  0
  146.7834  142.5155  155.0243 C   0  0  0  0  0  0  0  0  0  0  0  0
  145.8139  143.0213  155.7940 C   0  0  0  0  0  0  0  0  0  0  0  0
  145.7428  142.2720  157.3701 S   0  0  0  0  0  0  0  0  0  0  0  0
  147.1237  141.2027  156.9339 C   0  0  0  0  0  0  0  0  0  0  0  0
  147.5877  140.3636  157.7045 O   0  0  0  0  0  0  0  0  0  0  0  0
  147.5345  141.5016  155.6352 N   0  0  0  0  0  0  0  0  0  0  0  0
  148.6537  140.8113  154.9804 C   0  0  0  0  0  0  0  0  0  0  0  0
  150.0134  141.1310  155.6149 C   0  0  0  0  0  0  0  0  0  0  0  0
  151.0367  140.5490  155.2518 O   0  0  0  0  0  0  0  0  0  0  0  0
  150.0090  142.0804  156.5601 N   0  0  0  0  0  0  0  0  0  0  0  0
  151.1930  142.5401  157.2782 C   0  0  0  0  0  0  0  0  0  0  0  0
  150.8687  143.6137  158.3482 C   0  0  2  0  0  0  0  0  0  0  0  0
  149.4087  143.5128  158.8429 C   0  0  0  0  0  0  0  0  0  0  0  0
  151.0316  144.8821  157.7394 O   0  0  0  0  0  0  0  0  0  0  0  0
  151.8645  143.5019  159.5398 C   0  0  0  0  0  0  0  0  0  0  0  0
  152.0390  142.1032  160.1493 C   0  0  0  0  0  0  0  0  0  0  0  0
  152.7460  142.3557  161.4816 C   0  0  0  0  0  0  0  0  0  0  0  0
  152.2742  143.7377  161.9521 C   0  0  0  0  0  0  0  0  0  0  0  0
  151.5477  144.3813  160.7625 C   0  0  0  0  0  0  0  0  0  0  0  0
  146.2552  143.5079  153.1845 H   0  0  0  0  0  0  0  0  0  0  0  0
  147.2298  142.0633  152.9499 H   0  0  0  0  0  0  0  0  0  0  0  0
  147.9792  143.5509  153.5589 H   0  0  0  0  0  0  0  0  0  0  0  0
  145.1160  143.7978  155.5177 H   0  0  0  0  0  0  0  0  0  0  0  0
  148.5045  139.7318  154.9763 H   0  0  0  0  0  0  0  0  0  0  0  0
  148.6841  141.0998  153.9281 H   0  0  0  0  0  0  0  0  0  0  0  0
  149.1321  142.5227  156.7948 H   0  0  0  0  0  0  0  0  0  0  0  0
  151.6553  141.6791  157.7644 H   0  0  0  0  0  0  0  0  0  0  0  0
  151.9175  142.9162  156.5542 H   0  0  0  0  0  0  0  0  0  0  0  0
  149.2195  142.5446  159.3078 H   0  0  0  0  0  0  0  0  0  0  0  0
  148.6895  143.6347  158.0327 H   0  0  0  0  0  0  0  0  0  0  0  0
  149.1767  144.2819  159.5794 H   0  0  0  0  0  0  0  0  0  0  0  0
  150.4350  144.9429  157.0090 H   0  0  0  0  0  0  0  0  0  0  0  0
  152.8472  143.8093  159.1774 H   0  0  0  0  0  0  0  0  0  0  0  0
  151.0700  141.6396  160.3368 H   0  0  0  0  0  0  0  0  0  0  0  0
  152.6111  141.4311  159.5096 H   0  0  0  0  0  0  0  0  0  0  0  0
  152.5380  141.5738  162.2127 H   0  0  0  0  0  0  0  0  0  0  0  0
  153.8252  142.3762  161.3232 H   0  0  0  0  0  0  0  0  0  0  0  0
  151.6021  143.6531  162.8069 H   0  0  0  0  0  0  0  0  0  0  0  0
  153.1251  144.3427  162.2674 H   0  0  0  0  0  0  0  0  0  0  0  0
  151.8552  145.4167  160.6125 H   0  0  0  0  0  0  0  0  0  0  0  0
  150.4760  144.3892  160.9640 H   0  0  0  0  0  0  0  0  0  0  0  0
  1  2  1  0  0  0  0
  1 21  1  0  0  0  0
  1 22  1  0  0  0  0
  1 23  1  0  0  0  0
  2  7  1  0  0  0  0
  2  3  2  0  0  0  0
  3  4  1  0  0  0  0
  3 24  1  0  0  0  0
  4  5  1  0  0  0  0
  5  6  2  0  0  0  0
  5  7  1  0  0  0  0
  7  8  1  0  0  0  0
  8  9  1  0  0  0  0
  8 25  1  0  0  0  0
  8 26  1  0  0  0  0
  9 10  2  0  0  0  0
  9 11  1  0  0  0  0
 11 12  1  0  0  0  0
 11 27  1  0  0  0  0
 12 13  1  0  0  0  0
 12 28  1  0  0  0  0
 12 29  1  0  0  0  0
 13 14  1  0  0  0  0
 13 15  1  0  0  0  0
 13 16  1  0  0  0  0
 14 30  1  0  0  0  0
 14 31  1  0  0  0  0
 14 32  1  0  0  0  0
 15 33  1  0  0  0  0
 16 20  1  0  0  0  0
 16 17  1  0  0  0  0
 16 34  1  0  0  0  0
 17 18  1  0  0  0  0
 17 35  1  0  0  0  0
 17 36  1  0  0  0  0
 18 19  1  0  0  0  0
 18 37  1  0  0  0  0
 18 38  1  0  0  0  0
 19 20  1  0  0  0  0
 19 39  1  0  0  0  0
 19 40  1  0  0  0  0
 20 41  1  0  0  0  0
 20 42  1  0  0  0  0
M  END
> <s_m_source_file>
AV-unprocessed.smi

> <i_m_source_file_index>
756

> <i_lp_mmshare_version>
43012

> <i_f3d_flags>
0

> <s_epik_input>
W0NIM11jMVtjSF1zYyg9TyluMVtDSDJdQyg9TylbTkhdW0NIMl1bQ0BAXShbQ0gzXSkoW09IXSlbQ0hdMltDSDJdW0NIMl1bQ0gyXVtDSDJdMg==

> <s_epik_cmdline>
J2VwaWtfcHl0aG9uJywgJy1waCcsICc3LjAnLCAnLXRuJywgJzgnLCAnLW1hJywgJzIwMCcsICctbWV0YWxfYmluZGluZycsICctaW1hZScsICc8aW5maWxlLm1hZT4nLCAnLW9tYWUnLCAnPG91dGZpbGUubWFlPic=

> <r_lp_tautomer_probability>
1

> <r_epik_Ionization_Penalty>
1.53576e-06

> <r_epik_Ionization_Penalty_Charging>
1.31044e-06

> <r_epik_Ionization_Penalty_Neutral>
2.25323e-07

> <r_epik_State_Penalty>
-0

> <r_epik_Charging_Adjusted_Penalty>
1.31044e-06

> <i_epik_Tot_Q>
0

> <i_epik_Tot_abs_Q>
0

> <r_epik_Metal_State_Penalty>
-0

> <b_epik_Metal_Only>
0

> <s_lp_Force_Field>
OPLS_2005

> <r_lp_Energy>
32.7074

> <b_lp_Chiralities_Consistent>
1

> <s_lp_Variant>
AV-unprocessed.smi:756-2

> <Gold.Version>
5.8.1

> <Gold.Id.Protein>
6NUR|6NUR_protein|mol2

> <Gold.PLP.Fitness>
44.5543

> <Gold.PLP.PLP>
-40.4746

> <Gold.PLP.part.hbond>
-3.8593

> <Gold.PLP.part.metal>
0.0000

> <Gold.PLP.part.buried>
-5.5909

> <Gold.PLP.part.nonpolar>
-31.0245

> <Gold.PLP.part.repulsive>
0.0891

> <Gold.PLP.ligand.clash>
0.0000

> <Gold.PLP.ligand.torsion>
0.9372

> <Gold.PLP.Chemscore.Hbond>
1.9600

> <Gold.PLP.Chemscore.CHOScore>
0.0000

> <Gold.PLP.Chemscore.Metal>
0.0000

> <Gold.Chemscore.Hbonds>
donor molecule, donor type, donor heavy atom, donor atom, acceptor molecule, acceptor atom, score
      L1  H    15    33       P1  8028  1.00
      P1  H  7989  7998       L1    10  0.94

> <Gold.PLP.Chemscore.Internal.Correction>
0.0741

> <Gold.Rescore>
     Score         DG    S(hbond)    S(metal)    S(lipo)     H(rot)  DE(clash)    DE(int)     intcor
     15.50     -17.15       1.87        0.00      98.31       2.37       0.35       1.29       ----

> <Gold.Chemscore.Fitness>
15.5035

> <Gold.Chemscore.DG>
-17.1462

> <Gold.Chemscore.ZeroCoef>
-5.4800

> <Gold.Chemscore.Hbond>
1.8670

> <Gold.Chemscore.Metal>
0.0000

> <Gold.Chemscore.Lipo>
98.3075

> <Gold.Chemscore.Internal_Hbond>
0.0000

> <Gold.Chemscore.DEClash>
0.3519

> <Gold.Chemscore.DEInternal>
1.2908

> <Gold.Chemscore.Rot>
2.3717

> <Gold.Chemscore.Internal.Correction>
   9.000000E+99

> <Gold.Chemscore.Hbonds>
donor molecule, donor type, donor heavy atom, donor atom, acceptor molecule, acceptor atom, score
      L1  H    11    27       P1  8028  0.01
      L1  H    15    33       P1  8028  0.37
      P1  H  7989  7998       L1    10  0.86

> <Gold.Chemscore.Hbond.Weighted>
-6.2358

> <Gold.Chemscore.Metal.Weighted>
-0.0000

> <Gold.Chemscore.Lipo.Weighted>
-11.5020

> <Gold.Chemscore.Internal_Hbond.Weighted>
0.0000

> <Gold.Chemscore.DEClash.Weighted>
0.3519

> <Gold.Chemscore.DEInternal.Weighted>
1.2908

> <Gold.Chemscore.Rot.Weighted>
6.0715

> <Gold.Chemscore.Internal.Correction.Weighted>
   9.000000E+99

> <Gold.Protein.RotatedTorsions>
[ 6907 6896 6895 6894 ] final  -71.14 input  -60.11 | X-H torsion
[ 7974 7965 7964 7962 ] final  -28.43 input  175.53 | X-H torsion
[ 8008 7997 7996 7995 ] final   86.84 input   59.86 | X-H torsion
[ 10167 10162 10161 10158 ] final -139.75 input  -65.29 | X-H torsion
[ 10718 10713 10712 10709 ] final  145.07 input   66.30 | X-H torsion
[ 10763 10752 10751 10750 ] final -171.34 input  -60.55 | X-H torsion
[ 11005 11000 10999 10996 ] final   65.70 input  -57.11 | X-H torsion

> <Gold.Protein.ActiveResidues>
 VAL166  LYS551  ARG553  GLY616  TRP617  ASP618  TYR619  PRO620  LYS621  CYS622 
 ASP623  PHE694  ASN695  SER759  ASP760  ASP761  ALA762  ILE779  LEU786  VAL792 
 PHE793  MET794  SER795  GLU796  ALA797  LYS798  CYS799  TRP800  GLU811  SER814 

> <Gold.Protein.RotatedAtoms>
  150.7226  134.5352  159.5719 H   0  0  0  0  0  0  0  0  0  0  0  0  # atno 6907 bound_to 6896
  152.2875  134.7756  160.0393 H   0  0  0  0  0  0  0  0  0  0  0  0  # atno 6908 bound_to 6896
  151.8381  133.3384  159.3671 H   0  0  0  0  0  0  0  0  0  0  0  0  # atno 6909 bound_to 6896
  146.1288  140.5282  142.8702 H   0  0  0  0  0  0  0  0  0  0  0  0  # atno 7974 bound_to 7965
  155.9679  140.3388  155.6549 H   0  0  0  0  0  0  0  0  0  0  0  0  # atno 8008 bound_to 7997
  155.6713  140.0727  157.2537 H   0  0  0  0  0  0  0  0  0  0  0  0  # atno 8009 bound_to 7997
  154.4159  140.1691  156.1870 H   0  0  0  0  0  0  0  0  0  0  0  0  # atno 8010 bound_to 7997
  139.8348  143.7399  152.2665 H   0  0  0  0  0  0  0  0  0  0  0  0  # atno 10167 bound_to 10162
  157.3496  131.0948  151.1012 H   0  0  0  0  0  0  0  0  0  0  0  0  # atno 10718 bound_to 10713
  154.6316  135.2887  155.0210 H   0  0  0  0  0  0  0  0  0  0  0  0  # atno 10763 bound_to 10752
  154.1368  135.6525  153.4937 H   0  0  0  0  0  0  0  0  0  0  0  0  # atno 10764 bound_to 10752
  153.0282  135.5323  154.7146 H   0  0  0  0  0  0  0  0  0  0  0  0  # atno 10765 bound_to 10752
  139.9878  134.6640  156.0145 H   0  0  0  0  0  0  0  0  0  0  0  0  # atno 11005 bound_to 11000
  144.7670  140.5552  143.6696 LP  0  0  0  0  0  0  0  0  0  0  0  0  # atno 17320 bound_to 7965
  145.5305  139.1475  143.3502 LP  0  0  0  0  0  0  0  0  0  0  0  0  # atno 17321 bound_to 7965
  139.7618  144.7504  151.0353 LP  0  0  0  0  0  0  0  0  0  0  0  0  # atno 17342 bound_to 10162
  140.7803  143.4743  151.0104 LP  0  0  0  0  0  0  0  0  0  0  0  0  # atno 17343 bound_to 10162
  157.2192  130.6473  149.5804 LP  0  0  0  0  0  0  0  0  0  0  0  0  # atno 17370 bound_to 10713
  155.9719  130.4634  150.6182 LP  0  0  0  0  0  0  0  0  0  0  0  0  # atno 17371 bound_to 10713
  141.1540  133.6545  156.4102 LP  0  0  0  0  0  0  0  0  0  0  0  0  # atno 17394 bound_to 11000
  140.4968  134.6524  157.5232 LP  0  0  0  0  0  0  0  0  0  0  0  0  # atno 17395 bound_to 11000

$$$$
