AV-unprocessed.smi:287|AV-procd|sdf|2197|dock2
  -GOLD-   2262022 03D 1   1.00000     0.00000
 Structure written by MMmdl.
 55 58  0  0  0  0  0  0  0  0  1 V2000
  147.3687  143.3089  159.1863 C   0  0  0  0  0  0  0  0  0  0  0  0
  146.2924  142.4565  158.6066 C   0  0  0  0  0  0  0  0  0  0  0  0
  145.8292  142.2530  157.3396 C   0  0  0  0  0  0  0  0  0  0  0  0
  144.7609  141.3106  157.4220 C   0  0  0  0  0  0  0  0  0  0  0  0
  143.9404  140.7888  156.2497 C   0  0  1  0  0  0  0  0  0  0  0  0
  142.4908  141.2900  156.3605 C   0  0  0  0  0  0  0  0  0  0  0  0
  144.4030  141.2605  154.9990 O   0  0  0  0  0  0  0  0  0  0  0  0
  143.9639  139.2462  156.1598 C   0  0  0  0  0  0  0  0  0  0  0  0
  145.2882  138.7167  155.8606 N   0  0  0  0  0  0  0  0  0  0  0  0
  145.6178  138.3313  154.6101 C   0  0  0  0  0  0  0  0  0  0  0  0
  146.3645  139.2157  153.9068 N   0  0  0  0  0  0  0  0  0  0  0  0
  146.7477  138.9306  152.6594 C   0  0  0  0  0  0  0  0  0  0  0  0
  146.4953  137.8364  151.9392 N   0  0  0  0  0  0  0  0  0  0  0  0
  145.7410  136.9409  152.6402 C   0  0  0  0  0  0  0  0  0  0  0  0
  145.2631  137.1054  153.9717 C   0  0  0  0  0  0  0  0  0  0  0  0
  144.5343  135.9783  154.3364 N   0  0  0  0  0  0  0  0  0  0  0  0
  144.5850  135.2034  153.2871 C   0  0  0  0  0  0  0  0  0  0  0  0
  145.2969  135.7060  152.2193 N   0  0  0  0  0  0  0  0  0  0  0  0
  145.5577  135.0963  150.8720 C   0  0  2  0  0  0  0  0  0  0  0  0
  144.3458  134.6098  150.3851 O   0  0  0  0  0  0  0  0  0  0  0  0
  144.2443  133.1900  150.5366 C   0  0  1  0  0  0  0  0  0  0  0  0
  144.0904  132.6143  149.1129 C   0  0  0  0  0  0  0  0  0  0  0  0
  142.7805  132.1180  148.9376 O   0  0  0  0  0  0  0  0  0  0  0  0
  145.5283  132.7720  151.2871 C   0  0  1  0  0  0  0  0  0  0  0  0
  146.0433  131.5171  150.8860 O   0  0  0  0  0  0  0  0  0  0  0  0
  146.5037  133.8909  150.9658 C   0  0  2  0  0  0  0  0  0  0  0  0
  147.4954  134.0107  151.9698 O   0  0  0  0  0  0  0  0  0  0  0  0
  144.6661  141.0046  158.7587 C   0  0  0  0  0  0  0  0  0  0  0  0
  143.7860  140.1004  159.5574 C   0  0  0  0  0  0  0  0  0  0  0  0
  145.5898  141.6960  159.4830 O   0  0  0  0  0  0  0  0  0  0  0  0
  145.9348  135.9177  150.2619 H   0  0  0  0  0  0  0  0  0  0  0  0
  143.3712  132.9308  151.1371 H   0  0  0  0  0  0  0  0  0  0  0  0
  145.3252  132.7476  152.3590 H   0  0  0  0  0  0  0  0  0  0  0  0
  146.9625  133.7434  149.9870 H   0  0  0  0  0  0  0  0  0  0  0  0
  147.6750  144.0808  158.4803 H   0  0  0  0  0  0  0  0  0  0  0  0
  148.2444  142.7087  159.4333 H   0  0  0  0  0  0  0  0  0  0  0  0
  147.0266  143.8015  160.0968 H   0  0  0  0  0  0  0  0  0  0  0  0
  146.2103  142.7321  156.4498 H   0  0  0  0  0  0  0  0  0  0  0  0
  142.0227  140.9481  157.2844 H   0  0  0  0  0  0  0  0  0  0  0  0
  141.8787  140.9296  155.5326 H   0  0  0  0  0  0  0  0  0  0  0  0
  142.4466  142.3800  156.3546 H   0  0  0  0  0  0  0  0  0  0  0  0
  143.9146  140.8269  154.3162 H   0  0  0  0  0  0  0  0  0  0  0  0
  143.6678  138.8402  157.1280 H   0  0  0  0  0  0  0  0  0  0  0  0
  143.2363  138.8895  155.4295 H   0  0  0  0  0  0  0  0  0  0  0  0
  145.9053  138.6122  156.6534 H   0  0  0  0  0  0  0  0  0  0  0  0
  147.3421  139.6874  152.1693 H   0  0  0  0  0  0  0  0  0  0  0  0
  144.0985  134.2396  153.2699 H   0  0  0  0  0  0  0  0  0  0  0  0
  144.3193  133.3610  148.3518 H   0  0  0  0  0  0  0  0  0  0  0  0
  144.7605  131.7698  148.9529 H   0  0  0  0  0  0  0  0  0  0  0  0
  142.1690  132.7670  149.2506 H   0  0  0  0  0  0  0  0  0  0  0  0
  146.9784  131.6022  150.7758 H   0  0  0  0  0  0  0  0  0  0  0  0
  147.8669  134.8787  151.9214 H   0  0  0  0  0  0  0  0  0  0  0  0
  143.8555  139.0745  159.1956 H   0  0  0  0  0  0  0  0  0  0  0  0
  142.7448  140.4154  159.4874 H   0  0  0  0  0  0  0  0  0  0  0  0
  144.0671  140.1040  160.6109 H   0  0  0  0  0  0  0  0  0  0  0  0
  1  2  1  0  0  0  0
  1 35  1  0  0  0  0
  1 36  1  0  0  0  0
  1 37  1  0  0  0  0
  2 30  1  0  0  0  0
  2  3  2  0  0  0  0
  3  4  1  0  0  0  0
  3 38  1  0  0  0  0
  4  5  1  0  0  0  0
  4 28  2  0  0  0  0
  5  6  1  0  0  0  0
  5  7  1  0  0  0  0
  5  8  1  0  0  0  0
  6 39  1  0  0  0  0
  6 40  1  0  0  0  0
  6 41  1  0  0  0  0
  7 42  1  0  0  0  0
  8  9  1  0  0  0  0
  8 43  1  0  0  0  0
  8 44  1  0  0  0  0
  9 10  1  0  0  0  0
  9 45  1  0  0  0  0
 10 15  1  0  0  0  0
 10 11  2  0  0  0  0
 11 12  1  0  0  0  0
 12 13  2  0  0  0  0
 12 46  1  0  0  0  0
 13 14  1  0  0  0  0
 14 18  1  0  0  0  0
 14 15  2  0  0  0  0
 15 16  1  0  0  0  0
 16 17  2  0  0  0  0
 17 18  1  0  0  0  0
 17 47  1  0  0  0  0
 18 19  1  0  0  0  0
 19 31  1  0  0  0  0
 19 26  1  0  0  0  0
 19 20  1  0  0  0  0
 20 21  1  0  0  0  0
 21 32  1  0  0  0  0
 21 22  1  0  0  0  0
 21 24  1  0  0  0  0
 22 23  1  0  0  0  0
 22 48  1  0  0  0  0
 22 49  1  0  0  0  0
 23 50  1  0  0  0  0
 24 33  1  0  0  0  0
 24 25  1  0  0  0  0
 24 26  1  0  0  0  0
 25 51  1  0  0  0  0
 26 34  1  0  0  0  0
 26 27  1  0  0  0  0
 27 52  1  0  0  0  0
 28 29  1  0  0  0  0
 28 30  1  0  0  0  0
 29 53  1  0  0  0  0
 29 54  1  0  0  0  0
 29 55  1  0  0  0  0
M  END
> <s_m_source_file>
AV-unprocessed.smi

> <i_m_source_file_index>
287

> <i_lp_mmshare_version>
43012

> <i_f3d_flags>
0

> <s_epik_input>
W0NIM11jMVtjSF1jKGMobzEpW0NIM10pW0NAQF0oW0NIM10pKFtPSF0pW0NIMl1bTkhdYyhuW2NIXW4yKWMoYzIzKW5bY0hdbjNbQ0BASF00T1tDQEhdKFtDSDJdW09IXSlbQ0BASF0oW09IXSlbQ0BIXTRbT0hd

> <s_epik_cmdline>
J2VwaWtfcHl0aG9uJywgJy1waCcsICc3LjAnLCAnLXRuJywgJzgnLCAnLW1hJywgJzIwMCcsICctbWV0YWxfYmluZGluZycsICctaW1hZScsICc8aW5maWxlLm1hZT4nLCAnLW9tYWUnLCAnPG91dGZpbGUubWFlPic=

> <r_lp_tautomer_probability>
1

> <r_epik_Ionization_Penalty>
0.000992612

> <r_epik_Ionization_Penalty_Charging>
0

> <r_epik_Ionization_Penalty_Neutral>
0.000992612

> <r_epik_State_Penalty>
-0

> <r_epik_Charging_Adjusted_Penalty>
0

> <i_epik_Tot_Q>
0

> <i_epik_Tot_abs_Q>
0

> <r_epik_Metal_State_Penalty>
-0

> <b_epik_Metal_Only>
0

> <s_epik_Chemistry_Notes>
This compound contains an acetal/aminal-like group ( X-CH(R)-Y where X, Y are N, S, or O) that may be acid/base labile, releasing an aldehyde.

> <s_lp_Force_Field>
OPLS_2005

> <r_lp_Energy>
44.9714

> <b_lp_Chiralities_Consistent>
1

> <s_lp_Variant>
AV-unprocessed.smi:287-21

> <Gold.Version>
5.8.1

> <Gold.Id.Protein>
6NUR|6NUR_protein|mol2

> <Gold.PLP.Fitness>
49.1351

> <Gold.PLP.PLP>
-32.9432

> <Gold.PLP.part.hbond>
-6.8713

> <Gold.PLP.part.metal>
0.0000

> <Gold.PLP.part.buried>
-6.7406

> <Gold.PLP.part.nonpolar>
-20.5448

> <Gold.PLP.part.repulsive>
2.0565

> <Gold.PLP.ligand.clash>
0.0000

> <Gold.PLP.ligand.torsion>
1.8769

> <Gold.PLP.Chemscore.Hbond>
5.5933

> <Gold.PLP.Chemscore.CHOScore>
1.0000

> <Gold.PLP.Chemscore.Metal>
0.0000

> <Gold.Chemscore.Hbonds>
donor molecule, donor type, donor heavy atom, donor atom, acceptor molecule, acceptor atom, score
      L1  H     7    42       P1 10175  0.99
      L1  H    23    50       P1 10186  0.99
      L1  H    25    51       P1 10747  0.60
      L1  H    27    52       P1  7948  1.00
      P1  H  6934  6946       L1    30  1.00
      P1  H 10785 10796       L1    23  1.00
      L1  C    12    46       P1  7957  1.00

> <Gold.PLP.Chemscore.Internal.Correction>
0.1659

> <Gold.Rescore>
     Score         DG    S(hbond)    S(metal)    S(lipo)     H(rot)  DE(clash)    DE(int)     intcor
      7.27     -10.02       3.97        0.00      40.64       5.27       0.99       1.75       ----

> <Gold.Chemscore.Fitness>
7.2723

> <Gold.Chemscore.DG>
-10.0184

> <Gold.Chemscore.ZeroCoef>
-5.4800

> <Gold.Chemscore.Hbond>
3.9721

> <Gold.Chemscore.Metal>
0.0000

> <Gold.Chemscore.Lipo>
40.6445

> <Gold.Chemscore.Internal_Hbond>
0.0000

> <Gold.Chemscore.DEClash>
0.9918

> <Gold.Chemscore.DEInternal>
1.7543

> <Gold.Chemscore.Rot>
5.2672

> <Gold.Chemscore.Internal.Correction>
   9.000000E+99

> <Gold.Chemscore.Hbonds>
donor molecule, donor type, donor heavy atom, donor atom, acceptor molecule, acceptor atom, score
      L1  H     7    42       P1 10175  0.89
      L1  H    23    50       P1 10186  0.93
      L1  H    25    51       P1 10747  0.59
      L1  H    27    52       P1  7948  0.50
      P1  H  6934  6946       L1    30  0.62
      P1  H 10785 10796       L1    23  0.24

> <Gold.Chemscore.Hbond.Weighted>
-13.2669

> <Gold.Chemscore.Metal.Weighted>
-0.0000

> <Gold.Chemscore.Lipo.Weighted>
-4.7554

> <Gold.Chemscore.Internal_Hbond.Weighted>
0.0000

> <Gold.Chemscore.DEClash.Weighted>
0.9918

> <Gold.Chemscore.DEInternal.Weighted>
1.7543

> <Gold.Chemscore.Rot.Weighted>
13.4839

> <Gold.Chemscore.Internal.Correction.Weighted>
   9.000000E+99

> <Gold.Protein.RotatedTorsions>
[ 6907 6896 6895 6894 ] final   39.16 input  -60.11 | X-H torsion
[ 7974 7965 7964 7962 ] final    6.45 input  175.53 | X-H torsion
[ 8008 7997 7996 7995 ] final   50.06 input   59.86 | X-H torsion
[ 10167 10162 10161 10158 ] final  102.15 input  -65.29 | X-H torsion
[ 10718 10713 10712 10709 ] final  126.87 input   66.30 | X-H torsion
[ 10763 10752 10751 10750 ] final   29.69 input  -60.55 | X-H torsion
[ 11005 11000 10999 10996 ] final  -70.01 input  -57.11 | X-H torsion

> <Gold.Protein.ActiveResidues>
 VAL166  LYS551  ARG553  GLY616  TRP617  ASP618  TYR619  PRO620  LYS621  CYS622 
 ASP623  PHE694  ASN695  SER759  ASP760  ASP761  ALA762  ILE779  LEU786  VAL792 
 PHE793  MET794  SER795  GLU796  ALA797  LYS798  CYS799  TRP800  GLU811  SER814 

> <Gold.Protein.RotatedAtoms>
  152.1660  134.8873  160.0537 H   0  0  0  0  0  0  0  0  0  0  0  0  # atno 6907 bound_to 6896
  151.9851  133.3766  159.4131 H   0  0  0  0  0  0  0  0  0  0  0  0  # atno 6908 bound_to 6896
  150.6894  134.3919  159.5124 H   0  0  0  0  0  0  0  0  0  0  0  0  # atno 6909 bound_to 6896
  146.2434  140.0231  142.8396 H   0  0  0  0  0  0  0  0  0  0  0  0  # atno 7974 bound_to 7965
  155.4125  140.3443  155.4265 H   0  0  0  0  0  0  0  0  0  0  0  0  # atno 8008 bound_to 7997
  156.1440  140.1550  156.8907 H   0  0  0  0  0  0  0  0  0  0  0  0  # atno 8009 bound_to 7997
  154.4995  140.0818  156.7748 H   0  0  0  0  0  0  0  0  0  0  0  0  # atno 8010 bound_to 7997
  139.7375  144.7020  151.0626 H   0  0  0  0  0  0  0  0  0  0  0  0  # atno 10167 bound_to 10162
  157.5382  131.1097  150.8902 H   0  0  0  0  0  0  0  0  0  0  0  0  # atno 10718 bound_to 10713
  153.0415  135.6482  154.0930 H   0  0  0  0  0  0  0  0  0  0  0  0  # atno 10763 bound_to 10752
  154.0636  135.2886  155.3322 H   0  0  0  0  0  0  0  0  0  0  0  0  # atno 10764 bound_to 10752
  154.6641  135.5380  153.8120 H   0  0  0  0  0  0  0  0  0  0  0  0  # atno 10765 bound_to 10752
  141.1566  133.6779  156.6687 H   0  0  0  0  0  0  0  0  0  0  0  0  # atno 11005 bound_to 11000
  145.1223  140.9469  143.4593 LP  0  0  0  0  0  0  0  0  0  0  0  0  # atno 17320 bound_to 7965
  145.0469  139.3213  143.5948 LP  0  0  0  0  0  0  0  0  0  0  0  0  # atno 17321 bound_to 7965
  140.7781  143.4966  150.9825 LP  0  0  0  0  0  0  0  0  0  0  0  0  # atno 17342 bound_to 10162
  139.8654  143.7261  152.3170 LP  0  0  0  0  0  0  0  0  0  0  0  0  # atno 17343 bound_to 10162
  156.9463  130.5403  149.5281 LP  0  0  0  0  0  0  0  0  0  0  0  0  # atno 17370 bound_to 10713
  156.0475  130.5549  150.8914 LP  0  0  0  0  0  0  0  0  0  0  0  0  # atno 17371 bound_to 10713
  140.3191  134.8023  157.4238 LP  0  0  0  0  0  0  0  0  0  0  0  0  # atno 17394 bound_to 11000
  140.1112  134.5343  155.8264 LP  0  0  0  0  0  0  0  0  0  0  0  0  # atno 17395 bound_to 11000

$$$$
