AV-unprocessed.smi:1444|AV-procd|sdf|5882|dock5
  -GOLD-   22720 5563D 1   1.00000     0.00000
 Structure written by MMmdl.
 43 44  0  0  0  0  0  0  0  0  1 V2000
  151.8412  138.1075  154.4183 C   0  0  0  0  0  0  0  0  0  0  0  0
  150.5059  138.1101  153.9251 O   0  0  0  0  0  0  0  0  0  0  0  0
  149.6779  139.1624  154.2668 C   0  0  0  0  0  0  0  0  0  0  0  0
  150.2373  140.2745  154.8064 N   0  0  0  0  0  0  0  0  0  0  0  0
  149.4310  141.3041  155.1376 C   0  0  0  0  0  0  0  0  0  0  0  0
  148.0377  141.2844  154.9441 C   0  0  0  0  0  0  0  0  0  0  0  0
  147.4551  140.1321  154.3850 C   0  0  0  0  0  0  0  0  0  0  0  0
  148.2862  139.0368  154.0469 C   0  0  0  0  0  0  0  0  0  0  0  0
  147.8022  137.8359  153.4589 N   0  0  0  0  0  0  0  0  0  0  0  0
  146.5733  137.2997  153.5476 C   0  0  0  0  0  0  0  0  0  0  0  0
  145.6356  137.7725  154.1897 O   0  0  0  0  0  0  0  0  0  0  0  0
  146.4963  136.1512  152.8597 N   0  0  0  0  0  0  0  0  0  0  0  0
  145.3147  135.2975  152.7593 C   0  0  1  0  0  0  0  0  0  0  0  0
  144.1460  136.1750  152.2840 C   0  0  0  0  0  0  0  0  0  0  0  0
  145.6447  134.0908  151.8453 C   0  0  0  0  0  0  0  0  0  0  0  0
  146.4228  133.0044  152.4482 N   0  0  0  0  0  0  0  0  0  0  0  0
  146.2640  131.7340  151.7394 C   0  0  0  0  0  0  0  0  0  0  0  0
  147.1124  130.6130  152.3649 C   0  0  0  0  0  0  0  0  0  0  0  0
  148.4812  131.0023  152.3842 O   0  0  0  0  0  0  0  0  0  0  0  0
  148.6929  132.2151  153.0977 C   0  0  0  0  0  0  0  0  0  0  0  0
  147.8458  133.3351  152.4690 C   0  0  0  0  0  0  0  0  0  0  0  0
  152.3534  137.2119  154.0672 H   0  0  0  0  0  0  0  0  0  0  0  0
  151.8649  138.0948  155.5090 H   0  0  0  0  0  0  0  0  0  0  0  0
  152.4011  138.9714  154.0575 H   0  0  0  0  0  0  0  0  0  0  0  0
  149.9118  142.1723  155.5632 H   0  0  0  0  0  0  0  0  0  0  0  0
  147.4301  142.1356  155.2136 H   0  0  0  0  0  0  0  0  0  0  0  0
  146.3899  140.1167  154.2135 H   0  0  0  0  0  0  0  0  0  0  0  0
  148.4950  137.2845  152.9737 H   0  0  0  0  0  0  0  0  0  0  0  0
  147.3204  135.8400  152.3666 H   0  0  0  0  0  0  0  0  0  0  0  0
  145.0696  134.9282  153.7570 H   0  0  0  0  0  0  0  0  0  0  0  0
  143.1863  135.6912  152.4568 H   0  0  0  0  0  0  0  0  0  0  0  0
  144.2296  136.4151  151.2236 H   0  0  0  0  0  0  0  0  0  0  0  0
  144.1136  137.1156  152.8353 H   0  0  0  0  0  0  0  0  0  0  0  0
  144.7337  133.6959  151.3930 H   0  0  0  0  0  0  0  0  0  0  0  0
  146.2216  134.4911  151.0099 H   0  0  0  0  0  0  0  0  0  0  0  0
  145.2268  131.4143  151.7356 H   0  0  0  0  0  0  0  0  0  0  0  0
  146.5511  131.8559  150.6937 H   0  0  0  0  0  0  0  0  0  0  0  0
  146.7746  130.3921  153.3786 H   0  0  0  0  0  0  0  0  0  0  0  0
  147.0127  129.6949  151.7859 H   0  0  0  0  0  0  0  0  0  0  0  0
  148.4339  132.0781  154.1489 H   0  0  0  0  0  0  0  0  0  0  0  0
  149.7515  132.4717  153.0585 H   0  0  0  0  0  0  0  0  0  0  0  0
  148.1969  133.5261  151.4537 H   0  0  0  0  0  0  0  0  0  0  0  0
  148.0044  134.2557  153.0321 H   0  0  0  0  0  0  0  0  0  0  0  0
  1  2  1  0  0  0  0
  1 22  1  0  0  0  0
  1 23  1  0  0  0  0
  1 24  1  0  0  0  0
  2  3  1  0  0  0  0
  3  8  1  0  0  0  0
  3  4  2  0  0  0  0
  4  5  1  0  0  0  0
  5  6  2  0  0  0  0
  5 25  1  0  0  0  0
  6  7  1  0  0  0  0
  6 26  1  0  0  0  0
  7  8  2  0  0  0  0
  7 27  1  0  0  0  0
  8  9  1  0  0  0  0
  9 10  1  0  0  0  0
  9 28  1  0  0  0  0
 10 11  2  0  0  0  0
 10 12  1  0  0  0  0
 12 13  1  0  0  0  0
 12 29  1  0  0  0  0
 13 14  1  0  0  0  0
 13 15  1  0  0  0  0
 13 30  1  0  0  0  0
 14 31  1  0  0  0  0
 14 32  1  0  0  0  0
 14 33  1  0  0  0  0
 15 16  1  0  0  0  0
 15 34  1  0  0  0  0
 15 35  1  0  0  0  0
 16 21  1  0  0  0  0
 16 17  1  0  0  0  0
 17 18  1  0  0  0  0
 17 36  1  0  0  0  0
 17 37  1  0  0  0  0
 18 19  1  0  0  0  0
 18 38  1  0  0  0  0
 18 39  1  0  0  0  0
 19 20  1  0  0  0  0
 20 21  1  0  0  0  0
 20 40  1  0  0  0  0
 20 41  1  0  0  0  0
 21 42  1  0  0  0  0
 21 43  1  0  0  0  0
M  END
> <s_m_source_file>
AV-unprocessed.smi

> <i_m_source_file_index>
1444

> <i_lp_mmshare_version>
43012

> <i_f3d_flags>
0

> <s_epik_input>
W0NIM11PYzFuW2NIXVtjSF1bY0hdYzFbTkhdQyg9TylbTkhdW0NASF0oW0NIM10pW0NIMl1OMltDSDJdW0NIMl1PW0NIMl1bQ0gyXTI=

> <s_epik_cmdline>
J2VwaWtfcHl0aG9uJywgJy1waCcsICc3LjAnLCAnLXRuJywgJzgnLCAnLW1hJywgJzIwMCcsICctbWV0YWxfYmluZGluZycsICctaW1hZScsICc8aW5maWxlLm1hZT4nLCAnLW9tYWUnLCAnPG91dGZpbGUubWFlPic=

> <r_lp_tautomer_probability>
1

> <r_epik_Ionization_Penalty>
0.266086

> <r_epik_Ionization_Penalty_Charging>
0

> <r_epik_Ionization_Penalty_Neutral>
0.266086

> <r_epik_State_Penalty>
0.257924

> <r_epik_Charging_Adjusted_Penalty>
0.257924

> <i_epik_Tot_Q>
0

> <i_epik_Tot_abs_Q>
0

> <r_epik_Metal_State_Penalty>
0.25792

> <b_epik_Metal_Only>
0

> <s_lp_Force_Field>
OPLS_2005

> <r_lp_Energy>
29.2348

> <b_lp_Chiralities_Consistent>
1

> <s_lp_Variant>
AV-unprocessed.smi:1444-2

> <Gold.Version>
5.8.1

> <Gold.Id.Protein>
6NUR|6NUR_protein|mol2

> <Gold.PLP.Fitness>
41.3368

> <Gold.PLP.PLP>
-31.3487

> <Gold.PLP.part.hbond>
-2.9242

> <Gold.PLP.part.metal>
0.0000

> <Gold.PLP.part.buried>
-2.4844

> <Gold.PLP.part.nonpolar>
-27.3700

> <Gold.PLP.part.repulsive>
1.5506

> <Gold.PLP.ligand.clash>
0.0000

> <Gold.PLP.ligand.torsion>
0.7021

> <Gold.PLP.Chemscore.Hbond>
2.7840

> <Gold.PLP.Chemscore.CHOScore>
1.0000

> <Gold.PLP.Chemscore.Metal>
0.0000

> <Gold.Chemscore.Hbonds>
donor molecule, donor type, donor heavy atom, donor atom, acceptor molecule, acceptor atom, score
      L1  H     9    28       P1  7948  1.00
      L1  H    12    29       P1  7948  0.94
      P1  H  7989  7998       L1     4  1.00
      L1  C     5    25       P1  8028  0.43

> <Gold.PLP.Chemscore.Internal.Correction>
0.0403

> <Gold.Rescore>
     Score         DG    S(hbond)    S(metal)    S(lipo)     H(rot)  DE(clash)    DE(int)     intcor
     13.51     -16.89       2.39        0.00      67.04       1.72       0.42       2.96       ----

> <Gold.Chemscore.Fitness>
13.5093

> <Gold.Chemscore.DG>
-16.8923

> <Gold.Chemscore.ZeroCoef>
-5.4800

> <Gold.Chemscore.Hbond>
2.3860

> <Gold.Chemscore.Metal>
0.0000

> <Gold.Chemscore.Lipo>
67.0392

> <Gold.Chemscore.Internal_Hbond>
0.0000

> <Gold.Chemscore.DEClash>
0.4213

> <Gold.Chemscore.DEInternal>
2.9617

> <Gold.Chemscore.Rot>
1.7189

> <Gold.Chemscore.Internal.Correction>
   9.000000E+99

> <Gold.Chemscore.Hbonds>
donor molecule, donor type, donor heavy atom, donor atom, acceptor molecule, acceptor atom, score
      L1  H     9    28       P1  7948  0.95
      L1  H    12    29       P1  7948  0.92
      P1  H  7989  7998       L1     4  0.39

> <Gold.Chemscore.Hbond.Weighted>
-7.9692

> <Gold.Chemscore.Metal.Weighted>
-0.0000

> <Gold.Chemscore.Lipo.Weighted>
-7.8436

> <Gold.Chemscore.Internal_Hbond.Weighted>
0.0000

> <Gold.Chemscore.DEClash.Weighted>
0.4213

> <Gold.Chemscore.DEInternal.Weighted>
2.9617

> <Gold.Chemscore.Rot.Weighted>
4.4004

> <Gold.Chemscore.Internal.Correction.Weighted>
   9.000000E+99

> <Gold.Protein.RotatedTorsions>
[ 6907 6896 6895 6894 ] final   25.82 input  -60.11 | X-H torsion
[ 7974 7965 7964 7962 ] final -143.23 input  175.53 | X-H torsion
[ 8008 7997 7996 7995 ] final  143.05 input   59.86 | X-H torsion
[ 10167 10162 10161 10158 ] final  154.81 input  -65.29 | X-H torsion
[ 10718 10713 10712 10709 ] final  117.30 input   66.30 | X-H torsion
[ 10763 10752 10751 10750 ] final -113.55 input  -60.55 | X-H torsion
[ 11005 11000 10999 10996 ] final  -69.74 input  -57.11 | X-H torsion

> <Gold.Protein.ActiveResidues>
 VAL166  LYS551  ARG553  GLY616  TRP617  ASP618  TYR619  PRO620  LYS621  CYS622 
 ASP623  PHE694  ASN695  SER759  ASP760  ASP761  ALA762  ILE779  LEU786  VAL792 
 PHE793  MET794  SER795  GLU796  ALA797  LYS798  CYS799  TRP800  GLU811  SER814 

> <Gold.Protein.RotatedAtoms>
  151.9782  135.0042  160.0555 H   0  0  0  0  0  0  0  0  0  0  0  0  # atno 6907 bound_to 6896
  152.1720  133.4645  159.4922 H   0  0  0  0  0  0  0  0  0  0  0  0  # atno 6908 bound_to 6896
  150.6903  134.1858  159.4309 H   0  0  0  0  0  0  0  0  0  0  0  0  # atno 6909 bound_to 6896
  144.8384  140.5860  143.5468 H   0  0  0  0  0  0  0  0  0  0  0  0  # atno 7974 bound_to 7965
  156.2938  140.2272  156.4827 H   0  0  0  0  0  0  0  0  0  0  0  0  # atno 8008 bound_to 7997
  154.7839  140.0458  157.1169 H   0  0  0  0  0  0  0  0  0  0  0  0  # atno 8009 bound_to 7997
  154.9726  140.3068  155.4984 H   0  0  0  0  0  0  0  0  0  0  0  0  # atno 8010 bound_to 7997
  139.4822  144.5153  151.7960 H   0  0  0  0  0  0  0  0  0  0  0  0  # atno 10167 bound_to 10162
  157.6105  131.1035  150.7595 H   0  0  0  0  0  0  0  0  0  0  0  0  # atno 10718 bound_to 10713
  154.8401  135.4450  154.1366 H   0  0  0  0  0  0  0  0  0  0  0  0  # atno 10763 bound_to 10752
  153.2563  135.6931  153.7632 H   0  0  0  0  0  0  0  0  0  0  0  0  # atno 10764 bound_to 10752
  153.6926  135.3385  155.3181 H   0  0  0  0  0  0  0  0  0  0  0  0  # atno 10765 bound_to 10752
  141.1560  133.6772  156.6646 H   0  0  0  0  0  0  0  0  0  0  0  0  # atno 11005 bound_to 11000
  145.4745  139.1500  143.3796 LP  0  0  0  0  0  0  0  0  0  0  0  0  # atno 17320 bound_to 7965
  146.2680  140.4879  142.8826 LP  0  0  0  0  0  0  0  0  0  0  0  0  # atno 17321 bound_to 7965
  140.4661  144.1653  150.5912 LP  0  0  0  0  0  0  0  0  0  0  0  0  # atno 17342 bound_to 10162
  140.4432  143.2517  151.9445 LP  0  0  0  0  0  0  0  0  0  0  0  0  # atno 17343 bound_to 10162
  156.7973  130.4909  149.5375 LP  0  0  0  0  0  0  0  0  0  0  0  0  # atno 17370 bound_to 10713
  156.1207  130.6107  151.0188 LP  0  0  0  0  0  0  0  0  0  0  0  0  # atno 17371 bound_to 10713
  140.3221  134.7999  157.4261 LP  0  0  0  0  0  0  0  0  0  0  0  0  # atno 17394 bound_to 11000
  140.1088  134.5374  155.8285 LP  0  0  0  0  0  0  0  0  0  0  0  0  # atno 17395 bound_to 11000

$$$$
