AV-unprocessed.smi:952|AV-procd|sdf|4256|dock7
  -GOLD-   22720 2163D 1   1.00000     0.00000
 Structure written by MMmdl.
 35 35  0  0  0  0  0  0  0  0  1 V2000
  148.5019  141.2341  153.5115 C   0  0  0  0  0  0  0  0  0  0  0  0
  149.7546  141.2287  154.3938 C   0  0  0  0  0  0  0  0  0  0  0  0
  150.5270  139.9023  154.3085 C   0  0  0  0  0  0  0  0  0  0  0  0
  151.1184  139.5432  155.5921 N   0  0  0  0  0  0  0  0  0  0  0  0
  152.4344  139.5031  155.8503 C   0  0  0  0  0  0  0  0  0  0  0  0
  153.2959  139.7542  155.0061 O   0  0  0  0  0  0  0  0  0  0  0  0
  152.8278  139.0973  157.2760 C   0  0  0  0  0  0  0  0  0  0  0  0
  152.4416  140.0873  158.2782 N   0  0  0  0  0  0  0  0  0  0  0  0
  153.2643  140.6262  159.1927 C   0  0  0  0  0  0  0  0  0  0  0  0
  154.4599  140.3405  159.2725 O   0  0  0  0  0  0  0  0  0  0  0  0
  152.6329  141.6430  160.1564 C   0  0  1  0  0  0  0  0  0  0  0  0
  153.5831  142.0559  161.2955 C   0  0  0  0  0  0  0  0  0  0  0  0
  152.1579  142.8095  159.4236 N   0  0  0  0  0  0  0  0  0  0  0  0
  152.8914  143.7901  158.7836 C   0  0  0  0  0  0  0  0  0  0  0  0
  152.0053  144.6767  158.2426 C   0  0  0  0  0  0  0  0  0  0  0  0
  150.7356  144.1517  158.6107 C   0  0  0  0  0  0  0  0  0  0  0  0
  150.8298  143.0373  159.3178 N   0  0  0  0  0  0  0  0  0  0  0  0
  147.9701  142.1819  153.5984 H   0  0  0  0  0  0  0  0  0  0  0  0
  147.8138  140.4383  153.7985 H   0  0  0  0  0  0  0  0  0  0  0  0
  148.7603  141.0928  152.4616 H   0  0  0  0  0  0  0  0  0  0  0  0
  150.4015  142.0550  154.0969 H   0  0  0  0  0  0  0  0  0  0  0  0
  149.4663  141.4193  155.4283 H   0  0  0  0  0  0  0  0  0  0  0  0
  149.8524  139.0988  154.0111 H   0  0  0  0  0  0  0  0  0  0  0  0
  151.3007  139.9577  153.5406 H   0  0  0  0  0  0  0  0  0  0  0  0
  150.4803  139.3173  156.3415 H   0  0  0  0  0  0  0  0  0  0  0  0
  152.3945  138.1265  157.5241 H   0  0  0  0  0  0  0  0  0  0  0  0
  153.9103  138.9758  157.3145 H   0  0  0  0  0  0  0  0  0  0  0  0
  151.4740  140.3760  158.2840 H   0  0  0  0  0  0  0  0  0  0  0  0
  151.7700  141.1560  160.6157 H   0  0  0  0  0  0  0  0  0  0  0  0
  153.9337  141.1863  161.8525 H   0  0  0  0  0  0  0  0  0  0  0  0
  153.0769  142.7135  162.0026 H   0  0  0  0  0  0  0  0  0  0  0  0
  154.4589  142.5874  160.9209 H   0  0  0  0  0  0  0  0  0  0  0  0
  153.9712  143.7741  158.7663 H   0  0  0  0  0  0  0  0  0  0  0  0
  152.2300  145.5655  157.6718 H   0  0  0  0  0  0  0  0  0  0  0  0
  149.7547  144.5448  158.3873 H   0  0  0  0  0  0  0  0  0  0  0  0
  1  2  1  0  0  0  0
  1 18  1  0  0  0  0
  1 19  1  0  0  0  0
  1 20  1  0  0  0  0
  2  3  1  0  0  0  0
  2 21  1  0  0  0  0
  2 22  1  0  0  0  0
  3  4  1  0  0  0  0
  3 23  1  0  0  0  0
  3 24  1  0  0  0  0
  4  5  1  0  0  0  0
  4 25  1  0  0  0  0
  5  6  2  0  0  0  0
  5  7  1  0  0  0  0
  7  8  1  0  0  0  0
  7 26  1  0  0  0  0
  7 27  1  0  0  0  0
  8  9  1  0  0  0  0
  8 28  1  0  0  0  0
  9 10  2  0  0  0  0
  9 11  1  0  0  0  0
 11 12  1  0  0  0  0
 11 13  1  0  0  0  0
 11 29  1  0  0  0  0
 12 30  1  0  0  0  0
 12 31  1  0  0  0  0
 12 32  1  0  0  0  0
 13 17  1  0  0  0  0
 13 14  1  0  0  0  0
 14 15  2  0  0  0  0
 14 33  1  0  0  0  0
 15 16  1  0  0  0  0
 15 34  1  0  0  0  0
 16 17  2  0  0  0  0
 16 35  1  0  0  0  0
M  END
> <s_m_source_file>
AV-unprocessed.smi

> <i_m_source_file_index>
952

> <i_lp_mmshare_version>
43012

> <i_f3d_flags>
0

> <s_epik_input>
W0NIM11bQ0gyXVtDSDJdW05IXUMoPU8pW0NIMl1bTkhdQyg9TylbQ0BIXShbQ0gzXSluMVtjSF1bY0hdW2NIXW4x

> <s_epik_cmdline>
J2VwaWtfcHl0aG9uJywgJy1waCcsICc3LjAnLCAnLXRuJywgJzgnLCAnLW1hJywgJzIwMCcsICctbWV0YWxfYmluZGluZycsICctaW1hZScsICc8aW5maWxlLm1hZT4nLCAnLW9tYWUnLCAnPG91dGZpbGUubWFlPic=

> <r_lp_tautomer_probability>
1

> <r_epik_Ionization_Penalty>
2.62173e-05

> <r_epik_Ionization_Penalty_Charging>
0

> <r_epik_Ionization_Penalty_Neutral>
2.62173e-05

> <r_epik_State_Penalty>
-0

> <r_epik_Charging_Adjusted_Penalty>
0

> <i_epik_Tot_Q>
0

> <i_epik_Tot_abs_Q>
0

> <r_epik_Metal_State_Penalty>
-0

> <b_epik_Metal_Only>
0

> <s_lp_Force_Field>
OPLS_2005

> <r_lp_Energy>
2.421

> <b_lp_Chiralities_Consistent>
1

> <s_lp_Variant>
AV-unprocessed.smi:952-2

> <Gold.Version>
5.8.1

> <Gold.Id.Protein>
6NUR|6NUR_protein|mol2

> <Gold.PLP.Fitness>
49.2362

> <Gold.PLP.PLP>
-40.7510

> <Gold.PLP.part.hbond>
-3.3219

> <Gold.PLP.part.metal>
0.0000

> <Gold.PLP.part.buried>
-2.6773

> <Gold.PLP.part.nonpolar>
-34.6654

> <Gold.PLP.part.repulsive>
0.2309

> <Gold.PLP.ligand.clash>
0.0000

> <Gold.PLP.ligand.torsion>
0.5134

> <Gold.PLP.Chemscore.Hbond>
2.1627

> <Gold.PLP.Chemscore.CHOScore>
0.9728

> <Gold.PLP.Chemscore.Metal>
0.0000

> <Gold.Chemscore.Hbonds>
donor molecule, donor type, donor heavy atom, donor atom, acceptor molecule, acceptor atom, score
      P1  H  7997  8008       L1    10  0.81
      P1  H  7997  8009       L1     6  1.00
      L1  C    16    35       P1  8028  0.08
      L1  C    16    35       P1  8029  0.90

> <Gold.PLP.Chemscore.Internal.Correction>
0.1054

> <Gold.Rescore>
     Score         DG    S(hbond)    S(metal)    S(lipo)     H(rot)  DE(clash)    DE(int)     intcor
     15.77     -16.40       1.99        0.00      85.57       2.24       0.00       0.62       ----

> <Gold.Chemscore.Fitness>
15.7746

> <Gold.Chemscore.DG>
-16.3985

> <Gold.Chemscore.ZeroCoef>
-5.4800

> <Gold.Chemscore.Hbond>
1.9858

> <Gold.Chemscore.Metal>
0.0000

> <Gold.Chemscore.Lipo>
85.5661

> <Gold.Chemscore.Internal_Hbond>
0.0000

> <Gold.Chemscore.DEClash>
0.0009

> <Gold.Chemscore.DEInternal>
0.6231

> <Gold.Chemscore.Rot>
2.2364

> <Gold.Chemscore.Internal.Correction>
   9.000000E+99

> <Gold.Chemscore.Hbonds>
donor molecule, donor type, donor heavy atom, donor atom, acceptor molecule, acceptor atom, score
      P1  H  7997  8008       L1    10  0.38
      P1  H  7997  8009       L1     6  0.78

> <Gold.Chemscore.Hbond.Weighted>
-6.6324

> <Gold.Chemscore.Metal.Weighted>
-0.0000

> <Gold.Chemscore.Lipo.Weighted>
-10.0112

> <Gold.Chemscore.Internal_Hbond.Weighted>
0.0000

> <Gold.Chemscore.DEClash.Weighted>
0.0009

> <Gold.Chemscore.DEInternal.Weighted>
0.6231

> <Gold.Chemscore.Rot.Weighted>
5.7251

> <Gold.Chemscore.Internal.Correction.Weighted>
   9.000000E+99

> <Gold.Protein.RotatedTorsions>
[ 6907 6896 6895 6894 ] final   42.16 input  -60.11 | X-H torsion
[ 7974 7965 7964 7962 ] final  -95.01 input  175.53 | X-H torsion
[ 8008 7997 7996 7995 ] final -118.62 input   59.86 | X-H torsion
[ 10167 10162 10161 10158 ] final  -94.20 input  -65.29 | X-H torsion
[ 10718 10713 10712 10709 ] final  -46.46 input   66.30 | X-H torsion
[ 10763 10752 10751 10750 ] final -110.57 input  -60.55 | X-H torsion
[ 11005 11000 10999 10996 ] final  131.69 input  -57.11 | X-H torsion

> <Gold.Protein.ActiveResidues>
 VAL166  LYS551  ARG553  GLY616  TRP617  ASP618  TYR619  PRO620  LYS621  CYS622 
 ASP623  PHE694  ASN695  SER759  ASP760  ASP761  ALA762  ILE779  LEU786  VAL792 
 PHE793  MET794  SER795  GLU796  ALA797  LYS798  CYS799  TRP800  GLU811  SER814 

> <Gold.Protein.RotatedAtoms>
  152.2044  134.8559  160.0504 H   0  0  0  0  0  0  0  0  0  0  0  0  # atno 6907 bound_to 6896
  151.9400  133.3630  159.3970 H   0  0  0  0  0  0  0  0  0  0  0  0  # atno 6908 bound_to 6896
  150.6962  134.4373  159.5320 H   0  0  0  0  0  0  0  0  0  0  0  0  # atno 6909 bound_to 6896
  145.3657  140.9498  143.2476 H   0  0  0  0  0  0  0  0  0  0  0  0  # atno 7974 bound_to 7965
  155.1026  140.0396  157.2701 H   0  0  0  0  0  0  0  0  0  0  0  0  # atno 8008 bound_to 7997
  154.6746  140.2620  155.6946 H   0  0  0  0  0  0  0  0  0  0  0  0  # atno 8009 bound_to 7997
  156.2671  140.2791  156.1268 H   0  0  0  0  0  0  0  0  0  0  0  0  # atno 8010 bound_to 7997
  140.3168  143.3072  152.0089 H   0  0  0  0  0  0  0  0  0  0  0  0  # atno 10167 bound_to 10162
  156.2180  130.4164  149.9029 H   0  0  0  0  0  0  0  0  0  0  0  0  # atno 10718 bound_to 10713
  154.8255  135.4559  154.0906 H   0  0  0  0  0  0  0  0  0  0  0  0  # atno 10763 bound_to 10752
  153.2224  135.6895  153.7992 H   0  0  0  0  0  0  0  0  0  0  0  0  # atno 10764 bound_to 10752
  153.7404  135.3313  155.3279 H   0  0  0  0  0  0  0  0  0  0  0  0  # atno 10765 bound_to 10752
  139.9745  134.9567  156.9475 H   0  0  0  0  0  0  0  0  0  0  0  0  # atno 11005 bound_to 11000
  144.8613  139.5172  143.6810 LP  0  0  0  0  0  0  0  0  0  0  0  0  # atno 17320 bound_to 7965
  146.2908  139.7133  142.9162 LP  0  0  0  0  0  0  0  0  0  0  0  0  # atno 17321 bound_to 7965
  139.4882  144.6342  151.7009 LP  0  0  0  0  0  0  0  0  0  0  0  0  # atno 17342 bound_to 10162
  140.5519  144.0411  150.6131 LP  0  0  0  0  0  0  0  0  0  0  0  0  # atno 17343 bound_to 10162
  156.6685  130.8810  151.3558 LP  0  0  0  0  0  0  0  0  0  0  0  0  # atno 17370 bound_to 10713
  157.7073  130.9400  150.0973 LP  0  0  0  0  0  0  0  0  0  0  0  0  # atno 17371 bound_to 10713
  140.5223  134.0895  155.7295 LP  0  0  0  0  0  0  0  0  0  0  0  0  # atno 17394 bound_to 11000
  141.1423  133.9116  157.2297 LP  0  0  0  0  0  0  0  0  0  0  0  0  # atno 17395 bound_to 11000

$$$$
