AV-unprocessed.smi:1840|AV-procd|sdf|7491|dock3
  -GOLD-   22720 9193D 1   1.00000     0.00000
 Structure written by MMmdl.
 43 44  0  0  0  0  0  0  0  0  1 V2000
  151.4934  136.1498  156.2411 C   0  0  0  0  0  0  0  0  0  0  0  0
  150.4286  137.0440  155.5918 C   0  0  1  0  0  0  0  0  0  0  0  0
  151.0708  138.2236  154.8290 C   0  0  0  0  0  0  0  0  0  0  0  0
  150.1432  139.3189  154.6040 N   0  0  0  0  0  0  0  0  0  0  0  0
  148.9002  139.2802  154.0069 C   0  0  0  0  0  0  0  0  0  0  0  0
  148.3897  140.5457  154.0487 C   0  0  0  0  0  0  0  0  0  0  0  0
  149.4100  141.2996  154.6928 C   0  0  0  0  0  0  0  0  0  0  0  0
  150.4598  140.5636  155.0207 N   0  0  0  0  0  0  0  0  0  0  0  0
  149.6105  136.2346  154.6896 N   0  0  0  0  0  0  0  0  0  0  0  0
  148.8010  135.2329  155.0631 C   0  0  0  0  0  0  0  0  0  0  0  0
  148.7144  134.8020  156.2129 O   0  0  0  0  0  0  0  0  0  0  0  0
  148.0602  134.7899  154.0389 N   0  0  0  0  0  0  0  0  0  0  0  0
  147.0004  133.7852  154.1327 C   0  0  1  0  0  0  0  0  0  0  0  0
  145.6137  134.4125  153.8600 C   0  0  0  0  0  0  0  0  0  0  0  0
  145.4507  134.8395  152.3917 C   0  0  0  0  0  0  0  0  0  0  0  0
  145.7143  133.6619  151.4416 C   0  0  0  0  0  0  0  0  0  0  0  0
  147.0954  133.0350  151.6938 C   0  0  0  0  0  0  0  0  0  0  0  0
  147.2668  132.6044  153.1662 C   0  0  1  0  0  0  0  0  0  0  0  0
  148.6307  131.9336  153.4045 C   0  0  0  0  0  0  0  0  0  0  0  0
  152.1060  136.7170  156.9424 H   0  0  0  0  0  0  0  0  0  0  0  0
  152.1587  135.7156  155.4940 H   0  0  0  0  0  0  0  0  0  0  0  0
  151.0333  135.3308  156.7953 H   0  0  0  0  0  0  0  0  0  0  0  0
  149.8095  137.4442  156.3969 H   0  0  0  0  0  0  0  0  0  0  0  0
  151.9249  138.6117  155.3862 H   0  0  0  0  0  0  0  0  0  0  0  0
  151.4558  137.8905  153.8642 H   0  0  0  0  0  0  0  0  0  0  0  0
  148.4823  138.3636  153.6175 H   0  0  0  0  0  0  0  0  0  0  0  0
  147.4321  140.8809  153.6790 H   0  0  0  0  0  0  0  0  0  0  0  0
  149.4185  142.3530  154.9312 H   0  0  0  0  0  0  0  0  0  0  0  0
  149.6090  136.5046  153.7170 H   0  0  0  0  0  0  0  0  0  0  0  0
  148.2051  135.2091  153.1321 H   0  0  0  0  0  0  0  0  0  0  0  0
  147.0035  133.3927  155.1514 H   0  0  0  0  0  0  0  0  0  0  0  0
  144.8393  133.6850  154.1065 H   0  0  0  0  0  0  0  0  0  0  0  0
  145.4388  135.2662  154.5159 H   0  0  0  0  0  0  0  0  0  0  0  0
  144.4458  135.2301  152.2290 H   0  0  0  0  0  0  0  0  0  0  0  0
  146.1372  135.6564  152.1655 H   0  0  0  0  0  0  0  0  0  0  0  0
  144.9407  132.9050  151.5768 H   0  0  0  0  0  0  0  0  0  0  0  0
  145.6414  133.9964  150.4064 H   0  0  0  0  0  0  0  0  0  0  0  0
  147.2265  132.1740  151.0377 H   0  0  0  0  0  0  0  0  0  0  0  0
  147.8739  133.7483  151.4202 H   0  0  0  0  0  0  0  0  0  0  0  0
  146.5076  131.8478  153.3704 H   0  0  0  0  0  0  0  0  0  0  0  0
  149.4586  132.6040  153.1721 H   0  0  0  0  0  0  0  0  0  0  0  0
  148.7427  131.0461  152.7811 H   0  0  0  0  0  0  0  0  0  0  0  0
  148.7365  131.6203  154.4434 H   0  0  0  0  0  0  0  0  0  0  0  0
  1  2  1  0  0  0  0
  1 20  1  0  0  0  0
  1 21  1  0  0  0  0
  1 22  1  0  0  0  0
  2  3  1  0  0  0  0
  2  9  1  0  0  0  0
  2 23  1  0  0  0  0
  3  4  1  0  0  0  0
  3 24  1  0  0  0  0
  3 25  1  0  0  0  0
  4  8  1  0  0  0  0
  4  5  1  0  0  0  0
  5  6  2  0  0  0  0
  5 26  1  0  0  0  0
  6  7  1  0  0  0  0
  6 27  1  0  0  0  0
  7  8  2  0  0  0  0
  7 28  1  0  0  0  0
  9 10  1  0  0  0  0
  9 29  1  0  0  0  0
 10 11  2  0  0  0  0
 10 12  1  0  0  0  0
 12 13  1  0  0  0  0
 12 30  1  0  0  0  0
 13 18  1  0  0  0  0
 13 14  1  0  0  0  0
 13 31  1  0  0  0  0
 14 15  1  0  0  0  0
 14 32  1  0  0  0  0
 14 33  1  0  0  0  0
 15 16  1  0  0  0  0
 15 34  1  0  0  0  0
 15 35  1  0  0  0  0
 16 17  1  0  0  0  0
 16 36  1  0  0  0  0
 16 37  1  0  0  0  0
 17 18  1  0  0  0  0
 17 38  1  0  0  0  0
 17 39  1  0  0  0  0
 18 19  1  0  0  0  0
 18 40  1  0  0  0  0
 19 41  1  0  0  0  0
 19 42  1  0  0  0  0
 19 43  1  0  0  0  0
M  END
> <s_m_source_file>
AV-unprocessed.smi

> <i_m_source_file_index>
1840

> <i_lp_mmshare_version>
43012

> <i_f3d_flags>
0

> <s_epik_input>
bjFbY0hdW2NIXVtjSF1uMVtDSDJdW0NAQEhdKFtDSDNdKVtOSF1DKD1PKVtOSF1bQ0BASF0yW0NIMl1bQ0gyXVtDSDJdW0NIMl1bQ0BIXTJbQ0gzXQ==

> <s_epik_cmdline>
J2VwaWtfcHl0aG9uJywgJy1waCcsICc3LjAnLCAnLXRuJywgJzgnLCAnLW1hJywgJzIwMCcsICctbWV0YWxfYmluZGluZycsICctaW1hZScsICc8aW5maWxlLm1hZT4nLCAnLW9tYWUnLCAnPG91dGZpbGUubWFlPic=

> <r_lp_tautomer_probability>
1

> <r_epik_Ionization_Penalty>
7.38659e-05

> <r_epik_Ionization_Penalty_Charging>
0

> <r_epik_Ionization_Penalty_Neutral>
7.38659e-05

> <r_epik_State_Penalty>
-0

> <r_epik_Charging_Adjusted_Penalty>
0

> <i_epik_Tot_Q>
0

> <i_epik_Tot_abs_Q>
0

> <r_epik_Metal_State_Penalty>
-0

> <b_epik_Metal_Only>
0

> <s_lp_Force_Field>
OPLS_2005

> <r_lp_Energy>
6.83703

> <b_lp_Chiralities_Consistent>
1

> <s_lp_Variant>
AV-unprocessed.smi:1840-4

> <Gold.Version>
5.8.1

> <Gold.Id.Protein>
6NUR|6NUR_protein|mol2

> <Gold.PLP.Fitness>
40.7344

> <Gold.PLP.PLP>
-28.9376

> <Gold.PLP.part.hbond>
-3.0000

> <Gold.PLP.part.metal>
0.0000

> <Gold.PLP.part.buried>
-0.6952

> <Gold.PLP.part.nonpolar>
-25.9170

> <Gold.PLP.part.repulsive>
0.1306

> <Gold.PLP.ligand.clash>
0.0000

> <Gold.PLP.ligand.torsion>
0.2858

> <Gold.PLP.Chemscore.Hbond>
2.6720

> <Gold.PLP.Chemscore.CHOScore>
1.4377

> <Gold.PLP.Chemscore.Metal>
0.0000

> <Gold.Chemscore.Hbonds>
donor molecule, donor type, donor heavy atom, donor atom, acceptor molecule, acceptor atom, score
      L1  H     9    29       P1  7948  1.00
      L1  H    12    30       P1  7948  1.00
      P1  H  7989  7998       L1     8  0.62
      L1  C     5    26       P1  7948  0.36
      L1  C     7    28       P1  8028  1.00

> <Gold.PLP.Chemscore.Internal.Correction>
0.0391

> <Gold.Rescore>
     Score         DG    S(hbond)    S(metal)    S(lipo)     H(rot)  DE(clash)    DE(int)     intcor
     15.36     -15.89       1.96        0.00      67.04       1.56       0.00       0.53       ----

> <Gold.Chemscore.Fitness>
15.3614

> <Gold.Chemscore.DG>
-15.8888

> <Gold.Chemscore.ZeroCoef>
-5.4800

> <Gold.Chemscore.Hbond>
1.9619

> <Gold.Chemscore.Metal>
0.0000

> <Gold.Chemscore.Lipo>
67.0407

> <Gold.Chemscore.Internal_Hbond>
0.0000

> <Gold.Chemscore.DEClash>
0.0000

> <Gold.Chemscore.DEInternal>
0.5274

> <Gold.Chemscore.Rot>
1.5576

> <Gold.Chemscore.Internal.Correction>
   9.000000E+99

> <Gold.Chemscore.Hbonds>
donor molecule, donor type, donor heavy atom, donor atom, acceptor molecule, acceptor atom, score
      L1  H     9    29       P1  7948  0.61
      L1  H    12    30       P1  7948  0.97
      P1  H  7989  7998       L1     8  0.02

> <Gold.Chemscore.Hbond.Weighted>
-6.5526

> <Gold.Chemscore.Metal.Weighted>
-0.0000

> <Gold.Chemscore.Lipo.Weighted>
-7.8438

> <Gold.Chemscore.Internal_Hbond.Weighted>
0.0000

> <Gold.Chemscore.DEClash.Weighted>
0.0000

> <Gold.Chemscore.DEInternal.Weighted>
0.5274

> <Gold.Chemscore.Rot.Weighted>
3.9875

> <Gold.Chemscore.Internal.Correction.Weighted>
   9.000000E+99

> <Gold.Protein.RotatedTorsions>
[ 6907 6896 6895 6894 ] final   45.06 input  -60.11 | X-H torsion
[ 7974 7965 7964 7962 ] final  118.57 input  175.53 | X-H torsion
[ 8008 7997 7996 7995 ] final  -90.93 input   59.86 | X-H torsion
[ 10167 10162 10161 10158 ] final  -85.65 input  -65.29 | X-H torsion
[ 10718 10713 10712 10709 ] final -177.93 input   66.30 | X-H torsion
[ 10763 10752 10751 10750 ] final  111.29 input  -60.55 | X-H torsion
[ 11005 11000 10999 10996 ] final    6.28 input  -57.11 | X-H torsion

> <Gold.Protein.ActiveResidues>
 VAL166  LYS551  ARG553  GLY616  TRP617  ASP618  TYR619  PRO620  LYS621  CYS622 
 ASP623  PHE694  ASN695  SER759  ASP760  ASP761  ALA762  ILE779  LEU786  VAL792 
 PHE793  MET794  SER795  GLU796  ALA797  LYS798  CYS799  TRP800  GLU811  SER814 

> <Gold.Protein.RotatedAtoms>
  152.2401  134.8237  160.0461 H   0  0  0  0  0  0  0  0  0  0  0  0  # atno 6907 bound_to 6896
  151.8955  133.3520  159.3821 H   0  0  0  0  0  0  0  0  0  0  0  0  # atno 6908 bound_to 6896
  150.7051  134.4807  159.5513 H   0  0  0  0  0  0  0  0  0  0  0  0  # atno 6909 bound_to 6896
  145.1536  139.3196  143.4554 H   0  0  0  0  0  0  0  0  0  0  0  0  # atno 7974 bound_to 7965
  154.7045  140.0525  157.0490 H   0  0  0  0  0  0  0  0  0  0  0  0  # atno 8008 bound_to 7997
  155.0639  140.3192  155.4633 H   0  0  0  0  0  0  0  0  0  0  0  0  # atno 8009 bound_to 7997
  156.2770  140.2094  156.5766 H   0  0  0  0  0  0  0  0  0  0  0  0  # atno 8010 bound_to 7997
  140.4016  143.2660  151.9134 H   0  0  0  0  0  0  0  0  0  0  0  0  # atno 10167 bound_to 10162
  156.8368  130.9672  151.3103 H   0  0  0  0  0  0  0  0  0  0  0  0  # atno 10718 bound_to 10713
  153.4612  135.3722  155.2339 H   0  0  0  0  0  0  0  0  0  0  0  0  # atno 10763 bound_to 10752
  154.8757  135.3909  154.3923 H   0  0  0  0  0  0  0  0  0  0  0  0  # atno 10764 bound_to 10752
  153.4496  135.7085  153.6181 H   0  0  0  0  0  0  0  0  0  0  0  0  # atno 10765 bound_to 10752
  140.5613  134.0190  155.7973 H   0  0  0  0  0  0  0  0  0  0  0  0  # atno 11005 bound_to 11000
  146.3491  140.1619  142.8590 LP  0  0  0  0  0  0  0  0  0  0  0  0  # atno 17320 bound_to 7965
  145.0405  140.8941  143.5055 LP  0  0  0  0  0  0  0  0  0  0  0  0  # atno 17321 bound_to 7965
  139.4784  144.5627  151.8213 LP  0  0  0  0  0  0  0  0  0  0  0  0  # atno 17342 bound_to 10162
  140.4733  144.1555  150.5921 LP  0  0  0  0  0  0  0  0  0  0  0  0  # atno 17343 bound_to 10162
  157.6377  130.8780  149.9389 LP  0  0  0  0  0  0  0  0  0  0  0  0  # atno 17370 bound_to 10713
  156.0903  130.3664  150.0408 LP  0  0  0  0  0  0  0  0  0  0  0  0  # atno 17371 bound_to 10713
  141.1113  133.9612  157.2905 LP  0  0  0  0  0  0  0  0  0  0  0  0  # atno 17394 bound_to 11000
  139.9406  135.0191  156.8697 LP  0  0  0  0  0  0  0  0  0  0  0  0  # atno 17395 bound_to 11000

$$$$
