AV-unprocessed.smi:2114|AV-procd|sdf|8621|dock4
  -GOLD-   2272011363D 1   1.00000     0.00000
 Structure written by MMmdl.
 47 48  0  0  0  0  0  0  0  0  1 V2000
  146.0346  142.9643  155.4845 C   0  0  0  0  0  0  0  0  0  0  0  0
  147.1724  143.3097  154.7146 O   0  0  0  0  0  0  0  0  0  0  0  0
  147.2276  142.6109  153.4812 C   0  0  0  0  0  0  0  0  0  0  0  0
  147.6503  141.1548  153.7345 C   0  0  2  0  0  0  0  0  0  0  0  0
  146.4492  140.2696  154.0943 C   0  0  0  0  0  0  0  0  0  0  0  0
  148.6263  141.1044  154.8207 N   0  0  0  0  0  0  0  0  0  0  0  0
  149.8224  140.4945  154.7753 C   0  0  0  0  0  0  0  0  0  0  0  0
  150.2262  139.8470  153.8093 O   0  0  0  0  0  0  0  0  0  0  0  0
  150.6453  140.5982  156.0262 C   0  0  0  0  0  0  0  0  0  0  0  0
  150.2422  141.4062  157.1131 C   0  0  0  0  0  0  0  0  0  0  0  0
  151.0708  141.4881  158.2485 C   0  0  0  0  0  0  0  0  0  0  0  0
  152.2799  140.7626  158.2604 C   0  0  0  0  0  0  0  0  0  0  0  0
  153.1133  140.8496  159.3842 N   0  0  0  0  0  0  0  0  0  0  0  0
  152.7159  141.8763  160.3377 C   0  0  0  0  0  0  0  0  0  0  0  0
  153.7827  142.0114  161.4393 C   0  0  1  0  0  0  0  0  0  0  0  0
  153.3604  143.0031  162.5285 C   0  0  0  0  0  0  0  0  0  0  0  0
  153.9938  140.7401  162.0552 O   0  0  0  0  0  0  0  0  0  0  0  0
  154.3797  139.6938  161.1591 C   0  0  2  0  0  0  0  0  0  0  0  0
  155.8242  139.8634  160.6553 C   0  0  0  0  0  0  0  0  0  0  0  0
  153.3466  139.5609  160.0229 C   0  0  0  0  0  0  0  0  0  0  0  0
  152.6785  139.9932  157.2199 N   0  0  0  0  0  0  0  0  0  0  0  0
  151.8809  139.9224  156.1324 C   0  0  0  0  0  0  0  0  0  0  0  0
  146.0404  143.5253  156.4189 H   0  0  0  0  0  0  0  0  0  0  0  0
  146.0337  141.9017  155.7305 H   0  0  0  0  0  0  0  0  0  0  0  0
  145.1117  143.2024  154.9542 H   0  0  0  0  0  0  0  0  0  0  0  0
  146.2579  142.6443  152.9813 H   0  0  0  0  0  0  0  0  0  0  0  0
  147.9498  143.0983  152.8244 H   0  0  0  0  0  0  0  0  0  0  0  0
  148.0830  140.7589  152.8142 H   0  0  0  0  0  0  0  0  0  0  0  0
  145.7050  140.2758  153.2975 H   0  0  0  0  0  0  0  0  0  0  0  0
  145.9614  140.6117  155.0078 H   0  0  0  0  0  0  0  0  0  0  0  0
  146.7573  139.2349  154.2477 H   0  0  0  0  0  0  0  0  0  0  0  0
  148.3790  141.5892  155.6711 H   0  0  0  0  0  0  0  0  0  0  0  0
  149.3176  141.9643  157.0847 H   0  0  0  0  0  0  0  0  0  0  0  0
  150.7837  142.1003  159.0911 H   0  0  0  0  0  0  0  0  0  0  0  0
  152.5871  142.8280  159.8203 H   0  0  0  0  0  0  0  0  0  0  0  0
  151.7529  141.6157  160.7797 H   0  0  0  0  0  0  0  0  0  0  0  0
  154.7165  142.3670  161.0033 H   0  0  0  0  0  0  0  0  0  0  0  0
  153.2009  143.9986  162.1131 H   0  0  0  0  0  0  0  0  0  0  0  0
  154.1274  143.0843  163.2990 H   0  0  0  0  0  0  0  0  0  0  0  0
  152.4347  142.6890  163.0116 H   0  0  0  0  0  0  0  0  0  0  0  0
  154.3546  138.7712  161.7397 H   0  0  0  0  0  0  0  0  0  0  0  0
  156.1340  138.9947  160.0739 H   0  0  0  0  0  0  0  0  0  0  0  0
  156.5177  139.9650  161.4901 H   0  0  0  0  0  0  0  0  0  0  0  0
  155.9396  140.7374  160.0148 H   0  0  0  0  0  0  0  0  0  0  0  0
  152.4052  139.1886  160.4302 H   0  0  0  0  0  0  0  0  0  0  0  0
  153.6844  138.8311  159.2857 H   0  0  0  0  0  0  0  0  0  0  0  0
  152.2437  139.3004  155.3270 H   0  0  0  0  0  0  0  0  0  0  0  0
  1  2  1  0  0  0  0
  1 23  1  0  0  0  0
  1 24  1  0  0  0  0
  1 25  1  0  0  0  0
  2  3  1  0  0  0  0
  3  4  1  0  0  0  0
  3 26  1  0  0  0  0
  3 27  1  0  0  0  0
  4  5  1  0  0  0  0
  4  6  1  0  0  0  0
  4 28  1  0  0  0  0
  5 29  1  0  0  0  0
  5 30  1  0  0  0  0
  5 31  1  0  0  0  0
  6  7  1  0  0  0  0
  6 32  1  0  0  0  0
  7  8  2  0  0  0  0
  7  9  1  0  0  0  0
  9 22  1  0  0  0  0
  9 10  2  0  0  0  0
 10 11  1  0  0  0  0
 10 33  1  0  0  0  0
 11 12  2  0  0  0  0
 11 34  1  0  0  0  0
 12 13  1  0  0  0  0
 12 21  1  0  0  0  0
 13 20  1  0  0  0  0
 13 14  1  0  0  0  0
 14 15  1  0  0  0  0
 14 35  1  0  0  0  0
 14 36  1  0  0  0  0
 15 16  1  0  0  0  0
 15 17  1  0  0  0  0
 15 37  1  0  0  0  0
 16 38  1  0  0  0  0
 16 39  1  0  0  0  0
 16 40  1  0  0  0  0
 17 18  1  0  0  0  0
 18 19  1  0  0  0  0
 18 20  1  0  0  0  0
 18 41  1  0  0  0  0
 19 42  1  0  0  0  0
 19 43  1  0  0  0  0
 19 44  1  0  0  0  0
 20 45  1  0  0  0  0
 20 46  1  0  0  0  0
 21 22  2  0  0  0  0
 22 47  1  0  0  0  0
M  END
> <s_m_source_file>
AV-unprocessed.smi

> <i_m_source_file_index>
2114

> <i_lp_mmshare_version>
43012

> <i_f3d_flags>
0

> <s_epik_input>
W0NIM11PW0NIMl1bQ0BIXShbQ0gzXSlbTkhdQyg9TyljMVtjSF1bY0hdYyhuW2NIXTEpTjJbQ0gyXVtDQEBIXShbQ0gzXSlPW0NAQEhdKFtDSDNdKVtDSDJdMg==

> <s_epik_cmdline>
J2VwaWtfcHl0aG9uJywgJy1waCcsICc3LjAnLCAnLXRuJywgJzgnLCAnLW1hJywgJzIwMCcsICctbWV0YWxfYmluZGluZycsICctaW1hZScsICc8aW5maWxlLm1hZT4nLCAnLW9tYWUnLCAnPG91dGZpbGUubWFlPic=

> <r_lp_tautomer_probability>
1

> <r_epik_Ionization_Penalty>
1.92915e-05

> <r_epik_Ionization_Penalty_Charging>
0

> <r_epik_Ionization_Penalty_Neutral>
1.92915e-05

> <r_epik_State_Penalty>
-0

> <r_epik_Charging_Adjusted_Penalty>
0

> <i_epik_Tot_Q>
0

> <i_epik_Tot_abs_Q>
0

> <r_epik_Metal_State_Penalty>
-0

> <b_epik_Metal_Only>
0

> <s_lp_Force_Field>
OPLS_2005

> <r_lp_Energy>
24.3529

> <b_lp_Chiralities_Consistent>
1

> <s_lp_Variant>
AV-unprocessed.smi:2114-5

> <Gold.Version>
5.8.1

> <Gold.Id.Protein>
6NUR|6NUR_protein|mol2

> <Gold.PLP.Fitness>
39.7955

> <Gold.PLP.PLP>
-37.0774

> <Gold.PLP.part.hbond>
-2.0000

> <Gold.PLP.part.metal>
0.0000

> <Gold.PLP.part.buried>
-6.0502

> <Gold.PLP.part.nonpolar>
-31.6211

> <Gold.PLP.part.repulsive>
2.9906

> <Gold.PLP.ligand.clash>
2.2542

> <Gold.PLP.ligand.torsion>
0.5120

> <Gold.PLP.Chemscore.Hbond>
1.9600

> <Gold.PLP.Chemscore.CHOScore>
0.0000

> <Gold.PLP.Chemscore.Metal>
0.0000

> <Gold.Chemscore.Hbonds>
donor molecule, donor type, donor heavy atom, donor atom, acceptor molecule, acceptor atom, score
      P1  H  7989  7998       L1     8  0.74
      P1  H  7997  8010       L1    21  1.00
      P1  H  8022  8030       L1     2  0.03

> <Gold.PLP.Chemscore.Internal.Correction>
0.1165

> <Gold.Rescore>
     Score         DG    S(hbond)    S(metal)    S(lipo)     H(rot)  DE(clash)    DE(int)     intcor
     16.43     -17.27       1.66        0.00      86.80       1.52       0.15       0.69       ----

> <Gold.Chemscore.Fitness>
16.4261

> <Gold.Chemscore.DG>
-17.2662

> <Gold.Chemscore.ZeroCoef>
-5.4800

> <Gold.Chemscore.Hbond>
1.6553

> <Gold.Chemscore.Metal>
0.0000

> <Gold.Chemscore.Lipo>
86.7994

> <Gold.Chemscore.Internal_Hbond>
0.0000

> <Gold.Chemscore.DEClash>
0.1534

> <Gold.Chemscore.DEInternal>
0.6867

> <Gold.Chemscore.Rot>
1.5226

> <Gold.Chemscore.Internal.Correction>
   9.000000E+99

> <Gold.Chemscore.Hbonds>
donor molecule, donor type, donor heavy atom, donor atom, acceptor molecule, acceptor atom, score
      P1  H  7989  7998       L1     8  0.11
      P1  H  7997  8010       L1    21  0.63

> <Gold.Chemscore.Hbond.Weighted>
-5.5287

> <Gold.Chemscore.Metal.Weighted>
-0.0000

> <Gold.Chemscore.Lipo.Weighted>
-10.1555

> <Gold.Chemscore.Internal_Hbond.Weighted>
0.0000

> <Gold.Chemscore.DEClash.Weighted>
0.1534

> <Gold.Chemscore.DEInternal.Weighted>
0.6867

> <Gold.Chemscore.Rot.Weighted>
3.8980

> <Gold.Chemscore.Internal.Correction.Weighted>
   9.000000E+99

> <Gold.Protein.RotatedTorsions>
[ 6907 6896 6895 6894 ] final    1.40 input  -60.11 | X-H torsion
[ 7974 7965 7964 7962 ] final   14.32 input  175.53 | X-H torsion
[ 8008 7997 7996 7995 ] final   58.66 input   59.86 | X-H torsion
[ 10167 10162 10161 10158 ] final   -4.58 input  -65.29 | X-H torsion
[ 10718 10713 10712 10709 ] final  -83.01 input   66.30 | X-H torsion
[ 10763 10752 10751 10750 ] final  126.46 input  -60.55 | X-H torsion
[ 11005 11000 10999 10996 ] final -139.42 input  -57.11 | X-H torsion

> <Gold.Protein.ActiveResidues>
 VAL166  LYS551  ARG553  GLY616  TRP617  ASP618  TYR619  PRO620  LYS621  CYS622 
 ASP623  PHE694  ASN695  SER759  ASP760  ASP761  ALA762  ILE779  LEU786  VAL792 
 PHE793  MET794  SER795  GLU796  ALA797  LYS798  CYS799  TRP800  GLU811  SER814 

> <Gold.Protein.RotatedAtoms>
  151.5921  135.1053  160.0041 H   0  0  0  0  0  0  0  0  0  0  0  0  # atno 6907 bound_to 6896
  152.4301  133.7258  159.6570 H   0  0  0  0  0  0  0  0  0  0  0  0  # atno 6908 bound_to 6896
  150.8193  133.8211  159.3169 H   0  0  0  0  0  0  0  0  0  0  0  0  # atno 6909 bound_to 6896
  146.2308  139.9059  142.8532 H   0  0  0  0  0  0  0  0  0  0  0  0  # atno 7974 bound_to 7965
  155.5535  140.3487  155.4474 H   0  0  0  0  0  0  0  0  0  0  0  0  # atno 8008 bound_to 7997
  156.0566  140.1330  157.0016 H   0  0  0  0  0  0  0  0  0  0  0  0  # atno 8009 bound_to 7997
  154.4459  140.0994  156.6439 H   0  0  0  0  0  0  0  0  0  0  0  0  # atno 8010 bound_to 7997
  140.6932  143.6407  150.8438 H   0  0  0  0  0  0  0  0  0  0  0  0  # atno 10167 bound_to 10162
  156.0024  130.4652  150.4193 H   0  0  0  0  0  0  0  0  0  0  0  0  # atno 10718 bound_to 10713
  153.6937  135.3294  155.3208 H   0  0  0  0  0  0  0  0  0  0  0  0  # atno 10763 bound_to 10752
  154.8432  135.4438  154.1482 H   0  0  0  0  0  0  0  0  0  0  0  0  # atno 10764 bound_to 10752
  153.2530  135.6983  153.7736 H   0  0  0  0  0  0  0  0  0  0  0  0  # atno 10765 bound_to 10752
  140.8521  134.2273  157.4754 H   0  0  0  0  0  0  0  0  0  0  0  0  # atno 11005 bound_to 11000
  145.2278  140.9961  143.4008 LP  0  0  0  0  0  0  0  0  0  0  0  0  # atno 17320 bound_to 7965
  144.9556  139.4035  143.6381 LP  0  0  0  0  0  0  0  0  0  0  0  0  # atno 17321 bound_to 7965
  140.0122  143.5630  152.2834 LP  0  0  0  0  0  0  0  0  0  0  0  0  # atno 17342 bound_to 10162
  139.6358  144.7650  151.2441 LP  0  0  0  0  0  0  0  0  0  0  0  0  # atno 17343 bound_to 10162
  157.2250  131.0491  151.2525 LP  0  0  0  0  0  0  0  0  0  0  0  0  # atno 17370 bound_to 10713
  157.3765  130.7208  149.6600 LP  0  0  0  0  0  0  0  0  0  0  0  0  # atno 17371 bound_to 10713
  139.8704  134.9688  156.4645 LP  0  0  0  0  0  0  0  0  0  0  0  0  # atno 17394 bound_to 11000
  140.8778  133.7940  155.9433 LP  0  0  0  0  0  0  0  0  0  0  0  0  # atno 17395 bound_to 11000

$$$$
