AV-unprocessed.smi:1184|AV-procd|sdf|4971|dock9
  -GOLD-   22720 3563D 1   1.00000     0.00000
 Structure written by MMmdl.
 43 44  0  0  0  0  0  0  0  0  2 V2000
  145.3087  132.0129  149.7050 C   0  0  0  0  0  0  0  0  0  0  0  0
  143.9816  132.7032  149.3609 C   0  0  0  0  0  0  0  0  0  0  0  0
  143.7103  133.8660  150.2394 N   0  3  1  0  0  0  0  0  0  0  0  0
  143.6106  133.5484  151.6820 C   0  0  0  0  0  0  0  0  0  0  0  0
  144.1114  134.7925  152.4102 C   0  0  0  0  0  0  0  0  0  0  0  0
  145.2272  135.2859  151.4942 C   0  0  2  0  0  0  0  0  0  0  0  0
  145.6312  136.7527  151.7379 C   0  0  0  0  0  0  0  0  0  0  0  0
  146.3429  136.9241  153.0005 N   0  0  0  0  0  0  0  0  0  0  0  0
  146.8574  138.0760  153.4590 C   0  0  0  0  0  0  0  0  0  0  0  0
  146.8015  139.1387  152.8410 O   0  0  0  0  0  0  0  0  0  0  0  0
  147.5406  138.0226  154.8255 C   0  0  0  0  0  0  0  0  0  0  0  0
  148.9180  138.6276  154.7295 C   0  0  0  0  0  0  0  0  0  0  0  0
  150.1794  137.9865  154.9039 C   0  0  0  0  0  0  0  0  0  0  0  0
  150.4722  136.5496  155.2277 C   0  0  0  0  0  0  0  0  0  0  0  0
  151.1868  138.8274  154.7438 N   0  0  0  0  0  0  0  0  0  0  0  0
  150.6099  140.0674  154.4551 O   0  0  0  0  0  0  0  0  0  0  0  0
  149.2607  139.9232  154.4525 C   0  0  0  0  0  0  0  0  0  0  0  0
  148.4614  141.1481  154.1620 C   0  0  0  0  0  0  0  0  0  0  0  0
  144.6776  134.9802  150.0915 C   0  0  0  0  0  0  0  0  0  0  0  0
  145.4558  131.1303  149.0822 H   0  0  0  0  0  0  0  0  0  0  0  0
  145.3266  131.6900  150.7464 H   0  0  0  0  0  0  0  0  0  0  0  0
  146.1612  132.6728  149.5423 H   0  0  0  0  0  0  0  0  0  0  0  0
  143.9733  133.0155  148.3156 H   0  0  0  0  0  0  0  0  0  0  0  0
  143.1733  131.9804  149.4794 H   0  0  0  0  0  0  0  0  0  0  0  0
  142.5918  133.2815  151.9643 H   0  0  0  0  0  0  0  0  0  0  0  0
  144.2590  132.7046  151.9241 H   0  0  0  0  0  0  0  0  0  0  0  0
  143.3140  135.5345  152.4736 H   0  0  0  0  0  0  0  0  0  0  0  0
  144.4564  134.5783  153.4223 H   0  0  0  0  0  0  0  0  0  0  0  0
  146.0975  134.6492  151.6637 H   0  0  0  0  0  0  0  0  0  0  0  0
  146.2220  137.1359  150.9040 H   0  0  0  0  0  0  0  0  0  0  0  0
  144.7349  137.3719  151.7832 H   0  0  0  0  0  0  0  0  0  0  0  0
  146.4331  136.1048  153.5842 H   0  0  0  0  0  0  0  0  0  0  0  0
  146.9236  138.5397  155.5613 H   0  0  0  0  0  0  0  0  0  0  0  0
  147.5880  136.9837  155.1543 H   0  0  0  0  0  0  0  0  0  0  0  0
  149.5806  136.0264  155.5720 H   0  0  0  0  0  0  0  0  0  0  0  0
  151.2235  136.4680  156.0136 H   0  0  0  0  0  0  0  0  0  0  0  0
  150.8485  136.0216  154.3512 H   0  0  0  0  0  0  0  0  0  0  0  0
  147.4286  141.0294  154.4895 H   0  0  0  0  0  0  0  0  0  0  0  0
  148.4547  141.3590  153.0927 H   0  0  0  0  0  0  0  0  0  0  0  0
  148.8785  142.0142  154.6761 H   0  0  0  0  0  0  0  0  0  0  0  0
  145.4832  134.7537  149.3913 H   0  0  0  0  0  0  0  0  0  0  0  0
  144.1301  135.8354  149.6948 H   0  0  0  0  0  0  0  0  0  0  0  0
  142.8151  134.2428  149.9616 H   0  0  0  0  0  0  0  0  0  0  0  0
  1  2  1  0  0  0  0
  1 20  1  0  0  0  0
  1 21  1  0  0  0  0
  1 22  1  0  0  0  0
  2  3  1  0  0  0  0
  2 23  1  0  0  0  0
  2 24  1  0  0  0  0
  3 19  1  0  0  0  0
  3  4  1  0  0  0  0
  3 43  1  0  0  0  0
  4  5  1  0  0  0  0
  4 25  1  0  0  0  0
  4 26  1  0  0  0  0
  5  6  1  0  0  0  0
  5 27  1  0  0  0  0
  5 28  1  0  0  0  0
  6  7  1  0  0  0  0
  6 19  1  0  0  0  0
  6 29  1  0  0  0  0
  7  8  1  0  0  0  0
  7 30  1  0  0  0  0
  7 31  1  0  0  0  0
  8  9  1  0  0  0  0
  8 32  1  0  0  0  0
  9 10  2  0  0  0  0
  9 11  1  0  0  0  0
 11 12  1  0  0  0  0
 11 33  1  0  0  0  0
 11 34  1  0  0  0  0
 12 17  2  0  0  0  0
 12 13  1  0  0  0  0
 13 14  1  0  0  0  0
 13 15  2  0  0  0  0
 14 35  1  0  0  0  0
 14 36  1  0  0  0  0
 14 37  1  0  0  0  0
 15 16  1  0  0  0  0
 16 17  1  0  0  0  0
 17 18  1  0  0  0  0
 18 38  1  0  0  0  0
 18 39  1  0  0  0  0
 18 40  1  0  0  0  0
 19 41  1  0  0  0  0
 19 42  1  0  0  0  0
M  CHG  1   3   1
M  END
> <s_m_source_file>
AV-unprocessed.smi

> <i_m_source_file_index>
1184

> <i_lp_mmshare_version>
43012

> <i_f3d_flags>
0

> <s_epik_input>
W0NIM11bQ0gyXU4xW0NIMl1bQ0gyXVtDQEhdKFtDSDJdMSlbQ0gyXVtOSF1DKD1PKVtDSDJdYzJjKFtDSDNdKW5vYzJbQ0gzXQ==

> <s_epik_cmdline>
J2VwaWtfcHl0aG9uJywgJy1waCcsICc3LjAnLCAnLXRuJywgJzgnLCAnLW1hJywgJzIwMCcsICctbWV0YWxfYmluZGluZycsICctaW1hZScsICc8aW5maWxlLm1hZT4nLCAnLW9tYWUnLCAnPG91dGZpbGUubWFlPic=

> <r_epik_Ionization_Penalty>
0.000590726

> <r_epik_Ionization_Penalty_Charging>
0.000590692

> <r_epik_Ionization_Penalty_Neutral>
3.44741e-08

> <r_epik_State_Penalty>
0.000371644

> <r_epik_Charging_Adjusted_Penalty>
0.000962336

> <i_epik_Tot_Q>
1

> <i_epik_Tot_abs_Q>
1

> <r_epik_Metal_State_Penalty>
-0

> <b_epik_Metal_Only>
0

> <s_lp_Force_Field>
OPLS_2005

> <r_lp_Energy>
22.6293

> <b_lp_Chiralities_Consistent>
1

> <s_lp_Variant>
AV-unprocessed.smi:1184-3

> <Gold.Version>
5.8.1

> <Gold.Id.Protein>
6NUR|6NUR_protein|mol2

> <Gold.PLP.Fitness>
42.7616

> <Gold.PLP.PLP>
-34.0268

> <Gold.PLP.part.hbond>
-3.3059

> <Gold.PLP.part.metal>
0.0000

> <Gold.PLP.part.buried>
-4.7977

> <Gold.PLP.part.nonpolar>
-27.7257

> <Gold.PLP.part.repulsive>
0.5257

> <Gold.PLP.ligand.clash>
0.0000

> <Gold.PLP.ligand.torsion>
0.1509

> <Gold.PLP.Chemscore.Hbond>
3.0000

> <Gold.PLP.Chemscore.CHOScore>
0.0000

> <Gold.PLP.Chemscore.Metal>
0.0000

> <Gold.Chemscore.Hbonds>
donor molecule, donor type, donor heavy atom, donor atom, acceptor molecule, acceptor atom, score
      L1  H     3    43       P1 10186  2.00
      P1  H  7989  7998       L1    16  1.00

> <Gold.PLP.Chemscore.Internal.Correction>
0.0365

> <Gold.Rescore>
     Score         DG    S(hbond)    S(metal)    S(lipo)     H(rot)  DE(clash)    DE(int)     intcor
     16.68     -17.68       1.93        0.00      85.72       1.67       0.79       0.21       ----

> <Gold.Chemscore.Fitness>
16.6785

> <Gold.Chemscore.DG>
-17.6805

> <Gold.Chemscore.ZeroCoef>
-5.4800

> <Gold.Chemscore.Hbond>
1.9290

> <Gold.Chemscore.Metal>
0.0000

> <Gold.Chemscore.Lipo>
85.7167

> <Gold.Chemscore.Internal_Hbond>
0.0000

> <Gold.Chemscore.DEClash>
0.7887

> <Gold.Chemscore.DEInternal>
0.2132

> <Gold.Chemscore.Rot>
1.6684

> <Gold.Chemscore.Internal.Correction>
   9.000000E+99

> <Gold.Chemscore.Hbonds>
donor molecule, donor type, donor heavy atom, donor atom, acceptor molecule, acceptor atom, score
      L1  H     3    43       P1 10186  0.98
      P1  H  7989  7998       L1    16  0.65

> <Gold.Chemscore.Hbond.Weighted>
-6.4428

> <Gold.Chemscore.Metal.Weighted>
-0.0000

> <Gold.Chemscore.Lipo.Weighted>
-10.0289

> <Gold.Chemscore.Internal_Hbond.Weighted>
0.0000

> <Gold.Chemscore.DEClash.Weighted>
0.7887

> <Gold.Chemscore.DEInternal.Weighted>
0.2132

> <Gold.Chemscore.Rot.Weighted>
4.2712

> <Gold.Chemscore.Internal.Correction.Weighted>
   9.000000E+99

> <Gold.Protein.RotatedTorsions>
[ 6907 6896 6895 6894 ] final -146.44 input  -60.11 | X-H torsion
[ 7974 7965 7964 7962 ] final -149.76 input  175.53 | X-H torsion
[ 8008 7997 7996 7995 ] final -109.48 input   59.86 | X-H torsion
[ 10167 10162 10161 10158 ] final  -38.30 input  -65.29 | X-H torsion
[ 10718 10713 10712 10709 ] final   18.70 input   66.30 | X-H torsion
[ 10763 10752 10751 10750 ] final   50.86 input  -60.55 | X-H torsion
[ 11005 11000 10999 10996 ] final  122.78 input  -57.11 | X-H torsion

> <Gold.Protein.ActiveResidues>
 VAL166  LYS551  ARG553  GLY616  TRP617  ASP618  TYR619  PRO620  LYS621  CYS622 
 ASP623  PHE694  ASN695  SER759  ASP760  ASP761  ALA762  ILE779  LEU786  VAL792 
 PHE793  MET794  SER795  GLU796  ALA797  LYS798  CYS799  TRP800  GLU811  SER814 

> <Gold.Protein.RotatedAtoms>
  151.1417  133.4967  159.2596 H   0  0  0  0  0  0  0  0  0  0  0  0  # atno 6907 bound_to 6896
  151.1648  135.0290  159.8736 H   0  0  0  0  0  0  0  0  0  0  0  0  # atno 6908 bound_to 6896
  152.5462  134.1287  159.8483 H   0  0  0  0  0  0  0  0  0  0  0  0  # atno 6909 bound_to 6896
  144.7948  140.5021  143.5748 H   0  0  0  0  0  0  0  0  0  0  0  0  # atno 7974 bound_to 7965
  154.9600  140.0399  157.2185 H   0  0  0  0  0  0  0  0  0  0  0  0  # atno 8008 bound_to 7997
  154.7898  140.2833  155.5978 H   0  0  0  0  0  0  0  0  0  0  0  0  # atno 8009 bound_to 7997
  156.2948  140.2575  156.2742 H   0  0  0  0  0  0  0  0  0  0  0  0  # atno 8010 bound_to 7997
  140.7096  143.3286  151.2622 H   0  0  0  0  0  0  0  0  0  0  0  0  # atno 10167 bound_to 10162
  157.1001  130.6464  149.5870 H   0  0  0  0  0  0  0  0  0  0  0  0  # atno 10718 bound_to 10713
  152.9784  135.5865  154.4321 H   0  0  0  0  0  0  0  0  0  0  0  0  # atno 10763 bound_to 10752
  154.3932  135.2768  155.2144 H   0  0  0  0  0  0  0  0  0  0  0  0  # atno 10764 bound_to 10752
  154.4006  135.6104  153.5949 H   0  0  0  0  0  0  0  0  0  0  0  0  # atno 10765 bound_to 10752
  139.9283  134.9641  156.8160 H   0  0  0  0  0  0  0  0  0  0  0  0  # atno 11005 bound_to 11000
  145.5702  139.1483  143.3292 LP  0  0  0  0  0  0  0  0  0  0  0  0  # atno 17320 bound_to 7965
  146.2212  140.5835  142.9016 LP  0  0  0  0  0  0  0  0  0  0  0  0  # atno 17321 bound_to 7965
  139.6761  143.9935  152.2782 LP  0  0  0  0  0  0  0  0  0  0  0  0  # atno 17342 bound_to 10162
  139.9549  144.6596  150.8135 LP  0  0  0  0  0  0  0  0  0  0  0  0  # atno 17343 bound_to 10162
  155.9876  130.4916  150.7131 LP  0  0  0  0  0  0  0  0  0  0  0  0  # atno 17370 bound_to 10713
  157.4648  131.0887  151.0706 LP  0  0  0  0  0  0  0  0  0  0  0  0  # atno 17371 bound_to 10713
  140.6273  133.9938  155.7645 LP  0  0  0  0  0  0  0  0  0  0  0  0  # atno 17394 bound_to 11000
  141.0856  133.9996  157.3319 LP  0  0  0  0  0  0  0  0  0  0  0  0  # atno 17395 bound_to 11000

$$$$
