AV-unprocessed.smi:1588|AV-procd|sdf|6389|dock5
  -GOLD-   22720 7 23D 1   1.00000     0.00000
 Structure written by MMmdl.
 37 38  0  0  0  0  0  0  0  0  2 V2000
  145.6639  128.8429  152.0790 C   0  0  0  0  0  0  0  0  0  0  0  0
  146.8104  129.1741  153.0443 C   0  0  0  0  0  0  0  0  0  0  0  0
  147.5565  130.3846  152.6287 N   0  3  1  0  0  0  0  0  0  0  0  0
  146.7172  131.5569  152.2794 C   0  0  0  0  0  0  0  0  0  0  0  0
  147.3559  132.7784  152.9533 C   0  0  0  0  0  0  0  0  0  0  0  0
  148.7703  132.3234  153.3055 C   0  0  1  0  0  0  0  0  0  0  0  0
  149.4224  133.1321  154.4441 C   0  0  0  0  0  0  0  0  0  0  0  0
  149.5285  134.5516  154.1227 N   0  0  0  0  0  0  0  0  0  0  0  0
  150.3502  135.4179  154.7324 C   0  0  0  0  0  0  0  0  0  0  0  0
  151.1113  135.1027  155.6473 O   0  0  0  0  0  0  0  0  0  0  0  0
  150.2232  136.6542  154.2234 N   0  0  0  0  0  0  0  0  0  0  0  0
  150.9207  137.8233  154.6202 C   0  0  0  0  0  0  0  0  0  0  0  0
  150.5523  139.1475  154.2582 C   0  0  0  0  0  0  0  0  0  0  0  0
  151.3876  140.0392  154.7716 N   0  0  0  0  0  0  0  0  0  0  0  0
  152.2874  139.2968  155.4554 N   0  0  0  0  0  0  0  0  0  0  0  0
  152.0435  137.9427  155.3906 C   0  0  0  0  0  0  0  0  0  0  0  0
  148.5640  130.8389  153.6088 C   0  0  0  0  0  0  0  0  0  0  0  0
  153.0546  139.7238  155.9548 H   0  0  0  0  0  0  0  0  0  0  0  0
  145.1594  127.9248  152.3812 H   0  0  0  0  0  0  0  0  0  0  0  0
  146.0333  128.6981  151.0633 H   0  0  0  0  0  0  0  0  0  0  0  0
  144.9149  129.6345  152.0539 H   0  0  0  0  0  0  0  0  0  0  0  0
  146.4314  129.2994  154.0597 H   0  0  0  0  0  0  0  0  0  0  0  0
  147.5007  128.3297  153.0689 H   0  0  0  0  0  0  0  0  0  0  0  0
  146.7100  131.6682  151.1947 H   0  0  0  0  0  0  0  0  0  0  0  0
  145.6832  131.4392  152.6064 H   0  0  0  0  0  0  0  0  0  0  0  0
  147.3470  133.6626  152.3151 H   0  0  0  0  0  0  0  0  0  0  0  0
  146.8036  133.0209  153.8623 H   0  0  0  0  0  0  0  0  0  0  0  0
  149.3821  132.4075  152.4057 H   0  0  0  0  0  0  0  0  0  0  0  0
  148.8565  133.0058  155.3687 H   0  0  0  0  0  0  0  0  0  0  0  0
  150.4262  132.7566  154.6445 H   0  0  0  0  0  0  0  0  0  0  0  0
  148.9429  134.8958  153.3760 H   0  0  0  0  0  0  0  0  0  0  0  0
  149.5522  136.7754  153.4788 H   0  0  0  0  0  0  0  0  0  0  0  0
  149.7229  139.4843  153.6538 H   0  0  0  0  0  0  0  0  0  0  0  0
  152.6743  137.2172  155.8828 H   0  0  0  0  0  0  0  0  0  0  0  0
  148.1743  130.7159  154.6209 H   0  0  0  0  0  0  0  0  0  0  0  0
  149.4858  130.2617  153.5292 H   0  0  0  0  0  0  0  0  0  0  0  0
  148.0721  130.1470  151.7930 H   0  0  0  0  0  0  0  0  0  0  0  0
  1  2  1  0  0  0  0
  1 19  1  0  0  0  0
  1 20  1  0  0  0  0
  1 21  1  0  0  0  0
  2  3  1  0  0  0  0
  2 22  1  0  0  0  0
  2 23  1  0  0  0  0
  3 17  1  0  0  0  0
  3  4  1  0  0  0  0
  3 37  1  0  0  0  0
  4  5  1  0  0  0  0
  4 24  1  0  0  0  0
  4 25  1  0  0  0  0
  5  6  1  0  0  0  0
  5 26  1  0  0  0  0
  5 27  1  0  0  0  0
  6  7  1  0  0  0  0
  6 17  1  0  0  0  0
  6 28  1  0  0  0  0
  7  8  1  0  0  0  0
  7 29  1  0  0  0  0
  7 30  1  0  0  0  0
  8  9  1  0  0  0  0
  8 31  1  0  0  0  0
  9 10  2  0  0  0  0
  9 11  1  0  0  0  0
 11 12  1  0  0  0  0
 11 32  1  0  0  0  0
 12 16  2  0  0  0  0
 12 13  1  0  0  0  0
 13 14  2  0  0  0  0
 13 33  1  0  0  0  0
 14 15  1  0  0  0  0
 15 18  1  0  0  0  0
 15 16  1  0  0  0  0
 16 34  1  0  0  0  0
 17 35  1  0  0  0  0
 17 36  1  0  0  0  0
M  CHG  1   3   1
M  END
> <s_m_source_file>
AV-unprocessed.smi

> <i_m_source_file_index>
1588

> <i_lp_mmshare_version>
43012

> <i_f3d_flags>
0

> <s_epik_input>
W0NIM11bQ0gyXU4xW0NIMl1bQ0gyXVtDQEhdKFtDSDJdMSlbQ0gyXVtOSF1DKD1PKVtOSF1jMltjSF1uW25IXVtjSF0y

> <s_epik_cmdline>
J2VwaWtfcHl0aG9uJywgJy1waCcsICc3LjAnLCAnLXRuJywgJzgnLCAnLW1hJywgJzIwMCcsICctbWV0YWxfYmluZGluZycsICctaW1hZScsICc8aW5maWxlLm1hZT4nLCAnLW9tYWUnLCAnPG91dGZpbGUubWFlPic=

> <r_lp_tautomer_probability>
0.5

> <r_epik_Ionization_Penalty>
0.000628417

> <r_epik_Ionization_Penalty_Charging>
0.000582718

> <r_epik_Ionization_Penalty_Neutral>
4.56984e-05

> <r_epik_State_Penalty>
0.000366292

> <r_epik_Charging_Adjusted_Penalty>
0.00094901

> <i_epik_Tot_Q>
1

> <i_epik_Tot_abs_Q>
1

> <r_epik_Metal_State_Penalty>
-0

> <b_epik_Metal_Only>
0

> <s_lp_Force_Field>
OPLS_2005

> <r_lp_Energy>
30.3182

> <b_lp_Chiralities_Consistent>
1

> <s_lp_Variant>
AV-unprocessed.smi:1588-1

> <Gold.Version>
5.8.1

> <Gold.Id.Protein>
6NUR|6NUR_protein|mol2

> <Gold.PLP.Fitness>
48.2272

> <Gold.PLP.PLP>
-32.1570

> <Gold.PLP.part.hbond>
-5.8770

> <Gold.PLP.part.metal>
0.0000

> <Gold.PLP.part.buried>
-0.0114

> <Gold.PLP.part.nonpolar>
-24.8166

> <Gold.PLP.part.repulsive>
0.4411

> <Gold.PLP.ligand.clash>
0.0000

> <Gold.PLP.ligand.torsion>
0.2275

> <Gold.PLP.Chemscore.Hbond>
4.5497

> <Gold.PLP.Chemscore.CHOScore>
0.9513

> <Gold.PLP.Chemscore.Metal>
0.0000

> <Gold.Chemscore.Hbonds>
donor molecule, donor type, donor heavy atom, donor atom, acceptor molecule, acceptor atom, score
      L1  H     3    37       P1 10747  0.91
      L1  H     8    31       P1  7948  0.80
      L1  H    11    32       P1  7948  0.93
      P1  H  7989  7998       L1    14  0.95
      P1  H 10752 10764       L1    10  0.82
      L1  C    13    33       P1  7957  0.94

> <Gold.PLP.Chemscore.Internal.Correction>
0.0222

> <Gold.Rescore>
     Score         DG    S(hbond)    S(metal)    S(lipo)     H(rot)  DE(clash)    DE(int)     intcor
     18.10     -19.55       3.01        0.00      68.89       1.58       0.10       1.35       ----

> <Gold.Chemscore.Fitness>
18.1047

> <Gold.Chemscore.DG>
-19.5491

> <Gold.Chemscore.ZeroCoef>
-5.4800

> <Gold.Chemscore.Hbond>
3.0066

> <Gold.Chemscore.Metal>
0.0000

> <Gold.Chemscore.Lipo>
68.8882

> <Gold.Chemscore.Internal_Hbond>
0.0000

> <Gold.Chemscore.DEClash>
0.0954

> <Gold.Chemscore.DEInternal>
1.3490

> <Gold.Chemscore.Rot>
1.5753

> <Gold.Chemscore.Internal.Correction>
   9.000000E+99

> <Gold.Chemscore.Hbonds>
donor molecule, donor type, donor heavy atom, donor atom, acceptor molecule, acceptor atom, score
      L1  H     3    37       P1 10747  0.87
      L1  H     8    31       P1  7948  0.20
      L1  H    11    32       P1  7948  0.67
      P1  H  7989  7998       L1    14  0.20
      P1  H 10752 10764       L1    10  0.31

> <Gold.Chemscore.Hbond.Weighted>
-10.0420

> <Gold.Chemscore.Metal.Weighted>
-0.0000

> <Gold.Chemscore.Lipo.Weighted>
-8.0599

> <Gold.Chemscore.Internal_Hbond.Weighted>
0.0000

> <Gold.Chemscore.DEClash.Weighted>
0.0954

> <Gold.Chemscore.DEInternal.Weighted>
1.3490

> <Gold.Chemscore.Rot.Weighted>
4.0328

> <Gold.Chemscore.Internal.Correction.Weighted>
   9.000000E+99

> <Gold.Protein.RotatedTorsions>
[ 6907 6896 6895 6894 ] final  100.46 input  -60.11 | X-H torsion
[ 7974 7965 7964 7962 ] final  163.74 input  175.53 | X-H torsion
[ 8008 7997 7996 7995 ] final  -20.56 input   59.86 | X-H torsion
[ 10167 10162 10161 10158 ] final -165.35 input  -65.29 | X-H torsion
[ 10718 10713 10712 10709 ] final    9.26 input   66.30 | X-H torsion
[ 10763 10752 10751 10750 ] final  -43.37 input  -60.55 | X-H torsion
[ 11005 11000 10999 10996 ] final  -15.58 input  -57.11 | X-H torsion

> <Gold.Protein.ActiveResidues>
 VAL166  LYS551  ARG553  GLY616  TRP617  ASP618  TYR619  PRO620  LYS621  CYS622 
 ASP623  PHE694  ASN695  SER759  ASP760  ASP761  ALA762  ILE779  LEU786  VAL792 
 PHE793  MET794  SER795  GLU796  ALA797  LYS798  CYS799  TRP800  GLU811  SER814 

> <Gold.Protein.RotatedAtoms>
  152.5371  134.0273  159.8008 H   0  0  0  0  0  0  0  0  0  0  0  0  # atno 6907 bound_to 6896
  151.0450  133.5666  159.2655 H   0  0  0  0  0  0  0  0  0  0  0  0  # atno 6908 bound_to 6896
  151.2621  135.0665  159.9156 H   0  0  0  0  0  0  0  0  0  0  0  0  # atno 6909 bound_to 6896
  144.7576  139.8226  143.6344 H   0  0  0  0  0  0  0  0  0  0  0  0  # atno 7974 bound_to 7965
  154.4761  140.2058  155.9874 H   0  0  0  0  0  0  0  0  0  0  0  0  # atno 8008 bound_to 7997
  156.1092  140.3232  155.8018 H   0  0  0  0  0  0  0  0  0  0  0  0  # atno 8009 bound_to 7997
  155.4665  140.0528  157.2975 H   0  0  0  0  0  0  0  0  0  0  0  0  # atno 8010 bound_to 7997
  139.6188  144.0666  152.1913 H   0  0  0  0  0  0  0  0  0  0  0  0  # atno 10167 bound_to 10162
  156.9637  130.5943  149.5664 H   0  0  0  0  0  0  0  0  0  0  0  0  # atno 10718 bound_to 10713
  153.9945  135.6701  153.4756 H   0  0  0  0  0  0  0  0  0  0  0  0  # atno 10763 bound_to 10752
  153.0690  135.4985  154.8260 H   0  0  0  0  0  0  0  0  0  0  0  0  # atno 10764 bound_to 10752
  154.7090  135.3093  154.9189 H   0  0  0  0  0  0  0  0  0  0  0  0  # atno 10765 bound_to 10752
  140.7980  133.8236  155.9443 H   0  0  0  0  0  0  0  0  0  0  0  0  # atno 11005 bound_to 11000
  146.1604  139.4716  142.9992 LP  0  0  0  0  0  0  0  0  0  0  0  0  # atno 17320 bound_to 7965
  145.6727  141.0212  143.1649 LP  0  0  0  0  0  0  0  0  0  0  0  0  # atno 17321 bound_to 7965
  140.0303  144.6086  150.7493 LP  0  0  0  0  0  0  0  0  0  0  0  0  # atno 17342 bound_to 10162
  140.7368  143.2758  151.3747 LP  0  0  0  0  0  0  0  0  0  0  0  0  # atno 17343 bound_to 10162
  156.0311  130.5402  150.8537 LP  0  0  0  0  0  0  0  0  0  0  0  0  # atno 17370 bound_to 10713
  157.5640  131.0946  150.9517 LP  0  0  0  0  0  0  0  0  0  0  0  0  # atno 17371 bound_to 10713
  140.9323  134.2006  157.4855 LP  0  0  0  0  0  0  0  0  0  0  0  0  # atno 17394 bound_to 11000
  139.8724  134.9838  156.5212 LP  0  0  0  0  0  0  0  0  0  0  0  0  # atno 17395 bound_to 11000

$$$$
