AV-unprocessed.smi:560|AV-procd|sdf|2934|dock1
  -GOLD-   2262023433D 1   1.00000     0.00000
 Structure written by MMmdl.
 41 42  0  0  0  0  0  0  0  0  3 V2000
  152.7041  139.3394  159.3910 C   0  0  0  0  0  0  0  0  0  0  0  0
  151.7577  139.8638  158.2921 C   0  0  2  0  0  0  0  0  0  0  0  0
  151.9952  139.1945  156.9285 C   0  0  0  0  0  0  0  0  0  0  0  0
  152.9928  139.4624  156.2582 O   0  0  0  0  0  0  0  0  0  0  0  0
  151.0633  138.3127  156.5323 N   0  0  0  0  0  0  0  0  0  0  0  0
  151.0791  137.5703  155.2731 C   0  0  2  0  0  0  0  0  0  0  0  0
  150.8286  138.5190  154.0886 C   0  0  0  0  0  0  0  0  0  0  0  0
  149.3729  139.0192  154.0462 C   0  0  0  0  0  0  0  0  0  0  0  0
  148.4121  137.8872  154.0276 N   0  3  2  0  0  0  0  0  0  0  0  0
  147.0106  138.3436  153.8537 C   0  0  0  0  0  0  0  0  0  0  0  0
  146.8452  139.0424  152.5000 C   0  0  0  0  0  0  0  0  0  0  0  0
  146.5332  140.3464  152.6276 N   0  5  0  0  0  0  0  0  0  0  0  0
  146.9845  138.3965  151.4631 O   0  0  0  0  0  0  0  0  0  0  0  0
  148.5947  136.9911  155.2012 C   0  0  0  0  0  0  0  0  0  0  0  0
  150.0303  136.4411  155.2615 C   0  0  0  0  0  0  0  0  0  0  0  0
  151.8161  141.3159  158.1663 N   0  0  0  0  0  0  0  0  0  0  0  0
  152.5850  142.2009  158.8950 C   0  0  0  0  0  0  0  0  0  0  0  0
  152.2913  143.4596  158.4550 C   0  0  0  0  0  0  0  0  0  0  0  0
  151.3104  143.2450  157.4473 C   0  0  0  0  0  0  0  0  0  0  0  0
  151.0226  141.9645  157.2821 N   0  0  0  0  0  0  0  0  0  0  0  0
  152.6071  138.2600  159.5119 H   0  0  0  0  0  0  0  0  0  0  0  0
  152.4721  139.7969  160.3531 H   0  0  0  0  0  0  0  0  0  0  0  0
  153.7501  139.5538  159.1684 H   0  0  0  0  0  0  0  0  0  0  0  0
  150.7415  139.6095  158.5978 H   0  0  0  0  0  0  0  0  0  0  0  0
  150.2760  138.1562  157.1445 H   0  0  0  0  0  0  0  0  0  0  0  0
  152.0718  137.1329  155.1521 H   0  0  0  0  0  0  0  0  0  0  0  0
  151.5155  139.3655  154.1293 H   0  0  0  0  0  0  0  0  0  0  0  0
  151.0503  137.9944  153.1580 H   0  0  0  0  0  0  0  0  0  0  0  0
  149.1647  139.6594  154.9049 H   0  0  0  0  0  0  0  0  0  0  0  0
  149.2343  139.6322  153.1549 H   0  0  0  0  0  0  0  0  0  0  0  0
  146.3188  137.5089  153.9881 H   0  0  0  0  0  0  0  0  0  0  0  0
  146.7605  139.0794  154.6191 H   0  0  0  0  0  0  0  0  0  0  0  0
  145.5446  140.6243  152.6293 H   0  0  0  0  0  0  0  0  0  0  0  0
  148.3585  137.5341  156.1177 H   0  0  0  0  0  0  0  0  0  0  0  0
  147.8994  136.1530  155.1483 H   0  0  0  0  0  0  0  0  0  0  0  0
  150.2023  135.8032  154.3935 H   0  0  0  0  0  0  0  0  0  0  0  0
  150.1475  135.7968  156.1336 H   0  0  0  0  0  0  0  0  0  0  0  0
  153.2713  141.8648  159.6581 H   0  0  0  0  0  0  0  0  0  0  0  0
  152.7111  144.3924  158.8013 H   0  0  0  0  0  0  0  0  0  0  0  0
  150.8002  143.9764  156.8380 H   0  0  0  0  0  0  0  0  0  0  0  0
  148.6274  137.3422  153.2045 H   0  0  0  0  0  0  0  0  0  0  0  0
  1  2  1  0  0  0  0
  1 21  1  0  0  0  0
  1 22  1  0  0  0  0
  1 23  1  0  0  0  0
  2  3  1  0  0  0  0
  2 16  1  0  0  0  0
  2 24  1  0  0  0  0
  3  4  2  0  0  0  0
  3  5  1  0  0  0  0
  5  6  1  0  0  0  0
  5 25  1  0  0  0  0
  6 15  1  0  0  0  0
  6  7  1  0  0  0  0
  6 26  1  0  0  0  0
  7  8  1  0  0  0  0
  7 27  1  0  0  0  0
  7 28  1  0  0  0  0
  8  9  1  0  0  0  0
  8 29  1  0  0  0  0
  8 30  1  0  0  0  0
  9 10  1  0  0  0  0
  9 14  1  0  0  0  0
  9 41  1  0  0  0  0
 10 11  1  0  0  0  0
 10 31  1  0  0  0  0
 10 32  1  0  0  0  0
 11 12  1  0  0  0  0
 11 13  2  0  0  0  0
 12 33  1  0  0  0  0
 14 15  1  0  0  0  0
 14 34  1  0  0  0  0
 14 35  1  0  0  0  0
 15 36  1  0  0  0  0
 15 37  1  0  0  0  0
 16 20  1  0  0  0  0
 16 17  1  0  0  0  0
 17 18  2  0  0  0  0
 17 38  1  0  0  0  0
 18 19  1  0  0  0  0
 18 39  1  0  0  0  0
 19 20  2  0  0  0  0
 19 40  1  0  0  0  0
M  CHG  1   9   1
M  CHG  1  12  -1
M  END
> <s_m_source_file>
AV-unprocessed.smi

> <i_m_source_file_index>
560

> <i_lp_mmshare_version>
43012

> <i_f3d_flags>
0

> <s_epik_input>
bjFbY0hdW2NIXVtjSF1uMVtDQEhdKFtDSDNdKUMoPU8pW05IXVtDSF0yW0NIMl1bQ0gyXU4oW0NIMl1bQ0gyXTIpW0NIMl1DKD1PKVtOSDJd

> <s_epik_cmdline>
J2VwaWtfcHl0aG9uJywgJy1waCcsICc3LjAnLCAnLXRuJywgJzgnLCAnLW1hJywgJzIwMCcsICctbWV0YWxfYmluZGluZycsICctaW1hZScsICc8aW5maWxlLm1hZT4nLCAnLW9tYWUnLCAnPG91dGZpbGUubWFlPic=

> <r_lp_tautomer_probability>
1

> <r_epik_Ionization_Penalty>
5.71084

> <r_epik_Ionization_Penalty_Charging>
5.71081

> <r_epik_Ionization_Penalty_Neutral>
3.04611e-05

> <r_epik_State_Penalty>
6.71277

> <r_epik_Charging_Adjusted_Penalty>
12.4236

> <i_epik_Tot_Q>
0

> <i_epik_Tot_abs_Q>
2

> <r_epik_Metal_State_Penalty>
2.67562

> <b_epik_Metal_Only>
1

> <s_lp_Force_Field>
OPLS_2005

> <r_lp_Energy>
9.92131

> <b_lp_Chiralities_Consistent>
1

> <s_lp_Variant>
AV-unprocessed.smi:560-9

> <Gold.Version>
5.8.1

> <Gold.Id.Protein>
6NUR|6NUR_protein|mol2

> <Gold.PLP.Fitness>
49.7897

> <Gold.PLP.PLP>
-32.3858

> <Gold.PLP.part.hbond>
-3.9366

> <Gold.PLP.part.metal>
0.0000

> <Gold.PLP.part.buried>
-5.3688

> <Gold.PLP.part.nonpolar>
-25.4089

> <Gold.PLP.part.repulsive>
2.2116

> <Gold.PLP.ligand.clash>
0.0000

> <Gold.PLP.ligand.torsion>
0.3819

> <Gold.PLP.Chemscore.Hbond>
5.0000

> <Gold.PLP.Chemscore.CHOScore>
1.0000

> <Gold.PLP.Chemscore.Metal>
0.0000

> <Gold.Chemscore.Hbonds>
donor molecule, donor type, donor heavy atom, donor atom, acceptor molecule, acceptor atom, score
      L1  H     9    41       P1  7948  2.00
      L1  H    12    33       P1 10175  1.00
      P1  H  7954  7966       L1    13  1.00
      P1  H  7997  8010       L1     4  1.00
      L1  C    19    40       P1  8028  1.00

> <Gold.PLP.Chemscore.Internal.Correction>
0.1676

> <Gold.Rescore>
     Score         DG    S(hbond)    S(metal)    S(lipo)     H(rot)  DE(clash)    DE(int)     intcor
     18.94     -20.88       3.91        0.00      74.19       2.47       1.55       0.38       ----

> <Gold.Chemscore.Fitness>
18.9427

> <Gold.Chemscore.DG>
-20.8779

> <Gold.Chemscore.ZeroCoef>
-5.4800

> <Gold.Chemscore.Hbond>
3.9069

> <Gold.Chemscore.Metal>
0.0000

> <Gold.Chemscore.Lipo>
74.1943

> <Gold.Chemscore.Internal_Hbond>
0.0000

> <Gold.Chemscore.DEClash>
1.5506

> <Gold.Chemscore.DEInternal>
0.3846

> <Gold.Chemscore.Rot>
2.4734

> <Gold.Chemscore.Internal.Correction>
   9.000000E+99

> <Gold.Chemscore.Hbonds>
donor molecule, donor type, donor heavy atom, donor atom, acceptor molecule, acceptor atom, score
      L1  H     9    41       P1  7948  1.00
      L1  H    12    33       P1 10175  0.45
      P1  H  7954  7966       L1    13  0.93
      P1  H  7997  8010       L1     4  0.92

> <Gold.Chemscore.Hbond.Weighted>
-13.0489

> <Gold.Chemscore.Metal.Weighted>
-0.0000

> <Gold.Chemscore.Lipo.Weighted>
-8.6807

> <Gold.Chemscore.Internal_Hbond.Weighted>
0.0000

> <Gold.Chemscore.DEClash.Weighted>
1.5506

> <Gold.Chemscore.DEInternal.Weighted>
0.3846

> <Gold.Chemscore.Rot.Weighted>
6.3318

> <Gold.Chemscore.Internal.Correction.Weighted>
   9.000000E+99

> <Gold.Protein.RotatedTorsions>
[ 6907 6896 6895 6894 ] final  -81.37 input  -60.11 | X-H torsion
[ 7974 7965 7964 7962 ] final -153.71 input  175.53 | X-H torsion
[ 8008 7997 7996 7995 ] final   95.94 input   59.86 | X-H torsion
[ 10167 10162 10161 10158 ] final -150.22 input  -65.29 | X-H torsion
[ 10718 10713 10712 10709 ] final   17.43 input   66.30 | X-H torsion
[ 10763 10752 10751 10750 ] final   49.93 input  -60.55 | X-H torsion
[ 11005 11000 10999 10996 ] final -133.15 input  -57.11 | X-H torsion

> <Gold.Protein.ActiveResidues>
 VAL166  LYS551  ARG553  GLY616  TRP617  ASP618  TYR619  PRO620  LYS621  CYS622 
 ASP623  PHE694  ASN695  SER759  ASP760  ASP761  ALA762  ILE779  LEU786  VAL792 
 PHE793  MET794  SER795  GLU796  ALA797  LYS798  CYS799  TRP800  GLU811  SER814 

> <Gold.Protein.RotatedAtoms>
  150.6913  134.3828  159.5041 H   0  0  0  0  0  0  0  0  0  0  0  0  # atno 6907 bound_to 6896
  152.1628  134.8896  160.0549 H   0  0  0  0  0  0  0  0  0  0  0  0  # atno 6908 bound_to 6896
  151.9951  133.3770  159.4196 H   0  0  0  0  0  0  0  0  0  0  0  0  # atno 6909 bound_to 6896
  144.7726  140.4488  143.5896 H   0  0  0  0  0  0  0  0  0  0  0  0  # atno 7974 bound_to 7965
  156.0743  140.3279  155.7614 H   0  0  0  0  0  0  0  0  0  0  0  0  # atno 8008 bound_to 7997
  155.5256  140.0589  157.2916 H   0  0  0  0  0  0  0  0  0  0  0  0  # atno 8009 bound_to 7997
  154.4547  140.1936  156.0433 H   0  0  0  0  0  0  0  0  0  0  0  0  # atno 8010 bound_to 7997
  139.7374  143.8715  152.2552 H   0  0  0  0  0  0  0  0  0  0  0  0  # atno 10167 bound_to 10162
  157.0820  130.6392  149.5828 H   0  0  0  0  0  0  0  0  0  0  0  0  # atno 10718 bound_to 10713
  152.9785  135.5895  154.4170 H   0  0  0  0  0  0  0  0  0  0  0  0  # atno 10763 bound_to 10752
  154.3799  135.2767  155.2219 H   0  0  0  0  0  0  0  0  0  0  0  0  # atno 10764 bound_to 10752
  154.4138  135.6075  153.6023 H   0  0  0  0  0  0  0  0  0  0  0  0  # atno 10765 bound_to 10752
  140.9107  134.1572  157.4391 H   0  0  0  0  0  0  0  0  0  0  0  0  # atno 11005 bound_to 11000
  145.6278  139.1532  143.2986 LP  0  0  0  0  0  0  0  0  0  0  0  0  # atno 17320 bound_to 7965
  146.1884  140.6384  142.9157 LP  0  0  0  0  0  0  0  0  0  0  0  0  # atno 17321 bound_to 7965
  139.8655  144.7095  150.9048 LP  0  0  0  0  0  0  0  0  0  0  0  0  # atno 17342 bound_to 10162
  140.7781  143.3781  151.1526 LP  0  0  0  0  0  0  0  0  0  0  0  0  # atno 17343 bound_to 10162
  155.9921  130.4978  150.7326 LP  0  0  0  0  0  0  0  0  0  0  0  0  # atno 17370 bound_to 10713
  157.4792  131.0901  151.0555 LP  0  0  0  0  0  0  0  0  0  0  0  0  # atno 17371 bound_to 10713
  139.8757  134.9934  156.5644 LP  0  0  0  0  0  0  0  0  0  0  0  0  # atno 17394 bound_to 11000
  140.8114  133.8426  155.8813 LP  0  0  0  0  0  0  0  0  0  0  0  0  # atno 17395 bound_to 11000

$$$$
