AV-unprocessed.smi:1689|AV-procd|sdf|6772|dock3
  -GOLD-   22720 7533D 1   1.00000     0.00000
 Structure written by MMmdl.
 40 42  0  0  0  0  0  0  0  0  1 V2000
  152.0089  137.0013  159.6856 N   0  0  0  0  0  0  0  0  0  0  0  0
  151.9337  138.0972  159.3212 C   0  0  0  0  0  0  0  0  0  0  0  0
  151.8091  139.4462  158.8781 C   0  0  0  0  0  0  0  0  0  0  0  0
  152.2588  140.4815  159.6192 C   0  0  0  0  0  0  0  0  0  0  0  0
  152.1421  141.7957  159.2165 N   0  0  0  0  0  0  0  0  0  0  0  0
  152.7664  142.8603  159.9502 C   0  0  0  0  0  0  0  0  0  0  0  0
  152.4302  143.0381  161.4149 C   0  0  0  0  0  0  0  0  0  0  0  0
  151.9525  144.0553  160.4076 C   0  0  0  0  0  0  0  0  0  0  0  0
  151.6078  142.1060  157.9466 C   0  0  0  0  0  0  0  0  0  0  0  0
  151.5863  143.2676  157.5308 O   0  0  0  0  0  0  0  0  0  0  0  0
  151.1194  141.0226  157.1733 N   0  0  0  0  0  0  0  0  0  0  0  0
  150.5390  141.3105  155.8664 C   0  0  0  0  0  0  0  0  0  0  0  0
  148.9821  141.2786  155.7773 C   0  0  0  0  0  0  0  0  0  0  0  0
  148.5016  142.3176  156.6110 O   0  0  0  0  0  0  0  0  0  0  0  0
  148.5436  141.6375  154.3363 C   0  0  0  0  0  0  0  0  0  0  0  0
  147.0172  141.6005  154.1360 C   0  0  0  0  0  0  0  0  0  0  0  0
  146.4311  140.2469  154.5594 C   0  0  0  0  0  0  0  0  0  0  0  0
  146.8032  139.9199  156.0119 C   0  0  0  0  0  0  0  0  0  0  0  0
  148.3284  139.9424  156.2179 C   0  0  0  0  0  0  0  0  0  0  0  0
  151.1774  139.6648  157.5789 C   0  0  0  0  0  0  0  0  0  0  0  0
  150.7314  138.7545  156.8786 O   0  0  0  0  0  0  0  0  0  0  0  0
  152.7253  140.2749  160.5718 H   0  0  0  0  0  0  0  0  0  0  0  0
  153.7981  143.0698  159.6735 H   0  0  0  0  0  0  0  0  0  0  0  0
  151.6806  142.3818  161.8529 H   0  0  0  0  0  0  0  0  0  0  0  0
  153.2370  143.3332  162.0824 H   0  0  0  0  0  0  0  0  0  0  0  0
  152.4423  145.0267  160.4006 H   0  0  0  0  0  0  0  0  0  0  0  0
  150.8871  144.0698  160.1845 H   0  0  0  0  0  0  0  0  0  0  0  0
  150.9484  142.2661  155.5315 H   0  0  0  0  0  0  0  0  0  0  0  0
  150.9762  140.5978  155.1661 H   0  0  0  0  0  0  0  0  0  0  0  0
  148.7811  143.1445  156.2492 H   0  0  0  0  0  0  0  0  0  0  0  0
  148.9259  142.6207  154.0577 H   0  0  0  0  0  0  0  0  0  0  0  0
  148.9965  140.9312  153.6390 H   0  0  0  0  0  0  0  0  0  0  0  0
  146.5467  142.3994  154.7102 H   0  0  0  0  0  0  0  0  0  0  0  0
  146.7781  141.7959  153.0903 H   0  0  0  0  0  0  0  0  0  0  0  0
  145.3468  140.2578  154.4451 H   0  0  0  0  0  0  0  0  0  0  0  0
  146.8047  139.4626  153.8997 H   0  0  0  0  0  0  0  0  0  0  0  0
  146.3269  140.6355  156.6831 H   0  0  0  0  0  0  0  0  0  0  0  0
  146.4098  138.9396  156.2823 H   0  0  0  0  0  0  0  0  0  0  0  0
  148.7586  139.1226  155.6426 H   0  0  0  0  0  0  0  0  0  0  0  0
  148.5496  139.7333  157.2653 H   0  0  0  0  0  0  0  0  0  0  0  0
  1  2  3  0  0  0  0
  2  3  1  0  0  0  0
  3 20  1  0  0  0  0
  3  4  2  0  0  0  0
  4  5  1  0  0  0  0
  4 22  1  0  0  0  0
  5  6  1  0  0  0  0
  5  9  1  0  0  0  0
  6  8  1  0  0  0  0
  6  7  1  0  0  0  0
  6 23  1  0  0  0  0
  7  8  1  0  0  0  0
  7 24  1  0  0  0  0
  7 25  1  0  0  0  0
  8 26  1  0  0  0  0
  8 27  1  0  0  0  0
  9 10  2  0  0  0  0
  9 11  1  0  0  0  0
 11 12  1  0  0  0  0
 11 20  1  0  0  0  0
 12 13  1  0  0  0  0
 12 28  1  0  0  0  0
 12 29  1  0  0  0  0
 13 19  1  0  0  0  0
 13 14  1  0  0  0  0
 13 15  1  0  0  0  0
 14 30  1  0  0  0  0
 15 16  1  0  0  0  0
 15 31  1  0  0  0  0
 15 32  1  0  0  0  0
 16 17  1  0  0  0  0
 16 33  1  0  0  0  0
 16 34  1  0  0  0  0
 17 18  1  0  0  0  0
 17 35  1  0  0  0  0
 17 36  1  0  0  0  0
 18 19  1  0  0  0  0
 18 37  1  0  0  0  0
 18 38  1  0  0  0  0
 19 39  1  0  0  0  0
 19 40  1  0  0  0  0
 20 21  2  0  0  0  0
M  END
> <s_m_source_file>
AV-unprocessed.smi

> <i_m_source_file_index>
1689

> <i_lp_mmshare_version>
43012

> <i_f3d_flags>
0

> <s_epik_input>
TiNDYzFbY0hdbihbQ0hdMltDSDJdW0NIMl0yKWMoPU8pbihjMT1PKVtDSDJdQzMoW09IXSlbQ0gyXVtDSDJdW0NIMl1bQ0gyXVtDSDJdMw==

> <s_epik_cmdline>
J2VwaWtfcHl0aG9uJywgJy1waCcsICc3LjAnLCAnLXRuJywgJzgnLCAnLW1hJywgJzIwMCcsICctbWV0YWxfYmluZGluZycsICctaW1hZScsICc8aW5maWxlLm1hZT4nLCAnLW9tYWUnLCAnPG91dGZpbGUubWFlPic=

> <r_lp_tautomer_probability>
1

> <r_epik_Ionization_Penalty>
3.88729e-07

> <r_epik_Ionization_Penalty_Charging>
1.71084e-09

> <r_epik_Ionization_Penalty_Neutral>
3.87018e-07

> <r_epik_State_Penalty>
-0

> <r_epik_Charging_Adjusted_Penalty>
1.71084e-09

> <i_epik_Tot_Q>
0

> <i_epik_Tot_abs_Q>
0

> <r_epik_Metal_State_Penalty>
-0

> <b_epik_Metal_Only>
0

> <s_lp_Force_Field>
OPLS_2005

> <r_lp_Energy>
46.863

> <b_lp_Chiralities_Consistent>
1

> <s_lp_Variant>
AV-unprocessed.smi:1689-1

> <Gold.Version>
5.8.1

> <Gold.Id.Protein>
6NUR|6NUR_protein|mol2

> <Gold.PLP.Fitness>
45.1515

> <Gold.PLP.PLP>
-39.3203

> <Gold.PLP.part.hbond>
-2.0000

> <Gold.PLP.part.metal>
0.0000

> <Gold.PLP.part.buried>
-4.9335

> <Gold.PLP.part.nonpolar>
-32.2288

> <Gold.PLP.part.repulsive>
0.0967

> <Gold.PLP.ligand.clash>
0.0000

> <Gold.PLP.ligand.torsion>
0.3561

> <Gold.PLP.Chemscore.Hbond>
2.0000

> <Gold.PLP.Chemscore.CHOScore>
0.0000

> <Gold.PLP.Chemscore.Metal>
0.0000

> <Gold.Chemscore.Hbonds>
donor molecule, donor type, donor heavy atom, donor atom, acceptor molecule, acceptor atom, score
      L1  H    14    30       P1  8028  1.00
      P1  H  6896  6907       L1     1  1.00

> <Gold.PLP.Chemscore.Internal.Correction>
0.5435

> <Gold.Rescore>
     Score         DG    S(hbond)    S(metal)    S(lipo)     H(rot)  DE(clash)    DE(int)     intcor
     14.93     -16.89       1.98        0.00      83.52       1.94       0.05       1.91       ----

> <Gold.Chemscore.Fitness>
14.9321

> <Gold.Chemscore.DG>
-16.8938

> <Gold.Chemscore.ZeroCoef>
-5.4800

> <Gold.Chemscore.Hbond>
1.9807

> <Gold.Chemscore.Metal>
0.0000

> <Gold.Chemscore.Lipo>
83.5188

> <Gold.Chemscore.Internal_Hbond>
0.0000

> <Gold.Chemscore.DEClash>
0.0494

> <Gold.Chemscore.DEInternal>
1.9123

> <Gold.Chemscore.Rot>
1.9428

> <Gold.Chemscore.Internal.Correction>
   9.000000E+99

> <Gold.Chemscore.Hbonds>
donor molecule, donor type, donor heavy atom, donor atom, acceptor molecule, acceptor atom, score
      L1  H    14    30       P1  8028  0.98
      P1  H  6896  6907       L1     1  1.00

> <Gold.Chemscore.Hbond.Weighted>
-6.6156

> <Gold.Chemscore.Metal.Weighted>
-0.0000

> <Gold.Chemscore.Lipo.Weighted>
-9.7717

> <Gold.Chemscore.Internal_Hbond.Weighted>
0.0000

> <Gold.Chemscore.DEClash.Weighted>
0.0494

> <Gold.Chemscore.DEInternal.Weighted>
1.9123

> <Gold.Chemscore.Rot.Weighted>
4.9735

> <Gold.Chemscore.Internal.Correction.Weighted>
   9.000000E+99

> <Gold.Protein.RotatedTorsions>
[ 6907 6896 6895 6894 ] final    2.08 input  -60.11 | X-H torsion
[ 7974 7965 7964 7962 ] final    7.99 input  175.53 | X-H torsion
[ 8008 7997 7996 7995 ] final  129.15 input   59.86 | X-H torsion
[ 10167 10162 10161 10158 ] final   -1.19 input  -65.29 | X-H torsion
[ 10718 10713 10712 10709 ] final  146.91 input   66.30 | X-H torsion
[ 10763 10752 10751 10750 ] final -106.90 input  -60.55 | X-H torsion
[ 11005 11000 10999 10996 ] final  107.74 input  -57.11 | X-H torsion

> <Gold.Protein.ActiveResidues>
 VAL166  LYS551  ARG553  GLY616  TRP617  ASP618  TYR619  PRO620  LYS621  CYS622 
 ASP623  PHE694  ASN695  SER759  ASP760  ASP761  ALA762  ILE779  LEU786  VAL792 
 PHE793  MET794  SER795  GLU796  ALA797  LYS798  CYS799  TRP800  GLU811  SER814 

> <Gold.Protein.RotatedAtoms>
  151.6031  135.1046  160.0064 H   0  0  0  0  0  0  0  0  0  0  0  0  # atno 6907 bound_to 6896
  152.4247  133.7171  159.6523 H   0  0  0  0  0  0  0  0  0  0  0  0  # atno 6908 bound_to 6896
  150.8136  133.8305  159.3193 H   0  0  0  0  0  0  0  0  0  0  0  0  # atno 6909 bound_to 6896
  146.2421  140.0000  142.8417 H   0  0  0  0  0  0  0  0  0  0  0  0  # atno 7974 bound_to 7965
  156.2930  140.2627  156.2552 H   0  0  0  0  0  0  0  0  0  0  0  0  # atno 8008 bound_to 7997
  154.9843  140.0389  157.2310 H   0  0  0  0  0  0  0  0  0  0  0  0  # atno 8009 bound_to 7997
  154.7743  140.2784  155.6118 H   0  0  0  0  0  0  0  0  0  0  0  0  # atno 8010 bound_to 7997
  140.6799  143.6805  150.8109 H   0  0  0  0  0  0  0  0  0  0  0  0  # atno 10167 bound_to 10162
  157.3274  131.0914  151.1191 H   0  0  0  0  0  0  0  0  0  0  0  0  # atno 10718 bound_to 10713
  154.8041  135.4695  154.0349 H   0  0  0  0  0  0  0  0  0  0  0  0  # atno 10763 bound_to 10752
  153.1831  135.6843  153.8458 H   0  0  0  0  0  0  0  0  0  0  0  0  # atno 10764 bound_to 10752
  153.8001  135.3231  155.3366 H   0  0  0  0  0  0  0  0  0  0  0  0  # atno 10765 bound_to 10752
  139.8833  134.9410  156.5866 H   0  0  0  0  0  0  0  0  0  0  0  0  # atno 11005 bound_to 11000
  145.1424  140.9578  143.4481 LP  0  0  0  0  0  0  0  0  0  0  0  0  # atno 17320 bound_to 7965
  145.0283  139.3363  143.6037 LP  0  0  0  0  0  0  0  0  0  0  0  0  # atno 17321 bound_to 7965
  140.0504  143.5256  152.2676 LP  0  0  0  0  0  0  0  0  0  0  0  0  # atno 17342 bound_to 10162
  139.6115  144.7610  151.2940 LP  0  0  0  0  0  0  0  0  0  0  0  0  # atno 17343 bound_to 10162
  157.2452  130.6588  149.5907 LP  0  0  0  0  0  0  0  0  0  0  0  0  # atno 17370 bound_to 10713
  155.9692  130.4556  150.5892 LP  0  0  0  0  0  0  0  0  0  0  0  0  # atno 17371 bound_to 10713
  140.7987  133.8523  155.8708 LP  0  0  0  0  0  0  0  0  0  0  0  0  # atno 17394 bound_to 11000
  140.9612  134.1653  157.4652 LP  0  0  0  0  0  0  0  0  0  0  0  0  # atno 17395 bound_to 11000

$$$$
