AV-unprocessed.smi:3009|AV-procd|sdf|11449|dock4
  -GOLD-   2272016383D 1   1.00000     0.00000
 Structure written by MMmdl.
 44 45  0  0  0  0  0  0  0  0  2 V2000
  149.9993  142.9176  158.5227 C   0  0  0  0  0  0  0  0  0  0  0  0
  150.3550  141.6665  157.7060 C   0  0  0  0  0  0  0  0  0  0  0  0
  151.5247  140.9136  158.3621 C   0  0  0  0  0  0  0  0  0  0  0  0
  150.6607  142.0459  156.2402 C   0  0  0  0  0  0  0  0  0  0  0  0
  150.4746  140.9192  155.2896 N   0  3  1  0  0  0  0  0  0  0  0  0
  151.2780  139.7167  155.6222 C   0  0  0  0  0  0  0  0  0  0  0  0
  151.0536  138.6152  154.5731 C   0  0  0  0  0  0  0  0  0  0  0  0
  149.6668  138.3135  154.4885 O   0  0  0  0  0  0  0  0  0  0  0  0
  148.8957  139.4360  154.0713 C   0  0  1  0  0  0  0  0  0  0  0  0
  147.4304  138.9907  153.9155 C   0  0  0  0  0  0  0  0  0  0  0  0
  147.3094  137.7864  153.1007 N   0  0  0  0  0  0  0  0  0  0  0  0
  146.1532  137.1844  152.7891 C   0  0  0  0  0  0  0  0  0  0  0  0
  145.0541  137.5933  153.1636 O   0  0  0  0  0  0  0  0  0  0  0  0
  146.3562  136.0987  152.0260 N   0  0  0  0  0  0  0  0  0  0  0  0
  145.3708  135.2311  151.4917 C   0  0  0  0  0  0  0  0  0  0  0  0
  145.4560  133.8369  151.2056 C   0  0  0  0  0  0  0  0  0  0  0  0
  144.3139  133.3774  150.7142 N   0  0  0  0  0  0  0  0  0  0  0  0
  143.5041  134.4596  150.6837 N   0  0  0  0  0  0  0  0  0  0  0  0
  144.1065  135.6078  151.1484 C   0  0  0  0  0  0  0  0  0  0  0  0
  149.0480  140.5540  155.1202 C   0  0  0  0  0  0  0  0  0  0  0  0
  142.5536  134.3986  150.3470 H   0  0  0  0  0  0  0  0  0  0  0  0
  150.8324  143.6206  158.5547 H   0  0  0  0  0  0  0  0  0  0  0  0
  149.7436  142.6580  159.5506 H   0  0  0  0  0  0  0  0  0  0  0  0
  149.1418  143.4374  158.0942 H   0  0  0  0  0  0  0  0  0  0  0  0
  149.4804  141.0174  157.7339 H   0  0  0  0  0  0  0  0  0  0  0  0
  152.4335  141.5164  158.3654 H   0  0  0  0  0  0  0  0  0  0  0  0
  151.7441  139.9817  157.8407 H   0  0  0  0  0  0  0  0  0  0  0  0
  151.2934  140.6578  159.3965 H   0  0  0  0  0  0  0  0  0  0  0  0
  150.0401  142.8860  155.9242 H   0  0  0  0  0  0  0  0  0  0  0  0
  151.6929  142.3954  156.1864 H   0  0  0  0  0  0  0  0  0  0  0  0
  152.3387  139.9610  155.6607 H   0  0  0  0  0  0  0  0  0  0  0  0
  150.9976  139.3498  156.6108 H   0  0  0  0  0  0  0  0  0  0  0  0
  151.4336  138.9218  153.5973 H   0  0  0  0  0  0  0  0  0  0  0  0
  151.5944  137.7117  154.8550 H   0  0  0  0  0  0  0  0  0  0  0  0
  149.2688  139.7962  153.1107 H   0  0  0  0  0  0  0  0  0  0  0  0
  146.9925  138.7895  154.8936 H   0  0  0  0  0  0  0  0  0  0  0  0
  146.8363  139.7903  153.4699 H   0  0  0  0  0  0  0  0  0  0  0  0
  148.1666  137.3850  152.7495 H   0  0  0  0  0  0  0  0  0  0  0  0
  147.3134  135.8700  151.8014 H   0  0  0  0  0  0  0  0  0  0  0  0
  146.2812  133.1519  151.3317 H   0  0  0  0  0  0  0  0  0  0  0  0
  143.5978  136.5595  151.1909 H   0  0  0  0  0  0  0  0  0  0  0  0
  148.6368  140.2337  156.0791 H   0  0  0  0  0  0  0  0  0  0  0  0
  148.4806  141.4302  154.8038 H   0  0  0  0  0  0  0  0  0  0  0  0
  150.7900  141.2476  154.3878 H   0  0  0  0  0  0  0  0  0  0  0  0
  1  2  1  0  0  0  0
  1 22  1  0  0  0  0
  1 23  1  0  0  0  0
  1 24  1  0  0  0  0
  2  3  1  0  0  0  0
  2  4  1  0  0  0  0
  2 25  1  0  0  0  0
  3 26  1  0  0  0  0
  3 27  1  0  0  0  0
  3 28  1  0  0  0  0
  4  5  1  0  0  0  0
  4 29  1  0  0  0  0
  4 30  1  0  0  0  0
  5 20  1  0  0  0  0
  5  6  1  0  0  0  0
  5 44  1  0  0  0  0
  6  7  1  0  0  0  0
  6 31  1  0  0  0  0
  6 32  1  0  0  0  0
  7  8  1  0  0  0  0
  7 33  1  0  0  0  0
  7 34  1  0  0  0  0
  8  9  1  0  0  0  0
  9 10  1  0  0  0  0
  9 20  1  0  0  0  0
  9 35  1  0  0  0  0
 10 11  1  0  0  0  0
 10 36  1  0  0  0  0
 10 37  1  0  0  0  0
 11 12  1  0  0  0  0
 11 38  1  0  0  0  0
 12 13  2  0  0  0  0
 12 14  1  0  0  0  0
 14 15  1  0  0  0  0
 14 39  1  0  0  0  0
 15 19  2  0  0  0  0
 15 16  1  0  0  0  0
 16 17  2  0  0  0  0
 16 40  1  0  0  0  0
 17 18  1  0  0  0  0
 18 21  1  0  0  0  0
 18 19  1  0  0  0  0
 19 41  1  0  0  0  0
 20 42  1  0  0  0  0
 20 43  1  0  0  0  0
M  CHG  1   5   1
M  END
> <s_m_source_file>
AV-unprocessed.smi

> <i_m_source_file_index>
3009

> <i_lp_mmshare_version>
43012

> <i_f3d_flags>
0

> <s_epik_input>
W0NIM11bQ0hdKFtDSDNdKVtDSDJdTjFbQ0gyXVtDSDJdT1tDQEhdKFtDSDJdMSlbQ0gyXVtOSF1DKD1PKVtOSF1jMltjSF1uW25IXVtjSF0y

> <s_epik_cmdline>
J2VwaWtfcHl0aG9uJywgJy1waCcsICc3LjAnLCAnLXRuJywgJzgnLCAnLW1hJywgJzIwMCcsICctbWV0YWxfYmluZGluZycsICctaW1hZScsICc8aW5maWxlLm1hZT4nLCAnLW9tYWUnLCAnPG91dGZpbGUubWFlPic=

> <r_lp_tautomer_probability>
0.5

> <r_epik_Ionization_Penalty>
0.0974064

> <r_epik_Ionization_Penalty_Charging>
0.0973651

> <r_epik_Ionization_Penalty_Neutral>
4.13573e-05

> <r_epik_State_Penalty>
0.0874853

> <r_epik_Charging_Adjusted_Penalty>
0.18485

> <i_epik_Tot_Q>
1

> <i_epik_Tot_abs_Q>
1

> <r_epik_Metal_State_Penalty>
0.0874855

> <b_epik_Metal_Only>
0

> <s_lp_Force_Field>
OPLS_2005

> <r_lp_Energy>
19.2351

> <b_lp_Chiralities_Consistent>
1

> <s_lp_Variant>
AV-unprocessed.smi:3009-1

> <Gold.Version>
5.8.1

> <Gold.Id.Protein>
6NUR|6NUR_protein|mol2

> <Gold.PLP.Fitness>
40.2908

> <Gold.PLP.PLP>
-29.2337

> <Gold.PLP.part.hbond>
-3.0000

> <Gold.PLP.part.metal>
0.0000

> <Gold.PLP.part.buried>
-4.3359

> <Gold.PLP.part.nonpolar>
-23.5941

> <Gold.PLP.part.repulsive>
1.9297

> <Gold.PLP.ligand.clash>
0.0000

> <Gold.PLP.ligand.torsion>
0.4821

> <Gold.PLP.Chemscore.Hbond>
3.0000

> <Gold.PLP.Chemscore.CHOScore>
0.9972

> <Gold.PLP.Chemscore.Metal>
0.0000

> <Gold.Chemscore.Hbonds>
donor molecule, donor type, donor heavy atom, donor atom, acceptor molecule, acceptor atom, score
      L1  H    11    38       P1  7948  1.00
      L1  H    14    39       P1  7948  1.00
      L1  H    18    21       P1 10186  1.00
      L1  C    19    41       P1 10171  1.00

> <Gold.PLP.Chemscore.Internal.Correction>
0.0297

> <Gold.Rescore>
     Score         DG    S(hbond)    S(metal)    S(lipo)     H(rot)  DE(clash)    DE(int)     intcor
     16.99     -18.32       2.88        0.00      66.72       1.80       0.02       1.31       ----

> <Gold.Chemscore.Fitness>
16.9900

> <Gold.Chemscore.DG>
-18.3239

> <Gold.Chemscore.ZeroCoef>
-5.4800

> <Gold.Chemscore.Hbond>
2.8850

> <Gold.Chemscore.Metal>
0.0000

> <Gold.Chemscore.Lipo>
66.7222

> <Gold.Chemscore.Internal_Hbond>
0.0000

> <Gold.Chemscore.DEClash>
0.0224

> <Gold.Chemscore.DEInternal>
1.3115

> <Gold.Chemscore.Rot>
1.7963

> <Gold.Chemscore.Internal.Correction>
   9.000000E+99

> <Gold.Chemscore.Hbonds>
donor molecule, donor type, donor heavy atom, donor atom, acceptor molecule, acceptor atom, score
      L1  H    11    38       P1  7948  0.95
      L1  H    14    39       P1  7948  0.96
      L1  H    18    21       P1 10186  0.60

> <Gold.Chemscore.Hbond.Weighted>
-9.6359

> <Gold.Chemscore.Metal.Weighted>
-0.0000

> <Gold.Chemscore.Lipo.Weighted>
-7.8065

> <Gold.Chemscore.Internal_Hbond.Weighted>
0.0000

> <Gold.Chemscore.DEClash.Weighted>
0.0224

> <Gold.Chemscore.DEInternal.Weighted>
1.3115

> <Gold.Chemscore.Rot.Weighted>
4.5985

> <Gold.Chemscore.Internal.Correction.Weighted>
   9.000000E+99

> <Gold.Protein.RotatedTorsions>
[ 6907 6896 6895 6894 ] final  122.04 input  -60.11 | X-H torsion
[ 7974 7965 7964 7962 ] final -128.19 input  175.53 | X-H torsion
[ 8008 7997 7996 7995 ] final  140.30 input   59.86 | X-H torsion
[ 10167 10162 10161 10158 ] final -112.99 input  -65.29 | X-H torsion
[ 10718 10713 10712 10709 ] final  161.58 input   66.30 | X-H torsion
[ 10763 10752 10751 10750 ] final  156.42 input  -60.55 | X-H torsion
[ 11005 11000 10999 10996 ] final   64.23 input  -57.11 | X-H torsion

> <Gold.Protein.ActiveResidues>
 VAL166  LYS551  ARG553  GLY616  TRP617  ASP618  TYR619  PRO620  LYS621  CYS622 
 ASP623  PHE694  ASN695  SER759  ASP760  ASP761  ALA762  ILE779  LEU786  VAL792 
 PHE793  MET794  SER795  GLU796  ALA797  LYS798  CYS799  TRP800  GLU811  SER814 

> <Gold.Protein.RotatedAtoms>
  152.4274  133.7219  159.6537 H   0  0  0  0  0  0  0  0  0  0  0  0  # atno 6907 bound_to 6896
  150.8151  133.8340  159.3170 H   0  0  0  0  0  0  0  0  0  0  0  0  # atno 6908 bound_to 6896
  151.6039  135.1047  160.0118 H   0  0  0  0  0  0  0  0  0  0  0  0  # atno 6909 bound_to 6896
  144.9696  140.7531  143.4679 H   0  0  0  0  0  0  0  0  0  0  0  0  # atno 7974 bound_to 7965
  156.2980  140.2345  156.4379 H   0  0  0  0  0  0  0  0  0  0  0  0  # atno 8008 bound_to 7997
  154.8212  140.0438  157.1432 H   0  0  0  0  0  0  0  0  0  0  0  0  # atno 8009 bound_to 7997
  154.9313  140.3017  155.5170 H   0  0  0  0  0  0  0  0  0  0  0  0  # atno 8010 bound_to 7997
  140.1167  143.4479  152.1717 H   0  0  0  0  0  0  0  0  0  0  0  0  # atno 10167 bound_to 10162
  157.1345  131.0525  151.2356 H   0  0  0  0  0  0  0  0  0  0  0  0  # atno 10718 bound_to 10713
  154.1840  135.2798  155.3043 H   0  0  0  0  0  0  0  0  0  0  0  0  # atno 10763 bound_to 10752
  154.5980  135.5538  153.7349 H   0  0  0  0  0  0  0  0  0  0  0  0  # atno 10764 bound_to 10752
  153.0130  135.6385  154.1979 H   0  0  0  0  0  0  0  0  0  0  0  0  # atno 10765 bound_to 10752
  139.9972  134.6498  155.9990 H   0  0  0  0  0  0  0  0  0  0  0  0  # atno 11005 bound_to 11000
  145.2579  139.2004  143.4907 LP  0  0  0  0  0  0  0  0  0  0  0  0  # atno 17320 bound_to 7965
  146.3378  140.2504  142.8598 LP  0  0  0  0  0  0  0  0  0  0  0  0  # atno 17321 bound_to 7965
  139.5590  144.7393  151.4210 LP  0  0  0  0  0  0  0  0  0  0  0  0  # atno 17342 bound_to 10162
  140.6895  143.7895  150.7234 LP  0  0  0  0  0  0  0  0  0  0  0  0  # atno 17343 bound_to 10162
  157.4362  130.7518  149.7031 LP  0  0  0  0  0  0  0  0  0  0  0  0  # atno 17370 bound_to 10713
  155.9801  130.4033  150.3549 LP  0  0  0  0  0  0  0  0  0  0  0  0  # atno 17371 bound_to 10713
  141.1614  133.6538  156.4332 LP  0  0  0  0  0  0  0  0  0  0  0  0  # atno 17394 bound_to 11000
  140.4795  134.6678  157.5164 LP  0  0  0  0  0  0  0  0  0  0  0  0  # atno 17395 bound_to 11000

$$$$
