AV-unprocessed.smi:1952|AV-procd|sdf|7884|dock1
  -GOLD-   2272010 33D 1   1.00000     0.00000
 Structure written by MMmdl.
 39 40  0  0  0  0  0  0  0  0  1 V2000
  146.7269  134.6137  162.2607 C   0  0  0  0  0  0  0  0  0  0  0  0
  147.5142  135.2902  161.1914 C   0  0  0  0  0  0  0  0  0  0  0  0
  147.7988  136.6019  160.9343 C   0  0  0  0  0  0  0  0  0  0  0  0
  148.5944  136.5322  159.7598 C   0  0  0  0  0  0  0  0  0  0  0  0
  149.1024  137.7099  159.1551 N   0  0  0  0  0  0  0  0  0  0  0  0
  150.1497  137.8157  158.3198 C   0  0  0  0  0  0  0  0  0  0  0  0
  150.8511  136.8767  157.9421 O   0  0  0  0  0  0  0  0  0  0  0  0
  150.3447  139.0897  157.9465 N   0  0  0  0  0  0  0  0  0  0  0  0
  151.4137  139.5714  157.0728 C   0  0  1  0  0  0  0  0  0  0  0  0
  151.3428  138.8213  155.7361 C   0  0  0  0  0  0  0  0  0  0  0  0
  151.2854  141.0958  156.8622 C   0  0  0  0  0  0  0  0  0  0  0  0
  151.4063  141.9149  158.0692 N   0  0  0  0  0  0  0  0  0  0  0  0
  152.5605  141.5476  158.8873 C   0  0  0  0  0  0  0  0  0  0  0  0
  152.6750  142.4292  160.1427 C   0  0  0  0  0  0  0  0  0  0  0  0
  152.7375  143.7998  159.7612 O   0  0  0  0  0  0  0  0  0  0  0  0
  151.6076  144.2089  158.9973 C   0  0  0  0  0  0  0  0  0  0  0  0
  151.4938  143.3325  157.7381 C   0  0  0  0  0  0  0  0  0  0  0  0
  148.7790  135.2905  159.3384 N   0  0  0  0  0  0  0  0  0  0  0  0
  148.0874  134.4883  160.2535 O   0  0  0  0  0  0  0  0  0  0  0  0
  146.3866  135.3313  163.0075 H   0  0  0  0  0  0  0  0  0  0  0  0
  147.3299  133.8597  162.7669 H   0  0  0  0  0  0  0  0  0  0  0  0
  145.8496  134.1210  161.8410 H   0  0  0  0  0  0  0  0  0  0  0  0
  147.4865  137.4687  161.4974 H   0  0  0  0  0  0  0  0  0  0  0  0
  148.6186  138.5646  159.3864 H   0  0  0  0  0  0  0  0  0  0  0  0
  149.7153  139.7887  158.3122 H   0  0  0  0  0  0  0  0  0  0  0  0
  152.3873  139.3415  157.5066 H   0  0  0  0  0  0  0  0  0  0  0  0
  152.1441  139.1374  155.0676 H   0  0  0  0  0  0  0  0  0  0  0  0
  150.3951  139.0010  155.2272 H   0  0  0  0  0  0  0  0  0  0  0  0
  151.4438  137.7454  155.8832 H   0  0  0  0  0  0  0  0  0  0  0  0
  152.0251  141.4229  156.1297 H   0  0  0  0  0  0  0  0  0  0  0  0
  150.3136  141.2858  156.4038 H   0  0  0  0  0  0  0  0  0  0  0  0
  152.4920  140.5068  159.2006 H   0  0  0  0  0  0  0  0  0  0  0  0
  153.4751  141.6367  158.2992 H   0  0  0  0  0  0  0  0  0  0  0  0
  151.8242  142.2667  160.8065 H   0  0  0  0  0  0  0  0  0  0  0  0
  153.5735  142.1737  160.7049 H   0  0  0  0  0  0  0  0  0  0  0  0
  150.7034  144.1336  159.6034 H   0  0  0  0  0  0  0  0  0  0  0  0
  151.7230  145.2571  158.7214 H   0  0  0  0  0  0  0  0  0  0  0  0
  152.3577  143.5101  157.0955 H   0  0  0  0  0  0  0  0  0  0  0  0
  150.6141  143.6353  157.1691 H   0  0  0  0  0  0  0  0  0  0  0  0
  1  2  1  0  0  0  0
  1 20  1  0  0  0  0
  1 21  1  0  0  0  0
  1 22  1  0  0  0  0
  2 19  1  0  0  0  0
  2  3  2  0  0  0  0
  3  4  1  0  0  0  0
  3 23  1  0  0  0  0
  4  5  1  0  0  0  0
  4 18  2  0  0  0  0
  5  6  1  0  0  0  0
  5 24  1  0  0  0  0
  6  7  2  0  0  0  0
  6  8  1  0  0  0  0
  8  9  1  0  0  0  0
  8 25  1  0  0  0  0
  9 10  1  0  0  0  0
  9 11  1  0  0  0  0
  9 26  1  0  0  0  0
 10 27  1  0  0  0  0
 10 28  1  0  0  0  0
 10 29  1  0  0  0  0
 11 12  1  0  0  0  0
 11 30  1  0  0  0  0
 11 31  1  0  0  0  0
 12 17  1  0  0  0  0
 12 13  1  0  0  0  0
 13 14  1  0  0  0  0
 13 32  1  0  0  0  0
 13 33  1  0  0  0  0
 14 15  1  0  0  0  0
 14 34  1  0  0  0  0
 14 35  1  0  0  0  0
 15 16  1  0  0  0  0
 16 17  1  0  0  0  0
 16 36  1  0  0  0  0
 16 37  1  0  0  0  0
 17 38  1  0  0  0  0
 17 39  1  0  0  0  0
 18 19  1  0  0  0  0
M  END
> <s_m_source_file>
AV-unprocessed.smi

> <i_m_source_file_index>
1952

> <i_lp_mmshare_version>
43012

> <i_f3d_flags>
0

> <s_epik_input>
W0NIM11jMVtjSF1jKG5vMSlbTkhdQyg9TylbTkhdW0NASF0oW0NIM10pW0NIMl1OMltDSDJdW0NIMl1PW0NIMl1bQ0gyXTI=

> <s_epik_cmdline>
J2VwaWtfcHl0aG9uJywgJy1waCcsICc3LjAnLCAnLXRuJywgJzgnLCAnLW1hJywgJzIwMCcsICctbWV0YWxfYmluZGluZycsICctaW1hZScsICc8aW5maWxlLm1hZT4nLCAnLW9tYWUnLCAnPG91dGZpbGUubWFlPic=

> <r_epik_Ionization_Penalty>
0.214075

> <r_epik_Ionization_Penalty_Charging>
0

> <r_epik_Ionization_Penalty_Neutral>
0.214075

> <r_epik_State_Penalty>
0.204211

> <r_epik_Charging_Adjusted_Penalty>
0.204211

> <i_epik_Tot_Q>
0

> <i_epik_Tot_abs_Q>
0

> <r_epik_Metal_State_Penalty>
0.218782

> <b_epik_Metal_Only>
0

> <s_lp_Force_Field>
OPLS_2005

> <r_lp_Energy>
23.1471

> <b_lp_Chiralities_Consistent>
1

> <s_lp_Variant>
AV-unprocessed.smi:1952-2

> <Gold.Version>
5.8.1

> <Gold.Id.Protein>
6NUR|6NUR_protein|mol2

> <Gold.PLP.Fitness>
35.0078

> <Gold.PLP.PLP>
-32.3064

> <Gold.PLP.part.hbond>
-1.0000

> <Gold.PLP.part.metal>
0.0000

> <Gold.PLP.part.buried>
-4.7424

> <Gold.PLP.part.nonpolar>
-27.4727

> <Gold.PLP.part.repulsive>
0.3632

> <Gold.PLP.ligand.clash>
0.0000

> <Gold.PLP.ligand.torsion>
0.1663

> <Gold.PLP.Chemscore.Hbond>
1.0000

> <Gold.PLP.Chemscore.CHOScore>
0.0000

> <Gold.PLP.Chemscore.Metal>
0.0000

> <Gold.Chemscore.Hbonds>
donor molecule, donor type, donor heavy atom, donor atom, acceptor molecule, acceptor atom, score
      P1  H  6896  6909       L1    18  1.00

> <Gold.PLP.Chemscore.Internal.Correction>
0.0340

> <Gold.Rescore>
     Score         DG    S(hbond)    S(metal)    S(lipo)     H(rot)  DE(clash)    DE(int)     intcor
     11.58     -13.87       0.82        0.00      82.42       1.56       0.07       2.21       ----

> <Gold.Chemscore.Fitness>
11.5826

> <Gold.Chemscore.DG>
-13.8685

> <Gold.Chemscore.ZeroCoef>
-5.4800

> <Gold.Chemscore.Hbond>
0.8197

> <Gold.Chemscore.Metal>
0.0000

> <Gold.Chemscore.Lipo>
82.4237

> <Gold.Chemscore.Internal_Hbond>
0.0000

> <Gold.Chemscore.DEClash>
0.0734

> <Gold.Chemscore.DEInternal>
2.2125

> <Gold.Chemscore.Rot>
1.5597

> <Gold.Chemscore.Internal.Correction>
   9.000000E+99

> <Gold.Chemscore.Hbonds>
donor molecule, donor type, donor heavy atom, donor atom, acceptor molecule, acceptor atom, score
      P1  H  6896  6909       L1    18  0.22

> <Gold.Chemscore.Hbond.Weighted>
-2.7377

> <Gold.Chemscore.Metal.Weighted>
-0.0000

> <Gold.Chemscore.Lipo.Weighted>
-9.6436

> <Gold.Chemscore.Internal_Hbond.Weighted>
0.0000

> <Gold.Chemscore.DEClash.Weighted>
0.0734

> <Gold.Chemscore.DEInternal.Weighted>
2.2125

> <Gold.Chemscore.Rot.Weighted>
3.9928

> <Gold.Chemscore.Internal.Correction.Weighted>
   9.000000E+99

> <Gold.Protein.RotatedTorsions>
[ 6907 6896 6895 6894 ] final   47.86 input  -60.11 | X-H torsion
[ 7974 7965 7964 7962 ] final -106.65 input  175.53 | X-H torsion
[ 8008 7997 7996 7995 ] final  164.00 input   59.86 | X-H torsion
[ 10167 10162 10161 10158 ] final   39.46 input  -65.29 | X-H torsion
[ 10718 10713 10712 10709 ] final  174.15 input   66.30 | X-H torsion
[ 10763 10752 10751 10750 ] final   62.71 input  -60.55 | X-H torsion
[ 11005 11000 10999 10996 ] final  -22.45 input  -57.11 | X-H torsion

> <Gold.Protein.ActiveResidues>
 VAL166  LYS551  ARG553  GLY616  TRP617  ASP618  TYR619  PRO620  LYS621  CYS622 
 ASP623  PHE694  ASN695  SER759  ASP760  ASP761  ALA762  ILE779  LEU786  VAL792 
 PHE793  MET794  SER795  GLU796  ALA797  LYS798  CYS799  TRP800  GLU811  SER814 

> <Gold.Protein.RotatedAtoms>
  152.2729  134.7913  160.0410 H   0  0  0  0  0  0  0  0  0  0  0  0  # atno 6907 bound_to 6896
  151.8520  133.3436  159.3684 H   0  0  0  0  0  0  0  0  0  0  0  0  # atno 6908 bound_to 6896
  150.7159  134.5218  159.5701 H   0  0  0  0  0  0  0  0  0  0  0  0  # atno 6909 bound_to 6896
  145.2152  140.9112  143.3291 H   0  0  0  0  0  0  0  0  0  0  0  0  # atno 7974 bound_to 7965
  156.1914  140.1708  156.8085 H   0  0  0  0  0  0  0  0  0  0  0  0  # atno 8008 bound_to 7997
  154.5476  140.0724  156.8646 H   0  0  0  0  0  0  0  0  0  0  0  0  # atno 8009 bound_to 7997
  155.3092  140.3366  155.4247 H   0  0  0  0  0  0  0  0  0  0  0  0  # atno 8010 bound_to 7997
  140.3838  144.1944  150.6130 H   0  0  0  0  0  0  0  0  0  0  0  0  # atno 10167 bound_to 10162
  156.9538  131.0039  151.2943 H   0  0  0  0  0  0  0  0  0  0  0  0  # atno 10718 bound_to 10713
  152.9992  135.5455  154.6237 H   0  0  0  0  0  0  0  0  0  0  0  0  # atno 10763 bound_to 10752
  154.5530  135.2828  155.0993 H   0  0  0  0  0  0  0  0  0  0  0  0  # atno 10764 bound_to 10752
  154.2225  135.6448  153.5202 H   0  0  0  0  0  0  0  0  0  0  0  0  # atno 10765 bound_to 10752
  140.8658  133.7755  156.0128 H   0  0  0  0  0  0  0  0  0  0  0  0  # atno 11005 bound_to 11000
  144.9818  139.3776  143.6258 LP  0  0  0  0  0  0  0  0  0  0  0  0  # atno 17320 bound_to 7965
  146.3388  139.8962  142.8801 LP  0  0  0  0  0  0  0  0  0  0  0  0  # atno 17321 bound_to 7965
  140.4910  143.2347  151.8818 LP  0  0  0  0  0  0  0  0  0  0  0  0  # atno 17342 bound_to 10162
  139.4793  144.5165  151.8860 LP  0  0  0  0  0  0  0  0  0  0  0  0  # atno 17343 bound_to 10162
  157.5704  130.8306  149.8384 LP  0  0  0  0  0  0  0  0  0  0  0  0  # atno 17370 bound_to 10713
  156.0351  130.3753  150.1582 LP  0  0  0  0  0  0  0  0  0  0  0  0  # atno 17371 bound_to 10713
  140.8630  134.2817  157.5226 LP  0  0  0  0  0  0  0  0  0  0  0  0  # atno 17394 bound_to 11000
  139.8709  134.9528  156.4126 LP  0  0  0  0  0  0  0  0  0  0  0  0  # atno 17395 bound_to 11000

$$$$
