AV-unprocessed.smi:2931|AV-procd|sdf|11248|dock6
  -GOLD-   2272016143D 1   1.00000     0.00000
 Structure written by MMmdl.
 43 44  0  0  0  0  0  0  0  0  3 V2000
  146.1111  133.7113  150.7367 C   0  0  0  0  0  0  0  0  0  0  0  0
  146.2432  134.8309  151.6933 N   0  3  1  0  0  0  0  0  0  0  0  0
  145.3271  135.9553  151.3775 C   0  0  0  0  0  0  0  0  0  0  0  0
  145.5849  137.1541  152.3058 C   0  0  0  0  0  0  0  0  0  0  0  0
  145.4872  136.7444  153.7850 C   0  0  0  0  0  0  0  0  0  0  0  0
  146.4006  135.5428  154.0887 C   0  0  2  0  0  0  0  0  0  0  0  0
  147.8031  135.9571  154.0410 N   0  0  0  0  0  0  0  0  0  0  0  0
  148.5464  136.2842  155.1071 C   0  0  0  0  0  0  0  0  0  0  0  0
  148.1457  136.2268  156.2690 O   0  0  0  0  0  0  0  0  0  0  0  0
  149.7771  136.6809  154.7554 N   0  0  0  0  0  0  0  0  0  0  0  0
  150.8029  137.1518  155.6827 C   0  0  0  0  0  0  0  0  0  0  0  0
  151.6191  138.3430  155.1410 C   0  0  0  0  0  0  0  0  0  0  0  0
  150.8997  139.6767  155.2484 C   0  0  0  0  0  0  0  0  0  0  0  0
  149.7589  139.9440  154.4588 C   0  0  0  0  0  0  0  0  0  0  0  0
  149.1166  141.1932  154.5792 C   0  0  0  0  0  0  0  0  0  0  0  0
  149.5936  142.1146  155.4447 N   0  3  0  0  0  0  0  0  0  0  0  0
  150.6799  141.8987  156.2185 C   0  0  0  0  0  0  0  0  0  0  0  0
  151.3647  140.6690  156.1394 C   0  0  0  0  0  0  0  0  0  0  0  0
  146.1069  134.3889  153.1042 C   0  0  0  0  0  0  0  0  0  0  0  0
  145.1147  133.2703  150.7857 H   0  0  0  0  0  0  0  0  0  0  0  0
  146.8421  132.9316  150.9530 H   0  0  0  0  0  0  0  0  0  0  0  0
  146.2838  134.0547  149.7163 H   0  0  0  0  0  0  0  0  0  0  0  0
  145.4657  136.2623  150.3400 H   0  0  0  0  0  0  0  0  0  0  0  0
  144.2925  135.6214  151.4733 H   0  0  0  0  0  0  0  0  0  0  0  0
  146.5723  137.5693  152.1005 H   0  0  0  0  0  0  0  0  0  0  0  0
  144.8691  137.9487  152.0936 H   0  0  0  0  0  0  0  0  0  0  0  0
  145.7351  137.5887  154.4296 H   0  0  0  0  0  0  0  0  0  0  0  0
  144.4546  136.4782  154.0150 H   0  0  0  0  0  0  0  0  0  0  0  0
  146.1848  135.2027  155.1032 H   0  0  0  0  0  0  0  0  0  0  0  0
  148.2206  136.0465  153.1260 H   0  0  0  0  0  0  0  0  0  0  0  0
  150.0108  136.6982  153.7733 H   0  0  0  0  0  0  0  0  0  0  0  0
  150.2965  137.4474  156.6019 H   0  0  0  0  0  0  0  0  0  0  0  0
  151.4678  136.3298  155.9521 H   0  0  0  0  0  0  0  0  0  0  0  0
  152.5640  138.4127  155.6810 H   0  0  0  0  0  0  0  0  0  0  0  0
  151.8862  138.1634  154.0990 H   0  0  0  0  0  0  0  0  0  0  0  0
  149.3820  139.2038  153.7677 H   0  0  0  0  0  0  0  0  0  0  0  0
  148.2439  141.4823  154.0119 H   0  0  0  0  0  0  0  0  0  0  0  0
  150.9677  142.7102  156.8710 H   0  0  0  0  0  0  0  0  0  0  0  0
  152.2353  140.4914  156.7540 H   0  0  0  0  0  0  0  0  0  0  0  0
  145.0955  134.0121  153.2656 H   0  0  0  0  0  0  0  0  0  0  0  0
  146.7803  133.5519  153.2936 H   0  0  0  0  0  0  0  0  0  0  0  0
  147.1831  135.1859  151.5929 H   0  0  0  0  0  0  0  0  0  0  0  0
  149.1159  143.0136  155.5148 H   0  0  0  0  0  0  0  0  0  0  0  0
  1  2  1  0  0  0  0
  1 20  1  0  0  0  0
  1 21  1  0  0  0  0
  1 22  1  0  0  0  0
  2 19  1  0  0  0  0
  2  3  1  0  0  0  0
  2 42  1  0  0  0  0
  3  4  1  0  0  0  0
  3 23  1  0  0  0  0
  3 24  1  0  0  0  0
  4  5  1  0  0  0  0
  4 25  1  0  0  0  0
  4 26  1  0  0  0  0
  5  6  1  0  0  0  0
  5 27  1  0  0  0  0
  5 28  1  0  0  0  0
  6  7  1  0  0  0  0
  6 19  1  0  0  0  0
  6 29  1  0  0  0  0
  7  8  1  0  0  0  0
  7 30  1  0  0  0  0
  8  9  2  0  0  0  0
  8 10  1  0  0  0  0
 10 11  1  0  0  0  0
 10 31  1  0  0  0  0
 11 12  1  0  0  0  0
 11 32  1  0  0  0  0
 11 33  1  0  0  0  0
 12 13  1  0  0  0  0
 12 34  1  0  0  0  0
 12 35  1  0  0  0  0
 13 18  1  0  0  0  0
 13 14  2  0  0  0  0
 14 15  1  0  0  0  0
 14 36  1  0  0  0  0
 15 16  2  0  0  0  0
 15 37  1  0  0  0  0
 16 17  1  0  0  0  0
 16 43  1  0  0  0  0
 17 18  2  0  0  0  0
 17 38  1  0  0  0  0
 18 39  1  0  0  0  0
 19 40  1  0  0  0  0
 19 41  1  0  0  0  0
M  CHG  1   2   1
M  CHG  1  16   1
M  END
> <s_m_source_file>
AV-unprocessed.smi

> <i_m_source_file_index>
2931

> <i_lp_mmshare_version>
43012

> <i_f3d_flags>
0

> <s_epik_input>
W0NIM11OMVtDSDJdW0NIMl1bQ0gyXVtDQEhdKFtDSDJdMSlbTkhdQyg9TylbTkhdW0NIMl1bQ0gyXWMyW2NIXVtjSF1uW2NIXVtjSF0y

> <s_epik_cmdline>
J2VwaWtfcHl0aG9uJywgJy1waCcsICc3LjAnLCAnLXRuJywgJzgnLCAnLW1hJywgJzIwMCcsICctbWV0YWxfYmluZGluZycsICctaW1hZScsICc8aW5maWxlLm1hZT4nLCAnLW9tYWUnLCAnPG91dGZpbGUubWFlPic=

> <r_epik_Ionization_Penalty>
1.43754

> <r_epik_Ionization_Penalty_Charging>
1.4375

> <r_epik_Ionization_Penalty_Neutral>
3.7629e-05

> <r_epik_State_Penalty>
1.52008

> <r_epik_Charging_Adjusted_Penalty>
2.95758

> <i_epik_Tot_Q>
2

> <i_epik_Tot_abs_Q>
2

> <r_epik_Metal_State_Penalty>
1.57105

> <b_epik_Metal_Only>
0

> <s_lp_Force_Field>
OPLS_2005

> <r_lp_Energy>
32.3729

> <b_lp_Chiralities_Consistent>
1

> <s_lp_Variant>
AV-unprocessed.smi:2931-7

> <Gold.Version>
5.8.1

> <Gold.Id.Protein>
6NUR|6NUR_protein|mol2

> <Gold.PLP.Fitness>
46.4550

> <Gold.PLP.PLP>
-31.7500

> <Gold.PLP.part.hbond>
-3.8035

> <Gold.PLP.part.metal>
0.0000

> <Gold.PLP.part.buried>
-3.3208

> <Gold.PLP.part.nonpolar>
-25.6304

> <Gold.PLP.part.repulsive>
0.2902

> <Gold.PLP.ligand.clash>
0.0000

> <Gold.PLP.ligand.torsion>
0.5932

> <Gold.PLP.Chemscore.Hbond>
5.2919

> <Gold.PLP.Chemscore.CHOScore>
0.0000

> <Gold.PLP.Chemscore.Metal>
0.0000

> <Gold.Chemscore.Hbonds>
donor molecule, donor type, donor heavy atom, donor atom, acceptor molecule, acceptor atom, score
      L1  H     2    42       P1  7948  2.00
      L1  H     7    30       P1  7948  0.84
      L1  H    10    31       P1  7948  0.44
      L1  H    16    43       P1  8028  2.00

> <Gold.PLP.Chemscore.Internal.Correction>
0.0159

> <Gold.Rescore>
     Score         DG    S(hbond)    S(metal)    S(lipo)     H(rot)  DE(clash)    DE(int)     intcor
     19.22     -19.89       2.99        0.00      73.70       1.65       0.07       0.60       ----

> <Gold.Chemscore.Fitness>
19.2170

> <Gold.Chemscore.DG>
-19.8896

> <Gold.Chemscore.ZeroCoef>
-5.4800

> <Gold.Chemscore.Hbond>
2.9944

> <Gold.Chemscore.Metal>
0.0000

> <Gold.Chemscore.Lipo>
73.7026

> <Gold.Chemscore.Internal_Hbond>
0.0000

> <Gold.Chemscore.DEClash>
0.0695

> <Gold.Chemscore.DEInternal>
0.6032

> <Gold.Chemscore.Rot>
1.6464

> <Gold.Chemscore.Internal.Correction>
   9.000000E+99

> <Gold.Chemscore.Hbonds>
donor molecule, donor type, donor heavy atom, donor atom, acceptor molecule, acceptor atom, score
      L1  H     2    42       P1  7948  0.87
      L1  H     7    30       P1  7948  0.82
      L1  H    10    31       P1  7948  0.11
      L1  H    16    43       P1  8028  1.00

> <Gold.Chemscore.Hbond.Weighted>
-10.0012

> <Gold.Chemscore.Metal.Weighted>
-0.0000

> <Gold.Chemscore.Lipo.Weighted>
-8.6232

> <Gold.Chemscore.Internal_Hbond.Weighted>
0.0000

> <Gold.Chemscore.DEClash.Weighted>
0.0695

> <Gold.Chemscore.DEInternal.Weighted>
0.6032

> <Gold.Chemscore.Rot.Weighted>
4.2148

> <Gold.Chemscore.Internal.Correction.Weighted>
   9.000000E+99

> <Gold.Protein.RotatedTorsions>
[ 6907 6896 6895 6894 ] final -105.80 input  -60.11 | X-H torsion
[ 7974 7965 7964 7962 ] final  -97.32 input  175.53 | X-H torsion
[ 8008 7997 7996 7995 ] final  155.04 input   59.86 | X-H torsion
[ 10167 10162 10161 10158 ] final  -57.94 input  -65.29 | X-H torsion
[ 10718 10713 10712 10709 ] final   93.09 input   66.30 | X-H torsion
[ 10763 10752 10751 10750 ] final -160.22 input  -60.55 | X-H torsion
[ 11005 11000 10999 10996 ] final  -88.15 input  -57.11 | X-H torsion

> <Gold.Protein.ActiveResidues>
 VAL166  LYS551  ARG553  GLY616  TRP617  ASP618  TYR619  PRO620  LYS621  CYS622 
 ASP623  PHE694  ASN695  SER759  ASP760  ASP761  ALA762  ILE779  LEU786  VAL792 
 PHE793  MET794  SER795  GLU796  ALA797  LYS798  CYS799  TRP800  GLU811  SER814 

> <Gold.Protein.RotatedAtoms>
  150.7355  134.0072  159.3657 H   0  0  0  0  0  0  0  0  0  0  0  0  # atno 6907 bound_to 6896
  151.8030  135.0701  160.0412 H   0  0  0  0  0  0  0  0  0  0  0  0  # atno 6908 bound_to 6896
  152.3127  133.5734  159.5728 H   0  0  0  0  0  0  0  0  0  0  0  0  # atno 6909 bound_to 6896
  145.3353  140.9449  143.2638 H   0  0  0  0  0  0  0  0  0  0  0  0  # atno 7974 bound_to 7965
  156.2499  140.1950  156.6740 H   0  0  0  0  0  0  0  0  0  0  0  0  # atno 8008 bound_to 7997
  154.6371  140.0588  156.9828 H   0  0  0  0  0  0  0  0  0  0  0  0  # atno 8009 bound_to 7997
  155.1620  140.3260  155.4412 H   0  0  0  0  0  0  0  0  0  0  0  0  # atno 8010 bound_to 7997
  140.6227  143.2426  151.5439 H   0  0  0  0  0  0  0  0  0  0  0  0  # atno 10167 bound_to 10162
  157.6956  131.0466  150.3980 H   0  0  0  0  0  0  0  0  0  0  0  0  # atno 10718 bound_to 10713
  154.7408  135.3068  154.8731 H   0  0  0  0  0  0  0  0  0  0  0  0  # atno 10763 bound_to 10752
  153.9546  135.6760  153.4748 H   0  0  0  0  0  0  0  0  0  0  0  0  # atno 10764 bound_to 10752
  153.1007  135.4913  154.8787 H   0  0  0  0  0  0  0  0  0  0  0  0  # atno 10765 bound_to 10752
  141.1606  133.7553  156.9410 H   0  0  0  0  0  0  0  0  0  0  0  0  # atno 11005 bound_to 11000
  144.8832  139.4875  143.6713 LP  0  0  0  0  0  0  0  0  0  0  0  0  # atno 17320 bound_to 7965
  146.3029  139.7485  142.9078 LP  0  0  0  0  0  0  0  0  0  0  0  0  # atno 17321 bound_to 7965
  139.5453  144.2538  152.1430 LP  0  0  0  0  0  0  0  0  0  0  0  0  # atno 17342 bound_to 10162
  140.1762  144.4888  150.6553 LP  0  0  0  0  0  0  0  0  0  0  0  0  # atno 17343 bound_to 10162
  156.4377  130.3985  149.6718 LP  0  0  0  0  0  0  0  0  0  0  0  0  # atno 17370 bound_to 10713
  156.3913  130.7628  151.2629 LP  0  0  0  0  0  0  0  0  0  0  0  0  # atno 17371 bound_to 10713
  140.1322  134.9349  157.2352 LP  0  0  0  0  0  0  0  0  0  0  0  0  # atno 17394 bound_to 11000
  140.2939  134.3208  155.7307 LP  0  0  0  0  0  0  0  0  0  0  0  0  # atno 17395 bound_to 11000

$$$$
