AV-unprocessed.smi:1574|AV-procd|sdf|6337|dock4
  -GOLD-   22720 6553D 1   1.00000     0.00000
 Structure written by MMmdl.
 40 41  0  0  0  0  0  0  0  0  1 V2000
  150.5203  140.6846  158.3208 C   0  0  0  0  0  0  0  0  0  0  0  0
  151.4321  141.9167  158.2103 C   0  0  2  0  0  0  0  0  0  0  0  0
  152.4226  142.0039  159.3906 C   0  0  0  0  0  0  0  0  0  0  0  0
  153.3571  143.2164  159.2545 C   0  0  0  0  0  0  0  0  0  0  0  0
  152.5596  144.5198  159.0985 C   0  0  0  0  0  0  0  0  0  0  0  0
  151.5783  144.4324  157.9198 C   0  0  0  0  0  0  0  0  0  0  0  0
  150.6245  143.2266  158.0681 C   0  0  2  0  0  0  0  0  0  0  0  0
  149.8083  143.3539  159.2264 O   0  0  0  0  0  0  0  0  0  0  0  0
  148.4302  143.5916  158.9878 C   0  0  0  0  0  0  0  0  0  0  0  0
  147.8342  144.2985  160.2131 C   0  0  0  0  0  0  0  0  0  0  0  0
  146.8087  145.2628  159.8275 N   0  0  0  0  0  0  0  0  0  0  0  0
  146.6602  146.4873  160.3578 C   0  0  0  0  0  0  0  0  0  0  0  0
  147.3755  146.9330  161.2549 O   0  0  0  0  0  0  0  0  0  0  0  0
  145.5349  147.3481  159.7859 C   0  0  0  0  0  0  0  0  0  0  0  0
  146.0498  148.6038  159.2747 N   0  0  0  0  0  0  0  0  0  0  0  0
  145.9161  149.1862  158.0813 C   0  0  0  0  0  0  0  0  0  0  0  0
  146.5623  150.3409  158.0263 N   0  0  0  0  0  0  0  0  0  0  0  0
  147.1176  150.4517  159.2902 N   0  0  0  0  0  0  0  0  0  0  0  0
  146.8161  149.4242  160.0358 N   0  0  0  0  0  0  0  0  0  0  0  0
  149.9133  140.7159  159.2263 H   0  0  0  0  0  0  0  0  0  0  0  0
  151.1061  139.7654  158.3476 H   0  0  0  0  0  0  0  0  0  0  0  0
  149.8438  140.6193  157.4683 H   0  0  0  0  0  0  0  0  0  0  0  0
  152.0193  141.7945  157.2989 H   0  0  0  0  0  0  0  0  0  0  0  0
  151.8750  142.0718  160.3319 H   0  0  0  0  0  0  0  0  0  0  0  0
  153.0169  141.0915  159.4476 H   0  0  0  0  0  0  0  0  0  0  0  0
  154.0110  143.2809  160.1244 H   0  0  0  0  0  0  0  0  0  0  0  0
  154.0074  143.0811  158.3894 H   0  0  0  0  0  0  0  0  0  0  0  0
  152.0050  144.7214  160.0148 H   0  0  0  0  0  0  0  0  0  0  0  0
  153.2409  145.3595  158.9583 H   0  0  0  0  0  0  0  0  0  0  0  0
  151.0250  145.3656  157.8246 H   0  0  0  0  0  0  0  0  0  0  0  0
  152.1430  144.3301  156.9923 H   0  0  0  0  0  0  0  0  0  0  0  0
  149.9890  143.1531  157.1840 H   0  0  0  0  0  0  0  0  0  0  0  0
  148.2787  144.2030  158.0986 H   0  0  0  0  0  0  0  0  0  0  0  0
  147.9173  142.6428  158.8259 H   0  0  0  0  0  0  0  0  0  0  0  0
  147.3687  143.5608  160.8666 H   0  0  0  0  0  0  0  0  0  0  0  0
  148.6203  144.7769  160.7997 H   0  0  0  0  0  0  0  0  0  0  0  0
  146.1773  144.9856  159.0901 H   0  0  0  0  0  0  0  0  0  0  0  0
  145.0091  146.8184  158.9898 H   0  0  0  0  0  0  0  0  0  0  0  0
  144.8042  147.5628  160.5665 H   0  0  0  0  0  0  0  0  0  0  0  0
  145.3525  148.7673  157.2608 H   0  0  0  0  0  0  0  0  0  0  0  0
  1  2  1  0  0  0  0
  1 20  1  0  0  0  0
  1 21  1  0  0  0  0
  1 22  1  0  0  0  0
  2  7  1  0  0  0  0
  2  3  1  0  0  0  0
  2 23  1  0  0  0  0
  3  4  1  0  0  0  0
  3 24  1  0  0  0  0
  3 25  1  0  0  0  0
  4  5  1  0  0  0  0
  4 26  1  0  0  0  0
  4 27  1  0  0  0  0
  5  6  1  0  0  0  0
  5 28  1  0  0  0  0
  5 29  1  0  0  0  0
  6  7  1  0  0  0  0
  6 30  1  0  0  0  0
  6 31  1  0  0  0  0
  7  8  1  0  0  0  0
  7 32  1  0  0  0  0
  8  9  1  0  0  0  0
  9 10  1  0  0  0  0
  9 33  1  0  0  0  0
  9 34  1  0  0  0  0
 10 11  1  0  0  0  0
 10 35  1  0  0  0  0
 10 36  1  0  0  0  0
 11 12  1  0  0  0  0
 11 37  1  0  0  0  0
 12 13  2  0  0  0  0
 12 14  1  0  0  0  0
 14 15  1  0  0  0  0
 14 38  1  0  0  0  0
 14 39  1  0  0  0  0
 15 19  1  0  0  0  0
 15 16  1  0  0  0  0
 16 17  2  0  0  0  0
 16 40  1  0  0  0  0
 17 18  1  0  0  0  0
 18 19  2  0  0  0  0
M  END
> <s_m_source_file>
AV-unprocessed.smi

> <i_m_source_file_index>
1574

> <i_lp_mmshare_version>
43012

> <i_f3d_flags>
0

> <s_epik_input>
W0NIM11bQ0BASF0xW0NIMl1bQ0gyXVtDSDJdW0NIMl1bQ0BIXTFPW0NIMl1bQ0gyXVtOSF1DKD1PKVtDSDJdbjJbY0hdbm5uMg==

> <s_epik_cmdline>
J2VwaWtfcHl0aG9uJywgJy1waCcsICc3LjAnLCAnLXRuJywgJzgnLCAnLW1hJywgJzIwMCcsICctbWV0YWxfYmluZGluZycsICctaW1hZScsICc8aW5maWxlLm1hZT4nLCAnLW9tYWUnLCAnPG91dGZpbGUubWFlPic=

> <r_lp_tautomer_probability>
1

> <r_epik_Ionization_Penalty>
1.44269e-06

> <r_epik_Ionization_Penalty_Charging>
0

> <r_epik_Ionization_Penalty_Neutral>
1.44269e-06

> <r_epik_State_Penalty>
-0

> <r_epik_Charging_Adjusted_Penalty>
0

> <i_epik_Tot_Q>
0

> <i_epik_Tot_abs_Q>
0

> <r_epik_Metal_State_Penalty>
-0

> <b_epik_Metal_Only>
0

> <s_lp_Force_Field>
OPLS_2005

> <r_lp_Energy>
10.5238

> <b_lp_Chiralities_Consistent>
1

> <s_lp_Variant>
AV-unprocessed.smi:1574-3

> <Gold.Version>
5.8.1

> <Gold.Id.Protein>
6NUR|6NUR_protein|mol2

> <Gold.PLP.Fitness>
40.6463

> <Gold.PLP.PLP>
-43.0687

> <Gold.PLP.part.hbond>
-8.0343

> <Gold.PLP.part.metal>
0.0000

> <Gold.PLP.part.buried>
-4.5621

> <Gold.PLP.part.nonpolar>
-30.5944

> <Gold.PLP.part.repulsive>
0.7561

> <Gold.PLP.ligand.clash>
0.0000

> <Gold.PLP.ligand.torsion>
1.2619

> <Gold.PLP.Chemscore.Hbond>
0.0000

> <Gold.PLP.Chemscore.CHOScore>
0.0000

> <Gold.PLP.Chemscore.Metal>
0.0000

> <Gold.PLP.Chemscore.Internal.Correction>
0.1013

> <Gold.Rescore>
     Score         DG    S(hbond)    S(metal)    S(lipo)     H(rot)  DE(clash)    DE(int)     intcor
      5.41      -7.96       0.00        0.00      84.74       2.90       0.18       2.36       ----

> <Gold.Chemscore.Fitness>
5.4138

> <Gold.Chemscore.DG>
-7.9581

> <Gold.Chemscore.ZeroCoef>
-5.4800

> <Gold.Chemscore.Hbond>
0.0000

> <Gold.Chemscore.Metal>
0.0000

> <Gold.Chemscore.Lipo>
84.7414

> <Gold.Chemscore.Internal_Hbond>
0.0000

> <Gold.Chemscore.DEClash>
0.1822

> <Gold.Chemscore.DEInternal>
2.3621

> <Gold.Chemscore.Rot>
2.9050

> <Gold.Chemscore.Internal.Correction>
   9.000000E+99

> <Gold.Chemscore.Hbond.Weighted>
-0.0000

> <Gold.Chemscore.Metal.Weighted>
-0.0000

> <Gold.Chemscore.Lipo.Weighted>
-9.9147

> <Gold.Chemscore.Internal_Hbond.Weighted>
0.0000

> <Gold.Chemscore.DEClash.Weighted>
0.1822

> <Gold.Chemscore.DEInternal.Weighted>
2.3621

> <Gold.Chemscore.Rot.Weighted>
7.4367

> <Gold.Chemscore.Internal.Correction.Weighted>
   9.000000E+99

> <Gold.Protein.RotatedTorsions>
[ 6907 6896 6895 6894 ] final  115.69 input  -60.11 | X-H torsion
[ 7974 7965 7964 7962 ] final  -34.17 input  175.53 | X-H torsion
[ 8008 7997 7996 7995 ] final  -92.81 input   59.86 | X-H torsion
[ 10167 10162 10161 10158 ] final  -43.41 input  -65.29 | X-H torsion
[ 10718 10713 10712 10709 ] final  177.55 input   66.30 | X-H torsion
[ 10763 10752 10751 10750 ] final  115.59 input  -60.55 | X-H torsion
[ 11005 11000 10999 10996 ] final -133.19 input  -57.11 | X-H torsion

> <Gold.Protein.ActiveResidues>
 VAL166  LYS551  ARG553  GLY616  TRP617  ASP618  TYR619  PRO620  LYS621  CYS622 
 ASP623  PHE694  ASN695  SER759  ASP760  ASP761  ALA762  ILE779  LEU786  VAL792 
 PHE793  MET794  SER795  GLU796  ALA797  LYS798  CYS799  TRP800  GLU811  SER814 

> <Gold.Protein.RotatedAtoms>
  152.4726  133.8064  159.6979 H   0  0  0  0  0  0  0  0  0  0  0  0  # atno 6907 bound_to 6896
  150.8723  133.7478  159.2964 H   0  0  0  0  0  0  0  0  0  0  0  0  # atno 6908 bound_to 6896
  151.5009  135.1065  159.9880 H   0  0  0  0  0  0  0  0  0  0  0  0  # atno 6909 bound_to 6896
  146.0851  140.6006  142.8890 H   0  0  0  0  0  0  0  0  0  0  0  0  # atno 7974 bound_to 7965
  154.7277  140.0505  157.0698 H   0  0  0  0  0  0  0  0  0  0  0  0  # atno 8008 bound_to 7997
  155.0343  140.3161  155.4728 H   0  0  0  0  0  0  0  0  0  0  0  0  # atno 8009 bound_to 7997
  156.2833  140.2144  156.5465 H   0  0  0  0  0  0  0  0  0  0  0  0  # atno 8010 bound_to 7997
  140.6935  143.2984  151.3348 H   0  0  0  0  0  0  0  0  0  0  0  0  # atno 10167 bound_to 10162
  156.9037  130.9887  151.3032 H   0  0  0  0  0  0  0  0  0  0  0  0  # atno 10718 bound_to 10713
  153.5244  135.3591  155.2647 H   0  0  0  0  0  0  0  0  0  0  0  0  # atno 10763 bound_to 10752
  154.8732  135.4053  154.3223 H   0  0  0  0  0  0  0  0  0  0  0  0  # atno 10764 bound_to 10752
  153.3899  135.7071  153.6569 H   0  0  0  0  0  0  0  0  0  0  0  0  # atno 10765 bound_to 10752
  140.9103  134.1576  157.4394 H   0  0  0  0  0  0  0  0  0  0  0  0  # atno 11005 bound_to 11000
  144.7320  140.4700  143.6931 LP  0  0  0  0  0  0  0  0  0  0  0  0  # atno 17320 bound_to 7965
  145.6144  139.1517  143.3057 LP  0  0  0  0  0  0  0  0  0  0  0  0  # atno 17321 bound_to 7965
  139.6362  144.0625  152.2518 LP  0  0  0  0  0  0  0  0  0  0  0  0  # atno 17342 bound_to 10162
  140.0116  144.6220  150.7642 LP  0  0  0  0  0  0  0  0  0  0  0  0  # atno 17343 bound_to 10162
  157.6011  130.8513  149.8803 LP  0  0  0  0  0  0  0  0  0  0  0  0  # atno 17370 bound_to 10713
  156.0570  130.3706  150.1069 LP  0  0  0  0  0  0  0  0  0  0  0  0  # atno 17371 bound_to 10713
  139.8756  134.9933  156.5638 LP  0  0  0  0  0  0  0  0  0  0  0  0  # atno 17394 bound_to 11000
  140.8118  133.8423  155.8817 LP  0  0  0  0  0  0  0  0  0  0  0  0  # atno 17395 bound_to 11000

$$$$
