AV-unprocessed.smi:3330|AV-procd|sdf|12810|dock8
  -GOLD-   2272019173D 1   1.00000     0.00000
 Structure written by MMmdl.
 38 39  0  0  0  0  0  0  0  0  3 V2000
  147.8222  133.2323  153.1235 C   0  0  0  0  0  0  0  0  0  0  0  0
  146.6646  134.2474  153.1027 C   0  0  1  0  0  0  0  0  0  0  0  0
  147.1529  135.5327  153.6510 N   0  3  0  0  0  0  0  0  0  0  0  0
  147.7256  135.4551  155.0094 C   0  0  0  0  0  0  0  0  0  0  0  0
  149.2413  135.2175  154.9476 C   0  0  0  0  0  0  0  0  0  0  0  0
  149.9065  135.7320  156.1470 N   0  0  0  0  0  0  0  0  0  0  0  0
  151.0338  136.4496  156.1364 C   0  0  0  0  0  0  0  0  0  0  0  0
  151.6949  136.8028  155.1598 O   0  0  0  0  0  0  0  0  0  0  0  0
  151.3892  136.7591  157.5719 C   0  0  0  0  0  0  0  0  0  0  0  0
  150.3274  136.1020  158.3007 N   0  5  0  0  0  0  0  0  0  0  0  0
  149.4936  135.5169  157.4104 C   0  0  0  0  0  0  0  0  0  0  0  0
  148.4854  134.8590  157.6663 O   0  0  0  0  0  0  0  0  0  0  0  0
  146.0644  134.4513  151.6840 C   0  0  2  0  0  0  0  0  0  0  0  0
  145.1320  135.6742  151.5914 C   0  0  0  0  0  0  0  0  0  0  0  0
  145.3705  133.2622  151.2053 N   0  0  0  0  0  0  0  0  0  0  0  0
  144.0753  133.1573  150.7405 C   0  0  0  0  0  0  0  0  0  0  0  0
  143.8651  131.8498  150.4079 C   0  0  0  0  0  0  0  0  0  0  0  0
  145.1034  131.2197  150.7128 C   0  0  0  0  0  0  0  0  0  0  0  0
  146.0012  132.0659  151.1904 N   0  0  0  0  0  0  0  0  0  0  0  0
  147.4946  132.2357  152.8271 H   0  0  0  0  0  0  0  0  0  0  0  0
  148.2453  133.1426  154.1247 H   0  0  0  0  0  0  0  0  0  0  0  0
  148.6250  133.5333  152.4497 H   0  0  0  0  0  0  0  0  0  0  0  0
  145.8861  133.8543  153.7594 H   0  0  0  0  0  0  0  0  0  0  0  0
  147.8717  135.8862  153.0361 H   0  0  0  0  0  0  0  0  0  0  0  0
  147.5140  136.3790  155.5486 H   0  0  0  0  0  0  0  0  0  0  0  0
  147.2405  134.6452  155.5562 H   0  0  0  0  0  0  0  0  0  0  0  0
  149.4482  134.1522  154.8315 H   0  0  0  0  0  0  0  0  0  0  0  0
  149.6600  135.6973  154.0612 H   0  0  0  0  0  0  0  0  0  0  0  0
  152.3790  136.3643  157.8028 H   0  0  0  0  0  0  0  0  0  0  0  0
  151.4123  137.8385  157.7250 H   0  0  0  0  0  0  0  0  0  0  0  0
  146.8930  134.6219  150.9948 H   0  0  0  0  0  0  0  0  0  0  0  0
  145.6690  136.6031  151.7834 H   0  0  0  0  0  0  0  0  0  0  0  0
  144.3124  135.6090  152.3080 H   0  0  0  0  0  0  0  0  0  0  0  0
  144.6951  135.7578  150.5957 H   0  0  0  0  0  0  0  0  0  0  0  0
  143.4174  134.0121  150.6846 H   0  0  0  0  0  0  0  0  0  0  0  0
  142.9631  131.4094  150.0094 H   0  0  0  0  0  0  0  0  0  0  0  0
  145.3745  130.1800  150.6026 H   0  0  0  0  0  0  0  0  0  0  0  0
  146.3860  136.1897  153.6584 H   0  0  0  0  0  0  0  0  0  0  0  0
  1  2  1  0  0  0  0
  1 20  1  0  0  0  0
  1 21  1  0  0  0  0
  1 22  1  0  0  0  0
  2  3  1  0  0  0  0
  2 13  1  0  0  0  0
  2 23  1  0  0  0  0
  3  4  1  0  0  0  0
  3 24  1  0  0  0  0
  3 38  1  0  0  0  0
  4  5  1  0  0  0  0
  4 25  1  0  0  0  0
  4 26  1  0  0  0  0
  5  6  1  0  0  0  0
  5 27  1  0  0  0  0
  5 28  1  0  0  0  0
  6 11  1  0  0  0  0
  6  7  1  0  0  0  0
  7  8  2  0  0  0  0
  7  9  1  0  0  0  0
  9 10  1  0  0  0  0
  9 29  1  0  0  0  0
  9 30  1  0  0  0  0
 10 11  1  0  0  0  0
 11 12  2  0  0  0  0
 13 14  1  0  0  0  0
 13 15  1  0  0  0  0
 13 31  1  0  0  0  0
 14 32  1  0  0  0  0
 14 33  1  0  0  0  0
 14 34  1  0  0  0  0
 15 19  1  0  0  0  0
 15 16  1  0  0  0  0
 16 17  2  0  0  0  0
 16 35  1  0  0  0  0
 17 18  1  0  0  0  0
 17 36  1  0  0  0  0
 18 19  2  0  0  0  0
 18 37  1  0  0  0  0
M  CHG  1   3   1
M  CHG  1  10  -1
M  END
> <s_m_source_file>
AV-unprocessed.smi

> <i_m_source_file_index>
3330

> <i_lp_mmshare_version>
43012

> <i_f3d_flags>
0

> <s_epik_input>
bjFbY0hdW2NIXVtjSF1uMVtDQEBIXShbQ0gzXSlbQ0BIXShbQ0gzXSlbTkhdW0NIMl1bQ0gyXU4yQyg9TylbQ0gyXVtOSF1DMj1P

> <s_epik_cmdline>
J2VwaWtfcHl0aG9uJywgJy1waCcsICc3LjAnLCAnLXRuJywgJzgnLCAnLW1hJywgJzIwMCcsICctbWV0YWxfYmluZGluZycsICctaW1hZScsICc8aW5maWxlLm1hZT4nLCAnLW9tYWUnLCAnPG91dGZpbGUubWFlPic=

> <r_lp_tautomer_probability>
1

> <r_epik_Ionization_Penalty>
5.18149

> <r_epik_Ionization_Penalty_Charging>
5.18148

> <r_epik_Ionization_Penalty_Neutral>
9.83265e-06

> <r_epik_State_Penalty>
5.18201

> <r_epik_Charging_Adjusted_Penalty>
10.3635

> <i_epik_Tot_Q>
0

> <i_epik_Tot_abs_Q>
2

> <r_epik_Metal_State_Penalty>
1.25422

> <b_epik_Metal_Only>
1

> <s_lp_Force_Field>
OPLS_2005

> <r_lp_Energy>
16.6991

> <b_lp_Chiralities_Consistent>
1

> <s_lp_Variant>
AV-unprocessed.smi:3330-10

> <Gold.Version>
5.8.1

> <Gold.Id.Protein>
6NUR|6NUR_protein|mol2

> <Gold.PLP.Fitness>
43.5873

> <Gold.PLP.PLP>
-27.5714

> <Gold.PLP.part.hbond>
-3.0000

> <Gold.PLP.part.metal>
0.0000

> <Gold.PLP.part.buried>
-5.2831

> <Gold.PLP.part.nonpolar>
-20.4776

> <Gold.PLP.part.repulsive>
0.2093

> <Gold.PLP.ligand.clash>
0.0000

> <Gold.PLP.ligand.torsion>
0.6990

> <Gold.PLP.Chemscore.Hbond>
4.9840

> <Gold.PLP.Chemscore.CHOScore>
0.7573

> <Gold.PLP.Chemscore.Metal>
0.0000

> <Gold.Chemscore.Hbonds>
donor molecule, donor type, donor heavy atom, donor atom, acceptor molecule, acceptor atom, score
      L1  H     3    24       P1  7948  2.00
      P1  H  6896  6909       L1    10  1.76
      P1  H 10752 10765       L1     8  1.00
      L1  C    16    35       P1 10186  0.60

> <Gold.PLP.Chemscore.Internal.Correction>
0.1901

> <Gold.Rescore>
     Score         DG    S(hbond)    S(metal)    S(lipo)     H(rot)  DE(clash)    DE(int)     intcor
     11.32     -14.57       2.69        0.00      57.49       2.59       0.02       3.23       ----

> <Gold.Chemscore.Fitness>
11.3219

> <Gold.Chemscore.DG>
-14.5747

> <Gold.Chemscore.ZeroCoef>
-5.4800

> <Gold.Chemscore.Hbond>
2.6944

> <Gold.Chemscore.Metal>
0.0000

> <Gold.Chemscore.Lipo>
57.4897

> <Gold.Chemscore.Internal_Hbond>
0.0000

> <Gold.Chemscore.DEClash>
0.0202

> <Gold.Chemscore.DEInternal>
3.2326

> <Gold.Chemscore.Rot>
2.5903

> <Gold.Chemscore.Internal.Correction>
   9.000000E+99

> <Gold.Chemscore.Hbonds>
donor molecule, donor type, donor heavy atom, donor atom, acceptor molecule, acceptor atom, score
      L1  H     3    24       P1  7948  0.99
      P1  H  6896  6909       L1    10  0.64
      P1  H 10752 10765       L1     8  0.95

> <Gold.Chemscore.Hbond.Weighted>
-8.9994

> <Gold.Chemscore.Metal.Weighted>
-0.0000

> <Gold.Chemscore.Lipo.Weighted>
-6.7263

> <Gold.Chemscore.Internal_Hbond.Weighted>
0.0000

> <Gold.Chemscore.DEClash.Weighted>
0.0202

> <Gold.Chemscore.DEInternal.Weighted>
3.2326

> <Gold.Chemscore.Rot.Weighted>
6.6311

> <Gold.Chemscore.Internal.Correction.Weighted>
   9.000000E+99

> <Gold.Protein.RotatedTorsions>
[ 6907 6896 6895 6894 ] final   70.51 input  -60.11 | X-H torsion
[ 7974 7965 7964 7962 ] final   42.07 input  175.53 | X-H torsion
[ 8008 7997 7996 7995 ] final    9.72 input   59.86 | X-H torsion
[ 10167 10162 10161 10158 ] final  -32.85 input  -65.29 | X-H torsion
[ 10718 10713 10712 10709 ] final   23.03 input   66.30 | X-H torsion
[ 10763 10752 10751 10750 ] final  173.97 input  -60.55 | X-H torsion
[ 11005 11000 10999 10996 ] final  173.01 input  -57.11 | X-H torsion

> <Gold.Protein.ActiveResidues>
 VAL166  LYS551  ARG553  GLY616  TRP617  ASP618  TYR619  PRO620  LYS621  CYS622 
 ASP623  PHE694  ASN695  SER759  ASP760  ASP761  ALA762  ILE779  LEU786  VAL792 
 PHE793  MET794  SER795  GLU796  ALA797  LYS798  CYS799  TRP800  GLU811  SER814 

> <Gold.Protein.RotatedAtoms>
  152.4753  134.4858  159.9679 H   0  0  0  0  0  0  0  0  0  0  0  0  # atno 6907 bound_to 6896
  151.4875  133.3526  159.2856 H   0  0  0  0  0  0  0  0  0  0  0  0  # atno 6908 bound_to 6896
  150.8789  134.8203  159.7271 H   0  0  0  0  0  0  0  0  0  0  0  0  # atno 6909 bound_to 6896
  146.0771  139.5343  142.9561 H   0  0  0  0  0  0  0  0  0  0  0  0  # atno 7974 bound_to 7965
  154.7838  140.2823  155.6043 H   0  0  0  0  0  0  0  0  0  0  0  0  # atno 8008 bound_to 7997
  156.2954  140.2618  156.2598 H   0  0  0  0  0  0  0  0  0  0  0  0  # atno 8009 bound_to 7997
  154.9752  140.0375  157.2242 H   0  0  0  0  0  0  0  0  0  0  0  0  # atno 8010 bound_to 7997
  140.7214  143.3664  151.1862 H   0  0  0  0  0  0  0  0  0  0  0  0  # atno 10167 bound_to 10162
  157.1605  130.6715  149.6042 H   0  0  0  0  0  0  0  0  0  0  0  0  # atno 10718 bound_to 10713
  154.4474  135.2764  155.1805 H   0  0  0  0  0  0  0  0  0  0  0  0  # atno 10763 bound_to 10752
  154.3646  135.6122  153.5712 H   0  0  0  0  0  0  0  0  0  0  0  0  # atno 10764 bound_to 10752
  152.9845  135.5842  154.4813 H   0  0  0  0  0  0  0  0  0  0  0  0  # atno 10765 bound_to 10752
  140.3358  134.7318  157.4167 H   0  0  0  0  0  0  0  0  0  0  0  0  # atno 11005 bound_to 11000
  145.6286  141.0308  143.1876 LP  0  0  0  0  0  0  0  0  0  0  0  0  # atno 17320 bound_to 7965
  144.7269  139.7848  143.7362 LP  0  0  0  0  0  0  0  0  0  0  0  0  # atno 17321 bound_to 7965
  139.7227  143.9198  152.2991 LP  0  0  0  0  0  0  0  0  0  0  0  0  # atno 17342 bound_to 10162
  139.8960  144.6938  150.8717 LP  0  0  0  0  0  0  0  0  0  0  0  0  # atno 17343 bound_to 10162
  155.9754  130.4713  150.6460 LP  0  0  0  0  0  0  0  0  0  0  0  0  # atno 17370 bound_to 10713
  157.4136  131.0827  151.1197 LP  0  0  0  0  0  0  0  0  0  0  0  0  # atno 17371 bound_to 10713
  140.0822  134.5716  155.8529 LP  0  0  0  0  0  0  0  0  0  0  0  0  # atno 17394 bound_to 11000
  141.2051  133.6644  156.6163 LP  0  0  0  0  0  0  0  0  0  0  0  0  # atno 17395 bound_to 11000

$$$$
