AV-unprocessed.smi:3183|AV-procd|sdf|12157|dock4
  -GOLD-   2272017593D 1   1.00000     0.00000
 Structure written by MMmdl.
 43 44  0  0  0  0  0  0  0  0  2 V2000
  143.0229  132.7777  151.4820 C   0  0  0  0  0  0  0  0  0  0  0  0
  143.8777  134.0342  151.2487 C   0  0  2  0  0  0  0  0  0  0  0  0
  145.3761  133.7584  151.4803 C   0  0  0  0  0  0  0  0  0  0  0  0
  146.2297  134.9954  151.1605 C   0  0  0  0  0  0  0  0  0  0  0  0
  145.7777  136.2263  151.9668 C   0  0  1  0  0  0  0  0  0  0  0  0
  146.6054  137.3954  151.5944 N   0  3  0  0  0  0  0  0  0  0  0  0
  146.4921  138.5635  152.4929 C   0  0  0  0  0  0  0  0  0  0  0  0
  147.3655  138.3820  153.7429 C   0  0  0  0  0  0  0  0  0  0  0  0
  148.2411  139.5568  154.0574 C   0  0  0  0  0  0  0  0  0  0  0  0
  147.9490  140.8855  154.2069 C   0  0  0  0  0  0  0  0  0  0  0  0
  149.2038  141.4876  154.4983 C   0  0  0  0  0  0  0  0  0  0  0  0
  150.1916  140.6107  154.5276 N   0  0  0  0  0  0  0  0  0  0  0  0
  149.6039  139.4265  154.2563 N   0  0  0  0  0  0  0  0  0  0  0  0
  150.4168  138.2262  154.2132 C   0  0  0  0  0  0  0  0  0  0  0  0
  144.2733  136.4941  151.7344 C   0  0  0  0  0  0  0  0  0  0  0  0
  143.3947  135.2661  152.0559 C   0  0  2  0  0  0  0  0  0  0  0  0
  143.2896  135.0248  153.5757 C   0  0  0  0  0  0  0  0  0  0  0  0
  143.1409  132.3892  152.4938 H   0  0  0  0  0  0  0  0  0  0  0  0
  143.3075  131.9813  150.7935 H   0  0  0  0  0  0  0  0  0  0  0  0
  141.9644  132.9855  151.3229 H   0  0  0  0  0  0  0  0  0  0  0  0
  143.7623  134.2870  150.1934 H   0  0  0  0  0  0  0  0  0  0  0  0
  145.5480  133.4473  152.5111 H   0  0  0  0  0  0  0  0  0  0  0  0
  145.7003  132.9259  150.8545 H   0  0  0  0  0  0  0  0  0  0  0  0
  147.2780  134.7766  151.3677 H   0  0  0  0  0  0  0  0  0  0  0  0
  146.1655  135.2093  150.0925 H   0  0  0  0  0  0  0  0  0  0  0  0
  145.9515  136.0185  153.0234 H   0  0  0  0  0  0  0  0  0  0  0  0
  147.5710  137.0995  151.6095 H   0  0  0  0  0  0  0  0  0  0  0  0
  146.7948  139.4655  151.9614 H   0  0  0  0  0  0  0  0  0  0  0  0
  145.4492  138.6917  152.7863 H   0  0  0  0  0  0  0  0  0  0  0  0
  146.7238  138.1794  154.6012 H   0  0  0  0  0  0  0  0  0  0  0  0
  147.9919  137.4982  153.6162 H   0  0  0  0  0  0  0  0  0  0  0  0
  146.9835  141.3616  154.1222 H   0  0  0  0  0  0  0  0  0  0  0  0
  149.4243  142.5278  154.6887 H   0  0  0  0  0  0  0  0  0  0  0  0
  150.2152  137.6757  153.2942 H   0  0  0  0  0  0  0  0  0  0  0  0
  150.1794  137.5931  155.0683 H   0  0  0  0  0  0  0  0  0  0  0  0
  151.4777  138.4780  154.2438 H   0  0  0  0  0  0  0  0  0  0  0  0
  143.9338  137.3416  152.3299 H   0  0  0  0  0  0  0  0  0  0  0  0
  144.1168  136.7789  150.6928 H   0  0  0  0  0  0  0  0  0  0  0  0
  142.3855  135.5023  151.7153 H   0  0  0  0  0  0  0  0  0  0  0  0
  144.2388  134.7160  154.0122 H   0  0  0  0  0  0  0  0  0  0  0  0
  142.5539  134.2549  153.8078 H   0  0  0  0  0  0  0  0  0  0  0  0
  142.9712  135.9306  154.0920 H   0  0  0  0  0  0  0  0  0  0  0  0
  146.3718  137.6752  150.6523 H   0  0  0  0  0  0  0  0  0  0  0  0
  1  2  1  0  0  0  0
  1 18  1  0  0  0  0
  1 19  1  0  0  0  0
  1 20  1  0  0  0  0
  2 16  1  0  0  0  0
  2  3  1  0  0  0  0
  2 21  1  0  0  0  0
  3  4  1  0  0  0  0
  3 22  1  0  0  0  0
  3 23  1  0  0  0  0
  4  5  1  0  0  0  0
  4 24  1  0  0  0  0
  4 25  1  0  0  0  0
  5  6  1  0  0  0  0
  5 15  1  0  0  0  0
  5 26  1  0  0  0  0
  6  7  1  0  0  0  0
  6 27  1  0  0  0  0
  6 43  1  0  0  0  0
  7  8  1  0  0  0  0
  7 28  1  0  0  0  0
  7 29  1  0  0  0  0
  8  9  1  0  0  0  0
  8 30  1  0  0  0  0
  8 31  1  0  0  0  0
  9 13  1  0  0  0  0
  9 10  2  0  0  0  0
 10 11  1  0  0  0  0
 10 32  1  0  0  0  0
 11 12  2  0  0  0  0
 11 33  1  0  0  0  0
 12 13  1  0  0  0  0
 13 14  1  0  0  0  0
 14 34  1  0  0  0  0
 14 35  1  0  0  0  0
 14 36  1  0  0  0  0
 15 16  1  0  0  0  0
 15 37  1  0  0  0  0
 15 38  1  0  0  0  0
 16 17  1  0  0  0  0
 16 39  1  0  0  0  0
 17 40  1  0  0  0  0
 17 41  1  0  0  0  0
 17 42  1  0  0  0  0
M  CHG  1   6   1
M  END
> <s_m_source_file>
AV-unprocessed.smi

> <i_m_source_file_index>
3183

> <i_lp_mmshare_version>
43012

> <i_f3d_flags>
0

> <s_epik_input>
W0NIM11bQ0BASF0xW0NIMl1bQ0gyXVtDQEhdKFtDSDJdW0NASF0xW0NIM10pW05IXVtDSDJdW0NIMl1jMltjSF1bY0hdbm4yW0NIM10=

> <s_epik_cmdline>
J2VwaWtfcHl0aG9uJywgJy1waCcsICc3LjAnLCAnLXRuJywgJzgnLCAnLW1hJywgJzIwMCcsICctbWV0YWxfYmluZGluZycsICctaW1hZScsICc8aW5maWxlLm1hZT4nLCAnLW9tYWUnLCAnPG91dGZpbGUubWFlPic=

> <r_lp_tautomer_probability>
1

> <r_epik_Ionization_Penalty>
0.000327718

> <r_epik_Ionization_Penalty_Charging>
0.000294043

> <r_epik_Ionization_Penalty_Neutral>
3.36755e-05

> <r_epik_State_Penalty>
-0

> <r_epik_Charging_Adjusted_Penalty>
0.000294043

> <i_epik_Tot_Q>
1

> <i_epik_Tot_abs_Q>
1

> <r_epik_Metal_State_Penalty>
-0

> <b_epik_Metal_Only>
0

> <s_lp_Force_Field>
OPLS_2005

> <r_lp_Energy>
13.9597

> <b_lp_Chiralities_Consistent>
1

> <s_lp_Variant>
AV-unprocessed.smi:3183-5

> <Gold.Version>
5.8.1

> <Gold.Id.Protein>
6NUR|6NUR_protein|mol2

> <Gold.PLP.Fitness>
40.2549

> <Gold.PLP.PLP>
-29.5602

> <Gold.PLP.part.hbond>
-2.0000

> <Gold.PLP.part.metal>
0.0000

> <Gold.PLP.part.buried>
-0.3707

> <Gold.PLP.part.nonpolar>
-28.5184

> <Gold.PLP.part.repulsive>
0.1841

> <Gold.PLP.ligand.clash>
0.0000

> <Gold.PLP.ligand.torsion>
0.5723

> <Gold.PLP.Chemscore.Hbond>
2.9440

> <Gold.PLP.Chemscore.CHOScore>
1.0000

> <Gold.PLP.Chemscore.Metal>
0.0000

> <Gold.Chemscore.Hbonds>
donor molecule, donor type, donor heavy atom, donor atom, acceptor molecule, acceptor atom, score
      L1  H     6    27       P1  7948  2.00
      P1  H  7989  7998       L1    12  0.86
      L1  C    11    33       P1  8028  1.00

> <Gold.PLP.Chemscore.Internal.Correction>
0.0074

> <Gold.Rescore>
     Score         DG    S(hbond)    S(metal)    S(lipo)     H(rot)  DE(clash)    DE(int)     intcor
     16.59     -17.62       1.79        0.00      82.75       1.38       0.44       0.59       ----

> <Gold.Chemscore.Fitness>
16.5915

> <Gold.Chemscore.DG>
-17.6217

> <Gold.Chemscore.ZeroCoef>
-5.4800

> <Gold.Chemscore.Hbond>
1.7919

> <Gold.Chemscore.Metal>
0.0000

> <Gold.Chemscore.Lipo>
82.7474

> <Gold.Chemscore.Internal_Hbond>
0.0000

> <Gold.Chemscore.DEClash>
0.4370

> <Gold.Chemscore.DEInternal>
0.5932

> <Gold.Chemscore.Rot>
1.3768

> <Gold.Chemscore.Internal.Correction>
   9.000000E+99

> <Gold.Chemscore.Hbonds>
donor molecule, donor type, donor heavy atom, donor atom, acceptor molecule, acceptor atom, score
      L1  H     6    27       P1  7948  0.99
      P1  H  7989  7998       L1    12  0.67

> <Gold.Chemscore.Hbond.Weighted>
-5.9850

> <Gold.Chemscore.Metal.Weighted>
-0.0000

> <Gold.Chemscore.Lipo.Weighted>
-9.6814

> <Gold.Chemscore.Internal_Hbond.Weighted>
0.0000

> <Gold.Chemscore.DEClash.Weighted>
0.4370

> <Gold.Chemscore.DEInternal.Weighted>
0.5932

> <Gold.Chemscore.Rot.Weighted>
3.5247

> <Gold.Chemscore.Internal.Correction.Weighted>
   9.000000E+99

> <Gold.Protein.RotatedTorsions>
[ 6907 6896 6895 6894 ] final  -52.58 input  -60.11 | X-H torsion
[ 7974 7965 7964 7962 ] final -167.64 input  175.53 | X-H torsion
[ 8008 7997 7996 7995 ] final  169.83 input   59.86 | X-H torsion
[ 10167 10162 10161 10158 ] final  105.64 input  -65.29 | X-H torsion
[ 10718 10713 10712 10709 ] final  166.71 input   66.30 | X-H torsion
[ 10763 10752 10751 10750 ] final  -96.64 input  -60.55 | X-H torsion
[ 11005 11000 10999 10996 ] final  -84.37 input  -57.11 | X-H torsion

> <Gold.Protein.ActiveResidues>
 VAL166  LYS551  ARG553  GLY616  TRP617  ASP618  TYR619  PRO620  LYS621  CYS622 
 ASP623  PHE694  ASN695  SER759  ASP760  ASP761  ALA762  ILE779  LEU786  VAL792 
 PHE793  MET794  SER795  GLU796  ALA797  LYS798  CYS799  TRP800  GLU811  SER814 

> <Gold.Protein.RotatedAtoms>
  150.8505  134.7828  159.7004 H   0  0  0  0  0  0  0  0  0  0  0  0  # atno 6907 bound_to 6896
  152.4571  134.5265  159.9808 H   0  0  0  0  0  0  0  0  0  0  0  0  # atno 6908 bound_to 6896
  151.5387  133.3398  159.2967 H   0  0  0  0  0  0  0  0  0  0  0  0  # atno 6909 bound_to 6896
  144.7219  140.2489  143.6281 H   0  0  0  0  0  0  0  0  0  0  0  0  # atno 7974 bound_to 7965
  156.1421  140.1554  156.8903 H   0  0  0  0  0  0  0  0  0  0  0  0  # atno 8008 bound_to 7997
  154.4997  140.0828  156.7809 H   0  0  0  0  0  0  0  0  0  0  0  0  # atno 8009 bound_to 7997
  155.4058  140.3416  155.4262 H   0  0  0  0  0  0  0  0  0  0  0  0  # atno 8010 bound_to 7997
  139.7075  144.7083  151.1081 H   0  0  0  0  0  0  0  0  0  0  0  0  # atno 10167 bound_to 10162
  157.0619  131.0342  151.2643 H   0  0  0  0  0  0  0  0  0  0  0  0  # atno 10718 bound_to 10713
  154.7257  135.5076  153.8883 H   0  0  0  0  0  0  0  0  0  0  0  0  # atno 10763 bound_to 10752
  153.0903  135.6657  153.9876 H   0  0  0  0  0  0  0  0  0  0  0  0  # atno 10764 bound_to 10752
  153.9689  135.3040  155.3408 H   0  0  0  0  0  0  0  0  0  0  0  0  # atno 10765 bound_to 10752
  141.1651  133.7342  156.8858 H   0  0  0  0  0  0  0  0  0  0  0  0  # atno 11005 bound_to 11000
  145.8247  139.2059  143.1917 LP  0  0  0  0  0  0  0  0  0  0  0  0  # atno 17320 bound_to 7965
  146.0483  140.8095  142.9794 LP  0  0  0  0  0  0  0  0  0  0  0  0  # atno 17321 bound_to 7965
  140.7725  143.5338  150.9392 LP  0  0  0  0  0  0  0  0  0  0  0  0  # atno 17342 bound_to 10162
  139.9022  143.6822  152.3129 LP  0  0  0  0  0  0  0  0  0  0  0  0  # atno 17343 bound_to 10162
  157.4948  130.7844  149.7544 LP  0  0  0  0  0  0  0  0  0  0  0  0  # atno 17370 bound_to 10713
  155.9976  130.3899  150.2735 LP  0  0  0  0  0  0  0  0  0  0  0  0  # atno 17371 bound_to 10713
  140.1683  134.9117  157.2802 LP  0  0  0  0  0  0  0  0  0  0  0  0  # atno 17394 bound_to 11000
  140.2531  134.3659  155.7434 LP  0  0  0  0  0  0  0  0  0  0  0  0  # atno 17395 bound_to 11000

$$$$
