AV-unprocessed.smi:1252|AV-procd|sdf|5265|dock5
  -GOLD-   22720 4383D 1   1.00000     0.00000
 Structure written by MMmdl.
 43 44  0  0  0  0  0  0  0  0  1 V2000
  145.7462  135.4856  150.9862 C   0  0  0  0  0  0  0  0  0  0  0  0
  146.2143  134.2244  151.7412 C   0  0  1  0  0  0  0  0  0  0  0  0
  146.1988  134.3953  153.2703 C   0  0  0  0  0  0  0  0  0  0  0  0
  145.4536  133.7175  153.9785 O   0  0  0  0  0  0  0  0  0  0  0  0
  147.0370  135.3164  153.7670 N   0  0  0  0  0  0  0  0  0  0  0  0
  147.2321  135.6051  155.1831 C   0  0  0  0  0  0  0  0  0  0  0  0
  148.7419  135.6757  155.5510 C   0  0  0  0  0  0  0  0  0  0  0  0
  148.8365  135.7601  157.0935 C   0  0  0  0  0  0  0  0  0  0  0  0
  149.3549  134.3165  155.1243 C   0  0  0  0  0  0  0  0  0  0  0  0
  149.4213  136.8087  154.8612 N   0  0  0  0  0  0  0  0  0  0  0  0
  148.8289  138.1278  155.1128 C   0  0  0  0  0  0  0  0  0  0  0  0
  149.4960  139.2304  154.2736 C   0  0  0  0  0  0  0  0  0  0  0  0
  150.8929  139.2542  154.5396 O   0  0  0  0  0  0  0  0  0  0  0  0
  151.5204  138.0101  154.2536 C   0  0  0  0  0  0  0  0  0  0  0  0
  150.8685  136.8943  155.0880 C   0  0  0  0  0  0  0  0  0  0  0  0
  145.4519  133.0416  151.3560 N   0  0  0  0  0  0  0  0  0  0  0  0
  145.7965  131.7521  151.3871 C   0  0  0  0  0  0  0  0  0  0  0  0
  144.8276  130.9261  151.0180 N   0  0  0  0  0  0  0  0  0  0  0  0
  143.8396  131.8341  150.7625 C   0  0  0  0  0  0  0  0  0  0  0  0
  144.1568  133.1136  150.9589 N   0  0  0  0  0  0  0  0  0  0  0  0
  146.3845  136.3401  151.2134 H   0  0  0  0  0  0  0  0  0  0  0  0
  144.7224  135.7598  151.2438 H   0  0  0  0  0  0  0  0  0  0  0  0
  145.7843  135.3295  149.9078 H   0  0  0  0  0  0  0  0  0  0  0  0
  147.2515  134.0417  151.4553 H   0  0  0  0  0  0  0  0  0  0  0  0
  147.6082  135.8398  153.1194 H   0  0  0  0  0  0  0  0  0  0  0  0
  146.7135  136.5314  155.4315 H   0  0  0  0  0  0  0  0  0  0  0  0
  146.7406  134.8320  155.7772 H   0  0  0  0  0  0  0  0  0  0  0  0
  148.3409  134.9091  157.5621 H   0  0  0  0  0  0  0  0  0  0  0  0
  148.3569  136.6563  157.4864 H   0  0  0  0  0  0  0  0  0  0  0  0
  149.8680  135.7543  157.4445 H   0  0  0  0  0  0  0  0  0  0  0  0
  148.7591  133.4773  155.4854 H   0  0  0  0  0  0  0  0  0  0  0  0
  150.3570  134.1705  155.5274 H   0  0  0  0  0  0  0  0  0  0  0  0
  149.4194  134.2244  154.0392 H   0  0  0  0  0  0  0  0  0  0  0  0
  147.7665  138.1299  154.8771 H   0  0  0  0  0  0  0  0  0  0  0  0
  148.9200  138.3874  156.1677 H   0  0  0  0  0  0  0  0  0  0  0  0
  149.3220  139.0637  153.2092 H   0  0  0  0  0  0  0  0  0  0  0  0
  149.0701  140.2031  154.5193 H   0  0  0  0  0  0  0  0  0  0  0  0
  151.4413  137.7912  153.1877 H   0  0  0  0  0  0  0  0  0  0  0  0
  152.5827  138.0855  154.4865 H   0  0  0  0  0  0  0  0  0  0  0  0
  151.0754  137.0778  156.1423 H   0  0  0  0  0  0  0  0  0  0  0  0
  151.3597  135.9588  154.8263 H   0  0  0  0  0  0  0  0  0  0  0  0
  146.7737  131.4101  151.6952 H   0  0  0  0  0  0  0  0  0  0  0  0
  142.8545  131.5430  150.4286 H   0  0  0  0  0  0  0  0  0  0  0  0
  1  2  1  0  0  0  0
  1 21  1  0  0  0  0
  1 22  1  0  0  0  0
  1 23  1  0  0  0  0
  2  3  1  0  0  0  0
  2 16  1  0  0  0  0
  2 24  1  0  0  0  0
  3  4  2  0  0  0  0
  3  5  1  0  0  0  0
  5  6  1  0  0  0  0
  5 25  1  0  0  0  0
  6  7  1  0  0  0  0
  6 26  1  0  0  0  0
  6 27  1  0  0  0  0
  7  8  1  0  0  0  0
  7  9  1  0  0  0  0
  7 10  1  0  0  0  0
  8 28  1  0  0  0  0
  8 29  1  0  0  0  0
  8 30  1  0  0  0  0
  9 31  1  0  0  0  0
  9 32  1  0  0  0  0
  9 33  1  0  0  0  0
 10 15  1  0  0  0  0
 10 11  1  0  0  0  0
 11 12  1  0  0  0  0
 11 34  1  0  0  0  0
 11 35  1  0  0  0  0
 12 13  1  0  0  0  0
 12 36  1  0  0  0  0
 12 37  1  0  0  0  0
 13 14  1  0  0  0  0
 14 15  1  0  0  0  0
 14 38  1  0  0  0  0
 14 39  1  0  0  0  0
 15 40  1  0  0  0  0
 15 41  1  0  0  0  0
 16 20  1  0  0  0  0
 16 17  1  0  0  0  0
 17 18  2  0  0  0  0
 17 42  1  0  0  0  0
 18 19  1  0  0  0  0
 19 20  2  0  0  0  0
 19 43  1  0  0  0  0
M  END
> <s_m_source_file>
AV-unprocessed.smi

> <i_m_source_file_index>
1252

> <i_lp_mmshare_version>
43012

> <i_f3d_flags>
0

> <s_epik_input>
bjFbY0hdbltjSF1uMVtDQEhdKFtDSDNdKUMoPU8pW05IXVtDSDJdQyhbQ0gzXSkoW0NIM10pTjJbQ0gyXVtDSDJdT1tDSDJdW0NIMl0y

> <s_epik_cmdline>
J2VwaWtfcHl0aG9uJywgJy1waCcsICc3LjAnLCAnLXRuJywgJzgnLCAnLW1hJywgJzIwMCcsICctbWV0YWxfYmluZGluZycsICctaW1hZScsICc8aW5maWxlLm1hZT4nLCAnLW9tYWUnLCAnPG91dGZpbGUubWFlPic=

> <r_lp_tautomer_probability>
1

> <r_epik_Ionization_Penalty>
0.211373

> <r_epik_Ionization_Penalty_Charging>
0

> <r_epik_Ionization_Penalty_Neutral>
0.211373

> <r_epik_State_Penalty>
0.201459

> <r_epik_Charging_Adjusted_Penalty>
0.201459

> <i_epik_Tot_Q>
0

> <i_epik_Tot_abs_Q>
0

> <r_epik_Metal_State_Penalty>
0.201458

> <b_epik_Metal_Only>
0

> <s_lp_Force_Field>
OPLS_2005

> <r_lp_Energy>
47.0271

> <b_lp_Chiralities_Consistent>
1

> <s_lp_Variant>
AV-unprocessed.smi:1252-2

> <Gold.Version>
5.8.1

> <Gold.Id.Protein>
6NUR|6NUR_protein|mol2

> <Gold.PLP.Fitness>
38.6959

> <Gold.PLP.PLP>
-28.3657

> <Gold.PLP.part.hbond>
-2.3300

> <Gold.PLP.part.metal>
0.0000

> <Gold.PLP.part.buried>
-6.1864

> <Gold.PLP.part.nonpolar>
-22.0876

> <Gold.PLP.part.repulsive>
1.8228

> <Gold.PLP.ligand.clash>
0.0000

> <Gold.PLP.ligand.torsion>
0.8998

> <Gold.PLP.Chemscore.Hbond>
2.0000

> <Gold.PLP.Chemscore.CHOScore>
1.9871

> <Gold.PLP.Chemscore.Metal>
0.0000

> <Gold.Chemscore.Hbonds>
donor molecule, donor type, donor heavy atom, donor atom, acceptor molecule, acceptor atom, score
      L1  H     5    25       P1  7948  1.00
      P1  H  7989  7998       L1    13  0.94
      L1  C    17    42       P1 10747  0.63
      L1  C    19    43       P1 10952  1.00

> <Gold.PLP.Chemscore.Internal.Correction>
0.1683

> <Gold.Rescore>
     Score         DG    S(hbond)    S(metal)    S(lipo)     H(rot)  DE(clash)    DE(int)     intcor
      8.74      -9.87       1.54        0.00      48.73       2.52       0.49       0.64       ----

> <Gold.Chemscore.Fitness>
8.7353

> <Gold.Chemscore.DG>
-9.8735

> <Gold.Chemscore.ZeroCoef>
-5.4800

> <Gold.Chemscore.Hbond>
1.5364

> <Gold.Chemscore.Metal>
0.0000

> <Gold.Chemscore.Lipo>
48.7268

> <Gold.Chemscore.Internal_Hbond>
0.0000

> <Gold.Chemscore.DEClash>
0.4941

> <Gold.Chemscore.DEInternal>
0.6441

> <Gold.Chemscore.Rot>
2.5153

> <Gold.Chemscore.Internal.Correction>
   9.000000E+99

> <Gold.Chemscore.Hbonds>
donor molecule, donor type, donor heavy atom, donor atom, acceptor molecule, acceptor atom, score
      L1  H     5    25       P1  7948  0.99
      P1  H  7989  7998       L1    13  0.45

> <Gold.Chemscore.Hbond.Weighted>
-5.1317

> <Gold.Chemscore.Metal.Weighted>
-0.0000

> <Gold.Chemscore.Lipo.Weighted>
-5.7010

> <Gold.Chemscore.Internal_Hbond.Weighted>
0.0000

> <Gold.Chemscore.DEClash.Weighted>
0.4941

> <Gold.Chemscore.DEInternal.Weighted>
0.6441

> <Gold.Chemscore.Rot.Weighted>
6.4392

> <Gold.Chemscore.Internal.Correction.Weighted>
   9.000000E+99

> <Gold.Protein.RotatedTorsions>
[ 6907 6896 6895 6894 ] final  106.17 input  -60.11 | X-H torsion
[ 7974 7965 7964 7962 ] final   69.87 input  175.53 | X-H torsion
[ 8008 7997 7996 7995 ] final  -14.59 input   59.86 | X-H torsion
[ 10167 10162 10161 10158 ] final   12.05 input  -65.29 | X-H torsion
[ 10718 10713 10712 10709 ] final   17.84 input   66.30 | X-H torsion
[ 10763 10752 10751 10750 ] final  158.57 input  -60.55 | X-H torsion
[ 11005 11000 10999 10996 ] final  136.60 input  -57.11 | X-H torsion

> <Gold.Protein.ActiveResidues>
 VAL166  LYS551  ARG553  GLY616  TRP617  ASP618  TYR619  PRO620  LYS621  CYS622 
 ASP623  PHE694  ASN695  SER759  ASP760  ASP761  ALA762  ILE779  LEU786  VAL792 
 PHE793  MET794  SER795  GLU796  ALA797  LYS798  CYS799  TRP800  GLU811  SER814 

> <Gold.Protein.RotatedAtoms>
  152.5204  133.9421  159.7631 H   0  0  0  0  0  0  0  0  0  0  0  0  # atno 6907 bound_to 6896
  150.9749  133.6297  159.2739 H   0  0  0  0  0  0  0  0  0  0  0  0  # atno 6908 bound_to 6896
  151.3496  135.0887  159.9451 H   0  0  0  0  0  0  0  0  0  0  0  0  # atno 6909 bound_to 6896
  145.7851  139.2906  143.1243 H   0  0  0  0  0  0  0  0  0  0  0  0  # atno 7974 bound_to 7965
  154.5198  140.2219  155.8998 H   0  0  0  0  0  0  0  0  0  0  0  0  # atno 8008 bound_to 7997
  156.1649  140.3134  155.8835 H   0  0  0  0  0  0  0  0  0  0  0  0  # atno 8009 bound_to 7997
  155.3677  140.0465  157.3036 H   0  0  0  0  0  0  0  0  0  0  0  0  # atno 8010 bound_to 7997
  140.6093  143.8441  150.7048 H   0  0  0  0  0  0  0  0  0  0  0  0  # atno 10167 bound_to 10162
  157.0878  130.6415  149.5841 H   0  0  0  0  0  0  0  0  0  0  0  0  # atno 10718 bound_to 10713
  154.2181  135.2783  155.2934 H   0  0  0  0  0  0  0  0  0  0  0  0  # atno 10763 bound_to 10752
  154.5724  135.5614  153.7111 H   0  0  0  0  0  0  0  0  0  0  0  0  # atno 10764 bound_to 10752
  153.0048  135.6324  154.2321 H   0  0  0  0  0  0  0  0  0  0  0  0  # atno 10765 bound_to 10752
  140.0057  134.9460  157.0169 H   0  0  0  0  0  0  0  0  0  0  0  0  # atno 11005 bound_to 11000
  146.0034  140.8500  143.0007 LP  0  0  0  0  0  0  0  0  0  0  0  0  # atno 17320 bound_to 7965
  144.6790  140.2386  143.7346 LP  0  0  0  0  0  0  0  0  0  0  0  0  # atno 17321 bound_to 7965
  140.2006  143.3962  152.1794 LP  0  0  0  0  0  0  0  0  0  0  0  0  # atno 17342 bound_to 10162
  139.5349  144.7199  151.4928 LP  0  0  0  0  0  0  0  0  0  0  0  0  # atno 17343 bound_to 10162
  155.9906  130.4958  150.7264 LP  0  0  0  0  0  0  0  0  0  0  0  0  # atno 17370 bound_to 10713
  157.4746  131.0896  151.0604 LP  0  0  0  0  0  0  0  0  0  0  0  0  # atno 17371 bound_to 10713
  140.4646  134.1449  155.7195 LP  0  0  0  0  0  0  0  0  0  0  0  0  # atno 17394 bound_to 11000
  141.1675  133.8674  157.1671 LP  0  0  0  0  0  0  0  0  0  0  0  0  # atno 17395 bound_to 11000

$$$$
