AV-unprocessed.smi:1251|AV-procd|sdf|5259|dock10
  -GOLD-   22720 4373D 1   1.00000     0.00000
 Structure written by MMmdl.
 39 40  0  0  0  0  0  0  0  0  1 V2000
  151.3164  141.0324  158.4514 C   0  0  0  0  0  0  0  0  0  0  0  0
  150.4138  141.9928  157.6698 C   0  0  0  0  0  0  0  0  0  0  0  0
  150.7819  142.0668  156.1814 C   0  0  0  0  0  0  0  0  0  0  0  0
  150.2933  140.8859  155.4106 C   0  0  0  0  0  0  0  0  0  0  0  0
  151.1221  140.0129  154.8237 N   0  0  0  0  0  0  0  0  0  0  0  0
  150.4420  138.9834  154.1874 N   0  0  0  0  0  0  0  0  0  0  0  0
  149.1184  139.0998  154.3254 C   0  0  0  0  0  0  0  0  0  0  0  0
  148.2966  138.1131  153.7258 N   0  0  0  0  0  0  0  0  0  0  0  0
  147.0394  137.7745  154.0531 C   0  0  0  0  0  0  0  0  0  0  0  0
  146.3790  138.2822  154.9592 O   0  0  0  0  0  0  0  0  0  0  0  0
  146.5835  136.7927  153.2611 N   0  0  0  0  0  0  0  0  0  0  0  0
  145.2583  136.1787  153.3309 C   0  0  1  0  0  0  0  0  0  0  0  0
  144.2044  137.2391  152.9798 C   0  0  0  0  0  0  0  0  0  0  0  0
  145.1789  134.9583  152.3906 C   0  0  1  0  0  0  0  0  0  0  0  0
  143.8715  134.1667  152.4634 C   0  0  0  0  0  0  0  0  0  0  0  0
  143.8647  133.4679  151.1238 C   0  0  0  0  0  0  0  0  0  0  0  0
  144.4412  134.5425  150.2062 C   0  0  0  0  0  0  0  0  0  0  0  0
  145.2633  135.3684  151.0277 O   0  0  0  0  0  0  0  0  0  0  0  0
  148.5842  140.4966  155.2602 S   0  0  0  0  0  0  0  0  0  0  0  0
  151.0319  141.0016  159.5034 H   0  0  0  0  0  0  0  0  0  0  0  0
  152.3607  141.3416  158.3982 H   0  0  0  0  0  0  0  0  0  0  0  0
  151.2461  140.0181  158.0579 H   0  0  0  0  0  0  0  0  0  0  0  0
  149.3762  141.6733  157.7740 H   0  0  0  0  0  0  0  0  0  0  0  0
  150.4769  142.9876  158.1127 H   0  0  0  0  0  0  0  0  0  0  0  0
  150.3627  142.9697  155.7361 H   0  0  0  0  0  0  0  0  0  0  0  0
  151.8646  142.1363  156.0665 H   0  0  0  0  0  0  0  0  0  0  0  0
  148.7148  137.6093  152.9578 H   0  0  0  0  0  0  0  0  0  0  0  0
  147.2043  136.4370  152.5489 H   0  0  0  0  0  0  0  0  0  0  0  0
  145.0582  135.8426  154.3500 H   0  0  0  0  0  0  0  0  0  0  0  0
  143.1956  136.8327  153.0565 H   0  0  0  0  0  0  0  0  0  0  0  0
  144.3367  137.6099  151.9629 H   0  0  0  0  0  0  0  0  0  0  0  0
  144.2639  138.0921  153.6568 H   0  0  0  0  0  0  0  0  0  0  0  0
  146.0125  134.2807  152.5841 H   0  0  0  0  0  0  0  0  0  0  0  0
  143.8363  133.4749  153.3055 H   0  0  0  0  0  0  0  0  0  0  0  0
  143.0166  134.8405  152.5368 H   0  0  0  0  0  0  0  0  0  0  0  0
  144.5269  132.6014  151.1520 H   0  0  0  0  0  0  0  0  0  0  0  0
  142.8736  133.1316  150.8184 H   0  0  0  0  0  0  0  0  0  0  0  0
  145.0089  134.1160  149.3789 H   0  0  0  0  0  0  0  0  0  0  0  0
  143.6435  135.1575  149.7879 H   0  0  0  0  0  0  0  0  0  0  0  0
  1  2  1  0  0  0  0
  1 20  1  0  0  0  0
  1 21  1  0  0  0  0
  1 22  1  0  0  0  0
  2  3  1  0  0  0  0
  2 23  1  0  0  0  0
  2 24  1  0  0  0  0
  3  4  1  0  0  0  0
  3 25  1  0  0  0  0
  3 26  1  0  0  0  0
  4 19  1  0  0  0  0
  4  5  2  0  0  0  0
  5  6  1  0  0  0  0
  6  7  2  0  0  0  0
  7  8  1  0  0  0  0
  7 19  1  0  0  0  0
  8  9  1  0  0  0  0
  8 27  1  0  0  0  0
  9 10  2  0  0  0  0
  9 11  1  0  0  0  0
 11 12  1  0  0  0  0
 11 28  1  0  0  0  0
 12 13  1  0  0  0  0
 12 14  1  0  0  0  0
 12 29  1  0  0  0  0
 13 30  1  0  0  0  0
 13 31  1  0  0  0  0
 13 32  1  0  0  0  0
 14 18  1  0  0  0  0
 14 15  1  0  0  0  0
 14 33  1  0  0  0  0
 15 16  1  0  0  0  0
 15 34  1  0  0  0  0
 15 35  1  0  0  0  0
 16 17  1  0  0  0  0
 16 36  1  0  0  0  0
 16 37  1  0  0  0  0
 17 18  1  0  0  0  0
 17 38  1  0  0  0  0
 17 39  1  0  0  0  0
M  END
> <s_m_source_file>
AV-unprocessed.smi

> <i_m_source_file_index>
1251

> <i_lp_mmshare_version>
43012

> <i_f3d_flags>
0

> <s_epik_input>
W0NIM11bQ0gyXVtDSDJdYzFubmMoczEpW05IXUMoPU8pW05IXVtDQEhdKFtDSDNdKVtDQEBIXTJbQ0gyXVtDSDJdW0NIMl1PMg==

> <s_epik_cmdline>
J2VwaWtfcHl0aG9uJywgJy1waCcsICc3LjAnLCAnLXRuJywgJzgnLCAnLW1hJywgJzIwMCcsICctbWV0YWxfYmluZGluZycsICctaW1hZScsICc8aW5maWxlLm1hZT4nLCAnLW9tYWUnLCAnPG91dGZpbGUubWFlPic=

> <r_lp_tautomer_probability>
1

> <r_epik_Ionization_Penalty>
0.000503621

> <r_epik_Ionization_Penalty_Charging>
0

> <r_epik_Ionization_Penalty_Neutral>
0.000503621

> <r_epik_State_Penalty>
-0

> <r_epik_Charging_Adjusted_Penalty>
0

> <i_epik_Tot_Q>
0

> <i_epik_Tot_abs_Q>
0

> <r_epik_Metal_State_Penalty>
0.219912

> <b_epik_Metal_Only>
0

> <s_lp_Force_Field>
OPLS_2005

> <r_lp_Energy>
11.0911

> <b_lp_Chiralities_Consistent>
1

> <s_lp_Variant>
AV-unprocessed.smi:1251-4

> <Gold.Version>
5.8.1

> <Gold.Id.Protein>
6NUR|6NUR_protein|mol2

> <Gold.PLP.Fitness>
35.4736

> <Gold.PLP.PLP>
-27.0086

> <Gold.PLP.part.hbond>
-3.0532

> <Gold.PLP.part.metal>
0.0000

> <Gold.PLP.part.buried>
-4.7125

> <Gold.PLP.part.nonpolar>
-19.7811

> <Gold.PLP.part.repulsive>
0.5669

> <Gold.PLP.ligand.clash>
0.0000

> <Gold.PLP.ligand.torsion>
0.2673

> <Gold.PLP.Chemscore.Hbond>
2.9920

> <Gold.PLP.Chemscore.CHOScore>
0.0000

> <Gold.PLP.Chemscore.Metal>
0.0000

> <Gold.Chemscore.Hbonds>
donor molecule, donor type, donor heavy atom, donor atom, acceptor molecule, acceptor atom, score
      L1  H     8    27       P1  7948  1.00
      L1  H    11    28       P1  7948  1.00
      P1  H  7989  7998       L1     5  1.00

> <Gold.PLP.Chemscore.Internal.Correction>
0.0236

> <Gold.Rescore>
     Score         DG    S(hbond)    S(metal)    S(lipo)     H(rot)  DE(clash)    DE(int)     intcor
     15.03     -15.44       2.11        0.00      59.49       1.58       0.02       0.38       ----

> <Gold.Chemscore.Fitness>
15.0335

> <Gold.Chemscore.DG>
-15.4395

> <Gold.Chemscore.ZeroCoef>
-5.4800

> <Gold.Chemscore.Hbond>
2.1124

> <Gold.Chemscore.Metal>
0.0000

> <Gold.Chemscore.Lipo>
59.4876

> <Gold.Chemscore.Internal_Hbond>
0.0000

> <Gold.Chemscore.DEClash>
0.0215

> <Gold.Chemscore.DEInternal>
0.3845

> <Gold.Chemscore.Rot>
1.5843

> <Gold.Chemscore.Internal.Correction>
   9.000000E+99

> <Gold.Chemscore.Hbonds>
donor molecule, donor type, donor heavy atom, donor atom, acceptor molecule, acceptor atom, score
      L1  H     8    27       P1  7948  0.99
      L1  H    11    28       P1  7948  0.95
      P1  H  7989  7998       L1     5  0.09

> <Gold.Chemscore.Hbond.Weighted>
-7.0553

> <Gold.Chemscore.Metal.Weighted>
-0.0000

> <Gold.Chemscore.Lipo.Weighted>
-6.9601

> <Gold.Chemscore.Internal_Hbond.Weighted>
0.0000

> <Gold.Chemscore.DEClash.Weighted>
0.0215

> <Gold.Chemscore.DEInternal.Weighted>
0.3845

> <Gold.Chemscore.Rot.Weighted>
4.0558

> <Gold.Chemscore.Internal.Correction.Weighted>
   9.000000E+99

> <Gold.Protein.RotatedTorsions>
[ 6907 6896 6895 6894 ] final   45.44 input  -60.11 | X-H torsion
[ 7974 7965 7964 7962 ] final -127.40 input  175.53 | X-H torsion
[ 8008 7997 7996 7995 ] final -115.01 input   59.86 | X-H torsion
[ 10167 10162 10161 10158 ] final  122.56 input  -65.29 | X-H torsion
[ 10718 10713 10712 10709 ] final  100.35 input   66.30 | X-H torsion
[ 10763 10752 10751 10750 ] final -153.16 input  -60.55 | X-H torsion
[ 11005 11000 10999 10996 ] final   63.99 input  -57.11 | X-H torsion

> <Gold.Protein.ActiveResidues>
 VAL166  LYS551  ARG553  GLY616  TRP617  ASP618  TYR619  PRO620  LYS621  CYS622 
 ASP623  PHE694  ASN695  SER759  ASP760  ASP761  ALA762  ILE779  LEU786  VAL792 
 PHE793  MET794  SER795  GLU796  ALA797  LYS798  CYS799  TRP800  GLU811  SER814 

> <Gold.Protein.RotatedAtoms>
  152.2446  134.8194  160.0454 H   0  0  0  0  0  0  0  0  0  0  0  0  # atno 6907 bound_to 6896
  151.8896  133.3508  159.3802 H   0  0  0  0  0  0  0  0  0  0  0  0  # atno 6908 bound_to 6896
  150.7064  134.4863  159.5538 H   0  0  0  0  0  0  0  0  0  0  0  0  # atno 6909 bound_to 6896
  144.9775  140.7607  143.4633 H   0  0  0  0  0  0  0  0  0  0  0  0  # atno 7974 bound_to 7965
  155.0453  140.0392  157.2524 H   0  0  0  0  0  0  0  0  0  0  0  0  # atno 8008 bound_to 7997
  154.7182  140.2706  155.6542 H   0  0  0  0  0  0  0  0  0  0  0  0  # atno 8009 bound_to 7997
  156.2809  140.2708  156.1845 H   0  0  0  0  0  0  0  0  0  0  0  0  # atno 8010 bound_to 7997
  139.5851  144.7003  151.3429 H   0  0  0  0  0  0  0  0  0  0  0  0  # atno 10167 bound_to 10162
  157.6856  131.0696  150.5087 H   0  0  0  0  0  0  0  0  0  0  0  0  # atno 10718 bound_to 10713
  154.7946  135.3219  154.7696 H   0  0  0  0  0  0  0  0  0  0  0  0  # atno 10763 bound_to 10752
  153.8377  135.6873  153.4811 H   0  0  0  0  0  0  0  0  0  0  0  0  # atno 10764 bound_to 10752
  153.1632  135.4652  154.9742 H   0  0  0  0  0  0  0  0  0  0  0  0  # atno 10765 bound_to 10752
  139.9988  134.6475  155.9965 H   0  0  0  0  0  0  0  0  0  0  0  0  # atno 11005 bound_to 11000
  145.2469  139.2048  143.4963 LP  0  0  0  0  0  0  0  0  0  0  0  0  # atno 17320 bound_to 7965
  146.3399  140.2375  142.8595 LP  0  0  0  0  0  0  0  0  0  0  0  0  # atno 17321 bound_to 7965
  140.7124  143.7355  150.7591 LP  0  0  0  0  0  0  0  0  0  0  0  0  # atno 17342 bound_to 10162
  140.0898  143.4889  152.2485 LP  0  0  0  0  0  0  0  0  0  0  0  0  # atno 17343 bound_to 10162
  156.5405  130.4207  149.6156 LP  0  0  0  0  0  0  0  0  0  0  0  0  # atno 17370 bound_to 10713
  156.2989  130.7166  151.2033 LP  0  0  0  0  0  0  0  0  0  0  0  0  # atno 17371 bound_to 10713
  141.1626  133.6538  156.4369 LP  0  0  0  0  0  0  0  0  0  0  0  0  # atno 17394 bound_to 11000
  140.4767  134.6703  157.5153 LP  0  0  0  0  0  0  0  0  0  0  0  0  # atno 17395 bound_to 11000

$$$$
