AV-unprocessed.smi:994|AV-procd|sdf|4344|dock4
  -GOLD-   22720 2243D 1   1.00000     0.00000
 Structure written by MMmdl.
 37 38  0  0  0  0  0  0  0  0  2 V2000
  151.7088  139.7366  158.5528 O   0  0  0  0  0  0  0  0  0  0  0  0
  151.7578  140.6549  157.7338 C   0  0  0  0  0  0  0  0  0  0  0  0
  151.4080  140.5152  156.4459 N   0  0  0  0  0  0  0  0  0  0  0  0
  150.9457  139.2775  155.8174 C   0  0  1  0  0  0  0  0  0  0  0  0
  150.4394  139.5983  154.3927 C   0  0  0  0  0  0  0  0  0  0  0  0
  149.0988  140.2933  154.3138 C   0  0  0  0  0  0  0  0  0  0  0  0
  148.7341  141.5541  154.7469 C   0  0  0  0  0  0  0  0  0  0  0  0
  147.3933  141.7009  154.4409 N   0  0  0  0  0  0  0  0  0  0  0  0
  147.0003  140.5668  153.8607 C   0  0  0  0  0  0  0  0  0  0  0  0
  147.9752  139.6737  153.7537 N   0  0  0  0  0  0  0  0  0  0  0  0
  152.1153  138.2869  155.7064 C   0  0  0  0  0  0  0  0  0  0  0  0
  151.8671  137.1741  155.1932 O   0  0  0  0  0  0  0  0  0  0  0  0
  153.2346  138.6551  156.1291 O   0  5  0  0  0  0  0  0  0  0  0  0
  152.2230  142.0522  158.1642 C   0  0  0  0  0  0  0  0  0  0  0  0
  152.4936  142.1037  159.6831 C   0  0  0  0  0  0  0  0  0  0  0  0
  152.9411  143.5072  160.1245 C   0  0  0  0  0  0  0  0  0  0  0  0
  151.9122  144.5741  159.7171 C   0  0  0  0  0  0  0  0  0  0  0  0
  151.6328  144.5274  158.2065 C   0  0  0  0  0  0  0  0  0  0  0  0
  151.1852  143.1237  157.7669 C   0  0  0  0  0  0  0  0  0  0  0  0
  146.8202  142.5118  154.6243 H   0  0  0  0  0  0  0  0  0  0  0  0
  151.4965  141.3188  155.8417 H   0  0  0  0  0  0  0  0  0  0  0  0
  150.1409  138.8237  156.3992 H   0  0  0  0  0  0  0  0  0  0  0  0
  151.1666  140.2196  153.8669 H   0  0  0  0  0  0  0  0  0  0  0  0
  150.3543  138.6758  153.8163 H   0  0  0  0  0  0  0  0  0  0  0  0
  149.3036  142.3338  155.2313 H   0  0  0  0  0  0  0  0  0  0  0  0
  145.9922  140.3918  153.5146 H   0  0  0  0  0  0  0  0  0  0  0  0
  153.1574  142.2769  157.6465 H   0  0  0  0  0  0  0  0  0  0  0  0
  151.5956  141.8231  160.2359 H   0  0  0  0  0  0  0  0  0  0  0  0
  153.2602  141.3754  159.9519 H   0  0  0  0  0  0  0  0  0  0  0  0
  153.0898  143.5271  161.2044 H   0  0  0  0  0  0  0  0  0  0  0  0
  153.9071  143.7403  159.6747 H   0  0  0  0  0  0  0  0  0  0  0  0
  150.9828  144.4135  160.2650 H   0  0  0  0  0  0  0  0  0  0  0  0
  152.2707  145.5644  159.9991 H   0  0  0  0  0  0  0  0  0  0  0  0
  150.8674  145.2593  157.9474 H   0  0  0  0  0  0  0  0  0  0  0  0
  152.5321  144.8126  157.6592 H   0  0  0  0  0  0  0  0  0  0  0  0
  151.0293  143.1126  156.6872 H   0  0  0  0  0  0  0  0  0  0  0  0
  150.2185  142.8981  158.2203 H   0  0  0  0  0  0  0  0  0  0  0  0
  1  2  2  0  0  0  0
  2  3  1  0  0  0  0
  2 14  1  0  0  0  0
  3  4  1  0  0  0  0
  3 21  1  0  0  0  0
  4  5  1  0  0  0  0
  4 11  1  0  0  0  0
  4 22  1  0  0  0  0
  5  6  1  0  0  0  0
  5 23  1  0  0  0  0
  5 24  1  0  0  0  0
  6 10  1  0  0  0  0
  6  7  2  0  0  0  0
  7  8  1  0  0  0  0
  7 25  1  0  0  0  0
  8 20  1  0  0  0  0
  8  9  1  0  0  0  0
  9 10  2  0  0  0  0
  9 26  1  0  0  0  0
 11 12  2  0  0  0  0
 11 13  1  0  0  0  0
 14 19  1  0  0  0  0
 14 15  1  0  0  0  0
 14 27  1  0  0  0  0
 15 16  1  0  0  0  0
 15 28  1  0  0  0  0
 15 29  1  0  0  0  0
 16 17  1  0  0  0  0
 16 30  1  0  0  0  0
 16 31  1  0  0  0  0
 17 18  1  0  0  0  0
 17 32  1  0  0  0  0
 17 33  1  0  0  0  0
 18 19  1  0  0  0  0
 18 34  1  0  0  0  0
 18 35  1  0  0  0  0
 19 36  1  0  0  0  0
 19 37  1  0  0  0  0
M  CHG  1  13  -1
M  END
> <s_m_source_file>
AV-unprocessed.smi

> <i_m_source_file_index>
994

> <i_lp_mmshare_version>
43012

> <i_f3d_flags>
0

> <s_epik_input>
W0NIMl0xW0NIMl1bQ0gyXVtDSDJdW0NIMl1bQ0hdMUMoPU8pW05IXVtDQEBIXShDKD1PKVtPSF0pW0NIMl1jMltjSF1bbkhdW2NIXW4y

> <s_epik_cmdline>
J2VwaWtfcHl0aG9uJywgJy1waCcsICc3LjAnLCAnLXRuJywgJzgnLCAnLW1hJywgJzIwMCcsICctbWV0YWxfYmluZGluZycsICctaW1hZScsICc8aW5maWxlLm1hZT4nLCAnLW9tYWUnLCAnPG91dGZpbGUubWFlPic=

> <r_lp_tautomer_probability>
0.5

> <r_epik_Ionization_Penalty>
0.836077

> <r_epik_Ionization_Penalty_Charging>
0.836077

> <r_epik_Ionization_Penalty_Neutral>
7.85059e-08

> <r_epik_State_Penalty>
0.938582

> <r_epik_Charging_Adjusted_Penalty>
1.77466

> <i_epik_Tot_Q>
-1

> <i_epik_Tot_abs_Q>
1

> <r_epik_Metal_State_Penalty>
0.523638

> <b_epik_Metal_Only>
0

> <s_lp_Force_Field>
OPLS_2005

> <r_lp_Energy>
9.68515

> <b_lp_Chiralities_Consistent>
1

> <s_lp_Variant>
AV-unprocessed.smi:994-6

> <Gold.Version>
5.8.1

> <Gold.Id.Protein>
6NUR|6NUR_protein|mol2

> <Gold.PLP.Fitness>
54.4450

> <Gold.PLP.PLP>
-37.0348

> <Gold.PLP.part.hbond>
-2.0000

> <Gold.PLP.part.metal>
0.0000

> <Gold.PLP.part.buried>
-4.7498

> <Gold.PLP.part.nonpolar>
-31.3650

> <Gold.PLP.part.repulsive>
0.4623

> <Gold.PLP.ligand.clash>
0.0000

> <Gold.PLP.ligand.torsion>
0.2868

> <Gold.PLP.Chemscore.Hbond>
3.9840

> <Gold.PLP.Chemscore.CHOScore>
2.0000

> <Gold.PLP.Chemscore.Metal>
0.0000

> <Gold.Chemscore.Hbonds>
donor molecule, donor type, donor heavy atom, donor atom, acceptor molecule, acceptor atom, score
      P1  H  7997  8010       L1    13  2.00
      P1  H 10752 10765       L1    12  1.98
      L1  C     7    25       P1  8028  1.00
      L1  C     9    26       P1 10175  1.00

> <Gold.PLP.Chemscore.Internal.Correction>
0.0317

> <Gold.Rescore>
     Score         DG    S(hbond)    S(metal)    S(lipo)     H(rot)  DE(clash)    DE(int)     intcor
     14.50     -15.82       1.89        0.00      92.67       2.66       0.06       1.26       ----

> <Gold.Chemscore.Fitness>
14.5003

> <Gold.Chemscore.DG>
-15.8230

> <Gold.Chemscore.ZeroCoef>
-5.4800

> <Gold.Chemscore.Hbond>
1.8880

> <Gold.Chemscore.Metal>
0.0000

> <Gold.Chemscore.Lipo>
92.6670

> <Gold.Chemscore.Internal_Hbond>
0.0000

> <Gold.Chemscore.DEClash>
0.0609

> <Gold.Chemscore.DEInternal>
1.2618

> <Gold.Chemscore.Rot>
2.6581

> <Gold.Chemscore.Internal.Correction>
   9.000000E+99

> <Gold.Chemscore.Hbonds>
donor molecule, donor type, donor heavy atom, donor atom, acceptor molecule, acceptor atom, score
      P1  H  7997  8010       L1    13  0.94
      P1  H 10752 10765       L1    12  0.91

> <Gold.Chemscore.Hbond.Weighted>
-6.3058

> <Gold.Chemscore.Metal.Weighted>
-0.0000

> <Gold.Chemscore.Lipo.Weighted>
-10.8420

> <Gold.Chemscore.Internal_Hbond.Weighted>
0.0000

> <Gold.Chemscore.DEClash.Weighted>
0.0609

> <Gold.Chemscore.DEInternal.Weighted>
1.2618

> <Gold.Chemscore.Rot.Weighted>
6.8048

> <Gold.Chemscore.Internal.Correction.Weighted>
   9.000000E+99

> <Gold.Protein.RotatedTorsions>
[ 6907 6896 6895 6894 ] final   88.91 input  -60.11 | X-H torsion
[ 7974 7965 7964 7962 ] final  -17.43 input  175.53 | X-H torsion
[ 8008 7997 7996 7995 ] final   75.79 input   59.86 | X-H torsion
[ 10167 10162 10161 10158 ] final  168.76 input  -65.29 | X-H torsion
[ 10718 10713 10712 10709 ] final -150.80 input   66.30 | X-H torsion
[ 10763 10752 10751 10750 ] final  178.12 input  -60.55 | X-H torsion
[ 11005 11000 10999 10996 ] final -139.51 input  -57.11 | X-H torsion

> <Gold.Protein.ActiveResidues>
 VAL166  LYS551  ARG553  GLY616  TRP617  ASP618  TYR619  PRO620  LYS621  CYS622 
 ASP623  PHE694  ASN695  SER759  ASP760  ASP761  ALA762  ILE779  LEU786  VAL792 
 PHE793  MET794  SER795  GLU796  ALA797  LYS798  CYS799  TRP800  GLU811  SER814 

> <Gold.Protein.RotatedAtoms>
  152.5430  134.2048  159.8726 H   0  0  0  0  0  0  0  0  0  0  0  0  # atno 6907 bound_to 6896
  151.2035  133.4590  159.2604 H   0  0  0  0  0  0  0  0  0  0  0  0  # atno 6908 bound_to 6896
  151.0966  134.9960  159.8484 H   0  0  0  0  0  0  0  0  0  0  0  0  # atno 6909 bound_to 6896
  146.1941  140.3778  142.8447 H   0  0  0  0  0  0  0  0  0  0  0  0  # atno 7974 bound_to 7965
  155.8181  140.3471  155.5497 H   0  0  0  0  0  0  0  0  0  0  0  0  # atno 8008 bound_to 7997
  155.8371  140.0936  157.1777 H   0  0  0  0  0  0  0  0  0  0  0  0  # atno 8009 bound_to 7997
  154.4004  140.1401  156.3671 H   0  0  0  0  0  0  0  0  0  0  0  0  # atno 8010 bound_to 7997
  139.4975  144.3779  151.9654 H   0  0  0  0  0  0  0  0  0  0  0  0  # atno 10167 bound_to 10162
  156.4508  130.8167  151.2398 H   0  0  0  0  0  0  0  0  0  0  0  0  # atno 10718 bound_to 10713
  154.5035  135.2785  155.1401 H   0  0  0  0  0  0  0  0  0  0  0  0  # atno 10763 bound_to 10752
  154.3025  135.6245  153.5434 H   0  0  0  0  0  0  0  0  0  0  0  0  # atno 10764 bound_to 10752
  152.9906  135.5700  154.5484 H   0  0  0  0  0  0  0  0  0  0  0  0  # atno 10765 bound_to 10752
  140.8513  134.2282  157.4759 H   0  0  0  0  0  0  0  0  0  0  0  0  # atno 11005 bound_to 11000
  144.8545  140.7050  143.6147 LP  0  0  0  0  0  0  0  0  0  0  0  0  # atno 17320 bound_to 7965
  145.3700  139.1661  143.4337 LP  0  0  0  0  0  0  0  0  0  0  0  0  # atno 17321 bound_to 7965
  140.3216  144.3421  150.6008 LP  0  0  0  0  0  0  0  0  0  0  0  0  # atno 17342 bound_to 10162
  140.5718  143.2180  151.7585 LP  0  0  0  0  0  0  0  0  0  0  0  0  # atno 17343 bound_to 10162
  157.7503  131.0138  150.3440 LP  0  0  0  0  0  0  0  0  0  0  0  0  # atno 17370 bound_to 10713
  156.3818  130.3882  149.7096 LP  0  0  0  0  0  0  0  0  0  0  0  0  # atno 17371 bound_to 10713
  139.8704  134.9684  156.4631 LP  0  0  0  0  0  0  0  0  0  0  0  0  # atno 17394 bound_to 11000
  140.8787  133.7934  155.9443 LP  0  0  0  0  0  0  0  0  0  0  0  0  # atno 17395 bound_to 11000

$$$$
