AV-unprocessed.smi:2124|AV-procd|sdf|8659|dock3
  -GOLD-   2272011403D 1   1.00000     0.00000
 Structure written by MMmdl.
 47 49  0  0  0  0  0  0  0  0  1 V2000
  148.0819  132.7233  159.5886 C   0  0  0  0  0  0  0  0  0  0  0  0
  148.1257  134.2155  159.3415 C   0  0  0  0  0  0  0  0  0  0  0  0
  148.6216  134.5586  158.0944 N   0  0  0  0  0  0  0  0  0  0  0  0
  148.7010  135.9031  157.7768 C   0  0  0  0  0  0  0  0  0  0  0  0
  149.2483  136.1937  156.3904 C   0  0  0  0  0  0  0  0  0  0  0  0
  148.3068  136.8570  158.6579 C   0  0  0  0  0  0  0  0  0  0  0  0
  148.3661  138.3519  158.3459 C   0  0  0  0  0  0  0  0  0  0  0  0
  149.7647  138.9598  158.2098 C   0  0  0  0  0  0  0  0  0  0  0  0
  150.7639  138.3177  158.5348 O   0  0  0  0  0  0  0  0  0  0  0  0
  149.8160  140.2080  157.7208 N   0  0  0  0  0  0  0  0  0  0  0  0
  151.0346  140.9834  157.4999 C   0  0  1  0  0  0  0  0  0  0  0  0
  151.6245  140.6238  156.1257 C   0  0  0  0  0  0  0  0  0  0  0  0
  150.7260  142.4938  157.6223 C   0  0  2  0  0  0  0  0  0  0  0  0
  151.7375  143.4212  156.9114 C   0  0  0  0  0  0  0  0  0  0  0  0
  152.0860  144.4538  157.9995 C   0  0  2  0  0  0  0  0  0  0  0  0
  152.9976  143.7911  159.0486 C   0  0  0  0  0  0  0  0  0  0  0  0
  152.0278  142.8595  159.7978 C   0  0  0  0  0  0  0  0  0  0  0  0
  150.6943  143.0846  159.0550 C   0  0  1  0  0  0  0  0  0  0  0  0
  150.7704  144.5791  158.7588 C   0  0  0  0  0  0  0  0  0  0  0  0
  147.7796  136.4282  159.9748 C   0  0  0  0  0  0  0  0  0  0  0  0
  147.3939  137.2451  160.8099 O   0  0  0  0  0  0  0  0  0  0  0  0
  147.7235  135.0522  160.2493 N   0  0  0  0  0  0  0  0  0  0  0  0
  148.9250  133.8816  157.4092 H   0  0  0  0  0  0  0  0  0  0  0  0
  147.6346  132.5013  160.5583 H   0  0  0  0  0  0  0  0  0  0  0  0
  149.0895  132.3068  159.5742 H   0  0  0  0  0  0  0  0  0  0  0  0
  147.4892  132.2270  158.8197 H   0  0  0  0  0  0  0  0  0  0  0  0
  148.5363  136.7865  155.8158 H   0  0  0  0  0  0  0  0  0  0  0  0
  149.4444  135.2757  155.8350 H   0  0  0  0  0  0  0  0  0  0  0  0
  150.1838  136.7491  156.4599 H   0  0  0  0  0  0  0  0  0  0  0  0
  147.8475  138.8969  159.1345 H   0  0  0  0  0  0  0  0  0  0  0  0
  147.7978  138.5678  157.4402 H   0  0  0  0  0  0  0  0  0  0  0  0
  148.9436  140.6569  157.4820 H   0  0  0  0  0  0  0  0  0  0  0  0
  151.7745  140.7193  158.2565 H   0  0  0  0  0  0  0  0  0  0  0  0
  152.5531  141.1626  155.9377 H   0  0  0  0  0  0  0  0  0  0  0  0
  150.9313  140.8663  155.3194 H   0  0  0  0  0  0  0  0  0  0  0  0
  151.8497  139.5587  156.0611 H   0  0  0  0  0  0  0  0  0  0  0  0
  149.7420  142.6670  157.1824 H   0  0  0  0  0  0  0  0  0  0  0  0
  152.6256  142.8961  156.5572 H   0  0  0  0  0  0  0  0  0  0  0  0
  151.2736  143.9016  156.0492 H   0  0  0  0  0  0  0  0  0  0  0  0
  152.4833  145.3889  157.6037 H   0  0  0  0  0  0  0  0  0  0  0  0
  153.8274  143.2489  158.5935 H   0  0  0  0  0  0  0  0  0  0  0  0
  153.4163  144.5348  159.7276 H   0  0  0  0  0  0  0  0  0  0  0  0
  152.3537  141.8199  159.7986 H   0  0  0  0  0  0  0  0  0  0  0  0
  151.9384  143.1696  160.8395 H   0  0  0  0  0  0  0  0  0  0  0  0
  149.8193  142.7844  159.6322 H   0  0  0  0  0  0  0  0  0  0  0  0
  150.8446  145.1969  159.6556 H   0  0  0  0  0  0  0  0  0  0  0  0
  149.9472  144.9436  158.1417 H   0  0  0  0  0  0  0  0  0  0  0  0
  1 24  1  0  0  0  0
  1 25  1  0  0  0  0
  1 26  1  0  0  0  0
  1  2  1  0  0  0  0
  2  3  1  0  0  0  0
  2 22  2  0  0  0  0
  3  4  1  0  0  0  0
  3 23  1  0  0  0  0
  4  6  2  0  0  0  0
  4  5  1  0  0  0  0
  5 27  1  0  0  0  0
  5 28  1  0  0  0  0
  5 29  1  0  0  0  0
  6 20  1  0  0  0  0
  6  7  1  0  0  0  0
  7  8  1  0  0  0  0
  7 30  1  0  0  0  0
  7 31  1  0  0  0  0
  8  9  2  0  0  0  0
  8 10  1  0  0  0  0
 10 11  1  0  0  0  0
 10 32  1  0  0  0  0
 11 12  1  0  0  0  0
 11 13  1  0  0  0  0
 11 33  1  0  0  0  0
 12 34  1  0  0  0  0
 12 35  1  0  0  0  0
 12 36  1  0  0  0  0
 13 18  1  0  0  0  0
 13 14  1  0  0  0  0
 13 37  1  0  0  0  0
 14 15  1  0  0  0  0
 14 38  1  0  0  0  0
 14 39  1  0  0  0  0
 15 19  1  0  0  0  0
 15 16  1  0  0  0  0
 15 40  1  0  0  0  0
 16 17  1  0  0  0  0
 16 41  1  0  0  0  0
 16 42  1  0  0  0  0
 17 18  1  0  0  0  0
 17 43  1  0  0  0  0
 17 44  1  0  0  0  0
 18 19  1  0  0  0  0
 18 45  1  0  0  0  0
 19 46  1  0  0  0  0
 19 47  1  0  0  0  0
 20 21  2  0  0  0  0
 20 22  1  0  0  0  0
M  END
> <s_m_source_file>
AV-unprocessed.smi

> <i_m_source_file_index>
2124

> <i_lp_mmshare_version>
43012

> <i_f3d_flags>
0

> <s_epik_input>
W0NIM11jMW5jKFtDSDNdKWMoYyg9TylbbkhdMSlbQ0gyXUMoPU8pW05IXVtDQEhdKFtDSDNdKVtDQEhdKFtDSDJdW0NASF0yMylbQ0BIXShbQ0gyXTMpW0NIMl1bQ0gyXTI=

> <s_epik_cmdline>
J2VwaWtfcHl0aG9uJywgJy1waCcsICc3LjAnLCAnLXRuJywgJzgnLCAnLW1hJywgJzIwMCcsICctbWV0YWxfYmluZGluZycsICctaW1hZScsICc8aW5maWxlLm1hZT4nLCAnLW9tYWUnLCAnPG91dGZpbGUubWFlPic=

> <r_lp_tautomer_probability>
0.156392

> <r_epik_Ionization_Penalty>
0.0139374

> <r_epik_Ionization_Penalty_Charging>
0.0138122

> <r_epik_Ionization_Penalty_Neutral>
0.000125146

> <r_epik_State_Penalty>
1.15342

> <r_epik_Charging_Adjusted_Penalty>
1.16723

> <i_epik_Tot_Q>
0

> <i_epik_Tot_abs_Q>
0

> <r_epik_Metal_State_Penalty>
1.3173

> <b_epik_Metal_Only>
0

> <s_lp_Force_Field>
OPLS_2005

> <r_lp_Energy>
55.6294

> <b_lp_Chiralities_Consistent>
1

> <s_lp_Variant>
AV-unprocessed.smi:2124-10

> <Gold.Version>
5.8.1

> <Gold.Id.Protein>
6NUR|6NUR_protein|mol2

> <Gold.PLP.Fitness>
36.8502

> <Gold.PLP.PLP>
-33.3709

> <Gold.PLP.part.hbond>
-2.0000

> <Gold.PLP.part.metal>
0.0000

> <Gold.PLP.part.buried>
-4.1219

> <Gold.PLP.part.nonpolar>
-28.0817

> <Gold.PLP.part.repulsive>
0.2161

> <Gold.PLP.ligand.clash>
0.0000

> <Gold.PLP.ligand.torsion>
1.0025

> <Gold.PLP.Chemscore.Hbond>
1.8240

> <Gold.PLP.Chemscore.CHOScore>
0.0000

> <Gold.PLP.Chemscore.Metal>
0.0000

> <Gold.Chemscore.Hbonds>
donor molecule, donor type, donor heavy atom, donor atom, acceptor molecule, acceptor atom, score
      P1  H  6931  6943       L1    21  0.42
      P1  H  6934  6947       L1    21  1.00

> <Gold.PLP.Chemscore.Internal.Correction>
0.0122

> <Gold.Rescore>
     Score         DG    S(hbond)    S(metal)    S(lipo)     H(rot)  DE(clash)    DE(int)     intcor
     17.19     -18.58       1.75        0.00      98.12       1.65       0.40       0.99       ----

> <Gold.Chemscore.Fitness>
17.1919

> <Gold.Chemscore.DG>
-18.5827

> <Gold.Chemscore.ZeroCoef>
-5.4800

> <Gold.Chemscore.Hbond>
1.7530

> <Gold.Chemscore.Metal>
0.0000

> <Gold.Chemscore.Lipo>
98.1229

> <Gold.Chemscore.Internal_Hbond>
0.0000

> <Gold.Chemscore.DEClash>
0.3991

> <Gold.Chemscore.DEInternal>
0.9918

> <Gold.Chemscore.Rot>
1.6534

> <Gold.Chemscore.Internal.Correction>
   9.000000E+99

> <Gold.Chemscore.Hbonds>
donor molecule, donor type, donor heavy atom, donor atom, acceptor molecule, acceptor atom, score
      P1  H  6931  6943       L1    21  0.39
      P1  H  6934  6947       L1    21  0.98

> <Gold.Chemscore.Hbond.Weighted>
-5.8549

> <Gold.Chemscore.Metal.Weighted>
-0.0000

> <Gold.Chemscore.Lipo.Weighted>
-11.4804

> <Gold.Chemscore.Internal_Hbond.Weighted>
0.0000

> <Gold.Chemscore.DEClash.Weighted>
0.3991

> <Gold.Chemscore.DEInternal.Weighted>
0.9918

> <Gold.Chemscore.Rot.Weighted>
4.2326

> <Gold.Chemscore.Internal.Correction.Weighted>
   9.000000E+99

> <Gold.Protein.RotatedTorsions>
[ 6907 6896 6895 6894 ] final   48.68 input  -60.11 | X-H torsion
[ 7974 7965 7964 7962 ] final  159.56 input  175.53 | X-H torsion
[ 8008 7997 7996 7995 ] final  -23.87 input   59.86 | X-H torsion
[ 10167 10162 10161 10158 ] final  -27.83 input  -65.29 | X-H torsion
[ 10718 10713 10712 10709 ] final -164.44 input   66.30 | X-H torsion
[ 10763 10752 10751 10750 ] final   86.46 input  -60.55 | X-H torsion
[ 11005 11000 10999 10996 ] final    7.63 input  -57.11 | X-H torsion

> <Gold.Protein.ActiveResidues>
 VAL166  LYS551  ARG553  GLY616  TRP617  ASP618  TYR619  PRO620  LYS621  CYS622 
 ASP623  PHE694  ASN695  SER759  ASP760  ASP761  ALA762  ILE779  LEU786  VAL792 
 PHE793  MET794  SER795  GLU796  ALA797  LYS798  CYS799  TRP800  GLU811  SER814 

> <Gold.Protein.RotatedAtoms>
  152.2823  134.7815  160.0393 H   0  0  0  0  0  0  0  0  0  0  0  0  # atno 6907 bound_to 6896
  151.8390  133.3415  159.3645 H   0  0  0  0  0  0  0  0  0  0  0  0  # atno 6908 bound_to 6896
  150.7195  134.5338  159.5758 H   0  0  0  0  0  0  0  0  0  0  0  0  # atno 6909 bound_to 6896
  144.7784  139.7634  143.6269 H   0  0  0  0  0  0  0  0  0  0  0  0  # atno 7974 bound_to 7965
  154.4561  140.1969  156.0376 H   0  0  0  0  0  0  0  0  0  0  0  0  # atno 8008 bound_to 7997
  156.0748  140.3279  155.7592 H   0  0  0  0  0  0  0  0  0  0  0  0  # atno 8009 bound_to 7997
  155.5206  140.0569  157.2898 H   0  0  0  0  0  0  0  0  0  0  0  0  # atno 8010 bound_to 7997
  140.7274  143.4060  151.1184 H   0  0  0  0  0  0  0  0  0  0  0  0  # atno 10167 bound_to 10162
  156.6391  130.8961  151.2992 H   0  0  0  0  0  0  0  0  0  0  0  0  # atno 10718 bound_to 10713
  153.1573  135.4579  154.9722 H   0  0  0  0  0  0  0  0  0  0  0  0  # atno 10763 bound_to 10752
  154.7871  135.3207  154.7864 H   0  0  0  0  0  0  0  0  0  0  0  0  # atno 10764 bound_to 10752
  153.8360  135.6934  153.4863 H   0  0  0  0  0  0  0  0  0  0  0  0  # atno 10765 bound_to 10752
  140.5460  134.0328  155.7920 H   0  0  0  0  0  0  0  0  0  0  0  0  # atno 11005 bound_to 11000
  146.1977  139.5253  142.9763 LP  0  0  0  0  0  0  0  0  0  0  0  0  # atno 17320 bound_to 7965
  145.6120  141.0338  143.1961 LP  0  0  0  0  0  0  0  0  0  0  0  0  # atno 17321 bound_to 7965
  139.7687  143.8527  152.3116 LP  0  0  0  0  0  0  0  0  0  0  0  0  # atno 17342 bound_to 10162
  139.8438  144.7197  150.9298 LP  0  0  0  0  0  0  0  0  0  0  0  0  # atno 17343 bound_to 10162
  157.7176  130.9517  150.1316 LP  0  0  0  0  0  0  0  0  0  0  0  0  # atno 17370 bound_to 10713
  156.2173  130.3671  149.8597 LP  0  0  0  0  0  0  0  0  0  0  0  0  # atno 17371 bound_to 10713
  141.1199  133.9478  157.2750 LP  0  0  0  0  0  0  0  0  0  0  0  0  # atno 17394 bound_to 11000
  139.9479  135.0181  156.8907 LP  0  0  0  0  0  0  0  0  0  0  0  0  # atno 17395 bound_to 11000

$$$$
