AV-unprocessed.smi:2099|AV-procd|sdf|8571|dock1
  -GOLD-   2272011303D 1   1.00000     0.00000
 Structure written by MMmdl.
 31 32  0  0  0  0  0  0  0  0  2 V2000
  152.8007  143.1750  161.8529 C   0  0  0  0  0  0  0  0  0  0  0  0
  151.9505  143.0859  160.5776 C   0  0  2  0  0  0  0  0  0  0  0  0
  152.1278  141.7262  159.8751 C   0  0  0  0  0  0  0  0  0  0  0  0
  151.2808  141.6340  158.5955 C   0  0  0  0  0  0  0  0  0  0  0  0
  151.5981  142.7893  157.6248 C   0  0  1  0  0  0  0  0  0  0  0  0
  150.7337  142.7297  156.4488 N   0  0  0  0  0  0  0  0  0  0  0  0
  150.4927  141.6449  155.6981 C   0  0  0  0  0  0  0  0  0  0  0  0
  151.0215  140.5679  155.9837 O   0  0  0  0  0  0  0  0  0  0  0  0
  149.6541  141.8751  154.6622 N   0  5  0  0  0  0  0  0  0  0  0  0
  148.6580  141.0127  154.4001 C   0  0  0  0  0  0  0  0  0  0  0  0
  148.7074  139.7240  154.7734 N   0  0  0  0  0  0  0  0  0  0  0  0
  147.5760  139.0063  154.4093 N   0  0  0  0  0  0  0  0  0  0  0  0
  146.6939  139.7786  153.7760 C   0  0  0  0  0  0  0  0  0  0  0  0
  147.1631  141.4529  153.5695 S   0  0  0  0  0  0  0  0  0  0  0  0
  151.4221  144.1486  158.3258 C   0  0  0  0  0  0  0  0  0  0  0  0
  152.2703  144.2368  159.6048 C   0  0  0  0  0  0  0  0  0  0  0  0
  153.8643  143.0940  161.6267 H   0  0  0  0  0  0  0  0  0  0  0  0
  152.5466  142.3765  162.5505 H   0  0  0  0  0  0  0  0  0  0  0  0
  152.6405  144.1236  162.3658 H   0  0  0  0  0  0  0  0  0  0  0  0
  150.9044  143.1771  160.8736 H   0  0  0  0  0  0  0  0  0  0  0  0
  153.1786  141.5744  159.6243 H   0  0  0  0  0  0  0  0  0  0  0  0
  151.8524  140.9172  160.5524 H   0  0  0  0  0  0  0  0  0  0  0  0
  151.4590  140.6738  158.1103 H   0  0  0  0  0  0  0  0  0  0  0  0
  150.2224  141.6536  158.8597 H   0  0  0  0  0  0  0  0  0  0  0  0
  152.6387  142.7076  157.3046 H   0  0  0  0  0  0  0  0  0  0  0  0
  150.2767  143.5879  156.1773 H   0  0  0  0  0  0  0  0  0  0  0  0
  145.7598  139.3609  153.4315 H   0  0  0  0  0  0  0  0  0  0  0  0
  151.6974  144.9569  157.6473 H   0  0  0  0  0  0  0  0  0  0  0  0
  150.3716  144.3016  158.5779 H   0  0  0  0  0  0  0  0  0  0  0  0
  152.0958  145.1969  160.0918 H   0  0  0  0  0  0  0  0  0  0  0  0
  153.3282  144.2134  159.3397 H   0  0  0  0  0  0  0  0  0  0  0  0
  1  2  1  0  0  0  0
  1 17  1  0  0  0  0
  1 18  1  0  0  0  0
  1 19  1  0  0  0  0
  2 16  1  0  0  0  0
  2  3  1  0  0  0  0
  2 20  1  0  0  0  0
  3  4  1  0  0  0  0
  3 21  1  0  0  0  0
  3 22  1  0  0  0  0
  4  5  1  0  0  0  0
  4 23  1  0  0  0  0
  4 24  1  0  0  0  0
  5  6  1  0  0  0  0
  5 15  1  0  0  0  0
  5 25  1  0  0  0  0
  6  7  1  0  0  0  0
  6 26  1  0  0  0  0
  7  8  2  0  0  0  0
  7  9  1  0  0  0  0
  9 10  1  0  0  0  0
 10 14  1  0  0  0  0
 10 11  2  0  0  0  0
 11 12  1  0  0  0  0
 12 13  2  0  0  0  0
 13 14  1  0  0  0  0
 13 27  1  0  0  0  0
 15 16  1  0  0  0  0
 15 28  1  0  0  0  0
 15 29  1  0  0  0  0
 16 30  1  0  0  0  0
 16 31  1  0  0  0  0
M  CHG  1   9  -1
M  END
> <s_m_source_file>
AV-unprocessed.smi

> <i_m_source_file_index>
2099

> <i_lp_mmshare_version>
43012

> <i_f3d_flags>
0

> <s_epik_input>
W0NIM11bQ0BASF0xW0NIMl1bQ0gyXVtDQEhdKFtDSDJdW0NIMl0xKVtOSF1DKD1PKVtOSF1jMm5uW2NIXXMy

> <s_epik_cmdline>
J2VwaWtfcHl0aG9uJywgJy1waCcsICc3LjAnLCAnLXRuJywgJzgnLCAnLW1hJywgJzIwMCcsICctbWV0YWxfYmluZGluZycsICctaW1hZScsICc8aW5maWxlLm1hZT4nLCAnLW9tYWUnLCAnPG91dGZpbGUubWFlPic=

> <r_lp_tautomer_probability>
1

> <r_epik_Ionization_Penalty>
4.54895

> <r_epik_Ionization_Penalty_Charging>
4.4996

> <r_epik_Ionization_Penalty_Neutral>
0.0493438

> <r_epik_State_Penalty>
4.4993

> <r_epik_Charging_Adjusted_Penalty>
8.99891

> <i_epik_Tot_Q>
-1

> <i_epik_Tot_abs_Q>
1

> <r_epik_Metal_State_Penalty>
0.819079

> <b_epik_Metal_Only>
1

> <s_lp_Force_Field>
OPLS_2005

> <r_lp_Energy>
6.68644

> <b_lp_Chiralities_Consistent>
1

> <s_lp_Variant>
AV-unprocessed.smi:2099-3

> <Gold.Version>
5.8.1

> <Gold.Id.Protein>
6NUR|6NUR_protein|mol2

> <Gold.PLP.Fitness>
37.3351

> <Gold.PLP.PLP>
-32.4821

> <Gold.PLP.part.hbond>
-3.0000

> <Gold.PLP.part.metal>
0.0000

> <Gold.PLP.part.buried>
-4.2602

> <Gold.PLP.part.nonpolar>
-26.0523

> <Gold.PLP.part.repulsive>
0.7351

> <Gold.PLP.ligand.clash>
0.0000

> <Gold.PLP.ligand.torsion>
0.6070

> <Gold.PLP.Chemscore.Hbond>
1.0220

> <Gold.PLP.Chemscore.CHOScore>
0.9990

> <Gold.PLP.Chemscore.Metal>
0.0000

> <Gold.Chemscore.Hbonds>
donor molecule, donor type, donor heavy atom, donor atom, acceptor molecule, acceptor atom, score
      L1  H     6    26       P1  8028  1.00
      P1  H  8011  8017       L1     9  0.02
      L1  C    13    27       P1 10175  0.96

> <Gold.PLP.Chemscore.Internal.Correction>
0.0039

> <Gold.Rescore>
     Score         DG    S(hbond)    S(metal)    S(lipo)     H(rot)  DE(clash)    DE(int)     intcor
     13.15     -16.64       1.17        0.00      83.91       1.00       0.14       3.35       ----

> <Gold.Chemscore.Fitness>
13.1513

> <Gold.Chemscore.DG>
-16.6405

> <Gold.Chemscore.ZeroCoef>
-5.4800

> <Gold.Chemscore.Hbond>
1.1686

> <Gold.Chemscore.Metal>
0.0000

> <Gold.Chemscore.Lipo>
83.9106

> <Gold.Chemscore.Internal_Hbond>
0.0000

> <Gold.Chemscore.DEClash>
0.1354

> <Gold.Chemscore.DEInternal>
3.3538

> <Gold.Chemscore.Rot>
1.0000

> <Gold.Chemscore.Internal.Correction>
   9.000000E+99

> <Gold.Chemscore.Hbonds>
donor molecule, donor type, donor heavy atom, donor atom, acceptor molecule, acceptor atom, score
      L1  H     6    26       P1  8028  0.99

> <Gold.Chemscore.Hbond.Weighted>
-3.9030

> <Gold.Chemscore.Metal.Weighted>
-0.0000

> <Gold.Chemscore.Lipo.Weighted>
-9.8175

> <Gold.Chemscore.Internal_Hbond.Weighted>
0.0000

> <Gold.Chemscore.DEClash.Weighted>
0.1354

> <Gold.Chemscore.DEInternal.Weighted>
3.3538

> <Gold.Chemscore.Rot.Weighted>
2.5600

> <Gold.Chemscore.Internal.Correction.Weighted>
   9.000000E+99

> <Gold.Protein.RotatedTorsions>
[ 6907 6896 6895 6894 ] final   60.41 input  -60.11 | X-H torsion
[ 7974 7965 7964 7962 ] final   74.37 input  175.53 | X-H torsion
[ 8008 7997 7996 7995 ] final -106.65 input   59.86 | X-H torsion
[ 10167 10162 10161 10158 ] final  -90.91 input  -65.29 | X-H torsion
[ 10718 10713 10712 10709 ] final   87.60 input   66.30 | X-H torsion
[ 10763 10752 10751 10750 ] final   22.25 input  -60.55 | X-H torsion
[ 11005 11000 10999 10996 ] final   49.47 input  -57.11 | X-H torsion

> <Gold.Protein.ActiveResidues>
 VAL166  LYS551  ARG553  GLY616  TRP617  ASP618  TYR619  PRO620  LYS621  CYS622 
 ASP623  PHE694  ASN695  SER759  ASP760  ASP761  ALA762  ILE779  LEU786  VAL792 
 PHE793  MET794  SER795  GLU796  ALA797  LYS798  CYS799  TRP800  GLU811  SER814 

> <Gold.Protein.RotatedAtoms>
  152.4000  134.6301  160.0073 H   0  0  0  0  0  0  0  0  0  0  0  0  # atno 6907 bound_to 6896
  151.6509  133.3315  159.3160 H   0  0  0  0  0  0  0  0  0  0  0  0  # atno 6908 bound_to 6896
  150.7902  134.6962  159.6569 H   0  0  0  0  0  0  0  0  0  0  0  0  # atno 6909 bound_to 6896
  145.7291  139.2677  143.1552 H   0  0  0  0  0  0  0  0  0  0  0  0  # atno 7974 bound_to 7965
  154.9177  140.0408  157.1981 H   0  0  0  0  0  0  0  0  0  0  0  0  # atno 8008 bound_to 7997
  154.8285  140.2895  155.5717 H   0  0  0  0  0  0  0  0  0  0  0  0  # atno 8009 bound_to 7997
  156.2985  140.2505  156.3206 H   0  0  0  0  0  0  0  0  0  0  0  0  # atno 8010 bound_to 7997
  140.3501  143.2895  151.9735 H   0  0  0  0  0  0  0  0  0  0  0  0  # atno 10167 bound_to 10162
  157.6941  131.0262  150.3147 H   0  0  0  0  0  0  0  0  0  0  0  0  # atno 10718 bound_to 10713
  153.0930  135.6652  153.9817 H   0  0  0  0  0  0  0  0  0  0  0  0  # atno 10763 bound_to 10752
  153.9408  135.2994  155.3444 H   0  0  0  0  0  0  0  0  0  0  0  0  # atno 10764 bound_to 10752
  154.7346  135.5107  153.9094 H   0  0  0  0  0  0  0  0  0  0  0  0  # atno 10765 bound_to 10752
  140.1100  134.4967  155.8686 H   0  0  0  0  0  0  0  0  0  0  0  0  # atno 11005 bound_to 11000
  146.0554  140.8026  142.9761 LP  0  0  0  0  0  0  0  0  0  0  0  0  # atno 17320 bound_to 7965
  144.6897  140.3117  143.7247 LP  0  0  0  0  0  0  0  0  0  0  0  0  # atno 17321 bound_to 7965
  139.4827  144.6083  151.7481 LP  0  0  0  0  0  0  0  0  0  0  0  0  # atno 17342 bound_to 10162
  140.5227  144.0854  150.6027 LP  0  0  0  0  0  0  0  0  0  0  0  0  # atno 17343 bound_to 10162
  156.3643  130.3852  149.7226 LP  0  0  0  0  0  0  0  0  0  0  0  0  # atno 17370 bound_to 10713
  156.4661  130.7975  151.2994 LP  0  0  0  0  0  0  0  0  0  0  0  0  # atno 17371 bound_to 10713
  141.2128  133.6724  156.6686 LP  0  0  0  0  0  0  0  0  0  0  0  0  # atno 17394 bound_to 11000
  140.3104  134.8091  157.4171 LP  0  0  0  0  0  0  0  0  0  0  0  0  # atno 17395 bound_to 11000

$$$$
