AV-unprocessed.smi:652|AV-procd|sdf|3200|dock10
  -GOLD-   22720 0133D 1   1.00000     0.00000
 Structure written by MMmdl.
 49 50  0  0  0  0  0  0  0  0  3 V2000
  148.8700  132.2924  153.8766 C   0  0  0  0  0  0  0  0  0  0  0  0
  147.7686  133.3118  153.5567 C   0  0  0  0  0  0  0  0  0  0  0  0
  147.4673  133.3652  152.0503 C   0  0  0  0  0  0  0  0  0  0  0  0
  148.1692  134.6282  154.0460 N   0  0  0  0  0  0  0  0  0  0  0  0
  148.2305  134.9934  155.3362 C   0  0  0  0  0  0  0  0  0  0  0  0
  147.9536  134.2385  156.2685 O   0  0  0  0  0  0  0  0  0  0  0  0
  148.6755  136.4309  155.6187 C   0  0  0  0  0  0  0  0  0  0  0  0
  147.7759  137.4674  154.9167 C   0  0  0  0  0  0  0  0  0  0  0  0
  148.5183  138.2691  153.9078 N   0  3  1  0  0  0  0  0  0  0  0  0
  147.6650  139.2357  153.1751 C   0  0  0  0  0  0  0  0  0  0  0  0
  147.3741  140.4799  154.0324 C   0  0  0  0  0  0  0  0  0  0  0  0
  148.6040  141.0741  154.4300 O   0  0  0  0  0  0  0  0  0  0  0  0
  149.3944  140.2095  155.2407 C   0  0  2  0  0  0  0  0  0  0  0  0
  150.6597  140.9747  155.6559 C   0  0  0  0  0  0  0  0  0  0  0  0
  150.3378  142.2647  156.2479 N   0  0  0  0  0  0  0  0  0  0  0  0
  150.9076  142.6451  157.4702 C   0  0  0  0  0  0  0  0  0  0  0  0
  151.8110  141.8448  158.2078 C   0  0  0  0  0  0  0  0  0  0  0  0
  152.3126  142.3499  159.4194 C   0  0  0  0  0  0  0  0  0  0  0  0
  151.8808  143.6261  159.8217 C   0  0  0  0  0  0  0  0  0  0  0  0
  151.0148  144.3751  159.1032 N   0  0  0  0  0  0  0  0  0  0  0  0
  150.5521  143.8638  157.9485 N   0  3  0  0  0  0  0  0  0  0  0  0
  149.7383  138.9428  154.4238 C   0  0  0  0  0  0  0  0  0  0  0  0
  148.5845  131.2923  153.5491 H   0  0  0  0  0  0  0  0  0  0  0  0
  149.0626  132.2443  154.9490 H   0  0  0  0  0  0  0  0  0  0  0  0
  149.8067  132.5494  153.3807 H   0  0  0  0  0  0  0  0  0  0  0  0
  146.8640  132.9985  154.0814 H   0  0  0  0  0  0  0  0  0  0  0  0
  147.1666  132.3859  151.6771 H   0  0  0  0  0  0  0  0  0  0  0  0
  148.3415  133.6831  151.4811 H   0  0  0  0  0  0  0  0  0  0  0  0
  146.6561  134.0603  151.8314 H   0  0  0  0  0  0  0  0  0  0  0  0
  148.4173  135.3131  153.3466 H   0  0  0  0  0  0  0  0  0  0  0  0
  148.6676  136.5748  156.6989 H   0  0  0  0  0  0  0  0  0  0  0  0
  149.7086  136.5607  155.2915 H   0  0  0  0  0  0  0  0  0  0  0  0
  146.9727  136.9285  154.4112 H   0  0  0  0  0  0  0  0  0  0  0  0
  147.2920  138.1193  155.6440 H   0  0  0  0  0  0  0  0  0  0  0  0
  148.1906  139.5389  152.2686 H   0  0  0  0  0  0  0  0  0  0  0  0
  146.7383  138.7641  152.8466 H   0  0  0  0  0  0  0  0  0  0  0  0
  146.8037  141.2071  153.4544 H   0  0  0  0  0  0  0  0  0  0  0  0
  146.7727  140.2290  154.9075 H   0  0  0  0  0  0  0  0  0  0  0  0
  148.8385  139.9359  156.1389 H   0  0  0  0  0  0  0  0  0  0  0  0
  151.2138  140.3892  156.3908 H   0  0  0  0  0  0  0  0  0  0  0  0
  151.3124  141.1150  154.7934 H   0  0  0  0  0  0  0  0  0  0  0  0
  149.8809  142.9598  155.6747 H   0  0  0  0  0  0  0  0  0  0  0  0
  152.1186  140.8674  157.8673 H   0  0  0  0  0  0  0  0  0  0  0  0
  153.0052  141.7800  160.0211 H   0  0  0  0  0  0  0  0  0  0  0  0
  152.2380  144.0591  160.7447 H   0  0  0  0  0  0  0  0  0  0  0  0
  150.3428  138.2556  155.0144 H   0  0  0  0  0  0  0  0  0  0  0  0
  150.3522  139.2227  153.5667 H   0  0  0  0  0  0  0  0  0  0  0  0
  148.8272  137.5994  153.2173 H   0  0  0  0  0  0  0  0  0  0  0  0
  149.8985  144.4240  157.4009 H   0  0  0  0  0  0  0  0  0  0  0  0
  1  2  1  0  0  0  0
  1 23  1  0  0  0  0
  1 24  1  0  0  0  0
  1 25  1  0  0  0  0
  2  3  1  0  0  0  0
  2  4  1  0  0  0  0
  2 26  1  0  0  0  0
  3 27  1  0  0  0  0
  3 28  1  0  0  0  0
  3 29  1  0  0  0  0
  4  5  1  0  0  0  0
  4 30  1  0  0  0  0
  5  6  2  0  0  0  0
  5  7  1  0  0  0  0
  7  8  1  0  0  0  0
  7 31  1  0  0  0  0
  7 32  1  0  0  0  0
  8  9  1  0  0  0  0
  8 33  1  0  0  0  0
  8 34  1  0  0  0  0
  9 22  1  0  0  0  0
  9 10  1  0  0  0  0
  9 48  1  0  0  0  0
 10 11  1  0  0  0  0
 10 35  1  0  0  0  0
 10 36  1  0  0  0  0
 11 12  1  0  0  0  0
 11 37  1  0  0  0  0
 11 38  1  0  0  0  0
 12 13  1  0  0  0  0
 13 14  1  0  0  0  0
 13 22  1  0  0  0  0
 13 39  1  0  0  0  0
 14 15  1  0  0  0  0
 14 40  1  0  0  0  0
 14 41  1  0  0  0  0
 15 16  1  0  0  0  0
 15 42  1  0  0  0  0
 16 21  1  0  0  0  0
 16 17  2  0  0  0  0
 17 18  1  0  0  0  0
 17 43  1  0  0  0  0
 18 19  2  0  0  0  0
 18 44  1  0  0  0  0
 19 20  1  0  0  0  0
 19 45  1  0  0  0  0
 20 21  2  0  0  0  0
 21 49  1  0  0  0  0
 22 46  1  0  0  0  0
 22 47  1  0  0  0  0
M  CHG  1   9   1
M  CHG  1  21   1
M  END
> <s_m_source_file>
AV-unprocessed.smi

> <i_m_source_file_index>
652

> <i_lp_mmshare_version>
43012

> <i_f3d_flags>
0

> <s_epik_input>
W0NIM11bQ0hdKFtDSDNdKVtOSF1DKD1PKVtDSDJdW0NIMl1OMVtDSDJdW0NIMl1PW0NASF0oW0NIMl0xKVtDSDJdW05IXWMyW2NIXVtjSF1bY0hdbm4y

> <s_epik_cmdline>
J2VwaWtfcHl0aG9uJywgJy1waCcsICc3LjAnLCAnLXRuJywgJzgnLCAnLW1hJywgJzIwMCcsICctbWV0YWxfYmluZGluZycsICctaW1hZScsICc8aW5maWxlLm1hZT4nLCAnLW9tYWUnLCAnPG91dGZpbGUubWFlPic=

> <r_lp_tautomer_probability>
0.966961

> <r_epik_Ionization_Penalty>
2.79885

> <r_epik_Ionization_Penalty_Charging>
2.79884

> <r_epik_Ionization_Penalty_Neutral>
3.2567e-06

> <r_epik_State_Penalty>
2.43203

> <r_epik_Charging_Adjusted_Penalty>
5.23087

> <i_epik_Tot_Q>
2

> <i_epik_Tot_abs_Q>
2

> <r_epik_Metal_State_Penalty>
2.43963

> <b_epik_Metal_Only>
0

> <s_lp_Force_Field>
OPLS_2005

> <r_lp_Energy>
31.8364

> <b_lp_Chiralities_Consistent>
1

> <s_lp_Variant>
AV-unprocessed.smi:652-9

> <Gold.Version>
5.8.1

> <Gold.Id.Protein>
6NUR|6NUR_protein|mol2

> <Gold.PLP.Fitness>
55.3279

> <Gold.PLP.PLP>
-35.8863

> <Gold.PLP.part.hbond>
-4.0000

> <Gold.PLP.part.metal>
0.0000

> <Gold.PLP.part.buried>
-3.8488

> <Gold.PLP.part.nonpolar>
-27.7037

> <Gold.PLP.part.repulsive>
0.3730

> <Gold.PLP.ligand.clash>
0.0000

> <Gold.PLP.ligand.torsion>
0.6249

> <Gold.PLP.Chemscore.Hbond>
6.8720

> <Gold.PLP.Chemscore.CHOScore>
0.0000

> <Gold.PLP.Chemscore.Metal>
0.0000

> <Gold.Chemscore.Hbonds>
donor molecule, donor type, donor heavy atom, donor atom, acceptor molecule, acceptor atom, score
      L1  H     4    30       P1  7948  1.00
      L1  H     9    48       P1  7948  2.00
      L1  H    15    42       P1  8028  1.86
      L1  H    21    49       P1  8028  2.00

> <Gold.PLP.Chemscore.Internal.Correction>
0.0755

> <Gold.Rescore>
     Score         DG    S(hbond)    S(metal)    S(lipo)     H(rot)  DE(clash)    DE(int)     intcor
     19.30     -19.97       3.21        0.00      83.33       2.33       0.12       0.55       ----

> <Gold.Chemscore.Fitness>
19.3000

> <Gold.Chemscore.DG>
-19.9671

> <Gold.Chemscore.ZeroCoef>
-5.4800

> <Gold.Chemscore.Hbond>
3.2061

> <Gold.Chemscore.Metal>
0.0000

> <Gold.Chemscore.Lipo>
83.3341

> <Gold.Chemscore.Internal_Hbond>
0.0000

> <Gold.Chemscore.DEClash>
0.1160

> <Gold.Chemscore.DEInternal>
0.5511

> <Gold.Chemscore.Rot>
2.3326

> <Gold.Chemscore.Internal.Correction>
   9.000000E+99

> <Gold.Chemscore.Hbonds>
donor molecule, donor type, donor heavy atom, donor atom, acceptor molecule, acceptor atom, score
      L1  H     4    30       P1  7948  0.97
      L1  H     9    48       P1  7948  1.00
      L1  H    15    42       P1  8028  0.85
      L1  H    21    49       P1  8028  0.23

> <Gold.Chemscore.Hbond.Weighted>
-10.7084

> <Gold.Chemscore.Metal.Weighted>
-0.0000

> <Gold.Chemscore.Lipo.Weighted>
-9.7501

> <Gold.Chemscore.Internal_Hbond.Weighted>
0.0000

> <Gold.Chemscore.DEClash.Weighted>
0.1160

> <Gold.Chemscore.DEInternal.Weighted>
0.5511

> <Gold.Chemscore.Rot.Weighted>
5.9714

> <Gold.Chemscore.Internal.Correction.Weighted>
   9.000000E+99

> <Gold.Protein.RotatedTorsions>
[ 6907 6896 6895 6894 ] final  -84.18 input  -60.11 | X-H torsion
[ 7974 7965 7964 7962 ] final   55.54 input  175.53 | X-H torsion
[ 8008 7997 7996 7995 ] final  142.17 input   59.86 | X-H torsion
[ 10167 10162 10161 10158 ] final    4.42 input  -65.29 | X-H torsion
[ 10718 10713 10712 10709 ] final   48.24 input   66.30 | X-H torsion
[ 10763 10752 10751 10750 ] final   68.52 input  -60.55 | X-H torsion
[ 11005 11000 10999 10996 ] final   70.90 input  -57.11 | X-H torsion

> <Gold.Protein.ActiveResidues>
 VAL166  LYS551  ARG553  GLY616  TRP617  ASP618  TYR619  PRO620  LYS621  CYS622 
 ASP623  PHE694  ASN695  SER759  ASP760  ASP761  ALA762  ILE779  LEU786  VAL792 
 PHE793  MET794  SER795  GLU796  ALA797  LYS798  CYS799  TRP800  GLU811  SER814 

> <Gold.Protein.RotatedAtoms>
  150.6878  134.3398  159.4862 H   0  0  0  0  0  0  0  0  0  0  0  0  # atno 6907 bound_to 6896
  152.1253  134.9173  160.0570 H   0  0  0  0  0  0  0  0  0  0  0  0  # atno 6908 bound_to 6896
  152.0363  133.3924  159.4355 H   0  0  0  0  0  0  0  0  0  0  0  0  # atno 6909 bound_to 6896
  145.9493  139.3958  143.0316 H   0  0  0  0  0  0  0  0  0  0  0  0  # atno 7974 bound_to 7965
  156.2954  140.2296  156.4684 H   0  0  0  0  0  0  0  0  0  0  0  0  # atno 8008 bound_to 7997
  154.7956  140.0451  157.1255 H   0  0  0  0  0  0  0  0  0  0  0  0  # atno 8009 bound_to 7997
  154.9593  140.3052  155.5041 H   0  0  0  0  0  0  0  0  0  0  0  0  # atno 8010 bound_to 7997
  140.6535  143.7485  150.7615 H   0  0  0  0  0  0  0  0  0  0  0  0  # atno 10167 bound_to 10162
  157.4667  130.8230  149.7944 H   0  0  0  0  0  0  0  0  0  0  0  0  # atno 10718 bound_to 10713
  153.0239  135.5244  154.7147 H   0  0  0  0  0  0  0  0  0  0  0  0  # atno 10763 bound_to 10752
  154.6219  135.2890  155.0318 H   0  0  0  0  0  0  0  0  0  0  0  0  # atno 10764 bound_to 10752
  154.1301  135.6594  153.4973 H   0  0  0  0  0  0  0  0  0  0  0  0  # atno 10765 bound_to 10752
  139.9573  134.7122  156.0725 H   0  0  0  0  0  0  0  0  0  0  0  0  # atno 11005 bound_to 11000
  145.8193  140.9687  143.0907 LP  0  0  0  0  0  0  0  0  0  0  0  0  # atno 17320 bound_to 7965
  144.6793  140.0021  143.7484 LP  0  0  0  0  0  0  0  0  0  0  0  0  # atno 17321 bound_to 7965
  140.1140  143.4673  152.2353 LP  0  0  0  0  0  0  0  0  0  0  0  0  # atno 17342 bound_to 10162
  139.5754  144.7484  151.3779 LP  0  0  0  0  0  0  0  0  0  0  0  0  # atno 17343 bound_to 10162
  156.0054  130.3858  150.2452 LP  0  0  0  0  0  0  0  0  0  0  0  0  # atno 17370 bound_to 10713
  157.0632  131.0096  151.3215 LP  0  0  0  0  0  0  0  0  0  0  0  0  # atno 17371 bound_to 10713
  141.1246  133.6603  156.3302 LP  0  0  0  0  0  0  0  0  0  0  0  0  # atno 17394 bound_to 11000
  140.5581  134.5961  157.5426 LP  0  0  0  0  0  0  0  0  0  0  0  0  # atno 17395 bound_to 11000

$$$$
