AV-unprocessed.smi:3033|AV-procd|sdf|11573|dock4
  -GOLD-   2272016543D 1   1.00000     0.00000
 Structure written by MMmdl.
 33 34  0  0  0  0  0  0  0  0  1 V2000
  151.8715  145.9029  160.2389 C   0  0  0  0  0  0  0  0  0  0  0  0
  151.4596  145.0645  159.1693 O   0  0  0  0  0  0  0  0  0  0  0  0
  151.8746  143.7501  159.1787 C   0  0  0  0  0  0  0  0  0  0  0  0
  152.6785  143.1762  160.1954 C   0  0  0  0  0  0  0  0  0  0  0  0
  153.0593  141.8227  160.1222 C   0  0  0  0  0  0  0  0  0  0  0  0
  152.6423  141.0277  159.0393 C   0  0  0  0  0  0  0  0  0  0  0  0
  151.8383  141.5835  158.0221 C   0  0  0  0  0  0  0  0  0  0  0  0
  151.3879  140.7363  156.8416 C   0  0  2  0  0  0  0  0  0  0  0  0
  152.4469  139.9316  156.3622 O   0  0  0  0  0  0  0  0  0  0  0  0
  150.8604  141.6247  155.6936 C   0  0  0  0  0  0  0  0  0  0  0  0
  149.7204  141.0567  155.0142 N   0  0  0  0  0  0  0  0  0  0  0  0
  148.4705  141.6560  155.0486 C   0  0  0  0  0  0  0  0  0  0  0  0
  147.3777  141.1328  154.4424 C   0  0  0  0  0  0  0  0  0  0  0  0
  145.8532  141.9398  154.5348 Cl  0  0  0  0  0  0  0  0  0  0  0  0
  147.4823  139.8734  153.7067 C   0  0  0  0  0  0  0  0  0  0  0  0
  146.5592  139.3126  153.1194 O   0  0  0  0  0  0  0  0  0  0  0  0
  148.7583  139.3016  153.7042 N   0  0  0  0  0  0  0  0  0  0  0  0
  149.8883  139.8313  154.3285 C   0  0  0  0  0  0  0  0  0  0  0  0
  150.9599  139.2294  154.2638 O   0  0  0  0  0  0  0  0  0  0  0  0
  151.4636  142.9415  158.0991 C   0  0  0  0  0  0  0  0  0  0  0  0
  148.8716  138.4286  153.2099 H   0  0  0  0  0  0  0  0  0  0  0  0
  151.4717  146.9051  160.0853 H   0  0  0  0  0  0  0  0  0  0  0  0
  152.9583  145.9856  160.2856 H   0  0  0  0  0  0  0  0  0  0  0  0
  151.4949  145.5411  161.1966 H   0  0  0  0  0  0  0  0  0  0  0  0
  153.0177  143.7537  161.0419 H   0  0  0  0  0  0  0  0  0  0  0  0
  153.6737  141.3932  160.8996 H   0  0  0  0  0  0  0  0  0  0  0  0
  152.9426  139.9909  158.9911 H   0  0  0  0  0  0  0  0  0  0  0  0
  150.5947  140.0689  157.1821 H   0  0  0  0  0  0  0  0  0  0  0  0
  152.0780  139.2029  155.8871 H   0  0  0  0  0  0  0  0  0  0  0  0
  150.4865  142.5688  156.0948 H   0  0  0  0  0  0  0  0  0  0  0  0
  151.6231  141.9031  154.9631 H   0  0  0  0  0  0  0  0  0  0  0  0
  148.3591  142.5857  155.5890 H   0  0  0  0  0  0  0  0  0  0  0  0
  150.8527  143.3748  157.3205 H   0  0  0  0  0  0  0  0  0  0  0  0
  1  2  1  0  0  0  0
  1 22  1  0  0  0  0
  1 23  1  0  0  0  0
  1 24  1  0  0  0  0
  2  3  1  0  0  0  0
  3 20  1  0  0  0  0
  3  4  2  0  0  0  0
  4  5  1  0  0  0  0
  4 25  1  0  0  0  0
  5  6  2  0  0  0  0
  5 26  1  0  0  0  0
  6  7  1  0  0  0  0
  6 27  1  0  0  0  0
  7  8  1  0  0  0  0
  7 20  2  0  0  0  0
  8  9  1  0  0  0  0
  8 10  1  0  0  0  0
  8 28  1  0  0  0  0
  9 29  1  0  0  0  0
 10 11  1  0  0  0  0
 10 30  1  0  0  0  0
 10 31  1  0  0  0  0
 11 18  1  0  0  0  0
 11 12  1  0  0  0  0
 12 13  2  0  0  0  0
 12 32  1  0  0  0  0
 13 14  1  0  0  0  0
 13 15  1  0  0  0  0
 15 16  2  0  0  0  0
 15 17  1  0  0  0  0
 17 21  1  0  0  0  0
 17 18  1  0  0  0  0
 18 19  2  0  0  0  0
 20 33  1  0  0  0  0
M  END
> <s_m_source_file>
AV-unprocessed.smi

> <i_m_source_file_index>
3033

> <i_lp_mmshare_version>
43012

> <i_f3d_flags>
0

> <s_epik_input>
W0NIM11PYzFbY0hdW2NIXVtjSF1jKFtjSF0xKVtDQEhdKFtPSF0pW0NIMl1uMltjSF1jKENsKWMoPU8pW25IXWMyPU8=

> <s_epik_cmdline>
J2VwaWtfcHl0aG9uJywgJy1waCcsICc3LjAnLCAnLXRuJywgJzgnLCAnLW1hJywgJzIwMCcsICctbWV0YWxfYmluZGluZycsICctaW1hZScsICc8aW5maWxlLm1hZT4nLCAnLW9tYWUnLCAnPG91dGZpbGUubWFlPic=

> <r_lp_tautomer_probability>
0.999537

> <r_epik_Ionization_Penalty>
0.0292058

> <r_epik_Ionization_Penalty_Charging>
0.0292057

> <r_epik_Ionization_Penalty_Neutral>
7.1713e-08

> <r_epik_State_Penalty>
0.0240115

> <r_epik_Charging_Adjusted_Penalty>
0.0532172

> <i_epik_Tot_Q>
0

> <i_epik_Tot_abs_Q>
0

> <r_epik_Metal_State_Penalty>
2.21956

> <b_epik_Metal_Only>
0

> <s_lp_Force_Field>
OPLS_2005

> <r_lp_Energy>
16.8707

> <b_lp_Chiralities_Consistent>
1

> <s_lp_Variant>
AV-unprocessed.smi:3033-1

> <Gold.Version>
5.8.1

> <Gold.Id.Protein>
6NUR|6NUR_protein|mol2

> <Gold.PLP.Fitness>
46.2550

> <Gold.PLP.PLP>
-41.3319

> <Gold.PLP.part.hbond>
-3.0000

> <Gold.PLP.part.metal>
0.0000

> <Gold.PLP.part.buried>
-2.9964

> <Gold.PLP.part.nonpolar>
-35.5263

> <Gold.PLP.part.repulsive>
0.5722

> <Gold.PLP.ligand.clash>
0.0000

> <Gold.PLP.ligand.torsion>
0.9307

> <Gold.PLP.Chemscore.Hbond>
1.2500

> <Gold.PLP.Chemscore.CHOScore>
1.0000

> <Gold.PLP.Chemscore.Metal>
0.0000

> <Gold.Chemscore.Hbonds>
donor molecule, donor type, donor heavy atom, donor atom, acceptor molecule, acceptor atom, score
      P1  H  7989  7998       L1    19  0.25
      P1  H  7997  8010       L1     9  1.00
      L1  C    12    32       P1  8028  1.00

> <Gold.PLP.Chemscore.Internal.Correction>
0.0344

> <Gold.Rescore>
     Score         DG    S(hbond)    S(metal)    S(lipo)     H(rot)  DE(clash)    DE(int)     intcor
     14.07     -16.40       1.90        0.00      93.91       2.51       0.07       2.25       ----

> <Gold.Chemscore.Fitness>
14.0711

> <Gold.Chemscore.DG>
-16.3964

> <Gold.Chemscore.ZeroCoef>
-5.4800

> <Gold.Chemscore.Hbond>
1.9031

> <Gold.Chemscore.Metal>
0.0000

> <Gold.Chemscore.Lipo>
93.9099

> <Gold.Chemscore.Internal_Hbond>
0.0000

> <Gold.Chemscore.DEClash>
0.0747

> <Gold.Chemscore.DEInternal>
2.2507

> <Gold.Chemscore.Rot>
2.5107

> <Gold.Chemscore.Internal.Correction>
   9.000000E+99

> <Gold.Chemscore.Hbonds>
donor molecule, donor type, donor heavy atom, donor atom, acceptor molecule, acceptor atom, score
      P1  H  7997  8010       L1     9  0.89

> <Gold.Chemscore.Hbond.Weighted>
-6.3564

> <Gold.Chemscore.Metal.Weighted>
-0.0000

> <Gold.Chemscore.Lipo.Weighted>
-10.9875

> <Gold.Chemscore.Internal_Hbond.Weighted>
0.0000

> <Gold.Chemscore.DEClash.Weighted>
0.0747

> <Gold.Chemscore.DEInternal.Weighted>
2.2507

> <Gold.Chemscore.Rot.Weighted>
6.4274

> <Gold.Chemscore.Internal.Correction.Weighted>
   9.000000E+99

> <Gold.Protein.RotatedTorsions>
[ 6907 6896 6895 6894 ] final  166.39 input  -60.11 | X-H torsion
[ 7974 7965 7964 7962 ] final  -99.04 input  175.53 | X-H torsion
[ 8008 7997 7996 7995 ] final   88.05 input   59.86 | X-H torsion
[ 10167 10162 10161 10158 ] final   62.68 input  -65.29 | X-H torsion
[ 10718 10713 10712 10709 ] final -167.20 input   66.30 | X-H torsion
[ 10763 10752 10751 10750 ] final -103.06 input  -60.55 | X-H torsion
[ 11005 11000 10999 10996 ] final -173.50 input  -57.11 | X-H torsion

> <Gold.Protein.ActiveResidues>
 VAL166  LYS551  ARG553  GLY616  TRP617  ASP618  TYR619  PRO620  LYS621  CYS622 
 ASP623  PHE694  ASN695  SER759  ASP760  ASP761  ALA762  ILE779  LEU786  VAL792 
 PHE793  MET794  SER795  GLU796  ALA797  LYS798  CYS799  TRP800  GLU811  SER814 

> <Gold.Protein.RotatedAtoms>
  151.8796  133.3492  159.3761 H   0  0  0  0  0  0  0  0  0  0  0  0  # atno 6907 bound_to 6896
  150.7131  134.5032  159.5580 H   0  0  0  0  0  0  0  0  0  0  0  0  # atno 6908 bound_to 6896
  152.2581  134.8063  160.0486 H   0  0  0  0  0  0  0  0  0  0  0  0  # atno 6909 bound_to 6896
  145.3128  140.9404  143.2760 H   0  0  0  0  0  0  0  0  0  0  0  0  # atno 7974 bound_to 7965
  155.9830  140.3375  155.6680 H   0  0  0  0  0  0  0  0  0  0  0  0  # atno 8008 bound_to 7997
  155.6524  140.0707  157.2600 H   0  0  0  0  0  0  0  0  0  0  0  0  # atno 8009 bound_to 7997
  154.4197  140.1723  156.1676 H   0  0  0  0  0  0  0  0  0  0  0  0  # atno 8010 bound_to 7997
  140.1413  144.4551  150.6809 H   0  0  0  0  0  0  0  0  0  0  0  0  # atno 10167 bound_to 10162
  156.6790  130.9114  151.3054 H   0  0  0  0  0  0  0  0  0  0  0  0  # atno 10718 bound_to 10713
  154.7779  135.4837  153.9783 H   0  0  0  0  0  0  0  0  0  0  0  0  # atno 10763 bound_to 10752
  153.1454  135.6781  153.8970 H   0  0  0  0  0  0  0  0  0  0  0  0  # atno 10764 bound_to 10752
  153.8631  135.3153  155.3417 H   0  0  0  0  0  0  0  0  0  0  0  0  # atno 10765 bound_to 10752
  140.4850  134.6039  157.4934 H   0  0  0  0  0  0  0  0  0  0  0  0  # atno 11005 bound_to 11000
  144.9002  139.4659  143.6636 LP  0  0  0  0  0  0  0  0  0  0  0  0  # atno 17320 bound_to 7965
  146.3112  139.7752  142.9018 LP  0  0  0  0  0  0  0  0  0  0  0  0  # atno 17321 bound_to 7965
  140.6759  143.2305  151.5509 LP  0  0  0  0  0  0  0  0  0  0  0  0  # atno 17342 bound_to 10162
  139.5471  144.2493  152.1461 LP  0  0  0  0  0  0  0  0  0  0  0  0  # atno 17343 bound_to 10162
  157.7050  130.9375  150.0903 LP  0  0  0  0  0  0  0  0  0  0  0  0  # atno 17370 bound_to 10713
  156.1882  130.3653  149.8945 LP  0  0  0  0  0  0  0  0  0  0  0  0  # atno 17371 bound_to 10713
  139.9803  134.7148  155.9872 LP  0  0  0  0  0  0  0  0  0  0  0  0  # atno 17394 bound_to 11000
  141.1512  133.6548  156.4020 LP  0  0  0  0  0  0  0  0  0  0  0  0  # atno 17395 bound_to 11000

$$$$
