AV-unprocessed.smi:2164|AV-procd|sdf|8809|dock8
  -GOLD-   2272011593D 1   1.00000     0.00000
 Structure written by MMmdl.
 40 42  0  0  0  0  0  0  0  0  2 V2000
  146.8666  134.1781  155.5848 O   0  0  0  0  0  0  0  0  0  0  0  0
  147.7217  134.7384  154.8971 C   0  0  0  0  0  0  0  0  0  0  0  0
  147.5166  135.0147  153.5966 N   0  0  0  0  0  0  0  0  0  0  0  0
  146.3101  134.7020  152.8333 C   0  0  0  0  0  0  0  0  0  0  0  0
  146.2880  133.2441  152.3334 C   0  0  0  0  0  0  0  0  0  0  0  0
  145.3545  133.0149  151.1573 C   0  0  0  0  0  0  0  0  0  0  0  0
  145.8077  132.3347  150.0051 C   0  0  0  0  0  0  0  0  0  0  0  0
  144.9140  132.1108  148.9373 C   0  0  0  0  0  0  0  0  0  0  0  0
  143.5867  132.5737  149.0448 C   0  0  0  0  0  0  0  0  0  0  0  0
  143.1897  133.2244  150.1606 N   0  3  0  0  0  0  0  0  0  0  0  0
  144.0150  133.4592  151.2042 C   0  0  0  0  0  0  0  0  0  0  0  0
  149.0274  135.1769  155.3949 C   0  0  0  0  0  0  0  0  0  0  0  0
  149.6099  136.2713  154.8688 C   0  0  0  0  0  0  0  0  0  0  0  0
  150.8504  136.7612  155.2823 N   0  0  0  0  0  0  0  0  0  0  0  0
  151.4111  137.8999  154.5639 C   0  0  0  0  0  0  0  0  0  0  0  0
  152.0674  138.8676  155.5353 C   0  0  0  0  0  0  0  0  0  0  0  0
  153.4474  137.9514  156.3208 S   0  0  0  0  0  0  0  0  0  0  0  0
  154.3796  137.5361  155.2610 O   0  0  0  0  0  0  0  0  0  0  0  0
  153.9466  138.7547  157.4471 O   0  0  0  0  0  0  0  0  0  0  0  0
  152.6355  136.6030  156.8978 N   0  0  0  0  0  0  0  0  0  0  0  0
  151.5432  136.1518  156.3598 C   0  0  0  0  0  0  0  0  0  0  0  0
  150.9370  134.9464  156.9025 C   0  0  0  0  0  0  0  0  0  0  0  0
  149.7523  134.4843  156.4522 C   0  0  0  0  0  0  0  0  0  0  0  0
  148.2621  135.4736  153.0932 H   0  0  0  0  0  0  0  0  0  0  0  0
  145.4519  134.8726  153.4839 H   0  0  0  0  0  0  0  0  0  0  0  0
  146.1942  135.3924  151.9961 H   0  0  0  0  0  0  0  0  0  0  0  0
  147.2970  132.9368  152.0556 H   0  0  0  0  0  0  0  0  0  0  0  0
  145.9857  132.5848  153.1480 H   0  0  0  0  0  0  0  0  0  0  0  0
  146.8258  131.9785  149.9436 H   0  0  0  0  0  0  0  0  0  0  0  0
  145.2417  131.5883  148.0505 H   0  0  0  0  0  0  0  0  0  0  0  0
  142.8363  132.4438  148.2785 H   0  0  0  0  0  0  0  0  0  0  0  0
  143.5778  133.9821  152.0425 H   0  0  0  0  0  0  0  0  0  0  0  0
  149.1466  136.8484  154.0805 H   0  0  0  0  0  0  0  0  0  0  0  0
  152.1307  137.5421  153.8268 H   0  0  0  0  0  0  0  0  0  0  0  0
  150.6324  138.4265  154.0112 H   0  0  0  0  0  0  0  0  0  0  0  0
  152.4729  139.7405  155.0238 H   0  0  0  0  0  0  0  0  0  0  0  0
  151.3742  139.2091  156.3050 H   0  0  0  0  0  0  0  0  0  0  0  0
  151.4178  134.3902  157.6945 H   0  0  0  0  0  0  0  0  0  0  0  0
  149.3589  133.5854  156.9032 H   0  0  0  0  0  0  0  0  0  0  0  0
  142.2247  133.5512  150.2179 H   0  0  0  0  0  0  0  0  0  0  0  0
  1  2  2  0  0  0  0
  2  3  1  0  0  0  0
  2 12  1  0  0  0  0
  3  4  1  0  0  0  0
  3 24  1  0  0  0  0
  4  5  1  0  0  0  0
  4 25  1  0  0  0  0
  4 26  1  0  0  0  0
  5  6  1  0  0  0  0
  5 27  1  0  0  0  0
  5 28  1  0  0  0  0
  6 11  1  0  0  0  0
  6  7  2  0  0  0  0
  7  8  1  0  0  0  0
  7 29  1  0  0  0  0
  8  9  2  0  0  0  0
  8 30  1  0  0  0  0
  9 10  1  0  0  0  0
  9 31  1  0  0  0  0
 10 11  2  0  0  0  0
 10 40  1  0  0  0  0
 11 32  1  0  0  0  0
 12 23  1  0  0  0  0
 12 13  2  0  0  0  0
 13 14  1  0  0  0  0
 13 33  1  0  0  0  0
 14 21  1  0  0  0  0
 14 15  1  0  0  0  0
 15 16  1  0  0  0  0
 15 34  1  0  0  0  0
 15 35  1  0  0  0  0
 16 17  1  0  0  0  0
 16 36  1  0  0  0  0
 16 37  1  0  0  0  0
 17 18  2  0  0  0  0
 17 19  2  0  0  0  0
 17 20  1  0  0  0  0
 20 21  2  0  0  0  0
 21 22  1  0  0  0  0
 22 23  2  0  0  0  0
 22 38  1  0  0  0  0
 23 39  1  0  0  0  0
M  CHG  1  10   1
M  END
> <s_m_source_file>
AV-unprocessed.smi

> <i_m_source_file_index>
2164

> <i_lp_mmshare_version>
43012

> <i_f3d_flags>
0

> <s_epik_input>
W0NIMl0xW0NIMl1TKD1PKSg9TylOPUMoTjEyKVtDSF09W0NIXUMoPVtDSF0yKUMoPU8pW05IXVtDSDJdW0NIMl1jM1tjSF1bY0hdW2NIXW5bY0hdMw==

> <s_epik_cmdline>
J2VwaWtfcHl0aG9uJywgJy1waCcsICc3LjAnLCAnLXRuJywgJzgnLCAnLW1hJywgJzIwMCcsICctbWV0YWxfYmluZGluZycsICctaW1hZScsICc8aW5maWxlLm1hZT4nLCAnLW9tYWUnLCAnPG91dGZpbGUubWFlPic=

> <r_epik_Ionization_Penalty>
2.45963

> <r_epik_Ionization_Penalty_Charging>
2.45946

> <r_epik_Ionization_Penalty_Neutral>
0.000170278

> <r_epik_State_Penalty>
2.62155

> <r_epik_Charging_Adjusted_Penalty>
5.08101

> <i_epik_Tot_Q>
1

> <i_epik_Tot_abs_Q>
1

> <r_epik_Metal_State_Penalty>
2.85721

> <b_epik_Metal_Only>
0

> <s_lp_Force_Field>
OPLS_2005

> <r_lp_Energy>
29.3092

> <b_lp_Chiralities_Consistent>
1

> <s_lp_Variant>
AV-unprocessed.smi:2164-2

> <Gold.Version>
5.8.1

> <Gold.Id.Protein>
6NUR|6NUR_protein|mol2

> <Gold.PLP.Fitness>
45.7250

> <Gold.PLP.PLP>
-32.4087

> <Gold.PLP.part.hbond>
-4.5102

> <Gold.PLP.part.metal>
0.0000

> <Gold.PLP.part.buried>
0.8868

> <Gold.PLP.part.nonpolar>
-29.6773

> <Gold.PLP.part.repulsive>
0.0749

> <Gold.PLP.ligand.clash>
0.0000

> <Gold.PLP.ligand.torsion>
0.7605

> <Gold.PLP.Chemscore.Hbond>
4.0288

> <Gold.PLP.Chemscore.CHOScore>
0.9106

> <Gold.PLP.Chemscore.Metal>
0.0000

> <Gold.Chemscore.Hbonds>
donor molecule, donor type, donor heavy atom, donor atom, acceptor molecule, acceptor atom, score
      L1  H     3    24       P1  7948  1.00
      L1  H    10    40       P1 10186  1.95
      P1  H  7997  8009       L1    19  0.86
      P1  H 10752 10763       L1    20  0.06
      L1  C    13    33       P1  7948  0.92

> <Gold.PLP.Chemscore.Internal.Correction>
0.0190

> <Gold.Rescore>
     Score         DG    S(hbond)    S(metal)    S(lipo)     H(rot)  DE(clash)    DE(int)     intcor
     20.44     -21.45       2.78        0.00      90.62       1.54       0.23       0.77       ----

> <Gold.Chemscore.Fitness>
20.4440

> <Gold.Chemscore.DG>
-21.4476

> <Gold.Chemscore.ZeroCoef>
-5.4800

> <Gold.Chemscore.Hbond>
2.7831

> <Gold.Chemscore.Metal>
0.0000

> <Gold.Chemscore.Lipo>
90.6232

> <Gold.Chemscore.Internal_Hbond>
0.0000

> <Gold.Chemscore.DEClash>
0.2309

> <Gold.Chemscore.DEInternal>
0.7726

> <Gold.Chemscore.Rot>
1.5355

> <Gold.Chemscore.Internal.Correction>
   9.000000E+99

> <Gold.Chemscore.Hbonds>
donor molecule, donor type, donor heavy atom, donor atom, acceptor molecule, acceptor atom, score
      L1  H     3    24       P1  7948  0.97
      L1  H    10    40       P1 10186  0.93
      P1  H  7997  8009       L1    19  0.56

> <Gold.Chemscore.Hbond.Weighted>
-9.2956

> <Gold.Chemscore.Metal.Weighted>
-0.0000

> <Gold.Chemscore.Lipo.Weighted>
-10.6029

> <Gold.Chemscore.Internal_Hbond.Weighted>
0.0000

> <Gold.Chemscore.DEClash.Weighted>
0.2309

> <Gold.Chemscore.DEInternal.Weighted>
0.7726

> <Gold.Chemscore.Rot.Weighted>
3.9309

> <Gold.Chemscore.Internal.Correction.Weighted>
   9.000000E+99

> <Gold.Protein.RotatedTorsions>
[ 6907 6896 6895 6894 ] final   73.69 input  -60.11 | X-H torsion
[ 7974 7965 7964 7962 ] final  -99.38 input  175.53 | X-H torsion
[ 8008 7997 7996 7995 ] final  162.70 input   59.86 | X-H torsion
[ 10167 10162 10161 10158 ] final  105.02 input  -65.29 | X-H torsion
[ 10718 10713 10712 10709 ] final   51.27 input   66.30 | X-H torsion
[ 10763 10752 10751 10750 ] final  127.52 input  -60.55 | X-H torsion
[ 11005 11000 10999 10996 ] final   66.93 input  -57.11 | X-H torsion

> <Gold.Protein.ActiveResidues>
 VAL166  LYS551  ARG553  GLY616  TRP617  ASP618  TYR619  PRO620  LYS621  CYS622 
 ASP623  PHE694  ASN695  SER759  ASP760  ASP761  ALA762  ILE779  LEU786  VAL792 
 PHE793  MET794  SER795  GLU796  ALA797  LYS798  CYS799  TRP800  GLU811  SER814 

> <Gold.Protein.RotatedAtoms>
  152.4937  134.4383  159.9534 H   0  0  0  0  0  0  0  0  0  0  0  0  # atno 6907 bound_to 6896
  151.4366  133.3649  159.2784 H   0  0  0  0  0  0  0  0  0  0  0  0  # atno 6908 bound_to 6896
  150.9117  134.8557  159.7490 H   0  0  0  0  0  0  0  0  0  0  0  0  # atno 6909 bound_to 6896
  145.3083  140.9394  143.2784 H   0  0  0  0  0  0  0  0  0  0  0  0  # atno 7974 bound_to 7965
  156.2012  140.1743  156.7896 H   0  0  0  0  0  0  0  0  0  0  0  0  # atno 8008 bound_to 7997
  154.5594  140.0702  156.8825 H   0  0  0  0  0  0  0  0  0  0  0  0  # atno 8009 bound_to 7997
  155.2877  140.3353  155.4256 H   0  0  0  0  0  0  0  0  0  0  0  0  # atno 8010 bound_to 7997
  139.7128  144.7074  151.1000 H   0  0  0  0  0  0  0  0  0  0  0  0  # atno 10167 bound_to 10162
  157.4965  130.8409  149.8264 H   0  0  0  0  0  0  0  0  0  0  0  0  # atno 10718 bound_to 10713
  153.7108  135.3268  155.3246 H   0  0  0  0  0  0  0  0  0  0  0  0  # atno 10763 bound_to 10752
  154.8385  135.4476  154.1316 H   0  0  0  0  0  0  0  0  0  0  0  0  # atno 10764 bound_to 10752
  153.2409  135.6971  153.7863 H   0  0  0  0  0  0  0  0  0  0  0  0  # atno 10765 bound_to 10752
  139.9801  134.6757  156.0278 H   0  0  0  0  0  0  0  0  0  0  0  0  # atno 11005 bound_to 11000
  144.9036  139.4617  143.6620 LP  0  0  0  0  0  0  0  0  0  0  0  0  # atno 17320 bound_to 7965
  146.3127  139.7805  142.9007 LP  0  0  0  0  0  0  0  0  0  0  0  0  # atno 17321 bound_to 7965
  140.7737  143.5270  150.9468 LP  0  0  0  0  0  0  0  0  0  0  0  0  # atno 17342 bound_to 10162
  139.8956  143.6899  152.3139 LP  0  0  0  0  0  0  0  0  0  0  0  0  # atno 17343 bound_to 10162
  156.0203  130.3798  150.1982 LP  0  0  0  0  0  0  0  0  0  0  0  0  # atno 17370 bound_to 10713
  157.0171  130.9968  151.3350 LP  0  0  0  0  0  0  0  0  0  0  0  0  # atno 17371 bound_to 10713
  141.1474  133.6553  156.3910 LP  0  0  0  0  0  0  0  0  0  0  0  0  # atno 17394 bound_to 11000
  140.5113  134.6392  157.5285 LP  0  0  0  0  0  0  0  0  0  0  0  0  # atno 17395 bound_to 11000

$$$$
