AV-unprocessed.smi:845|AV-procd|sdf|3931|dock1
  -GOLD-   22720 1393D 1   1.00000     0.00000
 Structure written by MMmdl.
 42 43  0  0  0  0  0  0  0  0  3 V2000
  148.7158  138.8174  153.9049 C   0  0  0  0  0  0  0  0  0  0  0  0
  147.7266  139.9956  153.9363 C   0  0  0  0  0  0  0  0  0  0  0  0
  147.0041  140.1345  152.5848 C   0  0  0  0  0  0  0  0  0  0  0  0
  148.3989  141.3017  154.4511 C   0  0  2  0  0  0  0  0  0  0  0  0
  149.6555  141.0918  155.3379 C   0  0  0  0  0  0  0  0  0  0  0  0
  150.1140  142.3373  155.9481 N   0  0  0  0  0  0  0  0  0  0  0  0
  151.1144  142.4757  156.8301 C   0  0  0  0  0  0  0  0  0  0  0  0
  151.7355  141.4856  157.2229 O   0  0  0  0  0  0  0  0  0  0  0  0
  151.3380  143.7578  157.1949 N   0  5  0  0  0  0  0  0  0  0  0  0
  151.7654  144.0369  158.4369 C   0  0  0  0  0  0  0  0  0  0  0  0
  151.5762  145.2245  159.0237 N   0  0  0  0  0  0  0  0  0  0  0  0
  152.0976  145.2939  160.3169 C   0  0  0  0  0  0  0  0  0  0  0  0
  152.6903  144.1291  160.7272 C   0  0  0  0  0  0  0  0  0  0  0  0
  152.6103  142.9029  159.4945 S   0  0  0  0  0  0  0  0  0  0  0  0
  147.3873  142.2245  155.0552 N   0  3  0  0  0  0  0  0  0  0  0  0
  146.1827  142.5229  154.2362 C   0  0  0  0  0  0  0  0  0  0  0  0
  145.3402  143.6119  154.9184 C   0  0  0  0  0  0  0  0  0  0  0  0
  144.9670  143.1722  156.2188 O   0  0  0  0  0  0  0  0  0  0  0  0
  146.0981  142.9387  157.0492 C   0  0  0  0  0  0  0  0  0  0  0  0
  146.9868  141.8448  156.4319 C   0  0  0  0  0  0  0  0  0  0  0  0
  149.5095  138.9761  153.1746 H   0  0  0  0  0  0  0  0  0  0  0  0
  148.2078  137.8890  153.6419 H   0  0  0  0  0  0  0  0  0  0  0  0
  149.1829  138.6675  154.8788 H   0  0  0  0  0  0  0  0  0  0  0  0
  146.9657  139.7123  154.6634 H   0  0  0  0  0  0  0  0  0  0  0  0
  147.7077  140.2765  151.7648 H   0  0  0  0  0  0  0  0  0  0  0  0
  146.3067  140.9711  152.5815 H   0  0  0  0  0  0  0  0  0  0  0  0
  146.4283  139.2357  152.3626 H   0  0  0  0  0  0  0  0  0  0  0  0
  148.7723  141.7892  153.5488 H   0  0  0  0  0  0  0  0  0  0  0  0
  149.4158  140.4101  156.1544 H   0  0  0  0  0  0  0  0  0  0  0  0
  150.4650  140.6202  154.7802 H   0  0  0  0  0  0  0  0  0  0  0  0
  149.6381  143.1816  155.6654 H   0  0  0  0  0  0  0  0  0  0  0  0
  152.0013  146.2135  160.8748 H   0  0  0  0  0  0  0  0  0  0  0  0
  153.1652  143.9178  161.6732 H   0  0  0  0  0  0  0  0  0  0  0  0
  146.4627  142.8512  153.2366 H   0  0  0  0  0  0  0  0  0  0  0  0
  145.5729  141.6261  154.1192 H   0  0  0  0  0  0  0  0  0  0  0  0
  145.8908  144.5521  154.9794 H   0  0  0  0  0  0  0  0  0  0  0  0
  144.4377  143.8070  154.3390 H   0  0  0  0  0  0  0  0  0  0  0  0
  146.6597  143.8644  157.1836 H   0  0  0  0  0  0  0  0  0  0  0  0
  145.7538  142.6300  158.0364 H   0  0  0  0  0  0  0  0  0  0  0  0
  146.4561  140.8917  156.4100 H   0  0  0  0  0  0  0  0  0  0  0  0
  147.8706  141.7083  157.0564 H   0  0  0  0  0  0  0  0  0  0  0  0
  147.8751  143.1027  155.1591 H   0  0  0  0  0  0  0  0  0  0  0  0
  1  2  1  0  0  0  0
  1 21  1  0  0  0  0
  1 22  1  0  0  0  0
  1 23  1  0  0  0  0
  2  3  1  0  0  0  0
  2  4  1  0  0  0  0
  2 24  1  0  0  0  0
  3 25  1  0  0  0  0
  3 26  1  0  0  0  0
  3 27  1  0  0  0  0
  4  5  1  0  0  0  0
  4 15  1  0  0  0  0
  4 28  1  0  0  0  0
  5  6  1  0  0  0  0
  5 29  1  0  0  0  0
  5 30  1  0  0  0  0
  6  7  1  0  0  0  0
  6 31  1  0  0  0  0
  7  8  2  0  0  0  0
  7  9  1  0  0  0  0
  9 10  1  0  0  0  0
 10 14  1  0  0  0  0
 10 11  2  0  0  0  0
 11 12  1  0  0  0  0
 12 13  2  0  0  0  0
 12 32  1  0  0  0  0
 13 14  1  0  0  0  0
 13 33  1  0  0  0  0
 15 20  1  0  0  0  0
 15 16  1  0  0  0  0
 15 42  1  0  0  0  0
 16 17  1  0  0  0  0
 16 34  1  0  0  0  0
 16 35  1  0  0  0  0
 17 18  1  0  0  0  0
 17 36  1  0  0  0  0
 17 37  1  0  0  0  0
 18 19  1  0  0  0  0
 19 20  1  0  0  0  0
 19 38  1  0  0  0  0
 19 39  1  0  0  0  0
 20 40  1  0  0  0  0
 20 41  1  0  0  0  0
M  CHG  1   9  -1
M  CHG  1  15   1
M  END
> <s_m_source_file>
AV-unprocessed.smi

> <i_m_source_file_index>
845

> <i_lp_mmshare_version>
43012

> <i_f3d_flags>
0

> <s_epik_input>
W0NIMl0xW0NIMl1PW0NIMl1bQ0gyXU4xW0NASF0oW0NIXShbQ0gzXSlbQ0gzXSlbQ0gyXVtOSF1DKD1PKVtOSF1jMm5bY0hdW2NIXXMy

> <s_epik_cmdline>
J2VwaWtfcHl0aG9uJywgJy1waCcsICc3LjAnLCAnLXRuJywgJzgnLCAnLW1hJywgJzIwMCcsICctbWV0YWxfYmluZGluZycsICctaW1hZScsICc8aW5maWxlLm1hZT4nLCAnLW9tYWUnLCAnPG91dGZpbGUubWFlPic=

> <r_lp_tautomer_probability>
0.999

> <r_epik_Ionization_Penalty>
7.97104

> <r_epik_Ionization_Penalty_Charging>
6.58021

> <r_epik_Ionization_Penalty_Neutral>
1.39083

> <r_epik_State_Penalty>
6.69807

> <r_epik_Charging_Adjusted_Penalty>
13.2783

> <i_epik_Tot_Q>
0

> <i_epik_Tot_abs_Q>
2

> <r_epik_Metal_State_Penalty>
2.62985

> <b_epik_Metal_Only>
1

> <s_lp_Force_Field>
OPLS_2005

> <r_lp_Energy>
16.3382

> <b_lp_Chiralities_Consistent>
1

> <s_lp_Variant>
AV-unprocessed.smi:845-5

> <Gold.Version>
5.8.1

> <Gold.Id.Protein>
6NUR|6NUR_protein|mol2

> <Gold.PLP.Fitness>
45.9587

> <Gold.PLP.PLP>
-38.7449

> <Gold.PLP.part.hbond>
-2.0000

> <Gold.PLP.part.metal>
0.0000

> <Gold.PLP.part.buried>
-5.9386

> <Gold.PLP.part.nonpolar>
-32.0565

> <Gold.PLP.part.repulsive>
1.1887

> <Gold.PLP.ligand.clash>
0.0000

> <Gold.PLP.ligand.torsion>
1.2236

> <Gold.PLP.Chemscore.Hbond>
3.0000

> <Gold.PLP.Chemscore.CHOScore>
0.0000

> <Gold.PLP.Chemscore.Metal>
0.0000

> <Gold.Chemscore.Hbonds>
donor molecule, donor type, donor heavy atom, donor atom, acceptor molecule, acceptor atom, score
      L1  H     6    31       P1  8028  1.00
      L1  H    15    42       P1  8028  2.00

> <Gold.PLP.Chemscore.Internal.Correction>
0.6610

> <Gold.Rescore>
     Score         DG    S(hbond)    S(metal)    S(lipo)     H(rot)  DE(clash)    DE(int)     intcor
     13.24     -17.15       1.76        0.00      88.16       1.76       0.55       3.35       ----

> <Gold.Chemscore.Fitness>
13.2390

> <Gold.Chemscore.DG>
-17.1468

> <Gold.Chemscore.ZeroCoef>
-5.4800

> <Gold.Chemscore.Hbond>
1.7557

> <Gold.Chemscore.Metal>
0.0000

> <Gold.Chemscore.Lipo>
88.1555

> <Gold.Chemscore.Internal_Hbond>
0.0000

> <Gold.Chemscore.DEClash>
0.5539

> <Gold.Chemscore.DEInternal>
3.3539

> <Gold.Chemscore.Rot>
1.7623

> <Gold.Chemscore.Internal.Correction>
   9.000000E+99

> <Gold.Chemscore.Hbonds>
donor molecule, donor type, donor heavy atom, donor atom, acceptor molecule, acceptor atom, score
      L1  H     6    31       P1  8028  1.00
      L1  H    15    42       P1  8028  0.74

> <Gold.Chemscore.Hbond.Weighted>
-5.8642

> <Gold.Chemscore.Metal.Weighted>
-0.0000

> <Gold.Chemscore.Lipo.Weighted>
-10.3142

> <Gold.Chemscore.Internal_Hbond.Weighted>
0.0000

> <Gold.Chemscore.DEClash.Weighted>
0.5539

> <Gold.Chemscore.DEInternal.Weighted>
3.3539

> <Gold.Chemscore.Rot.Weighted>
4.5116

> <Gold.Chemscore.Internal.Correction.Weighted>
   9.000000E+99

> <Gold.Protein.RotatedTorsions>
[ 6907 6896 6895 6894 ] final  -69.92 input  -60.11 | X-H torsion
[ 7974 7965 7964 7962 ] final   54.19 input  175.53 | X-H torsion
[ 8008 7997 7996 7995 ] final  173.14 input   59.86 | X-H torsion
[ 10167 10162 10161 10158 ] final   10.15 input  -65.29 | X-H torsion
[ 10718 10713 10712 10709 ] final   67.60 input   66.30 | X-H torsion
[ 10763 10752 10751 10750 ] final  -49.32 input  -60.55 | X-H torsion
[ 11005 11000 10999 10996 ] final -133.60 input  -57.11 | X-H torsion

> <Gold.Protein.ActiveResidues>
 VAL166  LYS551  ARG553  GLY616  TRP617  ASP618  TYR619  PRO620  LYS621  CYS622 
 ASP623  PHE694  ASN695  SER759  ASP760  ASP761  ALA762  ILE779  LEU786  VAL792 
 PHE793  MET794  SER795  GLU796  ALA797  LYS798  CYS799  TRP800  GLU811  SER814 

> <Gold.Protein.RotatedAtoms>
  150.7282  134.5528  159.5802 H   0  0  0  0  0  0  0  0  0  0  0  0  # atno 6907 bound_to 6896
  152.3011  134.7607  160.0366 H   0  0  0  0  0  0  0  0  0  0  0  0  # atno 6908 bound_to 6896
  151.8188  133.3356  159.3614 H   0  0  0  0  0  0  0  0  0  0  0  0  # atno 6909 bound_to 6896
  145.9635  139.4081  143.0234 H   0  0  0  0  0  0  0  0  0  0  0  0  # atno 7974 bound_to 7965
  156.1105  140.1468  156.9345 H   0  0  0  0  0  0  0  0  0  0  0  0  # atno 8008 bound_to 7997
  154.4764  140.0893  156.7314 H   0  0  0  0  0  0  0  0  0  0  0  0  # atno 8009 bound_to 7997
  155.4604  140.3438  155.4314 H   0  0  0  0  0  0  0  0  0  0  0  0  # atno 8010 bound_to 7997
  140.6212  143.8201  150.7177 H   0  0  0  0  0  0  0  0  0  0  0  0  # atno 10167 bound_to 10162
  157.6240  130.9329  150.0264 H   0  0  0  0  0  0  0  0  0  0  0  0  # atno 10718 bound_to 10713
  154.0922  135.6575  153.4854 H   0  0  0  0  0  0  0  0  0  0  0  0  # atno 10763 bound_to 10752
  153.0318  135.5205  154.7369 H   0  0  0  0  0  0  0  0  0  0  0  0  # atno 10764 bound_to 10752
  154.6496  135.2999  154.9972 H   0  0  0  0  0  0  0  0  0  0  0  0  # atno 10765 bound_to 10752
  140.9066  134.1622  157.4421 H   0  0  0  0  0  0  0  0  0  0  0  0  # atno 11005 bound_to 11000
  145.8007  140.9772  143.1000 LP  0  0  0  0  0  0  0  0  0  0  0  0  # atno 17320 bound_to 7965
  144.6820  139.9798  143.7483 LP  0  0  0  0  0  0  0  0  0  0  0  0  # atno 17321 bound_to 7965
  140.1791  143.4130  152.1946 LP  0  0  0  0  0  0  0  0  0  0  0  0  # atno 17342 bound_to 10162
  139.5440  144.7282  151.4642 LP  0  0  0  0  0  0  0  0  0  0  0  0  # atno 17343 bound_to 10162
  156.1401  130.3642  149.9596 LP  0  0  0  0  0  0  0  0  0  0  0  0  # atno 17370 bound_to 10713
  156.7639  130.9161  151.3642 LP  0  0  0  0  0  0  0  0  0  0  0  0  # atno 17371 bound_to 10713
  139.8750  134.9919  156.5572 LP  0  0  0  0  0  0  0  0  0  0  0  0  # atno 17394 bound_to 11000
  140.8163  133.8389  155.8855 LP  0  0  0  0  0  0  0  0  0  0  0  0  # atno 17395 bound_to 11000

$$$$
