AV-unprocessed.smi:745|AV-procd|sdf|3575|dock2
  -GOLD-   22720 0563D 1   1.00000     0.00000
 Structure written by MMmdl.
 42 43  0  0  0  0  0  0  0  0  2 V2000
  150.6276  140.3116  154.3405 C   0  0  0  0  0  0  0  0  0  0  0  0
  149.3087  140.8310  154.9388 C   0  0  1  0  0  0  0  0  0  0  0  0
  149.6238  142.0056  155.7527 N   0  0  0  0  0  0  0  0  0  0  0  0
  150.3821  142.0185  156.8600 C   0  0  0  0  0  0  0  0  0  0  0  0
  150.8971  141.0102  157.3441 O   0  0  0  0  0  0  0  0  0  0  0  0
  150.4932  143.2626  157.3576 N   0  0  0  0  0  0  0  0  0  0  0  0
  151.1652  143.6782  158.5379 C   0  0  0  0  0  0  0  0  0  0  0  0
  151.1078  145.0652  158.8030 C   0  0  0  0  0  0  0  0  0  0  0  0
  151.7374  145.5774  159.9537 C   0  0  0  0  0  0  0  0  0  0  0  0
  152.4075  144.6877  160.8122 C   0  0  0  0  0  0  0  0  0  0  0  0
  152.4165  143.3216  160.4760 C   0  0  0  0  0  0  0  0  0  0  0  0
  151.8142  142.8284  159.3732 N   0  0  0  0  0  0  0  0  0  0  0  0
  148.2380  141.1760  153.8611 C   0  0  2  0  0  0  0  0  0  0  0  0
  147.1282  142.1338  154.3544 C   0  0  0  0  0  0  0  0  0  0  0  0
  146.1641  141.4456  155.3380 C   0  0  0  0  0  0  0  0  0  0  0  0
  145.5510  140.2398  154.7283 N   0  3  2  0  0  0  0  0  0  0  0  0
  144.5502  139.6079  155.6142 C   0  0  0  0  0  0  0  0  0  0  0  0
  146.5683  139.2729  154.2463 C   0  0  0  0  0  0  0  0  0  0  0  0
  147.5392  139.9390  153.2541 C   0  0  0  0  0  0  0  0  0  0  0  0
  150.4997  139.3491  153.8467 H   0  0  0  0  0  0  0  0  0  0  0  0
  151.3780  140.1653  155.1185 H   0  0  0  0  0  0  0  0  0  0  0  0
  151.0387  141.0120  153.6127 H   0  0  0  0  0  0  0  0  0  0  0  0
  148.9237  140.0405  155.5833 H   0  0  0  0  0  0  0  0  0  0  0  0
  149.2433  142.8853  155.4351 H   0  0  0  0  0  0  0  0  0  0  0  0
  150.0351  143.9970  156.8387 H   0  0  0  0  0  0  0  0  0  0  0  0
  150.5873  145.7347  158.1336 H   0  0  0  0  0  0  0  0  0  0  0  0
  151.7054  146.6343  160.1736 H   0  0  0  0  0  0  0  0  0  0  0  0
  152.9013  145.0428  161.7047 H   0  0  0  0  0  0  0  0  0  0  0  0
  152.9191  142.6054  161.1093 H   0  0  0  0  0  0  0  0  0  0  0  0
  148.7622  141.6834  153.0498 H   0  0  0  0  0  0  0  0  0  0  0  0
  147.5466  143.0326  154.8061 H   0  0  0  0  0  0  0  0  0  0  0  0
  146.5570  142.4862  153.4943 H   0  0  0  0  0  0  0  0  0  0  0  0
  146.6832  141.1690  156.2559 H   0  0  0  0  0  0  0  0  0  0  0  0
  145.3779  142.1460  155.6229 H   0  0  0  0  0  0  0  0  0  0  0  0
  145.0173  139.2302  156.5248 H   0  0  0  0  0  0  0  0  0  0  0  0
  144.0609  138.7746  155.1090 H   0  0  0  0  0  0  0  0  0  0  0  0
  143.7785  140.3245  155.8968 H   0  0  0  0  0  0  0  0  0  0  0  0
  147.1118  138.8541  155.0942 H   0  0  0  0  0  0  0  0  0  0  0  0
  146.0669  138.4383  153.7550 H   0  0  0  0  0  0  0  0  0  0  0  0
  146.9766  140.2496  152.3727 H   0  0  0  0  0  0  0  0  0  0  0  0
  148.2624  139.2115  152.8888 H   0  0  0  0  0  0  0  0  0  0  0  0
  145.0493  140.5575  153.9111 H   0  0  0  0  0  0  0  0  0  0  0  0
  1  2  1  0  0  0  0
  1 20  1  0  0  0  0
  1 21  1  0  0  0  0
  1 22  1  0  0  0  0
  2  3  1  0  0  0  0
  2 13  1  0  0  0  0
  2 23  1  0  0  0  0
  3  4  1  0  0  0  0
  3 24  1  0  0  0  0
  4  5  2  0  0  0  0
  4  6  1  0  0  0  0
  6  7  1  0  0  0  0
  6 25  1  0  0  0  0
  7 12  1  0  0  0  0
  7  8  2  0  0  0  0
  8  9  1  0  0  0  0
  8 26  1  0  0  0  0
  9 10  2  0  0  0  0
  9 27  1  0  0  0  0
 10 11  1  0  0  0  0
 10 28  1  0  0  0  0
 11 12  2  0  0  0  0
 11 29  1  0  0  0  0
 13 19  1  0  0  0  0
 13 14  1  0  0  0  0
 13 30  1  0  0  0  0
 14 15  1  0  0  0  0
 14 31  1  0  0  0  0
 14 32  1  0  0  0  0
 15 16  1  0  0  0  0
 15 33  1  0  0  0  0
 15 34  1  0  0  0  0
 16 17  1  0  0  0  0
 16 18  1  0  0  0  0
 16 42  1  0  0  0  0
 17 35  1  0  0  0  0
 17 36  1  0  0  0  0
 17 37  1  0  0  0  0
 18 19  1  0  0  0  0
 18 38  1  0  0  0  0
 18 39  1  0  0  0  0
 19 40  1  0  0  0  0
 19 41  1  0  0  0  0
M  CHG  1  16   1
M  END
> <s_m_source_file>
AV-unprocessed.smi

> <i_m_source_file_index>
745

> <i_lp_mmshare_version>
43012

> <i_f3d_flags>
0

> <s_epik_input>
W0NIMl0xW0NIMl1OKFtDSDNdKVtDSDJdW0NIMl1bQ0hdMVtDQEhdKFtDSDNdKVtOSF1DKD1PKVtOSF1jMltjSF1bY0hdW2NIXVtjSF1uMg==

> <s_epik_cmdline>
J2VwaWtfcHl0aG9uJywgJy1waCcsICc3LjAnLCAnLXRuJywgJzgnLCAnLW1hJywgJzIwMCcsICctbWV0YWxfYmluZGluZycsICctaW1hZScsICc8aW5maWxlLm1hZT4nLCAnLW9tYWUnLCAnPG91dGZpbGUubWFlPic=

> <r_epik_Ionization_Penalty>
0.0011087

> <r_epik_Ionization_Penalty_Charging>
0.00106265

> <r_epik_Ionization_Penalty_Neutral>
4.60506e-05

> <r_epik_State_Penalty>
0.000695551

> <r_epik_Charging_Adjusted_Penalty>
0.0017582

> <i_epik_Tot_Q>
1

> <i_epik_Tot_abs_Q>
1

> <r_epik_Metal_State_Penalty>
-0

> <b_epik_Metal_Only>
0

> <s_lp_Force_Field>
OPLS_2005

> <r_lp_Energy>
20.9575

> <b_lp_Chiralities_Consistent>
1

> <s_lp_Variant>
AV-unprocessed.smi:745-4

> <Gold.Version>
5.8.1

> <Gold.Id.Protein>
6NUR|6NUR_protein|mol2

> <Gold.PLP.Fitness>
48.9404

> <Gold.PLP.PLP>
-37.6846

> <Gold.PLP.part.hbond>
-3.0000

> <Gold.PLP.part.metal>
0.0000

> <Gold.PLP.part.buried>
-3.0945

> <Gold.PLP.part.nonpolar>
-32.1610

> <Gold.PLP.part.repulsive>
0.1384

> <Gold.PLP.ligand.clash>
0.0000

> <Gold.PLP.ligand.torsion>
0.3813

> <Gold.PLP.Chemscore.Hbond>
4.0000

> <Gold.PLP.Chemscore.CHOScore>
0.0000

> <Gold.PLP.Chemscore.Metal>
0.0000

> <Gold.Chemscore.Hbonds>
donor molecule, donor type, donor heavy atom, donor atom, acceptor molecule, acceptor atom, score
      L1  H     3    24       P1  8028  1.00
      L1  H     6    25       P1  8028  1.00
      L1  H    16    42       P1 10175  2.00

> <Gold.PLP.Chemscore.Internal.Correction>
0.0183

> <Gold.Rescore>
     Score         DG    S(hbond)    S(metal)    S(lipo)     H(rot)  DE(clash)    DE(int)     intcor
     19.58     -21.99       2.88        0.00      86.49       1.26       0.31       2.09       ----

> <Gold.Chemscore.Fitness>
19.5820

> <Gold.Chemscore.DG>
-21.9912

> <Gold.Chemscore.ZeroCoef>
-5.4800

> <Gold.Chemscore.Hbond>
2.8797

> <Gold.Chemscore.Metal>
0.0000

> <Gold.Chemscore.Lipo>
86.4865

> <Gold.Chemscore.Internal_Hbond>
0.0000

> <Gold.Chemscore.DEClash>
0.3142

> <Gold.Chemscore.DEInternal>
2.0949

> <Gold.Chemscore.Rot>
1.2601

> <Gold.Chemscore.Internal.Correction>
   9.000000E+99

> <Gold.Chemscore.Hbonds>
donor molecule, donor type, donor heavy atom, donor atom, acceptor molecule, acceptor atom, score
      L1  H     3    24       P1  8028  0.97
      L1  H     6    25       P1  8028  0.97
      L1  H    16    42       P1 10175  0.96

> <Gold.Chemscore.Hbond.Weighted>
-9.6182

> <Gold.Chemscore.Metal.Weighted>
-0.0000

> <Gold.Chemscore.Lipo.Weighted>
-10.1189

> <Gold.Chemscore.Internal_Hbond.Weighted>
0.0000

> <Gold.Chemscore.DEClash.Weighted>
0.3142

> <Gold.Chemscore.DEInternal.Weighted>
2.0949

> <Gold.Chemscore.Rot.Weighted>
3.2260

> <Gold.Chemscore.Internal.Correction.Weighted>
   9.000000E+99

> <Gold.Protein.RotatedTorsions>
[ 6907 6896 6895 6894 ] final  138.99 input  -60.11 | X-H torsion
[ 7974 7965 7964 7962 ] final  127.09 input  175.53 | X-H torsion
[ 8008 7997 7996 7995 ] final  -14.22 input   59.86 | X-H torsion
[ 10167 10162 10161 10158 ] final   36.70 input  -65.29 | X-H torsion
[ 10718 10713 10712 10709 ] final  104.96 input   66.30 | X-H torsion
[ 10763 10752 10751 10750 ] final -127.13 input  -60.55 | X-H torsion
[ 11005 11000 10999 10996 ] final   -1.89 input  -57.11 | X-H torsion

> <Gold.Protein.ActiveResidues>
 VAL166  LYS551  ARG553  GLY616  TRP617  ASP618  TYR619  PRO620  LYS621  CYS622 
 ASP623  PHE694  ASN695  SER759  ASP760  ASP761  ALA762  ILE779  LEU786  VAL792 
 PHE793  MET794  SER795  GLU796  ALA797  LYS798  CYS799  TRP800  GLU811  SER814 

> <Gold.Protein.RotatedAtoms>
  152.2602  133.5290  159.5376 H   0  0  0  0  0  0  0  0  0  0  0  0  # atno 6907 bound_to 6896
  150.7122  134.0840  159.3917 H   0  0  0  0  0  0  0  0  0  0  0  0  # atno 6908 bound_to 6896
  151.8758  135.0472  160.0534 H   0  0  0  0  0  0  0  0  0  0  0  0  # atno 6909 bound_to 6896
  145.0545  139.3856  143.5037 H   0  0  0  0  0  0  0  0  0  0  0  0  # atno 7974 bound_to 7965
  154.5227  140.2228  155.8945 H   0  0  0  0  0  0  0  0  0  0  0  0  # atno 8008 bound_to 7997
  156.1680  140.3128  155.8888 H   0  0  0  0  0  0  0  0  0  0  0  0  # atno 8009 bound_to 7997
  155.3617  140.0461  157.3037 H   0  0  0  0  0  0  0  0  0  0  0  0  # atno 8010 bound_to 7997
  140.4102  144.1602  150.6139 H   0  0  0  0  0  0  0  0  0  0  0  0  # atno 10167 bound_to 10162
  157.6722  131.0816  150.5785 H   0  0  0  0  0  0  0  0  0  0  0  0  # atno 10718 bound_to 10713
  154.8750  135.3972  154.3544 H   0  0  0  0  0  0  0  0  0  0  0  0  # atno 10763 bound_to 10752
  153.4325  135.7025  153.6226 H   0  0  0  0  0  0  0  0  0  0  0  0  # atno 10764 bound_to 10752
  153.4842  135.3762  155.2427 H   0  0  0  0  0  0  0  0  0  0  0  0  # atno 10765 bound_to 10752
  140.6524  133.9393  155.8387 H   0  0  0  0  0  0  0  0  0  0  0  0  # atno 11005 bound_to 11000
  146.3520  140.0211  142.8658 LP  0  0  0  0  0  0  0  0  0  0  0  0  # atno 17320 bound_to 7965
  145.1486  140.9611  143.4446 LP  0  0  0  0  0  0  0  0  0  0  0  0  # atno 17321 bound_to 7965
  140.4646  143.2436  151.9173 LP  0  0  0  0  0  0  0  0  0  0  0  0  # atno 17342 bound_to 10162
  139.4783  144.5433  151.8496 LP  0  0  0  0  0  0  0  0  0  0  0  0  # atno 17343 bound_to 10162
  156.6086  130.4374  149.5868 LP  0  0  0  0  0  0  0  0  0  0  0  0  # atno 17370 bound_to 10713
  156.2448  130.6873  151.1590 LP  0  0  0  0  0  0  0  0  0  0  0  0  # atno 17371 bound_to 10713
  141.0527  134.0461  157.3763 LP  0  0  0  0  0  0  0  0  0  0  0  0  # atno 17394 bound_to 11000
  139.9041  135.0174  156.7406 LP  0  0  0  0  0  0  0  0  0  0  0  0  # atno 17395 bound_to 11000

$$$$
