AV-unprocessed.smi:249|AV-procd|sdf|1902|dock7
  -GOLD-   2262020583D 1   1.00000     0.00000
 Structure written by MMmdl.
 64 67  0  0  0  0  0  0  0  0  2 V2000
  145.7148  132.4766  151.7244 C   0  0  0  0  0  0  0  0  0  0  0  0
  146.5879  133.6856  151.3502 C   0  0  0  0  0  0  0  0  0  0  0  0
  147.3472  134.2513  152.5035 N   0  3  2  0  0  0  0  0  0  0  0  0
  148.2319  133.2306  153.1362 C   0  0  0  0  0  0  0  0  0  0  0  0
  149.1127  133.8302  154.2400 C   0  0  0  0  0  0  0  0  0  0  0  0
  148.2465  134.4930  155.3230 C   0  0  1  0  0  0  0  0  0  0  0  0
  149.0229  135.0115  156.4572 N   0  0  0  0  0  0  0  0  0  0  0  0
  149.4452  134.0505  157.4700 C   0  0  0  0  0  0  0  0  0  0  0  0
  149.9481  135.9664  156.1979 C   0  0  0  0  0  0  0  0  0  0  0  0
  150.2727  136.2630  154.9118 N   0  0  0  0  0  0  0  0  0  0  0  0
  151.1843  137.2056  154.6523 C   0  0  0  0  0  0  0  0  0  0  0  0
  151.8789  137.9544  155.5118 N   0  0  0  0  0  0  0  0  0  0  0  0
  151.5608  137.6502  156.8027 C   0  0  0  0  0  0  0  0  0  0  0  0
  150.6150  136.6779  157.2308 C   0  0  0  0  0  0  0  0  0  0  0  0
  150.5598  136.6449  158.6187 N   0  0  0  0  0  0  0  0  0  0  0  0
  151.4275  137.5468  158.9912 C   0  0  0  0  0  0  0  0  0  0  0  0
  152.0693  138.2020  157.9641 N   0  0  0  0  0  0  0  0  0  0  0  0
  153.0742  139.2430  158.0851 C   0  0  0  0  0  0  0  0  0  0  0  0
  152.4771  140.6287  158.4340 C   0  0  1  0  0  0  0  0  0  0  0  0
  151.0023  140.7707  157.9860 C   0  0  0  0  0  0  0  0  0  0  0  0
  150.8653  140.5838  156.5922 O   0  0  0  0  0  0  0  0  0  0  0  0
  152.6790  140.9710  159.9317 C   0  0  2  0  0  0  0  0  0  0  0  0
  152.4111  142.4193  160.3021 C   0  0  0  0  0  0  0  0  0  0  0  0
  153.1261  142.5439  161.6423 C   0  0  0  0  0  0  0  0  0  0  0  0
  154.2586  141.6881  161.5499 O   0  0  0  0  0  0  0  0  0  0  0  0
  154.1209  140.8181  160.4302 C   0  0  0  0  0  0  0  0  0  0  0  0
  147.3487  135.5457  154.6492 C   0  0  0  0  0  0  0  0  0  0  0  0
  146.4857  134.9361  153.5230 C   0  0  1  0  0  0  0  0  0  0  0  0
  145.6003  136.0506  152.9270 C   0  0  0  0  0  0  0  0  0  0  0  0
  145.3086  132.0102  150.8265 H   0  0  0  0  0  0  0  0  0  0  0  0
  144.8634  132.7518  152.3457 H   0  0  0  0  0  0  0  0  0  0  0  0
  146.2942  131.7193  152.2534 H   0  0  0  0  0  0  0  0  0  0  0  0
  147.2715  133.3267  150.5846 H   0  0  0  0  0  0  0  0  0  0  0  0
  145.9820  134.4646  150.8852 H   0  0  0  0  0  0  0  0  0  0  0  0
  147.6221  132.4221  153.5430 H   0  0  0  0  0  0  0  0  0  0  0  0
  148.8942  132.7825  152.3976 H   0  0  0  0  0  0  0  0  0  0  0  0
  149.7304  133.0429  154.6725 H   0  0  0  0  0  0  0  0  0  0  0  0
  149.7967  134.5556  153.7981 H   0  0  0  0  0  0  0  0  0  0  0  0
  147.5899  133.7268  155.7384 H   0  0  0  0  0  0  0  0  0  0  0  0
  149.8175  134.5648  158.3570 H   0  0  0  0  0  0  0  0  0  0  0  0
  150.2349  133.3980  157.0966 H   0  0  0  0  0  0  0  0  0  0  0  0
  148.6053  133.4264  157.7756 H   0  0  0  0  0  0  0  0  0  0  0  0
  151.3876  137.3850  153.6066 H   0  0  0  0  0  0  0  0  0  0  0  0
  151.6212  137.7649  160.0317 H   0  0  0  0  0  0  0  0  0  0  0  0
  153.7975  138.9400  158.8432 H   0  0  0  0  0  0  0  0  0  0  0  0
  153.6186  139.2848  157.1415 H   0  0  0  0  0  0  0  0  0  0  0  0
  153.0393  141.3679  157.8614 H   0  0  0  0  0  0  0  0  0  0  0  0
  150.3684  140.0486  158.5000 H   0  0  0  0  0  0  0  0  0  0  0  0
  150.6073  141.7523  158.2481 H   0  0  0  0  0  0  0  0  0  0  0  0
  150.0649  140.1081  156.4295 H   0  0  0  0  0  0  0  0  0  0  0  0
  152.0345  140.3362  160.5422 H   0  0  0  0  0  0  0  0  0  0  0  0
  152.8644  143.0916  159.5721 H   0  0  0  0  0  0  0  0  0  0  0  0
  151.3494  142.6568  160.3747 H   0  0  0  0  0  0  0  0  0  0  0  0
  153.4162  143.5698  161.8691 H   0  0  0  0  0  0  0  0  0  0  0  0
  152.4853  142.1856  162.4487 H   0  0  0  0  0  0  0  0  0  0  0  0
  154.3590  139.7900  160.7044 H   0  0  0  0  0  0  0  0  0  0  0  0
  154.8321  141.1353  159.6662 H   0  0  0  0  0  0  0  0  0  0  0  0
  146.7007  135.9976  155.4011 H   0  0  0  0  0  0  0  0  0  0  0  0
  147.9543  136.3529  154.2342 H   0  0  0  0  0  0  0  0  0  0  0  0
  145.8288  134.1853  153.9656 H   0  0  0  0  0  0  0  0  0  0  0  0
  145.1145  136.6245  153.7168 H   0  0  0  0  0  0  0  0  0  0  0  0
  144.7956  135.6574  152.3068 H   0  0  0  0  0  0  0  0  0  0  0  0
  146.1861  136.7495  152.3289 H   0  0  0  0  0  0  0  0  0  0  0  0
  147.9534  134.9639  152.1228 H   0  0  0  0  0  0  0  0  0  0  0  0
  1  2  1  0  0  0  0
  1 30  1  0  0  0  0
  1 31  1  0  0  0  0
  1 32  1  0  0  0  0
  2  3  1  0  0  0  0
  2 33  1  0  0  0  0
  2 34  1  0  0  0  0
  3 28  1  0  0  0  0
  3  4  1  0  0  0  0
  3 64  1  0  0  0  0
  4  5  1  0  0  0  0
  4 35  1  0  0  0  0
  4 36  1  0  0  0  0
  5  6  1  0  0  0  0
  5 37  1  0  0  0  0
  5 38  1  0  0  0  0
  6  7  1  0  0  0  0
  6 27  1  0  0  0  0
  6 39  1  0  0  0  0
  7  8  1  0  0  0  0
  7  9  1  0  0  0  0
  8 40  1  0  0  0  0
  8 41  1  0  0  0  0
  8 42  1  0  0  0  0
  9 14  1  0  0  0  0
  9 10  2  0  0  0  0
 10 11  1  0  0  0  0
 11 12  2  0  0  0  0
 11 43  1  0  0  0  0
 12 13  1  0  0  0  0
 13 17  1  0  0  0  0
 13 14  2  0  0  0  0
 14 15  1  0  0  0  0
 15 16  2  0  0  0  0
 16 17  1  0  0  0  0
 16 44  1  0  0  0  0
 17 18  1  0  0  0  0
 18 19  1  0  0  0  0
 18 45  1  0  0  0  0
 18 46  1  0  0  0  0
 19 20  1  0  0  0  0
 19 22  1  0  0  0  0
 19 47  1  0  0  0  0
 20 21  1  0  0  0  0
 20 48  1  0  0  0  0
 20 49  1  0  0  0  0
 21 50  1  0  0  0  0
 22 26  1  0  0  0  0
 22 23  1  0  0  0  0
 22 51  1  0  0  0  0
 23 24  1  0  0  0  0
 23 52  1  0  0  0  0
 23 53  1  0  0  0  0
 24 25  1  0  0  0  0
 24 54  1  0  0  0  0
 24 55  1  0  0  0  0
 25 26  1  0  0  0  0
 26 56  1  0  0  0  0
 26 57  1  0  0  0  0
 27 28  1  0  0  0  0
 27 58  1  0  0  0  0
 27 59  1  0  0  0  0
 28 29  1  0  0  0  0
 28 60  1  0  0  0  0
 29 61  1  0  0  0  0
 29 62  1  0  0  0  0
 29 63  1  0  0  0  0
M  CHG  1   3   1
M  END
> <s_m_source_file>
AV-unprocessed.smi

> <i_m_source_file_index>
249

> <i_lp_mmshare_version>
43012

> <i_f3d_flags>
0

> <s_epik_input>
W0NIM11bQ0gyXU4xW0NIMl1bQ0gyXVtDQEhdKFtDSDJdW0NASF0xW0NIM10pTihbQ0gzXSljKG5bY0hdbjIpYyhjMjMpbltjSF1uM1tDSDJdW0NASF0oW0NIMl1bT0hdKVtDQEBIXTRbQ0gyXVtDSDJdT1tDSDJdNA==

> <s_epik_cmdline>
J2VwaWtfcHl0aG9uJywgJy1waCcsICc3LjAnLCAnLXRuJywgJzgnLCAnLW1hJywgJzIwMCcsICctbWV0YWxfYmluZGluZycsICctaW1hZScsICc8aW5maWxlLm1hZT4nLCAnLW9tYWUnLCAnPG91dGZpbGUubWFlPic=

> <r_lp_tautomer_probability>
1

> <r_epik_Ionization_Penalty>
0.00294688

> <r_epik_Ionization_Penalty_Charging>
0.00169971

> <r_epik_Ionization_Penalty_Neutral>
0.00124717

> <r_epik_State_Penalty>
-0

> <r_epik_Charging_Adjusted_Penalty>
0.00169971

> <i_epik_Tot_Q>
1

> <i_epik_Tot_abs_Q>
1

> <r_epik_Metal_State_Penalty>
-0

> <b_epik_Metal_Only>
0

> <s_lp_Force_Field>
OPLS_2005

> <r_lp_Energy>
53.6229

> <b_lp_Chiralities_Consistent>
1

> <s_lp_Variant>
AV-unprocessed.smi:249-5

> <Gold.Version>
5.8.1

> <Gold.Id.Protein>
6NUR|6NUR_protein|mol2

> <Gold.PLP.Fitness>
50.0508

> <Gold.PLP.PLP>
-39.8113

> <Gold.PLP.part.hbond>
-3.0000

> <Gold.PLP.part.metal>
0.0000

> <Gold.PLP.part.buried>
-1.7865

> <Gold.PLP.part.nonpolar>
-34.0634

> <Gold.PLP.part.repulsive>
0.2172

> <Gold.PLP.ligand.clash>
0.0000

> <Gold.PLP.ligand.torsion>
1.3289

> <Gold.PLP.Chemscore.Hbond>
3.0000

> <Gold.PLP.Chemscore.CHOScore>
1.0000

> <Gold.PLP.Chemscore.Metal>
0.0000

> <Gold.Chemscore.Hbonds>
donor molecule, donor type, donor heavy atom, donor atom, acceptor molecule, acceptor atom, score
      L1  H     3    64       P1  7948  2.00
      P1  H  6896  6907       L1    15  0.94
      L1  C    11    43       P1  7949  0.97

> <Gold.PLP.Chemscore.Internal.Correction>
0.8973

> <Gold.Rescore>
     Score         DG    S(hbond)    S(metal)    S(lipo)     H(rot)  DE(clash)    DE(int)     intcor
     11.64     -14.74       1.73        0.00      93.23       2.90       0.34       2.75       ----

> <Gold.Chemscore.Fitness>
11.6422

> <Gold.Chemscore.DG>
-14.7400

> <Gold.Chemscore.ZeroCoef>
-5.4800

> <Gold.Chemscore.Hbond>
1.7299

> <Gold.Chemscore.Metal>
0.0000

> <Gold.Chemscore.Lipo>
93.2286

> <Gold.Chemscore.Internal_Hbond>
0.0000

> <Gold.Chemscore.DEClash>
0.3433

> <Gold.Chemscore.DEInternal>
2.7544

> <Gold.Chemscore.Rot>
2.9006

> <Gold.Chemscore.Internal.Correction>
   9.000000E+99

> <Gold.Chemscore.Hbonds>
donor molecule, donor type, donor heavy atom, donor atom, acceptor molecule, acceptor atom, score
      L1  H     3    64       P1  7948  0.64
      P1  H  6896  6907       L1    15  0.34

> <Gold.Chemscore.Hbond.Weighted>
-5.7779

> <Gold.Chemscore.Metal.Weighted>
-0.0000

> <Gold.Chemscore.Lipo.Weighted>
-10.9077

> <Gold.Chemscore.Internal_Hbond.Weighted>
0.0000

> <Gold.Chemscore.DEClash.Weighted>
0.3433

> <Gold.Chemscore.DEInternal.Weighted>
2.7544

> <Gold.Chemscore.Rot.Weighted>
7.4256

> <Gold.Chemscore.Internal.Correction.Weighted>
   9.000000E+99

> <Gold.Protein.RotatedTorsions>
[ 6907 6896 6895 6894 ] final  -32.74 input  -60.11 | X-H torsion
[ 7974 7965 7964 7962 ] final   78.72 input  175.53 | X-H torsion
[ 8008 7997 7996 7995 ] final -178.59 input   59.86 | X-H torsion
[ 10167 10162 10161 10158 ] final  -39.63 input  -65.29 | X-H torsion
[ 10718 10713 10712 10709 ] final  -17.43 input   66.30 | X-H torsion
[ 10763 10752 10751 10750 ] final  124.25 input  -60.55 | X-H torsion
[ 11005 11000 10999 10996 ] final  -24.64 input  -57.11 | X-H torsion

> <Gold.Protein.ActiveResidues>
 VAL166  LYS551  ARG553  GLY616  TRP617  ASP618  TYR619  PRO620  LYS621  CYS622 
 ASP623  PHE694  ASN695  SER759  ASP760  ASP761  ALA762  ILE779  LEU786  VAL792 
 PHE793  MET794  SER795  GLU796  ALA797  LYS798  CYS799  TRP800  GLU811  SER814 

> <Gold.Protein.RotatedAtoms>
  151.0748  134.9821  159.8326 H   0  0  0  0  0  0  0  0  0  0  0  0  # atno 6907 bound_to 6896
  152.5413  134.2254  159.8814 H   0  0  0  0  0  0  0  0  0  0  0  0  # atno 6908 bound_to 6896
  151.2281  133.4422  159.2636 H   0  0  0  0  0  0  0  0  0  0  0  0  # atno 6909 bound_to 6896
  145.6735  139.2503  143.1855 H   0  0  0  0  0  0  0  0  0  0  0  0  # atno 7974 bound_to 7965
  156.0206  140.1260  157.0361 H   0  0  0  0  0  0  0  0  0  0  0  0  # atno 8008 bound_to 7997
  154.4310  140.1069  156.6028 H   0  0  0  0  0  0  0  0  0  0  0  0  # atno 8009 bound_to 7997
  155.5950  140.3470  155.4579 H   0  0  0  0  0  0  0  0  0  0  0  0  # atno 8010 bound_to 7997
  140.7058  143.3203  151.2809 H   0  0  0  0  0  0  0  0  0  0  0  0  # atno 10167 bound_to 10162
  156.5736  130.4756  149.6351 H   0  0  0  0  0  0  0  0  0  0  0  0  # atno 10718 bound_to 10713
  153.6584  135.3350  155.3120 H   0  0  0  0  0  0  0  0  0  0  0  0  # atno 10763 bound_to 10752
  154.8521  135.4357  154.1831 H   0  0  0  0  0  0  0  0  0  0  0  0  # atno 10764 bound_to 10752
  153.2791  135.7007  153.7479 H   0  0  0  0  0  0  0  0  0  0  0  0  # atno 10765 bound_to 10752
  140.8864  133.7618  156.0365 H   0  0  0  0  0  0  0  0  0  0  0  0  # atno 11005 bound_to 11000
  146.1025  140.7526  142.9542 LP  0  0  0  0  0  0  0  0  0  0  0  0  # atno 17320 bound_to 7965
  144.7049  140.3810  143.7126 LP  0  0  0  0  0  0  0  0  0  0  0  0  # atno 17321 bound_to 7965
  139.6654  144.0114  152.2719 LP  0  0  0  0  0  0  0  0  0  0  0  0  # atno 17342 bound_to 10162
  139.9695  144.6503  150.8002 LP  0  0  0  0  0  0  0  0  0  0  0  0  # atno 17343 bound_to 10162
  156.2692  130.7007  151.1800 LP  0  0  0  0  0  0  0  0  0  0  0  0  # atno 17370 bound_to 10713
  157.7342  131.0583  150.5534 LP  0  0  0  0  0  0  0  0  0  0  0  0  # atno 17371 bound_to 10713
  140.8400  134.3078  157.5317 LP  0  0  0  0  0  0  0  0  0  0  0  0  # atno 17394 bound_to 11000
  139.8725  134.9411  156.3787 LP  0  0  0  0  0  0  0  0  0  0  0  0  # atno 17395 bound_to 11000

$$$$
