AV-unprocessed.smi:1627|AV-procd|sdf|6519|dock9
  -GOLD-   22720 7193D 1   1.00000     0.00000
 Structure written by MMmdl.
 44 45  0  0  0  0  0  0  0  0  2 V2000
  156.9277  135.4121  162.3624 C   0  0  0  0  0  0  0  0  0  0  0  0
  155.5760  134.9412  161.8058 C   0  0  1  0  0  0  0  0  0  0  0  0
  154.8300  134.4047  162.8948 O   0  0  0  0  0  0  0  0  0  0  0  0
  155.3781  133.2362  163.4959 C   0  0  0  0  0  0  0  0  0  0  0  0
  154.4438  132.7536  164.6120 C   0  0  0  0  0  0  0  0  0  0  0  0
  153.4529  132.0412  164.0773 F   0  0  0  0  0  0  0  0  0  0  0  0
  155.1099  131.9824  165.4710 F   0  0  0  0  0  0  0  0  0  0  0  0
  153.9217  133.7964  165.2568 F   0  0  0  0  0  0  0  0  0  0  0  0
  154.8072  136.1032  161.1560 C   0  0  0  0  0  0  0  0  0  0  0  0
  153.9984  135.8705  160.2581 O   0  0  0  0  0  0  0  0  0  0  0  0
  155.1127  137.3344  161.6063 N   0  0  0  0  0  0  0  0  0  0  0  0
  154.5715  138.5841  161.1999 C   0  0  0  0  0  0  0  0  0  0  0  0
  153.6259  138.7371  160.1567 C   0  0  0  0  0  0  0  0  0  0  0  0
  153.1382  140.0224  159.8430 C   0  0  0  0  0  0  0  0  0  0  0  0
  153.5856  141.1481  160.5751 C   0  0  0  0  0  0  0  0  0  0  0  0
  153.1306  142.4567  160.3021 N   0  0  0  0  0  0  0  0  0  0  0  0
  152.7226  142.7132  158.9189 C   0  0  0  0  0  0  0  0  0  0  0  0
  152.6526  144.2225  158.6294 C   0  0  0  0  0  0  0  0  0  0  0  0
  151.7603  144.9413  159.6517 C   0  0  0  0  0  0  0  0  0  0  0  0
  152.2497  144.6421  161.0756 C   0  0  0  0  0  0  0  0  0  0  0  0
  152.3266  143.1265  161.3282 C   0  0  0  0  0  0  0  0  0  0  0  0
  154.4841  140.9469  161.5707 N   0  3  0  0  0  0  0  0  0  0  0  0
  154.9761  139.7348  161.9058 C   0  0  0  0  0  0  0  0  0  0  0  0
  157.5494  135.8483  161.5796 H   0  0  0  0  0  0  0  0  0  0  0  0
  157.4797  134.5763  162.7926 H   0  0  0  0  0  0  0  0  0  0  0  0
  156.8014  136.1597  163.1464 H   0  0  0  0  0  0  0  0  0  0  0  0
  155.7629  134.1567  161.0699 H   0  0  0  0  0  0  0  0  0  0  0  0
  155.5066  132.4403  162.7615 H   0  0  0  0  0  0  0  0  0  0  0  0
  156.3626  133.4601  163.9095 H   0  0  0  0  0  0  0  0  0  0  0  0
  155.8632  137.3834  162.2802 H   0  0  0  0  0  0  0  0  0  0  0  0
  153.2554  137.8934  159.5953 H   0  0  0  0  0  0  0  0  0  0  0  0
  152.4324  140.1287  159.0327 H   0  0  0  0  0  0  0  0  0  0  0  0
  153.4007  142.2514  158.2029 H   0  0  0  0  0  0  0  0  0  0  0  0
  151.7436  142.2598  158.7571 H   0  0  0  0  0  0  0  0  0  0  0  0
  153.6571  144.6467  158.6605 H   0  0  0  0  0  0  0  0  0  0  0  0
  152.2765  144.3916  157.6200 H   0  0  0  0  0  0  0  0  0  0  0  0
  151.7672  146.0162  159.4683 H   0  0  0  0  0  0  0  0  0  0  0  0
  150.7270  144.6101  159.5388 H   0  0  0  0  0  0  0  0  0  0  0  0
  153.2350  145.0866  161.2227 H   0  0  0  0  0  0  0  0  0  0  0  0
  151.5878  145.1092  161.8054 H   0  0  0  0  0  0  0  0  0  0  0  0
  151.3237  142.6974  161.3319 H   0  0  0  0  0  0  0  0  0  0  0  0
  152.7555  142.9566  162.3165 H   0  0  0  0  0  0  0  0  0  0  0  0
  155.6825  139.7261  162.7233 H   0  0  0  0  0  0  0  0  0  0  0  0
  154.8048  141.7576  162.1004 H   0  0  0  0  0  0  0  0  0  0  0  0
  1  2  1  0  0  0  0
  1 24  1  0  0  0  0
  1 25  1  0  0  0  0
  1 26  1  0  0  0  0
  2  3  1  0  0  0  0
  2  9  1  0  0  0  0
  2 27  1  0  0  0  0
  3  4  1  0  0  0  0
  4  5  1  0  0  0  0
  4 28  1  0  0  0  0
  4 29  1  0  0  0  0
  5  6  1  0  0  0  0
  5  7  1  0  0  0  0
  5  8  1  0  0  0  0
  9 10  2  0  0  0  0
  9 11  1  0  0  0  0
 11 12  1  0  0  0  0
 11 30  1  0  0  0  0
 12 23  1  0  0  0  0
 12 13  2  0  0  0  0
 13 14  1  0  0  0  0
 13 31  1  0  0  0  0
 14 15  2  0  0  0  0
 14 32  1  0  0  0  0
 15 16  1  0  0  0  0
 15 22  1  0  0  0  0
 16 21  1  0  0  0  0
 16 17  1  0  0  0  0
 17 18  1  0  0  0  0
 17 33  1  0  0  0  0
 17 34  1  0  0  0  0
 18 19  1  0  0  0  0
 18 35  1  0  0  0  0
 18 36  1  0  0  0  0
 19 20  1  0  0  0  0
 19 37  1  0  0  0  0
 19 38  1  0  0  0  0
 20 21  1  0  0  0  0
 20 39  1  0  0  0  0
 20 40  1  0  0  0  0
 21 41  1  0  0  0  0
 21 42  1  0  0  0  0
 22 23  2  0  0  0  0
 22 44  1  0  0  0  0
 23 43  1  0  0  0  0
M  CHG  1  22   1
M  END
> <s_m_source_file>
AV-unprocessed.smi

> <i_m_source_file_index>
1627

> <i_lp_mmshare_version>
43012

> <i_f3d_flags>
0

> <s_epik_input>
RkMoRikoRilbQ0gyXU9bQ0BASF0oW0NIM10pQyg9TylbTkhdYzFbY0hdW2NIXWMobltjSF0xKU4yW0NIMl1bQ0gyXVtDSDJdW0NIMl1bQ0gyXTI=

> <s_epik_cmdline>
J2VwaWtfcHl0aG9uJywgJy1waCcsICc3LjAnLCAnLXRuJywgJzgnLCAnLW1hJywgJzIwMCcsICctbWV0YWxfYmluZGluZycsICctaW1hZScsICc8aW5maWxlLm1hZT4nLCAnLW9tYWUnLCAnPG91dGZpbGUubWFlPic=

> <r_lp_tautomer_probability>
0.999994

> <r_epik_Ionization_Penalty>
1.93197

> <r_epik_Ionization_Penalty_Charging>
1.93197

> <r_epik_Ionization_Penalty_Neutral>
3.16684e-06

> <r_epik_State_Penalty>
2.05557

> <r_epik_Charging_Adjusted_Penalty>
3.98754

> <i_epik_Tot_Q>
1

> <i_epik_Tot_abs_Q>
1

> <r_epik_Metal_State_Penalty>
2.08108

> <b_epik_Metal_Only>
0

> <s_lp_Force_Field>
OPLS_2005

> <r_lp_Energy>
31.3841

> <b_lp_Chiralities_Consistent>
1

> <s_lp_Variant>
AV-unprocessed.smi:1627-4

> <Gold.Version>
5.8.1

> <Gold.Id.Protein>
6NUR|6NUR_protein|mol2

> <Gold.PLP.Fitness>
46.1777

> <Gold.PLP.PLP>
-45.6289

> <Gold.PLP.part.hbond>
-1.2115

> <Gold.PLP.part.metal>
0.0000

> <Gold.PLP.part.buried>
-6.2505

> <Gold.PLP.part.nonpolar>
-37.8819

> <Gold.PLP.part.repulsive>
0.0000

> <Gold.PLP.ligand.clash>
0.0087

> <Gold.PLP.ligand.torsion>
1.4848

> <Gold.PLP.Chemscore.Hbond>
1.0000

> <Gold.PLP.Chemscore.CHOScore>
0.0000

> <Gold.PLP.Chemscore.Metal>
0.0000

> <Gold.Chemscore.Hbonds>
donor molecule, donor type, donor heavy atom, donor atom, acceptor molecule, acceptor atom, score
      P1  H  6896  6909       L1    10  1.00

> <Gold.PLP.Chemscore.Internal.Correction>
0.5271

> <Gold.Rescore>
     Score         DG    S(hbond)    S(metal)    S(lipo)     H(rot)  DE(clash)    DE(int)     intcor
     13.59     -16.39       1.00        0.00     106.40       1.90       0.06       2.74       ----

> <Gold.Chemscore.Fitness>
13.5851

> <Gold.Chemscore.DG>
-16.3872

> <Gold.Chemscore.ZeroCoef>
-5.4800

> <Gold.Chemscore.Hbond>
0.9953

> <Gold.Chemscore.Metal>
0.0000

> <Gold.Chemscore.Lipo>
106.3979

> <Gold.Chemscore.Internal_Hbond>
0.0000

> <Gold.Chemscore.DEClash>
0.0609

> <Gold.Chemscore.DEInternal>
2.7413

> <Gold.Chemscore.Rot>
1.9007

> <Gold.Chemscore.Internal.Correction>
   9.000000E+99

> <Gold.Chemscore.Hbonds>
donor molecule, donor type, donor heavy atom, donor atom, acceptor molecule, acceptor atom, score
      P1  H  6896  6909       L1    10  0.98

> <Gold.Chemscore.Hbond.Weighted>
-3.3244

> <Gold.Chemscore.Metal.Weighted>
-0.0000

> <Gold.Chemscore.Lipo.Weighted>
-12.4486

> <Gold.Chemscore.Internal_Hbond.Weighted>
0.0000

> <Gold.Chemscore.DEClash.Weighted>
0.0609

> <Gold.Chemscore.DEInternal.Weighted>
2.7413

> <Gold.Chemscore.Rot.Weighted>
4.8657

> <Gold.Chemscore.Internal.Correction.Weighted>
   9.000000E+99

> <Gold.Protein.RotatedTorsions>
[ 6907 6896 6895 6894 ] final -179.20 input  -60.11 | X-H torsion
[ 7974 7965 7964 7962 ] final  169.56 input  175.53 | X-H torsion
[ 8008 7997 7996 7995 ] final  110.48 input   59.86 | X-H torsion
[ 10167 10162 10161 10158 ] final   65.25 input  -65.29 | X-H torsion
[ 10718 10713 10712 10709 ] final  127.87 input   66.30 | X-H torsion
[ 10763 10752 10751 10750 ] final   87.07 input  -60.55 | X-H torsion
[ 11005 11000 10999 10996 ] final -127.19 input  -57.11 | X-H torsion

> <Gold.Protein.ActiveResidues>
 VAL166  LYS551  ARG553  GLY616  TRP617  ASP618  TYR619  PRO620  LYS621  CYS622 
 ASP623  PHE694  ASN695  SER759  ASP760  ASP761  ALA762  ILE779  LEU786  VAL792 
 PHE793  MET794  SER795  GLU796  ALA797  LYS798  CYS799  TRP800  GLU811  SER814 

> <Gold.Protein.RotatedAtoms>
  151.6495  133.3321  159.3148 H   0  0  0  0  0  0  0  0  0  0  0  0  # atno 6907 bound_to 6896
  150.7967  134.7036  159.6573 H   0  0  0  0  0  0  0  0  0  0  0  0  # atno 6908 bound_to 6896
  152.4055  134.6218  160.0104 H   0  0  0  0  0  0  0  0  0  0  0  0  # atno 6909 bound_to 6896
  144.7351  139.9072  143.6413 H   0  0  0  0  0  0  0  0  0  0  0  0  # atno 7974 bound_to 7965
  156.2056  140.3038  155.9619 H   0  0  0  0  0  0  0  0  0  0  0  0  # atno 8008 bound_to 7997
  155.2850  140.0439  157.3035 H   0  0  0  0  0  0  0  0  0  0  0  0  # atno 8009 bound_to 7997
  154.5628  140.2325  155.8318 H   0  0  0  0  0  0  0  0  0  0  0  0  # atno 8010 bound_to 7997
  140.1133  144.4798  150.6964 H   0  0  0  0  0  0  0  0  0  0  0  0  # atno 10167 bound_to 10162
  157.5295  131.1098  150.9032 H   0  0  0  0  0  0  0  0  0  0  0  0  # atno 10718 bound_to 10713
  153.1632  135.4557  154.9801 H   0  0  0  0  0  0  0  0  0  0  0  0  # atno 10763 bound_to 10752
  154.7913  135.3221  154.7774 H   0  0  0  0  0  0  0  0  0  0  0  0  # atno 10764 bound_to 10752
  153.8260  135.6942  153.4875 H   0  0  0  0  0  0  0  0  0  0  0  0  # atno 10765 bound_to 10752
  140.9620  134.0923  157.3959 H   0  0  0  0  0  0  0  0  0  0  0  0  # atno 11005 bound_to 11000
  146.1028  139.4025  143.0336 LP  0  0  0  0  0  0  0  0  0  0  0  0  # atno 17320 bound_to 7965
  145.7554  140.9956  143.1228 LP  0  0  0  0  0  0  0  0  0  0  0  0  # atno 17321 bound_to 7965
  140.6913  143.2378  151.5122 LP  0  0  0  0  0  0  0  0  0  0  0  0  # atno 17342 bound_to 10162
  139.5607  144.2163  152.1687 LP  0  0  0  0  0  0  0  0  0  0  0  0  # atno 17343 bound_to 10162
  156.9617  130.5458  149.5286 LP  0  0  0  0  0  0  0  0  0  0  0  0  # atno 17370 bound_to 10713
  156.0411  130.5494  150.8773 LP  0  0  0  0  0  0  0  0  0  0  0  0  # atno 17371 bound_to 10713
  139.8881  135.0095  156.6602 LP  0  0  0  0  0  0  0  0  0  0  0  0  # atno 17394 bound_to 11000
  140.7454  133.8942  155.8308 LP  0  0  0  0  0  0  0  0  0  0  0  0  # atno 17395 bound_to 11000

$$$$
