AV-unprocessed.smi:3149|AV-procd|sdf|12002|dock6
  -GOLD-   2272017403D 1   1.00000     0.00000
 Structure written by MMmdl.
 38 39  0  0  0  0  0  0  0  0  2 V2000
  150.7213  140.1300  155.6340 C   0  0  0  0  0  0  0  0  0  0  0  0
  149.5398  141.1109  155.7627 C   0  0  1  0  0  0  0  0  0  0  0  0
  150.0215  142.4196  156.2643 N   0  3  0  0  0  0  0  0  0  0  0  0
  150.0152  142.5800  157.7333 C   0  0  0  0  0  0  0  0  0  0  0  0
  151.4301  142.4788  158.3104 C   0  0  0  0  0  0  0  0  0  0  0  0
  152.1055  141.4634  158.1393 O   0  0  0  0  0  0  0  0  0  0  0  0
  151.9468  143.6093  158.9465 N   0  0  0  0  0  0  0  0  0  0  0  0
  152.8048  143.4983  160.1167 C   0  0  0  0  0  0  0  0  0  0  0  0
  152.2195  144.8495  160.5398 C   0  0  0  0  0  0  0  0  0  0  0  0
  151.0687  144.5941  159.5606 C   0  0  0  0  0  0  0  0  0  0  0  0
  148.7825  141.3069  154.4202 C   0  0  1  0  0  0  0  0  0  0  0  0
  148.5364  139.9888  153.6628 C   0  0  0  0  0  0  0  0  0  0  0  0
  147.5122  142.0003  154.6087 N   0  0  0  0  0  0  0  0  0  0  0  0
  146.6190  142.4183  153.6433 C   0  0  0  0  0  0  0  0  0  0  0  0
  145.5653  143.0020  154.2861 C   0  0  0  0  0  0  0  0  0  0  0  0
  145.8999  142.8818  155.6633 C   0  0  0  0  0  0  0  0  0  0  0  0
  147.0617  142.2781  155.8534 N   0  0  0  0  0  0  0  0  0  0  0  0
  150.3885  139.1346  155.3416 H   0  0  0  0  0  0  0  0  0  0  0  0
  151.2520  140.0114  156.5783 H   0  0  0  0  0  0  0  0  0  0  0  0
  151.4420  140.4723  154.8905 H   0  0  0  0  0  0  0  0  0  0  0  0
  148.8370  140.7060  156.4927 H   0  0  0  0  0  0  0  0  0  0  0  0
  150.9504  142.5948  155.9093 H   0  0  0  0  0  0  0  0  0  0  0  0
  149.6025  143.5551  157.9950 H   0  0  0  0  0  0  0  0  0  0  0  0
  149.3785  141.8180  158.1826 H   0  0  0  0  0  0  0  0  0  0  0  0
  152.5275  142.6825  160.7877 H   0  0  0  0  0  0  0  0  0  0  0  0
  153.8717  143.5169  159.8914 H   0  0  0  0  0  0  0  0  0  0  0  0
  151.9153  144.8978  161.5858 H   0  0  0  0  0  0  0  0  0  0  0  0
  152.8453  145.6992  160.2599 H   0  0  0  0  0  0  0  0  0  0  0  0
  150.8263  145.4372  158.9125 H   0  0  0  0  0  0  0  0  0  0  0  0
  150.1871  144.1608  160.0377 H   0  0  0  0  0  0  0  0  0  0  0  0
  149.3939  141.9441  153.7790 H   0  0  0  0  0  0  0  0  0  0  0  0
  149.4685  139.5228  153.3453 H   0  0  0  0  0  0  0  0  0  0  0  0
  147.9467  140.1610  152.7616 H   0  0  0  0  0  0  0  0  0  0  0  0
  147.9947  139.2704  154.2791 H   0  0  0  0  0  0  0  0  0  0  0  0
  146.8049  142.2686  152.5898 H   0  0  0  0  0  0  0  0  0  0  0  0
  144.6857  143.4423  153.8401 H   0  0  0  0  0  0  0  0  0  0  0  0
  145.3361  143.2103  156.5239 H   0  0  0  0  0  0  0  0  0  0  0  0
  149.4022  143.1281  155.8960 H   0  0  0  0  0  0  0  0  0  0  0  0
  1  2  1  0  0  0  0
  1 18  1  0  0  0  0
  1 19  1  0  0  0  0
  1 20  1  0  0  0  0
  2  3  1  0  0  0  0
  2 11  1  0  0  0  0
  2 21  1  0  0  0  0
  3  4  1  0  0  0  0
  3 22  1  0  0  0  0
  3 38  1  0  0  0  0
  4  5  1  0  0  0  0
  4 23  1  0  0  0  0
  4 24  1  0  0  0  0
  5  6  2  0  0  0  0
  5  7  1  0  0  0  0
  7 10  1  0  0  0  0
  7  8  1  0  0  0  0
  8  9  1  0  0  0  0
  8 25  1  0  0  0  0
  8 26  1  0  0  0  0
  9 10  1  0  0  0  0
  9 27  1  0  0  0  0
  9 28  1  0  0  0  0
 10 29  1  0  0  0  0
 10 30  1  0  0  0  0
 11 12  1  0  0  0  0
 11 13  1  0  0  0  0
 11 31  1  0  0  0  0
 12 32  1  0  0  0  0
 12 33  1  0  0  0  0
 12 34  1  0  0  0  0
 13 17  1  0  0  0  0
 13 14  1  0  0  0  0
 14 15  2  0  0  0  0
 14 35  1  0  0  0  0
 15 16  1  0  0  0  0
 15 36  1  0  0  0  0
 16 17  2  0  0  0  0
 16 37  1  0  0  0  0
M  CHG  1   3   1
M  END
> <s_m_source_file>
AV-unprocessed.smi

> <i_m_source_file_index>
3149

> <i_lp_mmshare_version>
43012

> <i_f3d_flags>
0

> <s_epik_input>
bjFbY0hdW2NIXVtjSF1uMVtDQEBIXShbQ0gzXSlbQ0BIXShbQ0gzXSlbTkhdW0NIMl1DKD1PKU4yW0NIMl1bQ0gyXVtDSDJdMg==

> <s_epik_cmdline>
J2VwaWtfcHl0aG9uJywgJy1waCcsICc3LjAnLCAnLXRuJywgJzgnLCAnLW1hJywgJzIwMCcsICctbWV0YWxfYmluZGluZycsICctaW1hZScsICc8aW5maWxlLm1hZT4nLCAnLW9tYWUnLCAnPG91dGZpbGUubWFlPic=

> <r_lp_tautomer_probability>
1

> <r_epik_Ionization_Penalty>
0.141739

> <r_epik_Ionization_Penalty_Charging>
0.141731

> <r_epik_Ionization_Penalty_Neutral>
8.82171e-06

> <r_epik_State_Penalty>
0.131043

> <r_epik_Charging_Adjusted_Penalty>
0.272773

> <i_epik_Tot_Q>
1

> <i_epik_Tot_abs_Q>
1

> <r_epik_Metal_State_Penalty>
0.131384

> <b_epik_Metal_Only>
0

> <s_lp_Force_Field>
OPLS_2005

> <r_lp_Energy>
20.424

> <b_lp_Chiralities_Consistent>
1

> <s_lp_Variant>
AV-unprocessed.smi:3149-4

> <Gold.Version>
5.8.1

> <Gold.Id.Protein>
6NUR|6NUR_protein|mol2

> <Gold.PLP.Fitness>
41.7480

> <Gold.PLP.PLP>
-37.4932

> <Gold.PLP.part.hbond>
-1.0000

> <Gold.PLP.part.metal>
0.0000

> <Gold.PLP.part.buried>
-2.0470

> <Gold.PLP.part.nonpolar>
-34.1836

> <Gold.PLP.part.repulsive>
0.9214

> <Gold.PLP.ligand.clash>
0.0000

> <Gold.PLP.ligand.torsion>
1.3675

> <Gold.PLP.Chemscore.Hbond>
2.0000

> <Gold.PLP.Chemscore.CHOScore>
0.0000

> <Gold.PLP.Chemscore.Metal>
0.0000

> <Gold.Chemscore.Hbonds>
donor molecule, donor type, donor heavy atom, donor atom, acceptor molecule, acceptor atom, score
      L1  H     3    38       P1  8028  2.00

> <Gold.PLP.Chemscore.Internal.Correction>
0.9897

> <Gold.Rescore>
     Score         DG    S(hbond)    S(metal)    S(lipo)     H(rot)  DE(clash)    DE(int)     intcor
     10.65     -13.31       0.88        0.00      82.38       1.85       0.31       2.36       ----

> <Gold.Chemscore.Fitness>
10.6482

> <Gold.Chemscore.DG>
-13.3130

> <Gold.Chemscore.ZeroCoef>
-5.4800

> <Gold.Chemscore.Hbond>
0.8807

> <Gold.Chemscore.Metal>
0.0000

> <Gold.Chemscore.Lipo>
82.3819

> <Gold.Chemscore.Internal_Hbond>
0.0000

> <Gold.Chemscore.DEClash>
0.3070

> <Gold.Chemscore.DEInternal>
2.3578

> <Gold.Chemscore.Rot>
1.8544

> <Gold.Chemscore.Internal.Correction>
   9.000000E+99

> <Gold.Chemscore.Hbonds>
donor molecule, donor type, donor heavy atom, donor atom, acceptor molecule, acceptor atom, score
      L1  H     3    38       P1  8028  0.98

> <Gold.Chemscore.Hbond.Weighted>
-2.9415

> <Gold.Chemscore.Metal.Weighted>
-0.0000

> <Gold.Chemscore.Lipo.Weighted>
-9.6387

> <Gold.Chemscore.Internal_Hbond.Weighted>
0.0000

> <Gold.Chemscore.DEClash.Weighted>
0.3070

> <Gold.Chemscore.DEInternal.Weighted>
2.3578

> <Gold.Chemscore.Rot.Weighted>
4.7472

> <Gold.Chemscore.Internal.Correction.Weighted>
   9.000000E+99

> <Gold.Protein.RotatedTorsions>
[ 6907 6896 6895 6894 ] final -172.92 input  -60.11 | X-H torsion
[ 7974 7965 7964 7962 ] final -100.36 input  175.53 | X-H torsion
[ 8008 7997 7996 7995 ] final  -43.86 input   59.86 | X-H torsion
[ 10167 10162 10161 10158 ] final -158.51 input  -65.29 | X-H torsion
[ 10718 10713 10712 10709 ] final -124.95 input   66.30 | X-H torsion
[ 10763 10752 10751 10750 ] final  -21.63 input  -60.55 | X-H torsion
[ 11005 11000 10999 10996 ] final -143.79 input  -57.11 | X-H torsion

> <Gold.Protein.ActiveResidues>
 VAL166  LYS551  ARG553  GLY616  TRP617  ASP618  TYR619  PRO620  LYS621  CYS622 
 ASP623  PHE694  ASN695  SER759  ASP760  ASP761  ALA762  ILE779  LEU786  VAL792 
 PHE793  MET794  SER795  GLU796  ALA797  LYS798  CYS799  TRP800  GLU811  SER814 

> <Gold.Protein.RotatedAtoms>
  151.5478  133.3422  159.2947 H   0  0  0  0  0  0  0  0  0  0  0  0  # atno 6907 bound_to 6896
  150.8497  134.7820  159.7010 H   0  0  0  0  0  0  0  0  0  0  0  0  # atno 6908 bound_to 6896
  152.4546  134.5328  159.9867 H   0  0  0  0  0  0  0  0  0  0  0  0  # atno 6909 bound_to 6896
  145.2956  140.9364  143.2853 H   0  0  0  0  0  0  0  0  0  0  0  0  # atno 7974 bound_to 7965
  154.3997  140.1437  156.3588 H   0  0  0  0  0  0  0  0  0  0  0  0  # atno 8008 bound_to 7997
  155.8200  140.3470  155.5488 H   0  0  0  0  0  0  0  0  0  0  0  0  # atno 8009 bound_to 7997
  155.8297  140.0910  157.1790 H   0  0  0  0  0  0  0  0  0  0  0  0  # atno 8010 bound_to 7997
  139.6687  143.9784  152.2270 H   0  0  0  0  0  0  0  0  0  0  0  0  # atno 10167 bound_to 10162
  156.1632  130.6616  151.0079 H   0  0  0  0  0  0  0  0  0  0  0  0  # atno 10718 bound_to 10713
  153.6392  135.6986  153.5247 H   0  0  0  0  0  0  0  0  0  0  0  0  # atno 10763 bound_to 10752
  153.2796  135.4190  155.1065 H   0  0  0  0  0  0  0  0  0  0  0  0  # atno 10764 bound_to 10752
  154.8504  135.3598  154.5936 H   0  0  0  0  0  0  0  0  0  0  0  0  # atno 10765 bound_to 10752
  140.8090  134.2767  157.4949 H   0  0  0  0  0  0  0  0  0  0  0  0  # atno 11005 bound_to 11000
  144.9136  139.4498  143.6575 LP  0  0  0  0  0  0  0  0  0  0  0  0  # atno 17320 bound_to 7965
  146.3170  139.7958  142.8976 LP  0  0  0  0  0  0  0  0  0  0  0  0  # atno 17321 bound_to 7965
  139.9542  144.6600  150.8142 LP  0  0  0  0  0  0  0  0  0  0  0  0  # atno 17342 bound_to 10162
  140.7609  143.3163  151.2726 LP  0  0  0  0  0  0  0  0  0  0  0  0  # atno 17343 bound_to 10162
  157.6748  131.0853  150.7521 LP  0  0  0  0  0  0  0  0  0  0  0  0  # atno 17370 bound_to 10713
  156.7583  130.4790  149.5442 LP  0  0  0  0  0  0  0  0  0  0  0  0  # atno 17371 bound_to 10713
  139.8715  134.9472  156.3961 LP  0  0  0  0  0  0  0  0  0  0  0  0  # atno 17394 bound_to 11000
  140.9217  133.7640  155.9915 LP  0  0  0  0  0  0  0  0  0  0  0  0  # atno 17395 bound_to 11000

$$$$
