AV-unprocessed.smi:1552|AV-procd|sdf|6237|dock1
  -GOLD-   22720 6413D 1   1.00000     0.00000
 Structure written by MMmdl.
 49 50  0  0  0  0  0  0  0  0  3 V2000
  142.3879  135.1614  153.7453 C   0  0  0  0  0  0  0  0  0  0  0  0
  143.6383  134.7012  154.3911 N   0  3  0  0  0  0  0  0  0  0  0  0
  143.7264  135.1767  155.7944 C   0  0  0  0  0  0  0  0  0  0  0  0
  144.8484  134.9258  153.5381 C   0  0  1  0  0  0  0  0  0  0  0  0
  146.1264  135.2548  154.3517 C   0  0  0  0  0  0  0  0  0  0  0  0
  146.8986  136.3281  153.7375 N   0  0  0  0  0  0  0  0  0  0  0  0
  147.1179  137.5503  154.2476 C   0  0  0  0  0  0  0  0  0  0  0  0
  146.6270  137.8744  155.3277 O   0  0  0  0  0  0  0  0  0  0  0  0
  147.9655  138.5596  153.4477 C   0  0  0  0  0  0  0  0  0  0  0  0
  149.3033  138.7700  154.0235 N   0  0  0  0  0  0  0  0  0  0  0  0
  150.0949  137.6360  154.2763 C   0  0  0  0  0  0  0  0  0  0  0  0
  151.3311  137.7357  154.8010 C   0  0  0  0  0  0  0  0  0  0  0  0
  151.8454  139.0646  155.1093 C   0  0  0  0  0  0  0  0  0  0  0  0
  152.9699  139.1740  155.5941 O   0  0  0  0  0  0  0  0  0  0  0  0
  151.0410  140.1345  154.8407 N   0  5  0  0  0  0  0  0  0  0  0  0
  149.7867  140.0181  154.3043 C   0  0  0  0  0  0  0  0  0  0  0  0
  149.0769  140.9967  154.0671 O   0  0  0  0  0  0  0  0  0  0  0  0
  145.0255  133.7939  152.4847 C   0  0  0  0  0  0  0  0  0  0  0  0
  146.3080  133.9774  151.6426 C   0  0  0  0  0  0  0  0  0  0  0  0
  146.5336  132.7933  150.6879 C   0  0  0  0  0  0  0  0  0  0  0  0
  145.3130  132.5628  149.7840 C   0  0  0  0  0  0  0  0  0  0  0  0
  144.0348  132.3766  150.6161 C   0  0  0  0  0  0  0  0  0  0  0  0
  143.8085  133.5686  151.5598 C   0  0  0  0  0  0  0  0  0  0  0  0
  142.4006  136.2419  153.5963 H   0  0  0  0  0  0  0  0  0  0  0  0
  141.5213  134.9111  154.3581 H   0  0  0  0  0  0  0  0  0  0  0  0
  142.2513  134.6811  152.7758 H   0  0  0  0  0  0  0  0  0  0  0  0
  143.6922  136.2656  155.8489 H   0  0  0  0  0  0  0  0  0  0  0  0
  144.6381  134.8406  156.2856 H   0  0  0  0  0  0  0  0  0  0  0  0
  142.8864  134.7916  156.3733 H   0  0  0  0  0  0  0  0  0  0  0  0
  144.6535  135.8210  152.9442 H   0  0  0  0  0  0  0  0  0  0  0  0
  145.8473  135.5658  155.3597 H   0  0  0  0  0  0  0  0  0  0  0  0
  146.7660  134.3771  154.4484 H   0  0  0  0  0  0  0  0  0  0  0  0
  147.3034  136.1317  152.8333 H   0  0  0  0  0  0  0  0  0  0  0  0
  148.0755  138.2444  152.4096 H   0  0  0  0  0  0  0  0  0  0  0  0
  147.4171  139.5017  153.4043 H   0  0  0  0  0  0  0  0  0  0  0  0
  149.6422  136.6909  154.0142 H   0  0  0  0  0  0  0  0  0  0  0  0
  151.9281  136.8549  154.9866 H   0  0  0  0  0  0  0  0  0  0  0  0
  145.1685  132.8653  153.0387 H   0  0  0  0  0  0  0  0  0  0  0  0
  146.2479  134.8980  151.0611 H   0  0  0  0  0  0  0  0  0  0  0  0
  147.1747  134.0817  152.2962 H   0  0  0  0  0  0  0  0  0  0  0  0
  147.4193  132.9718  150.0771 H   0  0  0  0  0  0  0  0  0  0  0  0
  146.7349  131.8904  151.2660 H   0  0  0  0  0  0  0  0  0  0  0  0
  145.1907  133.4118  149.1102 H   0  0  0  0  0  0  0  0  0  0  0  0
  145.4775  131.6889  149.1532 H   0  0  0  0  0  0  0  0  0  0  0  0
  143.1762  132.2573  149.9546 H   0  0  0  0  0  0  0  0  0  0  0  0
  144.1062  131.4564  151.1974 H   0  0  0  0  0  0  0  0  0  0  0  0
  142.9069  133.3939  152.1469 H   0  0  0  0  0  0  0  0  0  0  0  0
  143.6254  134.4568  150.9555 H   0  0  0  0  0  0  0  0  0  0  0  0
  143.5458  133.6970  154.4485 H   0  0  0  0  0  0  0  0  0  0  0  0
  1  2  1  0  0  0  0
  1 24  1  0  0  0  0
  1 25  1  0  0  0  0
  1 26  1  0  0  0  0
  2  3  1  0  0  0  0
  2  4  1  0  0  0  0
  2 49  1  0  0  0  0
  3 27  1  0  0  0  0
  3 28  1  0  0  0  0
  3 29  1  0  0  0  0
  4  5  1  0  0  0  0
  4 18  1  0  0  0  0
  4 30  1  0  0  0  0
  5  6  1  0  0  0  0
  5 31  1  0  0  0  0
  5 32  1  0  0  0  0
  6  7  1  0  0  0  0
  6 33  1  0  0  0  0
  7  8  2  0  0  0  0
  7  9  1  0  0  0  0
  9 10  1  0  0  0  0
  9 34  1  0  0  0  0
  9 35  1  0  0  0  0
 10 16  1  0  0  0  0
 10 11  1  0  0  0  0
 11 12  2  0  0  0  0
 11 36  1  0  0  0  0
 12 13  1  0  0  0  0
 12 37  1  0  0  0  0
 13 14  2  0  0  0  0
 13 15  1  0  0  0  0
 15 16  1  0  0  0  0
 16 17  2  0  0  0  0
 18 23  1  0  0  0  0
 18 19  1  0  0  0  0
 18 38  1  0  0  0  0
 19 20  1  0  0  0  0
 19 39  1  0  0  0  0
 19 40  1  0  0  0  0
 20 21  1  0  0  0  0
 20 41  1  0  0  0  0
 20 42  1  0  0  0  0
 21 22  1  0  0  0  0
 21 43  1  0  0  0  0
 21 44  1  0  0  0  0
 22 23  1  0  0  0  0
 22 45  1  0  0  0  0
 22 46  1  0  0  0  0
 23 47  1  0  0  0  0
 23 48  1  0  0  0  0
M  CHG  1   2   1
M  CHG  1  15  -1
M  END
> <s_m_source_file>
AV-unprocessed.smi

> <i_m_source_file_index>
1552

> <i_lp_mmshare_version>
43012

> <i_f3d_flags>
0

> <s_epik_input>
W0NIMl0xW0NIMl1bQ0gyXVtDSDJdW0NIMl1bQ0hdMVtDQEhdKE4oW0NIM10pW0NIM10pW0NIMl1bTkhdQyg9TylbQ0gyXW4yW2NIXVtjSF1jKD1PKVtuSF1jMj1P

> <s_epik_cmdline>
J2VwaWtfcHl0aG9uJywgJy1waCcsICc3LjAnLCAnLXRuJywgJzgnLCAnLW1hJywgJzIwMCcsICctbWV0YWxfYmluZGluZycsICctaW1hZScsICc8aW5maWxlLm1hZT4nLCAnLW9tYWUnLCAnPG91dGZpbGUubWFlPic=

> <r_lp_tautomer_probability>
1

> <r_epik_Ionization_Penalty>
2.93575

> <r_epik_Ionization_Penalty_Charging>
0.00331645

> <r_epik_Ionization_Penalty_Neutral>
2.93244

> <r_epik_State_Penalty>
2.92822

> <r_epik_Charging_Adjusted_Penalty>
2.93154

> <i_epik_Tot_Q>
0

> <i_epik_Tot_abs_Q>
2

> <r_epik_Metal_State_Penalty>
0.448509

> <b_epik_Metal_Only>
1

> <s_lp_Force_Field>
OPLS_2005

> <r_lp_Energy>
36.4882

> <b_lp_Chiralities_Consistent>
1

> <s_lp_Variant>
AV-unprocessed.smi:1552-4

> <Gold.Version>
5.8.1

> <Gold.Id.Protein>
6NUR|6NUR_protein|mol2

> <Gold.PLP.Fitness>
49.4231

> <Gold.PLP.PLP>
-35.6231

> <Gold.PLP.part.hbond>
-4.0000

> <Gold.PLP.part.metal>
0.0000

> <Gold.PLP.part.buried>
-1.9450

> <Gold.PLP.part.nonpolar>
-29.9778

> <Gold.PLP.part.repulsive>
0.2244

> <Gold.PLP.ligand.clash>
0.0000

> <Gold.PLP.ligand.torsion>
1.6605

> <Gold.PLP.Chemscore.Hbond>
4.6655

> <Gold.PLP.Chemscore.CHOScore>
0.8515

> <Gold.PLP.Chemscore.Metal>
0.0000

> <Gold.Chemscore.Hbonds>
donor molecule, donor type, donor heavy atom, donor atom, acceptor molecule, acceptor atom, score
      L1  H     2    49       P1 10957  1.40
      L1  H     6    33       P1  7948  0.86
      P1  H  7989  7998       L1    15  0.65
      P1  H  7997  8008       L1    14  1.00
      P1  H  8011  8017       L1    17  0.17
      L1  C    11    36       P1  7948  0.83

> <Gold.PLP.Chemscore.Internal.Correction>
0.5700

> <Gold.Rescore>
     Score         DG    S(hbond)    S(metal)    S(lipo)     H(rot)  DE(clash)    DE(int)     intcor
     15.57     -17.51       3.09        0.00      67.86       2.43       0.14       1.80       ----

> <Gold.Chemscore.Fitness>
15.5672

> <Gold.Chemscore.DG>
-17.5100

> <Gold.Chemscore.ZeroCoef>
-5.4800

> <Gold.Chemscore.Hbond>
3.0874

> <Gold.Chemscore.Metal>
0.0000

> <Gold.Chemscore.Lipo>
67.8643

> <Gold.Chemscore.Internal_Hbond>
0.0000

> <Gold.Chemscore.DEClash>
0.1434

> <Gold.Chemscore.DEInternal>
1.7993

> <Gold.Chemscore.Rot>
2.4305

> <Gold.Chemscore.Internal.Correction>
   9.000000E+99

> <Gold.Chemscore.Hbonds>
donor molecule, donor type, donor heavy atom, donor atom, acceptor molecule, acceptor atom, score
      L1  H     2    49       P1 10957  0.70
      L1  H     6    33       P1  7948  0.85
      P1  H  7989  7998       L1    15  0.03
      P1  H  7997  8008       L1    14  1.00
      P1  H  8011  8017       L1    17  0.17

> <Gold.Chemscore.Hbond.Weighted>
-10.3119

> <Gold.Chemscore.Metal.Weighted>
-0.0000

> <Gold.Chemscore.Lipo.Weighted>
-7.9401

> <Gold.Chemscore.Internal_Hbond.Weighted>
0.0000

> <Gold.Chemscore.DEClash.Weighted>
0.1434

> <Gold.Chemscore.DEInternal.Weighted>
1.7993

> <Gold.Chemscore.Rot.Weighted>
6.2220

> <Gold.Chemscore.Internal.Correction.Weighted>
   9.000000E+99

> <Gold.Protein.RotatedTorsions>
[ 6907 6896 6895 6894 ] final -153.79 input  -60.11 | X-H torsion
[ 7974 7965 7964 7962 ] final  152.97 input  175.53 | X-H torsion
[ 8008 7997 7996 7995 ] final  -25.91 input   59.86 | X-H torsion
[ 10167 10162 10161 10158 ] final  -23.54 input  -65.29 | X-H torsion
[ 10718 10713 10712 10709 ] final    5.05 input   66.30 | X-H torsion
[ 10763 10752 10751 10750 ] final  145.71 input  -60.55 | X-H torsion
[ 11005 11000 10999 10996 ] final  -69.78 input  -57.11 | X-H torsion

> <Gold.Protein.ActiveResidues>
 VAL166  LYS551  ARG553  GLY616  TRP617  ASP618  TYR619  PRO620  LYS621  CYS622 
 ASP623  PHE694  ASN695  SER759  ASP760  ASP761  ALA762  ILE779  LEU786  VAL792 
 PHE793  MET794  SER795  GLU796  ALA797  LYS798  CYS799  TRP800  GLU811  SER814 

> <Gold.Protein.RotatedAtoms>
  151.2478  133.4366  159.2609 H   0  0  0  0  0  0  0  0  0  0  0  0  # atno 6907 bound_to 6896
  151.0645  134.9759  159.8288 H   0  0  0  0  0  0  0  0  0  0  0  0  # atno 6908 bound_to 6896
  152.5403  134.2426  159.8921 H   0  0  0  0  0  0  0  0  0  0  0  0  # atno 6909 bound_to 6896
  144.8186  139.6739  143.6110 H   0  0  0  0  0  0  0  0  0  0  0  0  # atno 7974 bound_to 7965
  154.4452  140.1914  156.0692 H   0  0  0  0  0  0  0  0  0  0  0  0  # atno 8008 bound_to 7997
  156.0524  140.3307  155.7339 H   0  0  0  0  0  0  0  0  0  0  0  0  # atno 8009 bound_to 7997
  155.5537  140.0597  157.2835 H   0  0  0  0  0  0  0  0  0  0  0  0  # atno 8010 bound_to 7997
  140.7288  143.4433  151.0624 H   0  0  0  0  0  0  0  0  0  0  0  0  # atno 10167 bound_to 10162
  156.9017  130.5724  149.5648 H   0  0  0  0  0  0  0  0  0  0  0  0  # atno 10718 bound_to 10713
  154.0098  135.2915  155.3393 H   0  0  0  0  0  0  0  0  0  0  0  0  # atno 10763 bound_to 10752
  154.7110  135.5149  153.8669 H   0  0  0  0  0  0  0  0  0  0  0  0  # atno 10764 bound_to 10752
  153.0728  135.6653  154.0331 H   0  0  0  0  0  0  0  0  0  0  0  0  # atno 10765 bound_to 10752
  141.1561  133.6773  156.6652 H   0  0  0  0  0  0  0  0  0  0  0  0  # atno 11005 bound_to 11000
  146.2490  139.6160  142.9440 LP  0  0  0  0  0  0  0  0  0  0  0  0  # atno 17320 bound_to 7965
  145.5157  141.0434  143.2463 LP  0  0  0  0  0  0  0  0  0  0  0  0  # atno 17321 bound_to 7965
  139.8103  143.7961  152.3170 LP  0  0  0  0  0  0  0  0  0  0  0  0  # atno 17342 bound_to 10162
  139.8008  144.7375  150.9828 LP  0  0  0  0  0  0  0  0  0  0  0  0  # atno 17343 bound_to 10162
  156.0579  130.5637  150.9130 LP  0  0  0  0  0  0  0  0  0  0  0  0  # atno 17370 bound_to 10713
  157.6022  131.0940  150.8941 LP  0  0  0  0  0  0  0  0  0  0  0  0  # atno 17371 bound_to 10713
  140.3217  134.8002  157.4257 LP  0  0  0  0  0  0  0  0  0  0  0  0  # atno 17394 bound_to 11000
  140.1091  134.5369  155.8282 LP  0  0  0  0  0  0  0  0  0  0  0  0  # atno 17395 bound_to 11000

$$$$
