AV-unprocessed.smi:1260|AV-procd|sdf|5293|dock9
  -GOLD-   22720 4413D 1   1.00000     0.00000
 Structure written by MMmdl.
 37 39  0  0  0  0  0  0  0  0  2 V2000
  151.8295  140.3435  157.9577 O   0  0  0  0  0  0  0  0  0  0  0  0
  151.2508  141.1018  157.1804 C   0  0  0  0  0  0  0  0  0  0  0  0
  151.0072  140.6722  155.7343 C   0  0  0  0  0  0  0  0  0  0  0  0
  151.6236  139.3853  155.4733 N   0  0  0  0  0  0  0  0  0  0  0  0
  151.1150  138.2516  154.9859 C   0  0  0  0  0  0  0  0  0  0  0  0
  152.0354  137.3051  154.8870 N   0  0  0  0  0  0  0  0  0  0  0  0
  153.1794  137.9288  155.3562 N   0  0  0  0  0  0  0  0  0  0  0  0
  152.9416  139.1638  155.7042 N   0  0  0  0  0  0  0  0  0  0  0  0
  150.8226  142.3273  157.5220 N   0  0  0  0  0  0  0  0  0  0  0  0
  151.0022  142.9458  158.8325 C   0  0  2  0  0  0  0  0  0  0  0  0
  150.3631  144.3377  158.9322 C   0  0  0  0  0  0  0  0  0  0  0  0
  151.3226  145.1659  159.8104 C   0  0  0  0  0  0  0  0  0  0  0  0
  152.4222  144.2593  160.2158 N   0  3  1  0  0  0  0  0  0  0  0  0
  152.2248  143.7221  161.5909 C   0  0  0  0  0  0  0  0  0  0  0  0
  153.2219  142.6054  161.9272 C   0  0  0  0  0  0  0  0  0  0  0  0
  153.1068  141.4691  160.9081 C   0  0  0  0  0  0  0  0  0  0  0  0
  153.3713  142.0199  159.5037 C   0  0  0  0  0  0  0  0  0  0  0  0
  152.4764  143.2298  159.1495 C   0  0  1  0  0  0  0  0  0  0  0  0
  149.9354  140.6072  155.5401 H   0  0  0  0  0  0  0  0  0  0  0  0
  151.4175  141.4078  155.0410 H   0  0  0  0  0  0  0  0  0  0  0  0
  150.0817  138.1232  154.6995 H   0  0  0  0  0  0  0  0  0  0  0  0
  150.3507  142.8769  156.8183 H   0  0  0  0  0  0  0  0  0  0  0  0
  150.5699  142.3173  159.6130 H   0  0  0  0  0  0  0  0  0  0  0  0
  150.2690  144.8042  157.9503 H   0  0  0  0  0  0  0  0  0  0  0  0
  149.3634  144.2813  159.3645 H   0  0  0  0  0  0  0  0  0  0  0  0
  151.7465  145.9809  159.2224 H   0  0  0  0  0  0  0  0  0  0  0  0
  150.8167  145.6166  160.6658 H   0  0  0  0  0  0  0  0  0  0  0  0
  152.3281  144.5373  162.3079 H   0  0  0  0  0  0  0  0  0  0  0  0
  151.2082  143.3408  161.6991 H   0  0  0  0  0  0  0  0  0  0  0  0
  154.2384  143.0013  161.9326 H   0  0  0  0  0  0  0  0  0  0  0  0
  153.0303  142.2257  162.9312 H   0  0  0  0  0  0  0  0  0  0  0  0
  153.8213  140.6793  161.1420 H   0  0  0  0  0  0  0  0  0  0  0  0
  152.1154  141.0172  160.9566 H   0  0  0  0  0  0  0  0  0  0  0  0
  154.4150  142.3324  159.4479 H   0  0  0  0  0  0  0  0  0  0  0  0
  153.2609  141.2296  158.7612 H   0  0  0  0  0  0  0  0  0  0  0  0
  152.9163  143.7119  158.2737 H   0  0  0  0  0  0  0  0  0  0  0  0
  153.2939  144.7697  160.2173 H   0  0  0  0  0  0  0  0  0  0  0  0
  1  2  2  0  0  0  0
  2  3  1  0  0  0  0
  2  9  1  0  0  0  0
  3  4  1  0  0  0  0
  3 19  1  0  0  0  0
  3 20  1  0  0  0  0
  4  8  1  0  0  0  0
  4  5  1  0  0  0  0
  5  6  2  0  0  0  0
  5 21  1  0  0  0  0
  6  7  1  0  0  0  0
  7  8  2  0  0  0  0
  9 10  1  0  0  0  0
  9 22  1  0  0  0  0
 10 18  1  0  0  0  0
 10 11  1  0  0  0  0
 10 23  1  0  0  0  0
 11 12  1  0  0  0  0
 11 24  1  0  0  0  0
 11 25  1  0  0  0  0
 12 13  1  0  0  0  0
 12 26  1  0  0  0  0
 12 27  1  0  0  0  0
 13 18  1  0  0  0  0
 13 14  1  0  0  0  0
 13 37  1  0  0  0  0
 14 15  1  0  0  0  0
 14 28  1  0  0  0  0
 14 29  1  0  0  0  0
 15 16  1  0  0  0  0
 15 30  1  0  0  0  0
 15 31  1  0  0  0  0
 16 17  1  0  0  0  0
 16 32  1  0  0  0  0
 16 33  1  0  0  0  0
 17 18  1  0  0  0  0
 17 34  1  0  0  0  0
 17 35  1  0  0  0  0
 18 36  1  0  0  0  0
M  CHG  1  13   1
M  END
> <s_m_source_file>
AV-unprocessed.smi

> <i_m_source_file_index>
1260

> <i_lp_mmshare_version>
43012

> <i_f3d_flags>
0

> <s_epik_input>
bjFubltjSF1uMVtDSDJdQyg9TylbTkhdW0NASF0oW0NIMl1bQ0gyXTIpW0NAQEhdKE4yMylbQ0gyXVtDSDJdW0NIMl1bQ0gyXTM=

> <s_epik_cmdline>
J2VwaWtfcHl0aG9uJywgJy1waCcsICc3LjAnLCAnLXRuJywgJzgnLCAnLW1hJywgJzIwMCcsICctbWV0YWxfYmluZGluZycsICctaW1hZScsICc8aW5maWxlLm1hZT4nLCAnLW9tYWUnLCAnPG91dGZpbGUubWFlPic=

> <r_lp_tautomer_probability>
1

> <r_epik_Ionization_Penalty>
0.00234324

> <r_epik_Ionization_Penalty_Charging>
0.00233897

> <r_epik_Ionization_Penalty_Neutral>
4.26861e-06

> <r_epik_State_Penalty>
0.00161477

> <r_epik_Charging_Adjusted_Penalty>
0.00395374

> <i_epik_Tot_Q>
1

> <i_epik_Tot_abs_Q>
1

> <r_epik_Metal_State_Penalty>
-0

> <b_epik_Metal_Only>
0

> <s_lp_Force_Field>
OPLS_2005

> <r_lp_Energy>
39.6077

> <b_lp_Chiralities_Consistent>
1

> <s_lp_Variant>
AV-unprocessed.smi:1260-1

> <Gold.Version>
5.8.1

> <Gold.Id.Protein>
6NUR|6NUR_protein|mol2

> <Gold.PLP.Fitness>
48.6276

> <Gold.PLP.PLP>
-43.4571

> <Gold.PLP.part.hbond>
-3.0711

> <Gold.PLP.part.metal>
0.0000

> <Gold.PLP.part.buried>
-6.5864

> <Gold.PLP.part.nonpolar>
-33.9978

> <Gold.PLP.part.repulsive>
0.1533

> <Gold.PLP.ligand.clash>
0.0000

> <Gold.PLP.ligand.torsion>
0.0724

> <Gold.PLP.Chemscore.Hbond>
1.7680

> <Gold.PLP.Chemscore.CHOScore>
0.0000

> <Gold.PLP.Chemscore.Metal>
0.0000

> <Gold.Chemscore.Hbonds>
donor molecule, donor type, donor heavy atom, donor atom, acceptor molecule, acceptor atom, score
      P1  H  7997  8010       L1     8  1.00
      P1  H 10752 10765       L1     6  0.62

> <Gold.PLP.Chemscore.Internal.Correction>
0.0112

> <Gold.Rescore>
     Score         DG    S(hbond)    S(metal)    S(lipo)     H(rot)  DE(clash)    DE(int)     intcor
     13.00     -16.01       1.44        0.00      92.13       1.98       0.05       2.97       ----

> <Gold.Chemscore.Fitness>
12.9991

> <Gold.Chemscore.DG>
-16.0120

> <Gold.Chemscore.ZeroCoef>
-5.4800

> <Gold.Chemscore.Hbond>
1.4404

> <Gold.Chemscore.Metal>
0.0000

> <Gold.Chemscore.Lipo>
92.1275

> <Gold.Chemscore.Internal_Hbond>
0.0000

> <Gold.Chemscore.DEClash>
0.0462

> <Gold.Chemscore.DEInternal>
2.9666

> <Gold.Chemscore.Rot>
1.9757

> <Gold.Chemscore.Internal.Correction>
   9.000000E+99

> <Gold.Chemscore.Hbonds>
donor molecule, donor type, donor heavy atom, donor atom, acceptor molecule, acceptor atom, score
      P1  H  7997  8010       L1     8  0.92
      P1  H 10752 10765       L1     6  0.06

> <Gold.Chemscore.Hbond.Weighted>
-4.8108

> <Gold.Chemscore.Metal.Weighted>
-0.0000

> <Gold.Chemscore.Lipo.Weighted>
-10.7789

> <Gold.Chemscore.Internal_Hbond.Weighted>
0.0000

> <Gold.Chemscore.DEClash.Weighted>
0.0462

> <Gold.Chemscore.DEInternal.Weighted>
2.9666

> <Gold.Chemscore.Rot.Weighted>
5.0578

> <Gold.Chemscore.Internal.Correction.Weighted>
   9.000000E+99

> <Gold.Protein.RotatedTorsions>
[ 6907 6896 6895 6894 ] final  140.27 input  -60.11 | X-H torsion
[ 7974 7965 7964 7962 ] final  -32.98 input  175.53 | X-H torsion
[ 8008 7997 7996 7995 ] final   77.18 input   59.86 | X-H torsion
[ 10167 10162 10161 10158 ] final  139.11 input  -65.29 | X-H torsion
[ 10718 10713 10712 10709 ] final  117.52 input   66.30 | X-H torsion
[ 10763 10752 10751 10750 ] final  174.13 input  -60.55 | X-H torsion
[ 11005 11000 10999 10996 ] final   22.57 input  -57.11 | X-H torsion

> <Gold.Protein.ActiveResidues>
 VAL166  LYS551  ARG553  GLY616  TRP617  ASP618  TYR619  PRO620  LYS621  CYS622 
 ASP623  PHE694  ASN695  SER759  ASP760  ASP761  ALA762  ILE779  LEU786  VAL792 
 PHE793  MET794  SER795  GLU796  ALA797  LYS798  CYS799  TRP800  GLU811  SER814 

> <Gold.Protein.RotatedAtoms>
  152.2450  133.5167  159.5292 H   0  0  0  0  0  0  0  0  0  0  0  0  # atno 6907 bound_to 6896
  150.7076  134.1037  159.3984 H   0  0  0  0  0  0  0  0  0  0  0  0  # atno 6908 bound_to 6896
  151.8957  135.0398  160.0552 H   0  0  0  0  0  0  0  0  0  0  0  0  # atno 6909 bound_to 6896
  146.0947  140.5860  142.8848 H   0  0  0  0  0  0  0  0  0  0  0  0  # atno 7974 bound_to 7965
  155.8380  140.3463  155.5614 H   0  0  0  0  0  0  0  0  0  0  0  0  # atno 8008 bound_to 7997
  155.8171  140.0907  157.1890 H   0  0  0  0  0  0  0  0  0  0  0  0  # atno 8009 bound_to 7997
  154.4004  140.1437  156.3443 H   0  0  0  0  0  0  0  0  0  0  0  0  # atno 8010 bound_to 7997
  139.5089  144.6314  151.5807 H   0  0  0  0  0  0  0  0  0  0  0  0  # atno 10167 bound_to 10162
  157.6091  131.1038  150.7627 H   0  0  0  0  0  0  0  0  0  0  0  0  # atno 10718 bound_to 10713
  154.4496  135.2764  155.1790 H   0  0  0  0  0  0  0  0  0  0  0  0  # atno 10763 bound_to 10752
  154.3623  135.6127  153.5700 H   0  0  0  0  0  0  0  0  0  0  0  0  # atno 10764 bound_to 10752
  152.9846  135.5837  154.4838 H   0  0  0  0  0  0  0  0  0  0  0  0  # atno 10765 bound_to 10752
  140.3791  134.1940  155.7664 H   0  0  0  0  0  0  0  0  0  0  0  0  # atno 11005 bound_to 11000
  144.7386  140.4879  143.6885 LP  0  0  0  0  0  0  0  0  0  0  0  0  # atno 17320 bound_to 7965
  145.5971  139.1500  143.3150 LP  0  0  0  0  0  0  0  0  0  0  0  0  # atno 17321 bound_to 7965
  140.6048  143.9544  150.6411 LP  0  0  0  0  0  0  0  0  0  0  0  0  # atno 17342 bound_to 10162
  140.2767  143.3418  152.1188 LP  0  0  0  0  0  0  0  0  0  0  0  0  # atno 17343 bound_to 10162
  156.8008  130.4920  149.5370 LP  0  0  0  0  0  0  0  0  0  0  0  0  # atno 17370 bound_to 10713
  156.1187  130.6094  151.0160 LP  0  0  0  0  0  0  0  0  0  0  0  0  # atno 17371 bound_to 10713
  141.1929  133.8162  157.0819 LP  0  0  0  0  0  0  0  0  0  0  0  0  # atno 17394 bound_to 11000
  140.0492  134.9814  157.1106 LP  0  0  0  0  0  0  0  0  0  0  0  0  # atno 17395 bound_to 11000

$$$$
