AV-unprocessed.smi:3032|AV-procd|sdf|11563|dock8
  -GOLD-   2272016533D 1   1.00000     0.00000
 Structure written by MMmdl.
 37 38  0  0  0  0  0  0  0  0  1 V2000
  153.0350  142.5436  162.6455 C   0  0  0  0  0  0  0  0  0  0  0  0
  153.0602  143.0610  161.2003 C   0  0  2  0  0  0  0  0  0  0  0  0
  152.1787  144.3143  161.0356 C   0  0  0  0  0  0  0  0  0  0  0  0
  152.1963  144.8307  159.5881 C   0  0  0  0  0  0  0  0  0  0  0  0
  151.7745  143.7322  158.6003 C   0  0  0  0  0  0  0  0  0  0  0  0
  152.6628  142.4798  158.7463 C   0  0  2  0  0  0  0  0  0  0  0  0
  152.2252  141.3864  157.7631 C   0  0  0  0  0  0  0  0  0  0  0  0
  152.7282  140.2636  157.8157 O   0  0  0  0  0  0  0  0  0  0  0  0
  151.2762  141.7252  156.8775 N   0  0  0  0  0  0  0  0  0  0  0  0
  150.6757  140.8191  155.9034 C   0  0  0  0  0  0  0  0  0  0  0  0
  149.3852  141.3829  155.2745 C   0  0  0  0  0  0  0  0  0  0  0  0
  148.7304  140.4472  154.3079 C   0  0  0  0  0  0  0  0  0  0  0  0
  149.2908  139.2771  153.9966 N   0  0  0  0  0  0  0  0  0  0  0  0
  148.4221  138.7798  153.0900 N   0  0  0  0  0  0  0  0  0  0  0  0
  147.4361  139.6577  152.9138 C   0  0  0  0  0  0  0  0  0  0  0  0
  147.5667  140.7508  153.6532 N   0  0  0  0  0  0  0  0  0  0  0  0
  152.6321  141.9669  160.2022 C   0  0  0  0  0  0  0  0  0  0  0  0
  152.0291  142.2445  162.9422 H   0  0  0  0  0  0  0  0  0  0  0  0
  153.3739  143.3101  163.3429 H   0  0  0  0  0  0  0  0  0  0  0  0
  153.6882  141.6789  162.7644 H   0  0  0  0  0  0  0  0  0  0  0  0
  154.0893  143.3412  160.9705 H   0  0  0  0  0  0  0  0  0  0  0  0
  151.1525  144.0839  161.3253 H   0  0  0  0  0  0  0  0  0  0  0  0
  152.5193  145.1022  161.7083 H   0  0  0  0  0  0  0  0  0  0  0  0
  151.5326  145.6906  159.4930 H   0  0  0  0  0  0  0  0  0  0  0  0
  153.1972  145.1838  159.3371 H   0  0  0  0  0  0  0  0  0  0  0  0
  150.7283  143.4749  158.7738 H   0  0  0  0  0  0  0  0  0  0  0  0
  151.8325  144.1173  157.5811 H   0  0  0  0  0  0  0  0  0  0  0  0
  153.6901  142.7630  158.5085 H   0  0  0  0  0  0  0  0  0  0  0  0
  150.9183  142.6691  156.9038 H   0  0  0  0  0  0  0  0  0  0  0  0
  151.4137  140.6455  155.1200 H   0  0  0  0  0  0  0  0  0  0  0  0
  150.4809  139.8488  156.3626 H   0  0  0  0  0  0  0  0  0  0  0  0
  148.6747  141.6350  156.0625 H   0  0  0  0  0  0  0  0  0  0  0  0
  149.6048  142.3188  154.7591 H   0  0  0  0  0  0  0  0  0  0  0  0
  146.6129  139.4972  152.2334 H   0  0  0  0  0  0  0  0  0  0  0  0
  153.2905  141.1027  160.3021 H   0  0  0  0  0  0  0  0  0  0  0  0
  151.6290  141.6198  160.4561 H   0  0  0  0  0  0  0  0  0  0  0  0
  148.5420  137.8837  152.6397 H   0  0  0  0  0  0  0  0  0  0  0  0
  1  2  1  0  0  0  0
  1 18  1  0  0  0  0
  1 19  1  0  0  0  0
  1 20  1  0  0  0  0
  2 17  1  0  0  0  0
  2  3  1  0  0  0  0
  2 21  1  0  0  0  0
  3  4  1  0  0  0  0
  3 22  1  0  0  0  0
  3 23  1  0  0  0  0
  4  5  1  0  0  0  0
  4 24  1  0  0  0  0
  4 25  1  0  0  0  0
  5  6  1  0  0  0  0
  5 26  1  0  0  0  0
  5 27  1  0  0  0  0
  6  7  1  0  0  0  0
  6 17  1  0  0  0  0
  6 28  1  0  0  0  0
  7  8  2  0  0  0  0
  7  9  1  0  0  0  0
  9 10  1  0  0  0  0
  9 29  1  0  0  0  0
 10 11  1  0  0  0  0
 10 30  1  0  0  0  0
 10 31  1  0  0  0  0
 11 32  1  0  0  0  0
 11 33  1  0  0  0  0
 11 12  1  0  0  0  0
 12 16  1  0  0  0  0
 12 13  2  0  0  0  0
 13 14  1  0  0  0  0
 14 15  1  0  0  0  0
 14 37  1  0  0  0  0
 15 16  2  0  0  0  0
 15 34  1  0  0  0  0
 17 35  1  0  0  0  0
 17 36  1  0  0  0  0
M  END
> <s_m_source_file>
AV-unprocessed.smi

> <i_m_source_file_index>
3032

> <i_lp_mmshare_version>
43012

> <i_f3d_flags>
0

> <s_epik_input>
W0NIM11bQ0BASF0xW0NIMl1bQ0gyXVtDSDJdW0NASF0oW0NIMl0xKUMoPU8pW05IXVtDSDJdW0NIMl1jMm5uW2NIXVtuSF0y

> <s_epik_cmdline>
J2VwaWtfcHl0aG9uJywgJy1waCcsICc3LjAnLCAnLXRuJywgJzgnLCAnLW1hJywgJzIwMCcsICctbWV0YWxfYmluZGluZycsICctaW1hZScsICc8aW5maWxlLm1hZT4nLCAnLW9tYWUnLCAnPG91dGZpbGUubWFlPic=

> <r_epik_Ionization_Penalty>
0.000752022

> <r_epik_Ionization_Penalty_Charging>
0

> <r_epik_Ionization_Penalty_Neutral>
0.000752022

> <r_epik_State_Penalty>
0.639926

> <r_epik_Charging_Adjusted_Penalty>
0.639926

> <i_epik_Tot_Q>
0

> <i_epik_Tot_abs_Q>
0

> <r_epik_Metal_State_Penalty>
0.76532

> <b_epik_Metal_Only>
0

> <s_lp_Force_Field>
OPLS_2005

> <r_lp_Energy>
8.90132

> <b_lp_Chiralities_Consistent>
1

> <s_lp_Variant>
AV-unprocessed.smi:3032-7

> <Gold.Version>
5.8.1

> <Gold.Id.Protein>
6NUR|6NUR_protein|mol2

> <Gold.PLP.Fitness>
42.6387

> <Gold.PLP.PLP>
-39.2374

> <Gold.PLP.part.hbond>
-3.0000

> <Gold.PLP.part.metal>
0.0000

> <Gold.PLP.part.buried>
-4.2140

> <Gold.PLP.part.nonpolar>
-30.2930

> <Gold.PLP.part.repulsive>
0.7600

> <Gold.PLP.ligand.clash>
2.1021

> <Gold.PLP.ligand.torsion>
0.2332

> <Gold.PLP.Chemscore.Hbond>
1.9833

> <Gold.PLP.Chemscore.CHOScore>
0.0000

> <Gold.PLP.Chemscore.Metal>
0.0000

> <Gold.Chemscore.Hbonds>
donor molecule, donor type, donor heavy atom, donor atom, acceptor molecule, acceptor atom, score
      L1  H    14    37       P1  7948  1.00
      P1  H  7997  8009       L1     8  0.96

> <Gold.PLP.Chemscore.Internal.Correction>
0.0199

> <Gold.Rescore>
     Score         DG    S(hbond)    S(metal)    S(lipo)     H(rot)  DE(clash)    DE(int)     intcor
     16.72     -16.98       1.83        0.00      95.16       2.25       0.07       0.19       ----

> <Gold.Chemscore.Fitness>
16.7174

> <Gold.Chemscore.DG>
-16.9785

> <Gold.Chemscore.ZeroCoef>
-5.4800

> <Gold.Chemscore.Hbond>
1.8340

> <Gold.Chemscore.Metal>
0.0000

> <Gold.Chemscore.Lipo>
95.1562

> <Gold.Chemscore.Internal_Hbond>
0.0000

> <Gold.Chemscore.DEClash>
0.0689

> <Gold.Chemscore.DEInternal>
0.1923

> <Gold.Chemscore.Rot>
2.2501

> <Gold.Chemscore.Internal.Correction>
   9.000000E+99

> <Gold.Chemscore.Hbonds>
donor molecule, donor type, donor heavy atom, donor atom, acceptor molecule, acceptor atom, score
      L1  H    14    37       P1  7948  1.00
      P1  H  7997  8009       L1     8  0.81

> <Gold.Chemscore.Hbond.Weighted>
-6.1256

> <Gold.Chemscore.Metal.Weighted>
-0.0000

> <Gold.Chemscore.Lipo.Weighted>
-11.1333

> <Gold.Chemscore.Internal_Hbond.Weighted>
0.0000

> <Gold.Chemscore.DEClash.Weighted>
0.0689

> <Gold.Chemscore.DEInternal.Weighted>
0.1923

> <Gold.Chemscore.Rot.Weighted>
5.7603

> <Gold.Chemscore.Internal.Correction.Weighted>
   9.000000E+99

> <Gold.Protein.RotatedTorsions>
[ 6907 6896 6895 6894 ] final  -51.95 input  -60.11 | X-H torsion
[ 7974 7965 7964 7962 ] final  -12.58 input  175.53 | X-H torsion
[ 8008 7997 7996 7995 ] final  165.97 input   59.86 | X-H torsion
[ 10167 10162 10161 10158 ] final  -66.40 input  -65.29 | X-H torsion
[ 10718 10713 10712 10709 ] final  119.79 input   66.30 | X-H torsion
[ 10763 10752 10751 10750 ] final -178.04 input  -60.55 | X-H torsion
[ 11005 11000 10999 10996 ] final  -87.62 input  -57.11 | X-H torsion

> <Gold.Protein.ActiveResidues>
 VAL166  LYS551  ARG553  GLY616  TRP617  ASP618  TYR619  PRO620  LYS621  CYS622 
 ASP623  PHE694  ASN695  SER759  ASP760  ASP761  ALA762  ILE779  LEU786  VAL792 
 PHE793  MET794  SER795  GLU796  ALA797  LYS798  CYS799  TRP800  GLU811  SER814 

> <Gold.Protein.RotatedAtoms>
  150.8563  134.7903  159.7047 H   0  0  0  0  0  0  0  0  0  0  0  0  # atno 6907 bound_to 6896
  152.4614  134.5173  159.9782 H   0  0  0  0  0  0  0  0  0  0  0  0  # atno 6908 bound_to 6896
  151.5285  133.3415  159.2949 H   0  0  0  0  0  0  0  0  0  0  0  0  # atno 6909 bound_to 6896
  146.2147  140.3077  142.8380 H   0  0  0  0  0  0  0  0  0  0  0  0  # atno 7974 bound_to 7965
  156.1757  140.1656  156.8368 H   0  0  0  0  0  0  0  0  0  0  0  0  # atno 8008 bound_to 7997
  154.5304  140.0758  156.8368 H   0  0  0  0  0  0  0  0  0  0  0  0  # atno 8009 bound_to 7997
  155.3419  140.3385  155.4241 H   0  0  0  0  0  0  0  0  0  0  0  0  # atno 8010 bound_to 7997
  140.5660  143.2315  151.6634 H   0  0  0  0  0  0  0  0  0  0  0  0  # atno 10167 bound_to 10162
  157.5937  131.1061  150.7945 H   0  0  0  0  0  0  0  0  0  0  0  0  # atno 10718 bound_to 10713
  154.5526  135.2814  155.0994 H   0  0  0  0  0  0  0  0  0  0  0  0  # atno 10763 bound_to 10752
  154.2434  135.6353  153.5219 H   0  0  0  0  0  0  0  0  0  0  0  0  # atno 10764 bound_to 10752
  153.0007  135.5565  154.6097 H   0  0  0  0  0  0  0  0  0  0  0  0  # atno 10765 bound_to 10752
  141.1614  133.7522  156.9333 H   0  0  0  0  0  0  0  0  0  0  0  0  # atno 11005 bound_to 11000
  144.9011  140.7643  143.5866 LP  0  0  0  0  0  0  0  0  0  0  0  0  # atno 17320 bound_to 7965
  145.3004  139.1852  143.4693 LP  0  0  0  0  0  0  0  0  0  0  0  0  # atno 17321 bound_to 7965
  139.5093  144.3582  152.0588 LP  0  0  0  0  0  0  0  0  0  0  0  0  # atno 17342 bound_to 10162
  140.2713  144.3960  150.6150 LP  0  0  0  0  0  0  0  0  0  0  0  0  # atno 17343 bound_to 10162
  156.8361  130.5032  149.5326 LP  0  0  0  0  0  0  0  0  0  0  0  0  # atno 17370 bound_to 10713
  156.0995  130.5958  150.9871 LP  0  0  0  0  0  0  0  0  0  0  0  0  # atno 17371 bound_to 10713
  140.1371  134.9318  157.2417 LP  0  0  0  0  0  0  0  0  0  0  0  0  # atno 17394 bound_to 11000
  140.2881  134.3272  155.7323 LP  0  0  0  0  0  0  0  0  0  0  0  0  # atno 17395 bound_to 11000

$$$$
