AV-unprocessed.smi:197|AV-procd|sdf|1549|dock9
  -GOLD-   2262019413D 1   1.00000     0.00000
 Structure written by MMmdl.
 54 57  0  0  0  0  0  0  0  0  1 V2000
  147.1453  137.2052  163.4318 C   0  0  0  0  0  0  0  0  0  0  0  0
  147.1375  137.8127  162.1485 O   0  0  0  0  0  0  0  0  0  0  0  0
  147.3121  136.9007  161.0729 C   0  0  0  0  0  0  0  0  0  0  0  0
  148.7738  136.8631  160.5903 C   0  0  0  0  0  0  0  0  0  0  0  0
  148.9214  136.4948  159.0930 C   0  0  1  0  0  0  0  0  0  0  0  0
  147.9148  135.4174  158.6325 C   0  0  0  0  0  0  0  0  0  0  0  0
  146.5962  135.9539  158.6047 O   0  0  0  0  0  0  0  0  0  0  0  0
  146.4796  137.0233  157.6729 C   0  0  0  0  0  0  0  0  0  0  0  0
  147.4237  138.1661  158.0772 C   0  0  0  0  0  0  0  0  0  0  0  0
  148.7916  137.6667  158.2187 N   0  0  0  0  0  0  0  0  0  0  0  0
  149.7972  138.5807  158.2907 C   0  0  0  0  0  0  0  0  0  0  0  0
  151.0049  138.2119  158.7974 N   0  0  0  0  0  0  0  0  0  0  0  0
  152.0227  139.0761  158.8247 C   0  0  0  0  0  0  0  0  0  0  0  0
  152.0549  140.3393  158.3987 N   0  0  0  0  0  0  0  0  0  0  0  0
  150.8444  140.7235  157.9031 C   0  0  0  0  0  0  0  0  0  0  0  0
  149.6709  139.9210  157.8231 C   0  0  0  0  0  0  0  0  0  0  0  0
  148.6299  140.6668  157.2813 N   0  0  0  0  0  0  0  0  0  0  0  0
  149.1638  141.8299  157.0293 C   0  0  0  0  0  0  0  0  0  0  0  0
  150.4963  141.9444  157.3529 N   0  0  0  0  0  0  0  0  0  0  0  0
  151.3456  143.1063  157.1479 C   0  0  0  0  0  0  0  0  0  0  0  0
  151.6055  143.9067  158.4474 C   0  0  1  0  0  0  0  0  0  0  0  0
  152.6404  144.8445  158.1970 O   0  0  0  0  0  0  0  0  0  0  0  0
  150.3769  144.6717  158.9147 C   0  0  0  0  0  0  0  0  0  0  0  0
  150.6451  144.8512  160.4026 C   0  0  0  0  0  0  0  0  0  0  0  0
  151.2588  143.6330  160.7971 O   0  0  0  0  0  0  0  0  0  0  0  0
  151.9356  143.0400  159.6894 C   0  0  2  0  0  0  0  0  0  0  0  0
  153.4243  142.8359  160.0243 C   0  0  0  0  0  0  0  0  0  0  0  0
  146.9608  137.9646  164.1914 H   0  0  0  0  0  0  0  0  0  0  0  0
  148.1030  136.7382  163.6594 H   0  0  0  0  0  0  0  0  0  0  0  0
  146.3613  136.4521  163.5177 H   0  0  0  0  0  0  0  0  0  0  0  0
  146.9616  135.9051  161.3505 H   0  0  0  0  0  0  0  0  0  0  0  0
  146.6682  137.2404  160.2624 H   0  0  0  0  0  0  0  0  0  0  0  0
  149.2514  137.8217  160.7951 H   0  0  0  0  0  0  0  0  0  0  0  0
  149.3123  136.1291  161.1876 H   0  0  0  0  0  0  0  0  0  0  0  0
  149.9122  136.0648  158.9625 H   0  0  0  0  0  0  0  0  0  0  0  0
  148.1803  135.0512  157.6393 H   0  0  0  0  0  0  0  0  0  0  0  0
  147.9335  134.5494  159.2899 H   0  0  0  0  0  0  0  0  0  0  0  0
  146.7079  136.6694  156.6661 H   0  0  0  0  0  0  0  0  0  0  0  0
  145.4478  137.3740  157.6602 H   0  0  0  0  0  0  0  0  0  0  0  0
  147.3847  138.9506  157.3202 H   0  0  0  0  0  0  0  0  0  0  0  0
  147.0942  138.6079  159.0183 H   0  0  0  0  0  0  0  0  0  0  0  0
  152.9462  138.6983  159.2381 H   0  0  0  0  0  0  0  0  0  0  0  0
  148.6014  142.6368  156.5822 H   0  0  0  0  0  0  0  0  0  0  0  0
  152.2876  142.7719  156.7112 H   0  0  0  0  0  0  0  0  0  0  0  0
  150.8735  143.7449  156.4003 H   0  0  0  0  0  0  0  0  0  0  0  0
  153.4493  144.3703  158.0781 H   0  0  0  0  0  0  0  0  0  0  0  0
  150.2191  145.6147  158.3896 H   0  0  0  0  0  0  0  0  0  0  0  0
  149.4800  144.0646  158.7846 H   0  0  0  0  0  0  0  0  0  0  0  0
  151.3416  145.6733  160.5732 H   0  0  0  0  0  0  0  0  0  0  0  0
  149.7384  145.0479  160.9748 H   0  0  0  0  0  0  0  0  0  0  0  0
  151.4748  142.0598  159.5666 H   0  0  0  0  0  0  0  0  0  0  0  0
  153.9652  142.3896  159.1900 H   0  0  0  0  0  0  0  0  0  0  0  0
  153.5378  142.1708  160.8801 H   0  0  0  0  0  0  0  0  0  0  0  0
  153.9130  143.7770  160.2769 H   0  0  0  0  0  0  0  0  0  0  0  0
  1  2  1  0  0  0  0
  1 28  1  0  0  0  0
  1 29  1  0  0  0  0
  1 30  1  0  0  0  0
  2  3  1  0  0  0  0
  3  4  1  0  0  0  0
  3 31  1  0  0  0  0
  3 32  1  0  0  0  0
  4  5  1  0  0  0  0
  4 33  1  0  0  0  0
  4 34  1  0  0  0  0
  5 10  1  0  0  0  0
  5  6  1  0  0  0  0
  5 35  1  0  0  0  0
  6  7  1  0  0  0  0
  6 36  1  0  0  0  0
  6 37  1  0  0  0  0
  7  8  1  0  0  0  0
  8  9  1  0  0  0  0
  8 38  1  0  0  0  0
  8 39  1  0  0  0  0
  9 10  1  0  0  0  0
  9 40  1  0  0  0  0
  9 41  1  0  0  0  0
 10 11  1  0  0  0  0
 11 16  1  0  0  0  0
 11 12  2  0  0  0  0
 12 13  1  0  0  0  0
 13 14  2  0  0  0  0
 13 42  1  0  0  0  0
 14 15  1  0  0  0  0
 15 19  1  0  0  0  0
 15 16  2  0  0  0  0
 16 17  1  0  0  0  0
 17 18  2  0  0  0  0
 18 19  1  0  0  0  0
 18 43  1  0  0  0  0
 19 20  1  0  0  0  0
 20 21  1  0  0  0  0
 20 44  1  0  0  0  0
 20 45  1  0  0  0  0
 21 26  1  0  0  0  0
 21 22  1  0  0  0  0
 21 23  1  0  0  0  0
 22 46  1  0  0  0  0
 23 24  1  0  0  0  0
 23 47  1  0  0  0  0
 23 48  1  0  0  0  0
 24 25  1  0  0  0  0
 24 49  1  0  0  0  0
 24 50  1  0  0  0  0
 25 26  1  0  0  0  0
 26 27  1  0  0  0  0
 26 51  1  0  0  0  0
 27 52  1  0  0  0  0
 27 53  1  0  0  0  0
 27 54  1  0  0  0  0
M  END
> <s_m_source_file>
AV-unprocessed.smi

> <i_m_source_file_index>
197

> <i_lp_mmshare_version>
43012

> <i_f3d_flags>
0

> <s_epik_input>
W0NIM11PW0NIMl1bQ0gyXVtDQEBIXTFbQ0gyXU9bQ0gyXVtDSDJdTjFjKG5bY0hdbjIpYyhjMjMpbltjSF1uM1tDSDJdW0NAQF00KFtPSF0pW0NIMl1bQ0gyXU9bQ0BIXTRbQ0gzXQ==

> <s_epik_cmdline>
J2VwaWtfcHl0aG9uJywgJy1waCcsICc3LjAnLCAnLXRuJywgJzgnLCAnLW1hJywgJzIwMCcsICctbWV0YWxfYmluZGluZycsICctaW1hZScsICc8aW5maWxlLm1hZT4nLCAnLW9tYWUnLCAnPG91dGZpbGUubWFlPic=

> <r_lp_tautomer_probability>
1

> <r_epik_Ionization_Penalty>
0.000106218

> <r_epik_Ionization_Penalty_Charging>
0

> <r_epik_Ionization_Penalty_Neutral>
0.000106218

> <r_epik_State_Penalty>
-0

> <r_epik_Charging_Adjusted_Penalty>
0

> <i_epik_Tot_Q>
0

> <i_epik_Tot_abs_Q>
0

> <r_epik_Metal_State_Penalty>
-0

> <b_epik_Metal_Only>
0

> <s_lp_Force_Field>
OPLS_2005

> <r_lp_Energy>
41.5492

> <b_lp_Chiralities_Consistent>
1

> <s_lp_Variant>
AV-unprocessed.smi:197-6

> <Gold.Version>
5.8.1

> <Gold.Id.Protein>
6NUR|6NUR_protein|mol2

> <Gold.PLP.Fitness>
47.1627

> <Gold.PLP.PLP>
-42.2074

> <Gold.PLP.part.hbond>
-2.8742

> <Gold.PLP.part.metal>
0.0000

> <Gold.PLP.part.buried>
-7.2424

> <Gold.PLP.part.nonpolar>
-32.1202

> <Gold.PLP.part.repulsive>
0.1274

> <Gold.PLP.ligand.clash>
0.4085

> <Gold.PLP.ligand.torsion>
1.5939

> <Gold.PLP.Chemscore.Hbond>
1.6577

> <Gold.PLP.Chemscore.CHOScore>
1.0000

> <Gold.PLP.Chemscore.Metal>
0.0000

> <Gold.Chemscore.Hbonds>
donor molecule, donor type, donor heavy atom, donor atom, acceptor molecule, acceptor atom, score
      P1  H  6931  6943       L1     2  0.17
      P1  H  6934  6947       L1     2  0.18
      L1  C    18    43       P1  8028  1.00

> <Gold.PLP.Chemscore.Internal.Correction>
0.5784

> <Gold.Rescore>
     Score         DG    S(hbond)    S(metal)    S(lipo)     H(rot)  DE(clash)    DE(int)     intcor
      9.74     -14.35       1.70        0.00      89.31       2.84       0.01       4.60       ----

> <Gold.Chemscore.Fitness>
9.7372

> <Gold.Chemscore.DG>
-14.3466

> <Gold.Chemscore.ZeroCoef>
-5.4800

> <Gold.Chemscore.Hbond>
1.6998

> <Gold.Chemscore.Metal>
0.0000

> <Gold.Chemscore.Lipo>
89.3053

> <Gold.Chemscore.Internal_Hbond>
0.0000

> <Gold.Chemscore.DEClash>
0.0110

> <Gold.Chemscore.DEInternal>
4.5984

> <Gold.Chemscore.Rot>
2.8358

> <Gold.Chemscore.Internal.Correction>
   9.000000E+99

> <Gold.Chemscore.Hbond.Weighted>
-5.6774

> <Gold.Chemscore.Metal.Weighted>
-0.0000

> <Gold.Chemscore.Lipo.Weighted>
-10.4487

> <Gold.Chemscore.Internal_Hbond.Weighted>
0.0000

> <Gold.Chemscore.DEClash.Weighted>
0.0110

> <Gold.Chemscore.DEInternal.Weighted>
4.5984

> <Gold.Chemscore.Rot.Weighted>
7.2596

> <Gold.Chemscore.Internal.Correction.Weighted>
   9.000000E+99

> <Gold.Protein.RotatedTorsions>
[ 6907 6896 6895 6894 ] final -111.18 input  -60.11 | X-H torsion
[ 7974 7965 7964 7962 ] final  -99.20 input  175.53 | X-H torsion
[ 8008 7997 7996 7995 ] final  173.89 input   59.86 | X-H torsion
[ 10167 10162 10161 10158 ] final   73.60 input  -65.29 | X-H torsion
[ 10718 10713 10712 10709 ] final  -74.84 input   66.30 | X-H torsion
[ 10763 10752 10751 10750 ] final  -42.02 input  -60.55 | X-H torsion
[ 11005 11000 10999 10996 ] final  168.41 input  -57.11 | X-H torsion

> <Gold.Protein.ActiveResidues>
 VAL166  LYS551  ARG553  GLY616  TRP617  ASP618  TYR619  PRO620  LYS621  CYS622 
 ASP623  PHE694  ASN695  SER759  ASP760  ASP761  ALA762  ILE779  LEU786  VAL792 
 PHE793  MET794  SER795  GLU796  ALA797  LYS798  CYS799  TRP800  GLU811  SER814 

> <Gold.Protein.RotatedAtoms>
  150.7673  133.9272  159.3415 H   0  0  0  0  0  0  0  0  0  0  0  0  # atno 6907 bound_to 6896
  151.7167  135.0900  160.0286 H   0  0  0  0  0  0  0  0  0  0  0  0  # atno 6908 bound_to 6896
  152.3675  133.6338  159.6097 H   0  0  0  0  0  0  0  0  0  0  0  0  # atno 6909 bound_to 6896
  145.3107  140.9399  143.2771 H   0  0  0  0  0  0  0  0  0  0  0  0  # atno 7974 bound_to 7965
  156.1030  140.1448  156.9442 H   0  0  0  0  0  0  0  0  0  0  0  0  # atno 8008 bound_to 7997
  154.4715  140.0908  156.7200 H   0  0  0  0  0  0  0  0  0  0  0  0  # atno 8009 bound_to 7997
  155.4728  140.3442  155.4330 H   0  0  0  0  0  0  0  0  0  0  0  0  # atno 8010 bound_to 7997
  140.0227  144.5528  150.7569 H   0  0  0  0  0  0  0  0  0  0  0  0  # atno 10167 bound_to 10162
  156.0228  130.4426  150.2952 H   0  0  0  0  0  0  0  0  0  0  0  0  # atno 10718 bound_to 10713
  153.9721  135.6727  153.4747 H   0  0  0  0  0  0  0  0  0  0  0  0  # atno 10763 bound_to 10752
  153.0788  135.4934  154.8456 H   0  0  0  0  0  0  0  0  0  0  0  0  # atno 10764 bound_to 10752
  154.7213  135.3118  154.9003 H   0  0  0  0  0  0  0  0  0  0  0  0  # atno 10765 bound_to 10752
  140.2869  134.7705  157.3806 H   0  0  0  0  0  0  0  0  0  0  0  0  # atno 11005 bound_to 11000
  144.9018  139.4640  143.6629 LP  0  0  0  0  0  0  0  0  0  0  0  0  # atno 17320 bound_to 7965
  146.3119  139.7776  142.9013 LP  0  0  0  0  0  0  0  0  0  0  0  0  # atno 17321 bound_to 7965
  140.7336  143.2718  151.3863 LP  0  0  0  0  0  0  0  0  0  0  0  0  # atno 17342 bound_to 10162
  139.6129  144.1062  152.2317 LP  0  0  0  0  0  0  0  0  0  0  0  0  # atno 17343 bound_to 10162
  157.1056  131.0207  151.3068 LP  0  0  0  0  0  0  0  0  0  0  0  0  # atno 17370 bound_to 10713
  157.4745  130.7728  149.7355 LP  0  0  0  0  0  0  0  0  0  0  0  0  # atno 17371 bound_to 10713
  140.1231  134.5193  155.8167 LP  0  0  0  0  0  0  0  0  0  0  0  0  # atno 17394 bound_to 11000
  141.2153  133.6763  156.6902 LP  0  0  0  0  0  0  0  0  0  0  0  0  # atno 17395 bound_to 11000

$$$$
