AV-unprocessed.smi:1703|AV-procd|sdf|6874|dock2
  -GOLD-   22720 8 73D 1   1.00000     0.00000
 Structure written by MMmdl.
 50 52  0  0  0  0  0  0  0  0  3 V2000
  150.4042  132.0990  155.5645 C   0  0  0  0  0  0  0  0  0  0  0  0
  149.4313  133.2815  155.6261 C   0  0  1  0  0  0  0  0  0  0  0  0
  149.6125  134.2433  154.4346 C   0  0  0  0  0  0  0  0  0  0  0  0
  148.6113  135.3369  154.4686 N   0  3  2  0  0  0  0  0  0  0  0  0
  148.9267  136.4058  155.4540 C   0  0  0  0  0  0  0  0  0  0  0  0
  148.5301  137.8084  154.9453 C   0  0  2  0  0  0  0  0  0  0  0  0
  147.6471  137.6643  153.8519 O   0  0  0  0  0  0  0  0  0  0  0  0
  149.7235  138.6642  154.4740 C   0  0  0  0  0  0  0  0  0  0  0  0
  149.6971  140.0341  155.0129 N   0  0  0  0  0  0  0  0  0  0  0  0
  148.9369  141.1057  154.6414 C   0  0  0  0  0  0  0  0  0  0  0  0
  147.9146  141.1541  153.5540 C   0  0  0  0  0  0  0  0  0  0  0  0
  146.6530  141.5708  154.0257 O   0  0  0  0  0  0  0  0  0  0  0  0
  149.2923  142.1504  155.4404 N   0  3  0  0  0  0  0  0  0  0  0  0
  150.2907  141.7494  156.3280 C   0  0  0  0  0  0  0  0  0  0  0  0
  150.9622  142.4568  157.3203 C   0  0  0  0  0  0  0  0  0  0  0  0
  151.9368  141.7488  158.0530 C   0  0  0  0  0  0  0  0  0  0  0  0
  152.2115  140.3916  157.7875 C   0  0  0  0  0  0  0  0  0  0  0  0
  151.5236  139.6843  156.7791 C   0  0  0  0  0  0  0  0  0  0  0  0
  150.5607  140.3915  156.0576 C   0  0  0  0  0  0  0  0  0  0  0  0
  147.2377  134.7804  154.5727 C   0  0  0  0  0  0  0  0  0  0  0  0
  147.1125  133.7761  155.7398 C   0  0  1  0  0  0  0  0  0  0  0  0
  145.7401  133.0945  155.7639 C   0  0  0  0  0  0  0  0  0  0  0  0
  148.1051  132.7650  155.6011 O   0  0  0  0  0  0  0  0  0  0  0  0
  151.4395  132.4405  155.5805 H   0  0  0  0  0  0  0  0  0  0  0  0
  150.2587  131.5148  154.6553 H   0  0  0  0  0  0  0  0  0  0  0  0
  150.2618  131.4316  156.4150 H   0  0  0  0  0  0  0  0  0  0  0  0
  149.5948  133.8125  156.5655 H   0  0  0  0  0  0  0  0  0  0  0  0
  150.6238  134.6511  154.4107 H   0  0  0  0  0  0  0  0  0  0  0  0
  149.4844  133.6938  153.5007 H   0  0  0  0  0  0  0  0  0  0  0  0
  148.4318  136.1813  156.3975 H   0  0  0  0  0  0  0  0  0  0  0  0
  149.9961  136.4086  155.6709 H   0  0  0  0  0  0  0  0  0  0  0  0
  148.0013  138.3550  155.7248 H   0  0  0  0  0  0  0  0  0  0  0  0
  148.0765  137.1626  153.1754 H   0  0  0  0  0  0  0  0  0  0  0  0
  150.6730  138.1912  154.7239 H   0  0  0  0  0  0  0  0  0  0  0  0
  149.7112  138.7511  153.3865 H   0  0  0  0  0  0  0  0  0  0  0  0
  148.2400  141.8277  152.7619 H   0  0  0  0  0  0  0  0  0  0  0  0
  147.8162  140.1633  153.1098 H   0  0  0  0  0  0  0  0  0  0  0  0
  146.7580  142.3877  154.4896 H   0  0  0  0  0  0  0  0  0  0  0  0
  150.7550  143.4975  157.5241 H   0  0  0  0  0  0  0  0  0  0  0  0
  152.4859  142.2575  158.8324 H   0  0  0  0  0  0  0  0  0  0  0  0
  152.9675  139.8830  158.3685 H   0  0  0  0  0  0  0  0  0  0  0  0
  151.7470  138.6452  156.5895 H   0  0  0  0  0  0  0  0  0  0  0  0
  146.4984  135.5745  154.6701 H   0  0  0  0  0  0  0  0  0  0  0  0
  147.0131  134.2720  153.6340 H   0  0  0  0  0  0  0  0  0  0  0  0
  147.2530  134.2842  156.6948 H   0  0  0  0  0  0  0  0  0  0  0  0
  144.9402  133.8257  155.8847 H   0  0  0  0  0  0  0  0  0  0  0  0
  145.6703  132.3869  156.5905 H   0  0  0  0  0  0  0  0  0  0  0  0
  145.5549  132.5454  154.8401 H   0  0  0  0  0  0  0  0  0  0  0  0
  148.6711  135.7912  153.5677 H   0  0  0  0  0  0  0  0  0  0  0  0
  148.8853  143.0748  155.3727 H   0  0  0  0  0  0  0  0  0  0  0  0
  1  2  1  0  0  0  0
  1 24  1  0  0  0  0
  1 25  1  0  0  0  0
  1 26  1  0  0  0  0
  2 23  1  0  0  0  0
  2  3  1  0  0  0  0
  2 27  1  0  0  0  0
  3  4  1  0  0  0  0
  3 28  1  0  0  0  0
  3 29  1  0  0  0  0
  4  5  1  0  0  0  0
  4 20  1  0  0  0  0
  4 49  1  0  0  0  0
  5  6  1  0  0  0  0
  5 30  1  0  0  0  0
  5 31  1  0  0  0  0
  6  7  1  0  0  0  0
  6  8  1  0  0  0  0
  6 32  1  0  0  0  0
  7 33  1  0  0  0  0
  8  9  1  0  0  0  0
  8 34  1  0  0  0  0
  8 35  1  0  0  0  0
  9 19  1  0  0  0  0
  9 10  1  0  0  0  0
 10 11  1  0  0  0  0
 10 13  2  0  0  0  0
 11 12  1  0  0  0  0
 11 36  1  0  0  0  0
 11 37  1  0  0  0  0
 12 38  1  0  0  0  0
 13 14  1  0  0  0  0
 13 50  1  0  0  0  0
 14 19  2  0  0  0  0
 14 15  1  0  0  0  0
 15 16  2  0  0  0  0
 15 39  1  0  0  0  0
 16 17  1  0  0  0  0
 16 40  1  0  0  0  0
 17 18  2  0  0  0  0
 17 41  1  0  0  0  0
 18 19  1  0  0  0  0
 18 42  1  0  0  0  0
 20 21  1  0  0  0  0
 20 43  1  0  0  0  0
 20 44  1  0  0  0  0
 21 22  1  0  0  0  0
 21 23  1  0  0  0  0
 21 45  1  0  0  0  0
 22 46  1  0  0  0  0
 22 47  1  0  0  0  0
 22 48  1  0  0  0  0
M  CHG  1   4   1
M  CHG  1  13   1
M  END
> <s_m_source_file>
AV-unprocessed.smi

> <i_m_source_file_index>
1703

> <i_lp_mmshare_version>
43012

> <i_f3d_flags>
0

> <s_epik_input>
W0NIM11bQ0BASF0xW0NIMl1OKFtDSDJdW0NASF0oTzEpW0NIM10pW0NIMl1bQ0BIXShbT0hdKVtDSDJdbihjKG4yKVtDSDJdW09IXSljKGMyMylbY0hdW2NIXVtjSF1bY0hdMw==

> <s_epik_cmdline>
J2VwaWtfcHl0aG9uJywgJy1waCcsICc3LjAnLCAnLXRuJywgJzgnLCAnLW1hJywgJzIwMCcsICctbWV0YWxfYmluZGluZycsICctaW1hZScsICc8aW5maWxlLm1hZT4nLCAnLW9tYWUnLCAnPG91dGZpbGUubWFlPic=

> <r_epik_Ionization_Penalty>
2.22579

> <r_epik_Ionization_Penalty_Charging>
2.22492

> <r_epik_Ionization_Penalty_Neutral>
0.000870007

> <r_epik_State_Penalty>
2.3141

> <r_epik_Charging_Adjusted_Penalty>
4.53902

> <i_epik_Tot_Q>
2

> <i_epik_Tot_abs_Q>
2

> <r_epik_Metal_State_Penalty>
6.36517

> <b_epik_Metal_Only>
0

> <s_lp_Force_Field>
OPLS_2005

> <r_lp_Energy>
32.0601

> <b_lp_Chiralities_Consistent>
1

> <s_lp_Variant>
AV-unprocessed.smi:1703-22

> <Gold.Version>
5.8.1

> <Gold.Id.Protein>
6NUR|6NUR_protein|mol2

> <Gold.PLP.Fitness>
45.9343

> <Gold.PLP.PLP>
-34.7081

> <Gold.PLP.part.hbond>
-3.0000

> <Gold.PLP.part.metal>
0.0000

> <Gold.PLP.part.buried>
-4.5988

> <Gold.PLP.part.nonpolar>
-28.1844

> <Gold.PLP.part.repulsive>
0.1777

> <Gold.PLP.ligand.clash>
0.0000

> <Gold.PLP.ligand.torsion>
1.9248

> <Gold.PLP.Chemscore.Hbond>
5.0000

> <Gold.PLP.Chemscore.CHOScore>
0.0000

> <Gold.PLP.Chemscore.Metal>
0.0000

> <Gold.Chemscore.Hbonds>
donor molecule, donor type, donor heavy atom, donor atom, acceptor molecule, acceptor atom, score
      L1  H     4    49       P1  7948  2.00
      L1  H     7    33       P1  7948  1.00
      L1  H    13    50       P1  8028  2.00

> <Gold.PLP.Chemscore.Internal.Correction>
0.0758

> <Gold.Rescore>
     Score         DG    S(hbond)    S(metal)    S(lipo)     H(rot)  DE(clash)    DE(int)     intcor
     15.32     -17.53       2.97        0.00      84.62       3.04       0.11       2.09       ----

> <Gold.Chemscore.Fitness>
15.3227

> <Gold.Chemscore.DG>
-17.5305

> <Gold.Chemscore.ZeroCoef>
-5.4800

> <Gold.Chemscore.Hbond>
2.9722

> <Gold.Chemscore.Metal>
0.0000

> <Gold.Chemscore.Lipo>
84.6170

> <Gold.Chemscore.Internal_Hbond>
0.0000

> <Gold.Chemscore.DEClash>
0.1134

> <Gold.Chemscore.DEInternal>
2.0944

> <Gold.Chemscore.Rot>
3.0378

> <Gold.Chemscore.Internal.Correction>
   9.000000E+99

> <Gold.Chemscore.Hbonds>
donor molecule, donor type, donor heavy atom, donor atom, acceptor molecule, acceptor atom, score
      L1  H     4    49       P1  7948  0.99
      L1  H     7    33       P1  7948  1.00
      L1  H    13    50       P1  8028  0.97

> <Gold.Chemscore.Hbond.Weighted>
-9.9270

> <Gold.Chemscore.Metal.Weighted>
-0.0000

> <Gold.Chemscore.Lipo.Weighted>
-9.9002

> <Gold.Chemscore.Internal_Hbond.Weighted>
0.0000

> <Gold.Chemscore.DEClash.Weighted>
0.1134

> <Gold.Chemscore.DEInternal.Weighted>
2.0944

> <Gold.Chemscore.Rot.Weighted>
7.7767

> <Gold.Chemscore.Internal.Correction.Weighted>
   9.000000E+99

> <Gold.Protein.RotatedTorsions>
[ 6907 6896 6895 6894 ] final   83.69 input  -60.11 | X-H torsion
[ 7974 7965 7964 7962 ] final   -4.97 input  175.53 | X-H torsion
[ 8008 7997 7996 7995 ] final  -93.12 input   59.86 | X-H torsion
[ 10167 10162 10161 10158 ] final   60.23 input  -65.29 | X-H torsion
[ 10718 10713 10712 10709 ] final  -97.17 input   66.30 | X-H torsion
[ 10763 10752 10751 10750 ] final  -98.97 input  -60.55 | X-H torsion
[ 11005 11000 10999 10996 ] final   46.77 input  -57.11 | X-H torsion

> <Gold.Protein.ActiveResidues>
 VAL166  LYS551  ARG553  GLY616  TRP617  ASP618  TYR619  PRO620  LYS621  CYS622 
 ASP623  PHE694  ASN695  SER759  ASP760  ASP761  ALA762  ILE779  LEU786  VAL792 
 PHE793  MET794  SER795  GLU796  ALA797  LYS798  CYS799  TRP800  GLU811  SER814 

> <Gold.Protein.RotatedAtoms>
  152.5333  134.2857  159.9023 H   0  0  0  0  0  0  0  0  0  0  0  0  # atno 6907 bound_to 6896
  151.2810  133.4203  159.2634 H   0  0  0  0  0  0  0  0  0  0  0  0  # atno 6908 bound_to 6896
  151.0284  134.9536  159.8154 H   0  0  0  0  0  0  0  0  0  0  0  0  # atno 6909 bound_to 6896
  146.2362  140.1951  142.8333 H   0  0  0  0  0  0  0  0  0  0  0  0  # atno 7974 bound_to 7965
  154.7317  140.0502  157.0732 H   0  0  0  0  0  0  0  0  0  0  0  0  # atno 8008 bound_to 7997
  155.0293  140.3156  155.4745 H   0  0  0  0  0  0  0  0  0  0  0  0  # atno 8009 bound_to 7997
  156.2843  140.2153  156.5414 H   0  0  0  0  0  0  0  0  0  0  0  0  # atno 8010 bound_to 7997
  140.1678  144.4306  150.6676 H   0  0  0  0  0  0  0  0  0  0  0  0  # atno 10167 bound_to 10162
  156.0077  130.5182  150.6334 H   0  0  0  0  0  0  0  0  0  0  0  0  # atno 10718 bound_to 10713
  154.7459  135.4990  153.9202 H   0  0  0  0  0  0  0  0  0  0  0  0  # atno 10763 bound_to 10752
  153.1091  135.6704  153.9541 H   0  0  0  0  0  0  0  0  0  0  0  0  # atno 10764 bound_to 10752
  153.9305  135.3078  155.3425 H   0  0  0  0  0  0  0  0  0  0  0  0  # atno 10765 bound_to 10752
  140.1339  134.4670  155.8501 H   0  0  0  0  0  0  0  0  0  0  0  0  # atno 11005 bound_to 11000
  144.9826  140.8474  143.5388 LP  0  0  0  0  0  0  0  0  0  0  0  0  # atno 17320 bound_to 7965
  145.1947  139.2283  143.5224 LP  0  0  0  0  0  0  0  0  0  0  0  0  # atno 17321 bound_to 7965
  140.6601  143.2249  151.5875 LP  0  0  0  0  0  0  0  0  0  0  0  0  # atno 17342 bound_to 10162
  139.5351  144.2803  152.1234 LP  0  0  0  0  0  0  0  0  0  0  0  0  # atno 17343 bound_to 10162
  157.4128  131.0826  151.1205 LP  0  0  0  0  0  0  0  0  0  0  0  0  # atno 17370 bound_to 10713
  157.1831  130.6318  149.5678 LP  0  0  0  0  0  0  0  0  0  0  0  0  # atno 17371 bound_to 10713
  141.2175  133.6806  156.7120 LP  0  0  0  0  0  0  0  0  0  0  0  0  # atno 17394 bound_to 11000
  140.2808  134.8318  157.3931 LP  0  0  0  0  0  0  0  0  0  0  0  0  # atno 17395 bound_to 11000

$$$$
