AV-unprocessed.smi:48|AV-procd|sdf|459|dock10
  -GOLD-   2262016333D 1   1.00000     0.00000
 Structure written by MMmdl.
 30 32  0  0  0  0  0  0  0  0  1 V2000
  148.9722  141.0783  153.2134 O   0  0  0  0  0  0  0  0  0  0  0  0
  148.5924  140.4937  154.4405 C   0  0  0  0  0  0  0  0  0  0  0  0
  149.7832  139.7365  155.0548 C   0  0  1  0  0  0  0  0  0  0  0  0
  150.8732  140.6212  155.3126 O   0  0  0  0  0  0  0  0  0  0  0  0
  151.6007  140.2091  156.4317 C   0  0  1  0  0  0  0  0  0  0  0  0
  151.5853  141.3372  157.4170 N   0  0  0  0  0  0  0  0  0  0  0  0
  150.8258  142.4537  157.4206 C   0  0  0  0  0  0  0  0  0  0  0  0
  151.0048  143.3140  158.4225 N   0  0  0  0  0  0  0  0  0  0  0  0
  152.0025  142.6864  159.1502 C   0  0  0  0  0  0  0  0  0  0  0  0
  152.6865  143.0317  160.3408 C   0  0  0  0  0  0  0  0  0  0  0  0
  152.3251  144.4951  161.1808 Cl  0  0  0  0  0  0  0  0  0  0  0  0
  153.6337  142.1840  160.8088 N   0  0  0  0  0  0  0  0  0  0  0  0
  153.8939  141.0548  160.1378 C   0  0  0  0  0  0  0  0  0  0  0  0
  153.3360  140.5993  159.0099 N   0  0  0  0  0  0  0  0  0  0  0  0
  152.3816  141.4567  158.5417 C   0  0  0  0  0  0  0  0  0  0  0  0
  150.9107  138.9492  156.9870 C   0  0  1  0  0  0  0  0  0  0  0  0
  150.9167  138.8171  158.3979 O   0  0  0  0  0  0  0  0  0  0  0  0
  149.5095  139.0464  156.3992 C   0  0  1  0  0  0  0  0  0  0  0  0
  148.6298  139.8098  157.2082 O   0  0  0  0  0  0  0  0  0  0  0  0
  150.1365  138.9722  154.3599 H   0  0  0  0  0  0  0  0  0  0  0  0
  152.6548  140.0638  156.1921 H   0  0  0  0  0  0  0  0  0  0  0  0
  151.4177  138.0866  156.5522 H   0  0  0  0  0  0  0  0  0  0  0  0
  149.0640  138.0612  156.2585 H   0  0  0  0  0  0  0  0  0  0  0  0
  149.0925  140.3897  152.5776 H   0  0  0  0  0  0  0  0  0  0  0  0
  148.2113  141.2562  155.1205 H   0  0  0  0  0  0  0  0  0  0  0  0
  147.7743  139.8036  154.2321 H   0  0  0  0  0  0  0  0  0  0  0  0
  150.0992  142.6477  156.6454 H   0  0  0  0  0  0  0  0  0  0  0  0
  154.6586  140.4241  160.5667 H   0  0  0  0  0  0  0  0  0  0  0  0
  150.0279  138.9037  158.7074 H   0  0  0  0  0  0  0  0  0  0  0  0
  147.7648  139.4344  157.1429 H   0  0  0  0  0  0  0  0  0  0  0  0
  1  2  1  0  0  0  0
  1 24  1  0  0  0  0
  2  3  1  0  0  0  0
  2 25  1  0  0  0  0
  2 26  1  0  0  0  0
  3 20  1  0  0  0  0
  3 18  1  0  0  0  0
  3  4  1  0  0  0  0
  4  5  1  0  0  0  0
  5 21  1  0  0  0  0
  5  6  1  0  0  0  0
  5 16  1  0  0  0  0
  6 15  1  0  0  0  0
  6  7  1  0  0  0  0
  7  8  2  0  0  0  0
  7 27  1  0  0  0  0
  8  9  1  0  0  0  0
  9 15  2  0  0  0  0
  9 10  1  0  0  0  0
 10 11  1  0  0  0  0
 10 12  2  0  0  0  0
 12 13  1  0  0  0  0
 13 14  2  0  0  0  0
 13 28  1  0  0  0  0
 14 15  1  0  0  0  0
 16 22  1  0  0  0  0
 16 17  1  0  0  0  0
 16 18  1  0  0  0  0
 17 29  1  0  0  0  0
 18 23  1  0  0  0  0
 18 19  1  0  0  0  0
 19 30  1  0  0  0  0
M  END
> <s_m_source_file>
AV-unprocessed.smi

> <i_m_source_file_index>
48

> <i_lp_mmshare_version>
43012

> <i_f3d_flags>
0

> <s_epik_input>
W09IXVtDSDJdW0NASF0xT1tDQEhdKFtDQEhdKFtPSF0pW0NAQEhdMVtPSF0pbihbY0hdbjIpYyhjMjMpbltjSF1uYzNDbA==

> <s_epik_cmdline>
J2VwaWtfcHl0aG9uJywgJy1waCcsICc3LjAnLCAnLXRuJywgJzgnLCAnLW1hJywgJzIwMCcsICctbWV0YWxfYmluZGluZycsICctaW1hZScsICc8aW5maWxlLm1hZT4nLCAnLW9tYWUnLCAnPG91dGZpbGUubWFlPic=

> <r_lp_tautomer_probability>
1

> <r_epik_Ionization_Penalty>
3.45505e-06

> <r_epik_Ionization_Penalty_Charging>
0

> <r_epik_Ionization_Penalty_Neutral>
3.45505e-06

> <r_epik_State_Penalty>
-0

> <r_epik_Charging_Adjusted_Penalty>
0

> <i_epik_Tot_Q>
0

> <i_epik_Tot_abs_Q>
0

> <r_epik_Metal_State_Penalty>
-0

> <b_epik_Metal_Only>
0

> <s_epik_Chemistry_Notes>
This compound contains an acetal/aminal-like group ( X-CH(R)-Y where X, Y are N, S, or O) that may be acid/base labile, releasing an aldehyde.

> <s_lp_Force_Field>
OPLS_2005

> <r_lp_Energy>
40.6027

> <b_lp_Chiralities_Consistent>
1

> <s_lp_Variant>
AV-unprocessed.smi:48-13

> <Gold.Version>
5.8.1

> <Gold.Id.Protein>
6NUR|6NUR_protein|mol2

> <Gold.PLP.Fitness>
42.5877

> <Gold.PLP.PLP>
-31.6638

> <Gold.PLP.part.hbond>
-3.6428

> <Gold.PLP.part.metal>
0.0000

> <Gold.PLP.part.buried>
-5.2916

> <Gold.PLP.part.nonpolar>
-22.3551

> <Gold.PLP.part.repulsive>
0.1660

> <Gold.PLP.ligand.clash>
0.0000

> <Gold.PLP.ligand.torsion>
0.3330

> <Gold.PLP.Chemscore.Hbond>
2.8933

> <Gold.PLP.Chemscore.CHOScore>
0.9181

> <Gold.PLP.Chemscore.Metal>
0.0000

> <Gold.Chemscore.Hbonds>
donor molecule, donor type, donor heavy atom, donor atom, acceptor molecule, acceptor atom, score
      L1  H     1    24       P1  7957  0.90
      P1  H  7989  7998       L1     4  0.91
      P1  H  7997  8009       L1    14  0.10
      P1  H  8011  8017       L1     1  0.90
      L1  C     7    27       P1  8028  0.84

> <Gold.PLP.Chemscore.Internal.Correction>
0.1557

> <Gold.Rescore>
     Score         DG    S(hbond)    S(metal)    S(lipo)     H(rot)  DE(clash)    DE(int)     intcor
      9.64     -10.22       2.51        0.00      51.92       3.80       0.02       0.56       ----

> <Gold.Chemscore.Fitness>
9.6399

> <Gold.Chemscore.DG>
-10.2174

> <Gold.Chemscore.ZeroCoef>
-5.4800

> <Gold.Chemscore.Hbond>
2.5134

> <Gold.Chemscore.Metal>
0.0000

> <Gold.Chemscore.Lipo>
51.9225

> <Gold.Chemscore.Internal_Hbond>
0.0000

> <Gold.Chemscore.DEClash>
0.0158

> <Gold.Chemscore.DEInternal>
0.5618

> <Gold.Chemscore.Rot>
3.8017

> <Gold.Chemscore.Internal.Correction>
   9.000000E+99

> <Gold.Chemscore.Hbonds>
donor molecule, donor type, donor heavy atom, donor atom, acceptor molecule, acceptor atom, score
      L1  H     1    24       P1  7957  0.83
      P1  H  7989  7998       L1     4  0.30
      P1  H  7997  8009       L1    14  0.05
      P1  H  8011  8017       L1     1  0.18

> <Gold.Chemscore.Hbond.Weighted>
-8.3949

> <Gold.Chemscore.Metal.Weighted>
-0.0000

> <Gold.Chemscore.Lipo.Weighted>
-6.0749

> <Gold.Chemscore.Internal_Hbond.Weighted>
0.0000

> <Gold.Chemscore.DEClash.Weighted>
0.0158

> <Gold.Chemscore.DEInternal.Weighted>
0.5618

> <Gold.Chemscore.Rot.Weighted>
9.7324

> <Gold.Chemscore.Internal.Correction.Weighted>
   9.000000E+99

> <Gold.Protein.RotatedTorsions>
[ 6907 6896 6895 6894 ] final  -34.29 input  -60.11 | X-H torsion
[ 7974 7965 7964 7962 ] final   89.73 input  175.53 | X-H torsion
[ 8008 7997 7996 7995 ] final  148.48 input   59.86 | X-H torsion
[ 10167 10162 10161 10158 ] final   80.96 input  -65.29 | X-H torsion
[ 10718 10713 10712 10709 ] final -173.90 input   66.30 | X-H torsion
[ 10763 10752 10751 10750 ] final   39.77 input  -60.55 | X-H torsion
[ 11005 11000 10999 10996 ] final  -20.37 input  -57.11 | X-H torsion

> <Gold.Protein.ActiveResidues>
 VAL166  LYS551  ARG553  GLY616  TRP617  ASP618  TYR619  PRO620  LYS621  CYS622 
 ASP623  PHE694  ASN695  SER759  ASP760  ASP761  ALA762  ILE779  LEU786  VAL792 
 PHE793  MET794  SER795  GLU796  ALA797  LYS798  CYS799  TRP800  GLU811  SER814 

> <Gold.Protein.RotatedAtoms>
  151.0545  134.9695  159.8228 H   0  0  0  0  0  0  0  0  0  0  0  0  # atno 6907 bound_to 6896
  152.5386  134.2495  159.8903 H   0  0  0  0  0  0  0  0  0  0  0  0  # atno 6908 bound_to 6896
  151.2512  133.4306  159.2645 H   0  0  0  0  0  0  0  0  0  0  0  0  # atno 6909 bound_to 6896
  145.5285  139.2282  143.2632 H   0  0  0  0  0  0  0  0  0  0  0  0  # atno 7974 bound_to 7965
  156.2789  140.2127  156.5706 H   0  0  0  0  0  0  0  0  0  0  0  0  # atno 8008 bound_to 7997
  154.7139  140.0509  157.0599 H   0  0  0  0  0  0  0  0  0  0  0  0  # atno 8009 bound_to 7997
  155.0569  140.3162  155.4676 H   0  0  0  0  0  0  0  0  0  0  0  0  # atno 8010 bound_to 7997
  139.9442  144.6069  150.8222 H   0  0  0  0  0  0  0  0  0  0  0  0  # atno 10167 bound_to 10162
  156.7771  130.9470  151.3120 H   0  0  0  0  0  0  0  0  0  0  0  0  # atno 10718 bound_to 10713
  152.9956  135.6211  154.2519 H   0  0  0  0  0  0  0  0  0  0  0  0  # atno 10763 bound_to 10752
  154.2258  135.2794  155.2910 H   0  0  0  0  0  0  0  0  0  0  0  0  # atno 10764 bound_to 10752
  154.5491  135.5738  153.6964 H   0  0  0  0  0  0  0  0  0  0  0  0  # atno 10765 bound_to 10752
  140.8457  133.7893  155.9910 H   0  0  0  0  0  0  0  0  0  0  0  0  # atno 11005 bound_to 11000
  146.2060  140.6100  142.9081 LP  0  0  0  0  0  0  0  0  0  0  0  0  # atno 17320 bound_to 7965
  144.7638  140.5484  143.6717 LP  0  0  0  0  0  0  0  0  0  0  0  0  # atno 17321 bound_to 7965
  140.7602  143.3146  151.2764 LP  0  0  0  0  0  0  0  0  0  0  0  0  # atno 17342 bound_to 10162
  139.6680  144.0071  152.2735 LP  0  0  0  0  0  0  0  0  0  0  0  0  # atno 17343 bound_to 10162
  157.6664  130.9011  149.9941 LP  0  0  0  0  0  0  0  0  0  0  0  0  # atno 17370 bound_to 10713
  156.1241  130.3645  149.9838 LP  0  0  0  0  0  0  0  0  0  0  0  0  # atno 17371 bound_to 10713
  140.8846  134.2570  157.5127 LP  0  0  0  0  0  0  0  0  0  0  0  0  # atno 17394 bound_to 11000
  139.8703  134.9631  156.4453 LP  0  0  0  0  0  0  0  0  0  0  0  0  # atno 17395 bound_to 11000

$$$$
