AV-unprocessed.smi:2076|AV-procd|sdf|8458|dock9
  -GOLD-   2272011153D 1   1.00000     0.00000
 Structure written by MMmdl.
 44 45  0  0  0  0  0  0  0  0  1 V2000
  148.3971  144.9594  161.1395 C   0  0  0  0  0  0  0  0  0  0  0  0
  149.7497  144.6987  160.5455 C   0  0  0  0  0  0  0  0  0  0  0  0
  150.2835  145.1862  159.3199 C   0  0  0  0  0  0  0  0  0  0  0  0
  151.5396  144.6513  159.2618 C   0  0  0  0  0  0  0  0  0  0  0  0
  152.5997  144.7959  158.2197 C   0  0  0  0  0  0  0  0  0  0  0  0
  151.7061  143.8926  160.4071 N   0  0  0  0  0  0  0  0  0  0  0  0
  152.8618  143.1215  160.8385 C   0  0  0  0  0  0  0  0  0  0  0  0
  153.1367  141.9565  159.8868 C   0  0  0  0  0  0  0  0  0  0  0  0
  154.2217  141.3765  159.9189 O   0  0  0  0  0  0  0  0  0  0  0  0
  152.1459  141.6259  159.0463 N   0  0  0  0  0  0  0  0  0  0  0  0
  152.2096  140.5460  158.0685 C   0  0  0  0  0  0  0  0  0  0  0  0
  151.0042  140.5658  157.0884 C   0  0  1  0  0  0  0  0  0  0  0  0
  150.9583  141.9453  156.3826 C   0  0  0  0  0  0  0  0  0  0  0  0
  151.0058  139.4358  156.1298 N   0  0  0  0  0  0  0  0  0  0  0  0
  150.9785  138.1308  156.8009 C   0  0  0  0  0  0  0  0  0  0  0  0
  151.0072  136.9496  155.8156 C   0  0  0  0  0  0  0  0  0  0  0  0
  152.1543  137.0473  154.9832 O   0  0  0  0  0  0  0  0  0  0  0  0
  152.1792  138.2652  154.2523 C   0  0  0  0  0  0  0  0  0  0  0  0
  152.1626  139.4554  155.2270 C   0  0  0  0  0  0  0  0  0  0  0  0
  150.6060  143.9243  161.1915 N   0  0  0  0  0  0  0  0  0  0  0  0
  147.8224  145.6503  160.5223 H   0  0  0  0  0  0  0  0  0  0  0  0
  148.4822  145.3967  162.1347 H   0  0  0  0  0  0  0  0  0  0  0  0
  147.8229  144.0369  161.2269 H   0  0  0  0  0  0  0  0  0  0  0  0
  149.8151  145.8331  158.5930 H   0  0  0  0  0  0  0  0  0  0  0  0
  152.2277  145.3565  157.3621 H   0  0  0  0  0  0  0  0  0  0  0  0
  152.9320  143.8217  157.8621 H   0  0  0  0  0  0  0  0  0  0  0  0
  153.4649  145.3261  158.6178 H   0  0  0  0  0  0  0  0  0  0  0  0
  153.7358  143.7732  160.8909 H   0  0  0  0  0  0  0  0  0  0  0  0
  152.6867  142.7482  161.8480 H   0  0  0  0  0  0  0  0  0  0  0  0
  151.2860  142.1535  159.0933 H   0  0  0  0  0  0  0  0  0  0  0  0
  153.1450  140.6044  157.5088 H   0  0  0  0  0  0  0  0  0  0  0  0
  152.2401  139.6263  158.6505 H   0  0  0  0  0  0  0  0  0  0  0  0
  150.1011  140.4886  157.6960 H   0  0  0  0  0  0  0  0  0  0  0  0
  151.0172  142.7772  157.0838 H   0  0  0  0  0  0  0  0  0  0  0  0
  150.0277  142.1003  155.8385 H   0  0  0  0  0  0  0  0  0  0  0  0
  151.7837  142.0541  155.6784 H   0  0  0  0  0  0  0  0  0  0  0  0
  151.8232  138.0498  157.4867 H   0  0  0  0  0  0  0  0  0  0  0  0
  150.0748  138.0243  157.3980 H   0  0  0  0  0  0  0  0  0  0  0  0
  151.0427  136.0052  156.3589 H   0  0  0  0  0  0  0  0  0  0  0  0
  150.1036  136.9336  155.2043 H   0  0  0  0  0  0  0  0  0  0  0  0
  153.0787  138.2925  153.6371 H   0  0  0  0  0  0  0  0  0  0  0  0
  151.3262  138.3096  153.5732 H   0  0  0  0  0  0  0  0  0  0  0  0
  152.1631  140.3579  154.6193 H   0  0  0  0  0  0  0  0  0  0  0  0
  153.0859  139.4614  155.8081 H   0  0  0  0  0  0  0  0  0  0  0  0
  1  2  1  0  0  0  0
  1 21  1  0  0  0  0
  1 22  1  0  0  0  0
  1 23  1  0  0  0  0
  2 20  2  0  0  0  0
  2  3  1  0  0  0  0
  3  4  2  0  0  0  0
  3 24  1  0  0  0  0
  4  5  1  0  0  0  0
  4  6  1  0  0  0  0
  5 25  1  0  0  0  0
  5 26  1  0  0  0  0
  5 27  1  0  0  0  0
  6  7  1  0  0  0  0
  6 20  1  0  0  0  0
  7  8  1  0  0  0  0
  7 28  1  0  0  0  0
  7 29  1  0  0  0  0
  8  9  2  0  0  0  0
  8 10  1  0  0  0  0
 10 11  1  0  0  0  0
 10 30  1  0  0  0  0
 11 12  1  0  0  0  0
 11 31  1  0  0  0  0
 11 32  1  0  0  0  0
 12 13  1  0  0  0  0
 12 14  1  0  0  0  0
 12 33  1  0  0  0  0
 13 34  1  0  0  0  0
 13 35  1  0  0  0  0
 13 36  1  0  0  0  0
 14 19  1  0  0  0  0
 14 15  1  0  0  0  0
 15 16  1  0  0  0  0
 15 37  1  0  0  0  0
 15 38  1  0  0  0  0
 16 17  1  0  0  0  0
 16 39  1  0  0  0  0
 16 40  1  0  0  0  0
 17 18  1  0  0  0  0
 18 19  1  0  0  0  0
 18 41  1  0  0  0  0
 18 42  1  0  0  0  0
 19 43  1  0  0  0  0
 19 44  1  0  0  0  0
M  END
> <s_m_source_file>
AV-unprocessed.smi

> <i_m_source_file_index>
2076

> <i_lp_mmshare_version>
43012

> <i_f3d_flags>
0

> <s_epik_input>
W0NIM11jMVtjSF1jKFtDSDNdKW4objEpW0NIMl1DKD1PKVtOSF1bQ0gyXVtDQEhdKFtDSDNdKU4yW0NIMl1bQ0gyXU9bQ0gyXVtDSDJdMg==

> <s_epik_cmdline>
J2VwaWtfcHl0aG9uJywgJy1waCcsICc3LjAnLCAnLXRuJywgJzgnLCAnLW1hJywgJzIwMCcsICctbWV0YWxfYmluZGluZycsICctaW1hZScsICc8aW5maWxlLm1hZT4nLCAnLW9tYWUnLCAnPG91dGZpbGUubWFlPic=

> <r_lp_tautomer_probability>
1

> <r_epik_Ionization_Penalty>
0.197284

> <r_epik_Ionization_Penalty_Charging>
0

> <r_epik_Ionization_Penalty_Neutral>
0.197284

> <r_epik_State_Penalty>
0.186684

> <r_epik_Charging_Adjusted_Penalty>
0.186684

> <i_epik_Tot_Q>
0

> <i_epik_Tot_abs_Q>
0

> <r_epik_Metal_State_Penalty>
0.186636

> <b_epik_Metal_Only>
0

> <s_lp_Force_Field>
OPLS_2005

> <r_lp_Energy>
27.1724

> <b_lp_Chiralities_Consistent>
1

> <s_lp_Variant>
AV-unprocessed.smi:2076-2

> <Gold.Version>
5.8.1

> <Gold.Id.Protein>
6NUR|6NUR_protein|mol2

> <Gold.PLP.Fitness>
48.9213

> <Gold.PLP.PLP>
-46.4100

> <Gold.PLP.part.hbond>
-2.0000

> <Gold.PLP.part.metal>
0.0000

> <Gold.PLP.part.buried>
-8.5854

> <Gold.PLP.part.nonpolar>
-36.1653

> <Gold.PLP.part.repulsive>
0.3889

> <Gold.PLP.ligand.clash>
0.0000

> <Gold.PLP.ligand.torsion>
0.2784

> <Gold.PLP.Chemscore.Hbond>
1.0000

> <Gold.PLP.Chemscore.CHOScore>
0.0000

> <Gold.PLP.Chemscore.Metal>
0.0000

> <Gold.Chemscore.Hbonds>
donor molecule, donor type, donor heavy atom, donor atom, acceptor molecule, acceptor atom, score
      P1  H 10752 10764       L1    17  0.83

> <Gold.PLP.Chemscore.Internal.Correction>
0.0682

> <Gold.Rescore>
     Score         DG    S(hbond)    S(metal)    S(lipo)     H(rot)  DE(clash)    DE(int)     intcor
     16.51     -16.92       0.99        0.00     106.81       1.70       0.09       0.32       ----

> <Gold.Chemscore.Fitness>
16.5082

> <Gold.Chemscore.DG>
-16.9222

> <Gold.Chemscore.ZeroCoef>
-5.4800

> <Gold.Chemscore.Hbond>
0.9866

> <Gold.Chemscore.Metal>
0.0000

> <Gold.Chemscore.Lipo>
106.8129

> <Gold.Chemscore.Internal_Hbond>
0.0000

> <Gold.Chemscore.DEClash>
0.0930

> <Gold.Chemscore.DEInternal>
0.3210

> <Gold.Chemscore.Rot>
1.6993

> <Gold.Chemscore.Internal.Correction>
   9.000000E+99

> <Gold.Chemscore.Hbonds>
donor molecule, donor type, donor heavy atom, donor atom, acceptor molecule, acceptor atom, score
      P1  H 10752 10764       L1    17  0.75

> <Gold.Chemscore.Hbond.Weighted>
-3.2953

> <Gold.Chemscore.Metal.Weighted>
-0.0000

> <Gold.Chemscore.Lipo.Weighted>
-12.4971

> <Gold.Chemscore.Internal_Hbond.Weighted>
0.0000

> <Gold.Chemscore.DEClash.Weighted>
0.0930

> <Gold.Chemscore.DEInternal.Weighted>
0.3210

> <Gold.Chemscore.Rot.Weighted>
4.3502

> <Gold.Chemscore.Internal.Correction.Weighted>
   9.000000E+99

> <Gold.Protein.RotatedTorsions>
[ 6907 6896 6895 6894 ] final  136.08 input  -60.11 | X-H torsion
[ 7974 7965 7964 7962 ] final    7.56 input  175.53 | X-H torsion
[ 8008 7997 7996 7995 ] final -163.80 input   59.86 | X-H torsion
[ 10167 10162 10161 10158 ] final  -25.12 input  -65.29 | X-H torsion
[ 10718 10713 10712 10709 ] final   18.48 input   66.30 | X-H torsion
[ 10763 10752 10751 10750 ] final  -50.95 input  -60.55 | X-H torsion
[ 11005 11000 10999 10996 ] final  -23.88 input  -57.11 | X-H torsion

> <Gold.Protein.ActiveResidues>
 VAL166  LYS551  ARG553  GLY616  TRP617  ASP618  TYR619  PRO620  LYS621  CYS622 
 ASP623  PHE694  ASN695  SER759  ASP760  ASP761  ALA762  ILE779  LEU786  VAL792 
 PHE793  MET794  SER795  GLU796  ALA797  LYS798  CYS799  TRP800  GLU811  SER814 

> <Gold.Protein.RotatedAtoms>
  152.2933  133.5583  159.5571 H   0  0  0  0  0  0  0  0  0  0  0  0  # atno 6907 bound_to 6896
  150.7245  134.0397  159.3770 H   0  0  0  0  0  0  0  0  0  0  0  0  # atno 6908 bound_to 6896
  151.8301  135.0624  160.0486 H   0  0  0  0  0  0  0  0  0  0  0  0  # atno 6909 bound_to 6896
  146.2425  140.0065  142.8411 H   0  0  0  0  0  0  0  0  0  0  0  0  # atno 7974 bound_to 7965
  155.8265  140.0927  157.1818 H   0  0  0  0  0  0  0  0  0  0  0  0  # atno 8008 bound_to 7997
  154.3979  140.1427  156.3623 H   0  0  0  0  0  0  0  0  0  0  0  0  # atno 8009 bound_to 7997
  155.8211  140.3446  155.5517 H   0  0  0  0  0  0  0  0  0  0  0  0  # atno 8010 bound_to 7997
  140.7287  143.4293  151.0827 H   0  0  0  0  0  0  0  0  0  0  0  0  # atno 10167 bound_to 10162
  157.0969  130.6451  149.5862 H   0  0  0  0  0  0  0  0  0  0  0  0  # atno 10718 bound_to 10713
  154.1187  135.6538  153.4899 H   0  0  0  0  0  0  0  0  0  0  0  0  # atno 10763 bound_to 10752
  153.0232  135.5265  154.7119 H   0  0  0  0  0  0  0  0  0  0  0  0  # atno 10764 bound_to 10752
  154.6320  135.2977  155.0175 H   0  0  0  0  0  0  0  0  0  0  0  0  # atno 10765 bound_to 10752
  140.8793  133.7665  156.0282 H   0  0  0  0  0  0  0  0  0  0  0  0  # atno 11005 bound_to 11000
  145.1367  140.9548  143.4513 LP  0  0  0  0  0  0  0  0  0  0  0  0  # atno 17320 bound_to 7965
  145.0335  139.3320  143.6012 LP  0  0  0  0  0  0  0  0  0  0  0  0  # atno 17321 bound_to 7965
  139.7948  143.8167  152.3156 LP  0  0  0  0  0  0  0  0  0  0  0  0  # atno 17342 bound_to 10162
  139.8164  144.7314  150.9630 LP  0  0  0  0  0  0  0  0  0  0  0  0  # atno 17343 bound_to 10162
  155.9883  130.4926  150.7166 LP  0  0  0  0  0  0  0  0  0  0  0  0  # atno 17370 bound_to 10713
  157.4674  131.0889  151.0680 LP  0  0  0  0  0  0  0  0  0  0  0  0  # atno 17371 bound_to 10713
  140.8480  134.2988  157.5287 LP  0  0  0  0  0  0  0  0  0  0  0  0  # atno 17394 bound_to 11000
  139.8718  134.9452  156.3904 LP  0  0  0  0  0  0  0  0  0  0  0  0  # atno 17395 bound_to 11000

$$$$
