AV-unprocessed.smi:174|AV-procd|sdf|1428|dock9
  -GOLD-   2262019203D 1   1.00000     0.00000
 Structure written by MMmdl.
 51 54  0  0  0  0  0  0  0  0  1 V2000
  144.8654  135.9430  149.8250 N   0  0  0  0  0  0  0  0  0  0  0  0
  145.0558  135.5087  151.0727 C   0  0  0  0  0  0  0  0  0  0  0  0
  145.8480  134.6049  151.3351 O   0  0  0  0  0  0  0  0  0  0  0  0
  144.2458  136.2094  152.1730 C   0  0  0  0  0  0  0  0  0  0  0  0
  145.0653  137.0661  153.0433 N   0  0  0  0  0  0  0  0  0  0  0  0
  144.9199  136.8544  154.4861 C   0  0  0  0  0  0  0  0  0  0  0  0
  145.1028  138.1519  155.2794 C   0  0  0  0  0  0  0  0  0  0  0  0
  146.3628  138.7897  154.9187 N   0  0  0  0  0  0  0  0  0  0  0  0
  146.9359  139.6924  155.7634 C   0  0  0  0  0  0  0  0  0  0  0  0
  146.2586  140.0092  156.8994 N   0  0  0  0  0  0  0  0  0  0  0  0
  146.7560  140.8908  157.7703 C   0  0  0  0  0  0  0  0  0  0  0  0
  147.9031  141.5664  157.7082 N   0  0  0  0  0  0  0  0  0  0  0  0
  148.5985  141.2522  156.5790 C   0  0  0  0  0  0  0  0  0  0  0  0
  148.1959  140.3374  155.5615 C   0  0  0  0  0  0  0  0  0  0  0  0
  149.1811  140.2824  154.5792 N   0  0  0  0  0  0  0  0  0  0  0  0
  150.0981  141.1168  154.9844 C   0  0  0  0  0  0  0  0  0  0  0  0
  149.8279  141.7437  156.1773 N   0  0  0  0  0  0  0  0  0  0  0  0
  150.6713  142.7115  156.8564 C   0  0  0  0  0  0  0  0  0  0  0  0
  151.0207  142.2713  158.2936 C   0  0  1  0  0  0  0  0  0  0  0  0
  151.7448  141.0571  158.2720 O   0  0  0  0  0  0  0  0  0  0  0  0
  151.8107  143.3153  159.1097 C   0  0  1  0  0  0  0  0  0  0  0  0
  151.1860  144.7081  159.2364 C   0  0  0  0  0  0  0  0  0  0  0  0
  151.8536  145.2191  160.4926 C   0  0  0  0  0  0  0  0  0  0  0  0
  151.8947  143.9604  161.3546 C   0  0  0  0  0  0  0  0  0  0  0  0
  152.0155  142.8672  160.4477 O   0  0  0  0  0  0  0  0  0  0  0  0
  146.7420  138.8679  153.4981 C   0  0  0  0  0  0  0  0  0  0  0  0
  145.9348  137.9742  152.5371 C   0  0  0  0  0  0  0  0  0  0  0  0
  146.1006  138.1297  151.3269 O   0  0  0  0  0  0  0  0  0  0  0  0
  145.3715  135.5149  149.0634 H   0  0  0  0  0  0  0  0  0  0  0  0
  144.2161  136.6948  149.6456 H   0  0  0  0  0  0  0  0  0  0  0  0
  143.4647  136.8046  151.6980 H   0  0  0  0  0  0  0  0  0  0  0  0
  143.7186  135.4599  152.7661 H   0  0  0  0  0  0  0  0  0  0  0  0
  143.9401  136.4326  154.7141 H   0  0  0  0  0  0  0  0  0  0  0  0
  145.6599  136.1171  154.8007 H   0  0  0  0  0  0  0  0  0  0  0  0
  144.2778  138.8367  155.0772 H   0  0  0  0  0  0  0  0  0  0  0  0
  145.0830  137.9097  156.3424 H   0  0  0  0  0  0  0  0  0  0  0  0
  146.1468  141.0819  158.6416 H   0  0  0  0  0  0  0  0  0  0  0  0
  151.0023  141.2983  154.4217 H   0  0  0  0  0  0  0  0  0  0  0  0
  151.5697  142.8628  156.2584 H   0  0  0  0  0  0  0  0  0  0  0  0
  150.1434  143.6656  156.8722 H   0  0  0  0  0  0  0  0  0  0  0  0
  150.0900  142.0731  158.8269 H   0  0  0  0  0  0  0  0  0  0  0  0
  152.0339  140.8966  157.3866 H   0  0  0  0  0  0  0  0  0  0  0  0
  152.8041  143.4276  158.6713 H   0  0  0  0  0  0  0  0  0  0  0  0
  151.3729  145.3376  158.3662 H   0  0  0  0  0  0  0  0  0  0  0  0
  150.1096  144.6576  159.3951 H   0  0  0  0  0  0  0  0  0  0  0  0
  152.8667  145.5560  160.2689 H   0  0  0  0  0  0  0  0  0  0  0  0
  151.3144  146.0418  160.9629 H   0  0  0  0  0  0  0  0  0  0  0  0
  152.7135  143.9751  162.0741 H   0  0  0  0  0  0  0  0  0  0  0  0
  150.9609  143.8479  161.9066 H   0  0  0  0  0  0  0  0  0  0  0  0
  146.6504  139.9015  153.1604 H   0  0  0  0  0  0  0  0  0  0  0  0
  147.7904  138.5873  153.3884 H   0  0  0  0  0  0  0  0  0  0  0  0
  1  2  1  0  0  0  0
  1 29  1  0  0  0  0
  1 30  1  0  0  0  0
  2  3  2  0  0  0  0
  2  4  1  0  0  0  0
  4  5  1  0  0  0  0
  4 31  1  0  0  0  0
  4 32  1  0  0  0  0
  5 27  1  0  0  0  0
  5  6  1  0  0  0  0
  6  7  1  0  0  0  0
  6 33  1  0  0  0  0
  6 34  1  0  0  0  0
  7  8  1  0  0  0  0
  7 35  1  0  0  0  0
  7 36  1  0  0  0  0
  8  9  1  0  0  0  0
  8 26  1  0  0  0  0
  9 14  1  0  0  0  0
  9 10  2  0  0  0  0
 10 11  1  0  0  0  0
 11 12  2  0  0  0  0
 11 37  1  0  0  0  0
 12 13  1  0  0  0  0
 13 17  1  0  0  0  0
 13 14  2  0  0  0  0
 14 15  1  0  0  0  0
 15 16  2  0  0  0  0
 16 17  1  0  0  0  0
 16 38  1  0  0  0  0
 17 18  1  0  0  0  0
 18 19  1  0  0  0  0
 18 39  1  0  0  0  0
 18 40  1  0  0  0  0
 19 20  1  0  0  0  0
 19 21  1  0  0  0  0
 19 41  1  0  0  0  0
 20 42  1  0  0  0  0
 21 25  1  0  0  0  0
 21 22  1  0  0  0  0
 21 43  1  0  0  0  0
 22 23  1  0  0  0  0
 22 44  1  0  0  0  0
 22 45  1  0  0  0  0
 23 24  1  0  0  0  0
 23 46  1  0  0  0  0
 23 47  1  0  0  0  0
 24 25  1  0  0  0  0
 24 48  1  0  0  0  0
 24 49  1  0  0  0  0
 26 27  1  0  0  0  0
 26 50  1  0  0  0  0
 26 51  1  0  0  0  0
 27 28  2  0  0  0  0
M  END
> <s_m_source_file>
AV-unprocessed.smi

> <i_m_source_file_index>
174

> <i_lp_mmshare_version>
43012

> <i_f3d_flags>
0

> <s_epik_input>
W05IMl1DKD1PKVtDSDJdTjFbQ0gyXVtDSDJdTihbQ0gyXUMxPU8pYyhuW2NIXW4yKWMoYzIzKW5bY0hdbjNbQ0gyXVtDQEhdKFtPSF0pW0NAQEhdNFtDSDJdW0NIMl1bQ0gyXU80

> <s_epik_cmdline>
J2VwaWtfcHl0aG9uJywgJy1waCcsICc3LjAnLCAnLXRuJywgJzgnLCAnLW1hJywgJzIwMCcsICctbWV0YWxfYmluZGluZycsICctaW1hZScsICc8aW5maWxlLm1hZT4nLCAnLW9tYWUnLCAnPG91dGZpbGUubWFlPic=

> <r_lp_tautomer_probability>
1

> <r_epik_Ionization_Penalty>
0.000250477

> <r_epik_Ionization_Penalty_Charging>
0

> <r_epik_Ionization_Penalty_Neutral>
0.000250477

> <r_epik_State_Penalty>
-0

> <r_epik_Charging_Adjusted_Penalty>
0

> <i_epik_Tot_Q>
0

> <i_epik_Tot_abs_Q>
0

> <r_epik_Metal_State_Penalty>
-0

> <b_epik_Metal_Only>
0

> <s_lp_Force_Field>
OPLS_2005

> <r_lp_Energy>
38.9575

> <b_lp_Chiralities_Consistent>
1

> <s_lp_Variant>
AV-unprocessed.smi:174-4

> <Gold.Version>
5.8.1

> <Gold.Id.Protein>
6NUR|6NUR_protein|mol2

> <Gold.PLP.Fitness>
49.0630

> <Gold.PLP.PLP>
-40.5491

> <Gold.PLP.part.hbond>
-3.1121

> <Gold.PLP.part.metal>
0.0000

> <Gold.PLP.part.buried>
-6.1417

> <Gold.PLP.part.nonpolar>
-34.1774

> <Gold.PLP.part.repulsive>
1.7153

> <Gold.PLP.ligand.clash>
0.0000

> <Gold.PLP.ligand.torsion>
0.3685

> <Gold.PLP.Chemscore.Hbond>
2.9913

> <Gold.PLP.Chemscore.CHOScore>
0.0000

> <Gold.PLP.Chemscore.Metal>
0.0000

> <Gold.Chemscore.Hbonds>
donor molecule, donor type, donor heavy atom, donor atom, acceptor molecule, acceptor atom, score
      L1  H     1    29       P1  7921  1.00
      L1  H     1    30       P1 10171  0.94

> <Gold.PLP.Chemscore.Internal.Correction>
0.2772

> <Gold.Rescore>
     Score         DG    S(hbond)    S(metal)    S(lipo)     H(rot)  DE(clash)    DE(int)     intcor
      9.60     -14.66       2.65        0.00      78.58       3.46       2.42       2.64       ----

> <Gold.Chemscore.Fitness>
9.6039

> <Gold.Chemscore.DG>
-14.6592

> <Gold.Chemscore.ZeroCoef>
-5.4800

> <Gold.Chemscore.Hbond>
2.6470

> <Gold.Chemscore.Metal>
0.0000

> <Gold.Chemscore.Lipo>
78.5786

> <Gold.Chemscore.Internal_Hbond>
0.0000

> <Gold.Chemscore.DEClash>
2.4192

> <Gold.Chemscore.DEInternal>
2.6361

> <Gold.Chemscore.Rot>
3.4591

> <Gold.Chemscore.Internal.Correction>
   9.000000E+99

> <Gold.Chemscore.Hbonds>
donor molecule, donor type, donor heavy atom, donor atom, acceptor molecule, acceptor atom, score
      L1  H     1    29       P1  7921  1.00
      L1  H     1    30       P1 10171  0.91
      P1  H  7954  7966       L1    28  0.01

> <Gold.Chemscore.Hbond.Weighted>
-8.8408

> <Gold.Chemscore.Metal.Weighted>
-0.0000

> <Gold.Chemscore.Lipo.Weighted>
-9.1937

> <Gold.Chemscore.Internal_Hbond.Weighted>
0.0000

> <Gold.Chemscore.DEClash.Weighted>
2.4192

> <Gold.Chemscore.DEInternal.Weighted>
2.6361

> <Gold.Chemscore.Rot.Weighted>
8.8553

> <Gold.Chemscore.Internal.Correction.Weighted>
   9.000000E+99

> <Gold.Protein.RotatedTorsions>
[ 6907 6896 6895 6894 ] final -102.08 input  -60.11 | X-H torsion
[ 7974 7965 7964 7962 ] final  -55.09 input  175.53 | X-H torsion
[ 8008 7997 7996 7995 ] final   37.41 input   59.86 | X-H torsion
[ 10167 10162 10161 10158 ] final  142.60 input  -65.29 | X-H torsion
[ 10718 10713 10712 10709 ] final  -52.83 input   66.30 | X-H torsion
[ 10763 10752 10751 10750 ] final  -54.09 input  -60.55 | X-H torsion
[ 11005 11000 10999 10996 ] final  100.89 input  -57.11 | X-H torsion

> <Gold.Protein.ActiveResidues>
 VAL166  LYS551  ARG553  GLY616  TRP617  ASP618  TYR619  PRO620  LYS621  CYS622 
 ASP623  PHE694  ASN695  SER759  ASP760  ASP761  ALA762  ILE779  LEU786  VAL792 
 PHE793  MET794  SER795  GLU796  ALA797  LYS798  CYS799  TRP800  GLU811  SER814 

> <Gold.Protein.RotatedAtoms>
  150.7181  134.0635  159.3839 H   0  0  0  0  0  0  0  0  0  0  0  0  # atno 6907 bound_to 6896
  151.8616  135.0520  160.0479 H   0  0  0  0  0  0  0  0  0  0  0  0  # atno 6908 bound_to 6896
  152.2713  133.5349  159.5477 H   0  0  0  0  0  0  0  0  0  0  0  0  # atno 6909 bound_to 6896
  145.8781  140.8165  142.9854 H   0  0  0  0  0  0  0  0  0  0  0  0  # atno 7974 bound_to 7965
  155.2033  140.3317  155.4340 H   0  0  0  0  0  0  0  0  0  0  0  0  # atno 8008 bound_to 7997
  156.2399  140.1890  156.7068 H   0  0  0  0  0  0  0  0  0  0  0  0  # atno 8009 bound_to 7997
  154.6127  140.0606  156.9500 H   0  0  0  0  0  0  0  0  0  0  0  0  # atno 8010 bound_to 7997
  139.4990  144.6096  151.6301 H   0  0  0  0  0  0  0  0  0  0  0  0  # atno 10167 bound_to 10162
  156.1588  130.4150  149.9826 H   0  0  0  0  0  0  0  0  0  0  0  0  # atno 10718 bound_to 10713
  154.1692  135.6462  153.5005 H   0  0  0  0  0  0  0  0  0  0  0  0  # atno 10763 bound_to 10752
  153.0089  135.5379  154.6630 H   0  0  0  0  0  0  0  0  0  0  0  0  # atno 10764 bound_to 10752
  154.5965  135.2939  155.0553 H   0  0  0  0  0  0  0  0  0  0  0  0  # atno 10765 bound_to 10752
  139.8772  134.9159  156.4824 H   0  0  0  0  0  0  0  0  0  0  0  0  # atno 11005 bound_to 11000
  144.6726  140.1342  143.7441 LP  0  0  0  0  0  0  0  0  0  0  0  0  # atno 17320 bound_to 7965
  145.9056  139.2456  143.1468 LP  0  0  0  0  0  0  0  0  0  0  0  0  # atno 17321 bound_to 7965
  140.5767  144.0016  150.6246 LP  0  0  0  0  0  0  0  0  0  0  0  0  # atno 17342 bound_to 10162
  140.3151  143.3173  152.0840 LP  0  0  0  0  0  0  0  0  0  0  0  0  # atno 17343 bound_to 10162
  156.7662  130.9169  151.3643 LP  0  0  0  0  0  0  0  0  0  0  0  0  # atno 17370 bound_to 10713
  157.6716  130.9056  150.0053 LP  0  0  0  0  0  0  0  0  0  0  0  0  # atno 17371 bound_to 10713
  140.8718  133.7983  155.9372 LP  0  0  0  0  0  0  0  0  0  0  0  0  # atno 17394 bound_to 11000
  140.8945  134.2455  157.5076 LP  0  0  0  0  0  0  0  0  0  0  0  0  # atno 17395 bound_to 11000

$$$$
