AV-unprocessed.smi:43|AV-procd|sdf|391|dock5
  -GOLD-   2262016243D 1   1.00000     0.00000
 Structure written by MMmdl.
 25 26  0  0  0  0  0  0  0  0  2 V2000
  150.1511  137.5349  158.2761 C   0  0  0  0  0  0  0  0  0  0  0  0
  151.3987  137.9886  158.8639 N   0  0  0  0  0  0  0  0  0  0  0  0
  152.1228  137.1313  159.6266 N   0  0  0  0  0  0  0  0  0  0  0  0
  153.1791  137.7757  160.0261 N   0  0  0  0  0  0  0  0  0  0  0  0
  153.1881  139.0681  159.5441 N   0  0  0  0  0  0  0  0  0  0  0  0
  152.0686  139.1567  158.8343 C   0  0  0  0  0  0  0  0  0  0  0  0
  151.6434  140.2985  158.1394 N   0  0  0  0  0  0  0  0  0  0  0  0
  151.8444  141.7111  158.4730 C   0  0  0  0  0  0  0  0  0  0  0  0
  151.3217  142.5610  157.3146 C   0  0  2  0  0  0  0  0  0  0  0  0
  150.8367  143.8173  157.7403 O   0  0  0  0  0  0  0  0  0  0  0  0
  150.2345  141.6788  156.7343 C   0  0  0  0  0  0  0  0  0  0  0  0
  150.8227  140.2761  156.9219 C   0  0  1  0  0  0  0  0  0  0  0  0
  151.6293  139.8124  155.6952 C   0  0  0  0  0  0  0  0  0  0  0  0
  151.0273  139.7993  154.5997 O   0  0  0  0  0  0  0  0  0  0  0  0
  152.8253  139.4850  155.8658 O   0  5  0  0  0  0  0  0  0  0  0  0
  152.1098  142.7124  156.5759 H   0  0  0  0  0  0  0  0  0  0  0  0
  150.0035  139.5700  157.0662 H   0  0  0  0  0  0  0  0  0  0  0  0
  150.1712  137.6810  157.1967 H   0  0  0  0  0  0  0  0  0  0  0  0
  149.3168  138.0860  158.7094 H   0  0  0  0  0  0  0  0  0  0  0  0
  150.0008  136.4730  158.4744 H   0  0  0  0  0  0  0  0  0  0  0  0
  151.2880  141.9245  159.3867 H   0  0  0  0  0  0  0  0  0  0  0  0
  152.8946  141.9365  158.6526 H   0  0  0  0  0  0  0  0  0  0  0  0
  150.1521  144.0889  157.1486 H   0  0  0  0  0  0  0  0  0  0  0  0
  149.3164  141.7690  157.3170 H   0  0  0  0  0  0  0  0  0  0  0  0
  149.9975  141.9241  155.6979 H   0  0  0  0  0  0  0  0  0  0  0  0
  1  2  1  0  0  0  0
  1 18  1  0  0  0  0
  1 19  1  0  0  0  0
  1 20  1  0  0  0  0
  2  6  1  0  0  0  0
  2  3  1  0  0  0  0
  3  4  2  0  0  0  0
  4  5  1  0  0  0  0
  5  6  2  0  0  0  0
  6  7  1  0  0  0  0
  7 12  1  0  0  0  0
  7  8  1  0  0  0  0
  8  9  1  0  0  0  0
  8 21  1  0  0  0  0
  8 22  1  0  0  0  0
  9 16  1  0  0  0  0
  9 10  1  0  0  0  0
  9 11  1  0  0  0  0
 10 23  1  0  0  0  0
 11 12  1  0  0  0  0
 11 24  1  0  0  0  0
 11 25  1  0  0  0  0
 12 17  1  0  0  0  0
 12 13  1  0  0  0  0
 13 14  2  0  0  0  0
 13 15  1  0  0  0  0
M  CHG  1  15  -1
M  END
> <s_m_source_file>
AV-unprocessed.smi

> <i_m_source_file_index>
43

> <i_lp_mmshare_version>
43012

> <i_f3d_flags>
0

> <s_epik_input>
W0NIM11uMW5ubmMxTjJbQ0gyXVtDQEhdKFtPSF0pW0NIMl1bQ0BIXTJDKD1PKVtPSF0=

> <s_epik_cmdline>
J2VwaWtfcHl0aG9uJywgJy1waCcsICc3LjAnLCAnLXRuJywgJzgnLCAnLW1hJywgJzIwMCcsICctbWV0YWxfYmluZGluZycsICctaW1hZScsICc8aW5maWxlLm1hZT4nLCAnLW9tYWUnLCAnPG91dGZpbGUubWFlPic=

> <r_lp_tautomer_probability>
1

> <r_epik_Ionization_Penalty>
0.000193127

> <r_epik_Ionization_Penalty_Charging>
0.000192933

> <r_epik_Ionization_Penalty_Neutral>
1.93728e-07

> <r_epik_State_Penalty>
-0

> <r_epik_Charging_Adjusted_Penalty>
0.000192933

> <i_epik_Tot_Q>
-1

> <i_epik_Tot_abs_Q>
1

> <r_epik_Metal_State_Penalty>
-0

> <b_epik_Metal_Only>
0

> <s_lp_Force_Field>
OPLS_2005

> <r_lp_Energy>
20.0938

> <b_lp_Chiralities_Consistent>
1

> <s_lp_Variant>
AV-unprocessed.smi:43-1

> <Gold.Version>
5.8.1

> <Gold.Id.Protein>
6NUR|6NUR_protein|mol2

> <Gold.PLP.Fitness>
38.7172

> <Gold.PLP.PLP>
-24.5487

> <Gold.PLP.part.hbond>
-3.9972

> <Gold.PLP.part.metal>
0.0000

> <Gold.PLP.part.buried>
-6.2722

> <Gold.PLP.part.nonpolar>
-14.6123

> <Gold.PLP.part.repulsive>
0.0787

> <Gold.PLP.ligand.clash>
0.0000

> <Gold.PLP.ligand.torsion>
0.4047

> <Gold.PLP.Chemscore.Hbond>
4.9913

> <Gold.PLP.Chemscore.CHOScore>
0.0000

> <Gold.PLP.Chemscore.Metal>
0.0000

> <Gold.Chemscore.Hbonds>
donor molecule, donor type, donor heavy atom, donor atom, acceptor molecule, acceptor atom, score
      L1  H    10    23       P1  8028  0.99
      P1  H  6896  6908       L1     3  0.94
      P1  H  7989  7998       L1    14  1.00
      P1  H  7997  8009       L1    15  2.00

> <Gold.PLP.Chemscore.Internal.Correction>
0.0041

> <Gold.Rescore>
     Score         DG    S(hbond)    S(metal)    S(lipo)     H(rot)  DE(clash)    DE(int)     intcor
     16.86     -17.95       3.96        0.00      30.40       1.69       0.00       1.09       ----

> <Gold.Chemscore.Fitness>
16.8600

> <Gold.Chemscore.DG>
-17.9465

> <Gold.Chemscore.ZeroCoef>
-5.4800

> <Gold.Chemscore.Hbond>
3.9619

> <Gold.Chemscore.Metal>
0.0000

> <Gold.Chemscore.Lipo>
30.4022

> <Gold.Chemscore.Internal_Hbond>
0.0000

> <Gold.Chemscore.DEClash>
0.0000

> <Gold.Chemscore.DEInternal>
1.0864

> <Gold.Chemscore.Rot>
1.6887

> <Gold.Chemscore.Internal.Correction>
   9.000000E+99

> <Gold.Chemscore.Hbonds>
donor molecule, donor type, donor heavy atom, donor atom, acceptor molecule, acceptor atom, score
      L1  H    10    23       P1  8028  0.82
      P1  H  6896  6908       L1     3  0.90
      P1  H  7989  7998       L1    14  0.88
      P1  H  7997  8009       L1    15  0.99

> <Gold.Chemscore.Hbond.Weighted>
-13.2326

> <Gold.Chemscore.Metal.Weighted>
-0.0000

> <Gold.Chemscore.Lipo.Weighted>
-3.5571

> <Gold.Chemscore.Internal_Hbond.Weighted>
0.0000

> <Gold.Chemscore.DEClash.Weighted>
0.0000

> <Gold.Chemscore.DEInternal.Weighted>
1.0864

> <Gold.Chemscore.Rot.Weighted>
4.3232

> <Gold.Chemscore.Internal.Correction.Weighted>
   9.000000E+99

> <Gold.Protein.RotatedTorsions>
[ 6907 6896 6895 6894 ] final -112.87 input  -60.11 | X-H torsion
[ 7974 7965 7964 7962 ] final  145.67 input  175.53 | X-H torsion
[ 8008 7997 7996 7995 ] final -139.11 input   59.86 | X-H torsion
[ 10167 10162 10161 10158 ] final  -45.80 input  -65.29 | X-H torsion
[ 10718 10713 10712 10709 ] final  156.72 input   66.30 | X-H torsion
[ 10763 10752 10751 10750 ] final  163.84 input  -60.55 | X-H torsion
[ 11005 11000 10999 10996 ] final   87.69 input  -57.11 | X-H torsion

> <Gold.Protein.ActiveResidues>
 VAL166  LYS551  ARG553  GLY616  TRP617  ASP618  TYR619  PRO620  LYS621  CYS622 
 ASP623  PHE694  ASN695  SER759  ASP760  ASP761  ALA762  ILE779  LEU786  VAL792 
 PHE793  MET794  SER795  GLU796  ALA797  LYS798  CYS799  TRP800  GLU811  SER814 

> <Gold.Protein.RotatedAtoms>
  150.7789  133.9026  159.3345 H   0  0  0  0  0  0  0  0  0  0  0  0  # atno 6907 bound_to 6896
  151.6894  135.0947  160.0240 H   0  0  0  0  0  0  0  0  0  0  0  0  # atno 6908 bound_to 6896
  152.3834  133.6539  159.6215 H   0  0  0  0  0  0  0  0  0  0  0  0  # atno 6909 bound_to 6896
  144.8733  139.5811  143.5877 H   0  0  0  0  0  0  0  0  0  0  0  0  # atno 7974 bound_to 7965
  155.4394  140.0530  157.3012 H   0  0  0  0  0  0  0  0  0  0  0  0  # atno 8008 bound_to 7997
  154.4825  140.2087  155.9688 H   0  0  0  0  0  0  0  0  0  0  0  0  # atno 8009 bound_to 7997
  156.1226  140.3185  155.8235 H   0  0  0  0  0  0  0  0  0  0  0  0  # atno 8010 bound_to 7997
  140.6843  143.2861  151.3691 H   0  0  0  0  0  0  0  0  0  0  0  0  # atno 10167 bound_to 10162
  157.2011  131.0676  151.2024 H   0  0  0  0  0  0  0  0  0  0  0  0  # atno 10718 bound_to 10713
  154.2998  135.2759  155.2616 H   0  0  0  0  0  0  0  0  0  0  0  0  # atno 10763 bound_to 10752
  154.5058  135.5796  153.6570 H   0  0  0  0  0  0  0  0  0  0  0  0  # atno 10764 bound_to 10752
  152.9902  135.6169  154.3168 H   0  0  0  0  0  0  0  0  0  0  0  0  # atno 10765 bound_to 10752
  139.8913  134.8439  156.2895 H   0  0  0  0  0  0  0  0  0  0  0  0  # atno 11005 bound_to 11000
  146.2945  139.7238  142.9136 LP  0  0  0  0  0  0  0  0  0  0  0  0  # atno 17320 bound_to 7965
  145.4089  141.0394  143.3028 LP  0  0  0  0  0  0  0  0  0  0  0  0  # atno 17321 bound_to 7965
  139.6189  144.0946  152.2372 LP  0  0  0  0  0  0  0  0  0  0  0  0  # atno 17342 bound_to 10162
  140.0384  144.6026  150.7431 LP  0  0  0  0  0  0  0  0  0  0  0  0  # atno 17343 bound_to 10162
  157.3766  130.7209  149.6601 LP  0  0  0  0  0  0  0  0  0  0  0  0  # atno 17370 bound_to 10713
  155.9700  130.4184  150.4326 LP  0  0  0  0  0  0  0  0  0  0  0  0  # atno 17371 bound_to 10713
  140.9985  133.7165  156.0924 LP  0  0  0  0  0  0  0  0  0  0  0  0  # atno 17394 bound_to 11000
  140.7529  134.4024  157.5538 LP  0  0  0  0  0  0  0  0  0  0  0  0  # atno 17395 bound_to 11000

$$$$
