AV-unprocessed.smi:2892|AV-procd|sdf|11119|dock1
  -GOLD-   2272015593D 1   1.00000     0.00000
 Structure written by MMmdl.
 42 42  0  0  0  0  0  0  0  0  2 V2000
  151.8509  140.5649  164.5948 C   0  0  0  0  0  0  0  0  0  0  0  0
  152.7470  140.1558  163.4162 C   0  0  0  0  0  0  0  0  0  0  0  0
  152.6424  138.6592  163.0176 C   0  0  1  0  0  0  0  0  0  0  0  0
  151.1874  138.3101  162.6298 C   0  0  0  0  0  0  0  0  0  0  0  0
  153.6326  138.2708  161.8751 C   0  0  2  0  0  0  0  0  0  0  0  0
  153.2738  138.9966  160.6563 N   0  0  0  0  0  0  0  0  0  0  0  0
  154.0637  139.8461  159.9783 C   0  0  0  0  0  0  0  0  0  0  0  0
  155.1847  140.1823  160.3595 O   0  0  0  0  0  0  0  0  0  0  0  0
  153.4984  140.4132  158.6726 C   0  0  0  0  0  0  0  0  0  0  0  0
  153.3536  141.9108  158.7607 C   0  0  0  0  0  0  0  0  0  0  0  0
  152.8755  142.6818  159.8587 C   0  0  0  0  0  0  0  0  0  0  0  0
  152.9026  143.9655  159.3957 C   0  0  0  0  0  0  0  0  0  0  0  0
  153.3946  143.9293  158.1068 N   0  0  0  0  0  0  0  0  0  0  0  0
  153.5734  145.0246  157.1658 C   0  0  0  0  0  0  0  0  0  0  0  0
  155.0175  145.0823  156.6437 C   0  0  0  0  0  0  0  0  0  0  0  0
  153.1354  146.3535  157.7989 C   0  0  0  0  0  0  0  0  0  0  0  0
  153.6726  142.6660  157.7193 N   0  0  0  0  0  0  0  0  0  0  0  0
  153.5425  136.7643  161.5623 C   0  0  0  0  0  0  0  0  0  0  0  0
  153.7092  135.9763  162.5186 O   0  0  0  0  0  0  0  0  0  0  0  0
  153.3050  136.4270  160.3800 O   0  5  0  0  0  0  0  0  0  0  0  0
  152.0587  141.5927  164.8929 H   0  0  0  0  0  0  0  0  0  0  0  0
  152.0263  139.9284  165.4625 H   0  0  0  0  0  0  0  0  0  0  0  0
  150.7927  140.5116  164.3420 H   0  0  0  0  0  0  0  0  0  0  0  0
  152.5252  140.7841  162.5529 H   0  0  0  0  0  0  0  0  0  0  0  0
  153.7680  140.4018  163.7056 H   0  0  0  0  0  0  0  0  0  0  0  0
  152.8928  138.0651  163.8985 H   0  0  0  0  0  0  0  0  0  0  0  0
  150.8668  138.8772  161.7555 H   0  0  0  0  0  0  0  0  0  0  0  0
  150.4893  138.5225  163.4382 H   0  0  0  0  0  0  0  0  0  0  0  0
  151.0669  137.2519  162.3985 H   0  0  0  0  0  0  0  0  0  0  0  0
  154.6516  138.5233  162.1758 H   0  0  0  0  0  0  0  0  0  0  0  0
  152.3734  138.7759  160.2570 H   0  0  0  0  0  0  0  0  0  0  0  0
  154.1659  140.1415  157.8545 H   0  0  0  0  0  0  0  0  0  0  0  0
  152.5359  139.9464  158.4578 H   0  0  0  0  0  0  0  0  0  0  0  0
  152.5413  142.3408  160.8270 H   0  0  0  0  0  0  0  0  0  0  0  0
  152.6090  144.8903  159.8695 H   0  0  0  0  0  0  0  0  0  0  0  0
  152.9243  144.8354  156.3086 H   0  0  0  0  0  0  0  0  0  0  0  0
  155.1256  145.8575  155.8849 H   0  0  0  0  0  0  0  0  0  0  0  0
  155.3088  144.1347  156.1897 H   0  0  0  0  0  0  0  0  0  0  0  0
  155.7259  145.3025  157.4429 H   0  0  0  0  0  0  0  0  0  0  0  0
  153.2122  147.1730  157.0841 H   0  0  0  0  0  0  0  0  0  0  0  0
  153.7517  146.6054  158.6623 H   0  0  0  0  0  0  0  0  0  0  0  0
  152.0987  146.3045  158.1343 H   0  0  0  0  0  0  0  0  0  0  0  0
  1  2  1  0  0  0  0
  1 21  1  0  0  0  0
  1 22  1  0  0  0  0
  1 23  1  0  0  0  0
  2  3  1  0  0  0  0
  2 24  1  0  0  0  0
  2 25  1  0  0  0  0
  3  4  1  0  0  0  0
  3  5  1  0  0  0  0
  3 26  1  0  0  0  0
  4 27  1  0  0  0  0
  4 28  1  0  0  0  0
  4 29  1  0  0  0  0
  5  6  1  0  0  0  0
  5 18  1  0  0  0  0
  5 30  1  0  0  0  0
  6  7  1  0  0  0  0
  6 31  1  0  0  0  0
  7  8  2  0  0  0  0
  7  9  1  0  0  0  0
  9 10  1  0  0  0  0
  9 32  1  0  0  0  0
  9 33  1  0  0  0  0
 10 17  2  0  0  0  0
 10 11  1  0  0  0  0
 11 12  2  0  0  0  0
 11 34  1  0  0  0  0
 12 13  1  0  0  0  0
 12 35  1  0  0  0  0
 13 14  1  0  0  0  0
 13 17  1  0  0  0  0
 14 15  1  0  0  0  0
 14 16  1  0  0  0  0
 14 36  1  0  0  0  0
 15 37  1  0  0  0  0
 15 38  1  0  0  0  0
 15 39  1  0  0  0  0
 16 40  1  0  0  0  0
 16 41  1  0  0  0  0
 16 42  1  0  0  0  0
 18 19  2  0  0  0  0
 18 20  1  0  0  0  0
M  CHG  1  20  -1
M  END
> <s_m_source_file>
AV-unprocessed.smi

> <i_m_source_file_index>
2892

> <i_lp_mmshare_version>
43012

> <i_f3d_flags>
0

> <s_epik_input>
W0NIM11bQ0gyXVtDQEhdKFtDSDNdKVtDQEBIXShDKD1PKVtPSF0pW05IXUMoPU8pW0NIMl1jMVtjSF1bY0hdbihuMSlbQ0hdKFtDSDNdKVtDSDNd

> <s_epik_cmdline>
J2VwaWtfcHl0aG9uJywgJy1waCcsICc3LjAnLCAnLXRuJywgJzgnLCAnLW1hJywgJzIwMCcsICctbWV0YWxfYmluZGluZycsICctaW1hZScsICc8aW5maWxlLm1hZT4nLCAnLW9tYWUnLCAnPG91dGZpbGUubWFlPic=

> <r_lp_tautomer_probability>
1

> <r_epik_Ionization_Penalty>
0.000286846

> <r_epik_Ionization_Penalty_Charging>
0.000224481

> <r_epik_Ionization_Penalty_Neutral>
6.23655e-05

> <r_epik_State_Penalty>
-0

> <r_epik_Charging_Adjusted_Penalty>
0.000224481

> <i_epik_Tot_Q>
-1

> <i_epik_Tot_abs_Q>
1

> <r_epik_Metal_State_Penalty>
-0

> <b_epik_Metal_Only>
0

> <s_lp_Force_Field>
OPLS_2005

> <r_lp_Energy>
14.4899

> <b_lp_Chiralities_Consistent>
1

> <s_lp_Variant>
AV-unprocessed.smi:2892-2

> <Gold.Version>
5.8.1

> <Gold.Id.Protein>
6NUR|6NUR_protein|mol2

> <Gold.PLP.Fitness>
52.0136

> <Gold.PLP.PLP>
-43.3723

> <Gold.PLP.part.hbond>
-2.0000

> <Gold.PLP.part.metal>
0.0000

> <Gold.PLP.part.buried>
-5.4542

> <Gold.PLP.part.nonpolar>
-35.3557

> <Gold.PLP.part.repulsive>
0.0264

> <Gold.PLP.ligand.clash>
0.0000

> <Gold.PLP.ligand.torsion>
0.3553

> <Gold.PLP.Chemscore.Hbond>
3.0000

> <Gold.PLP.Chemscore.CHOScore>
0.0000

> <Gold.PLP.Chemscore.Metal>
0.0000

> <Gold.Chemscore.Hbonds>
donor molecule, donor type, donor heavy atom, donor atom, acceptor molecule, acceptor atom, score
      P1  H  6896  6908       L1    20  1.89

> <Gold.PLP.Chemscore.Internal.Correction>
0.3520

> <Gold.Rescore>
     Score         DG    S(hbond)    S(metal)    S(lipo)     H(rot)  DE(clash)    DE(int)     intcor
     17.37     -17.84       2.00        0.00     100.84       2.39       0.02       0.45       ----

> <Gold.Chemscore.Fitness>
17.3650

> <Gold.Chemscore.DG>
-17.8376

> <Gold.Chemscore.ZeroCoef>
-5.4800

> <Gold.Chemscore.Hbond>
1.9965

> <Gold.Chemscore.Metal>
0.0000

> <Gold.Chemscore.Lipo>
100.8413

> <Gold.Chemscore.Internal_Hbond>
0.0000

> <Gold.Chemscore.DEClash>
0.0215

> <Gold.Chemscore.DEInternal>
0.4511

> <Gold.Chemscore.Rot>
2.3865

> <Gold.Chemscore.Internal.Correction>
   9.000000E+99

> <Gold.Chemscore.Hbonds>
donor molecule, donor type, donor heavy atom, donor atom, acceptor molecule, acceptor atom, score
      P1  H  6896  6908       L1    20  0.86

> <Gold.Chemscore.Hbond.Weighted>
-6.6685

> <Gold.Chemscore.Metal.Weighted>
-0.0000

> <Gold.Chemscore.Lipo.Weighted>
-11.7984

> <Gold.Chemscore.Internal_Hbond.Weighted>
0.0000

> <Gold.Chemscore.DEClash.Weighted>
0.0215

> <Gold.Chemscore.DEInternal.Weighted>
0.4511

> <Gold.Chemscore.Rot.Weighted>
6.1093

> <Gold.Chemscore.Internal.Correction.Weighted>
   9.000000E+99

> <Gold.Protein.RotatedTorsions>
[ 6907 6896 6895 6894 ] final  -59.43 input  -60.11 | X-H torsion
[ 7974 7965 7964 7962 ] final   50.28 input  175.53 | X-H torsion
[ 8008 7997 7996 7995 ] final  101.19 input   59.86 | X-H torsion
[ 10167 10162 10161 10158 ] final  164.01 input  -65.29 | X-H torsion
[ 10718 10713 10712 10709 ] final   70.42 input   66.30 | X-H torsion
[ 10763 10752 10751 10750 ] final   -6.64 input  -60.55 | X-H torsion
[ 11005 11000 10999 10996 ] final -154.03 input  -57.11 | X-H torsion

> <Gold.Protein.ActiveResidues>
 VAL166  LYS551  ARG553  GLY616  TRP617  ASP618  TYR619  PRO620  LYS621  CYS622 
 ASP623  PHE694  ASN695  SER759  ASP760  ASP761  ALA762  ILE779  LEU786  VAL792 
 PHE793  MET794  SER795  GLU796  ALA797  LYS798  CYS799  TRP800  GLU811  SER814 

> <Gold.Protein.RotatedAtoms>
  150.7931  134.6969  159.6527 H   0  0  0  0  0  0  0  0  0  0  0  0  # atno 6907 bound_to 6896
  152.4039  134.6237  160.0067 H   0  0  0  0  0  0  0  0  0  0  0  0  # atno 6908 bound_to 6896
  151.6500  133.3284  159.3186 H   0  0  0  0  0  0  0  0  0  0  0  0  # atno 6909 bound_to 6896
  146.0027  139.4457  143.0005 H   0  0  0  0  0  0  0  0  0  0  0  0  # atno 7974 bound_to 7965
  156.1276  140.3201  155.8300 H   0  0  0  0  0  0  0  0  0  0  0  0  # atno 8008 bound_to 7997
  155.4391  140.0524  157.3029 H   0  0  0  0  0  0  0  0  0  0  0  0  # atno 8009 bound_to 7997
  154.4874  140.2078  155.9637 H   0  0  0  0  0  0  0  0  0  0  0  0  # atno 8010 bound_to 7997
  139.4882  144.4279  151.9107 H   0  0  0  0  0  0  0  0  0  0  0  0  # atno 10167 bound_to 10162
  157.6399  130.9476  150.0649 H   0  0  0  0  0  0  0  0  0  0  0  0  # atno 10718 bound_to 10713
  153.4152  135.7008  153.6332 H   0  0  0  0  0  0  0  0  0  0  0  0  # atno 10763 bound_to 10752
  153.4809  135.3694  155.2442 H   0  0  0  0  0  0  0  0  0  0  0  0  # atno 10764 bound_to 10752
  154.8719  135.4066  154.3511 H   0  0  0  0  0  0  0  0  0  0  0  0  # atno 10765 bound_to 10752
  140.7018  134.3929  157.5209 H   0  0  0  0  0  0  0  0  0  0  0  0  # atno 11005 bound_to 11000
  145.7463  140.9989  143.1274 LP  0  0  0  0  0  0  0  0  0  0  0  0  # atno 17320 bound_to 7965
  144.6925  139.9159  143.7465 LP  0  0  0  0  0  0  0  0  0  0  0  0  # atno 17321 bound_to 7965
  140.3725  144.2837  150.5918 LP  0  0  0  0  0  0  0  0  0  0  0  0  # atno 17342 bound_to 10162
  140.5306  143.2244  151.8245 LP  0  0  0  0  0  0  0  0  0  0  0  0  # atno 17343 bound_to 10162
  156.1670  130.3645  149.9218 LP  0  0  0  0  0  0  0  0  0  0  0  0  # atno 17370 bound_to 10713
  156.7202  130.9004  151.3617 LP  0  0  0  0  0  0  0  0  0  0  0  0  # atno 17371 bound_to 10713
  139.8895  134.8829  156.2419 LP  0  0  0  0  0  0  0  0  0  0  0  0  # atno 17394 bound_to 11000
  141.0158  133.7069  156.1185 LP  0  0  0  0  0  0  0  0  0  0  0  0  # atno 17395 bound_to 11000

$$$$
