AV-unprocessed.smi:2124|AV-procd|sdf|8655|dock2
  -GOLD-   2272011403D 1   1.00000     0.00000
 Structure written by MMmdl.
 47 49  0  0  0  0  0  0  0  0  1 V2000
  153.6465  142.3803  162.5137 C   0  0  0  0  0  0  0  0  0  0  0  0
  152.9486  142.4758  161.1734 C   0  0  0  0  0  0  0  0  0  0  0  0
  152.1986  143.4670  160.8192 N   0  0  0  0  0  0  0  0  0  0  0  0
  151.6031  143.4414  159.5502 C   0  0  0  0  0  0  0  0  0  0  0  0
  150.7300  144.6371  159.2097 C   0  0  0  0  0  0  0  0  0  0  0  0
  151.8022  142.4021  158.6873 C   0  0  0  0  0  0  0  0  0  0  0  0
  151.1643  142.3414  157.3000 C   0  0  0  0  0  0  0  0  0  0  0  0
  149.8241  141.6077  157.2053 C   0  0  0  0  0  0  0  0  0  0  0  0
  149.7701  140.3857  157.3466 O   0  0  0  0  0  0  0  0  0  0  0  0
  148.7499  142.3802  156.9713 N   0  0  0  0  0  0  0  0  0  0  0  0
  147.3516  141.9543  156.8660 C   0  0  1  0  0  0  0  0  0  0  0  0
  146.4002  143.1594  157.0054 C   0  0  0  0  0  0  0  0  0  0  0  0
  147.0815  141.1148  155.5878 C   0  0  2  0  0  0  0  0  0  0  0  0
  147.5896  139.6560  155.6881 C   0  0  0  0  0  0  0  0  0  0  0  0
  148.4651  139.4983  154.4327 C   0  0  1  0  0  0  0  0  0  0  0  0
  147.5733  139.5054  153.1775 C   0  0  0  0  0  0  0  0  0  0  0  0
  147.1456  140.9814  153.0755 C   0  0  0  0  0  0  0  0  0  0  0  0
  147.8107  141.6137  154.3128 C   0  0  2  0  0  0  0  0  0  0  0  0
  149.1373  140.8626  154.3576 C   0  0  0  0  0  0  0  0  0  0  0  0
  152.6587  141.2749  159.1030 C   0  0  0  0  0  0  0  0  0  0  0  0
  152.8963  140.2868  158.4099 O   0  0  0  0  0  0  0  0  0  0  0  0
  153.1891  141.3835  160.3416 N   0  0  0  0  0  0  0  0  0  0  0  0
  153.7816  140.6365  160.6731 H   0  0  0  0  0  0  0  0  0  0  0  0
  152.9135  142.4038  163.3207 H   0  0  0  0  0  0  0  0  0  0  0  0
  154.3275  143.2218  162.6433 H   0  0  0  0  0  0  0  0  0  0  0  0
  154.2225  141.4580  162.6033 H   0  0  0  0  0  0  0  0  0  0  0  0
  151.1636  145.2039  158.3857 H   0  0  0  0  0  0  0  0  0  0  0  0
  150.6310  145.3101  160.0622 H   0  0  0  0  0  0  0  0  0  0  0  0
  149.7286  144.3161  158.9220 H   0  0  0  0  0  0  0  0  0  0  0  0
  151.0165  143.3605  156.9415 H   0  0  0  0  0  0  0  0  0  0  0  0
  151.8539  141.8921  156.5844 H   0  0  0  0  0  0  0  0  0  0  0  0
  148.9151  143.3711  156.8693 H   0  0  0  0  0  0  0  0  0  0  0  0
  147.1870  141.3131  157.7325 H   0  0  0  0  0  0  0  0  0  0  0  0
  145.3621  142.8398  157.0922 H   0  0  0  0  0  0  0  0  0  0  0  0
  146.4629  143.8272  156.1461 H   0  0  0  0  0  0  0  0  0  0  0  0
  146.6334  143.7424  157.8970 H   0  0  0  0  0  0  0  0  0  0  0  0
  146.0063  141.1042  155.4047 H   0  0  0  0  0  0  0  0  0  0  0  0
  148.1980  139.5032  156.5804 H   0  0  0  0  0  0  0  0  0  0  0  0
  146.7729  138.9339  155.7191 H   0  0  0  0  0  0  0  0  0  0  0  0
  149.1479  138.6497  154.4808 H   0  0  0  0  0  0  0  0  0  0  0  0
  148.1395  139.2079  152.2940 H   0  0  0  0  0  0  0  0  0  0  0  0
  146.7215  138.8313  153.2739 H   0  0  0  0  0  0  0  0  0  0  0  0
  147.5332  141.4284  152.1591 H   0  0  0  0  0  0  0  0  0  0  0  0
  146.0620  141.1055  153.0722 H   0  0  0  0  0  0  0  0  0  0  0  0
  147.9022  142.6969  154.2320 H   0  0  0  0  0  0  0  0  0  0  0  0
  149.7431  141.0974  155.2340 H   0  0  0  0  0  0  0  0  0  0  0  0
  149.7423  140.9976  153.4593 H   0  0  0  0  0  0  0  0  0  0  0  0
  1  2  1  0  0  0  0
  1 24  1  0  0  0  0
  1 25  1  0  0  0  0
  1 26  1  0  0  0  0
  2 22  1  0  0  0  0
  2  3  2  0  0  0  0
  3  4  1  0  0  0  0
  4  5  1  0  0  0  0
  4  6  2  0  0  0  0
  5 27  1  0  0  0  0
  5 28  1  0  0  0  0
  5 29  1  0  0  0  0
  6  7  1  0  0  0  0
  6 20  1  0  0  0  0
  7  8  1  0  0  0  0
  7 30  1  0  0  0  0
  7 31  1  0  0  0  0
  8  9  2  0  0  0  0
  8 10  1  0  0  0  0
 10 11  1  0  0  0  0
 10 32  1  0  0  0  0
 11 12  1  0  0  0  0
 11 13  1  0  0  0  0
 11 33  1  0  0  0  0
 12 34  1  0  0  0  0
 12 35  1  0  0  0  0
 12 36  1  0  0  0  0
 13 18  1  0  0  0  0
 13 14  1  0  0  0  0
 13 37  1  0  0  0  0
 14 15  1  0  0  0  0
 14 38  1  0  0  0  0
 14 39  1  0  0  0  0
 15 19  1  0  0  0  0
 15 16  1  0  0  0  0
 15 40  1  0  0  0  0
 16 17  1  0  0  0  0
 16 41  1  0  0  0  0
 16 42  1  0  0  0  0
 17 18  1  0  0  0  0
 17 43  1  0  0  0  0
 17 44  1  0  0  0  0
 18 19  1  0  0  0  0
 18 45  1  0  0  0  0
 19 46  1  0  0  0  0
 19 47  1  0  0  0  0
 20 21  2  0  0  0  0
 20 22  1  0  0  0  0
 22 23  1  0  0  0  0
M  END
> <s_m_source_file>
AV-unprocessed.smi

> <i_m_source_file_index>
2124

> <i_lp_mmshare_version>
43012

> <i_f3d_flags>
0

> <s_epik_input>
W0NIM11jMW5jKFtDSDNdKWMoYyg9TylbbkhdMSlbQ0gyXUMoPU8pW05IXVtDQEhdKFtDSDNdKVtDQEhdKFtDSDJdW0NASF0yMylbQ0BIXShbQ0gyXTMpW0NIMl1bQ0gyXTI=

> <s_epik_cmdline>
J2VwaWtfcHl0aG9uJywgJy1waCcsICc3LjAnLCAnLXRuJywgJzgnLCAnLW1hJywgJzIwMCcsICctbWV0YWxfYmluZGluZycsICctaW1hZScsICc8aW5maWxlLm1hZT4nLCAnLW9tYWUnLCAnPG91dGZpbGUubWFlPic=

> <r_lp_tautomer_probability>
0.839158

> <r_epik_Ionization_Penalty>
0.000383628

> <r_epik_Ionization_Penalty_Charging>
0.00035045

> <r_epik_Ionization_Penalty_Neutral>
3.31781e-05

> <r_epik_State_Penalty>
0.09125

> <r_epik_Charging_Adjusted_Penalty>
0.0916005

> <i_epik_Tot_Q>
0

> <i_epik_Tot_abs_Q>
0

> <r_epik_Metal_State_Penalty>
0.255229

> <b_epik_Metal_Only>
0

> <s_lp_Force_Field>
OPLS_2005

> <r_lp_Energy>
52.5198

> <b_lp_Chiralities_Consistent>
1

> <s_lp_Variant>
AV-unprocessed.smi:2124-6

> <Gold.Version>
5.8.1

> <Gold.Id.Protein>
6NUR|6NUR_protein|mol2

> <Gold.PLP.Fitness>
40.9912

> <Gold.PLP.PLP>
-37.8729

> <Gold.PLP.part.hbond>
-2.0000

> <Gold.PLP.part.metal>
0.0000

> <Gold.PLP.part.buried>
-3.8925

> <Gold.PLP.part.nonpolar>
-30.8587

> <Gold.PLP.part.repulsive>
0.1872

> <Gold.PLP.ligand.clash>
0.0000

> <Gold.PLP.ligand.torsion>
1.0370

> <Gold.PLP.Chemscore.Hbond>
1.7087

> <Gold.PLP.Chemscore.CHOScore>
0.0000

> <Gold.PLP.Chemscore.Metal>
0.0000

> <Gold.Chemscore.Hbonds>
donor molecule, donor type, donor heavy atom, donor atom, acceptor molecule, acceptor atom, score
      L1  H    10    32       P1  8028  0.86
      P1  H  7997  8008       L1    21  0.52

> <Gold.PLP.Chemscore.Internal.Correction>
0.0660

> <Gold.Rescore>
     Score         DG    S(hbond)    S(metal)    S(lipo)     H(rot)  DE(clash)    DE(int)     intcor
     12.55     -17.67       1.68        0.00      92.30       1.65       1.20       3.92       ----

> <Gold.Chemscore.Fitness>
12.5521

> <Gold.Chemscore.DG>
-17.6721

> <Gold.Chemscore.ZeroCoef>
-5.4800

> <Gold.Chemscore.Hbond>
1.6845

> <Gold.Chemscore.Metal>
0.0000

> <Gold.Chemscore.Lipo>
92.2960

> <Gold.Chemscore.Internal_Hbond>
0.0000

> <Gold.Chemscore.DEClash>
1.1968

> <Gold.Chemscore.DEInternal>
3.9232

> <Gold.Chemscore.Rot>
1.6534

> <Gold.Chemscore.Internal.Correction>
   9.000000E+99

> <Gold.Chemscore.Hbonds>
donor molecule, donor type, donor heavy atom, donor atom, acceptor molecule, acceptor atom, score
      L1  H    10    32       P1  8028  0.63
      P1  H  7997  8008       L1    21  0.52

> <Gold.Chemscore.Hbond.Weighted>
-5.6261

> <Gold.Chemscore.Metal.Weighted>
-0.0000

> <Gold.Chemscore.Lipo.Weighted>
-10.7986

> <Gold.Chemscore.Internal_Hbond.Weighted>
0.0000

> <Gold.Chemscore.DEClash.Weighted>
1.1968

> <Gold.Chemscore.DEInternal.Weighted>
3.9232

> <Gold.Chemscore.Rot.Weighted>
4.2326

> <Gold.Chemscore.Internal.Correction.Weighted>
   9.000000E+99

> <Gold.Protein.RotatedTorsions>
[ 6907 6896 6895 6894 ] final  129.87 input  -60.11 | X-H torsion
[ 7974 7965 7964 7962 ] final -138.49 input  175.53 | X-H torsion
[ 8008 7997 7996 7995 ] final  -88.96 input   59.86 | X-H torsion
[ 10167 10162 10161 10158 ] final -167.68 input  -65.29 | X-H torsion
[ 10718 10713 10712 10709 ] final   -3.69 input   66.30 | X-H torsion
[ 10763 10752 10751 10750 ] final -129.18 input  -60.55 | X-H torsion
[ 11005 11000 10999 10996 ] final   54.20 input  -57.11 | X-H torsion

> <Gold.Protein.ActiveResidues>
 VAL166  LYS551  ARG553  GLY616  TRP617  ASP618  TYR619  PRO620  LYS621  CYS622 
 ASP623  PHE694  ASN695  SER759  ASP760  ASP761  ALA762  ILE779  LEU786  VAL792 
 PHE793  MET794  SER795  GLU796  ALA797  LYS798  CYS799  TRP800  GLU811  SER814 

> <Gold.Protein.RotatedAtoms>
  152.3582  133.6264  159.5994 H   0  0  0  0  0  0  0  0  0  0  0  0  # atno 6907 bound_to 6896
  150.7583  133.9466  159.3481 H   0  0  0  0  0  0  0  0  0  0  0  0  # atno 6908 bound_to 6896
  151.7308  135.0876  160.0351 H   0  0  0  0  0  0  0  0  0  0  0  0  # atno 6909 bound_to 6896
  144.8754  140.6430  143.5240 H   0  0  0  0  0  0  0  0  0  0  0  0  # atno 7974 bound_to 7965
  154.6810  140.0547  157.0265 H   0  0  0  0  0  0  0  0  0  0  0  0  # atno 8008 bound_to 7997
  155.0952  140.3223  155.4543 H   0  0  0  0  0  0  0  0  0  0  0  0  # atno 8009 bound_to 7997
  156.2694  140.2041  156.6079 H   0  0  0  0  0  0  0  0  0  0  0  0  # atno 8010 bound_to 7997
  139.6033  144.0965  152.1766 H   0  0  0  0  0  0  0  0  0  0  0  0  # atno 10167 bound_to 10162
  156.7723  130.5304  149.5765 H   0  0  0  0  0  0  0  0  0  0  0  0  # atno 10718 bound_to 10713
  154.8757  135.3904  154.3877 H   0  0  0  0  0  0  0  0  0  0  0  0  # atno 10763 bound_to 10752
  153.4617  135.7029  153.6052 H   0  0  0  0  0  0  0  0  0  0  0  0  # atno 10764 bound_to 10752
  153.4547  135.3825  155.2273 H   0  0  0  0  0  0  0  0  0  0  0  0  # atno 10765 bound_to 10752
  140.0705  134.5476  155.9051 H   0  0  0  0  0  0  0  0  0  0  0  0  # atno 11005 bound_to 11000
  145.4052  139.1590  143.4156 LP  0  0  0  0  0  0  0  0  0  0  0  0  # atno 17320 bound_to 7965
  146.2959  140.4152  142.8722 LP  0  0  0  0  0  0  0  0  0  0  0  0  # atno 17321 bound_to 7965
  140.0566  144.5890  150.7295 LP  0  0  0  0  0  0  0  0  0  0  0  0  # atno 17342 bound_to 10162
  140.7266  143.2643  151.4098 LP  0  0  0  0  0  0  0  0  0  0  0  0  # atno 17343 bound_to 10162
  156.1270  130.6151  151.0278 LP  0  0  0  0  0  0  0  0  0  0  0  0  # atno 17370 bound_to 10713
  157.6685  131.0866  150.7670 LP  0  0  0  0  0  0  0  0  0  0  0  0  # atno 17371 bound_to 10713
  141.2010  133.6616  156.5927 LP  0  0  0  0  0  0  0  0  0  0  0  0  # atno 17394 bound_to 11000
  140.3634  134.7668  157.4549 LP  0  0  0  0  0  0  0  0  0  0  0  0  # atno 17395 bound_to 11000

$$$$
