AV-unprocessed.smi:3285|AV-procd|sdf|12581|dock4
  -GOLD-   2272018503D 1   1.00000     0.00000
 Structure written by MMmdl.
 45 46  0  0  0  0  0  0  0  0  2 V2000
  152.6866  138.9391  154.9784 C   0  0  0  0  0  0  0  0  0  0  0  0
  151.2149  138.6408  154.9468 C   0  0  0  0  0  0  0  0  0  0  0  0
  150.8064  137.4078  154.7006 N   0  0  0  0  0  0  0  0  0  0  0  0
  149.4095  137.4531  154.7309 O   0  0  0  0  0  0  0  0  0  0  0  0
  149.0269  138.7281  154.9948 C   0  0  0  0  0  0  0  0  0  0  0  0
  147.5599  138.9880  155.0652 C   0  0  0  0  0  0  0  0  0  0  0  0
  150.1221  139.5341  155.1415 C   0  0  0  0  0  0  0  0  0  0  0  0
  150.1689  141.0097  155.4326 C   0  0  0  0  0  0  0  0  0  0  0  0
  149.4409  141.3467  156.7401 C   0  0  0  0  0  0  0  0  0  0  0  0
  149.6978  142.7451  157.1427 N   0  3  0  0  0  0  0  0  0  0  0  0
  151.0576  143.0156  157.6599 C   0  0  1  0  0  0  0  0  0  0  0  0
  151.1278  144.4526  158.2069 C   0  0  0  0  0  0  0  0  0  0  0  0
  152.5149  144.7690  158.7911 C   0  0  0  0  0  0  0  0  0  0  0  0
  152.9314  143.7667  159.8868 C   0  0  1  0  0  0  0  0  0  0  0  0
  152.1410  143.9896  161.1922 C   0  0  0  0  0  0  0  0  0  0  0  0
  152.8559  142.3193  159.3370 C   0  0  1  0  0  0  0  0  0  0  0  0
  153.3018  141.2575  160.3561 C   0  0  0  0  0  0  0  0  0  0  0  0
  151.4650  142.0013  158.7504 C   0  0  0  0  0  0  0  0  0  0  0  0
  153.0333  139.2867  154.0052 H   0  0  0  0  0  0  0  0  0  0  0  0
  153.2691  138.0559  155.2431 H   0  0  0  0  0  0  0  0  0  0  0  0
  152.9167  139.7139  155.7096 H   0  0  0  0  0  0  0  0  0  0  0  0
  147.2576  139.7003  154.2976 H   0  0  0  0  0  0  0  0  0  0  0  0
  147.2878  139.4012  156.0364 H   0  0  0  0  0  0  0  0  0  0  0  0
  146.9895  138.0707  154.9177 H   0  0  0  0  0  0  0  0  0  0  0  0
  151.2018  141.3541  155.4970 H   0  0  0  0  0  0  0  0  0  0  0  0
  149.7220  141.5743  154.6135 H   0  0  0  0  0  0  0  0  0  0  0  0
  148.3697  141.1896  156.6140 H   0  0  0  0  0  0  0  0  0  0  0  0
  149.7760  140.6763  157.5328 H   0  0  0  0  0  0  0  0  0  0  0  0
  149.5640  143.3208  156.3237 H   0  0  0  0  0  0  0  0  0  0  0  0
  151.7586  142.9414  156.8268 H   0  0  0  0  0  0  0  0  0  0  0  0
  150.9009  145.1635  157.4114 H   0  0  0  0  0  0  0  0  0  0  0  0
  150.3639  144.5992  158.9714 H   0  0  0  0  0  0  0  0  0  0  0  0
  153.2518  144.7475  157.9871 H   0  0  0  0  0  0  0  0  0  0  0  0
  152.5307  145.7862  159.1841 H   0  0  0  0  0  0  0  0  0  0  0  0
  153.9763  143.9724  160.1238 H   0  0  0  0  0  0  0  0  0  0  0  0
  151.0838  143.7514  161.0809 H   0  0  0  0  0  0  0  0  0  0  0  0
  152.2100  145.0289  161.5146 H   0  0  0  0  0  0  0  0  0  0  0  0
  152.5336  143.3806  162.0063 H   0  0  0  0  0  0  0  0  0  0  0  0
  153.5669  142.2619  158.5111 H   0  0  0  0  0  0  0  0  0  0  0  0
  152.6004  141.1733  161.1865 H   0  0  0  0  0  0  0  0  0  0  0  0
  154.2833  141.4945  160.7676 H   0  0  0  0  0  0  0  0  0  0  0  0
  153.3714  140.2749  159.8888 H   0  0  0  0  0  0  0  0  0  0  0  0
  150.7186  141.9892  159.5455 H   0  0  0  0  0  0  0  0  0  0  0  0
  151.4820  140.9934  158.3358 H   0  0  0  0  0  0  0  0  0  0  0  0
  149.0217  143.0208  157.8405 H   0  0  0  0  0  0  0  0  0  0  0  0
  1  2  1  0  0  0  0
  1 19  1  0  0  0  0
  1 20  1  0  0  0  0
  1 21  1  0  0  0  0
  2  7  1  0  0  0  0
  2  3  2  0  0  0  0
  3  4  1  0  0  0  0
  4  5  1  0  0  0  0
  5  6  1  0  0  0  0
  5  7  2  0  0  0  0
  6 22  1  0  0  0  0
  6 23  1  0  0  0  0
  6 24  1  0  0  0  0
  7  8  1  0  0  0  0
  8  9  1  0  0  0  0
  8 25  1  0  0  0  0
  8 26  1  0  0  0  0
  9 10  1  0  0  0  0
  9 27  1  0  0  0  0
  9 28  1  0  0  0  0
 10 11  1  0  0  0  0
 10 29  1  0  0  0  0
 10 45  1  0  0  0  0
 11 18  1  0  0  0  0
 11 12  1  0  0  0  0
 11 30  1  0  0  0  0
 12 13  1  0  0  0  0
 12 31  1  0  0  0  0
 12 32  1  0  0  0  0
 13 14  1  0  0  0  0
 13 33  1  0  0  0  0
 13 34  1  0  0  0  0
 14 15  1  0  0  0  0
 14 16  1  0  0  0  0
 14 35  1  0  0  0  0
 15 36  1  0  0  0  0
 15 37  1  0  0  0  0
 15 38  1  0  0  0  0
 16 17  1  0  0  0  0
 16 18  1  0  0  0  0
 16 39  1  0  0  0  0
 17 40  1  0  0  0  0
 17 41  1  0  0  0  0
 17 42  1  0  0  0  0
 18 43  1  0  0  0  0
 18 44  1  0  0  0  0
M  CHG  1  10   1
M  END
> <s_m_source_file>
AV-unprocessed.smi

> <i_m_source_file_index>
3285

> <i_lp_mmshare_version>
43012

> <i_f3d_flags>
0

> <s_epik_input>
W0NIM11jMW5vYyhbQ0gzXSljMVtDSDJdW0NIMl1bTkhdW0NAQEhdMltDSDJdW0NIMl1bQ0BASF0oW0NIM10pW0NAQEhdKFtDSDNdKVtDSDJdMg==

> <s_epik_cmdline>
J2VwaWtfcHl0aG9uJywgJy1waCcsICc3LjAnLCAnLXRuJywgJzgnLCAnLW1hJywgJzIwMCcsICctbWV0YWxfYmluZGluZycsICctaW1hZScsICc8aW5maWxlLm1hZT4nLCAnLW9tYWUnLCAnPG91dGZpbGUubWFlPic=

> <r_lp_tautomer_probability>
1

> <r_epik_Ionization_Penalty>
0.000204615

> <r_epik_Ionization_Penalty_Charging>
0.000204615

> <r_epik_Ionization_Penalty_Neutral>
9.28663e-11

> <r_epik_State_Penalty>
-0

> <r_epik_Charging_Adjusted_Penalty>
0.000204615

> <i_epik_Tot_Q>
1

> <i_epik_Tot_abs_Q>
1

> <r_epik_Metal_State_Penalty>
-0

> <b_epik_Metal_Only>
0

> <s_lp_Force_Field>
OPLS_2005

> <r_lp_Energy>
12.3416

> <b_lp_Chiralities_Consistent>
1

> <s_lp_Variant>
AV-unprocessed.smi:3285-2

> <Gold.Version>
5.8.1

> <Gold.Id.Protein>
6NUR|6NUR_protein|mol2

> <Gold.PLP.Fitness>
47.3296

> <Gold.PLP.PLP>
-41.5375

> <Gold.PLP.part.hbond>
-1.0000

> <Gold.PLP.part.metal>
0.0000

> <Gold.PLP.part.buried>
-5.4551

> <Gold.PLP.part.nonpolar>
-37.0068

> <Gold.PLP.part.repulsive>
0.8154

> <Gold.PLP.ligand.clash>
0.0000

> <Gold.PLP.ligand.torsion>
0.1095

> <Gold.PLP.Chemscore.Hbond>
2.0000

> <Gold.PLP.Chemscore.CHOScore>
0.0000

> <Gold.PLP.Chemscore.Metal>
0.0000

> <Gold.Chemscore.Hbonds>
donor molecule, donor type, donor heavy atom, donor atom, acceptor molecule, acceptor atom, score
      L1  H    10    29       P1  8028  1.89

> <Gold.PLP.Chemscore.Internal.Correction>
0.0111

> <Gold.Rescore>
     Score         DG    S(hbond)    S(metal)    S(lipo)     H(rot)  DE(clash)    DE(int)     intcor
     20.47     -20.94       0.95        0.00     134.43       1.35       0.35       0.12       ----

> <Gold.Chemscore.Fitness>
20.4683

> <Gold.Chemscore.DG>
-20.9394

> <Gold.Chemscore.ZeroCoef>
-5.4800

> <Gold.Chemscore.Hbond>
0.9514

> <Gold.Chemscore.Metal>
0.0000

> <Gold.Chemscore.Lipo>
134.4341

> <Gold.Chemscore.Internal_Hbond>
0.0000

> <Gold.Chemscore.DEClash>
0.3543

> <Gold.Chemscore.DEInternal>
0.1167

> <Gold.Chemscore.Rot>
1.3465

> <Gold.Chemscore.Internal.Correction>
   9.000000E+99

> <Gold.Chemscore.Hbonds>
donor molecule, donor type, donor heavy atom, donor atom, acceptor molecule, acceptor atom, score
      L1  H    10    29       P1  8028  0.91

> <Gold.Chemscore.Hbond.Weighted>
-3.1776

> <Gold.Chemscore.Metal.Weighted>
-0.0000

> <Gold.Chemscore.Lipo.Weighted>
-15.7288

> <Gold.Chemscore.Internal_Hbond.Weighted>
0.0000

> <Gold.Chemscore.DEClash.Weighted>
0.3543

> <Gold.Chemscore.DEInternal.Weighted>
0.1167

> <Gold.Chemscore.Rot.Weighted>
3.4470

> <Gold.Chemscore.Internal.Correction.Weighted>
   9.000000E+99

> <Gold.Protein.RotatedTorsions>
[ 6907 6896 6895 6894 ] final   48.79 input  -60.11 | X-H torsion
[ 7974 7965 7964 7962 ] final  -71.99 input  175.53 | X-H torsion
[ 8008 7997 7996 7995 ] final  -86.00 input   59.86 | X-H torsion
[ 10167 10162 10161 10158 ] final   39.92 input  -65.29 | X-H torsion
[ 10718 10713 10712 10709 ] final  -45.59 input   66.30 | X-H torsion
[ 10763 10752 10751 10750 ] final   81.86 input  -60.55 | X-H torsion
[ 11005 11000 10999 10996 ] final   58.27 input  -57.11 | X-H torsion

> <Gold.Protein.ActiveResidues>
 VAL166  LYS551  ARG553  GLY616  TRP617  ASP618  TYR619  PRO620  LYS621  CYS622 
 ASP623  PHE694  ASN695  SER759  ASP760  ASP761  ALA762  ILE779  LEU786  VAL792 
 PHE793  MET794  SER795  GLU796  ALA797  LYS798  CYS799  TRP800  GLU811  SER814 

> <Gold.Protein.RotatedAtoms>
  152.2835  134.7802  160.0391 H   0  0  0  0  0  0  0  0  0  0  0  0  # atno 6907 bound_to 6896
  151.8372  133.3412  159.3640 H   0  0  0  0  0  0  0  0  0  0  0  0  # atno 6908 bound_to 6896
  150.7200  134.5354  159.5765 H   0  0  0  0  0  0  0  0  0  0  0  0  # atno 6909 bound_to 6896
  145.6710  140.9221  143.0883 H   0  0  0  0  0  0  0  0  0  0  0  0  # atno 7974 bound_to 7965
  154.6469  140.0584  156.9911 H   0  0  0  0  0  0  0  0  0  0  0  0  # atno 8008 bound_to 7997
  155.1430  140.3267  155.4429 H   0  0  0  0  0  0  0  0  0  0  0  0  # atno 8009 bound_to 7997
  156.2558  140.1961  156.6545 H   0  0  0  0  0  0  0  0  0  0  0  0  # atno 8010 bound_to 7997
  140.3793  144.2001  150.6131 H   0  0  0  0  0  0  0  0  0  0  0  0  # atno 10167 bound_to 10162
  156.2268  130.4170  149.8924 H   0  0  0  0  0  0  0  0  0  0  0  0  # atno 10718 bound_to 10713
  153.1153  135.4749  154.9105 H   0  0  0  0  0  0  0  0  0  0  0  0  # atno 10763 bound_to 10752
  154.7522  135.3109  154.8538 H   0  0  0  0  0  0  0  0  0  0  0  0  # atno 10764 bound_to 10752
  153.9117  135.6864  153.4804 H   0  0  0  0  0  0  0  0  0  0  0  0  # atno 10765 bound_to 10752
  140.0390  134.5901  155.9406 H   0  0  0  0  0  0  0  0  0  0  0  0  # atno 11005 bound_to 11000
  144.7057  139.8572  143.7430 LP  0  0  0  0  0  0  0  0  0  0  0  0  # atno 17320 bound_to 7965
  146.1046  139.4044  143.0326 LP  0  0  0  0  0  0  0  0  0  0  0  0  # atno 17321 bound_to 7965
  140.4954  143.2334  151.8757 LP  0  0  0  0  0  0  0  0  0  0  0  0  # atno 17342 bound_to 10162
  139.4797  144.5119  151.8921 LP  0  0  0  0  0  0  0  0  0  0  0  0  # atno 17343 bound_to 10162
  156.6551  130.8759  151.3538 LP  0  0  0  0  0  0  0  0  0  0  0  0  # atno 17370 bound_to 10713
  157.7114  130.9445  150.1103 LP  0  0  0  0  0  0  0  0  0  0  0  0  # atno 17371 bound_to 10713
  141.1873  133.6559  156.5275 LP  0  0  0  0  0  0  0  0  0  0  0  0  # atno 17394 bound_to 11000
  140.4100  134.7281  157.4830 LP  0  0  0  0  0  0  0  0  0  0  0  0  # atno 17395 bound_to 11000

$$$$
