AV-unprocessed.smi:1640|AV-procd|sdf|6555|dock3
  -GOLD-   22720 7243D 1   1.00000     0.00000
 Structure written by MMmdl.
 46 47  0  0  0  0  0  0  0  0  2 V2000
  147.6889  136.8941  163.3113 C   0  0  0  0  0  0  0  0  0  0  0  0
  147.2602  136.0303  162.1131 C   0  0  0  0  0  0  0  0  0  0  0  0
  147.3240  134.5395  162.4783 C   0  0  0  0  0  0  0  0  0  0  0  0
  148.0982  136.3191  160.8513 C   0  0  0  0  0  0  0  0  0  0  0  0
  147.5697  135.6305  159.5809 C   0  0  0  0  0  0  0  0  0  0  0  0
  148.8824  135.4530  158.2965 S   0  0  0  0  0  0  0  0  0  0  0  0
  150.0506  136.2079  158.7784 O   0  0  0  0  0  0  0  0  0  0  0  0
  149.0497  134.0036  158.1019 O   0  0  0  0  0  0  0  0  0  0  0  0
  148.1605  136.1655  157.0327 N   0  5  0  0  0  0  0  0  0  0  0  0
  148.9545  136.5289  155.8729 C   0  0  0  0  0  0  0  0  0  0  0  0
  148.1777  137.4540  154.9234 C   0  0  0  0  0  0  0  0  0  0  0  0
  146.8712  137.0693  154.5357 C   0  0  0  0  0  0  0  0  0  0  0  0
  146.1237  137.8995  153.6815 C   0  0  0  0  0  0  0  0  0  0  0  0
  146.7084  139.0964  153.2376 C   0  0  0  0  0  0  0  0  0  0  0  0
  147.9499  139.4841  153.5883 N   0  0  0  0  0  0  0  0  0  0  0  0
  148.6848  138.6940  154.4114 C   0  0  0  0  0  0  0  0  0  0  0  0
  149.9831  139.1675  154.7008 N   0  0  0  0  0  0  0  0  0  0  0  0
  150.0659  139.9104  155.9517 C   0  0  0  0  0  0  0  0  0  0  0  0
  151.4413  140.5893  156.0630 C   0  0  0  0  0  0  0  0  0  0  0  0
  152.4694  139.6091  155.9413 O   0  0  0  0  0  0  0  0  0  0  0  0
  152.4222  138.9363  154.6855 C   0  0  0  0  0  0  0  0  0  0  0  0
  151.0727  138.2124  154.5382 C   0  0  0  0  0  0  0  0  0  0  0  0
  148.7422  136.7442  163.5500 H   0  0  0  0  0  0  0  0  0  0  0  0
  147.1088  136.6453  164.2003 H   0  0  0  0  0  0  0  0  0  0  0  0
  147.5379  137.9557  163.1182 H   0  0  0  0  0  0  0  0  0  0  0  0
  146.2187  136.2626  161.8874 H   0  0  0  0  0  0  0  0  0  0  0  0
  148.3416  134.2359  162.7266 H   0  0  0  0  0  0  0  0  0  0  0  0
  146.9832  133.9160  161.6513 H   0  0  0  0  0  0  0  0  0  0  0  0
  146.6907  134.3168  163.3374 H   0  0  0  0  0  0  0  0  0  0  0  0
  148.1586  137.3959  160.6884 H   0  0  0  0  0  0  0  0  0  0  0  0
  149.1205  135.9835  161.0269 H   0  0  0  0  0  0  0  0  0  0  0  0
  147.2171  134.6285  159.8244 H   0  0  0  0  0  0  0  0  0  0  0  0
  146.7362  136.1713  159.1341 H   0  0  0  0  0  0  0  0  0  0  0  0
  149.8848  137.0184  156.1628 H   0  0  0  0  0  0  0  0  0  0  0  0
  149.2600  135.6551  155.2964 H   0  0  0  0  0  0  0  0  0  0  0  0
  146.4227  136.1471  154.8806 H   0  0  0  0  0  0  0  0  0  0  0  0
  145.1256  137.6236  153.3755 H   0  0  0  0  0  0  0  0  0  0  0  0
  146.1658  139.7608  152.5816 H   0  0  0  0  0  0  0  0  0  0  0  0
  149.2747  140.6586  156.0025 H   0  0  0  0  0  0  0  0  0  0  0  0
  149.9159  139.2278  156.7890 H   0  0  0  0  0  0  0  0  0  0  0  0
  151.5600  141.3536  155.2934 H   0  0  0  0  0  0  0  0  0  0  0  0
  151.5367  141.0898  157.0266 H   0  0  0  0  0  0  0  0  0  0  0  0
  152.5711  139.6499  153.8735 H   0  0  0  0  0  0  0  0  0  0  0  0
  153.2413  138.2189  154.6346 H   0  0  0  0  0  0  0  0  0  0  0  0
  150.9933  137.4257  155.2898 H   0  0  0  0  0  0  0  0  0  0  0  0
  151.0044  137.7368  153.5591 H   0  0  0  0  0  0  0  0  0  0  0  0
  1  2  1  0  0  0  0
  1 23  1  0  0  0  0
  1 24  1  0  0  0  0
  1 25  1  0  0  0  0
  2  3  1  0  0  0  0
  2  4  1  0  0  0  0
  2 26  1  0  0  0  0
  3 27  1  0  0  0  0
  3 28  1  0  0  0  0
  3 29  1  0  0  0  0
  4  5  1  0  0  0  0
  4 30  1  0  0  0  0
  4 31  1  0  0  0  0
  5  6  1  0  0  0  0
  5 32  1  0  0  0  0
  5 33  1  0  0  0  0
  6  7  2  0  0  0  0
  6  8  2  0  0  0  0
  6  9  1  0  0  0  0
  9 10  1  0  0  0  0
 10 11  1  0  0  0  0
 10 34  1  0  0  0  0
 10 35  1  0  0  0  0
 11 16  1  0  0  0  0
 11 12  2  0  0  0  0
 12 13  1  0  0  0  0
 12 36  1  0  0  0  0
 13 14  2  0  0  0  0
 13 37  1  0  0  0  0
 14 15  1  0  0  0  0
 14 38  1  0  0  0  0
 15 16  2  0  0  0  0
 16 17  1  0  0  0  0
 17 22  1  0  0  0  0
 17 18  1  0  0  0  0
 18 19  1  0  0  0  0
 18 39  1  0  0  0  0
 18 40  1  0  0  0  0
 19 20  1  0  0  0  0
 19 41  1  0  0  0  0
 19 42  1  0  0  0  0
 20 21  1  0  0  0  0
 21 22  1  0  0  0  0
 21 43  1  0  0  0  0
 21 44  1  0  0  0  0
 22 45  1  0  0  0  0
 22 46  1  0  0  0  0
M  CHG  1   9  -1
M  END
> <s_m_source_file>
AV-unprocessed.smi

> <i_m_source_file_index>
1640

> <i_lp_mmshare_version>
43012

> <i_f3d_flags>
0

> <s_epik_input>
W0NIM11bQ0hdKFtDSDNdKVtDSDJdW0NIMl1TKD1PKSg9TylbTkhdW0NIMl1jMVtjSF1bY0hdW2NIXW5jMU4yW0NIMl1bQ0gyXU9bQ0gyXVtDSDJdMg==

> <s_epik_cmdline>
J2VwaWtfcHl0aG9uJywgJy1waCcsICc3LjAnLCAnLXRuJywgJzgnLCAnLW1hJywgJzIwMCcsICctbWV0YWxfYmluZGluZycsICctaW1hZScsICc8aW5maWxlLm1hZT4nLCAnLW9tYWUnLCAnPG91dGZpbGUubWFlPic=

> <r_lp_tautomer_probability>
1

> <r_epik_Ionization_Penalty>
6.15599

> <r_epik_Ionization_Penalty_Charging>
6.0779

> <r_epik_Ionization_Penalty_Neutral>
0.078089

> <r_epik_State_Penalty>
6.0833

> <r_epik_Charging_Adjusted_Penalty>
12.1612

> <i_epik_Tot_Q>
-1

> <i_epik_Tot_abs_Q>
1

> <r_epik_Metal_State_Penalty>
2.0323

> <b_epik_Metal_Only>
1

> <s_lp_Force_Field>
OPLS_2005

> <r_lp_Energy>
20.5141

> <b_lp_Chiralities_Consistent>
1

> <s_lp_Variant>
AV-unprocessed.smi:1640-2

> <Gold.Version>
5.8.1

> <Gold.Id.Protein>
6NUR|6NUR_protein|mol2

> <Gold.PLP.Fitness>
42.1864

> <Gold.PLP.PLP>
-35.2224

> <Gold.PLP.part.hbond>
-3.0000

> <Gold.PLP.part.metal>
0.0000

> <Gold.PLP.part.buried>
-5.1343

> <Gold.PLP.part.nonpolar>
-28.9113

> <Gold.PLP.part.repulsive>
1.1291

> <Gold.PLP.ligand.clash>
0.0000

> <Gold.PLP.ligand.torsion>
1.4400

> <Gold.PLP.Chemscore.Hbond>
2.0000

> <Gold.PLP.Chemscore.CHOScore>
0.8655

> <Gold.PLP.Chemscore.Metal>
0.0000

> <Gold.Chemscore.Hbonds>
donor molecule, donor type, donor heavy atom, donor atom, acceptor molecule, acceptor atom, score
      P1  H  6896  6909       L1     7  1.00
      P1  H  7997  8008       L1    20  1.00
      L1  C    14    38       P1 10175  0.87

> <Gold.PLP.Chemscore.Internal.Correction>
1.2476

> <Gold.Rescore>
     Score         DG    S(hbond)    S(metal)    S(lipo)     H(rot)  DE(clash)    DE(int)     intcor
     13.70     -15.22       1.37        0.00      82.10       1.73       0.31       1.21       ----

> <Gold.Chemscore.Fitness>
13.6966

> <Gold.Chemscore.DG>
-15.2195

> <Gold.Chemscore.ZeroCoef>
-5.4800

> <Gold.Chemscore.Hbond>
1.3697

> <Gold.Chemscore.Metal>
0.0000

> <Gold.Chemscore.Lipo>
82.1001

> <Gold.Chemscore.Internal_Hbond>
0.0000

> <Gold.Chemscore.DEClash>
0.3104

> <Gold.Chemscore.DEInternal>
1.2125

> <Gold.Chemscore.Rot>
1.7347

> <Gold.Chemscore.Internal.Correction>
   9.000000E+99

> <Gold.Chemscore.Hbonds>
donor molecule, donor type, donor heavy atom, donor atom, acceptor molecule, acceptor atom, score
      P1  H  6896  6909       L1     7  0.30
      P1  H  7997  8008       L1    20  0.32

> <Gold.Chemscore.Hbond.Weighted>
-4.5747

> <Gold.Chemscore.Metal.Weighted>
-0.0000

> <Gold.Chemscore.Lipo.Weighted>
-9.6057

> <Gold.Chemscore.Internal_Hbond.Weighted>
0.0000

> <Gold.Chemscore.DEClash.Weighted>
0.3104

> <Gold.Chemscore.DEInternal.Weighted>
1.2125

> <Gold.Chemscore.Rot.Weighted>
4.4409

> <Gold.Chemscore.Internal.Correction.Weighted>
   9.000000E+99

> <Gold.Protein.RotatedTorsions>
[ 6907 6896 6895 6894 ] final   77.12 input  -60.11 | X-H torsion
[ 7974 7965 7964 7962 ] final   18.91 input  175.53 | X-H torsion
[ 8008 7997 7996 7995 ] final  -24.76 input   59.86 | X-H torsion
[ 10167 10162 10161 10158 ] final -118.68 input  -65.29 | X-H torsion
[ 10718 10713 10712 10709 ] final   31.78 input   66.30 | X-H torsion
[ 10763 10752 10751 10750 ] final  175.20 input  -60.55 | X-H torsion
[ 11005 11000 10999 10996 ] final  149.73 input  -57.11 | X-H torsion

> <Gold.Protein.ActiveResidues>
 VAL166  LYS551  ARG553  GLY616  TRP617  ASP618  TYR619  PRO620  LYS621  CYS622 
 ASP623  PHE694  ASN695  SER759  ASP760  ASP761  ALA762  ILE779  LEU786  VAL792 
 PHE793  MET794  SER795  GLU796  ALA797  LYS798  CYS799  TRP800  GLU811  SER814 

> <Gold.Protein.RotatedAtoms>
  152.5104  134.3864  159.9368 H   0  0  0  0  0  0  0  0  0  0  0  0  # atno 6907 bound_to 6896
  151.3823  133.3811  159.2719 H   0  0  0  0  0  0  0  0  0  0  0  0  # atno 6908 bound_to 6896
  150.9495  134.8917  159.7722 H   0  0  0  0  0  0  0  0  0  0  0  0  # atno 6909 bound_to 6896
  146.2168  139.8389  142.8645 H   0  0  0  0  0  0  0  0  0  0  0  0  # atno 7974 bound_to 7965
  154.4512  140.1945  156.0514 H   0  0  0  0  0  0  0  0  0  0  0  0  # atno 8008 bound_to 7997
  156.0651  140.3292  155.7481 H   0  0  0  0  0  0  0  0  0  0  0  0  # atno 8009 bound_to 7997
  155.5351  140.0581  157.2872 H   0  0  0  0  0  0  0  0  0  0  0  0  # atno 8010 bound_to 7997
  140.0549  143.5024  152.2063 H   0  0  0  0  0  0  0  0  0  0  0  0  # atno 10167 bound_to 10162
  157.2768  130.7235  149.6534 H   0  0  0  0  0  0  0  0  0  0  0  0  # atno 10718 bound_to 10713
  154.4644  135.2769  155.1689 H   0  0  0  0  0  0  0  0  0  0  0  0  # atno 10763 bound_to 10752
  154.3464  135.6159  153.5625 H   0  0  0  0  0  0  0  0  0  0  0  0  # atno 10764 bound_to 10752
  152.9858  135.5801  154.5013 H   0  0  0  0  0  0  0  0  0  0  0  0  # atno 10765 bound_to 10752
  140.1070  134.8948  157.1880 H   0  0  0  0  0  0  0  0  0  0  0  0  # atno 11005 bound_to 11000
  145.2919  141.0169  143.3658 LP  0  0  0  0  0  0  0  0  0  0  0  0  # atno 17320 bound_to 7965
  144.9071  139.4576  143.6605 LP  0  0  0  0  0  0  0  0  0  0  0  0  # atno 17321 bound_to 7965
  139.5930  144.7557  151.3354 LP  0  0  0  0  0  0  0  0  0  0  0  0  # atno 17342 bound_to 10162
  140.7199  143.7163  150.7730 LP  0  0  0  0  0  0  0  0  0  0  0  0  # atno 17343 bound_to 10162
  155.9664  130.4350  150.5074 LP  0  0  0  0  0  0  0  0  0  0  0  0  # atno 17370 bound_to 10713
  157.3010  131.0645  151.2068 LP  0  0  0  0  0  0  0  0  0  0  0  0  # atno 17371 bound_to 10713
  140.3143  134.2989  155.7260 LP  0  0  0  0  0  0  0  0  0  0  0  0  # atno 17394 bound_to 11000
  141.2120  133.7669  156.9820 LP  0  0  0  0  0  0  0  0  0  0  0  0  # atno 17395 bound_to 11000

$$$$
