AV-unprocessed.smi:72|AV-procd|sdf|687|dock2
  -GOLD-   2262017 03D 1   1.00000     0.00000
 Structure written by MMmdl.
 29 30  0  0  0  0  0  0  0  0  1 V2000
  152.3392  136.9894  159.6785 N   0  0  0  0  0  0  0  0  0  0  0  0
  151.8570  137.5888  158.6497 C   0  0  0  0  0  0  0  0  0  0  0  0
  150.5338  138.0363  158.5169 N   0  0  0  0  0  0  0  0  0  0  0  0
  150.1888  138.6341  157.4183 C   0  0  0  0  0  0  0  0  0  0  0  0
  151.1279  138.8589  156.3297 N   0  0  0  0  0  0  0  0  0  0  0  0
  150.6907  139.5679  155.0649 C   0  0  2  0  0  0  0  0  0  0  0  0
  149.8573  140.6266  155.4230 O   0  0  0  0  0  0  0  0  0  0  0  0
  148.8093  140.7424  154.4736 C   0  0  2  0  0  0  0  0  0  0  0  0
  147.6205  141.4706  155.1211 C   0  0  0  0  0  0  0  0  0  0  0  0
  148.0704  142.3963  156.0871 O   0  0  0  0  0  0  0  0  0  0  0  0
  148.5327  139.2922  154.0589 C   0  0  1  0  0  0  0  0  0  0  0  0
  147.9870  139.2414  152.7556 O   0  0  0  0  0  0  0  0  0  0  0  0
  149.9186  138.6568  154.0821 C   0  0  2  0  0  0  0  0  0  0  0  0
  149.8435  137.2967  154.4710 O   0  0  0  0  0  0  0  0  0  0  0  0
  152.4617  138.3960  156.4400 C   0  0  0  0  0  0  0  0  0  0  0  0
  153.2873  138.5299  155.5371 O   0  0  0  0  0  0  0  0  0  0  0  0
  152.7692  137.7839  157.6040 N   0  0  0  0  0  0  0  0  0  0  0  0
  151.5882  139.9943  154.6144 H   0  0  0  0  0  0  0  0  0  0  0  0
  149.2001  141.3161  153.6303 H   0  0  0  0  0  0  0  0  0  0  0  0
  147.8684  138.8092  154.7776 H   0  0  0  0  0  0  0  0  0  0  0  0
  150.4058  138.7335  153.1088 H   0  0  0  0  0  0  0  0  0  0  0  0
  153.3133  136.7692  159.5264 H   0  0  0  0  0  0  0  0  0  0  0  0
  149.1776  139.0010  157.2359 H   0  0  0  0  0  0  0  0  0  0  0  0
  147.0169  141.9821  154.3705 H   0  0  0  0  0  0  0  0  0  0  0  0
  146.9705  140.7516  155.6204 H   0  0  0  0  0  0  0  0  0  0  0  0
  148.2238  143.2257  155.6609 H   0  0  0  0  0  0  0  0  0  0  0  0
  148.6921  139.3163  152.1314 H   0  0  0  0  0  0  0  0  0  0  0  0
  149.4095  136.8125  153.7851 H   0  0  0  0  0  0  0  0  0  0  0  0
  153.7125  137.4429  157.7198 H   0  0  0  0  0  0  0  0  0  0  0  0
  1  2  2  0  0  0  0
  1 22  1  0  0  0  0
  2 17  1  0  0  0  0
  2  3  1  0  0  0  0
  3  4  2  0  0  0  0
  4  5  1  0  0  0  0
  4 23  1  0  0  0  0
  5  6  1  0  0  0  0
  5 15  1  0  0  0  0
  6 18  1  0  0  0  0
  6 13  1  0  0  0  0
  6  7  1  0  0  0  0
  7  8  1  0  0  0  0
  8 19  1  0  0  0  0
  8  9  1  0  0  0  0
  8 11  1  0  0  0  0
  9 10  1  0  0  0  0
  9 24  1  0  0  0  0
  9 25  1  0  0  0  0
 10 26  1  0  0  0  0
 11 20  1  0  0  0  0
 11 12  1  0  0  0  0
 11 13  1  0  0  0  0
 12 27  1  0  0  0  0
 13 21  1  0  0  0  0
 13 14  1  0  0  0  0
 14 28  1  0  0  0  0
 15 16  2  0  0  0  0
 15 17  1  0  0  0  0
 17 29  1  0  0  0  0
M  END
> <s_m_source_file>
AV-unprocessed.smi

> <i_m_source_file_index>
72

> <i_lp_mmshare_version>
43012

> <i_f3d_flags>
0

> <s_epik_input>
W05IMl1jMW5bY0hdbihjKD1PKW4xKVtDQEBIXTJPW0NASF0oW0NIMl1bT0hdKVtDQEBIXShbT0hdKVtDQEhdMltPSF0=

> <s_epik_cmdline>
J2VwaWtfcHl0aG9uJywgJy1waCcsICc3LjAnLCAnLXRuJywgJzgnLCAnLW1hJywgJzIwMCcsICctbWV0YWxfYmluZGluZycsICctaW1hZScsICc8aW5maWxlLm1hZT4nLCAnLW9tYWUnLCAnPG91dGZpbGUubWFlPic=

> <r_lp_tautomer_probability>
7.17554e-07

> <r_epik_Ionization_Penalty>
0.0066451

> <r_epik_Ionization_Penalty_Charging>
0.00663793

> <r_epik_Ionization_Penalty_Neutral>
7.17052e-06

> <r_epik_State_Penalty>
0.419231

> <r_epik_Charging_Adjusted_Penalty>
0.425868

> <i_epik_Tot_Q>
0

> <i_epik_Tot_abs_Q>
0

> <r_epik_Metal_State_Penalty>
1.44144

> <b_epik_Metal_Only>
0

> <s_epik_Chemistry_Notes>
This compound contains an acetal/aminal-like group ( X-CH(R)-Y where X, Y are N, S, or O) that may be acid/base labile, releasing an aldehyde.

> <s_lp_Force_Field>
OPLS_2005

> <r_lp_Energy>
41.3964

> <b_lp_Chiralities_Consistent>
1

> <s_lp_Variant>
AV-unprocessed.smi:72-25

> <Gold.Version>
5.8.1

> <Gold.Id.Protein>
6NUR|6NUR_protein|mol2

> <Gold.PLP.Fitness>
36.1687

> <Gold.PLP.PLP>
-23.2853

> <Gold.PLP.part.hbond>
-5.1187

> <Gold.PLP.part.metal>
0.0000

> <Gold.PLP.part.buried>
-4.2154

> <Gold.PLP.part.nonpolar>
-14.7776

> <Gold.PLP.part.repulsive>
0.2023

> <Gold.PLP.ligand.clash>
0.0000

> <Gold.PLP.ligand.torsion>
0.9519

> <Gold.PLP.Chemscore.Hbond>
4.8873

> <Gold.PLP.Chemscore.CHOScore>
0.0000

> <Gold.PLP.Chemscore.Metal>
0.0000

> <Gold.Chemscore.Hbonds>
donor molecule, donor type, donor heavy atom, donor atom, acceptor molecule, acceptor atom, score
      L1  H    10    26       P1  8028  1.00
      L1  H    12    27       P1  7957  0.93
      L1  H    14    28       P1  7948  0.99
      P1  H  6896  6907       L1     1  0.65
      P1  H  7997  8010       L1    16  0.93

> <Gold.PLP.Chemscore.Internal.Correction>
0.1254

> <Gold.Rescore>
     Score         DG    S(hbond)    S(metal)    S(lipo)     H(rot)  DE(clash)    DE(int)     intcor
     12.24     -13.61       4.68        0.00      24.69       4.06       0.01       1.36       ----

> <Gold.Chemscore.Fitness>
12.2432

> <Gold.Chemscore.DG>
-13.6137

> <Gold.Chemscore.ZeroCoef>
-5.4800

> <Gold.Chemscore.Hbond>
4.6821

> <Gold.Chemscore.Metal>
0.0000

> <Gold.Chemscore.Lipo>
24.6932

> <Gold.Chemscore.Internal_Hbond>
0.0000

> <Gold.Chemscore.DEClash>
0.0147

> <Gold.Chemscore.DEInternal>
1.3558

> <Gold.Chemscore.Rot>
4.0600

> <Gold.Chemscore.Internal.Correction>
   9.000000E+99

> <Gold.Chemscore.Hbonds>
donor molecule, donor type, donor heavy atom, donor atom, acceptor molecule, acceptor atom, score
      L1  H    10    26       P1  8028  0.83
      L1  H    12    27       P1  7957  0.87
      L1  H    14    28       P1  7948  0.84
      P1  H  6896  6907       L1     1  0.05
      P1  H  7997  8010       L1    16  0.47

> <Gold.Chemscore.Hbond.Weighted>
-15.6382

> <Gold.Chemscore.Metal.Weighted>
-0.0000

> <Gold.Chemscore.Lipo.Weighted>
-2.8891

> <Gold.Chemscore.Internal_Hbond.Weighted>
0.0000

> <Gold.Chemscore.DEClash.Weighted>
0.0147

> <Gold.Chemscore.DEInternal.Weighted>
1.3558

> <Gold.Chemscore.Rot.Weighted>
10.3936

> <Gold.Chemscore.Internal.Correction.Weighted>
   9.000000E+99

> <Gold.Protein.RotatedTorsions>
[ 6907 6896 6895 6894 ] final   18.18 input  -60.11 | X-H torsion
[ 7974 7965 7964 7962 ] final -131.67 input  175.53 | X-H torsion
[ 8008 7997 7996 7995 ] final   95.31 input   59.86 | X-H torsion
[ 10167 10162 10161 10158 ] final   43.27 input  -65.29 | X-H torsion
[ 10718 10713 10712 10709 ] final  -84.54 input   66.30 | X-H torsion
[ 10763 10752 10751 10750 ] final -167.03 input  -60.55 | X-H torsion
[ 11005 11000 10999 10996 ] final   13.35 input  -57.11 | X-H torsion

> <Gold.Protein.ActiveResidues>
 VAL166  LYS551  ARG553  GLY616  TRP617  ASP618  TYR619  PRO620  LYS621  CYS622 
 ASP623  PHE694  ASN695  SER759  ASP760  ASP761  ALA762  ILE779  LEU786  VAL792 
 PHE793  MET794  SER795  GLU796  ALA797  LYS798  CYS799  TRP800  GLU811  SER814 

> <Gold.Protein.RotatedAtoms>
  151.8612  135.0523  160.0469 H   0  0  0  0  0  0  0  0  0  0  0  0  # atno 6907 bound_to 6896
  152.2661  133.5336  159.5419 H   0  0  0  0  0  0  0  0  0  0  0  0  # atno 6908 bound_to 6896
  150.7134  134.0678  159.3896 H   0  0  0  0  0  0  0  0  0  0  0  0  # atno 6909 bound_to 6896
  144.9357  140.7181  143.4878 H   0  0  0  0  0  0  0  0  0  0  0  0  # atno 7974 bound_to 7965
  156.0675  140.3288  155.7535 H   0  0  0  0  0  0  0  0  0  0  0  0  # atno 8008 bound_to 7997
  155.5358  140.0597  157.2897 H   0  0  0  0  0  0  0  0  0  0  0  0  # atno 8009 bound_to 7997
  154.4512  140.1919  156.0530 H   0  0  0  0  0  0  0  0  0  0  0  0  # atno 8010 bound_to 7997
  140.3461  144.2409  150.6150 H   0  0  0  0  0  0  0  0  0  0  0  0  # atno 10167 bound_to 10162
  156.0005  130.4701  150.4425 H   0  0  0  0  0  0  0  0  0  0  0  0  # atno 10718 bound_to 10713
  154.6773  135.2949  154.9661 H   0  0  0  0  0  0  0  0  0  0  0  0  # atno 10763 bound_to 10752
  154.0668  135.6623  153.4823 H   0  0  0  0  0  0  0  0  0  0  0  0  # atno 10764 bound_to 10752
  153.0524  135.5165  154.7798 H   0  0  0  0  0  0  0  0  0  0  0  0  # atno 10765 bound_to 10752
  140.4817  134.0928  155.7752 H   0  0  0  0  0  0  0  0  0  0  0  0  # atno 11005 bound_to 11000
  145.3070  139.1831  143.4659 LP  0  0  0  0  0  0  0  0  0  0  0  0  # atno 17320 bound_to 7965
  146.3265  140.3069  142.8624 LP  0  0  0  0  0  0  0  0  0  0  0  0  # atno 17321 bound_to 7965
  140.5263  143.2253  151.8309 LP  0  0  0  0  0  0  0  0  0  0  0  0  # atno 17342 bound_to 10162
  139.4833  144.4775  151.9348 LP  0  0  0  0  0  0  0  0  0  0  0  0  # atno 17343 bound_to 10162
  157.2465  131.0537  151.2405 LP  0  0  0  0  0  0  0  0  0  0  0  0  # atno 17370 bound_to 10713
  157.3570  130.7111  149.6477 LP  0  0  0  0  0  0  0  0  0  0  0  0  # atno 17371 bound_to 10713
  141.1528  133.8938  157.2055 LP  0  0  0  0  0  0  0  0  0  0  0  0  # atno 17394 bound_to 11000
  139.9822  135.0094  156.9777 LP  0  0  0  0  0  0  0  0  0  0  0  0  # atno 17395 bound_to 11000

$$$$
