AV-unprocessed.smi:270|AV-procd|sdf|2047|dock10
  -GOLD-   2262021273D 1   1.00000     0.00000
 Structure written by MMmdl.
 54 57  0  0  0  0  0  0  0  0  1 V2000
  146.2150  129.5704  151.9443 C   0  0  0  0  0  0  0  0  0  0  0  0
  145.7197  131.0260  151.9448 C   0  0  2  0  0  0  0  0  0  0  0  0
  145.3863  131.4463  150.6220 O   0  0  0  0  0  0  0  0  0  0  0  0
  146.1376  132.5999  150.2719 C   0  0  0  0  0  0  0  0  0  0  0  0
  146.4363  133.2737  151.6048 C   0  0  0  0  0  0  0  0  0  0  0  0
  146.6859  132.0861  152.5240 C   0  0  2  0  0  0  0  0  0  0  0  0
  148.0364  131.6789  152.3689 O   0  0  0  0  0  0  0  0  0  0  0  0
  146.4297  132.3835  154.0204 C   0  0  0  0  0  0  0  0  0  0  0  0
  147.3610  133.3478  154.5845 N   0  0  0  0  0  0  0  0  0  0  0  0
  147.8759  134.4604  153.9594 C   0  0  0  0  0  0  0  0  0  0  0  0
  148.7017  135.1693  154.6791 N   0  0  0  0  0  0  0  0  0  0  0  0
  148.7585  134.5006  155.8970 C   0  0  0  0  0  0  0  0  0  0  0  0
  149.4626  134.7285  157.1158 C   0  0  0  0  0  0  0  0  0  0  0  0
  150.3402  135.8290  157.3398 N   0  0  0  0  0  0  0  0  0  0  0  0
  149.8306  136.8910  158.1949 C   0  0  0  0  0  0  0  0  0  0  0  0
  150.3986  137.8837  157.1759 C   0  0  0  0  0  0  0  0  0  0  0  0
  151.6252  138.4777  157.5713 O   0  0  0  0  0  0  0  0  0  0  0  0
  151.4448  139.6927  158.2814 C   0  0  0  0  0  0  0  0  0  0  0  0
  152.8085  140.1817  158.7841 C   0  0  0  0  0  0  0  0  0  0  0  0
  153.7927  139.4679  158.5860 O   0  0  0  0  0  0  0  0  0  0  0  0
  152.8926  141.3735  159.4205 N   0  0  0  0  0  0  0  0  0  0  0  0
  151.7333  142.2397  159.6570 C   0  0  0  0  0  0  0  0  0  0  0  0
  154.1857  141.8618  159.9073 C   0  0  0  0  0  0  0  0  0  0  0  0
  150.6107  136.7148  156.2131 C   0  0  0  0  0  0  0  0  0  0  0  0
  149.2230  133.8442  158.1215 N   0  0  0  0  0  0  0  0  0  0  0  0
  148.3975  132.8078  157.9507 C   0  0  0  0  0  0  0  0  0  0  0  0
  147.6991  132.4699  156.8669 N   0  0  0  0  0  0  0  0  0  0  0  0
  147.9094  133.3576  155.8551 C   0  0  0  0  0  0  0  0  0  0  0  0
  146.4876  129.2489  152.9497 H   0  0  0  0  0  0  0  0  0  0  0  0
  147.0854  129.4419  151.3003 H   0  0  0  0  0  0  0  0  0  0  0  0
  145.4379  128.8981  151.5804 H   0  0  0  0  0  0  0  0  0  0  0  0
  144.7831  131.0625  152.5029 H   0  0  0  0  0  0  0  0  0  0  0  0
  147.0612  132.2896  149.7810 H   0  0  0  0  0  0  0  0  0  0  0  0
  145.5864  133.2439  149.5864 H   0  0  0  0  0  0  0  0  0  0  0  0
  147.2701  133.9754  151.5533 H   0  0  0  0  0  0  0  0  0  0  0  0
  145.5539  133.8255  151.9324 H   0  0  0  0  0  0  0  0  0  0  0  0
  148.1523  131.3493  151.4908 H   0  0  0  0  0  0  0  0  0  0  0  0
  145.4202  132.7724  154.1603 H   0  0  0  0  0  0  0  0  0  0  0  0
  146.4850  131.4635  154.6041 H   0  0  0  0  0  0  0  0  0  0  0  0
  147.6222  134.7284  152.9441 H   0  0  0  0  0  0  0  0  0  0  0  0
  148.7416  136.9208  158.2535 H   0  0  0  0  0  0  0  0  0  0  0  0
  150.3052  136.9178  159.1760 H   0  0  0  0  0  0  0  0  0  0  0  0
  149.6655  138.6020  156.8047 H   0  0  0  0  0  0  0  0  0  0  0  0
  151.0110  140.4438  157.6190 H   0  0  0  0  0  0  0  0  0  0  0  0
  150.7553  139.5712  159.1173 H   0  0  0  0  0  0  0  0  0  0  0  0
  151.2631  142.5244  158.7154 H   0  0  0  0  0  0  0  0  0  0  0  0
  151.9960  143.1643  160.1709 H   0  0  0  0  0  0  0  0  0  0  0  0
  150.9901  141.7340  160.2744 H   0  0  0  0  0  0  0  0  0  0  0  0
  154.6208  141.1529  160.6134 H   0  0  0  0  0  0  0  0  0  0  0  0
  154.1160  142.8226  160.4172 H   0  0  0  0  0  0  0  0  0  0  0  0
  154.8836  141.9847  159.0778 H   0  0  0  0  0  0  0  0  0  0  0  0
  151.6262  136.6269  155.8263 H   0  0  0  0  0  0  0  0  0  0  0  0
  149.8582  136.6840  155.4237 H   0  0  0  0  0  0  0  0  0  0  0  0
  148.2808  132.1565  158.8044 H   0  0  0  0  0  0  0  0  0  0  0  0
  1  2  1  0  0  0  0
  1 29  1  0  0  0  0
  1 30  1  0  0  0  0
  1 31  1  0  0  0  0
  2  6  1  0  0  0  0
  2  3  1  0  0  0  0
  2 32  1  0  0  0  0
  3  4  1  0  0  0  0
  4  5  1  0  0  0  0
  4 33  1  0  0  0  0
  4 34  1  0  0  0  0
  5  6  1  0  0  0  0
  5 35  1  0  0  0  0
  5 36  1  0  0  0  0
  6  7  1  0  0  0  0
  6  8  1  0  0  0  0
  7 37  1  0  0  0  0
  8  9  1  0  0  0  0
  8 38  1  0  0  0  0
  8 39  1  0  0  0  0
  9 28  1  0  0  0  0
  9 10  1  0  0  0  0
 10 11  2  0  0  0  0
 10 40  1  0  0  0  0
 11 12  1  0  0  0  0
 12 28  2  0  0  0  0
 12 13  1  0  0  0  0
 13 14  1  0  0  0  0
 13 25  2  0  0  0  0
 14 24  1  0  0  0  0
 14 15  1  0  0  0  0
 15 16  1  0  0  0  0
 15 41  1  0  0  0  0
 15 42  1  0  0  0  0
 16 17  1  0  0  0  0
 16 24  1  0  0  0  0
 16 43  1  0  0  0  0
 17 18  1  0  0  0  0
 18 19  1  0  0  0  0
 18 44  1  0  0  0  0
 18 45  1  0  0  0  0
 19 20  2  0  0  0  0
 19 21  1  0  0  0  0
 21 22  1  0  0  0  0
 21 23  1  0  0  0  0
 22 46  1  0  0  0  0
 22 47  1  0  0  0  0
 22 48  1  0  0  0  0
 23 49  1  0  0  0  0
 23 50  1  0  0  0  0
 23 51  1  0  0  0  0
 24 52  1  0  0  0  0
 24 53  1  0  0  0  0
 25 26  1  0  0  0  0
 26 27  2  0  0  0  0
 26 54  1  0  0  0  0
 27 28  1  0  0  0  0
M  END
> <s_m_source_file>
AV-unprocessed.smi

> <i_m_source_file_index>
270

> <i_lp_mmshare_version>
43012

> <i_f3d_flags>
0

> <s_epik_input>
W0NIMl0xW0NIMl1PW0NAQEhdKFtDSDNdKVtDQEBdMShbT0hdKVtDSDJdbihbY0hdbjIpYyhjMjMpbltjSF1uYzNONFtDSDJdW0NIXShbQ0gyXTQpT1tDSDJdQyg9TylOKFtDSDNdKVtDSDNd

> <s_epik_cmdline>
J2VwaWtfcHl0aG9uJywgJy1waCcsICc3LjAnLCAnLXRuJywgJzgnLCAnLW1hJywgJzIwMCcsICctbWV0YWxfYmluZGluZycsICctaW1hZScsICc8aW5maWxlLm1hZT4nLCAnLW9tYWUnLCAnPG91dGZpbGUubWFlPic=

> <r_lp_tautomer_probability>
1

> <r_epik_Ionization_Penalty>
0.00375854

> <r_epik_Ionization_Penalty_Charging>
0

> <r_epik_Ionization_Penalty_Neutral>
0.00375854

> <r_epik_State_Penalty>
-0

> <r_epik_Charging_Adjusted_Penalty>
0

> <i_epik_Tot_Q>
0

> <i_epik_Tot_abs_Q>
0

> <r_epik_Metal_State_Penalty>
-0

> <b_epik_Metal_Only>
0

> <s_lp_Force_Field>
OPLS_2005

> <r_lp_Energy>
53.9225

> <b_lp_Chiralities_Consistent>
1

> <s_lp_Variant>
AV-unprocessed.smi:270-3

> <Gold.Version>
5.8.1

> <Gold.Id.Protein>
6NUR|6NUR_protein|mol2

> <Gold.PLP.Fitness>
43.4254

> <Gold.PLP.PLP>
-33.1302

> <Gold.PLP.part.hbond>
-3.3251

> <Gold.PLP.part.metal>
0.0000

> <Gold.PLP.part.buried>
-4.6245

> <Gold.PLP.part.nonpolar>
-25.8623

> <Gold.PLP.part.repulsive>
0.7653

> <Gold.PLP.ligand.clash>
0.0000

> <Gold.PLP.ligand.torsion>
0.7642

> <Gold.PLP.Chemscore.Hbond>
3.0000

> <Gold.PLP.Chemscore.CHOScore>
0.8472

> <Gold.PLP.Chemscore.Metal>
0.0000

> <Gold.Chemscore.Hbonds>
donor molecule, donor type, donor heavy atom, donor atom, acceptor molecule, acceptor atom, score
      L1  H     7    37       P1 10747  1.00
      P1  H  6896  6908       L1    25  1.00
      P1  H  7997  8008       L1    20  1.00
      L1  C    10    40       P1  7948  0.77

> <Gold.PLP.Chemscore.Internal.Correction>
0.2822

> <Gold.Rescore>
     Score         DG    S(hbond)    S(metal)    S(lipo)     H(rot)  DE(clash)    DE(int)     intcor
     13.40     -15.73       2.78        0.00      76.58       3.12       0.16       2.17       ----

> <Gold.Chemscore.Fitness>
13.3959

> <Gold.Chemscore.DG>
-15.7306

> <Gold.Chemscore.ZeroCoef>
-5.4800

> <Gold.Chemscore.Hbond>
2.7806

> <Gold.Chemscore.Metal>
0.0000

> <Gold.Chemscore.Lipo>
76.5756

> <Gold.Chemscore.Internal_Hbond>
0.0000

> <Gold.Chemscore.DEClash>
0.1639

> <Gold.Chemscore.DEInternal>
2.1708

> <Gold.Chemscore.Rot>
3.1234

> <Gold.Chemscore.Internal.Correction>
   9.000000E+99

> <Gold.Chemscore.Hbonds>
donor molecule, donor type, donor heavy atom, donor atom, acceptor molecule, acceptor atom, score
      L1  H     7    37       P1 10747  0.92
      P1  H  6896  6908       L1    25  0.65
      P1  H  7997  8008       L1    20  0.74

> <Gold.Chemscore.Hbond.Weighted>
-9.2871

> <Gold.Chemscore.Metal.Weighted>
-0.0000

> <Gold.Chemscore.Lipo.Weighted>
-8.9593

> <Gold.Chemscore.Internal_Hbond.Weighted>
0.0000

> <Gold.Chemscore.DEClash.Weighted>
0.1639

> <Gold.Chemscore.DEInternal.Weighted>
2.1708

> <Gold.Chemscore.Rot.Weighted>
7.9959

> <Gold.Chemscore.Internal.Correction.Weighted>
   9.000000E+99

> <Gold.Protein.RotatedTorsions>
[ 6907 6896 6895 6894 ] final  120.89 input  -60.11 | X-H torsion
[ 7974 7965 7964 7962 ] final   56.66 input  175.53 | X-H torsion
[ 8008 7997 7996 7995 ] final  -92.06 input   59.86 | X-H torsion
[ 10167 10162 10161 10158 ] final -146.67 input  -65.29 | X-H torsion
[ 10718 10713 10712 10709 ] final  -40.30 input   66.30 | X-H torsion
[ 10763 10752 10751 10750 ] final   63.08 input  -60.55 | X-H torsion
[ 11005 11000 10999 10996 ] final  165.06 input  -57.11 | X-H torsion

> <Gold.Protein.ActiveResidues>
 VAL166  LYS551  ARG553  GLY616  TRP617  ASP618  TYR619  PRO620  LYS621  CYS622 
 ASP623  PHE694  ASN695  SER759  ASP760  ASP761  ALA762  ILE779  LEU786  VAL792 
 PHE793  MET794  SER795  GLU796  ALA797  LYS798  CYS799  TRP800  GLU811  SER814 

> <Gold.Protein.RotatedAtoms>
  152.4364  133.7368  159.6617 H   0  0  0  0  0  0  0  0  0  0  0  0  # atno 6907 bound_to 6896
  150.8248  133.8180  159.3129 H   0  0  0  0  0  0  0  0  0  0  0  0  # atno 6908 bound_to 6896
  151.5852  135.1059  160.0078 H   0  0  0  0  0  0  0  0  0  0  0  0  # atno 6909 bound_to 6896
  145.9374  139.3859  143.0384 H   0  0  0  0  0  0  0  0  0  0  0  0  # atno 7974 bound_to 7965
  154.7184  140.0513  157.0616 H   0  0  0  0  0  0  0  0  0  0  0  0  # atno 8008 bound_to 7997
  155.0460  140.3174  155.4689 H   0  0  0  0  0  0  0  0  0  0  0  0  # atno 8009 bound_to 7997
  156.2809  140.2124  156.5585 H   0  0  0  0  0  0  0  0  0  0  0  0  # atno 8010 bound_to 7997
  139.7692  143.8263  152.2621 H   0  0  0  0  0  0  0  0  0  0  0  0  # atno 10167 bound_to 10162
  156.2829  130.4219  149.8318 H   0  0  0  0  0  0  0  0  0  0  0  0  # atno 10718 bound_to 10713
  153.0005  135.5442  154.6295 H   0  0  0  0  0  0  0  0  0  0  0  0  # atno 10763 bound_to 10752
  154.5576  135.2831  155.0952 H   0  0  0  0  0  0  0  0  0  0  0  0  # atno 10764 bound_to 10752
  154.2167  135.6458  153.5184 H   0  0  0  0  0  0  0  0  0  0  0  0  # atno 10765 bound_to 10752
  140.2522  134.7968  157.3513 H   0  0  0  0  0  0  0  0  0  0  0  0  # atno 11005 bound_to 11000
  145.8346  140.9613  143.0831 LP  0  0  0  0  0  0  0  0  0  0  0  0  # atno 17320 bound_to 7965
  144.6774  140.0206  143.7484 LP  0  0  0  0  0  0  0  0  0  0  0  0  # atno 17321 bound_to 7965
  139.8292  144.7261  150.9472 LP  0  0  0  0  0  0  0  0  0  0  0  0  # atno 17342 bound_to 10162
  140.7813  143.4086  151.1030 LP  0  0  0  0  0  0  0  0  0  0  0  0  # atno 17343 bound_to 10162
  156.5759  130.8445  151.3369 LP  0  0  0  0  0  0  0  0  0  0  0  0  # atno 17370 bound_to 10713
  157.7320  130.9708  150.1905 LP  0  0  0  0  0  0  0  0  0  0  0  0  # atno 17371 bound_to 10713
  140.1546  134.4806  155.7937 LP  0  0  0  0  0  0  0  0  0  0  0  0  # atno 17394 bound_to 11000
  141.2200  133.6876  156.7439 LP  0  0  0  0  0  0  0  0  0  0  0  0  # atno 17395 bound_to 11000

$$$$
