AV-unprocessed.smi:1766|AV-procd|sdf|7137|dock2
  -GOLD-   22720 8373D 1   1.00000     0.00000
 Structure written by MMmdl.
 40 42  0  0  0  0  0  0  0  0  2 V2000
  144.9439  137.4802  152.0473 N   0  0  0  0  0  0  0  0  0  0  0  0
  145.9550  137.9533  152.7803 C   0  0  0  0  0  0  0  0  0  0  0  0
  146.1868  137.5498  153.9182 O   0  0  0  0  0  0  0  0  0  0  0  0
  146.8327  139.0376  152.1509 C   0  0  0  0  0  0  0  0  0  0  0  0
  147.9036  139.4808  153.1030 C   0  0  0  0  0  0  0  0  0  0  0  0
  148.9642  138.7257  153.5130 N   0  3  0  0  0  0  0  0  0  0  0  0
  149.7540  139.4548  154.4010 C   0  0  0  0  0  0  0  0  0  0  0  0
  150.9185  139.1093  155.0798 C   0  0  0  0  0  0  0  0  0  0  0  0
  151.4766  140.0947  155.9204 C   0  0  0  0  0  0  0  0  0  0  0  0
  150.8792  141.3643  156.0601 C   0  0  0  0  0  0  0  0  0  0  0  0
  149.6998  141.7033  155.3642 C   0  0  0  0  0  0  0  0  0  0  0  0
  149.1545  140.7231  154.5351 C   0  0  0  0  0  0  0  0  0  0  0  0
  148.0234  140.6996  153.7107 N   0  0  0  0  0  0  0  0  0  0  0  0
  147.1875  141.9088  153.6231 C   0  0  0  0  0  0  0  0  0  0  0  0
  146.0707  141.9504  154.6845 C   0  0  2  0  0  0  0  0  0  0  0  0
  145.3125  140.7577  154.6327 O   0  0  0  0  0  0  0  0  0  0  0  0
  145.2058  143.1903  154.5225 C   0  0  0  0  0  0  0  0  0  0  0  0
  145.2516  143.9283  153.3201 C   0  0  0  0  0  0  0  0  0  0  0  0
  144.4464  145.0727  153.1584 C   0  0  0  0  0  0  0  0  0  0  0  0
  143.5894  145.4845  154.1970 C   0  0  0  0  0  0  0  0  0  0  0  0
  142.8158  146.5847  154.0412 F   0  0  0  0  0  0  0  0  0  0  0  0
  143.5364  144.7503  155.3972 C   0  0  0  0  0  0  0  0  0  0  0  0
  144.3408  143.6055  155.5593 C   0  0  0  0  0  0  0  0  0  0  0  0
  144.3384  136.7680  152.4295 H   0  0  0  0  0  0  0  0  0  0  0  0
  144.7828  137.8380  151.1164 H   0  0  0  0  0  0  0  0  0  0  0  0
  147.3004  138.6454  151.2473 H   0  0  0  0  0  0  0  0  0  0  0  0
  146.2149  139.8813  151.8452 H   0  0  0  0  0  0  0  0  0  0  0  0
  151.3773  138.1369  154.9741 H   0  0  0  0  0  0  0  0  0  0  0  0
  152.3803  139.8719  156.4693 H   0  0  0  0  0  0  0  0  0  0  0  0
  151.3350  142.0932  156.7145 H   0  0  0  0  0  0  0  0  0  0  0  0
  149.2503  142.6785  155.4797 H   0  0  0  0  0  0  0  0  0  0  0  0
  147.8367  142.7805  153.7134 H   0  0  0  0  0  0  0  0  0  0  0  0
  146.7655  141.9581  152.6195 H   0  0  0  0  0  0  0  0  0  0  0  0
  146.5263  141.9821  155.6749 H   0  0  0  0  0  0  0  0  0  0  0  0
  145.1091  140.5732  153.7281 H   0  0  0  0  0  0  0  0  0  0  0  0
  145.9035  143.6196  152.5160 H   0  0  0  0  0  0  0  0  0  0  0  0
  144.4858  145.6347  152.2369 H   0  0  0  0  0  0  0  0  0  0  0  0
  142.8778  145.0650  156.1933 H   0  0  0  0  0  0  0  0  0  0  0  0
  144.2896  143.0460  156.4820 H   0  0  0  0  0  0  0  0  0  0  0  0
  149.1259  137.7737  153.2096 H   0  0  0  0  0  0  0  0  0  0  0  0
  1  2  1  0  0  0  0
  1 24  1  0  0  0  0
  1 25  1  0  0  0  0
  2  3  2  0  0  0  0
  2  4  1  0  0  0  0
  4  5  1  0  0  0  0
  4 26  1  0  0  0  0
  4 27  1  0  0  0  0
  5 13  1  0  0  0  0
  5  6  2  0  0  0  0
  6  7  1  0  0  0  0
  6 40  1  0  0  0  0
  7 12  2  0  0  0  0
  7  8  1  0  0  0  0
  8  9  2  0  0  0  0
  8 28  1  0  0  0  0
  9 10  1  0  0  0  0
  9 29  1  0  0  0  0
 10 11  2  0  0  0  0
 10 30  1  0  0  0  0
 11 12  1  0  0  0  0
 11 31  1  0  0  0  0
 12 13  1  0  0  0  0
 13 14  1  0  0  0  0
 14 15  1  0  0  0  0
 14 32  1  0  0  0  0
 14 33  1  0  0  0  0
 15 16  1  0  0  0  0
 15 17  1  0  0  0  0
 15 34  1  0  0  0  0
 16 35  1  0  0  0  0
 17 23  1  0  0  0  0
 17 18  2  0  0  0  0
 18 19  1  0  0  0  0
 18 36  1  0  0  0  0
 19 20  2  0  0  0  0
 19 37  1  0  0  0  0
 20 21  1  0  0  0  0
 20 22  1  0  0  0  0
 22 23  2  0  0  0  0
 22 38  1  0  0  0  0
 23 39  1  0  0  0  0
M  CHG  1   6   1
M  END
> <s_m_source_file>
AV-unprocessed.smi

> <i_m_source_file_index>
1766

> <i_lp_mmshare_version>
43012

> <i_f3d_flags>
0

> <s_epik_input>
W2NIXTFbY0hdW2NIXVtjSF1jKGMxMiluKGMobjIpW0NIMl1DKD1PKVtOSDJdKVtDSDJdW0NASF0oW09IXSljM1tjSF1bY0hdYyhGKVtjSF1bY0hdMw==

> <s_epik_cmdline>
J2VwaWtfcHl0aG9uJywgJy1waCcsICc3LjAnLCAnLXRuJywgJzgnLCAnLW1hJywgJzIwMCcsICctbWV0YWxfYmluZGluZycsICctaW1hZScsICc8aW5maWxlLm1hZT4nLCAnLW9tYWUnLCAnPG91dGZpbGUubWFlPic=

> <r_epik_Ionization_Penalty>
1.66646

> <r_epik_Ionization_Penalty_Charging>
1.66645

> <r_epik_Ionization_Penalty_Neutral>
2.12833e-06

> <r_epik_State_Penalty>
1.76975

> <r_epik_Charging_Adjusted_Penalty>
3.43621

> <i_epik_Tot_Q>
1

> <i_epik_Tot_abs_Q>
1

> <r_epik_Metal_State_Penalty>
1.80493

> <b_epik_Metal_Only>
0

> <s_lp_Force_Field>
OPLS_2005

> <r_lp_Energy>
14.4919

> <b_lp_Chiralities_Consistent>
1

> <s_lp_Variant>
AV-unprocessed.smi:1766-3

> <Gold.Version>
5.8.1

> <Gold.Id.Protein>
6NUR|6NUR_protein|mol2

> <Gold.PLP.Fitness>
61.9394

> <Gold.PLP.PLP>
-51.5120

> <Gold.PLP.part.hbond>
-4.7630

> <Gold.PLP.part.metal>
0.0000

> <Gold.PLP.part.buried>
-0.6232

> <Gold.PLP.part.nonpolar>
-47.4013

> <Gold.PLP.part.repulsive>
0.1982

> <Gold.PLP.ligand.clash>
0.0000

> <Gold.PLP.ligand.torsion>
0.7926

> <Gold.PLP.Chemscore.Hbond>
3.9760

> <Gold.PLP.Chemscore.CHOScore>
0.0000

> <Gold.PLP.Chemscore.Metal>
0.0000

> <Gold.Chemscore.Hbonds>
donor molecule, donor type, donor heavy atom, donor atom, acceptor molecule, acceptor atom, score
      L1  H     1    25       P1 10171  1.00
      L1  H     6    40       P1  7948  2.00
      L1  H    16    35       P1 10175  0.85

> <Gold.PLP.Chemscore.Internal.Correction>
0.0846

> <Gold.Rescore>
     Score         DG    S(hbond)    S(metal)    S(lipo)     H(rot)  DE(clash)    DE(int)     intcor
     16.55     -17.48       2.97        0.00      84.54       3.05       0.50       0.43       ----

> <Gold.Chemscore.Fitness>
16.5489

> <Gold.Chemscore.DG>
-17.4828

> <Gold.Chemscore.ZeroCoef>
-5.4800

> <Gold.Chemscore.Hbond>
2.9676

> <Gold.Chemscore.Metal>
0.0000

> <Gold.Chemscore.Lipo>
84.5409

> <Gold.Chemscore.Internal_Hbond>
0.0000

> <Gold.Chemscore.DEClash>
0.5031

> <Gold.Chemscore.DEInternal>
0.4307

> <Gold.Chemscore.Rot>
3.0470

> <Gold.Chemscore.Internal.Correction>
   9.000000E+99

> <Gold.Chemscore.Hbonds>
donor molecule, donor type, donor heavy atom, donor atom, acceptor molecule, acceptor atom, score
      L1  H     1    25       P1 10171  0.99
      L1  H     6    40       P1  7948  0.90
      L1  H    16    35       P1 10175  0.84

> <Gold.Chemscore.Hbond.Weighted>
-9.9119

> <Gold.Chemscore.Metal.Weighted>
-0.0000

> <Gold.Chemscore.Lipo.Weighted>
-9.8913

> <Gold.Chemscore.Internal_Hbond.Weighted>
0.0000

> <Gold.Chemscore.DEClash.Weighted>
0.5031

> <Gold.Chemscore.DEInternal.Weighted>
0.4307

> <Gold.Chemscore.Rot.Weighted>
7.8004

> <Gold.Chemscore.Internal.Correction.Weighted>
   9.000000E+99

> <Gold.Protein.RotatedTorsions>
[ 6907 6896 6895 6894 ] final   95.97 input  -60.11 | X-H torsion
[ 7974 7965 7964 7962 ] final   42.39 input  175.53 | X-H torsion
[ 8008 7997 7996 7995 ] final   90.06 input   59.86 | X-H torsion
[ 10167 10162 10161 10158 ] final  -38.78 input  -65.29 | X-H torsion
[ 10718 10713 10712 10709 ] final -140.14 input   66.30 | X-H torsion
[ 10763 10752 10751 10750 ] final    8.61 input  -60.55 | X-H torsion
[ 11005 11000 10999 10996 ] final -180.00 input  -57.11 | X-H torsion

> <Gold.Protein.ActiveResidues>
 VAL166  LYS551  ARG553  GLY616  TRP617  ASP618  TYR619  PRO620  LYS621  CYS622 
 ASP623  PHE694  ASN695  SER759  ASP760  ASP761  ALA762  ILE779  LEU786  VAL792 
 PHE793  MET794  SER795  GLU796  ALA797  LYS798  CYS799  TRP800  GLU811  SER814 

> <Gold.Protein.RotatedAtoms>
  152.5439  134.0958  159.8296 H   0  0  0  0  0  0  0  0  0  0  0  0  # atno 6907 bound_to 6896
  151.1042  133.5214  159.2616 H   0  0  0  0  0  0  0  0  0  0  0  0  # atno 6908 bound_to 6896
  151.1957  135.0430  159.8905 H   0  0  0  0  0  0  0  0  0  0  0  0  # atno 6909 bound_to 6896
  146.0744  139.5306  142.9577 H   0  0  0  0  0  0  0  0  0  0  0  0  # atno 7974 bound_to 7965
  156.0074  140.3354  155.6906 H   0  0  0  0  0  0  0  0  0  0  0  0  # atno 8008 bound_to 7997
  155.6206  140.0674  157.2697 H   0  0  0  0  0  0  0  0  0  0  0  0  # atno 8009 bound_to 7997
  154.4269  140.1777  156.1355 H   0  0  0  0  0  0  0  0  0  0  0  0  # atno 8010 bound_to 7997
  140.7083  143.3256  151.2689 H   0  0  0  0  0  0  0  0  0  0  0  0  # atno 10167 bound_to 10162
  156.3189  130.7523  151.1616 H   0  0  0  0  0  0  0  0  0  0  0  0  # atno 10718 bound_to 10713
  153.2232  135.6883  153.7976 H   0  0  0  0  0  0  0  0  0  0  0  0  # atno 10763 bound_to 10752
  153.7167  135.3274  155.3259 H   0  0  0  0  0  0  0  0  0  0  0  0  # atno 10764 bound_to 10752
  154.8279  135.4603  154.1087 H   0  0  0  0  0  0  0  0  0  0  0  0  # atno 10765 bound_to 10752
  140.4124  134.6679  157.4621 H   0  0  0  0  0  0  0  0  0  0  0  0  # atno 11005 bound_to 11000
  145.6332  141.0300  143.1852 LP  0  0  0  0  0  0  0  0  0  0  0  0  # atno 17320 bound_to 7965
  144.7252  139.7898  143.7367 LP  0  0  0  0  0  0  0  0  0  0  0  0  # atno 17321 bound_to 7965
  139.6723  143.9999  152.2760 LP  0  0  0  0  0  0  0  0  0  0  0  0  # atno 17342 bound_to 10162
  139.9601  144.6563  150.8087 LP  0  0  0  0  0  0  0  0  0  0  0  0  # atno 17343 bound_to 10162
  157.7407  131.0513  150.5144 LP  0  0  0  0  0  0  0  0  0  0  0  0  # atno 17370 bound_to 10713
  156.5294  130.4181  149.6209 LP  0  0  0  0  0  0  0  0  0  0  0  0  # atno 17371 bound_to 10713
  140.0258  134.6480  155.9175 LP  0  0  0  0  0  0  0  0  0  0  0  0  # atno 17394 bound_to 11000
  141.1816  133.6547  156.5043 LP  0  0  0  0  0  0  0  0  0  0  0  0  # atno 17395 bound_to 11000

$$$$
