AV-unprocessed.smi:1|AV-procd|sdf|18|dock4
  -GOLD-   2262015113D 1   1.00000     0.00000
 Structure written by MMmdl.
 56 61  0  0  0  0  0  0  0  0  2 V2000
  152.6829  140.2149  158.1136 O   0  0  0  0  0  0  0  0  0  0  0  0
  152.1240  141.2346  157.7044 C   0  0  0  0  0  0  0  0  0  0  0  0
  151.4386  141.4012  156.5450 N   0  5  0  0  0  0  0  0  0  0  0  0
  150.5845  140.4534  156.1292 C   0  0  0  0  0  0  0  0  0  0  0  0
  150.2136  140.3884  154.8252 N   0  0  0  0  0  0  0  0  0  0  0  0
  149.3687  139.4383  154.4087 C   0  0  0  0  0  0  0  0  0  0  0  0
  148.7881  138.4606  155.1118 N   0  0  0  0  0  0  0  0  0  0  0  0
  149.1610  138.5102  156.4239 C   0  0  0  0  0  0  0  0  0  0  0  0
  150.0479  139.4661  157.0003 C   0  0  0  0  0  0  0  0  0  0  0  0
  150.2125  139.2291  158.3571 N   0  0  0  0  0  0  0  0  0  0  0  0
  149.4332  138.1655  158.5407 C   0  0  0  0  0  0  0  0  0  0  0  0
  148.7881  137.6750  157.4637 N   0  0  0  0  0  0  0  0  0  0  0  0
  147.8595  136.5095  157.4117 C   0  0  1  0  0  0  0  0  0  0  0  0
  147.9208  135.9614  156.1331 O   0  0  0  0  0  0  0  0  0  0  0  0
  147.7424  134.5590  156.2431 C   0  0  1  0  0  0  0  0  0  0  0  0
  148.1761  133.8342  154.9612 C   0  0  0  0  0  0  0  0  0  0  0  0
  147.0782  133.6508  154.0806 O   0  0  0  0  0  0  0  0  0  0  0  0
  147.2833  133.1747  152.8369 C   0  0  0  0  0  0  0  0  0  0  0  0
  148.3950  132.8800  152.3931 O   0  0  0  0  0  0  0  0  0  0  0  0
  146.0239  133.0421  152.0503 C   0  0  0  0  0  0  0  0  0  0  0  0
  146.0199  132.2563  150.8743 C   0  0  0  0  0  0  0  0  0  0  0  0
  144.8454  132.1157  150.1096 C   0  0  0  0  0  0  0  0  0  0  0  0
  143.6613  132.7617  150.5104 C   0  0  0  0  0  0  0  0  0  0  0  0
  143.6540  133.5504  151.6756 C   0  0  0  0  0  0  0  0  0  0  0  0
  144.8276  133.6915  152.4416 C   0  0  0  0  0  0  0  0  0  0  0  0
  148.4981  134.1861  157.5217 C   0  0  2  0  0  0  0  0  0  0  0  0
  147.9506  133.0396  158.1478 O   0  0  0  0  0  0  0  0  0  0  0  0
  146.8876  133.5251  159.3408 S   0  0  0  0  0  0  0  0  0  0  0  0
  145.5174  133.3009  158.8557 O   0  0  0  0  0  0  0  0  0  0  0  0
  147.3684  132.9989  160.6272 O   0  0  0  0  0  0  0  0  0  0  0  0
  147.1906  135.1668  159.2999 O   0  0  0  0  0  0  0  0  0  0  0  0
  148.2679  135.4174  158.4145 C   0  0  2  0  0  0  0  0  0  0  0  0
  152.1129  142.4574  158.5826 C   0  0  0  0  0  0  0  0  0  0  0  0
  151.7151  143.7027  158.0447 C   0  0  0  0  0  0  0  0  0  0  0  0
  151.6729  144.8532  158.8562 C   0  0  0  0  0  0  0  0  0  0  0  0
  152.0193  144.7688  160.2178 C   0  0  0  0  0  0  0  0  0  0  0  0
  152.4040  143.5318  160.7680 C   0  0  0  0  0  0  0  0  0  0  0  0
  152.4465  142.3809  159.9571 C   0  0  0  0  0  0  0  0  0  0  0  0
  149.1287  139.4638  153.3568 H   0  0  0  0  0  0  0  0  0  0  0  0
  149.3278  137.7147  159.5166 H   0  0  0  0  0  0  0  0  0  0  0  0
  146.8684  136.9231  157.6047 H   0  0  0  0  0  0  0  0  0  0  0  0
  146.6743  134.3914  156.3923 H   0  0  0  0  0  0  0  0  0  0  0  0
  148.9397  134.4203  154.4484 H   0  0  0  0  0  0  0  0  0  0  0  0
  148.6240  132.8734  155.2193 H   0  0  0  0  0  0  0  0  0  0  0  0
  146.9170  131.7502  150.5474 H   0  0  0  0  0  0  0  0  0  0  0  0
  144.8537  131.5112  149.2145 H   0  0  0  0  0  0  0  0  0  0  0  0
  142.7604  132.6533  149.9247 H   0  0  0  0  0  0  0  0  0  0  0  0
  142.7464  134.0480  151.9839 H   0  0  0  0  0  0  0  0  0  0  0  0
  144.7894  134.3073  153.3282 H   0  0  0  0  0  0  0  0  0  0  0  0
  149.5649  134.0556  157.3398 H   0  0  0  0  0  0  0  0  0  0  0  0
  149.1599  135.6898  158.9801 H   0  0  0  0  0  0  0  0  0  0  0  0
  151.4442  143.7839  157.0020 H   0  0  0  0  0  0  0  0  0  0  0  0
  151.3731  145.8004  158.4332 H   0  0  0  0  0  0  0  0  0  0  0  0
  151.9863  145.6507  160.8401 H   0  0  0  0  0  0  0  0  0  0  0  0
  152.6645  143.4636  161.8137 H   0  0  0  0  0  0  0  0  0  0  0  0
  152.7337  141.4390  160.4019 H   0  0  0  0  0  0  0  0  0  0  0  0
  1  2  2  0  0  0  0
  2  3  1  0  0  0  0
  2 33  1  0  0  0  0
  3  4  1  0  0  0  0
  4  9  1  0  0  0  0
  4  5  2  0  0  0  0
  5  6  1  0  0  0  0
  6  7  2  0  0  0  0
  6 39  1  0  0  0  0
  7  8  1  0  0  0  0
  8 12  1  0  0  0  0
  8  9  2  0  0  0  0
  9 10  1  0  0  0  0
 10 11  2  0  0  0  0
 11 12  1  0  0  0  0
 11 40  1  0  0  0  0
 12 13  1  0  0  0  0
 13 32  1  0  0  0  0
 13 14  1  0  0  0  0
 13 41  1  0  0  0  0
 14 15  1  0  0  0  0
 15 16  1  0  0  0  0
 15 26  1  0  0  0  0
 15 42  1  0  0  0  0
 16 17  1  0  0  0  0
 16 43  1  0  0  0  0
 16 44  1  0  0  0  0
 17 18  1  0  0  0  0
 18 19  2  0  0  0  0
 18 20  1  0  0  0  0
 20 25  1  0  0  0  0
 20 21  2  0  0  0  0
 21 22  1  0  0  0  0
 21 45  1  0  0  0  0
 22 23  2  0  0  0  0
 22 46  1  0  0  0  0
 23 24  1  0  0  0  0
 23 47  1  0  0  0  0
 24 25  2  0  0  0  0
 24 48  1  0  0  0  0
 25 49  1  0  0  0  0
 26 32  1  0  0  0  0
 26 27  1  0  0  0  0
 26 50  1  0  0  0  0
 27 28  1  0  0  0  0
 28 29  2  0  0  0  0
 28 30  2  0  0  0  0
 28 31  1  0  0  0  0
 31 32  1  0  0  0  0
 32 51  1  0  0  0  0
 33 38  1  0  0  0  0
 33 34  2  0  0  0  0
 34 35  1  0  0  0  0
 34 52  1  0  0  0  0
 35 36  2  0  0  0  0
 35 53  1  0  0  0  0
 36 37  1  0  0  0  0
 36 54  1  0  0  0  0
 37 38  2  0  0  0  0
 37 55  1  0  0  0  0
 38 56  1  0  0  0  0
M  CHG  1   3  -1
M  END
> <s_m_source_file>
AV-unprocessed.smi

> <i_m_source_file_index>
1

> <i_lp_mmshare_version>
43012

> <i_f3d_flags>
0

> <s_epik_input>
W2NIXTFbY0hdW2NIXVtjSF1bY0hdYzFDKD1PKVtOSF1jKG5bY0hdbjIpYyhjMjMpbltjSF1uM1tDQEBIXShbQ0BIXShbQ0BIXTQ1KU9TKE81KSg9Tyk9TylPW0NASF00W0NIMl1PQyg9TyljNltjSF1bY0hdW2NIXVtjSF1bY0hdNg==

> <s_epik_cmdline>
J2VwaWtfcHl0aG9uJywgJy1waCcsICc3LjAnLCAnLXRuJywgJzgnLCAnLW1hJywgJzIwMCcsICctbWV0YWxfYmluZGluZycsICctaW1hZScsICc8aW5maWxlLm1hZT4nLCAnLW9tYWUnLCAnPG91dGZpbGUubWFlPic=

> <r_lp_tautomer_probability>
1

> <r_epik_Ionization_Penalty>
4.39121

> <r_epik_Ionization_Penalty_Charging>
3.39398

> <r_epik_Ionization_Penalty_Neutral>
0.997232

> <r_epik_State_Penalty>
3.39839

> <r_epik_Charging_Adjusted_Penalty>
6.79237

> <i_epik_Tot_Q>
-1

> <i_epik_Tot_abs_Q>
1

> <r_epik_Metal_State_Penalty>
0.497663

> <b_epik_Metal_Only>
1

> <s_epik_Chemistry_Notes>
This compound has an ester and may undergo hydrolysis at high or low pH. This compound contains an acetal/aminal-like group ( X-CH(R)-Y where X, Y are N, S, or O) that may be acid/base labile, releasing an aldehyde.

> <s_lp_Force_Field>
OPLS_2005

> <r_lp_Energy>
46.6749

> <b_lp_Chiralities_Consistent>
1

> <s_lp_Variant>
AV-unprocessed.smi:1-18

> <Gold.Version>
5.8.1

> <Gold.Id.Protein>
6NUR|6NUR_protein|mol2

> <Gold.PLP.Fitness>
55.9030

> <Gold.PLP.PLP>
-49.8317

> <Gold.PLP.part.hbond>
-2.0000

> <Gold.PLP.part.metal>
0.0000

> <Gold.PLP.part.buried>
-7.9719

> <Gold.PLP.part.nonpolar>
-40.8526

> <Gold.PLP.part.repulsive>
1.9804

> <Gold.PLP.ligand.clash>
0.0000

> <Gold.PLP.ligand.torsion>
1.8496

> <Gold.PLP.Chemscore.Hbond>
1.9833

> <Gold.PLP.Chemscore.CHOScore>
1.0000

> <Gold.PLP.Chemscore.Metal>
0.0000

> <Gold.Chemscore.Hbonds>
donor molecule, donor type, donor heavy atom, donor atom, acceptor molecule, acceptor atom, score
      P1  H  7989  7998       L1     5  1.00
      P1  H  7997  8010       L1     1  0.60
      L1  C     6    39       P1  7957  1.00

> <Gold.PLP.Chemscore.Internal.Correction>
0.8204

> <Gold.Rescore>
     Score         DG    S(hbond)    S(metal)    S(lipo)     H(rot)  DE(clash)    DE(int)     intcor
     11.99     -20.32       1.64        0.00     126.24       2.11       1.72       6.60       ----

> <Gold.Chemscore.Fitness>
11.9905

> <Gold.Chemscore.DG>
-20.3188

> <Gold.Chemscore.ZeroCoef>
-5.4800

> <Gold.Chemscore.Hbond>
1.6405

> <Gold.Chemscore.Metal>
0.0000

> <Gold.Chemscore.Lipo>
126.2423

> <Gold.Chemscore.Internal_Hbond>
0.0000

> <Gold.Chemscore.DEClash>
1.7239

> <Gold.Chemscore.DEInternal>
6.6043

> <Gold.Chemscore.Rot>
2.1136

> <Gold.Chemscore.Internal.Correction>
   9.000000E+99

> <Gold.Chemscore.Hbonds>
donor molecule, donor type, donor heavy atom, donor atom, acceptor molecule, acceptor atom, score
      P1  H  7989  7998       L1     5  0.75
      P1  H  7997  8010       L1     1  0.22

> <Gold.Chemscore.Hbond.Weighted>
-5.4792

> <Gold.Chemscore.Metal.Weighted>
-0.0000

> <Gold.Chemscore.Lipo.Weighted>
-14.7703

> <Gold.Chemscore.Internal_Hbond.Weighted>
0.0000

> <Gold.Chemscore.DEClash.Weighted>
1.7239

> <Gold.Chemscore.DEInternal.Weighted>
6.6043

> <Gold.Chemscore.Rot.Weighted>
5.4107

> <Gold.Chemscore.Internal.Correction.Weighted>
   9.000000E+99

> <Gold.Protein.RotatedTorsions>
[ 6907 6896 6895 6894 ] final  -47.26 input  -60.11 | X-H torsion
[ 7974 7965 7964 7962 ] final   88.60 input  175.53 | X-H torsion
[ 8008 7997 7996 7995 ] final   46.74 input   59.86 | X-H torsion
[ 10167 10162 10161 10158 ] final   16.24 input  -65.29 | X-H torsion
[ 10718 10713 10712 10709 ] final -153.90 input   66.30 | X-H torsion
[ 10763 10752 10751 10750 ] final   27.90 input  -60.55 | X-H torsion
[ 11005 11000 10999 10996 ] final -153.42 input  -57.11 | X-H torsion

> <Gold.Protein.ActiveResidues>
 VAL166  LYS551  ARG553  GLY616  TRP617  ASP618  TYR619  PRO620  LYS621  CYS622 
 ASP623  PHE694  ASN695  SER759  ASP760  ASP761  ALA762  ILE779  LEU786  VAL792 
 PHE793  MET794  SER795  GLU796  ALA797  LYS798  CYS799  TRP800  GLU811  SER814 

> <Gold.Protein.RotatedAtoms>
  150.9026  134.8439  159.7370 H   0  0  0  0  0  0  0  0  0  0  0  0  # atno 6907 bound_to 6896
  152.4901  134.4479  159.9575 H   0  0  0  0  0  0  0  0  0  0  0  0  # atno 6908 bound_to 6896
  151.4530  133.3573  159.2833 H   0  0  0  0  0  0  0  0  0  0  0  0  # atno 6909 bound_to 6896
  145.5435  139.2290  143.2552 H   0  0  0  0  0  0  0  0  0  0  0  0  # atno 7974 bound_to 7965
  155.3575  140.3417  155.4240 H   0  0  0  0  0  0  0  0  0  0  0  0  # atno 8008 bound_to 7997
  156.1731  140.1638  156.8446 H   0  0  0  0  0  0  0  0  0  0  0  0  # atno 8009 bound_to 7997
  154.5254  140.0757  156.8231 H   0  0  0  0  0  0  0  0  0  0  0  0  # atno 8010 bound_to 7997
  140.5811  143.8979  150.6790 H   0  0  0  0  0  0  0  0  0  0  0  0  # atno 10167 bound_to 10162
  156.4920  130.8352  151.2574 H   0  0  0  0  0  0  0  0  0  0  0  0  # atno 10718 bound_to 10713
  153.0526  135.6526  154.0656 H   0  0  0  0  0  0  0  0  0  0  0  0  # atno 10763 bound_to 10752
  154.0341  135.2909  155.3366 H   0  0  0  0  0  0  0  0  0  0  0  0  # atno 10764 bound_to 10752
  154.6823  135.5315  153.8346 H   0  0  0  0  0  0  0  0  0  0  0  0  # atno 10765 bound_to 10752
  140.7083  134.3861  157.5201 H   0  0  0  0  0  0  0  0  0  0  0  0  # atno 11005 bound_to 11000
  146.1965  140.6256  142.9122 LP  0  0  0  0  0  0  0  0  0  0  0  0  # atno 17320 bound_to 7965
  144.7565  140.5319  143.6765 LP  0  0  0  0  0  0  0  0  0  0  0  0  # atno 17321 bound_to 7965
  140.2479  143.3615  152.1431 LP  0  0  0  0  0  0  0  0  0  0  0  0  # atno 17342 bound_to 10162
  139.5170  144.6986  151.5559 LP  0  0  0  0  0  0  0  0  0  0  0  0  # atno 17343 bound_to 10162
  157.7472  131.0010  150.2947 LP  0  0  0  0  0  0  0  0  0  0  0  0  # atno 17370 bound_to 10713
  156.3417  130.3816  149.7404 LP  0  0  0  0  0  0  0  0  0  0  0  0  # atno 17371 bound_to 10713
  139.8878  134.8872  156.2507 LP  0  0  0  0  0  0  0  0  0  0  0  0  # atno 17394 bound_to 11000
  141.0106  133.7098  156.1105 LP  0  0  0  0  0  0  0  0  0  0  0  0  # atno 17395 bound_to 11000

$$$$
