AV-unprocessed.smi:2522|AV-procd|sdf|9919|dock3
  -GOLD-   2272013553D 1   1.00000     0.00000
 Structure written by MMmdl.
 41 42  0  0  0  0  0  0  0  0  1 V2000
  147.8058  134.6702  154.5966 C   0  0  0  0  0  0  0  0  0  0  0  0
  149.0427  133.7510  154.5161 C   0  0  0  0  0  0  0  0  0  0  0  0
  148.8346  132.5537  155.4619 C   0  0  0  0  0  0  0  0  0  0  0  0
  149.1846  133.2231  153.0735 C   0  0  0  0  0  0  0  0  0  0  0  0
  150.3211  134.5111  154.9581 C   0  0  0  0  0  0  0  0  0  0  0  0
  150.4172  135.8460  154.3744 N   0  0  0  0  0  0  0  0  0  0  0  0
  151.2769  136.8096  154.7414 C   0  0  0  0  0  0  0  0  0  0  0  0
  152.0361  136.7169  155.7057 O   0  0  0  0  0  0  0  0  0  0  0  0
  151.3061  138.0592  153.8589 C   0  0  0  0  0  0  0  0  0  0  0  0
  150.9271  139.2624  154.6747 C   0  0  0  0  0  0  0  0  0  0  0  0
  149.8588  140.1000  154.4660 C   0  0  0  0  0  0  0  0  0  0  0  0
  149.7556  141.3432  155.6838 S   0  0  0  0  0  0  0  0  0  0  0  0
  151.1952  140.6707  156.4462 C   0  0  0  0  0  0  0  0  0  0  0  0
  151.7690  141.1882  157.6461 N   0  0  0  0  0  0  0  0  0  0  0  0
  151.2652  142.4113  158.2586 C   0  0  0  0  0  0  0  0  0  0  0  0
  151.9670  142.5247  159.6166 C   0  0  0  0  0  0  0  0  0  0  0  0
  153.1171  141.5210  159.5664 C   0  0  0  0  0  0  0  0  0  0  0  0
  152.7983  140.6740  158.3460 C   0  0  0  0  0  0  0  0  0  0  0  0
  153.4388  139.6559  158.0848 O   0  0  0  0  0  0  0  0  0  0  0  0
  151.6913  139.6151  155.7922 N   0  0  0  0  0  0  0  0  0  0  0  0
  146.8924  134.1277  154.3503 H   0  0  0  0  0  0  0  0  0  0  0  0
  147.8771  135.5069  153.9016 H   0  0  0  0  0  0  0  0  0  0  0  0
  147.6821  135.0841  155.5977 H   0  0  0  0  0  0  0  0  0  0  0  0
  148.7158  132.8799  156.4958 H   0  0  0  0  0  0  0  0  0  0  0  0
  149.6832  131.8695  155.4291 H   0  0  0  0  0  0  0  0  0  0  0  0
  147.9440  131.9837  155.1944 H   0  0  0  0  0  0  0  0  0  0  0  0
  148.3231  132.6194  152.7865 H   0  0  0  0  0  0  0  0  0  0  0  0
  150.0728  132.5997  152.9654 H   0  0  0  0  0  0  0  0  0  0  0  0
  149.2613  134.0348  152.3495 H   0  0  0  0  0  0  0  0  0  0  0  0
  150.3209  134.6326  156.0418 H   0  0  0  0  0  0  0  0  0  0  0  0
  151.2107  133.9230  154.7262 H   0  0  0  0  0  0  0  0  0  0  0  0
  149.8368  136.0241  153.5672 H   0  0  0  0  0  0  0  0  0  0  0  0
  152.3018  138.1767  153.4293 H   0  0  0  0  0  0  0  0  0  0  0  0
  150.6200  137.9282  153.0212 H   0  0  0  0  0  0  0  0  0  0  0  0
  149.1194  140.0512  153.6803 H   0  0  0  0  0  0  0  0  0  0  0  0
  151.5143  143.2608  157.6211 H   0  0  0  0  0  0  0  0  0  0  0  0
  150.1815  142.3819  158.3791 H   0  0  0  0  0  0  0  0  0  0  0  0
  152.3173  143.5396  159.8074 H   0  0  0  0  0  0  0  0  0  0  0  0
  151.2779  142.2583  160.4192 H   0  0  0  0  0  0  0  0  0  0  0  0
  154.0754  142.0204  159.4205 H   0  0  0  0  0  0  0  0  0  0  0  0
  153.1723  140.9132  160.4700 H   0  0  0  0  0  0  0  0  0  0  0  0
  1  2  1  0  0  0  0
  1 21  1  0  0  0  0
  1 22  1  0  0  0  0
  1 23  1  0  0  0  0
  2  3  1  0  0  0  0
  2  4  1  0  0  0  0
  2  5  1  0  0  0  0
  3 24  1  0  0  0  0
  3 25  1  0  0  0  0
  3 26  1  0  0  0  0
  4 27  1  0  0  0  0
  4 28  1  0  0  0  0
  4 29  1  0  0  0  0
  5  6  1  0  0  0  0
  5 30  1  0  0  0  0
  5 31  1  0  0  0  0
  6  7  1  0  0  0  0
  6 32  1  0  0  0  0
  7  8  2  0  0  0  0
  7  9  1  0  0  0  0
  9 10  1  0  0  0  0
  9 33  1  0  0  0  0
  9 34  1  0  0  0  0
 10 20  1  0  0  0  0
 10 11  2  0  0  0  0
 11 12  1  0  0  0  0
 11 35  1  0  0  0  0
 12 13  1  0  0  0  0
 13 14  1  0  0  0  0
 13 20  2  0  0  0  0
 14 18  1  0  0  0  0
 14 15  1  0  0  0  0
 15 16  1  0  0  0  0
 15 36  1  0  0  0  0
 15 37  1  0  0  0  0
 16 17  1  0  0  0  0
 16 38  1  0  0  0  0
 16 39  1  0  0  0  0
 17 18  1  0  0  0  0
 17 40  1  0  0  0  0
 17 41  1  0  0  0  0
 18 19  2  0  0  0  0
M  END
> <s_m_source_file>
AV-unprocessed.smi

> <i_m_source_file_index>
2522

> <i_lp_mmshare_version>
43012

> <i_f3d_flags>
0

> <s_epik_input>
W0NIM11DKFtDSDNdKShbQ0gzXSlbQ0gyXVtOSF1DKD1PKVtDSDJdYzFbY0hdc2MobjEpTjJbQ0gyXVtDSDJdW0NIMl1DMj1P

> <s_epik_cmdline>
J2VwaWtfcHl0aG9uJywgJy1waCcsICc3LjAnLCAnLXRuJywgJzgnLCAnLW1hJywgJzIwMCcsICctbWV0YWxfYmluZGluZycsICctaW1hZScsICc8aW5maWxlLm1hZT4nLCAnLW9tYWUnLCAnPG91dGZpbGUubWFlPic=

> <r_lp_tautomer_probability>
1

> <r_epik_Ionization_Penalty>
2.986e-05

> <r_epik_Ionization_Penalty_Charging>
0

> <r_epik_Ionization_Penalty_Neutral>
2.986e-05

> <r_epik_State_Penalty>
-0

> <r_epik_Charging_Adjusted_Penalty>
0

> <i_epik_Tot_Q>
0

> <i_epik_Tot_abs_Q>
0

> <r_epik_Metal_State_Penalty>
-0

> <b_epik_Metal_Only>
0

> <s_lp_Force_Field>
OPLS_2005

> <r_lp_Energy>
19.1404

> <b_lp_Chiralities_Consistent>
1

> <s_lp_Variant>
AV-unprocessed.smi:2522-1

> <Gold.Version>
5.8.1

> <Gold.Id.Protein>
6NUR|6NUR_protein|mol2

> <Gold.PLP.Fitness>
47.6940

> <Gold.PLP.PLP>
-36.2441

> <Gold.PLP.part.hbond>
-3.6217

> <Gold.PLP.part.metal>
0.0000

> <Gold.PLP.part.buried>
0.6206

> <Gold.PLP.part.nonpolar>
-32.0556

> <Gold.PLP.part.repulsive>
0.0968

> <Gold.PLP.ligand.clash>
0.0000

> <Gold.PLP.ligand.torsion>
0.2579

> <Gold.PLP.Chemscore.Hbond>
2.9920

> <Gold.PLP.Chemscore.CHOScore>
0.9943

> <Gold.PLP.Chemscore.Metal>
0.0000

> <Gold.Chemscore.Hbonds>
donor molecule, donor type, donor heavy atom, donor atom, acceptor molecule, acceptor atom, score
      L1  H     6    32       P1  7948  0.80
      P1  H  7997  8008       L1    19  1.00
      P1  H 10752 10765       L1     8  0.88
      L1  C    11    35       P1  7957  0.83

> <Gold.PLP.Chemscore.Internal.Correction>
0.0070

> <Gold.Rescore>
     Score         DG    S(hbond)    S(metal)    S(lipo)     H(rot)  DE(clash)    DE(int)     intcor
     15.75     -18.35       2.44        0.00      75.02       1.59       0.03       2.57       ----

> <Gold.Chemscore.Fitness>
15.7506

> <Gold.Chemscore.DG>
-18.3534

> <Gold.Chemscore.ZeroCoef>
-5.4800

> <Gold.Chemscore.Hbond>
2.4445

> <Gold.Chemscore.Metal>
0.0000

> <Gold.Chemscore.Lipo>
75.0192

> <Gold.Chemscore.Internal_Hbond>
0.0000

> <Gold.Chemscore.DEClash>
0.0349

> <Gold.Chemscore.DEInternal>
2.5679

> <Gold.Chemscore.Rot>
1.5892

> <Gold.Chemscore.Internal.Correction>
   9.000000E+99

> <Gold.Chemscore.Hbonds>
donor molecule, donor type, donor heavy atom, donor atom, acceptor molecule, acceptor atom, score
      L1  H     6    32       P1  7948  0.12
      P1  H  7997  8008       L1    19  0.60
      P1  H 10752 10765       L1     8  0.30

> <Gold.Chemscore.Hbond.Weighted>
-8.1645

> <Gold.Chemscore.Metal.Weighted>
-0.0000

> <Gold.Chemscore.Lipo.Weighted>
-8.7772

> <Gold.Chemscore.Internal_Hbond.Weighted>
0.0000

> <Gold.Chemscore.DEClash.Weighted>
0.0349

> <Gold.Chemscore.DEInternal.Weighted>
2.5679

> <Gold.Chemscore.Rot.Weighted>
4.0684

> <Gold.Chemscore.Internal.Correction.Weighted>
   9.000000E+99

> <Gold.Protein.RotatedTorsions>
[ 6907 6896 6895 6894 ] final    4.33 input  -60.11 | X-H torsion
[ 7974 7965 7964 7962 ] final -133.69 input  175.53 | X-H torsion
[ 8008 7997 7996 7995 ] final  -79.47 input   59.86 | X-H torsion
[ 10167 10162 10161 10158 ] final  -72.44 input  -65.29 | X-H torsion
[ 10718 10713 10712 10709 ] final   90.03 input   66.30 | X-H torsion
[ 10763 10752 10751 10750 ] final -141.53 input  -60.55 | X-H torsion
[ 11005 11000 10999 10996 ] final  152.55 input  -57.11 | X-H torsion

> <Gold.Protein.ActiveResidues>
 VAL166  LYS551  ARG553  GLY616  TRP617  ASP618  TYR619  PRO620  LYS621  CYS622 
 ASP623  PHE694  ASN695  SER759  ASP760  ASP761  ALA762  ILE779  LEU786  VAL792 
 PHE793  MET794  SER795  GLU796  ALA797  LYS798  CYS799  TRP800  GLU811  SER814 

> <Gold.Protein.RotatedAtoms>
  151.6395  135.1014  160.0138 H   0  0  0  0  0  0  0  0  0  0  0  0  # atno 6907 bound_to 6896
  152.4062  133.6888  159.6366 H   0  0  0  0  0  0  0  0  0  0  0  0  # atno 6908 bound_to 6896
  150.7956  133.8622  159.3276 H   0  0  0  0  0  0  0  0  0  0  0  0  # atno 6909 bound_to 6896
  144.9170  140.6967  143.4989 H   0  0  0  0  0  0  0  0  0  0  0  0  # atno 7974 bound_to 7965
  154.5789  140.0678  156.9074 H   0  0  0  0  0  0  0  0  0  0  0  0  # atno 8008 bound_to 7997
  155.2499  140.3351  155.4265 H   0  0  0  0  0  0  0  0  0  0  0  0  # atno 8009 bound_to 7997
  156.2174  140.1784  156.7541 H   0  0  0  0  0  0  0  0  0  0  0  0  # atno 8010 bound_to 7997
  140.5192  143.2334  151.7459 H   0  0  0  0  0  0  0  0  0  0  0  0  # atno 10167 bound_to 10162
  157.6958  131.0355  150.3516 H   0  0  0  0  0  0  0  0  0  0  0  0  # atno 10718 bound_to 10713
  154.8542  135.3522  154.5882 H   0  0  0  0  0  0  0  0  0  0  0  0  # atno 10763 bound_to 10752
  153.6492  135.6995  153.5219 H   0  0  0  0  0  0  0  0  0  0  0  0  # atno 10764 bound_to 10752
  153.2908  135.4235  155.1123 H   0  0  0  0  0  0  0  0  0  0  0  0  # atno 10765 bound_to 10752
  140.1318  134.8797  157.2213 H   0  0  0  0  0  0  0  0  0  0  0  0  # atno 11005 bound_to 11000
  145.3359  139.1746  143.4512 LP  0  0  0  0  0  0  0  0  0  0  0  0  # atno 17320 bound_to 7965
  146.3187  140.3394  142.8647 LP  0  0  0  0  0  0  0  0  0  0  0  0  # atno 17321 bound_to 7965
  139.4918  144.4279  151.9905 LP  0  0  0  0  0  0  0  0  0  0  0  0  # atno 17342 bound_to 10162
  140.3375  144.3243  150.5974 LP  0  0  0  0  0  0  0  0  0  0  0  0  # atno 17343 bound_to 10162
  156.3964  130.3907  149.6992 LP  0  0  0  0  0  0  0  0  0  0  0  0  # atno 17370 bound_to 10713
  156.4324  130.7822  151.2842 LP  0  0  0  0  0  0  0  0  0  0  0  0  # atno 17371 bound_to 10713
  140.2833  134.3325  155.7336 LP  0  0  0  0  0  0  0  0  0  0  0  0  # atno 17394 bound_to 11000
  141.2171  133.7491  156.9395 LP  0  0  0  0  0  0  0  0  0  0  0  0  # atno 17395 bound_to 11000

$$$$
