AV-unprocessed.smi:1824|AV-procd|sdf|7409|dock9
  -GOLD-   22720 9 83D 1   1.00000     0.00000
 Structure written by MMmdl.
 45 47  0  0  0  0  0  0  0  0  2 V2000
  155.2081  140.3504  162.0585 C   0  0  0  0  0  0  0  0  0  0  0  0
  155.7004  139.0627  161.3761 C   0  0  2  0  0  0  0  0  0  0  0  0
  154.9684  138.7521  160.0555 C   0  0  0  0  0  0  0  0  0  0  0  0
  153.6050  138.2743  160.2612 N   0  0  0  0  0  0  0  0  0  0  0  0
  152.9543  137.9955  158.9798 C   0  0  0  0  0  0  0  0  0  0  0  0
  152.6971  139.2236  158.0840 C   0  0  1  0  0  0  0  0  0  0  0  0
  153.3002  138.9903  156.8265 O   0  0  0  0  0  0  0  0  0  0  0  0
  151.1887  139.4751  157.8931 C   0  0  0  0  0  0  0  0  0  0  0  0
  150.8760  140.8804  157.5943 N   0  0  0  0  0  0  0  0  0  0  0  0
  150.1462  141.4084  156.5745 C   0  0  0  0  0  0  0  0  0  0  0  0
  150.1441  142.7616  156.7274 N   0  3  0  0  0  0  0  0  0  0  0  0
  150.8817  143.1039  157.8630 C   0  0  0  0  0  0  0  0  0  0  0  0
  151.1633  144.3442  158.4267 C   0  0  0  0  0  0  0  0  0  0  0  0
  151.9472  144.3459  159.5992 C   0  0  0  0  0  0  0  0  0  0  0  0
  152.2501  145.5261  160.1899 F   0  0  0  0  0  0  0  0  0  0  0  0
  152.4200  143.1442  160.1676 C   0  0  0  0  0  0  0  0  0  0  0  0
  153.1680  143.1905  161.2954 F   0  0  0  0  0  0  0  0  0  0  0  0
  152.1293  141.8928  159.5855 C   0  0  0  0  0  0  0  0  0  0  0  0
  151.3544  141.9000  158.4262 C   0  0  0  0  0  0  0  0  0  0  0  0
  153.6423  137.1105  161.1430 C   0  0  0  0  0  0  0  0  0  0  0  0
  154.3214  137.4280  162.4881 C   0  0  1  0  0  0  0  0  0  0  0  0
  154.4463  136.1863  163.3773 C   0  0  0  0  0  0  0  0  0  0  0  0
  155.6328  137.9371  162.2527 O   0  0  0  0  0  0  0  0  0  0  0  0
  155.3668  141.2149  161.4136 H   0  0  0  0  0  0  0  0  0  0  0  0
  155.7483  140.5288  162.9884 H   0  0  0  0  0  0  0  0  0  0  0  0
  154.1444  140.3107  162.2921 H   0  0  0  0  0  0  0  0  0  0  0  0
  156.7563  139.2090  161.1467 H   0  0  0  0  0  0  0  0  0  0  0  0
  154.9616  139.6432  159.4265 H   0  0  0  0  0  0  0  0  0  0  0  0
  155.5366  137.9972  159.5094 H   0  0  0  0  0  0  0  0  0  0  0  0
  153.5639  137.2901  158.4125 H   0  0  0  0  0  0  0  0  0  0  0  0
  152.0097  137.4823  159.1662 H   0  0  0  0  0  0  0  0  0  0  0  0
  153.1397  140.1199  158.5164 H   0  0  0  0  0  0  0  0  0  0  0  0
  152.9538  138.1826  156.4775 H   0  0  0  0  0  0  0  0  0  0  0  0
  150.7746  138.8387  157.1106 H   0  0  0  0  0  0  0  0  0  0  0  0
  150.6536  139.2181  158.8082 H   0  0  0  0  0  0  0  0  0  0  0  0
  149.6574  140.8540  155.7859 H   0  0  0  0  0  0  0  0  0  0  0  0
  150.8024  145.2666  157.9960 H   0  0  0  0  0  0  0  0  0  0  0  0
  152.4913  140.9797  160.0338 H   0  0  0  0  0  0  0  0  0  0  0  0
  152.6339  136.7529  161.3455 H   0  0  0  0  0  0  0  0  0  0  0  0
  154.1708  136.2922  160.6513 H   0  0  0  0  0  0  0  0  0  0  0  0
  153.7344  138.1745  163.0240 H   0  0  0  0  0  0  0  0  0  0  0  0
  153.4670  135.7611  163.5986 H   0  0  0  0  0  0  0  0  0  0  0  0
  154.9226  136.4333  164.3263 H   0  0  0  0  0  0  0  0  0  0  0  0
  155.0459  135.4138  162.8947 H   0  0  0  0  0  0  0  0  0  0  0  0
  149.6718  143.4017  156.1014 H   0  0  0  0  0  0  0  0  0  0  0  0
  1  2  1  0  0  0  0
  1 24  1  0  0  0  0
  1 25  1  0  0  0  0
  1 26  1  0  0  0  0
  2 23  1  0  0  0  0
  2  3  1  0  0  0  0
  2 27  1  0  0  0  0
  3  4  1  0  0  0  0
  3 28  1  0  0  0  0
  3 29  1  0  0  0  0
  4  5  1  0  0  0  0
  4 20  1  0  0  0  0
  5  6  1  0  0  0  0
  5 30  1  0  0  0  0
  5 31  1  0  0  0  0
  6  7  1  0  0  0  0
  6  8  1  0  0  0  0
  6 32  1  0  0  0  0
  7 33  1  0  0  0  0
  8  9  1  0  0  0  0
  8 34  1  0  0  0  0
  8 35  1  0  0  0  0
  9 19  1  0  0  0  0
  9 10  1  0  0  0  0
 10 11  2  0  0  0  0
 10 36  1  0  0  0  0
 11 12  1  0  0  0  0
 11 45  1  0  0  0  0
 12 19  2  0  0  0  0
 12 13  1  0  0  0  0
 13 14  2  0  0  0  0
 13 37  1  0  0  0  0
 14 15  1  0  0  0  0
 14 16  1  0  0  0  0
 16 17  1  0  0  0  0
 16 18  2  0  0  0  0
 18 19  1  0  0  0  0
 18 38  1  0  0  0  0
 20 21  1  0  0  0  0
 20 39  1  0  0  0  0
 20 40  1  0  0  0  0
 21 22  1  0  0  0  0
 21 23  1  0  0  0  0
 21 41  1  0  0  0  0
 22 42  1  0  0  0  0
 22 43  1  0  0  0  0
 22 44  1  0  0  0  0
M  CHG  1  11   1
M  END
> <s_m_source_file>
AV-unprocessed.smi

> <i_m_source_file_index>
1824

> <i_lp_mmshare_version>
43012

> <i_f3d_flags>
0

> <s_epik_input>
W0NIM11bQ0BASF0xW0NIMl1OKFtDSDJdW0NASF0oTzEpW0NIM10pW0NIMl1bQ0BIXShbT0hdKVtDSDJdbihbY0hdbjIpYyhjMjMpW2NIXWMoRiljKEYpW2NIXTM=

> <s_epik_cmdline>
J2VwaWtfcHl0aG9uJywgJy1waCcsICc3LjAnLCAnLXRuJywgJzgnLCAnLW1hJywgJzIwMCcsICctbWV0YWxfYmluZGluZycsICctaW1hZScsICc8aW5maWxlLm1hZT4nLCAnLW9tYWUnLCAnPG91dGZpbGUubWFlPic=

> <r_epik_Ionization_Penalty>
2.58709

> <r_epik_Ionization_Penalty_Charging>
2.37273

> <r_epik_Ionization_Penalty_Neutral>
0.214359

> <r_epik_State_Penalty>
2.71799

> <r_epik_Charging_Adjusted_Penalty>
5.09071

> <i_epik_Tot_Q>
1

> <i_epik_Tot_abs_Q>
1

> <r_epik_Metal_State_Penalty>
6.80217

> <b_epik_Metal_Only>
0

> <s_lp_Force_Field>
OPLS_2005

> <r_lp_Energy>
35.2621

> <b_lp_Chiralities_Consistent>
1

> <s_lp_Variant>
AV-unprocessed.smi:1824-17

> <Gold.Version>
5.8.1

> <Gold.Id.Protein>
6NUR|6NUR_protein|mol2

> <Gold.PLP.Fitness>
55.4113

> <Gold.PLP.PLP>
-48.8592

> <Gold.PLP.part.hbond>
-1.7565

> <Gold.PLP.part.metal>
0.0000

> <Gold.PLP.part.buried>
-6.3692

> <Gold.PLP.part.nonpolar>
-41.3223

> <Gold.PLP.part.repulsive>
0.0590

> <Gold.PLP.ligand.clash>
0.0000

> <Gold.PLP.ligand.torsion>
1.1142

> <Gold.PLP.Chemscore.Hbond>
2.9200

> <Gold.PLP.Chemscore.CHOScore>
0.0000

> <Gold.PLP.Chemscore.Metal>
0.0000

> <Gold.Chemscore.Hbonds>
donor molecule, donor type, donor heavy atom, donor atom, acceptor molecule, acceptor atom, score
      L1  H    11    45       P1  8028  2.00
      P1  H  7997  8008       L1     7  1.00

> <Gold.PLP.Chemscore.Internal.Correction>
0.0206

> <Gold.Rescore>
     Score         DG    S(hbond)    S(metal)    S(lipo)     H(rot)  DE(clash)    DE(int)     intcor
     18.69     -19.95       1.95        0.00     118.77       2.32       0.16       1.10       ----

> <Gold.Chemscore.Fitness>
18.6925

> <Gold.Chemscore.DG>
-19.9468

> <Gold.Chemscore.ZeroCoef>
-5.4800

> <Gold.Chemscore.Hbond>
1.9497

> <Gold.Chemscore.Metal>
0.0000

> <Gold.Chemscore.Lipo>
118.7716

> <Gold.Chemscore.Internal_Hbond>
0.0000

> <Gold.Chemscore.DEClash>
0.1587

> <Gold.Chemscore.DEInternal>
1.0957

> <Gold.Chemscore.Rot>
2.3210

> <Gold.Chemscore.Internal.Correction>
   9.000000E+99

> <Gold.Chemscore.Hbonds>
donor molecule, donor type, donor heavy atom, donor atom, acceptor molecule, acceptor atom, score
      L1  H    11    45       P1  8028  0.97
      P1  H  7997  8008       L1     7  0.77

> <Gold.Chemscore.Hbond.Weighted>
-6.5121

> <Gold.Chemscore.Metal.Weighted>
-0.0000

> <Gold.Chemscore.Lipo.Weighted>
-13.8963

> <Gold.Chemscore.Internal_Hbond.Weighted>
0.0000

> <Gold.Chemscore.DEClash.Weighted>
0.1587

> <Gold.Chemscore.DEInternal.Weighted>
1.0957

> <Gold.Chemscore.Rot.Weighted>
5.9416

> <Gold.Chemscore.Internal.Correction.Weighted>
   9.000000E+99

> <Gold.Protein.RotatedTorsions>
[ 6907 6896 6895 6894 ] final  124.68 input  -60.11 | X-H torsion
[ 7974 7965 7964 7962 ] final -168.16 input  175.53 | X-H torsion
[ 8008 7997 7996 7995 ] final  -49.67 input   59.86 | X-H torsion
[ 10167 10162 10161 10158 ] final -169.29 input  -65.29 | X-H torsion
[ 10718 10713 10712 10709 ] final  -43.57 input   66.30 | X-H torsion
[ 10763 10752 10751 10750 ] final   46.54 input  -60.55 | X-H torsion
[ 11005 11000 10999 10996 ] final -110.05 input  -57.11 | X-H torsion

> <Gold.Protein.ActiveResidues>
 VAL166  LYS551  ARG553  GLY616  TRP617  ASP618  TYR619  PRO620  LYS621  CYS622 
 ASP623  PHE694  ASN695  SER759  ASP760  ASP761  ALA762  ILE779  LEU786  VAL792 
 PHE793  MET794  SER795  GLU796  ALA797  LYS798  CYS799  TRP800  GLU811  SER814 

> <Gold.Protein.RotatedAtoms>
  152.4057  133.6885  159.6354 H   0  0  0  0  0  0  0  0  0  0  0  0  # atno 6907 bound_to 6896
  150.7942  133.8713  159.3268 H   0  0  0  0  0  0  0  0  0  0  0  0  # atno 6908 bound_to 6896
  151.6468  135.1008  160.0204 H   0  0  0  0  0  0  0  0  0  0  0  0  # atno 6909 bound_to 6896
  144.7208  140.2412  143.6291 H   0  0  0  0  0  0  0  0  0  0  0  0  # atno 7974 bound_to 7965
  154.4048  140.1291  156.4540 H   0  0  0  0  0  0  0  0  0  0  0  0  # atno 8008 bound_to 7997
  155.7338  140.3491  155.5052 H   0  0  0  0  0  0  0  0  0  0  0  0  # atno 8009 bound_to 7997
  155.9103  140.1034  157.1274 H   0  0  0  0  0  0  0  0  0  0  0  0  # atno 8010 bound_to 7997
  139.5932  144.1169  152.1658 H   0  0  0  0  0  0  0  0  0  0  0  0  # atno 10167 bound_to 10162
  156.2476  130.4185  149.8687 H   0  0  0  0  0  0  0  0  0  0  0  0  # atno 10718 bound_to 10713
  152.9809  135.6005  154.3617 H   0  0  0  0  0  0  0  0  0  0  0  0  # atno 10763 bound_to 10752
  154.3298  135.2768  155.2479 H   0  0  0  0  0  0  0  0  0  0  0  0  # atno 10764 bound_to 10752
  154.4608  135.5966  153.6310 H   0  0  0  0  0  0  0  0  0  0  0  0  # atno 10765 bound_to 10752
  141.0813  133.9215  157.2282 H   0  0  0  0  0  0  0  0  0  0  0  0  # atno 11005 bound_to 11000
  145.8318  139.2089  143.1878 LP  0  0  0  0  0  0  0  0  0  0  0  0  # atno 17320 bound_to 7965
  146.0424  140.8151  142.9822 LP  0  0  0  0  0  0  0  0  0  0  0  0  # atno 17321 bound_to 7965
  140.0748  144.5750  150.7165 LP  0  0  0  0  0  0  0  0  0  0  0  0  # atno 17342 bound_to 10162
  140.7190  143.2571  151.4340 LP  0  0  0  0  0  0  0  0  0  0  0  0  # atno 17343 bound_to 10162
  156.6246  130.8641  151.3483 LP  0  0  0  0  0  0  0  0  0  0  0  0  # atno 17370 bound_to 10713
  157.7201  130.9548  150.1407 LP  0  0  0  0  0  0  0  0  0  0  0  0  # atno 17371 bound_to 10713
  139.9627  135.0150  156.9305 LP  0  0  0  0  0  0  0  0  0  0  0  0  # atno 17394 bound_to 11000
  140.5462  134.0672  155.7355 LP  0  0  0  0  0  0  0  0  0  0  0  0  # atno 17395 bound_to 11000

$$$$
