AV-unprocessed.smi:34|AV-procd|sdf|221|dock3
  -GOLD-   2262015543D 1   1.00000     0.00000
 Structure written by MMmdl.
 55 59  0  0  0  0  0  0  0  0  1 V2000
  147.1108  134.5882  153.5095 O   0  0  0  0  0  0  0  0  0  0  0  0
  146.0914  134.8082  152.8548 C   0  0  0  0  0  0  0  0  0  0  0  0
  145.2307  135.9467  153.1242 N   0  0  0  0  0  0  0  0  0  0  0  0
  145.4279  136.9538  154.0075 C   0  0  0  0  0  0  0  0  0  0  0  0
  144.9917  136.8921  155.2932 N   0  0  0  0  0  0  0  0  0  0  0  0
  145.2174  137.9090  156.1301 C   0  0  0  0  0  0  0  0  0  0  0  0
  145.8492  139.0597  155.8918 N   0  0  0  0  0  0  0  0  0  0  0  0
  146.2901  139.1302  154.6028 C   0  0  0  0  0  0  0  0  0  0  0  0
  146.1196  138.1272  153.6082 C   0  0  0  0  0  0  0  0  0  0  0  0
  146.6994  138.5435  152.4167 N   0  0  0  0  0  0  0  0  0  0  0  0
  147.1849  139.7236  152.6964 C   0  0  0  0  0  0  0  0  0  0  0  0
  146.9811  140.1544  153.9885 N   0  0  0  0  0  0  0  0  0  0  0  0
  147.4222  141.4419  154.6027 C   0  0  2  0  0  0  0  0  0  0  0  0
  148.8142  141.4455  154.6319 O   0  0  0  0  0  0  0  0  0  0  0  0
  149.2336  142.1617  155.7821 C   0  0  2  0  0  0  0  0  0  0  0  0
  150.6900  141.8327  156.1314 C   0  0  0  0  0  0  0  0  0  0  0  0
  151.0225  142.4462  157.3658 O   0  0  0  0  0  0  0  0  0  0  0  0
  151.7564  141.7761  158.2756 C   0  0  0  0  0  0  0  0  0  0  0  0
  152.1591  140.6226  158.1116 O   0  0  0  0  0  0  0  0  0  0  0  0
  152.0297  142.5768  159.5040 C   0  0  0  0  0  0  0  0  0  0  0  0
  151.6427  143.9368  159.5456 C   0  0  0  0  0  0  0  0  0  0  0  0
  151.8862  144.7172  160.6925 C   0  0  0  0  0  0  0  0  0  0  0  0
  152.5187  144.1469  161.8124 C   0  0  0  0  0  0  0  0  0  0  0  0
  152.9080  142.7951  161.7841 C   0  0  0  0  0  0  0  0  0  0  0  0
  152.6659  142.0132  160.6378 C   0  0  0  0  0  0  0  0  0  0  0  0
  148.2168  141.7381  156.8444 C   0  0  2  0  0  0  0  0  0  0  0  0
  148.5576  140.5711  157.3935 F   0  0  0  0  0  0  0  0  0  0  0  0
  146.9237  141.5692  156.0539 C   0  0  1  0  0  0  0  0  0  0  0  0
  146.1044  142.7070  156.2322 O   0  0  0  0  0  0  0  0  0  0  0  0
  145.6201  133.8629  151.7877 C   0  0  0  0  0  0  0  0  0  0  0  0
  144.4449  134.1505  151.0576 C   0  0  0  0  0  0  0  0  0  0  0  0
  143.9853  133.2613  150.0664 C   0  0  0  0  0  0  0  0  0  0  0  0
  144.6931  132.0737  149.8015 C   0  0  0  0  0  0  0  0  0  0  0  0
  145.8579  131.7731  150.5325 C   0  0  0  0  0  0  0  0  0  0  0  0
  146.3182  132.6611  151.5242 C   0  0  0  0  0  0  0  0  0  0  0  0
  144.3921  136.0078  152.5654 H   0  0  0  0  0  0  0  0  0  0  0  0
  144.8382  137.7824  157.1333 H   0  0  0  0  0  0  0  0  0  0  0  0
  147.7096  140.3168  151.9615 H   0  0  0  0  0  0  0  0  0  0  0  0
  147.0476  142.2224  153.9384 H   0  0  0  0  0  0  0  0  0  0  0  0
  149.1223  143.2306  155.5898 H   0  0  0  0  0  0  0  0  0  0  0  0
  150.8136  140.7532  156.2275 H   0  0  0  0  0  0  0  0  0  0  0  0
  151.3600  142.1738  155.3406 H   0  0  0  0  0  0  0  0  0  0  0  0
  151.1555  144.3967  158.6978 H   0  0  0  0  0  0  0  0  0  0  0  0
  151.5869  145.7549  160.7123 H   0  0  0  0  0  0  0  0  0  0  0  0
  152.7053  144.7452  162.6921 H   0  0  0  0  0  0  0  0  0  0  0  0
  153.3930  142.3559  162.6434 H   0  0  0  0  0  0  0  0  0  0  0  0
  152.9759  140.9784  160.6502 H   0  0  0  0  0  0  0  0  0  0  0  0
  148.1421  142.4547  157.6634 H   0  0  0  0  0  0  0  0  0  0  0  0
  146.3728  140.6795  156.3635 H   0  0  0  0  0  0  0  0  0  0  0  0
  145.2015  142.4280  156.2370 H   0  0  0  0  0  0  0  0  0  0  0  0
  143.8891  135.0573  151.2496 H   0  0  0  0  0  0  0  0  0  0  0  0
  143.0884  133.4906  149.5102 H   0  0  0  0  0  0  0  0  0  0  0  0
  144.3408  131.3921  149.0414 H   0  0  0  0  0  0  0  0  0  0  0  0
  146.3975  130.8585  150.3342 H   0  0  0  0  0  0  0  0  0  0  0  0
  147.2087  132.4050  152.0799 H   0  0  0  0  0  0  0  0  0  0  0  0
  1  2  2  0  0  0  0
  2  3  1  0  0  0  0
  2 30  1  0  0  0  0
  3  4  1  0  0  0  0
  3 36  1  0  0  0  0
  4  9  1  0  0  0  0
  4  5  2  0  0  0  0
  5  6  1  0  0  0  0
  6  7  2  0  0  0  0
  6 37  1  0  0  0  0
  7  8  1  0  0  0  0
  8 12  1  0  0  0  0
  8  9  2  0  0  0  0
  9 10  1  0  0  0  0
 10 11  2  0  0  0  0
 11 12  1  0  0  0  0
 11 38  1  0  0  0  0
 12 13  1  0  0  0  0
 13 28  1  0  0  0  0
 13 14  1  0  0  0  0
 13 39  1  0  0  0  0
 14 15  1  0  0  0  0
 15 16  1  0  0  0  0
 15 26  1  0  0  0  0
 15 40  1  0  0  0  0
 16 17  1  0  0  0  0
 16 41  1  0  0  0  0
 16 42  1  0  0  0  0
 17 18  1  0  0  0  0
 18 19  2  0  0  0  0
 18 20  1  0  0  0  0
 20 25  1  0  0  0  0
 20 21  2  0  0  0  0
 21 22  1  0  0  0  0
 21 43  1  0  0  0  0
 22 23  2  0  0  0  0
 22 44  1  0  0  0  0
 23 24  1  0  0  0  0
 23 45  1  0  0  0  0
 24 25  2  0  0  0  0
 24 46  1  0  0  0  0
 25 47  1  0  0  0  0
 26 27  1  0  0  0  0
 26 28  1  0  0  0  0
 26 48  1  0  0  0  0
 28 29  1  0  0  0  0
 28 49  1  0  0  0  0
 29 50  1  0  0  0  0
 30 35  1  0  0  0  0
 30 31  2  0  0  0  0
 31 32  1  0  0  0  0
 31 51  1  0  0  0  0
 32 33  2  0  0  0  0
 32 52  1  0  0  0  0
 33 34  1  0  0  0  0
 33 53  1  0  0  0  0
 34 35  2  0  0  0  0
 34 54  1  0  0  0  0
 35 55  1  0  0  0  0
M  END
> <s_m_source_file>
AV-unprocessed.smi

> <i_m_source_file_index>
34

> <i_lp_mmshare_version>
43012

> <i_f3d_flags>
0

> <s_epik_input>
W2NIXTFbY0hdW2NIXVtjSF1bY0hdYzFDKD1PKVtOSF1jKG5bY0hdbjIpYyhjMjMpbltjSF1uM1tDQEBIXTRPW0NASF0oW0NAQEhdKEYpW0NASF00W09IXSlbQ0gyXU9DKD1PKWM1W2NIXVtjSF1bY0hdW2NIXVtjSF01

> <s_epik_cmdline>
J2VwaWtfcHl0aG9uJywgJy1waCcsICc3LjAnLCAnLXRuJywgJzgnLCAnLW1hJywgJzIwMCcsICctbWV0YWxfYmluZGluZycsICctaW1hZScsICc8aW5maWxlLm1hZT4nLCAnLW9tYWUnLCAnPG91dGZpbGUubWFlPic=

> <r_lp_tautomer_probability>
1

> <r_epik_Ionization_Penalty>
0.00257489

> <r_epik_Ionization_Penalty_Charging>
0

> <r_epik_Ionization_Penalty_Neutral>
0.00257489

> <r_epik_State_Penalty>
0.00519398

> <r_epik_Charging_Adjusted_Penalty>
0.00519398

> <i_epik_Tot_Q>
0

> <i_epik_Tot_abs_Q>
0

> <r_epik_Metal_State_Penalty>
0.335891

> <b_epik_Metal_Only>
0

> <s_epik_Chemistry_Notes>
This compound has an ester and may undergo hydrolysis at high or low pH. This compound contains an acetal/aminal-like group ( X-CH(R)-Y where X, Y are N, S, or O) that may be acid/base labile, releasing an aldehyde.

> <s_lp_Force_Field>
OPLS_2005

> <r_lp_Energy>
45.7986

> <b_lp_Chiralities_Consistent>
1

> <s_lp_Variant>
AV-unprocessed.smi:34-7

> <Gold.Version>
5.8.1

> <Gold.Id.Protein>
6NUR|6NUR_protein|mol2

> <Gold.PLP.Fitness>
53.1179

> <Gold.PLP.PLP>
-52.4082

> <Gold.PLP.part.hbond>
0.0000

> <Gold.PLP.part.metal>
0.0000

> <Gold.PLP.part.buried>
-4.5813

> <Gold.PLP.part.nonpolar>
-48.9193

> <Gold.PLP.part.repulsive>
1.9963

> <Gold.PLP.ligand.clash>
0.5550

> <Gold.PLP.ligand.torsion>
1.1252

> <Gold.PLP.Chemscore.Hbond>
0.0000

> <Gold.PLP.Chemscore.CHOScore>
1.0000

> <Gold.PLP.Chemscore.Metal>
0.0000

> <Gold.Chemscore.Hbonds>
donor molecule, donor type, donor heavy atom, donor atom, acceptor molecule, acceptor atom, score
      L1  C    11    38       P1  7957  1.00

> <Gold.PLP.Chemscore.Internal.Correction>
0.5151

> <Gold.Rescore>
     Score         DG    S(hbond)    S(metal)    S(lipo)     H(rot)  DE(clash)    DE(int)     intcor
     10.32     -14.95       0.02        0.00     140.03       2.72       2.18       2.46       ----

> <Gold.Chemscore.Fitness>
10.3157

> <Gold.Chemscore.DG>
-14.9534

> <Gold.Chemscore.ZeroCoef>
-5.4800

> <Gold.Chemscore.Hbond>
0.0171

> <Gold.Chemscore.Metal>
0.0000

> <Gold.Chemscore.Lipo>
140.0277

> <Gold.Chemscore.Internal_Hbond>
0.0000

> <Gold.Chemscore.DEClash>
2.1810

> <Gold.Chemscore.DEInternal>
2.4568

> <Gold.Chemscore.Rot>
2.7215

> <Gold.Chemscore.Internal.Correction>
   9.000000E+99

> <Gold.Chemscore.Hbond.Weighted>
-0.0572

> <Gold.Chemscore.Metal.Weighted>
-0.0000

> <Gold.Chemscore.Lipo.Weighted>
-16.3832

> <Gold.Chemscore.Internal_Hbond.Weighted>
0.0000

> <Gold.Chemscore.DEClash.Weighted>
2.1810

> <Gold.Chemscore.DEInternal.Weighted>
2.4568

> <Gold.Chemscore.Rot.Weighted>
6.9670

> <Gold.Chemscore.Internal.Correction.Weighted>
   9.000000E+99

> <Gold.Protein.RotatedTorsions>
[ 6907 6896 6895 6894 ] final  146.92 input  -60.11 | X-H torsion
[ 7974 7965 7964 7962 ] final  142.53 input  175.53 | X-H torsion
[ 8008 7997 7996 7995 ] final  -37.31 input   59.86 | X-H torsion
[ 10167 10162 10161 10158 ] final  -99.95 input  -65.29 | X-H torsion
[ 10718 10713 10712 10709 ] final -153.62 input   66.30 | X-H torsion
[ 10763 10752 10751 10750 ] final  128.56 input  -60.55 | X-H torsion
[ 11005 11000 10999 10996 ] final -112.39 input  -57.11 | X-H torsion

> <Gold.Protein.ActiveResidues>
 VAL166  LYS551  ARG553  GLY616  TRP617  ASP618  TYR619  PRO620  LYS621  CYS622 
 ASP623  PHE694  ASN695  SER759  ASP760  ASP761  ALA762  ILE779  LEU786  VAL792 
 PHE793  MET794  SER795  GLU796  ALA797  LYS798  CYS799  TRP800  GLU811  SER814 

> <Gold.Protein.RotatedAtoms>
  152.1615  133.4585  159.4863 H   0  0  0  0  0  0  0  0  0  0  0  0  # atno 6907 bound_to 6896
  150.6907  134.2065  159.4352 H   0  0  0  0  0  0  0  0  0  0  0  0  # atno 6908 bound_to 6896
  151.9968  134.9949  160.0614 H   0  0  0  0  0  0  0  0  0  0  0  0  # atno 6909 bound_to 6896
  144.9000  139.5437  143.5758 H   0  0  0  0  0  0  0  0  0  0  0  0  # atno 7974 bound_to 7965
  154.4056  140.1607  156.2516 H   0  0  0  0  0  0  0  0  0  0  0  0  # atno 8008 bound_to 7997
  155.9114  140.3427  155.6079 H   0  0  0  0  0  0  0  0  0  0  0  0  # atno 8009 bound_to 7997
  155.7332  140.0783  157.2270 H   0  0  0  0  0  0  0  0  0  0  0  0  # atno 8010 bound_to 7997
  140.2571  143.3433  152.0661 H   0  0  0  0  0  0  0  0  0  0  0  0  # atno 10167 bound_to 10162
  156.4883  130.8335  151.2559 H   0  0  0  0  0  0  0  0  0  0  0  0  # atno 10718 bound_to 10713
  153.7276  135.3243  155.3279 H   0  0  0  0  0  0  0  0  0  0  0  0  # atno 10763 bound_to 10752
  154.8336  135.4514  154.1155 H   0  0  0  0  0  0  0  0  0  0  0  0  # atno 10764 bound_to 10752
  153.2293  135.6958  153.7989 H   0  0  0  0  0  0  0  0  0  0  0  0  # atno 10765 bound_to 10752
  141.0678  133.9430  157.2545 H   0  0  0  0  0  0  0  0  0  0  0  0  # atno 11005 bound_to 11000
  146.3103  139.7722  142.9025 LP  0  0  0  0  0  0  0  0  0  0  0  0  # atno 17320 bound_to 7965
  145.3633  141.0330  143.3272 LP  0  0  0  0  0  0  0  0  0  0  0  0  # atno 17321 bound_to 7965
  139.5028  144.6742  151.6168 LP  0  0  0  0  0  0  0  0  0  0  0  0  # atno 17342 bound_to 10162
  140.5995  143.9635  150.6377 LP  0  0  0  0  0  0  0  0  0  0  0  0  # atno 17343 bound_to 10162
  157.7476  131.0022  150.2991 LP  0  0  0  0  0  0  0  0  0  0  0  0  # atno 17370 bound_to 10713
  156.3452  130.3822  149.7375 LP  0  0  0  0  0  0  0  0  0  0  0  0  # atno 17371 bound_to 10713
  139.9493  135.0178  156.8946 LP  0  0  0  0  0  0  0  0  0  0  0  0  # atno 17394 bound_to 11000
  140.5737  134.0418  155.7439 LP  0  0  0  0  0  0  0  0  0  0  0  0  # atno 17395 bound_to 11000

$$$$
