AV-unprocessed.smi:674|AV-procd|sdf|3299|dock9
  -GOLD-   22720 0263D 1   1.00000     0.00000
 Structure written by MMmdl.
 47 48  0  0  0  0  0  0  0  0  1 V2000
  143.5297  132.7426  148.2784 C   0  0  0  0  0  0  0  0  0  0  0  0
  143.5633  132.3351  149.7559 C   0  0  0  0  0  0  0  0  0  0  0  0
  144.6067  133.0958  150.5248 C   0  0  0  0  0  0  0  0  0  0  0  0
  144.7118  134.5067  150.6965 C   0  0  0  0  0  0  0  0  0  0  0  0
  145.8413  134.6355  151.4580 C   0  0  0  0  0  0  0  0  0  0  0  0
  146.4359  135.7700  151.9147 N   0  0  0  0  0  0  0  0  0  0  0  0
  145.8808  136.8063  152.5668 C   0  0  0  0  0  0  0  0  0  0  0  0
  144.7029  136.8831  152.9169 O   0  0  0  0  0  0  0  0  0  0  0  0
  146.7835  137.7674  152.8048 N   0  0  0  0  0  0  0  0  0  0  0  0
  146.4875  139.0184  153.4948 C   0  0  2  0  0  0  0  0  0  0  0  0
  147.1083  140.2346  152.8099 C   0  0  0  0  0  0  0  0  0  0  0  0
  147.3722  140.7972  154.2203 C   0  0  1  0  0  0  0  0  0  0  0  0
  148.6071  141.6737  154.4634 C   0  0  0  0  0  0  0  0  0  0  0  0
  146.1933  141.4389  154.7263 O   0  0  0  0  0  0  0  0  0  0  0  0
  145.8877  142.7340  154.2236 C   0  0  0  0  0  0  0  0  0  0  0  0
  147.3839  139.3163  154.7238 C   0  0  0  0  0  0  0  0  0  0  0  0
  146.7518  139.0528  156.0948 C   0  0  0  0  0  0  0  0  0  0  0  0
  148.7606  138.6258  154.7592 C   0  0  0  0  0  0  0  0  0  0  0  0
  146.3520  133.3805  151.7113 N   0  0  0  0  0  0  0  0  0  0  0  0
  147.5305  132.9832  152.4571 C   0  0  0  0  0  0  0  0  0  0  0  0
  145.5845  132.4326  151.1326 N   0  0  0  0  0  0  0  0  0  0  0  0
  142.7654  132.1837  147.7383 H   0  0  0  0  0  0  0  0  0  0  0  0
  144.4873  132.5497  147.7938 H   0  0  0  0  0  0  0  0  0  0  0  0
  143.3065  133.8042  148.1689 H   0  0  0  0  0  0  0  0  0  0  0  0
  142.5812  132.5039  150.1984 H   0  0  0  0  0  0  0  0  0  0  0  0
  143.7486  131.2632  149.8327 H   0  0  0  0  0  0  0  0  0  0  0  0
  144.0613  135.2763  150.3092 H   0  0  0  0  0  0  0  0  0  0  0  0
  147.4239  135.8441  151.7228 H   0  0  0  0  0  0  0  0  0  0  0  0
  147.7321  137.6290  152.4889 H   0  0  0  0  0  0  0  0  0  0  0  0
  145.4245  139.1714  153.6966 H   0  0  0  0  0  0  0  0  0  0  0  0
  148.0268  140.0097  152.2646 H   0  0  0  0  0  0  0  0  0  0  0  0
  146.4141  140.7990  152.1881 H   0  0  0  0  0  0  0  0  0  0  0  0
  149.5282  141.1632  154.1845 H   0  0  0  0  0  0  0  0  0  0  0  0
  148.6931  141.9529  155.5136 H   0  0  0  0  0  0  0  0  0  0  0  0
  148.5797  142.5898  153.8742 H   0  0  0  0  0  0  0  0  0  0  0  0
  144.8947  143.0225  154.5679 H   0  0  0  0  0  0  0  0  0  0  0  0
  145.8816  142.7684  153.1347 H   0  0  0  0  0  0  0  0  0  0  0  0
  146.5867  143.4836  154.5941 H   0  0  0  0  0  0  0  0  0  0  0  0
  147.2973  139.5633  156.8890 H   0  0  0  0  0  0  0  0  0  0  0  0
  146.7392  137.9887  156.3332 H   0  0  0  0  0  0  0  0  0  0  0  0
  145.7174  139.3941  156.1403 H   0  0  0  0  0  0  0  0  0  0  0  0
  149.3904  139.0319  155.5512 H   0  0  0  0  0  0  0  0  0  0  0  0
  149.3062  138.7440  153.8231 H   0  0  0  0  0  0  0  0  0  0  0  0
  148.6688  137.5542  154.9400 H   0  0  0  0  0  0  0  0  0  0  0  0
  147.8880  133.8060  153.0763 H   0  0  0  0  0  0  0  0  0  0  0  0
  148.3197  132.6906  151.7638 H   0  0  0  0  0  0  0  0  0  0  0  0
  147.2928  132.1378  153.1040 H   0  0  0  0  0  0  0  0  0  0  0  0
  1  2  1  0  0  0  0
  1 22  1  0  0  0  0
  1 23  1  0  0  0  0
  1 24  1  0  0  0  0
  2  3  1  0  0  0  0
  2 25  1  0  0  0  0
  2 26  1  0  0  0  0
  3 21  2  0  0  0  0
  3  4  1  0  0  0  0
  4  5  2  0  0  0  0
  4 27  1  0  0  0  0
  5  6  1  0  0  0  0
  5 19  1  0  0  0  0
  6  7  1  0  0  0  0
  6 28  1  0  0  0  0
  7  8  2  0  0  0  0
  7  9  1  0  0  0  0
  9 10  1  0  0  0  0
  9 29  1  0  0  0  0
 10 16  1  0  0  0  0
 10 11  1  0  0  0  0
 10 30  1  0  0  0  0
 11 12  1  0  0  0  0
 11 31  1  0  0  0  0
 11 32  1  0  0  0  0
 12 13  1  0  0  0  0
 12 14  1  0  0  0  0
 12 16  1  0  0  0  0
 13 33  1  0  0  0  0
 13 34  1  0  0  0  0
 13 35  1  0  0  0  0
 14 15  1  0  0  0  0
 15 36  1  0  0  0  0
 15 37  1  0  0  0  0
 15 38  1  0  0  0  0
 16 17  1  0  0  0  0
 16 18  1  0  0  0  0
 17 39  1  0  0  0  0
 17 40  1  0  0  0  0
 17 41  1  0  0  0  0
 18 42  1  0  0  0  0
 18 43  1  0  0  0  0
 18 44  1  0  0  0  0
 19 20  1  0  0  0  0
 19 21  1  0  0  0  0
 20 45  1  0  0  0  0
 20 46  1  0  0  0  0
 20 47  1  0  0  0  0
M  END
> <s_m_source_file>
AV-unprocessed.smi

> <i_m_source_file_index>
674

> <i_lp_mmshare_version>
43012

> <i_f3d_flags>
0

> <s_epik_input>
W0NIM11bQ0gyXWMxW2NIXWMobihuMSlbQ0gzXSlbTkhdQyg9TylbTkhdW0NAQEhdKEMyKFtDSDNdKVtDSDNdKVtDSDJdW0NAQF0yKFtDSDNdKU9bQ0gzXQ==

> <s_epik_cmdline>
J2VwaWtfcHl0aG9uJywgJy1waCcsICc3LjAnLCAnLXRuJywgJzgnLCAnLW1hJywgJzIwMCcsICctbWV0YWxfYmluZGluZycsICctaW1hZScsICc8aW5maWxlLm1hZT4nLCAnLW9tYWUnLCAnPG91dGZpbGUubWFlPic=

> <r_lp_tautomer_probability>
1

> <r_epik_Ionization_Penalty>
0.000101626

> <r_epik_Ionization_Penalty_Charging>
0

> <r_epik_Ionization_Penalty_Neutral>
0.000101626

> <r_epik_State_Penalty>
-0

> <r_epik_Charging_Adjusted_Penalty>
0

> <i_epik_Tot_Q>
0

> <i_epik_Tot_abs_Q>
0

> <r_epik_Metal_State_Penalty>
-0

> <b_epik_Metal_Only>
0

> <s_lp_Force_Field>
OPLS_2005

> <r_lp_Energy>
22.7412

> <b_lp_Chiralities_Consistent>
1

> <s_lp_Variant>
AV-unprocessed.smi:674-1

> <Gold.Version>
5.8.1

> <Gold.Id.Protein>
6NUR|6NUR_protein|mol2

> <Gold.PLP.Fitness>
41.2309

> <Gold.PLP.PLP>
-36.6268

> <Gold.PLP.part.hbond>
-1.9236

> <Gold.PLP.part.metal>
0.0000

> <Gold.PLP.part.buried>
-3.3853

> <Gold.PLP.part.nonpolar>
-33.4624

> <Gold.PLP.part.repulsive>
0.5334

> <Gold.PLP.ligand.clash>
0.0000

> <Gold.PLP.ligand.torsion>
0.6455

> <Gold.PLP.Chemscore.Hbond>
1.8393

> <Gold.PLP.Chemscore.CHOScore>
0.0000

> <Gold.PLP.Chemscore.Metal>
0.0000

> <Gold.Chemscore.Hbonds>
donor molecule, donor type, donor heavy atom, donor atom, acceptor molecule, acceptor atom, score
      L1  H     6    28       P1  7948  1.00
      L1  H     9    29       P1  7948  0.85

> <Gold.PLP.Chemscore.Internal.Correction>
0.3774

> <Gold.Rescore>
     Score         DG    S(hbond)    S(metal)    S(lipo)     H(rot)  DE(clash)    DE(int)     intcor
     17.53     -18.41       1.88        0.00      86.65       1.37       0.32       0.55       ----

> <Gold.Chemscore.Fitness>
17.5344

> <Gold.Chemscore.DG>
-18.4092

> <Gold.Chemscore.ZeroCoef>
-5.4800

> <Gold.Chemscore.Hbond>
1.8824

> <Gold.Chemscore.Metal>
0.0000

> <Gold.Chemscore.Lipo>
86.6514

> <Gold.Chemscore.Internal_Hbond>
0.0000

> <Gold.Chemscore.DEClash>
0.3220

> <Gold.Chemscore.DEInternal>
0.5528

> <Gold.Chemscore.Rot>
1.3658

> <Gold.Chemscore.Internal.Correction>
   9.000000E+99

> <Gold.Chemscore.Hbonds>
donor molecule, donor type, donor heavy atom, donor atom, acceptor molecule, acceptor atom, score
      L1  H     6    28       P1  7948  0.95
      L1  H     9    29       P1  7948  0.82

> <Gold.Chemscore.Hbond.Weighted>
-6.2874

> <Gold.Chemscore.Metal.Weighted>
-0.0000

> <Gold.Chemscore.Lipo.Weighted>
-10.1382

> <Gold.Chemscore.Internal_Hbond.Weighted>
0.0000

> <Gold.Chemscore.DEClash.Weighted>
0.3220

> <Gold.Chemscore.DEInternal.Weighted>
0.5528

> <Gold.Chemscore.Rot.Weighted>
3.4963

> <Gold.Chemscore.Internal.Correction.Weighted>
   9.000000E+99

> <Gold.Protein.RotatedTorsions>
[ 6907 6896 6895 6894 ] final  110.62 input  -60.11 | X-H torsion
[ 7974 7965 7964 7962 ] final  121.23 input  175.53 | X-H torsion
[ 8008 7997 7996 7995 ] final  -27.96 input   59.86 | X-H torsion
[ 10167 10162 10161 10158 ] final   29.33 input  -65.29 | X-H torsion
[ 10718 10713 10712 10709 ] final   32.73 input   66.30 | X-H torsion
[ 10763 10752 10751 10750 ] final  114.86 input  -60.55 | X-H torsion
[ 11005 11000 10999 10996 ] final   15.98 input  -57.11 | X-H torsion

> <Gold.Protein.ActiveResidues>
 VAL166  LYS551  ARG553  GLY616  TRP617  ASP618  TYR619  PRO620  LYS621  CYS622 
 ASP623  PHE694  ASN695  SER759  ASP760  ASP761  ALA762  ILE779  LEU786  VAL792 
 PHE793  MET794  SER795  GLU796  ALA797  LYS798  CYS799  TRP800  GLU811  SER814 

> <Gold.Protein.RotatedAtoms>
  152.5010  133.8774  159.7328 H   0  0  0  0  0  0  0  0  0  0  0  0  # atno 6907 bound_to 6896
  150.9245  133.6831  159.2831 H   0  0  0  0  0  0  0  0  0  0  0  0  # atno 6908 bound_to 6896
  151.4197  135.1000  159.9662 H   0  0  0  0  0  0  0  0  0  0  0  0  # atno 6909 bound_to 6896
  145.1218  139.3384  143.4710 H   0  0  0  0  0  0  0  0  0  0  0  0  # atno 7974 bound_to 7965
  154.4353  140.1858  156.1014 H   0  0  0  0  0  0  0  0  0  0  0  0  # atno 8008 bound_to 7997
  156.0289  140.3332  155.7093 H   0  0  0  0  0  0  0  0  0  0  0  0  # atno 8009 bound_to 7997
  155.5868  140.0627  157.2760 H   0  0  0  0  0  0  0  0  0  0  0  0  # atno 8010 bound_to 7997
  140.4775  144.0668  150.6255 H   0  0  0  0  0  0  0  0  0  0  0  0  # atno 10167 bound_to 10162
  157.2889  130.7292  149.6599 H   0  0  0  0  0  0  0  0  0  0  0  0  # atno 10718 bound_to 10713
  153.5136  135.3612  155.2598 H   0  0  0  0  0  0  0  0  0  0  0  0  # atno 10763 bound_to 10752
  154.8740  135.4028  154.3340 H   0  0  0  0  0  0  0  0  0  0  0  0  # atno 10764 bound_to 10752
  153.3998  135.7074  153.6501 H   0  0  0  0  0  0  0  0  0  0  0  0  # atno 10765 bound_to 10752
  140.4522  134.1212  155.7704 H   0  0  0  0  0  0  0  0  0  0  0  0  # atno 11005 bound_to 11000
  146.3520  140.1181  142.8601 LP  0  0  0  0  0  0  0  0  0  0  0  0  # atno 17320 bound_to 7965
  145.0732  140.9170  143.4870 LP  0  0  0  0  0  0  0  0  0  0  0  0  # atno 17321 bound_to 7965
  140.3900  143.2757  152.0071 LP  0  0  0  0  0  0  0  0  0  0  0  0  # atno 17342 bound_to 10162
  139.4828  144.6085  151.7477 LP  0  0  0  0  0  0  0  0  0  0  0  0  # atno 17343 bound_to 10162
  155.9666  130.4315  150.4922 LP  0  0  0  0  0  0  0  0  0  0  0  0  # atno 17370 bound_to 10713
  157.2881  131.0620  151.2152 LP  0  0  0  0  0  0  0  0  0  0  0  0  # atno 17371 bound_to 10713
  141.1659  133.8704  157.1716 LP  0  0  0  0  0  0  0  0  0  0  0  0  # atno 17394 bound_to 11000
  139.9999  135.0032  157.0167 LP  0  0  0  0  0  0  0  0  0  0  0  0  # atno 17395 bound_to 11000

$$$$
