AV-unprocessed.smi:79|AV-procd|sdf|782|dock2
  -GOLD-   2262017143D 1   1.00000     0.00000
 Structure written by MMmdl.
 56 59  0  0  0  0  0  0  0  0  2 V2000
  145.4191  132.3997  149.8319 C   0  0  0  0  0  0  0  0  0  0  0  0
  143.9152  132.6921  149.9072 C   0  0  1  0  0  0  0  0  0  0  0  0
  143.2181  131.4947  149.6290 O   0  0  0  0  0  0  0  0  0  0  0  0
  143.4943  133.2104  151.2963 C   0  0  0  0  0  0  0  0  0  0  0  0
  143.6696  134.6791  151.4352 N   0  3  2  0  0  0  0  0  0  0  0  0
  145.0952  135.1064  151.4368 C   0  0  0  0  0  0  0  0  0  0  0  0
  145.2207  136.6389  151.5276 C   0  0  0  0  0  0  0  0  0  0  0  0
  144.4956  137.1517  152.6854 N   0  0  0  0  0  0  0  0  0  0  0  0
  145.2419  137.1381  153.8201 C   0  0  0  0  0  0  0  0  0  0  0  0
  144.8655  136.3901  154.8905 N   0  0  0  0  0  0  0  0  0  0  0  0
  145.6215  136.3615  155.9921 C   0  0  0  0  0  0  0  0  0  0  0  0
  146.7763  136.9871  156.2272 N   0  0  0  0  0  0  0  0  0  0  0  0
  147.1637  137.7319  155.1524 C   0  0  0  0  0  0  0  0  0  0  0  0
  146.4627  137.8592  153.9210 C   0  0  0  0  0  0  0  0  0  0  0  0
  147.1614  138.6963  153.0605 N   0  0  0  0  0  0  0  0  0  0  0  0
  148.2165  139.0456  153.7452 C   0  0  0  0  0  0  0  0  0  0  0  0
  148.2945  138.5186  155.0153 N   0  0  0  0  0  0  0  0  0  0  0  0
  149.3549  138.7358  155.9878 C   0  0  0  0  0  0  0  0  0  0  0  0
  150.7739  138.6070  155.4031 C   0  0  0  0  0  0  0  0  0  0  0  0
  150.8605  137.2888  154.6072 C   0  0  0  0  0  0  0  0  0  0  0  0
  152.0858  137.1539  153.9148 O   0  0  0  0  0  0  0  0  0  0  0  0
  151.2971  139.8644  154.6940 C   0  0  0  0  0  0  0  0  0  0  0  0
  152.4995  139.8881  155.4943 O   0  0  0  0  0  0  0  0  0  0  0  0
  151.9330  138.8885  156.3699 C   0  0  0  0  0  0  0  0  0  0  0  0
  143.0809  136.7597  152.6998 C   0  0  2  0  0  0  0  0  0  0  0  0
  142.2659  137.3867  153.8474 C   0  0  0  0  0  0  0  0  0  0  0  0
  142.9141  135.2275  152.5926 C   0  0  0  0  0  0  0  0  0  0  0  0
  146.0020  133.3002  150.0277 H   0  0  0  0  0  0  0  0  0  0  0  0
  145.6999  132.0368  148.8425 H   0  0  0  0  0  0  0  0  0  0  0  0
  145.7177  131.6458  150.5613 H   0  0  0  0  0  0  0  0  0  0  0  0
  143.6699  133.4180  149.1327 H   0  0  0  0  0  0  0  0  0  0  0  0
  142.3032  131.6218  149.8310 H   0  0  0  0  0  0  0  0  0  0  0  0
  142.4487  132.9454  151.4622 H   0  0  0  0  0  0  0  0  0  0  0  0
  144.0609  132.7068  152.0814 H   0  0  0  0  0  0  0  0  0  0  0  0
  145.6119  134.6403  152.2773 H   0  0  0  0  0  0  0  0  0  0  0  0
  145.5974  134.7652  150.5326 H   0  0  0  0  0  0  0  0  0  0  0  0
  146.2724  136.9267  151.5613 H   0  0  0  0  0  0  0  0  0  0  0  0
  144.8081  137.0995  150.6294 H   0  0  0  0  0  0  0  0  0  0  0  0
  145.2495  135.7477  156.7993 H   0  0  0  0  0  0  0  0  0  0  0  0
  148.9713  139.7014  153.3372 H   0  0  0  0  0  0  0  0  0  0  0  0
  149.2160  139.7196  156.4377 H   0  0  0  0  0  0  0  0  0  0  0  0
  149.2090  138.0201  156.7978 H   0  0  0  0  0  0  0  0  0  0  0  0
  150.7670  136.4246  155.2649 H   0  0  0  0  0  0  0  0  0  0  0  0
  150.0517  137.2217  153.8791 H   0  0  0  0  0  0  0  0  0  0  0  0
  152.0946  137.7681  153.1965 H   0  0  0  0  0  0  0  0  0  0  0  0
  151.5018  139.7321  153.6310 H   0  0  0  0  0  0  0  0  0  0  0  0
  150.6865  140.7533  154.8593 H   0  0  0  0  0  0  0  0  0  0  0  0
  151.6255  139.3220  157.3220 H   0  0  0  0  0  0  0  0  0  0  0  0
  152.6005  138.0409  156.5281 H   0  0  0  0  0  0  0  0  0  0  0  0
  142.6656  137.1822  151.7837 H   0  0  0  0  0  0  0  0  0  0  0  0
  141.2009  137.1994  153.7083 H   0  0  0  0  0  0  0  0  0  0  0  0
  142.4049  138.4677  153.8809 H   0  0  0  0  0  0  0  0  0  0  0  0
  142.5357  136.9838  154.8229 H   0  0  0  0  0  0  0  0  0  0  0  0
  141.8561  134.9897  152.4738 H   0  0  0  0  0  0  0  0  0  0  0  0
  143.2418  134.7318  153.5065 H   0  0  0  0  0  0  0  0  0  0  0  0
  143.2479  135.0902  150.6143 H   0  0  0  0  0  0  0  0  0  0  0  0
  1  2  1  0  0  0  0
  1 28  1  0  0  0  0
  1 29  1  0  0  0  0
  1 30  1  0  0  0  0
  2  3  1  0  0  0  0
  2  4  1  0  0  0  0
  2 31  1  0  0  0  0
  3 32  1  0  0  0  0
  4  5  1  0  0  0  0
  4 33  1  0  0  0  0
  4 34  1  0  0  0  0
  5 27  1  0  0  0  0
  5  6  1  0  0  0  0
  5 56  1  0  0  0  0
  6  7  1  0  0  0  0
  6 35  1  0  0  0  0
  6 36  1  0  0  0  0
  7  8  1  0  0  0  0
  7 37  1  0  0  0  0
  7 38  1  0  0  0  0
  8  9  1  0  0  0  0
  8 25  1  0  0  0  0
  9 14  1  0  0  0  0
  9 10  2  0  0  0  0
 10 11  1  0  0  0  0
 11 12  2  0  0  0  0
 11 39  1  0  0  0  0
 12 13  1  0  0  0  0
 13 17  1  0  0  0  0
 13 14  2  0  0  0  0
 14 15  1  0  0  0  0
 15 16  2  0  0  0  0
 16 17  1  0  0  0  0
 16 40  1  0  0  0  0
 17 18  1  0  0  0  0
 18 19  1  0  0  0  0
 18 41  1  0  0  0  0
 18 42  1  0  0  0  0
 19 24  1  0  0  0  0
 19 20  1  0  0  0  0
 19 22  1  0  0  0  0
 20 21  1  0  0  0  0
 20 43  1  0  0  0  0
 20 44  1  0  0  0  0
 21 45  1  0  0  0  0
 22 23  1  0  0  0  0
 22 46  1  0  0  0  0
 22 47  1  0  0  0  0
 23 24  1  0  0  0  0
 24 48  1  0  0  0  0
 24 49  1  0  0  0  0
 25 26  1  0  0  0  0
 25 27  1  0  0  0  0
 25 50  1  0  0  0  0
 26 51  1  0  0  0  0
 26 52  1  0  0  0  0
 26 53  1  0  0  0  0
 27 54  1  0  0  0  0
 27 55  1  0  0  0  0
M  CHG  1   5   1
M  END
> <s_m_source_file>
AV-unprocessed.smi

> <i_m_source_file_index>
79

> <i_lp_mmshare_version>
43012

> <i_f3d_flags>
0

> <s_epik_input>
W0NIM11bQ0BIXShbT0hdKVtDSDJdTjFbQ0gyXVtDSDJdTihbQ0BASF0oW0NIM10pW0NIMl0xKWMobltjSF1uMiljKGMyMyluW2NIXW4zW0NIMl1DNChbQ0gyXVtPSF0pW0NIMl1PW0NIMl00

> <s_epik_cmdline>
J2VwaWtfcHl0aG9uJywgJy1waCcsICc3LjAnLCAnLXRuJywgJzgnLCAnLW1hJywgJzIwMCcsICctbWV0YWxfYmluZGluZycsICctaW1hZScsICc8aW5maWxlLm1hZT4nLCAnLW9tYWUnLCAnPG91dGZpbGUubWFlPic=

> <r_lp_tautomer_probability>
1

> <r_epik_Ionization_Penalty>
0.00515943

> <r_epik_Ionization_Penalty_Charging>
0.00509693

> <r_epik_Ionization_Penalty_Neutral>
6.25007e-05

> <r_epik_State_Penalty>
-0

> <r_epik_Charging_Adjusted_Penalty>
0.00509693

> <i_epik_Tot_Q>
1

> <i_epik_Tot_abs_Q>
1

> <r_epik_Metal_State_Penalty>
-0

> <b_epik_Metal_Only>
0

> <s_lp_Force_Field>
OPLS_2005

> <r_lp_Energy>
48.9332

> <b_lp_Chiralities_Consistent>
1

> <s_lp_Variant>
AV-unprocessed.smi:79-6

> <Gold.Version>
5.8.1

> <Gold.Id.Protein>
6NUR|6NUR_protein|mol2

> <Gold.PLP.Fitness>
48.3243

> <Gold.PLP.PLP>
-35.8897

> <Gold.PLP.part.hbond>
-5.9187

> <Gold.PLP.part.metal>
0.0000

> <Gold.PLP.part.buried>
-1.2438

> <Gold.PLP.part.nonpolar>
-29.2297

> <Gold.PLP.part.repulsive>
0.4503

> <Gold.PLP.ligand.clash>
0.0000

> <Gold.PLP.ligand.torsion>
1.0496

> <Gold.PLP.Chemscore.Hbond>
3.5920

> <Gold.PLP.Chemscore.CHOScore>
0.9885

> <Gold.PLP.Chemscore.Metal>
0.0000

> <Gold.Chemscore.Hbonds>
donor molecule, donor type, donor heavy atom, donor atom, acceptor molecule, acceptor atom, score
      L1  H     3    32       P1 10952  0.58
      P1  H  7997  8009       L1    23  1.00
      P1  H 10752 10765       L1    21  1.00
      P1  H 10785 10796       L1     3  1.00
      L1  C    16    40       P1  7957  0.99

> <Gold.PLP.Chemscore.Internal.Correction>
0.7926

> <Gold.Rescore>
     Score         DG    S(hbond)    S(metal)    S(lipo)     H(rot)  DE(clash)    DE(int)     intcor
     12.90     -16.04       3.14        0.00      81.98       3.72       0.49       2.64       ----

> <Gold.Chemscore.Fitness>
12.9028

> <Gold.Chemscore.DG>
-16.0408

> <Gold.Chemscore.ZeroCoef>
-5.4800

> <Gold.Chemscore.Hbond>
3.1436

> <Gold.Chemscore.Metal>
0.0000

> <Gold.Chemscore.Lipo>
81.9751

> <Gold.Chemscore.Internal_Hbond>
0.0000

> <Gold.Chemscore.DEClash>
0.4944

> <Gold.Chemscore.DEInternal>
2.6436

> <Gold.Chemscore.Rot>
3.7226

> <Gold.Chemscore.Internal.Correction>
   9.000000E+99

> <Gold.Chemscore.Hbonds>
donor molecule, donor type, donor heavy atom, donor atom, acceptor molecule, acceptor atom, score
      L1  H     3    32       P1 10952  0.54
      P1  H  7997  8009       L1    23  0.64
      P1  H 10752 10765       L1    21  0.93
      P1  H 10785 10796       L1     3  0.39

> <Gold.Chemscore.Hbond.Weighted>
-10.4995

> <Gold.Chemscore.Metal.Weighted>
-0.0000

> <Gold.Chemscore.Lipo.Weighted>
-9.5911

> <Gold.Chemscore.Internal_Hbond.Weighted>
0.0000

> <Gold.Chemscore.DEClash.Weighted>
0.4944

> <Gold.Chemscore.DEInternal.Weighted>
2.6436

> <Gold.Chemscore.Rot.Weighted>
9.5298

> <Gold.Chemscore.Internal.Correction.Weighted>
   9.000000E+99

> <Gold.Protein.RotatedTorsions>
[ 6907 6896 6895 6894 ] final   28.79 input  -60.11 | X-H torsion
[ 7974 7965 7964 7962 ] final  140.03 input  175.53 | X-H torsion
[ 8008 7997 7996 7995 ] final -145.78 input   59.86 | X-H torsion
[ 10167 10162 10161 10158 ] final -102.55 input  -65.29 | X-H torsion
[ 10718 10713 10712 10709 ] final -168.73 input   66.30 | X-H torsion
[ 10763 10752 10751 10750 ] final  150.36 input  -60.55 | X-H torsion
[ 11005 11000 10999 10996 ] final  -90.75 input  -57.11 | X-H torsion

> <Gold.Protein.ActiveResidues>
 VAL166  LYS551  ARG553  GLY616  TRP617  ASP618  TYR619  PRO620  LYS621  CYS622 
 ASP623  PHE694  ASN695  SER759  ASP760  ASP761  ALA762  ILE779  LEU786  VAL792 
 PHE793  MET794  SER795  GLU796  ALA797  LYS798  CYS799  TRP800  GLU811  SER814 

> <Gold.Protein.RotatedAtoms>
  152.0221  134.9816  160.0570 H   0  0  0  0  0  0  0  0  0  0  0  0  # atno 6907 bound_to 6896
  152.1326  133.4412  159.4736 H   0  0  0  0  0  0  0  0  0  0  0  0  # atno 6908 bound_to 6896
  150.6857  134.2320  159.4481 H   0  0  0  0  0  0  0  0  0  0  0  0  # atno 6909 bound_to 6896
  144.9224  139.5150  143.5657 H   0  0  0  0  0  0  0  0  0  0  0  0  # atno 7974 bound_to 7965
  155.5488  140.0614  157.2854 H   0  0  0  0  0  0  0  0  0  0  0  0  # atno 8008 bound_to 7997
  154.4427  140.1906  156.0709 H   0  0  0  0  0  0  0  0  0  0  0  0  # atno 8009 bound_to 7997
  156.0531  140.3282  155.7378 H   0  0  0  0  0  0  0  0  0  0  0  0  # atno 8010 bound_to 7997
  140.2295  143.3617  152.0899 H   0  0  0  0  0  0  0  0  0  0  0  0  # atno 10167 bound_to 10162
  156.7012  130.9197  151.3080 H   0  0  0  0  0  0  0  0  0  0  0  0  # atno 10718 bound_to 10713
  154.0862  135.2856  155.3280 H   0  0  0  0  0  0  0  0  0  0  0  0  # atno 10763 bound_to 10752
  154.6650  135.5320  153.8069 H   0  0  0  0  0  0  0  0  0  0  0  0  # atno 10764 bound_to 10752
  153.0430  135.6543  154.1034 H   0  0  0  0  0  0  0  0  0  0  0  0  # atno 10765 bound_to 10752
  141.1559  133.7712  156.9782 H   0  0  0  0  0  0  0  0  0  0  0  0  # atno 11005 bound_to 11000
  146.3211  139.8114  142.8945 LP  0  0  0  0  0  0  0  0  0  0  0  0  # atno 17320 bound_to 7965
  145.3274  141.0258  143.3466 LP  0  0  0  0  0  0  0  0  0  0  0  0  # atno 17321 bound_to 7965
  139.5115  144.6902  151.5781 LP  0  0  0  0  0  0  0  0  0  0  0  0  # atno 17342 bound_to 10162
  140.6196  143.9284  150.6515 LP  0  0  0  0  0  0  0  0  0  0  0  0  # atno 17343 bound_to 10162
  157.6972  130.9295  150.0680 LP  0  0  0  0  0  0  0  0  0  0  0  0  # atno 17370 bound_to 10713
  156.1728  130.3647  149.9142 LP  0  0  0  0  0  0  0  0  0  0  0  0  # atno 17371 bound_to 10713
  140.1083  134.9492  157.2028 LP  0  0  0  0  0  0  0  0  0  0  0  0  # atno 17394 bound_to 11000
  140.3227  134.2899  155.7243 LP  0  0  0  0  0  0  0  0  0  0  0  0  # atno 17395 bound_to 11000

$$$$
