AV-unprocessed.smi:3287|AV-procd|sdf|12597|dock10
  -GOLD-   2272018523D 1   1.00000     0.00000
 Structure written by MMmdl.
 43 44  0  0  0  0  0  0  0  0  2 V2000
  152.7073  143.7862  162.0319 C   0  0  0  0  0  0  0  0  0  0  0  0
  151.8425  143.4628  160.8025 C   0  0  1  0  0  0  0  0  0  0  0  0
  151.7473  144.6603  159.8374 C   0  0  0  0  0  0  0  0  0  0  0  0
  150.8121  144.3615  158.6546 C   0  0  0  0  0  0  0  0  0  0  0  0
  151.2360  143.0845  157.8991 C   0  0  2  0  0  0  0  0  0  0  0  0
  150.2927  142.7515  156.8081 N   0  3  0  0  0  0  0  0  0  0  0  0
  150.7241  141.6690  155.8967 C   0  0  0  0  0  0  0  0  0  0  0  0
  149.7328  141.4841  154.7346 C   0  0  1  0  0  0  0  0  0  0  0  0
  150.2753  140.5605  153.8102 O   0  0  0  0  0  0  0  0  0  0  0  0
  148.3683  141.0436  155.2423 C   0  0  0  0  0  0  0  0  0  0  0  0
  148.1817  140.6310  156.5800 C   0  0  0  0  0  0  0  0  0  0  0  0
  146.8919  140.2392  156.9912 C   0  0  0  0  0  0  0  0  0  0  0  0
  145.8200  140.2420  156.1705 N   0  0  0  0  0  0  0  0  0  0  0  0
  146.0029  140.6407  154.8939 C   0  0  0  0  0  0  0  0  0  0  0  0
  147.2504  141.0505  154.3821 C   0  0  0  0  0  0  0  0  0  0  0  0
  151.3359  141.8950  158.8757 C   0  0  0  0  0  0  0  0  0  0  0  0
  152.2798  142.1717  160.0650 C   0  0  1  0  0  0  0  0  0  0  0  0
  153.7603  142.1584  159.6335 C   0  0  0  0  0  0  0  0  0  0  0  0
  153.7220  144.0687  161.7508 H   0  0  0  0  0  0  0  0  0  0  0  0
  152.7703  142.9311  162.7053 H   0  0  0  0  0  0  0  0  0  0  0  0
  152.2839  144.6170  162.5973 H   0  0  0  0  0  0  0  0  0  0  0  0
  150.8350  143.2817  161.1811 H   0  0  0  0  0  0  0  0  0  0  0  0
  151.3817  145.5379  160.3716 H   0  0  0  0  0  0  0  0  0  0  0  0
  152.7380  144.9239  159.4662 H   0  0  0  0  0  0  0  0  0  0  0  0
  149.7899  144.2519  159.0205 H   0  0  0  0  0  0  0  0  0  0  0  0
  150.8105  145.2225  157.9863 H   0  0  0  0  0  0  0  0  0  0  0  0
  152.2169  143.2451  157.4500 H   0  0  0  0  0  0  0  0  0  0  0  0
  149.4254  142.4586  157.2349 H   0  0  0  0  0  0  0  0  0  0  0  0
  151.7195  141.8818  155.5060 H   0  0  0  0  0  0  0  0  0  0  0  0
  150.7940  140.7401  156.4645 H   0  0  0  0  0  0  0  0  0  0  0  0
  149.6127  142.4331  154.2099 H   0  0  0  0  0  0  0  0  0  0  0  0
  149.8270  140.6654  152.9841 H   0  0  0  0  0  0  0  0  0  0  0  0
  149.0042  140.6130  157.2798 H   0  0  0  0  0  0  0  0  0  0  0  0
  146.7168  139.9168  158.0070 H   0  0  0  0  0  0  0  0  0  0  0  0
  145.1282  140.6344  154.2603 H   0  0  0  0  0  0  0  0  0  0  0  0
  147.3408  141.3622  153.3518 H   0  0  0  0  0  0  0  0  0  0  0  0
  150.3418  141.6657  159.2631 H   0  0  0  0  0  0  0  0  0  0  0  0
  151.6626  141.0000  158.3447 H   0  0  0  0  0  0  0  0  0  0  0  0
  152.1595  141.3421  160.7632 H   0  0  0  0  0  0  0  0  0  0  0  0
  154.0086  142.9954  158.9815 H   0  0  0  0  0  0  0  0  0  0  0  0
  153.9995  141.2410  159.0950 H   0  0  0  0  0  0  0  0  0  0  0  0
  154.4269  142.2014  160.4947 H   0  0  0  0  0  0  0  0  0  0  0  0
  150.1129  143.5827  156.2627 H   0  0  0  0  0  0  0  0  0  0  0  0
  1  2  1  0  0  0  0
  1 19  1  0  0  0  0
  1 20  1  0  0  0  0
  1 21  1  0  0  0  0
  2 17  1  0  0  0  0
  2  3  1  0  0  0  0
  2 22  1  0  0  0  0
  3  4  1  0  0  0  0
  3 23  1  0  0  0  0
  3 24  1  0  0  0  0
  4  5  1  0  0  0  0
  4 25  1  0  0  0  0
  4 26  1  0  0  0  0
  5  6  1  0  0  0  0
  5 16  1  0  0  0  0
  5 27  1  0  0  0  0
  6  7  1  0  0  0  0
  6 28  1  0  0  0  0
  6 43  1  0  0  0  0
  7  8  1  0  0  0  0
  7 29  1  0  0  0  0
  7 30  1  0  0  0  0
  8  9  1  0  0  0  0
  8 10  1  0  0  0  0
  8 31  1  0  0  0  0
  9 32  1  0  0  0  0
 10 15  1  0  0  0  0
 10 11  2  0  0  0  0
 11 12  1  0  0  0  0
 11 33  1  0  0  0  0
 12 13  2  0  0  0  0
 12 34  1  0  0  0  0
 13 14  1  0  0  0  0
 14 15  2  0  0  0  0
 14 35  1  0  0  0  0
 15 36  1  0  0  0  0
 16 17  1  0  0  0  0
 16 37  1  0  0  0  0
 16 38  1  0  0  0  0
 17 18  1  0  0  0  0
 17 39  1  0  0  0  0
 18 40  1  0  0  0  0
 18 41  1  0  0  0  0
 18 42  1  0  0  0  0
M  CHG  1   6   1
M  END
> <s_m_source_file>
AV-unprocessed.smi

> <i_m_source_file_index>
3287

> <i_lp_mmshare_version>
43012

> <i_f3d_flags>
0

> <s_epik_input>
W0NIM11bQ0BASF0xW0NIMl1bQ0gyXVtDQEhdKFtDSDJdW0NASF0xW0NIM10pW05IXVtDSDJdW0NASF0oW09IXSljMltjSF1bY0hdbltjSF1bY0hdMg==

> <s_epik_cmdline>
J2VwaWtfcHl0aG9uJywgJy1waCcsICc3LjAnLCAnLXRuJywgJzgnLCAnLW1hJywgJzIwMCcsICctbWV0YWxfYmluZGluZycsICctaW1hZScsICc8aW5maWxlLm1hZT4nLCAnLW9tYWUnLCAnPG91dGZpbGUubWFlPic=

> <r_lp_tautomer_probability>
1

> <r_epik_Ionization_Penalty>
0.00537262

> <r_epik_Ionization_Penalty_Charging>
0.00321624

> <r_epik_Ionization_Penalty_Neutral>
0.00215638

> <r_epik_State_Penalty>
-0

> <r_epik_Charging_Adjusted_Penalty>
0.00321624

> <i_epik_Tot_Q>
1

> <i_epik_Tot_abs_Q>
1

> <r_epik_Metal_State_Penalty>
-0

> <b_epik_Metal_Only>
0

> <s_lp_Force_Field>
OPLS_2005

> <r_lp_Energy>
18.2577

> <b_lp_Chiralities_Consistent>
1

> <s_lp_Variant>
AV-unprocessed.smi:3287-8

> <Gold.Version>
5.8.1

> <Gold.Id.Protein>
6NUR|6NUR_protein|mol2

> <Gold.PLP.Fitness>
51.1488

> <Gold.PLP.PLP>
-37.6950

> <Gold.PLP.part.hbond>
-2.8151

> <Gold.PLP.part.metal>
0.0000

> <Gold.PLP.part.buried>
-5.3791

> <Gold.PLP.part.nonpolar>
-28.5368

> <Gold.PLP.part.repulsive>
0.0589

> <Gold.PLP.ligand.clash>
0.0000

> <Gold.PLP.ligand.torsion>
0.2545

> <Gold.PLP.Chemscore.Hbond>
3.6480

> <Gold.PLP.Chemscore.CHOScore>
1.0000

> <Gold.PLP.Chemscore.Metal>
0.0000

> <Gold.Chemscore.Hbonds>
donor molecule, donor type, donor heavy atom, donor atom, acceptor molecule, acceptor atom, score
      L1  H     6    43       P1  8028  1.89
      L1  H     9    32       P1  7957  0.94
      P1  H  7989  7998       L1     9  0.46
      L1  C    14    35       P1 10175  1.00

> <Gold.PLP.Chemscore.Internal.Correction>
0.0187

> <Gold.Rescore>
     Score         DG    S(hbond)    S(metal)    S(lipo)     H(rot)  DE(clash)    DE(int)     intcor
     19.87     -21.02       2.18        0.00     112.25       1.90       0.67       0.48       ----

> <Gold.Chemscore.Fitness>
19.8652

> <Gold.Chemscore.DG>
-21.0189

> <Gold.Chemscore.ZeroCoef>
-5.4800

> <Gold.Chemscore.Hbond>
2.1793

> <Gold.Chemscore.Metal>
0.0000

> <Gold.Chemscore.Lipo>
112.2461

> <Gold.Chemscore.Internal_Hbond>
0.0000

> <Gold.Chemscore.DEClash>
0.6706

> <Gold.Chemscore.DEInternal>
0.4832

> <Gold.Chemscore.Rot>
1.9035

> <Gold.Chemscore.Internal.Correction>
   9.000000E+99

> <Gold.Chemscore.Hbonds>
donor molecule, donor type, donor heavy atom, donor atom, acceptor molecule, acceptor atom, score
      L1  H     6    43       P1  8028  0.91
      L1  H     9    32       P1  7957  0.90
      P1  H  7989  7998       L1     9  0.13

> <Gold.Chemscore.Hbond.Weighted>
-7.2790

> <Gold.Chemscore.Metal.Weighted>
-0.0000

> <Gold.Chemscore.Lipo.Weighted>
-13.1328

> <Gold.Chemscore.Internal_Hbond.Weighted>
0.0000

> <Gold.Chemscore.DEClash.Weighted>
0.6706

> <Gold.Chemscore.DEInternal.Weighted>
0.4832

> <Gold.Chemscore.Rot.Weighted>
4.8729

> <Gold.Chemscore.Internal.Correction.Weighted>
   9.000000E+99

> <Gold.Protein.RotatedTorsions>
[ 6907 6896 6895 6894 ] final  -55.19 input  -60.11 | X-H torsion
[ 7974 7965 7964 7962 ] final -129.41 input  175.53 | X-H torsion
[ 8008 7997 7996 7995 ] final -116.48 input   59.86 | X-H torsion
[ 10167 10162 10161 10158 ] final   65.15 input  -65.29 | X-H torsion
[ 10718 10713 10712 10709 ] final  -27.91 input   66.30 | X-H torsion
[ 10763 10752 10751 10750 ] final  -70.79 input  -60.55 | X-H torsion
[ 11005 11000 10999 10996 ] final -148.10 input  -57.11 | X-H torsion

> <Gold.Protein.ActiveResidues>
 VAL166  LYS551  ARG553  GLY616  TRP617  ASP618  TYR619  PRO620  LYS621  CYS622 
 ASP623  PHE694  ASN695  SER759  ASP760  ASP761  ALA762  ILE779  LEU786  VAL792 
 PHE793  MET794  SER795  GLU796  ALA797  LYS798  CYS799  TRP800  GLU811  SER814 

> <Gold.Protein.RotatedAtoms>
  150.8273  134.7509  159.6823 H   0  0  0  0  0  0  0  0  0  0  0  0  # atno 6907 bound_to 6896
  152.4382  134.5641  159.9912 H   0  0  0  0  0  0  0  0  0  0  0  0  # atno 6908 bound_to 6896
  151.5810  133.3340  159.3044 H   0  0  0  0  0  0  0  0  0  0  0  0  # atno 6909 bound_to 6896
  144.9575  140.7411  143.4749 H   0  0  0  0  0  0  0  0  0  0  0  0  # atno 7974 bound_to 7965
  155.0685  140.0393  157.2601 H   0  0  0  0  0  0  0  0  0  0  0  0  # atno 8008 bound_to 7997
  154.7001  140.2671  155.6703 H   0  0  0  0  0  0  0  0  0  0  0  0  # atno 8009 bound_to 7997
  156.2757  140.2742  156.1609 H   0  0  0  0  0  0  0  0  0  0  0  0  # atno 8010 bound_to 7997
  140.1144  144.4789  150.6958 H   0  0  0  0  0  0  0  0  0  0  0  0  # atno 10167 bound_to 10162
  156.4320  130.4447  149.7111 H   0  0  0  0  0  0  0  0  0  0  0  0  # atno 10718 bound_to 10713
  154.4226  135.5983  153.6019 H   0  0  0  0  0  0  0  0  0  0  0  0  # atno 10763 bound_to 10752
  152.9794  135.5956  154.3936 H   0  0  0  0  0  0  0  0  0  0  0  0  # atno 10764 bound_to 10752
  154.3764  135.2841  155.2215 H   0  0  0  0  0  0  0  0  0  0  0  0  # atno 10765 bound_to 10752
  140.7647  134.3257  157.5092 H   0  0  0  0  0  0  0  0  0  0  0  0  # atno 11005 bound_to 11000
  145.2750  139.1940  143.4821 LP  0  0  0  0  0  0  0  0  0  0  0  0  # atno 17320 bound_to 7965
  146.3342  140.2703  142.8605 LP  0  0  0  0  0  0  0  0  0  0  0  0  # atno 17321 bound_to 7965
  140.6908  143.2375  151.5137 LP  0  0  0  0  0  0  0  0  0  0  0  0  # atno 17342 bound_to 10162
  139.5602  144.2175  152.1679 LP  0  0  0  0  0  0  0  0  0  0  0  0  # atno 17343 bound_to 10162
  156.4010  130.7674  151.2682 LP  0  0  0  0  0  0  0  0  0  0  0  0  # atno 17370 bound_to 10713
  157.7508  131.0240  150.3857 LP  0  0  0  0  0  0  0  0  0  0  0  0  # atno 17371 bound_to 10713
  139.8765  134.9224  156.3299 LP  0  0  0  0  0  0  0  0  0  0  0  0  # atno 17394 bound_to 11000
  140.9630  133.7376  156.0427 LP  0  0  0  0  0  0  0  0  0  0  0  0  # atno 17395 bound_to 11000

$$$$
