AV-unprocessed.smi:65|AV-procd|sdf|612|dock4
  -GOLD-   2262016503D 1   1.00000     0.00000
 Structure written by MMmdl.
 26 27  0  0  0  0  0  0  0  0  2 V2000
  146.7467  137.8888  152.1823 N   0  0  0  0  0  0  0  0  0  0  0  0
  145.5657  137.1920  152.2762 C   0  0  0  0  0  0  0  0  0  0  0  0
  144.4380  137.8712  152.5321 N   0  3  0  0  0  0  0  0  0  0  0  0
  143.2625  137.2027  152.6282 C   0  0  0  0  0  0  0  0  0  0  0  0
  143.2234  135.8065  152.4579 C   0  0  0  0  0  0  0  0  0  0  0  0
  144.4435  135.1629  152.1875 C   0  0  0  0  0  0  0  0  0  0  0  0
  144.4730  133.7700  152.0205 N   0  0  0  0  0  0  0  0  0  0  0  0
  145.6868  133.2717  151.3778 C   0  0  0  0  0  0  0  0  0  0  0  0
  145.2396  132.5281  150.1178 C   0  0  0  0  0  0  0  0  0  0  0  0
  143.8502  132.0369  150.5040 C   0  0  2  0  0  0  0  0  0  0  0  0
  143.0386  131.7689  149.3808 O   0  0  0  0  0  0  0  0  0  0  0  0
  143.3123  133.1957  151.3428 C   0  0  0  0  0  0  0  0  0  0  0  0
  145.5974  135.8655  152.1075 N   0  0  0  0  0  0  0  0  0  0  0  0
  147.6115  137.4037  151.9905 H   0  0  0  0  0  0  0  0  0  0  0  0
  146.7576  138.8958  152.2576 H   0  0  0  0  0  0  0  0  0  0  0  0
  142.3921  137.8069  152.8389 H   0  0  0  0  0  0  0  0  0  0  0  0
  142.2965  135.2563  152.5323 H   0  0  0  0  0  0  0  0  0  0  0  0
  146.4031  134.0606  151.1426 H   0  0  0  0  0  0  0  0  0  0  0  0
  146.1752  132.5829  152.0679 H   0  0  0  0  0  0  0  0  0  0  0  0
  145.1755  133.2295  149.2841 H   0  0  0  0  0  0  0  0  0  0  0  0
  145.9179  131.7228  149.8341 H   0  0  0  0  0  0  0  0  0  0  0  0
  143.9326  131.1397  151.1196 H   0  0  0  0  0  0  0  0  0  0  0  0
  142.1417  131.6909  149.6691 H   0  0  0  0  0  0  0  0  0  0  0  0
  142.5721  132.8518  152.0654 H   0  0  0  0  0  0  0  0  0  0  0  0
  142.8253  133.9314  150.7011 H   0  0  0  0  0  0  0  0  0  0  0  0
  144.4517  138.8839  152.6567 H   0  0  0  0  0  0  0  0  0  0  0  0
  1  2  1  0  0  0  0
  1 14  1  0  0  0  0
  1 15  1  0  0  0  0
  2 13  1  0  0  0  0
  2  3  2  0  0  0  0
  3  4  1  0  0  0  0
  3 26  1  0  0  0  0
  4  5  2  0  0  0  0
  4 16  1  0  0  0  0
  5  6  1  0  0  0  0
  5 17  1  0  0  0  0
  6  7  1  0  0  0  0
  6 13  2  0  0  0  0
  7 12  1  0  0  0  0
  7  8  1  0  0  0  0
  8  9  1  0  0  0  0
  8 18  1  0  0  0  0
  8 19  1  0  0  0  0
  9 10  1  0  0  0  0
  9 20  1  0  0  0  0
  9 21  1  0  0  0  0
 10 11  1  0  0  0  0
 10 12  1  0  0  0  0
 10 22  1  0  0  0  0
 11 23  1  0  0  0  0
 12 24  1  0  0  0  0
 12 25  1  0  0  0  0
M  CHG  1   3   1
M  END
> <s_m_source_file>
AV-unprocessed.smi

> <i_m_source_file_index>
65

> <i_lp_mmshare_version>
43012

> <i_f3d_flags>
0

> <s_epik_input>
W05IMl1jMW5bY0hdW2NIXWMobjEpTjJbQ0gyXVtDSDJdW0NAQEhdKFtPSF0pW0NIMl0y

> <s_epik_cmdline>
J2VwaWtfcHl0aG9uJywgJy1waCcsICc3LjAnLCAnLXRuJywgJzgnLCAnLW1hJywgJzIwMCcsICctbWV0YWxfYmluZGluZycsICctaW1hZScsICc8aW5maWxlLm1hZT4nLCAnLW9tYWUnLCAnPG91dGZpbGUubWFlPic=

> <r_lp_tautomer_probability>
0.575011

> <r_epik_Ionization_Penalty>
0.212468

> <r_epik_Ionization_Penalty_Charging>
0.212464

> <r_epik_Ionization_Penalty_Neutral>
4.40197e-06

> <r_epik_State_Penalty>
0.43682

> <r_epik_Charging_Adjusted_Penalty>
0.649284

> <i_epik_Tot_Q>
1

> <i_epik_Tot_abs_Q>
1

> <r_epik_Metal_State_Penalty>
0.733762

> <b_epik_Metal_Only>
0

> <s_lp_Force_Field>
OPLS_2005

> <r_lp_Energy>
27.6482

> <b_lp_Chiralities_Consistent>
1

> <s_lp_Variant>
AV-unprocessed.smi:65-2

> <Gold.Version>
5.8.1

> <Gold.Id.Protein>
6NUR|6NUR_protein|mol2

> <Gold.PLP.Fitness>
41.6670

> <Gold.PLP.PLP>
-25.8893

> <Gold.PLP.part.hbond>
-5.0459

> <Gold.PLP.part.metal>
0.0000

> <Gold.PLP.part.buried>
-4.8329

> <Gold.PLP.part.nonpolar>
-16.5965

> <Gold.PLP.part.repulsive>
0.3631

> <Gold.PLP.ligand.clash>
0.0000

> <Gold.PLP.ligand.torsion>
0.5700

> <Gold.PLP.Chemscore.Hbond>
5.6220

> <Gold.PLP.Chemscore.CHOScore>
0.0000

> <Gold.PLP.Chemscore.Metal>
0.0000

> <Gold.Chemscore.Hbonds>
donor molecule, donor type, donor heavy atom, donor atom, acceptor molecule, acceptor atom, score
      L1  H     1    14       P1  7948  2.00
      L1  H     3    26       P1 10175  1.95
      L1  H    11    23       P1 10952  0.72
      P1  H 10785 10796       L1    11  0.85

> <Gold.PLP.Chemscore.Internal.Correction>
0.0516

> <Gold.Rescore>
     Score         DG    S(hbond)    S(metal)    S(lipo)     H(rot)  DE(clash)    DE(int)     intcor
     16.10     -16.76       2.99        0.00      45.21       1.56       0.03       0.64       ----

> <Gold.Chemscore.Fitness>
16.0958

> <Gold.Chemscore.DG>
-16.7639

> <Gold.Chemscore.ZeroCoef>
-5.4800

> <Gold.Chemscore.Hbond>
2.9933

> <Gold.Chemscore.Metal>
0.0000

> <Gold.Chemscore.Lipo>
45.2142

> <Gold.Chemscore.Internal_Hbond>
0.0000

> <Gold.Chemscore.DEClash>
0.0251

> <Gold.Chemscore.DEInternal>
0.6431

> <Gold.Chemscore.Rot>
1.5640

> <Gold.Chemscore.Internal.Correction>
   9.000000E+99

> <Gold.Chemscore.Hbonds>
donor molecule, donor type, donor heavy atom, donor atom, acceptor molecule, acceptor atom, score
      L1  H     1    14       P1  7948  1.00
      L1  H     3    26       P1 10175  0.93
      L1  H    11    23       P1 10952  0.72
      P1  H 10785 10796       L1    11  0.13

> <Gold.Chemscore.Hbond.Weighted>
-9.9977

> <Gold.Chemscore.Metal.Weighted>
-0.0000

> <Gold.Chemscore.Lipo.Weighted>
-5.2901

> <Gold.Chemscore.Internal_Hbond.Weighted>
0.0000

> <Gold.Chemscore.DEClash.Weighted>
0.0251

> <Gold.Chemscore.DEInternal.Weighted>
0.6431

> <Gold.Chemscore.Rot.Weighted>
4.0038

> <Gold.Chemscore.Internal.Correction.Weighted>
   9.000000E+99

> <Gold.Protein.RotatedTorsions>
[ 6907 6896 6895 6894 ] final   23.86 input  -60.11 | X-H torsion
[ 7974 7965 7964 7962 ] final -156.48 input  175.53 | X-H torsion
[ 8008 7997 7996 7995 ] final -134.27 input   59.86 | X-H torsion
[ 10167 10162 10161 10158 ] final -133.03 input  -65.29 | X-H torsion
[ 10718 10713 10712 10709 ] final  -60.05 input   66.30 | X-H torsion
[ 10763 10752 10751 10750 ] final   19.75 input  -60.55 | X-H torsion
[ 11005 11000 10999 10996 ] final   -5.35 input  -57.11 | X-H torsion

> <Gold.Protein.ActiveResidues>
 VAL166  LYS551  ARG553  GLY616  TRP617  ASP618  TYR619  PRO620  LYS621  CYS622 
 ASP623  PHE694  ASN695  SER759  ASP760  ASP761  ALA762  ILE779  LEU786  VAL792 
 PHE793  MET794  SER795  GLU796  ALA797  LYS798  CYS799  TRP800  GLU811  SER814 

> <Gold.Protein.RotatedAtoms>
  151.9487  135.0179  160.0540 H   0  0  0  0  0  0  0  0  0  0  0  0  # atno 6907 bound_to 6896
  152.1972  133.4810  159.5047 H   0  0  0  0  0  0  0  0  0  0  0  0  # atno 6908 bound_to 6896
  150.6947  134.1554  159.4199 H   0  0  0  0  0  0  0  0  0  0  0  0  # atno 6909 bound_to 6896
  144.7591  140.4103  143.5990 H   0  0  0  0  0  0  0  0  0  0  0  0  # atno 7974 bound_to 7965
  155.3593  140.0482  157.3046 H   0  0  0  0  0  0  0  0  0  0  0  0  # atno 8008 bound_to 7997
  154.5186  140.2217  155.8982 H   0  0  0  0  0  0  0  0  0  0  0  0  # atno 8009 bound_to 7997
  156.1664  140.3105  155.8903 H   0  0  0  0  0  0  0  0  0  0  0  0  # atno 8010 bound_to 7997
  139.9025  143.6591  152.2592 H   0  0  0  0  0  0  0  0  0  0  0  0  # atno 10167 bound_to 10162
  156.1018  130.4185  150.0799 H   0  0  0  0  0  0  0  0  0  0  0  0  # atno 10718 bound_to 10713
  153.1136  135.6702  153.9458 H   0  0  0  0  0  0  0  0  0  0  0  0  # atno 10763 bound_to 10752
  153.8994  135.3037  155.3449 H   0  0  0  0  0  0  0  0  0  0  0  0  # atno 10764 bound_to 10752
  154.7554  135.5014  153.9442 H   0  0  0  0  0  0  0  0  0  0  0  0  # atno 10765 bound_to 10752
  140.6902  133.9077  155.8613 H   0  0  0  0  0  0  0  0  0  0  0  0  # atno 11005 bound_to 11000
  145.6679  139.1593  143.2771 LP  0  0  0  0  0  0  0  0  0  0  0  0  # atno 17320 bound_to 7965
  146.1634  140.6753  142.9266 LP  0  0  0  0  0  0  0  0  0  0  0  0  # atno 17321 bound_to 7965
  139.7013  144.7634  151.1268 LP  0  0  0  0  0  0  0  0  0  0  0  0  # atno 17342 bound_to 10162
  140.7704  143.5454  150.9265 LP  0  0  0  0  0  0  0  0  0  0  0  0  # atno 17343 bound_to 10162
  156.8785  130.9548  151.3602 LP  0  0  0  0  0  0  0  0  0  0  0  0  # atno 17370 bound_to 10713
  157.6189  130.8640  149.9076 LP  0  0  0  0  0  0  0  0  0  0  0  0  # atno 17371 bound_to 10713
  141.0247  134.0840  157.4081 LP  0  0  0  0  0  0  0  0  0  0  0  0  # atno 17394 bound_to 11000
  139.8925  135.0125  156.6852 LP  0  0  0  0  0  0  0  0  0  0  0  0  # atno 17395 bound_to 11000

$$$$
