AV-unprocessed.smi:864|AV-procd|sdf|3986|dock7
  -GOLD-   22720 1463D 1   1.00000     0.00000
 Structure written by MMmdl.
 44 46  0  0  0  0  0  0  0  0  1 V2000
  145.2931  130.5418  151.1746 C   0  0  0  0  0  0  0  0  0  0  0  0
  145.3247  132.0507  151.3000 C   0  0  0  0  0  0  0  0  0  0  0  0
  146.4208  132.7051  151.9009 C   0  0  0  0  0  0  0  0  0  0  0  0
  146.3944  134.1100  151.9943 C   0  0  0  0  0  0  0  0  0  0  0  0
  145.2786  134.8041  151.4842 C   0  0  0  0  0  0  0  0  0  0  0  0
  145.1950  136.3186  151.5745 C   0  0  0  0  0  0  0  0  0  0  0  0
  145.1189  136.8473  153.0223 C   0  0  0  0  0  0  0  0  0  0  0  0
  145.3423  138.2870  153.1169 N   0  0  0  0  0  0  0  0  0  0  0  0
  146.4263  138.8622  153.6544 C   0  0  0  0  0  0  0  0  0  0  0  0
  147.3442  138.2405  154.1899 O   0  0  0  0  0  0  0  0  0  0  0  0
  146.4105  140.1930  153.5008 N   0  0  0  0  0  0  0  0  0  0  0  0
  147.5109  141.0811  153.8638 C   0  0  2  0  0  0  0  0  0  0  0  0
  148.8755  140.4784  153.5059 C   0  0  0  0  0  0  0  0  0  0  0  0
  149.6817  140.6221  154.7857 C   0  0  0  0  0  0  0  0  0  0  0  0
  150.8620  140.2831  154.8641 O   0  0  0  0  0  0  0  0  0  0  0  0
  148.9452  141.1414  155.7752 N   0  0  0  0  0  0  0  0  0  0  0  0
  149.3796  141.2668  157.1370 C   0  0  0  0  0  0  0  0  0  0  0  0
  149.0886  142.5162  157.9475 C   0  0  0  0  0  0  0  0  0  0  0  0
  150.4848  142.2528  157.4414 C   0  0  0  0  0  0  0  0  0  0  0  0
  147.5550  141.3262  155.3846 C   0  0  0  0  0  0  0  0  0  0  0  0
  144.2374  134.0541  150.8958 C   0  0  0  0  0  0  0  0  0  0  0  0
  144.2519  132.7072  150.8061 N   0  0  0  0  0  0  0  0  0  0  0  0
  146.1655  130.0874  151.6450 H   0  0  0  0  0  0  0  0  0  0  0  0
  145.2812  130.2495  150.1243 H   0  0  0  0  0  0  0  0  0  0  0  0
  144.4003  130.1396  151.6543 H   0  0  0  0  0  0  0  0  0  0  0  0
  147.2624  132.1467  152.2836 H   0  0  0  0  0  0  0  0  0  0  0  0
  147.2140  134.6434  152.4529 H   0  0  0  0  0  0  0  0  0  0  0  0
  146.0594  136.7524  151.0710 H   0  0  0  0  0  0  0  0  0  0  0  0
  144.3235  136.6559  151.0120 H   0  0  0  0  0  0  0  0  0  0  0  0
  144.1256  136.6493  153.4262 H   0  0  0  0  0  0  0  0  0  0  0  0
  145.8240  136.3137  153.6616 H   0  0  0  0  0  0  0  0  0  0  0  0
  144.6452  138.8836  152.6959 H   0  0  0  0  0  0  0  0  0  0  0  0
  145.6114  140.6137  153.0495 H   0  0  0  0  0  0  0  0  0  0  0  0
  147.4041  142.0340  153.3413 H   0  0  0  0  0  0  0  0  0  0  0  0
  148.8088  139.4227  153.2388 H   0  0  0  0  0  0  0  0  0  0  0  0
  149.3533  141.0133  152.6846 H   0  0  0  0  0  0  0  0  0  0  0  0
  149.3944  140.3427  157.7132 H   0  0  0  0  0  0  0  0  0  0  0  0
  148.5425  143.3385  157.4908 H   0  0  0  0  0  0  0  0  0  0  0  0
  148.9126  142.3870  159.0133 H   0  0  0  0  0  0  0  0  0  0  0  0
  151.2361  141.9546  158.1697 H   0  0  0  0  0  0  0  0  0  0  0  0
  150.8476  142.8767  156.6269 H   0  0  0  0  0  0  0  0  0  0  0  0
  147.2085  142.3324  155.6228 H   0  0  0  0  0  0  0  0  0  0  0  0
  146.9337  140.6150  155.9327 H   0  0  0  0  0  0  0  0  0  0  0  0
  143.3621  134.5458  150.4972 H   0  0  0  0  0  0  0  0  0  0  0  0
  1  2  1  0  0  0  0
  1 23  1  0  0  0  0
  1 24  1  0  0  0  0
  1 25  1  0  0  0  0
  2 22  1  0  0  0  0
  2  3  2  0  0  0  0
  3  4  1  0  0  0  0
  3 26  1  0  0  0  0
  4  5  2  0  0  0  0
  4 27  1  0  0  0  0
  5  6  1  0  0  0  0
  5 21  1  0  0  0  0
  6  7  1  0  0  0  0
  6 28  1  0  0  0  0
  6 29  1  0  0  0  0
  7  8  1  0  0  0  0
  7 30  1  0  0  0  0
  7 31  1  0  0  0  0
  8  9  1  0  0  0  0
  8 32  1  0  0  0  0
  9 10  2  0  0  0  0
  9 11  1  0  0  0  0
 11 12  1  0  0  0  0
 11 33  1  0  0  0  0
 12 20  1  0  0  0  0
 12 13  1  0  0  0  0
 12 34  1  0  0  0  0
 13 14  1  0  0  0  0
 13 35  1  0  0  0  0
 13 36  1  0  0  0  0
 14 15  2  0  0  0  0
 14 16  1  0  0  0  0
 16 17  1  0  0  0  0
 16 20  1  0  0  0  0
 17 19  1  0  0  0  0
 17 18  1  0  0  0  0
 17 37  1  0  0  0  0
 18 19  1  0  0  0  0
 18 38  1  0  0  0  0
 18 39  1  0  0  0  0
 19 40  1  0  0  0  0
 19 41  1  0  0  0  0
 20 42  1  0  0  0  0
 20 43  1  0  0  0  0
 21 22  2  0  0  0  0
 21 44  1  0  0  0  0
M  END
> <s_m_source_file>
AV-unprocessed.smi

> <i_m_source_file_index>
864

> <i_lp_mmshare_version>
43012

> <i_f3d_flags>
0

> <s_epik_input>
W0NIM11jMVtjSF1bY0hdYyhbY0hdbjEpW0NIMl1bQ0gyXVtOSF1DKD1PKVtOSF1bQ0BASF0yW0NIMl1DKD1PKU4oW0NIMl0yKVtDSF0zW0NIMl1bQ0gyXTM=

> <s_epik_cmdline>
J2VwaWtfcHl0aG9uJywgJy1waCcsICc3LjAnLCAnLXRuJywgJzgnLCAnLW1hJywgJzIwMCcsICctbWV0YWxfYmluZGluZycsICctaW1hZScsICc8aW5maWxlLm1hZT4nLCAnLW9tYWUnLCAnPG91dGZpbGUubWFlPic=

> <r_epik_Ionization_Penalty>
0.0559435

> <r_epik_Ionization_Penalty_Charging>
0

> <r_epik_Ionization_Penalty_Neutral>
0.0559435

> <r_epik_State_Penalty>
0.0481757

> <r_epik_Charging_Adjusted_Penalty>
0.0481757

> <i_epik_Tot_Q>
0

> <i_epik_Tot_abs_Q>
0

> <r_epik_Metal_State_Penalty>
0.0439988

> <b_epik_Metal_Only>
0

> <s_lp_Force_Field>
OPLS_2005

> <r_lp_Energy>
33.3792

> <b_lp_Chiralities_Consistent>
1

> <s_lp_Variant>
AV-unprocessed.smi:864-1

> <Gold.Version>
5.8.1

> <Gold.Id.Protein>
6NUR|6NUR_protein|mol2

> <Gold.PLP.Fitness>
43.9832

> <Gold.PLP.PLP>
-32.8307

> <Gold.PLP.part.hbond>
-3.0000

> <Gold.PLP.part.metal>
0.0000

> <Gold.PLP.part.buried>
-0.6450

> <Gold.PLP.part.nonpolar>
-29.7696

> <Gold.PLP.part.repulsive>
0.3699

> <Gold.PLP.ligand.clash>
0.0000

> <Gold.PLP.ligand.torsion>
0.5571

> <Gold.PLP.Chemscore.Hbond>
3.0000

> <Gold.PLP.Chemscore.CHOScore>
0.9940

> <Gold.PLP.Chemscore.Metal>
0.0000

> <Gold.Chemscore.Hbonds>
donor molecule, donor type, donor heavy atom, donor atom, acceptor molecule, acceptor atom, score
      L1  H     8    32       P1 10175  1.00
      L1  H    11    33       P1 10175  0.99
      P1  H  7989  7998       L1    15  1.00
      L1  C    21    44       P1 10186  1.00

> <Gold.PLP.Chemscore.Internal.Correction>
0.2846

> <Gold.Rescore>
     Score         DG    S(hbond)    S(metal)    S(lipo)     H(rot)  DE(clash)    DE(int)     intcor
     16.63     -20.05       2.78        0.00      83.64       1.75       1.54       1.88       ----

> <Gold.Chemscore.Fitness>
16.6330

> <Gold.Chemscore.DG>
-20.0543

> <Gold.Chemscore.ZeroCoef>
-5.4800

> <Gold.Chemscore.Hbond>
2.7762

> <Gold.Chemscore.Metal>
0.0000

> <Gold.Chemscore.Lipo>
83.6442

> <Gold.Chemscore.Internal_Hbond>
0.0000

> <Gold.Chemscore.DEClash>
1.5431

> <Gold.Chemscore.DEInternal>
1.8782

> <Gold.Chemscore.Rot>
1.7518

> <Gold.Chemscore.Internal.Correction>
   9.000000E+99

> <Gold.Chemscore.Hbonds>
donor molecule, donor type, donor heavy atom, donor atom, acceptor molecule, acceptor atom, score
      L1  H     8    32       P1 10175  0.98
      L1  H    11    33       P1 10175  0.71
      P1  H  7989  7998       L1    15  0.60

> <Gold.Chemscore.Hbond.Weighted>
-9.2725

> <Gold.Chemscore.Metal.Weighted>
-0.0000

> <Gold.Chemscore.Lipo.Weighted>
-9.7864

> <Gold.Chemscore.Internal_Hbond.Weighted>
0.0000

> <Gold.Chemscore.DEClash.Weighted>
1.5431

> <Gold.Chemscore.DEInternal.Weighted>
1.8782

> <Gold.Chemscore.Rot.Weighted>
4.4846

> <Gold.Chemscore.Internal.Correction.Weighted>
   9.000000E+99

> <Gold.Protein.RotatedTorsions>
[ 6907 6896 6895 6894 ] final  139.79 input  -60.11 | X-H torsion
[ 7974 7965 7964 7962 ] final -126.79 input  175.53 | X-H torsion
[ 8008 7997 7996 7995 ] final   51.41 input   59.86 | X-H torsion
[ 10167 10162 10161 10158 ] final -131.40 input  -65.29 | X-H torsion
[ 10718 10713 10712 10709 ] final  177.22 input   66.30 | X-H torsion
[ 10763 10752 10751 10750 ] final   48.19 input  -60.55 | X-H torsion
[ 11005 11000 10999 10996 ] final -179.59 input  -57.11 | X-H torsion

> <Gold.Protein.ActiveResidues>
 VAL166  LYS551  ARG553  GLY616  TRP617  ASP618  TYR619  PRO620  LYS621  CYS622 
 ASP623  PHE694  ASN695  SER759  ASP760  ASP761  ALA762  ILE779  LEU786  VAL792 
 PHE793  MET794  SER795  GLU796  ALA797  LYS798  CYS799  TRP800  GLU811  SER814 

> <Gold.Protein.RotatedAtoms>
  152.2507  133.5213  159.5323 H   0  0  0  0  0  0  0  0  0  0  0  0  # atno 6907 bound_to 6896
  150.7093  134.0964  159.3959 H   0  0  0  0  0  0  0  0  0  0  0  0  # atno 6908 bound_to 6896
  151.8883  135.0426  160.0546 H   0  0  0  0  0  0  0  0  0  0  0  0  # atno 6909 bound_to 6896
  144.9836  140.7665  143.4597 H   0  0  0  0  0  0  0  0  0  0  0  0  # atno 7974 bound_to 7965
  155.4348  140.3452  155.4284 H   0  0  0  0  0  0  0  0  0  0  0  0  # atno 8008 bound_to 7997
  156.1314  140.1515  156.9089 H   0  0  0  0  0  0  0  0  0  0  0  0  # atno 8009 bound_to 7997
  154.4898  140.0844  156.7549 H   0  0  0  0  0  0  0  0  0  0  0  0  # atno 8010 bound_to 7997
  139.9193  143.6401  152.2557 H   0  0  0  0  0  0  0  0  0  0  0  0  # atno 10167 bound_to 10162
  156.9086  130.9902  151.3024 H   0  0  0  0  0  0  0  0  0  0  0  0  # atno 10718 bound_to 10713
  152.9794  135.5952  154.3885 H   0  0  0  0  0  0  0  0  0  0  0  0  # atno 10763 bound_to 10752
  154.3543  135.2767  155.2357 H   0  0  0  0  0  0  0  0  0  0  0  0  # atno 10764 bound_to 10752
  154.4382  135.6019  153.6167 H   0  0  0  0  0  0  0  0  0  0  0  0  # atno 10765 bound_to 10752
  140.4169  134.6641  157.4643 H   0  0  0  0  0  0  0  0  0  0  0  0  # atno 11005 bound_to 11000
  145.2385  139.2083  143.5005 LP  0  0  0  0  0  0  0  0  0  0  0  0  # atno 17320 bound_to 7965
  146.3414  140.2276  142.8592 LP  0  0  0  0  0  0  0  0  0  0  0  0  # atno 17321 bound_to 7965
  139.6875  144.7650  151.1498 LP  0  0  0  0  0  0  0  0  0  0  0  0  # atno 17342 bound_to 10162
  140.7666  143.5636  150.9072 LP  0  0  0  0  0  0  0  0  0  0  0  0  # atno 17343 bound_to 10162
  157.5981  130.8493  149.8760 LP  0  0  0  0  0  0  0  0  0  0  0  0  # atno 17370 bound_to 10713
  156.0547  130.3711  150.1119 LP  0  0  0  0  0  0  0  0  0  0  0  0  # atno 17371 bound_to 10713
  140.0228  134.6522  155.9216 LP  0  0  0  0  0  0  0  0  0  0  0  0  # atno 17394 bound_to 11000
  141.1799  133.6545  156.4979 LP  0  0  0  0  0  0  0  0  0  0  0  0  # atno 17395 bound_to 11000

$$$$
