AV-unprocessed.smi:599|AV-procd|sdf|3029|dock6
  -GOLD-   2262023543D 1   1.00000     0.00000
 Structure written by MMmdl.
 36 37  0  0  0  0  0  0  0  0  1 V2000
  145.9522  142.1496  159.1955 N   0  0  0  0  0  0  0  0  0  0  0  0
  146.2022  142.1273  158.0659 C   0  0  0  0  0  0  0  0  0  0  0  0
  146.5218  142.0995  156.6251 C   0  0  0  0  0  0  0  0  0  0  0  0
  147.9631  142.1696  156.3850 N   0  0  0  0  0  0  0  0  0  0  0  0
  148.8741  141.2742  156.7975 C   0  0  0  0  0  0  0  0  0  0  0  0
  148.5830  140.2597  157.4316 O   0  0  0  0  0  0  0  0  0  0  0  0
  150.3314  141.5686  156.4164 C   0  0  0  0  0  0  0  0  0  0  0  0
  151.1634  141.9460  157.5711 N   0  0  0  0  0  0  0  0  0  0  0  0
  150.9197  143.2042  158.1562 C   0  0  0  0  0  0  0  0  0  0  0  0
  151.6044  143.6619  159.2221 C   0  0  0  0  0  0  0  0  0  0  0  0
  151.3633  145.0506  159.7931 C   0  0  0  0  0  0  0  0  0  0  0  0
  150.0699  145.2450  160.0509 F   0  0  0  0  0  0  0  0  0  0  0  0
  152.0479  145.2338  160.9228 F   0  0  0  0  0  0  0  0  0  0  0  0
  151.7546  145.9743  158.9165 F   0  0  0  0  0  0  0  0  0  0  0  0
  152.6487  142.7982  159.7372 C   0  0  0  0  0  0  0  0  0  0  0  0
  152.9044  141.5983  159.1805 C   0  0  0  0  0  0  0  0  0  0  0  0
  152.1405  141.1081  158.0310 C   0  0  0  0  0  0  0  0  0  0  0  0
  152.3645  140.0135  157.5135 O   0  0  0  0  0  0  0  0  0  0  0  0
  145.9600  140.8199  155.9914 C   0  0  0  0  0  0  0  0  0  0  0  0
  144.4817  141.1183  155.7458 C   0  0  0  0  0  0  0  0  0  0  0  0
  144.4225  142.6121  155.4146 C   0  0  0  0  0  0  0  0  0  0  0  0
  145.7614  143.2110  155.8714 C   0  0  0  0  0  0  0  0  0  0  0  0
  148.2938  142.9688  155.8641 H   0  0  0  0  0  0  0  0  0  0  0  0
  150.7378  140.6849  155.9230 H   0  0  0  0  0  0  0  0  0  0  0  0
  150.3615  142.3559  155.6605 H   0  0  0  0  0  0  0  0  0  0  0  0
  150.1445  143.7812  157.6731 H   0  0  0  0  0  0  0  0  0  0  0  0
  153.2349  143.1169  160.5867 H   0  0  0  0  0  0  0  0  0  0  0  0
  153.6895  140.9807  159.5916 H   0  0  0  0  0  0  0  0  0  0  0  0
  146.4454  140.6261  155.0332 H   0  0  0  0  0  0  0  0  0  0  0  0
  146.1082  139.9382  156.6162 H   0  0  0  0  0  0  0  0  0  0  0  0
  144.0564  140.4977  154.9565 H   0  0  0  0  0  0  0  0  0  0  0  0
  143.9151  140.9247  156.6576 H   0  0  0  0  0  0  0  0  0  0  0  0
  144.2896  142.7652  154.3428 H   0  0  0  0  0  0  0  0  0  0  0  0
  143.5796  143.0865  155.9182 H   0  0  0  0  0  0  0  0  0  0  0  0
  145.6204  144.1000  156.4877 H   0  0  0  0  0  0  0  0  0  0  0  0
  146.3211  143.5248  154.9885 H   0  0  0  0  0  0  0  0  0  0  0  0
  1  2  3  0  0  0  0
  2  3  1  0  0  0  0
  3 22  1  0  0  0  0
  3  4  1  0  0  0  0
  3 19  1  0  0  0  0
  4  5  1  0  0  0  0
  4 23  1  0  0  0  0
  5  6  2  0  0  0  0
  5  7  1  0  0  0  0
  7  8  1  0  0  0  0
  7 24  1  0  0  0  0
  7 25  1  0  0  0  0
  8 17  1  0  0  0  0
  8  9  1  0  0  0  0
  9 10  2  0  0  0  0
  9 26  1  0  0  0  0
 10 11  1  0  0  0  0
 10 15  1  0  0  0  0
 11 12  1  0  0  0  0
 11 13  1  0  0  0  0
 11 14  1  0  0  0  0
 15 16  2  0  0  0  0
 15 27  1  0  0  0  0
 16 17  1  0  0  0  0
 16 28  1  0  0  0  0
 17 18  2  0  0  0  0
 19 20  1  0  0  0  0
 19 29  1  0  0  0  0
 19 30  1  0  0  0  0
 20 21  1  0  0  0  0
 20 31  1  0  0  0  0
 20 32  1  0  0  0  0
 21 22  1  0  0  0  0
 21 33  1  0  0  0  0
 21 34  1  0  0  0  0
 22 35  1  0  0  0  0
 22 36  1  0  0  0  0
M  END
> <s_m_source_file>
AV-unprocessed.smi

> <i_m_source_file_index>
599

> <i_lp_mmshare_version>
43012

> <i_f3d_flags>
0

> <s_epik_input>
W0NIMl0xW0NIMl1bQ0gyXVtDSDJdQzEoQyNOKVtOSF1DKD1PKVtDSDJdbjJbY0hdYyhDKEYpKEYpRilbY0hdW2NIXWMyPU8=

> <s_epik_cmdline>
J2VwaWtfcHl0aG9uJywgJy1waCcsICc3LjAnLCAnLXRuJywgJzgnLCAnLW1hJywgJzIwMCcsICctbWV0YWxfYmluZGluZycsICctaW1hZScsICc8aW5maWxlLm1hZT4nLCAnLW9tYWUnLCAnPG91dGZpbGUubWFlPic=

> <r_lp_tautomer_probability>
1

> <r_epik_Ionization_Penalty>
4.74739e-07

> <r_epik_Ionization_Penalty_Charging>
1.48482e-08

> <r_epik_Ionization_Penalty_Neutral>
4.59891e-07

> <r_epik_State_Penalty>
-0

> <r_epik_Charging_Adjusted_Penalty>
1.48482e-08

> <i_epik_Tot_Q>
0

> <i_epik_Tot_abs_Q>
0

> <r_epik_Metal_State_Penalty>
-0

> <b_epik_Metal_Only>
0

> <s_lp_Force_Field>
OPLS_2005

> <r_lp_Energy>
29.4695

> <b_lp_Chiralities_Consistent>
1

> <s_lp_Variant>
AV-unprocessed.smi:599-1

> <Gold.Version>
5.8.1

> <Gold.Id.Protein>
6NUR|6NUR_protein|mol2

> <Gold.PLP.Fitness>
48.9147

> <Gold.PLP.PLP>
-39.1542

> <Gold.PLP.part.hbond>
-3.0000

> <Gold.PLP.part.metal>
0.0000

> <Gold.PLP.part.buried>
-5.6230

> <Gold.PLP.part.nonpolar>
-29.6598

> <Gold.PLP.part.repulsive>
0.0249

> <Gold.PLP.ligand.clash>
0.0000

> <Gold.PLP.ligand.torsion>
0.4654

> <Gold.PLP.Chemscore.Hbond>
2.9600

> <Gold.PLP.Chemscore.CHOScore>
0.5825

> <Gold.PLP.Chemscore.Metal>
0.0000

> <Gold.Chemscore.Hbonds>
donor molecule, donor type, donor heavy atom, donor atom, acceptor molecule, acceptor atom, score
      L1  H     4    23       P1  8028  1.00
      P1  H  6934  6946       L1     1  0.57
      P1  H  7997  8009       L1    18  0.59
      L1  C     9    26       P1  8028  1.00

> <Gold.PLP.Chemscore.Internal.Correction>
0.0636

> <Gold.Rescore>
     Score         DG    S(hbond)    S(metal)    S(lipo)     H(rot)  DE(clash)    DE(int)     intcor
     15.51     -18.80       2.64        0.00      74.72       1.66       1.38       1.91       ----

> <Gold.Chemscore.Fitness>
15.5132

> <Gold.Chemscore.DG>
-18.8049

> <Gold.Chemscore.ZeroCoef>
-5.4800

> <Gold.Chemscore.Hbond>
2.6443

> <Gold.Chemscore.Metal>
0.0000

> <Gold.Chemscore.Lipo>
74.7190

> <Gold.Chemscore.Internal_Hbond>
0.0000

> <Gold.Chemscore.DEClash>
1.3771

> <Gold.Chemscore.DEInternal>
1.9146

> <Gold.Chemscore.Rot>
1.6599

> <Gold.Chemscore.Internal.Correction>
   9.000000E+99

> <Gold.Chemscore.Hbonds>
donor molecule, donor type, donor heavy atom, donor atom, acceptor molecule, acceptor atom, score
      L1  H     4    23       P1  8028  0.91
      P1  H  6934  6946       L1     1  0.55
      P1  H  7997  8009       L1    18  0.34

> <Gold.Chemscore.Hbond.Weighted>
-8.8320

> <Gold.Chemscore.Metal.Weighted>
-0.0000

> <Gold.Chemscore.Lipo.Weighted>
-8.7421

> <Gold.Chemscore.Internal_Hbond.Weighted>
0.0000

> <Gold.Chemscore.DEClash.Weighted>
1.3771

> <Gold.Chemscore.DEInternal.Weighted>
1.9146

> <Gold.Chemscore.Rot.Weighted>
4.2492

> <Gold.Chemscore.Internal.Correction.Weighted>
   9.000000E+99

> <Gold.Protein.RotatedTorsions>
[ 6907 6896 6895 6894 ] final    1.71 input  -60.11 | X-H torsion
[ 7974 7965 7964 7962 ] final  115.34 input  175.53 | X-H torsion
[ 8008 7997 7996 7995 ] final -177.37 input   59.86 | X-H torsion
[ 10167 10162 10161 10158 ] final  167.54 input  -65.29 | X-H torsion
[ 10718 10713 10712 10709 ] final  -95.63 input   66.30 | X-H torsion
[ 10763 10752 10751 10750 ] final  130.50 input  -60.55 | X-H torsion
[ 11005 11000 10999 10996 ] final -139.32 input  -57.11 | X-H torsion

> <Gold.Protein.ActiveResidues>
 VAL166  LYS551  ARG553  GLY616  TRP617  ASP618  TYR619  PRO620  LYS621  CYS622 
 ASP623  PHE694  ASN695  SER759  ASP760  ASP761  ALA762  ILE779  LEU786  VAL792 
 PHE793  MET794  SER795  GLU796  ALA797  LYS798  CYS799  TRP800  GLU811  SER814 

> <Gold.Protein.RotatedAtoms>
  151.5971  135.1050  160.0051 H   0  0  0  0  0  0  0  0  0  0  0  0  # atno 6907 bound_to 6896
  152.4277  133.7219  159.6548 H   0  0  0  0  0  0  0  0  0  0  0  0  # atno 6908 bound_to 6896
  150.8167  133.8254  159.3180 H   0  0  0  0  0  0  0  0  0  0  0  0  # atno 6909 bound_to 6896
  145.1932  139.2989  143.4357 H   0  0  0  0  0  0  0  0  0  0  0  0  # atno 7974 bound_to 7965
  156.0061  140.1231  157.0500 H   0  0  0  0  0  0  0  0  0  0  0  0  # atno 8008 bound_to 7997
  154.4259  140.1097  156.5833 H   0  0  0  0  0  0  0  0  0  0  0  0  # atno 8009 bound_to 7997
  155.6145  140.3472  155.4635 H   0  0  0  0  0  0  0  0  0  0  0  0  # atno 8010 bound_to 7997
  139.4947  144.3910  151.9516 H   0  0  0  0  0  0  0  0  0  0  0  0  # atno 10167 bound_to 10162
  156.0047  130.5117  150.6105 H   0  0  0  0  0  0  0  0  0  0  0  0  # atno 10718 bound_to 10713
  153.7591  135.3198  155.3334 H   0  0  0  0  0  0  0  0  0  0  0  0  # atno 10763 bound_to 10752
  154.8236  135.4585  154.0856 H   0  0  0  0  0  0  0  0  0  0  0  0  # atno 10764 bound_to 10752
  153.2081  135.6932  153.8230 H   0  0  0  0  0  0  0  0  0  0  0  0  # atno 10765 bound_to 10752
  140.8531  134.2261  157.4749 H   0  0  0  0  0  0  0  0  0  0  0  0  # atno 11005 bound_to 11000
  146.3432  140.2152  142.8590 LP  0  0  0  0  0  0  0  0  0  0  0  0  # atno 17320 bound_to 7965
  145.0020  140.8640  143.5276 LP  0  0  0  0  0  0  0  0  0  0  0  0  # atno 17321 bound_to 7965
  140.3348  144.3273  150.5979 LP  0  0  0  0  0  0  0  0  0  0  0  0  # atno 17342 bound_to 10162
  140.5615  143.2191  151.7757 LP  0  0  0  0  0  0  0  0  0  0  0  0  # atno 17343 bound_to 10162
  157.3938  131.0799  151.1370 LP  0  0  0  0  0  0  0  0  0  0  0  0  # atno 17370 bound_to 10713
  157.2053  130.6413  149.5754 LP  0  0  0  0  0  0  0  0  0  0  0  0  # atno 17371 bound_to 10713
  139.8704  134.9693  156.4661 LP  0  0  0  0  0  0  0  0  0  0  0  0  # atno 17394 bound_to 11000
  140.8768  133.7947  155.9423 LP  0  0  0  0  0  0  0  0  0  0  0  0  # atno 17395 bound_to 11000

$$$$
