AV-unprocessed.smi:102|AV-procd|sdf|956|dock3
  -GOLD-   2262017493D 1   1.00000     0.00000
 Structure written by MMmdl.
 44 45  0  0  0  0  0  0  0  0  1 V2000
  149.6662  141.3108  155.6288 C   0  0  0  0  0  0  0  0  0  0  0  0
  150.8376  140.3807  155.9150 C   0  0  0  0  0  0  0  0  0  0  0  0
  151.4139  139.7764  155.0099 O   0  0  0  0  0  0  0  0  0  0  0  0
  151.1357  140.3194  157.2257 O   0  0  0  0  0  0  0  0  0  0  0  0
  152.2546  139.5671  157.6747 C   0  0  0  0  0  0  0  0  0  0  0  0
  152.3926  139.6374  159.2077 C   0  0  1  0  0  0  0  0  0  0  0  0
  152.7823  138.3717  159.7239 O   0  0  0  0  0  0  0  0  0  0  0  0
  154.1694  138.2958  159.7284 C   0  0  2  0  0  0  0  0  0  0  0  0
  154.6046  137.3258  160.7960 N   0  0  0  0  0  0  0  0  0  0  0  0
  154.2815  137.5365  162.1294 C   0  0  0  0  0  0  0  0  0  0  0  0
  154.6668  136.6977  163.1200 C   0  0  0  0  0  0  0  0  0  0  0  0
  154.3178  136.9657  164.3896 F   0  0  0  0  0  0  0  0  0  0  0  0
  155.4659  135.5121  162.8228 C   0  0  0  0  0  0  0  0  0  0  0  0
  155.8582  134.6913  163.6498 O   0  0  0  0  0  0  0  0  0  0  0  0
  155.7858  135.3548  161.4704 N   0  0  0  0  0  0  0  0  0  0  0  0
  155.3992  136.2145  160.4403 C   0  0  0  0  0  0  0  0  0  0  0  0
  155.7585  135.9919  159.2850 O   0  0  0  0  0  0  0  0  0  0  0  0
  154.6903  139.6989  160.0324 C   0  0  1  0  0  0  0  0  0  0  0  0
  155.8466  139.9728  159.2538 O   0  0  0  0  0  0  0  0  0  0  0  0
  157.0546  140.0190  159.8377 C   0  0  0  0  0  0  0  0  0  0  0  0
  158.0022  140.9802  159.1330 C   0  0  0  0  0  0  0  0  0  0  0  0
  157.4040  139.3822  160.8316 O   0  0  0  0  0  0  0  0  0  0  0  0
  153.5180  140.5943  159.6384 C   0  0  2  0  0  0  0  0  0  0  0  0
  153.1365  141.3804  160.7603 O   0  0  0  0  0  0  0  0  0  0  0  0
  152.5482  142.5762  160.5824 C   0  0  0  0  0  0  0  0  0  0  0  0
  152.3438  143.3227  161.8937 C   0  0  0  0  0  0  0  0  0  0  0  0
  152.1897  143.0550  159.5064 O   0  0  0  0  0  0  0  0  0  0  0  0
  156.3489  134.5551  161.2194 H   0  0  0  0  0  0  0  0  0  0  0  0
  149.9596  142.3479  155.7907 H   0  0  0  0  0  0  0  0  0  0  0  0
  148.8275  141.0804  156.2861 H   0  0  0  0  0  0  0  0  0  0  0  0
  149.3349  141.2020  154.5959 H   0  0  0  0  0  0  0  0  0  0  0  0
  152.2185  138.5363  157.3193 H   0  0  0  0  0  0  0  0  0  0  0  0
  153.1382  140.0154  157.2200 H   0  0  0  0  0  0  0  0  0  0  0  0
  151.4355  139.9314  159.6402 H   0  0  0  0  0  0  0  0  0  0  0  0
  154.4901  137.8997  158.7621 H   0  0  0  0  0  0  0  0  0  0  0  0
  153.7043  138.4082  162.4026 H   0  0  0  0  0  0  0  0  0  0  0  0
  154.8922  139.7713  161.1030 H   0  0  0  0  0  0  0  0  0  0  0  0
  158.0933  140.7182  158.0787 H   0  0  0  0  0  0  0  0  0  0  0  0
  158.9932  140.9420  159.5855 H   0  0  0  0  0  0  0  0  0  0  0  0
  157.6280  142.0014  159.2061 H   0  0  0  0  0  0  0  0  0  0  0  0
  153.8065  141.2435  158.8097 H   0  0  0  0  0  0  0  0  0  0  0  0
  153.2939  143.4430  162.4145 H   0  0  0  0  0  0  0  0  0  0  0  0
  151.6613  142.7708  162.5400 H   0  0  0  0  0  0  0  0  0  0  0  0
  151.9226  144.3113  161.7102 H   0  0  0  0  0  0  0  0  0  0  0  0
  1  2  1  0  0  0  0
  1 29  1  0  0  0  0
  1 30  1  0  0  0  0
  1 31  1  0  0  0  0
  2  3  2  0  0  0  0
  2  4  1  0  0  0  0
  4  5  1  0  0  0  0
  5  6  1  0  0  0  0
  5 32  1  0  0  0  0
  5 33  1  0  0  0  0
  6 23  1  0  0  0  0
  6  7  1  0  0  0  0
  6 34  1  0  0  0  0
  7  8  1  0  0  0  0
  8  9  1  0  0  0  0
  8 18  1  0  0  0  0
  8 35  1  0  0  0  0
  9 16  1  0  0  0  0
  9 10  1  0  0  0  0
 10 11  2  0  0  0  0
 10 36  1  0  0  0  0
 11 12  1  0  0  0  0
 11 13  1  0  0  0  0
 13 14  2  0  0  0  0
 13 15  1  0  0  0  0
 15 28  1  0  0  0  0
 15 16  1  0  0  0  0
 16 17  2  0  0  0  0
 18 19  1  0  0  0  0
 18 23  1  0  0  0  0
 18 37  1  0  0  0  0
 19 20  1  0  0  0  0
 20 21  1  0  0  0  0
 20 22  2  0  0  0  0
 21 38  1  0  0  0  0
 21 39  1  0  0  0  0
 21 40  1  0  0  0  0
 23 24  1  0  0  0  0
 23 41  1  0  0  0  0
 24 25  1  0  0  0  0
 25 26  1  0  0  0  0
 25 27  2  0  0  0  0
 26 42  1  0  0  0  0
 26 43  1  0  0  0  0
 26 44  1  0  0  0  0
M  END
> <s_m_source_file>
AV-unprocessed.smi

> <i_m_source_file_index>
102

> <i_lp_mmshare_version>
43012

> <i_f3d_flags>
0

> <s_epik_input>
W0NIM11DKD1PKU9bQ0gyXVtDQEBIXTFPW0NASF0oW0NAQEhdKE9DKD1PKVtDSDNdKVtDQEhdMU9DKD1PKVtDSDNdKW4yW2NIXWMoRiljKD1PKVtuSF1jMj1P

> <s_epik_cmdline>
J2VwaWtfcHl0aG9uJywgJy1waCcsICc3LjAnLCAnLXRuJywgJzgnLCAnLW1hJywgJzIwMCcsICctbWV0YWxfYmluZGluZycsICctaW1hZScsICc8aW5maWxlLm1hZT4nLCAnLW9tYWUnLCAnPG91dGZpbGUubWFlPic=

> <r_lp_tautomer_probability>
0.999537

> <r_epik_Ionization_Penalty>
0.058267

> <r_epik_Ionization_Penalty_Charging>
0.058267

> <r_epik_Ionization_Penalty_Neutral>
6.57791e-16

> <r_epik_State_Penalty>
0.0503774

> <r_epik_Charging_Adjusted_Penalty>
0.108644

> <i_epik_Tot_Q>
0

> <i_epik_Tot_abs_Q>
0

> <r_epik_Metal_State_Penalty>
2.6644

> <b_epik_Metal_Only>
0

> <s_epik_Chemistry_Notes>
This compound has an ester and may undergo hydrolysis at high or low pH. This compound contains an acetal/aminal-like group ( X-CH(R)-Y where X, Y are N, S, or O) that may be acid/base labile, releasing an aldehyde.

> <s_lp_Force_Field>
OPLS_2005

> <r_lp_Energy>
12.7651

> <b_lp_Chiralities_Consistent>
1

> <s_lp_Variant>
AV-unprocessed.smi:102-12

> <Gold.Version>
5.8.1

> <Gold.Id.Protein>
6NUR|6NUR_protein|mol2

> <Gold.PLP.Fitness>
44.6841

> <Gold.PLP.PLP>
-45.5675

> <Gold.PLP.part.hbond>
-2.0000

> <Gold.PLP.part.metal>
0.0000

> <Gold.PLP.part.buried>
-8.0074

> <Gold.PLP.part.nonpolar>
-36.5661

> <Gold.PLP.part.repulsive>
0.1538

> <Gold.PLP.ligand.clash>
0.0000

> <Gold.PLP.ligand.torsion>
2.0098

> <Gold.PLP.Chemscore.Hbond>
1.0000

> <Gold.PLP.Chemscore.CHOScore>
0.0000

> <Gold.PLP.Chemscore.Metal>
0.0000

> <Gold.Chemscore.Hbonds>
donor molecule, donor type, donor heavy atom, donor atom, acceptor molecule, acceptor atom, score
      P1  H  7989  7998       L1     3  1.00

> <Gold.PLP.Chemscore.Internal.Correction>
0.1363

> <Gold.Rescore>
     Score         DG    S(hbond)    S(metal)    S(lipo)     H(rot)  DE(clash)    DE(int)     intcor
      4.50      -6.31       0.96        0.00      68.31       4.05       0.03       1.79       ----

> <Gold.Chemscore.Fitness>
4.4973

> <Gold.Chemscore.DG>
-6.3134

> <Gold.Chemscore.ZeroCoef>
-5.4800

> <Gold.Chemscore.Hbond>
0.9625

> <Gold.Chemscore.Metal>
0.0000

> <Gold.Chemscore.Lipo>
68.3057

> <Gold.Chemscore.Internal_Hbond>
0.0000

> <Gold.Chemscore.DEClash>
0.0280

> <Gold.Chemscore.DEInternal>
1.7880

> <Gold.Chemscore.Rot>
4.0520

> <Gold.Chemscore.Internal.Correction>
   9.000000E+99

> <Gold.Chemscore.Hbonds>
donor molecule, donor type, donor heavy atom, donor atom, acceptor molecule, acceptor atom, score
      P1  H  7989  7998       L1     3  0.82

> <Gold.Chemscore.Hbond.Weighted>
-3.2148

> <Gold.Chemscore.Metal.Weighted>
-0.0000

> <Gold.Chemscore.Lipo.Weighted>
-7.9918

> <Gold.Chemscore.Internal_Hbond.Weighted>
0.0000

> <Gold.Chemscore.DEClash.Weighted>
0.0280

> <Gold.Chemscore.DEInternal.Weighted>
1.7880

> <Gold.Chemscore.Rot.Weighted>
10.3732

> <Gold.Chemscore.Internal.Correction.Weighted>
   9.000000E+99

> <Gold.Protein.RotatedTorsions>
[ 6907 6896 6895 6894 ] final   20.99 input  -60.11 | X-H torsion
[ 7974 7965 7964 7962 ] final  -97.25 input  175.53 | X-H torsion
[ 8008 7997 7996 7995 ] final   65.13 input   59.86 | X-H torsion
[ 10167 10162 10161 10158 ] final  159.17 input  -65.29 | X-H torsion
[ 10718 10713 10712 10709 ] final  155.17 input   66.30 | X-H torsion
[ 10763 10752 10751 10750 ] final   19.27 input  -60.55 | X-H torsion
[ 11005 11000 10999 10996 ] final   35.19 input  -57.11 | X-H torsion

> <Gold.Protein.ActiveResidues>
 VAL166  LYS551  ARG553  GLY616  TRP617  ASP618  TYR619  PRO620  LYS621  CYS622 
 ASP623  PHE694  ASN695  SER759  ASP760  ASP761  ALA762  ILE779  LEU786  VAL792 
 PHE793  MET794  SER795  GLU796  ALA797  LYS798  CYS799  TRP800  GLU811  SER814 

> <Gold.Protein.RotatedAtoms>
  151.9049  135.0363  160.0509 H   0  0  0  0  0  0  0  0  0  0  0  0  # atno 6907 bound_to 6896
  152.2328  133.5067  159.5234 H   0  0  0  0  0  0  0  0  0  0  0  0  # atno 6908 bound_to 6896
  150.7030  134.1110  159.4043 H   0  0  0  0  0  0  0  0  0  0  0  0  # atno 6909 bound_to 6896
  145.3361  140.9451  143.2634 H   0  0  0  0  0  0  0  0  0  0  0  0  # atno 7974 bound_to 7965
  155.6569  140.3497  155.4768 H   0  0  0  0  0  0  0  0  0  0  0  0  # atno 8008 bound_to 7997
  155.9801  140.1173  157.0757 H   0  0  0  0  0  0  0  0  0  0  0  0  # atno 8009 bound_to 7997
  154.4189  140.1140  156.5410 H   0  0  0  0  0  0  0  0  0  0  0  0  # atno 8010 bound_to 7997
  139.4831  144.4755  151.8516 H   0  0  0  0  0  0  0  0  0  0  0  0  # atno 10167 bound_to 10162
  157.2219  131.0720  151.1907 H   0  0  0  0  0  0  0  0  0  0  0  0  # atno 10718 bound_to 10713
  153.1177  135.6712  153.9390 H   0  0  0  0  0  0  0  0  0  0  0  0  # atno 10763 bound_to 10752
  153.8915  135.3046  155.3449 H   0  0  0  0  0  0  0  0  0  0  0  0  # atno 10764 bound_to 10752
  154.7591  135.4997  153.9509 H   0  0  0  0  0  0  0  0  0  0  0  0  # atno 10765 bound_to 10752
  140.2451  134.3368  155.7911 H   0  0  0  0  0  0  0  0  0  0  0  0  # atno 11005 bound_to 11000
  144.8826  139.4883  143.6716 LP  0  0  0  0  0  0  0  0  0  0  0  0  # atno 17320 bound_to 7965
  146.3026  139.7475  142.9080 LP  0  0  0  0  0  0  0  0  0  0  0  0  # atno 17321 bound_to 7965
  140.4227  144.2221  150.5887 LP  0  0  0  0  0  0  0  0  0  0  0  0  # atno 17342 bound_to 10162
  140.4857  143.2364  151.8891 LP  0  0  0  0  0  0  0  0  0  0  0  0  # atno 17343 bound_to 10162
  157.3567  130.7110  149.6475 LP  0  0  0  0  0  0  0  0  0  0  0  0  # atno 17370 bound_to 10713
  155.9681  130.4237  150.4574 LP  0  0  0  0  0  0  0  0  0  0  0  0  # atno 17371 bound_to 10713
  141.2207  133.7321  156.8948 LP  0  0  0  0  0  0  0  0  0  0  0  0  # atno 17394 bound_to 11000
  140.1614  134.9163  157.2719 LP  0  0  0  0  0  0  0  0  0  0  0  0  # atno 17395 bound_to 11000

$$$$
