AV-unprocessed.smi:157|AV-procd|sdf|1320|dock3
  -GOLD-   2262019 13D 1   1.00000     0.00000
 Structure written by MMmdl.
 36 38  0  0  0  0  0  0  0  0  2 V2000
  155.2440  138.8583  154.6459 O   0  0  0  0  0  0  0  0  0  0  0  0
  154.1502  137.9741  154.7692 C   0  0  0  0  0  0  0  0  0  0  0  0
  152.8329  138.7582  154.8805 C   0  0  2  0  0  0  0  0  0  0  0  0
  152.7650  139.3890  156.1580 O   0  0  0  0  0  0  0  0  0  0  0  0
  151.4505  139.3899  156.6316 C   0  0  1  0  0  0  0  0  0  0  0  0
  151.0464  140.8044  156.8963 N   0  0  0  0  0  0  0  0  0  0  0  0
  150.0904  141.4949  156.2397 C   0  0  0  0  0  0  0  0  0  0  0  0
  149.9249  142.7359  156.6645 N   0  3  0  0  0  0  0  0  0  0  0  0
  150.8303  142.9224  157.6877 C   0  0  0  0  0  0  0  0  0  0  0  0
  151.5090  141.7086  157.8253 C   0  0  0  0  0  0  0  0  0  0  0  0
  152.5228  141.3428  158.7244 N   0  0  0  0  0  0  0  0  0  0  0  0
  152.8098  142.0293  159.7825 C   0  0  0  0  0  0  0  0  0  0  0  0
  152.2950  143.2439  160.2044 N   0  0  0  0  0  0  0  0  0  0  0  0
  152.1177  144.3834  159.3220 C   0  0  0  0  0  0  0  0  0  0  0  0
  150.9173  144.2484  158.3764 C   0  0  2  0  0  0  0  0  0  0  0  0
  149.7404  144.5672  159.0898 O   0  0  0  0  0  0  0  0  0  0  0  0
  150.5703  138.7791  155.5414 C   0  0  0  0  0  0  0  0  0  0  0  0
  151.5656  137.8985  154.8172 C   0  0  1  0  0  0  0  0  0  0  0  0
  151.1412  137.6560  153.4918 O   0  0  0  0  0  0  0  0  0  0  0  0
  152.7921  139.5492  154.1291 H   0  0  0  0  0  0  0  0  0  0  0  0
  151.3948  138.8700  157.5885 H   0  0  0  0  0  0  0  0  0  0  0  0
  151.0176  145.0137  157.6059 H   0  0  0  0  0  0  0  0  0  0  0  0
  151.7017  136.9581  155.3537 H   0  0  0  0  0  0  0  0  0  0  0  0
  155.7663  138.5895  153.9052 H   0  0  0  0  0  0  0  0  0  0  0  0
  154.1301  137.2925  153.9180 H   0  0  0  0  0  0  0  0  0  0  0  0
  154.3010  137.3690  155.6633 H   0  0  0  0  0  0  0  0  0  0  0  0
  149.5158  141.0663  155.4379 H   0  0  0  0  0  0  0  0  0  0  0  0
  153.5633  141.6445  160.4713 H   0  0  0  0  0  0  0  0  0  0  0  0
  152.4646  143.5367  161.1563 H   0  0  0  0  0  0  0  0  0  0  0  0
  152.0432  145.2967  159.9132 H   0  0  0  0  0  0  0  0  0  0  0  0
  153.0273  144.4812  158.7277 H   0  0  0  0  0  0  0  0  0  0  0  0
  149.0616  144.7913  158.4721 H   0  0  0  0  0  0  0  0  0  0  0  0
  149.7262  138.2375  155.9693 H   0  0  0  0  0  0  0  0  0  0  0  0
  150.1945  139.5644  154.8825 H   0  0  0  0  0  0  0  0  0  0  0  0
  151.3935  136.7765  153.2525 H   0  0  0  0  0  0  0  0  0  0  0  0
  149.2668  143.4134  156.3006 H   0  0  0  0  0  0  0  0  0  0  0  0
  1  2  1  0  0  0  0
  1 24  1  0  0  0  0
  2  3  1  0  0  0  0
  2 25  1  0  0  0  0
  2 26  1  0  0  0  0
  3 20  1  0  0  0  0
  3 18  1  0  0  0  0
  3  4  1  0  0  0  0
  4  5  1  0  0  0  0
  5 21  1  0  0  0  0
  5  6  1  0  0  0  0
  5 17  1  0  0  0  0
  6 10  1  0  0  0  0
  6  7  1  0  0  0  0
  7  8  2  0  0  0  0
  7 27  1  0  0  0  0
  8  9  1  0  0  0  0
  8 36  1  0  0  0  0
  9 15  1  0  0  0  0
  9 10  2  0  0  0  0
 10 11  1  0  0  0  0
 11 12  2  0  0  0  0
 12 13  1  0  0  0  0
 12 28  1  0  0  0  0
 13 14  1  0  0  0  0
 13 29  1  0  0  0  0
 14 15  1  0  0  0  0
 14 30  1  0  0  0  0
 14 31  1  0  0  0  0
 15 22  1  0  0  0  0
 15 16  1  0  0  0  0
 16 32  1  0  0  0  0
 17 18  1  0  0  0  0
 17 33  1  0  0  0  0
 17 34  1  0  0  0  0
 18 23  1  0  0  0  0
 18 19  1  0  0  0  0
 19 35  1  0  0  0  0
M  CHG  1   8   1
M  END
> <s_m_source_file>
AV-unprocessed.smi

> <i_m_source_file_index>
157

> <i_lp_mmshare_version>
43012

> <i_f3d_flags>
0

> <s_epik_input>
W09IXVtDSDJdW0NASF0xT1tDQEhdKFtDSDJdW0NAQEhdMVtPSF0pbihbY0hdbjIpYyhjMjMpTj1bQ0hdW05IXVtDSDJdW0NASF0zW09IXQ==

> <s_epik_cmdline>
J2VwaWtfcHl0aG9uJywgJy1waCcsICc3LjAnLCAnLXRuJywgJzgnLCAnLW1hJywgJzIwMCcsICctbWV0YWxfYmluZGluZycsICctaW1hZScsICc8aW5maWxlLm1hZT4nLCAnLW9tYWUnLCAnPG91dGZpbGUubWFlPic=

> <r_epik_Ionization_Penalty>
1.68594

> <r_epik_Ionization_Penalty_Charging>
0

> <r_epik_Ionization_Penalty_Neutral>
1.68594

> <r_epik_State_Penalty>
1.79006

> <r_epik_Charging_Adjusted_Penalty>
1.79006

> <i_epik_Tot_Q>
1

> <i_epik_Tot_abs_Q>
1

> <r_epik_Metal_State_Penalty>
5.85324

> <b_epik_Metal_Only>
0

> <s_epik_Chemistry_Notes>
This compound has an imine and may undergo hydrolysis. This compound contains an acetal/aminal-like group ( X-CH(R)-Y where X, Y are N, S, or O) that may be acid/base labile, releasing an aldehyde.

> <s_lp_Force_Field>
OPLS_2005

> <r_lp_Energy>
53.8289

> <b_lp_Chiralities_Consistent>
1

> <s_lp_Variant>
AV-unprocessed.smi:157-30

> <Gold.Version>
5.8.1

> <Gold.Id.Protein>
6NUR|6NUR_protein|mol2

> <Gold.PLP.Fitness>
50.4995

> <Gold.PLP.PLP>
-35.8906

> <Gold.PLP.part.hbond>
-5.6562

> <Gold.PLP.part.metal>
0.0000

> <Gold.PLP.part.buried>
-1.5148

> <Gold.PLP.part.nonpolar>
-29.9364

> <Gold.PLP.part.repulsive>
0.0782

> <Gold.PLP.ligand.clash>
0.0000

> <Gold.PLP.ligand.torsion>
0.0965

> <Gold.PLP.Chemscore.Hbond>
4.9306

> <Gold.PLP.Chemscore.CHOScore>
0.0000

> <Gold.PLP.Chemscore.Metal>
0.0000

> <Gold.Chemscore.Hbonds>
donor molecule, donor type, donor heavy atom, donor atom, acceptor molecule, acceptor atom, score
      L1  H     8    36       P1  8028  1.85
      L1  H    16    32       P1  8029  1.00
      L1  H    19    35       P1  7949  0.51
      P1  H  7997  8009       L1     4  1.00
      P1  H  7997  8010       L1     1  0.46

> <Gold.PLP.Chemscore.Internal.Correction>
0.0100

> <Gold.Rescore>
     Score         DG    S(hbond)    S(metal)    S(lipo)     H(rot)  DE(clash)    DE(int)     intcor
     12.84     -15.08       3.40        0.00      65.18       3.67       2.01       0.23       ----

> <Gold.Chemscore.Fitness>
12.8381

> <Gold.Chemscore.DG>
-15.0794

> <Gold.Chemscore.ZeroCoef>
-5.4800

> <Gold.Chemscore.Hbond>
3.4005

> <Gold.Chemscore.Metal>
0.0000

> <Gold.Chemscore.Lipo>
65.1846

> <Gold.Chemscore.Internal_Hbond>
0.0000

> <Gold.Chemscore.DEClash>
2.0146

> <Gold.Chemscore.DEInternal>
0.2268

> <Gold.Chemscore.Rot>
3.6659

> <Gold.Chemscore.Internal.Correction>
   9.000000E+99

> <Gold.Chemscore.Hbonds>
donor molecule, donor type, donor heavy atom, donor atom, acceptor molecule, acceptor atom, score
      L1  H     8    36       P1  8028  0.86
      L1  H    16    32       P1  8029  0.69
      L1  H    19    35       P1  7949  0.39
      P1  H  7997  8009       L1     4  0.73
      P1  H  7997  8010       L1     1  0.45

> <Gold.Chemscore.Hbond.Weighted>
-11.3576

> <Gold.Chemscore.Metal.Weighted>
-0.0000

> <Gold.Chemscore.Lipo.Weighted>
-7.6266

> <Gold.Chemscore.Internal_Hbond.Weighted>
0.0000

> <Gold.Chemscore.DEClash.Weighted>
2.0146

> <Gold.Chemscore.DEInternal.Weighted>
0.2268

> <Gold.Chemscore.Rot.Weighted>
9.3848

> <Gold.Chemscore.Internal.Correction.Weighted>
   9.000000E+99

> <Gold.Protein.RotatedTorsions>
[ 6907 6896 6895 6894 ] final   -7.68 input  -60.11 | X-H torsion
[ 7974 7965 7964 7962 ] final   32.52 input  175.53 | X-H torsion
[ 8008 7997 7996 7995 ] final -178.75 input   59.86 | X-H torsion
[ 10167 10162 10161 10158 ] final  -98.20 input  -65.29 | X-H torsion
[ 10718 10713 10712 10709 ] final  -45.65 input   66.30 | X-H torsion
[ 10763 10752 10751 10750 ] final  134.11 input  -60.55 | X-H torsion
[ 11005 11000 10999 10996 ] final  150.80 input  -57.11 | X-H torsion

> <Gold.Protein.ActiveResidues>
 VAL166  LYS551  ARG553  GLY616  TRP617  ASP618  TYR619  PRO620  LYS621  CYS622 
 ASP623  PHE694  ASN695  SER759  ASP760  ASP761  ALA762  ILE779  LEU786  VAL792 
 PHE793  MET794  SER795  GLU796  ALA797  LYS798  CYS799  TRP800  GLU811  SER814 

> <Gold.Protein.RotatedAtoms>
  151.4457  135.1025  159.9682 H   0  0  0  0  0  0  0  0  0  0  0  0  # atno 6907 bound_to 6896
  152.4906  133.8487  159.7200 H   0  0  0  0  0  0  0  0  0  0  0  0  # atno 6908 bound_to 6896
  150.9057  133.7002  159.2895 H   0  0  0  0  0  0  0  0  0  0  0  0  # atno 6909 bound_to 6896
  146.1481  139.6515  142.9117 H   0  0  0  0  0  0  0  0  0  0  0  0  # atno 7974 bound_to 7965
  156.0225  140.1264  157.0343 H   0  0  0  0  0  0  0  0  0  0  0  0  # atno 8008 bound_to 7997
  154.4317  140.1066  156.6053 H   0  0  0  0  0  0  0  0  0  0  0  0  # atno 8009 bound_to 7997
  155.5925  140.3469  155.4572 H   0  0  0  0  0  0  0  0  0  0  0  0  # atno 8010 bound_to 7997
  140.2754  143.3316  152.0493 H   0  0  0  0  0  0  0  0  0  0  0  0  # atno 10167 bound_to 10162
  156.2262  130.4169  149.8931 H   0  0  0  0  0  0  0  0  0  0  0  0  # atno 10718 bound_to 10713
  153.8182  135.3120  155.3407 H   0  0  0  0  0  0  0  0  0  0  0  0  # atno 10763 bound_to 10752
  154.8023  135.4719  154.0310 H   0  0  0  0  0  0  0  0  0  0  0  0  # atno 10764 bound_to 10752
  153.1710  135.6878  153.8697 H   0  0  0  0  0  0  0  0  0  0  0  0  # atno 10765 bound_to 10752
  140.1163  134.8892  157.2009 H   0  0  0  0  0  0  0  0  0  0  0  0  # atno 11005 bound_to 11000
  145.4889  141.0438  143.2604 LP  0  0  0  0  0  0  0  0  0  0  0  0  # atno 17320 bound_to 7965
  144.7870  139.6405  143.7129 LP  0  0  0  0  0  0  0  0  0  0  0  0  # atno 17321 bound_to 7965
  139.4977  144.6628  151.6426 LP  0  0  0  0  0  0  0  0  0  0  0  0  # atno 17342 bound_to 10162
  140.5855  143.9871  150.6293 LP  0  0  0  0  0  0  0  0  0  0  0  0  # atno 17343 bound_to 10162
  156.6560  130.8763  151.3539 LP  0  0  0  0  0  0  0  0  0  0  0  0  # atno 17370 bound_to 10713
  157.7112  130.9442  150.1095 LP  0  0  0  0  0  0  0  0  0  0  0  0  # atno 17371 bound_to 10713
  140.3024  134.3116  155.7286 LP  0  0  0  0  0  0  0  0  0  0  0  0  # atno 17394 bound_to 11000
  141.2142  133.7600  156.9660 LP  0  0  0  0  0  0  0  0  0  0  0  0  # atno 17395 bound_to 11000

$$$$
