AV-unprocessed.smi:1815|AV-procd|sdf|7363|dock10
  -GOLD-   22720 9 23D 1   1.00000     0.00000
 Structure written by MMmdl.
 39 40  0  0  0  0  0  0  0  0  3 V2000
  148.2873  133.3605  152.8018 C   0  0  0  0  0  0  0  0  0  0  0  0
  146.7693  133.3405  153.0554 C   0  0  1  0  0  0  0  0  0  0  0  0
  146.1755  134.7321  153.3512 C   0  0  0  0  0  0  0  0  0  0  0  0
  146.1015  135.5560  152.1214 N   0  3  2  0  0  0  0  0  0  0  0  0
  145.5953  136.9252  152.3869 C   0  0  0  0  0  0  0  0  0  0  0  0
  146.4492  138.0041  151.7035 C   0  0  0  0  0  0  0  0  0  0  0  0
  147.7191  138.1612  152.3979 N   0  0  0  0  0  0  0  0  0  0  0  0
  147.9032  138.8840  153.5102 C   0  0  0  0  0  0  0  0  0  0  0  0
  146.9496  139.4756  154.0217 O   0  0  0  0  0  0  0  0  0  0  0  0
  149.1784  138.8754  153.9585 N   0  5  0  0  0  0  0  0  0  0  0  0
  149.6284  139.8828  154.7242 C   0  0  0  0  0  0  0  0  0  0  0  0
  150.9064  139.9950  155.1040 N   0  0  0  0  0  0  0  0  0  0  0  0
  151.1525  141.1140  155.9016 C   0  0  0  0  0  0  0  0  0  0  0  0
  150.0338  141.8668  156.1419 C   0  0  0  0  0  0  0  0  0  0  0  0
  148.6298  141.1889  155.3685 S   0  0  0  0  0  0  0  0  0  0  0  0
  145.3464  134.8374  151.0668 C   0  0  0  0  0  0  0  0  0  0  0  0
  145.9891  133.4674  150.7849 C   0  0  2  0  0  0  0  0  0  0  0  0
  145.1853  132.6554  149.7632 C   0  0  0  0  0  0  0  0  0  0  0  0
  146.0513  132.7132  151.9928 O   0  0  0  0  0  0  0  0  0  0  0  0
  148.8203  133.7205  153.6820 H   0  0  0  0  0  0  0  0  0  0  0  0
  148.5613  134.0096  151.9706 H   0  0  0  0  0  0  0  0  0  0  0  0
  148.6573  132.3590  152.5811 H   0  0  0  0  0  0  0  0  0  0  0  0
  146.6072  132.7179  153.9359 H   0  0  0  0  0  0  0  0  0  0  0  0
  145.1716  134.6226  153.7653 H   0  0  0  0  0  0  0  0  0  0  0  0
  146.7757  135.2376  154.1090 H   0  0  0  0  0  0  0  0  0  0  0  0
  144.5510  137.0021  152.0796 H   0  0  0  0  0  0  0  0  0  0  0  0
  145.6158  137.1102  153.4623 H   0  0  0  0  0  0  0  0  0  0  0  0
  146.6363  137.7304  150.6637 H   0  0  0  0  0  0  0  0  0  0  0  0
  145.9371  138.9665  151.6991 H   0  0  0  0  0  0  0  0  0  0  0  0
  148.5238  137.6913  152.0088 H   0  0  0  0  0  0  0  0  0  0  0  0
  152.1557  141.2967  156.2563 H   0  0  0  0  0  0  0  0  0  0  0  0
  149.9495  142.7724  156.7234 H   0  0  0  0  0  0  0  0  0  0  0  0
  144.3094  134.7115  151.3827 H   0  0  0  0  0  0  0  0  0  0  0  0
  145.3297  135.4203  150.1466 H   0  0  0  0  0  0  0  0  0  0  0  0
  146.9938  133.6097  150.3864 H   0  0  0  0  0  0  0  0  0  0  0  0
  145.1132  133.1828  148.8118 H   0  0  0  0  0  0  0  0  0  0  0  0
  144.1718  132.4646  150.1177 H   0  0  0  0  0  0  0  0  0  0  0  0
  145.6581  131.6916  149.5729 H   0  0  0  0  0  0  0  0  0  0  0  0
  147.0506  135.6608  151.7916 H   0  0  0  0  0  0  0  0  0  0  0  0
  1  2  1  0  0  0  0
  1 20  1  0  0  0  0
  1 21  1  0  0  0  0
  1 22  1  0  0  0  0
  2 19  1  0  0  0  0
  2  3  1  0  0  0  0
  2 23  1  0  0  0  0
  3  4  1  0  0  0  0
  3 24  1  0  0  0  0
  3 25  1  0  0  0  0
  4  5  1  0  0  0  0
  4 16  1  0  0  0  0
  4 39  1  0  0  0  0
  5  6  1  0  0  0  0
  5 26  1  0  0  0  0
  5 27  1  0  0  0  0
  6  7  1  0  0  0  0
  6 28  1  0  0  0  0
  6 29  1  0  0  0  0
  7  8  1  0  0  0  0
  7 30  1  0  0  0  0
  8  9  2  0  0  0  0
  8 10  1  0  0  0  0
 10 11  1  0  0  0  0
 11 15  1  0  0  0  0
 11 12  2  0  0  0  0
 12 13  1  0  0  0  0
 13 14  2  0  0  0  0
 13 31  1  0  0  0  0
 14 15  1  0  0  0  0
 14 32  1  0  0  0  0
 16 17  1  0  0  0  0
 16 33  1  0  0  0  0
 16 34  1  0  0  0  0
 17 18  1  0  0  0  0
 17 19  1  0  0  0  0
 17 35  1  0  0  0  0
 18 36  1  0  0  0  0
 18 37  1  0  0  0  0
 18 38  1  0  0  0  0
M  CHG  1   4   1
M  CHG  1  10  -1
M  END
> <s_m_source_file>
AV-unprocessed.smi

> <i_m_source_file_index>
1815

> <i_lp_mmshare_version>
43012

> <i_f3d_flags>
0

> <s_epik_input>
W0NIM11bQ0BASF0xW0NIMl1OKFtDSDJdW0NASF0oTzEpW0NIM10pW0NIMl1bQ0gyXVtOSF1DKD1PKVtOSF1jMm5bY0hdW2NIXXMy

> <s_epik_cmdline>
J2VwaWtfcHl0aG9uJywgJy1waCcsICc3LjAnLCAnLXRuJywgJzgnLCAnLW1hJywgJzIwMCcsICctbWV0YWxfYmluZGluZycsICctaW1hZScsICc8aW5maWxlLm1hZT4nLCAnLW9tYWUnLCAnPG91dGZpbGUubWFlPic=

> <r_lp_tautomer_probability>
0.999

> <r_epik_Ionization_Penalty>
6.71699

> <r_epik_Ionization_Penalty_Charging>
5.88592

> <r_epik_Ionization_Penalty_Neutral>
0.831074

> <r_epik_State_Penalty>
6.08365

> <r_epik_Charging_Adjusted_Penalty>
11.9696

> <i_epik_Tot_Q>
0

> <i_epik_Tot_abs_Q>
2

> <r_epik_Metal_State_Penalty>
2.0947

> <b_epik_Metal_Only>
1

> <s_lp_Force_Field>
OPLS_2005

> <r_lp_Energy>
8.63778

> <b_lp_Chiralities_Consistent>
1

> <s_lp_Variant>
AV-unprocessed.smi:1815-14

> <Gold.Version>
5.8.1

> <Gold.Id.Protein>
6NUR|6NUR_protein|mol2

> <Gold.PLP.Fitness>
40.1435

> <Gold.PLP.PLP>
-29.4073

> <Gold.PLP.part.hbond>
-3.4645

> <Gold.PLP.part.metal>
0.0000

> <Gold.PLP.part.buried>
0.7732

> <Gold.PLP.part.nonpolar>
-26.5878

> <Gold.PLP.part.repulsive>
1.1084

> <Gold.PLP.ligand.clash>
0.0000

> <Gold.PLP.ligand.torsion>
0.9531

> <Gold.PLP.Chemscore.Hbond>
3.4360

> <Gold.PLP.Chemscore.CHOScore>
0.7633

> <Gold.PLP.Chemscore.Metal>
0.0000

> <Gold.Chemscore.Hbonds>
donor molecule, donor type, donor heavy atom, donor atom, acceptor molecule, acceptor atom, score
      L1  H     4    39       P1  7948  2.00
      L1  H     7    30       P1  7948  0.67
      P1  H  7989  7998       L1    12  0.57
      L1  C    14    32       P1  8028  0.76

> <Gold.PLP.Chemscore.Internal.Correction>
0.0446

> <Gold.Rescore>
     Score         DG    S(hbond)    S(metal)    S(lipo)     H(rot)  DE(clash)    DE(int)     intcor
     12.44     -15.14       1.79        0.00      66.51       1.61       0.28       2.42       ----

> <Gold.Chemscore.Fitness>
12.4395

> <Gold.Chemscore.DG>
-15.1383

> <Gold.Chemscore.ZeroCoef>
-5.4800

> <Gold.Chemscore.Hbond>
1.7928

> <Gold.Chemscore.Metal>
0.0000

> <Gold.Chemscore.Lipo>
66.5085

> <Gold.Chemscore.Internal_Hbond>
0.0000

> <Gold.Chemscore.DEClash>
0.2820

> <Gold.Chemscore.DEInternal>
2.4168

> <Gold.Chemscore.Rot>
1.6060

> <Gold.Chemscore.Internal.Correction>
   9.000000E+99

> <Gold.Chemscore.Hbonds>
donor molecule, donor type, donor heavy atom, donor atom, acceptor molecule, acceptor atom, score
      L1  H     4    39       P1  7948  0.98
      L1  H     7    30       P1  7948  0.64
      P1  H  7989  7998       L1    12  0.01

> <Gold.Chemscore.Hbond.Weighted>
-5.9880

> <Gold.Chemscore.Metal.Weighted>
-0.0000

> <Gold.Chemscore.Lipo.Weighted>
-7.7815

> <Gold.Chemscore.Internal_Hbond.Weighted>
0.0000

> <Gold.Chemscore.DEClash.Weighted>
0.2820

> <Gold.Chemscore.DEInternal.Weighted>
2.4168

> <Gold.Chemscore.Rot.Weighted>
4.1112

> <Gold.Chemscore.Internal.Correction.Weighted>
   9.000000E+99

> <Gold.Protein.RotatedTorsions>
[ 6907 6896 6895 6894 ] final -102.12 input  -60.11 | X-H torsion
[ 7974 7965 7964 7962 ] final -119.79 input  175.53 | X-H torsion
[ 8008 7997 7996 7995 ] final  -80.88 input   59.86 | X-H torsion
[ 10167 10162 10161 10158 ] final -117.33 input  -65.29 | X-H torsion
[ 10718 10713 10712 10709 ] final  146.59 input   66.30 | X-H torsion
[ 10763 10752 10751 10750 ] final   -0.30 input  -60.55 | X-H torsion
[ 11005 11000 10999 10996 ] final   71.27 input  -57.11 | X-H torsion

> <Gold.Protein.ActiveResidues>
 VAL166  LYS551  ARG553  GLY616  TRP617  ASP618  TYR619  PRO620  LYS621  CYS622 
 ASP623  PHE694  ASN695  SER759  ASP760  ASP761  ALA762  ILE779  LEU786  VAL792 
 PHE793  MET794  SER795  GLU796  ALA797  LYS798  CYS799  TRP800  GLU811  SER814 

> <Gold.Protein.RotatedAtoms>
  150.7182  134.0630  159.3837 H   0  0  0  0  0  0  0  0  0  0  0  0  # atno 6907 bound_to 6896
  151.8610  135.0522  160.0478 H   0  0  0  0  0  0  0  0  0  0  0  0  # atno 6908 bound_to 6896
  152.2717  133.5352  159.5479 H   0  0  0  0  0  0  0  0  0  0  0  0  # atno 6909 bound_to 6896
  145.0586  140.8273  143.4166 H   0  0  0  0  0  0  0  0  0  0  0  0  # atno 7974 bound_to 7965
  154.5927  140.0656  156.9261 H   0  0  0  0  0  0  0  0  0  0  0  0  # atno 8008 bound_to 7997
  155.2267  140.3334  155.4290 H   0  0  0  0  0  0  0  0  0  0  0  0  # atno 8009 bound_to 7997
  156.2267  140.1822  156.7330 H   0  0  0  0  0  0  0  0  0  0  0  0  # atno 8010 bound_to 7997
  140.0695  143.4891  152.1988 H   0  0  0  0  0  0  0  0  0  0  0  0  # atno 10167 bound_to 10162
  157.3313  131.0921  151.1160 H   0  0  0  0  0  0  0  0  0  0  0  0  # atno 10718 bound_to 10713
  153.3301  135.6974  153.6955 H   0  0  0  0  0  0  0  0  0  0  0  0  # atno 10763 bound_to 10752
  153.5761  135.3507  155.2857 H   0  0  0  0  0  0  0  0  0  0  0  0  # atno 10764 bound_to 10752
  154.8616  135.4284  154.2488 H   0  0  0  0  0  0  0  0  0  0  0  0  # atno 10765 bound_to 10752
  139.9552  134.7156  156.0769 H   0  0  0  0  0  0  0  0  0  0  0  0  # atno 11005 bound_to 11000
  145.1437  139.2556  143.5477 LP  0  0  0  0  0  0  0  0  0  0  0  0  # atno 17320 bound_to 7965
  146.3523  140.1121  142.8603 LP  0  0  0  0  0  0  0  0  0  0  0  0  # atno 17321 bound_to 7965
  139.5845  144.7525  151.3556 LP  0  0  0  0  0  0  0  0  0  0  0  0  # atno 17342 bound_to 10162
  140.7132  143.7334  150.7606 LP  0  0  0  0  0  0  0  0  0  0  0  0  # atno 17343 bound_to 10162
  157.2407  130.6568  149.5888 LP  0  0  0  0  0  0  0  0  0  0  0  0  # atno 17370 bound_to 10713
  155.9696  130.4569  150.5943 LP  0  0  0  0  0  0  0  0  0  0  0  0  # atno 17371 bound_to 10713
  141.1222  133.6609  156.3245 LP  0  0  0  0  0  0  0  0  0  0  0  0  # atno 17394 bound_to 11000
  140.5625  134.5920  157.5437 LP  0  0  0  0  0  0  0  0  0  0  0  0  # atno 17395 bound_to 11000

$$$$
