AV-unprocessed.smi:2252|AV-procd|sdf|9112|dock10
  -GOLD-   2272012313D 1   1.00000     0.00000
 Structure written by MMmdl.
 44 46  0  0  0  0  0  0  0  0  3 V2000
  151.4610  144.7690  159.0036 C   0  0  0  0  0  0  0  0  0  0  0  0
  151.8856  143.8864  160.0739 N   0  0  0  0  0  0  0  0  0  0  0  0
  151.9885  144.2304  161.4154 C   0  0  0  0  0  0  0  0  0  0  0  0
  152.4175  143.1071  162.0790 C   0  0  0  0  0  0  0  0  0  0  0  0
  152.5825  142.0690  161.1691 N   0  0  0  0  0  0  0  0  0  0  0  0
  152.2545  142.5904  159.9874 C   0  0  0  0  0  0  0  0  0  0  0  0
  152.2784  141.8198  158.6940 C   0  0  0  0  0  0  0  0  0  0  0  0
  150.8935  141.3249  158.2192 C   0  0  0  0  0  0  0  0  0  0  0  0
  151.0362  140.4835  157.0328 N   0  5  0  0  0  0  0  0  0  0  0  0
  150.0379  139.7024  156.5289 C   0  0  0  0  0  0  0  0  0  0  0  0
  149.0642  139.1899  157.0895 O   0  0  0  0  0  0  0  0  0  0  0  0
  150.2150  139.4604  155.0172 C   0  0  1  0  0  0  0  0  0  0  0  0
  150.4401  137.9540  154.7457 C   0  0  0  0  0  0  0  0  0  0  0  0
  149.6515  136.9059  155.5016 C   0  0  0  0  0  0  0  0  0  0  0  0
  151.1272  137.0656  155.7605 C   0  0  0  0  0  0  0  0  0  0  0  0
  149.0776  140.0059  154.2224 N   0  3  0  0  0  0  0  0  0  0  0  0
  147.8119  139.2475  154.3172 C   0  0  0  0  0  0  0  0  0  0  0  0
  146.7496  140.2038  153.7880 C   0  0  0  0  0  0  0  0  0  0  0  0
  147.2210  141.5689  154.2841 C   0  0  0  0  0  0  0  0  0  0  0  0
  148.7377  141.4257  154.4804 C   0  0  0  0  0  0  0  0  0  0  0  0
  151.2820  145.7720  159.3913 H   0  0  0  0  0  0  0  0  0  0  0  0
  150.5392  144.3933  158.5593 H   0  0  0  0  0  0  0  0  0  0  0  0
  152.2348  144.8215  158.2375 H   0  0  0  0  0  0  0  0  0  0  0  0
  151.7530  145.2200  161.7781 H   0  0  0  0  0  0  0  0  0  0  0  0
  152.6175  142.9664  163.1309 H   0  0  0  0  0  0  0  0  0  0  0  0
  152.7159  142.4658  157.9316 H   0  0  0  0  0  0  0  0  0  0  0  0
  152.9627  140.9765  158.7922 H   0  0  0  0  0  0  0  0  0  0  0  0
  150.4243  140.7667  159.0297 H   0  0  0  0  0  0  0  0  0  0  0  0
  150.2413  142.1810  158.0416 H   0  0  0  0  0  0  0  0  0  0  0  0
  151.1131  139.9977  154.7067 H   0  0  0  0  0  0  0  0  0  0  0  0
  150.6307  137.7207  153.6993 H   0  0  0  0  0  0  0  0  0  0  0  0
  148.9667  137.2465  156.2761 H   0  0  0  0  0  0  0  0  0  0  0  0
  149.3275  136.0278  154.9468 H   0  0  0  0  0  0  0  0  0  0  0  0
  151.7920  136.2929  155.3801 H   0  0  0  0  0  0  0  0  0  0  0  0
  151.4218  137.5078  156.7100 H   0  0  0  0  0  0  0  0  0  0  0  0
  147.8453  138.3170  153.7495 H   0  0  0  0  0  0  0  0  0  0  0  0
  147.6047  139.0030  155.3603 H   0  0  0  0  0  0  0  0  0  0  0  0
  146.7507  140.1864  152.6973 H   0  0  0  0  0  0  0  0  0  0  0  0
  145.7446  139.9514  154.1274 H   0  0  0  0  0  0  0  0  0  0  0  0
  146.9663  142.3671  153.5860 H   0  0  0  0  0  0  0  0  0  0  0  0
  146.7469  141.8019  155.2385 H   0  0  0  0  0  0  0  0  0  0  0  0
  148.9962  141.7106  155.5009 H   0  0  0  0  0  0  0  0  0  0  0  0
  149.2977  142.0692  153.8012 H   0  0  0  0  0  0  0  0  0  0  0  0
  149.3598  139.9502  153.2538 H   0  0  0  0  0  0  0  0  0  0  0  0
  1  2  1  0  0  0  0
  1 21  1  0  0  0  0
  1 22  1  0  0  0  0
  1 23  1  0  0  0  0
  2  6  1  0  0  0  0
  2  3  1  0  0  0  0
  3  4  2  0  0  0  0
  3 24  1  0  0  0  0
  4  5  1  0  0  0  0
  4 25  1  0  0  0  0
  5  6  2  0  0  0  0
  6  7  1  0  0  0  0
  7  8  1  0  0  0  0
  7 26  1  0  0  0  0
  7 27  1  0  0  0  0
  8  9  1  0  0  0  0
  8 28  1  0  0  0  0
  8 29  1  0  0  0  0
  9 10  1  0  0  0  0
 10 11  2  0  0  0  0
 10 12  1  0  0  0  0
 12 13  1  0  0  0  0
 12 16  1  0  0  0  0
 12 30  1  0  0  0  0
 13 15  1  0  0  0  0
 13 14  1  0  0  0  0
 13 31  1  0  0  0  0
 14 15  1  0  0  0  0
 14 32  1  0  0  0  0
 14 33  1  0  0  0  0
 15 34  1  0  0  0  0
 15 35  1  0  0  0  0
 16 20  1  0  0  0  0
 16 17  1  0  0  0  0
 16 44  1  0  0  0  0
 17 18  1  0  0  0  0
 17 36  1  0  0  0  0
 17 37  1  0  0  0  0
 18 19  1  0  0  0  0
 18 38  1  0  0  0  0
 18 39  1  0  0  0  0
 19 20  1  0  0  0  0
 19 40  1  0  0  0  0
 19 41  1  0  0  0  0
 20 42  1  0  0  0  0
 20 43  1  0  0  0  0
M  CHG  1   9  -1
M  CHG  1  16   1
M  END
> <s_m_source_file>
AV-unprocessed.smi

> <i_m_source_file_index>
2252

> <i_lp_mmshare_version>
43012

> <i_f3d_flags>
0

> <s_epik_input>
W0NIM11uMVtjSF1bY0hdbmMxW0NIMl1bQ0gyXVtOSF1DKD1PKVtDQEhdKFtDSF0yW0NIMl1bQ0gyXTIpTjNbQ0gyXVtDSDJdW0NIMl1bQ0gyXTM=

> <s_epik_cmdline>
J2VwaWtfcHl0aG9uJywgJy1waCcsICc3LjAnLCAnLXRuJywgJzgnLCAnLW1hJywgJzIwMCcsICctbWV0YWxfYmluZGluZycsICctaW1hZScsICc8aW5maWxlLm1hZT4nLCAnLW9tYWUnLCAnPG91dGZpbGUubWFlPic=

> <r_lp_tautomer_probability>
1

> <r_epik_Ionization_Penalty>
7.86289

> <r_epik_Ionization_Penalty_Charging>
7.86289

> <r_epik_Ionization_Penalty_Neutral>
4.79398e-13

> <r_epik_State_Penalty>
7.18546

> <r_epik_Charging_Adjusted_Penalty>
15.0484

> <i_epik_Tot_Q>
0

> <i_epik_Tot_abs_Q>
2

> <r_epik_Metal_State_Penalty>
3.4294

> <b_epik_Metal_Only>
1

> <s_lp_Force_Field>
OPLS_2005

> <r_lp_Energy>
30.1163

> <b_lp_Chiralities_Consistent>
1

> <s_lp_Variant>
AV-unprocessed.smi:2252-10

> <Gold.Version>
5.8.1

> <Gold.Id.Protein>
6NUR|6NUR_protein|mol2

> <Gold.PLP.Fitness>
47.2326

> <Gold.PLP.PLP>
-45.3158

> <Gold.PLP.part.hbond>
-1.0000

> <Gold.PLP.part.metal>
0.0000

> <Gold.PLP.part.buried>
-4.0429

> <Gold.PLP.part.nonpolar>
-40.2479

> <Gold.PLP.part.repulsive>
0.1909

> <Gold.PLP.ligand.clash>
0.0000

> <Gold.PLP.ligand.torsion>
1.1280

> <Gold.PLP.Chemscore.Hbond>
1.0000

> <Gold.PLP.Chemscore.CHOScore>
0.0000

> <Gold.PLP.Chemscore.Metal>
0.0000

> <Gold.Chemscore.Hbonds>
donor molecule, donor type, donor heavy atom, donor atom, acceptor molecule, acceptor atom, score
      L1  H    16    44       P1  7957  0.80

> <Gold.PLP.Chemscore.Internal.Correction>
1.1729

> <Gold.Rescore>
     Score         DG    S(hbond)    S(metal)    S(lipo)     H(rot)  DE(clash)    DE(int)     intcor
     12.42     -16.65       1.00        0.00     108.12       1.88       0.50       3.73       ----

> <Gold.Chemscore.Fitness>
12.4240

> <Gold.Chemscore.DG>
-16.6543

> <Gold.Chemscore.ZeroCoef>
-5.4800

> <Gold.Chemscore.Hbond>
1.0000

> <Gold.Chemscore.Metal>
0.0000

> <Gold.Chemscore.Lipo>
108.1248

> <Gold.Chemscore.Internal_Hbond>
0.0000

> <Gold.Chemscore.DEClash>
0.4966

> <Gold.Chemscore.DEInternal>
3.7337

> <Gold.Chemscore.Rot>
1.8814

> <Gold.Chemscore.Internal.Correction>
   9.000000E+99

> <Gold.Chemscore.Hbonds>
donor molecule, donor type, donor heavy atom, donor atom, acceptor molecule, acceptor atom, score
      L1  H    16    44       P1  7957  0.79

> <Gold.Chemscore.Hbond.Weighted>
-3.3400

> <Gold.Chemscore.Metal.Weighted>
-0.0000

> <Gold.Chemscore.Lipo.Weighted>
-12.6506

> <Gold.Chemscore.Internal_Hbond.Weighted>
0.0000

> <Gold.Chemscore.DEClash.Weighted>
0.4966

> <Gold.Chemscore.DEInternal.Weighted>
3.7337

> <Gold.Chemscore.Rot.Weighted>
4.8163

> <Gold.Chemscore.Internal.Correction.Weighted>
   9.000000E+99

> <Gold.Protein.RotatedTorsions>
[ 6907 6896 6895 6894 ] final   64.24 input  -60.11 | X-H torsion
[ 7974 7965 7964 7962 ] final   75.25 input  175.53 | X-H torsion
[ 8008 7997 7996 7995 ] final  -22.63 input   59.86 | X-H torsion
[ 10167 10162 10161 10158 ] final   10.02 input  -65.29 | X-H torsion
[ 10718 10713 10712 10709 ] final  174.66 input   66.30 | X-H torsion
[ 10763 10752 10751 10750 ] final -147.10 input  -60.55 | X-H torsion
[ 11005 11000 10999 10996 ] final   96.72 input  -57.11 | X-H torsion

> <Gold.Protein.ActiveResidues>
 VAL166  LYS551  ARG553  GLY616  TRP617  ASP618  TYR619  PRO620  LYS621  CYS622 
 ASP623  PHE694  ASN695  SER759  ASP760  ASP761  ALA762  ILE779  LEU786  VAL792 
 PHE793  MET794  SER795  GLU796  ALA797  LYS798  CYS799  TRP800  GLU811  SER814 

> <Gold.Protein.RotatedAtoms>
  152.4316  134.5767  159.9936 H   0  0  0  0  0  0  0  0  0  0  0  0  # atno 6907 bound_to 6896
  151.5889  133.3363  159.3031 H   0  0  0  0  0  0  0  0  0  0  0  0  # atno 6908 bound_to 6896
  150.8209  134.7452  159.6836 H   0  0  0  0  0  0  0  0  0  0  0  0  # atno 6909 bound_to 6896
  145.7180  139.2638  143.1612 H   0  0  0  0  0  0  0  0  0  0  0  0  # atno 7974 bound_to 7965
  154.4633  140.2002  156.0186 H   0  0  0  0  0  0  0  0  0  0  0  0  # atno 8008 bound_to 7997
  156.0880  140.3262  155.7750 H   0  0  0  0  0  0  0  0  0  0  0  0  # atno 8009 bound_to 7997
  155.5003  140.0553  157.2931 H   0  0  0  0  0  0  0  0  0  0  0  0  # atno 8010 bound_to 7997
  140.6220  143.8184  150.7186 H   0  0  0  0  0  0  0  0  0  0  0  0  # atno 10167 bound_to 10162
  156.9463  131.0017  151.2958 H   0  0  0  0  0  0  0  0  0  0  0  0  # atno 10718 bound_to 10713
  154.8303  135.3369  154.6766 H   0  0  0  0  0  0  0  0  0  0  0  0  # atno 10763 bound_to 10752
  153.7387  135.6947  153.4976 H   0  0  0  0  0  0  0  0  0  0  0  0  # atno 10764 bound_to 10752
  153.2260  135.4433  155.0493 H   0  0  0  0  0  0  0  0  0  0  0  0  # atno 10765 bound_to 10752
  139.8780  134.8965  156.4201 H   0  0  0  0  0  0  0  0  0  0  0  0  # atno 11005 bound_to 11000
  146.0652  140.7929  142.9715 LP  0  0  0  0  0  0  0  0  0  0  0  0  # atno 17320 bound_to 7965
  144.6924  140.3257  143.7224 LP  0  0  0  0  0  0  0  0  0  0  0  0  # atno 17321 bound_to 7965
  140.1776  143.4141  152.1956 LP  0  0  0  0  0  0  0  0  0  0  0  0  # atno 17342 bound_to 10162
  139.5446  144.7287  151.4623 LP  0  0  0  0  0  0  0  0  0  0  0  0  # atno 17343 bound_to 10162
  157.5751  130.8337  149.8445 LP  0  0  0  0  0  0  0  0  0  0  0  0  # atno 17370 bound_to 10713
  156.0382  130.3746  150.1504 LP  0  0  0  0  0  0  0  0  0  0  0  0  # atno 17371 bound_to 10713
  140.9140  133.7692  155.9825 LP  0  0  0  0  0  0  0  0  0  0  0  0  # atno 17394 bound_to 11000
  140.8515  134.2949  157.5273 LP  0  0  0  0  0  0  0  0  0  0  0  0  # atno 17395 bound_to 11000

$$$$
