AV-unprocessed.smi:152|AV-procd|sdf|1247|dock5
  -GOLD-   2262018473D 1   1.00000     0.00000
 Structure written by MMmdl.
 58 61  0  0  0  0  0  0  0  0  2 V2000
  148.5327  132.9611  153.1051 C   0  0  0  0  0  0  0  0  0  0  0  0
  147.3863  131.9555  153.2731 C   0  0  0  0  0  0  0  0  0  0  0  0
  146.7278  131.6460  151.9801 N   0  3  1  0  0  0  0  0  0  0  0  0
  145.7046  130.5750  152.0217 C   0  0  0  0  0  0  0  0  0  0  0  0
  144.6971  130.8893  150.9071 C   0  0  0  0  0  0  0  0  0  0  0  0
  145.2922  132.0882  150.1701 C   0  0  0  0  0  0  0  0  0  0  0  0
  146.1491  132.7880  151.2315 C   0  0  1  0  0  0  0  0  0  0  0  0
  145.3405  133.7535  152.1389 C   0  0  0  0  0  0  0  0  0  0  0  0
  145.4806  135.1607  151.7509 N   0  0  0  0  0  0  0  0  0  0  0  0
  145.0992  135.5309  150.3931 C   0  0  0  0  0  0  0  0  0  0  0  0
  145.8053  136.1243  152.6645 C   0  0  0  0  0  0  0  0  0  0  0  0
  145.7116  135.8196  153.9873 N   0  0  0  0  0  0  0  0  0  0  0  0
  146.0058  136.7201  154.9273 C   0  0  0  0  0  0  0  0  0  0  0  0
  146.4104  137.9793  154.7737 N   0  0  0  0  0  0  0  0  0  0  0  0
  146.5110  138.3060  153.4547 C   0  0  0  0  0  0  0  0  0  0  0  0
  146.2369  137.4512  152.3454 C   0  0  0  0  0  0  0  0  0  0  0  0
  146.4639  138.1524  151.1641 N   0  0  0  0  0  0  0  0  0  0  0  0
  146.8473  139.3372  151.5499 C   0  0  0  0  0  0  0  0  0  0  0  0
  146.8915  139.5207  152.9114 N   0  0  0  0  0  0  0  0  0  0  0  0
  147.2737  140.7360  153.6148 C   0  0  0  0  0  0  0  0  0  0  0  0
  148.6878  140.6829  154.2462 C   0  0  0  0  0  0  0  0  0  0  0  0
  149.6239  141.0482  153.2470 O   0  0  0  0  0  0  0  0  0  0  0  0
  148.7936  141.6950  155.4047 C   0  0  0  0  0  0  0  0  0  0  0  0
  150.1186  141.5603  156.1760 C   0  0  0  0  0  0  0  0  0  0  0  0
  150.2766  140.2252  156.6404 O   0  0  0  0  0  0  0  0  0  0  0  0
  150.3635  139.2818  155.5795 C   0  0  0  0  0  0  0  0  0  0  0  0
  149.0567  139.2759  154.7665 C   0  0  0  0  0  0  0  0  0  0  0  0
  148.9676  133.2141  154.0723 H   0  0  0  0  0  0  0  0  0  0  0  0
  148.1818  133.8866  152.6477 H   0  0  0  0  0  0  0  0  0  0  0  0
  149.3320  132.5590  152.4818 H   0  0  0  0  0  0  0  0  0  0  0  0
  147.7568  131.0419  153.7403 H   0  0  0  0  0  0  0  0  0  0  0  0
  146.6455  132.3832  153.9500 H   0  0  0  0  0  0  0  0  0  0  0  0
  146.1796  129.6046  151.8741 H   0  0  0  0  0  0  0  0  0  0  0  0
  145.1972  130.5554  152.9873 H   0  0  0  0  0  0  0  0  0  0  0  0
  144.5312  130.0412  150.2422 H   0  0  0  0  0  0  0  0  0  0  0  0
  143.7349  131.1599  151.3436 H   0  0  0  0  0  0  0  0  0  0  0  0
  145.9383  131.7296  149.3675 H   0  0  0  0  0  0  0  0  0  0  0  0
  144.5378  132.7235  149.7081 H   0  0  0  0  0  0  0  0  0  0  0  0
  146.9593  133.3413  150.7551 H   0  0  0  0  0  0  0  0  0  0  0  0
  144.2993  133.4390  152.2014 H   0  0  0  0  0  0  0  0  0  0  0  0
  145.7099  133.6863  153.1620 H   0  0  0  0  0  0  0  0  0  0  0  0
  144.1972  136.1434  150.3991 H   0  0  0  0  0  0  0  0  0  0  0  0
  144.8942  134.6472  149.7881 H   0  0  0  0  0  0  0  0  0  0  0  0
  145.9015  136.0830  149.9031 H   0  0  0  0  0  0  0  0  0  0  0  0
  145.9011  136.3839  155.9483 H   0  0  0  0  0  0  0  0  0  0  0  0
  147.1007  140.1176  150.8470 H   0  0  0  0  0  0  0  0  0  0  0  0
  147.2006  141.5731  152.9188 H   0  0  0  0  0  0  0  0  0  0  0  0
  146.5273  140.9217  154.3886 H   0  0  0  0  0  0  0  0  0  0  0  0
  149.6723  140.3511  152.6109 H   0  0  0  0  0  0  0  0  0  0  0  0
  148.6780  142.7145  155.0342 H   0  0  0  0  0  0  0  0  0  0  0  0
  147.9718  141.5301  156.1030 H   0  0  0  0  0  0  0  0  0  0  0  0
  150.9684  141.8448  155.5536 H   0  0  0  0  0  0  0  0  0  0  0  0
  150.1190  142.2315  157.0348 H   0  0  0  0  0  0  0  0  0  0  0  0
  151.2210  139.5094  154.9446 H   0  0  0  0  0  0  0  0  0  0  0  0
  150.5408  138.2936  156.0045 H   0  0  0  0  0  0  0  0  0  0  0  0
  148.2530  138.9072  155.4053 H   0  0  0  0  0  0  0  0  0  0  0  0
  149.1450  138.5663  153.9429 H   0  0  0  0  0  0  0  0  0  0  0  0
  147.4551  131.2939  151.3741 H   0  0  0  0  0  0  0  0  0  0  0  0
  1  2  1  0  0  0  0
  1 28  1  0  0  0  0
  1 29  1  0  0  0  0
  1 30  1  0  0  0  0
  2  3  1  0  0  0  0
  2 31  1  0  0  0  0
  2 32  1  0  0  0  0
  3  7  1  0  0  0  0
  3  4  1  0  0  0  0
  3 58  1  0  0  0  0
  4  5  1  0  0  0  0
  4 33  1  0  0  0  0
  4 34  1  0  0  0  0
  5  6  1  0  0  0  0
  5 35  1  0  0  0  0
  5 36  1  0  0  0  0
  6  7  1  0  0  0  0
  6 37  1  0  0  0  0
  6 38  1  0  0  0  0
  7  8  1  0  0  0  0
  7 39  1  0  0  0  0
  8  9  1  0  0  0  0
  8 40  1  0  0  0  0
  8 41  1  0  0  0  0
  9 10  1  0  0  0  0
  9 11  1  0  0  0  0
 10 42  1  0  0  0  0
 10 43  1  0  0  0  0
 10 44  1  0  0  0  0
 11 16  1  0  0  0  0
 11 12  2  0  0  0  0
 12 13  1  0  0  0  0
 13 14  2  0  0  0  0
 13 45  1  0  0  0  0
 14 15  1  0  0  0  0
 15 19  1  0  0  0  0
 15 16  2  0  0  0  0
 16 17  1  0  0  0  0
 17 18  2  0  0  0  0
 18 19  1  0  0  0  0
 18 46  1  0  0  0  0
 19 20  1  0  0  0  0
 20 21  1  0  0  0  0
 20 47  1  0  0  0  0
 20 48  1  0  0  0  0
 21 27  1  0  0  0  0
 21 22  1  0  0  0  0
 21 23  1  0  0  0  0
 22 49  1  0  0  0  0
 23 24  1  0  0  0  0
 23 50  1  0  0  0  0
 23 51  1  0  0  0  0
 24 25  1  0  0  0  0
 24 52  1  0  0  0  0
 24 53  1  0  0  0  0
 25 26  1  0  0  0  0
 26 27  1  0  0  0  0
 26 54  1  0  0  0  0
 26 55  1  0  0  0  0
 27 56  1  0  0  0  0
 27 57  1  0  0  0  0
M  CHG  1   3   1
M  END
> <s_m_source_file>
AV-unprocessed.smi

> <i_m_source_file_index>
152

> <i_lp_mmshare_version>
43012

> <i_f3d_flags>
0

> <s_epik_input>
W0NIM11bQ0gyXU4xW0NIMl1bQ0gyXVtDSDJdW0NASF0xW0NIMl1OKFtDSDNdKWMobltjSF1uMiljKGMyMyluW2NIXW4zW0NIMl1DNChbT0hdKVtDSDJdW0NIMl1PW0NIMl1bQ0gyXTQ=

> <s_epik_cmdline>
J2VwaWtfcHl0aG9uJywgJy1waCcsICc3LjAnLCAnLXRuJywgJzgnLCAnLW1hJywgJzIwMCcsICctbWV0YWxfYmluZGluZycsICctaW1hZScsICc8aW5maWxlLm1hZT4nLCAnLW9tYWUnLCAnPG91dGZpbGUubWFlPic=

> <r_lp_tautomer_probability>
1

> <r_epik_Ionization_Penalty>
0.00152183

> <r_epik_Ionization_Penalty_Charging>
0.00112577

> <r_epik_Ionization_Penalty_Neutral>
0.000396066

> <r_epik_State_Penalty>
-0

> <r_epik_Charging_Adjusted_Penalty>
0.00112577

> <i_epik_Tot_Q>
1

> <i_epik_Tot_abs_Q>
1

> <r_epik_Metal_State_Penalty>
-0

> <b_epik_Metal_Only>
0

> <s_lp_Force_Field>
OPLS_2005

> <r_lp_Energy>
46.3876

> <b_lp_Chiralities_Consistent>
1

> <s_lp_Variant>
AV-unprocessed.smi:152-2

> <Gold.Version>
5.8.1

> <Gold.Id.Protein>
6NUR|6NUR_protein|mol2

> <Gold.PLP.Fitness>
52.1824

> <Gold.PLP.PLP>
-43.2421

> <Gold.PLP.part.hbond>
-4.0454

> <Gold.PLP.part.metal>
0.0000

> <Gold.PLP.part.buried>
1.7226

> <Gold.PLP.part.nonpolar>
-43.0570

> <Gold.PLP.part.repulsive>
1.4674

> <Gold.PLP.ligand.clash>
0.0000

> <Gold.PLP.ligand.torsion>
1.3215

> <Gold.PLP.Chemscore.Hbond>
3.4821

> <Gold.PLP.Chemscore.CHOScore>
0.3279

> <Gold.PLP.Chemscore.Metal>
0.0000

> <Gold.Chemscore.Hbonds>
donor molecule, donor type, donor heavy atom, donor atom, acceptor molecule, acceptor atom, score
      L1  H     3    58       P1 10747  1.00
      L1  H    22    49       P1  7957  0.77
      P1  H  7954  7966       L1    17  0.51
      P1  H  7989  7998       L1    22  0.06
      P1  H  8011  8017       L1    22  1.00
      L1  C    18    46       P1  7957  0.37

> <Gold.PLP.Chemscore.Internal.Correction>
0.1533

> <Gold.Rescore>
     Score         DG    S(hbond)    S(metal)    S(lipo)     H(rot)  DE(clash)    DE(int)     intcor
     12.91     -18.52       2.12        0.00     104.77       2.46       1.34       4.27       ----

> <Gold.Chemscore.Fitness>
12.9077

> <Gold.Chemscore.DG>
-18.5178

> <Gold.Chemscore.ZeroCoef>
-5.4800

> <Gold.Chemscore.Hbond>
2.1202

> <Gold.Chemscore.Metal>
0.0000

> <Gold.Chemscore.Lipo>
104.7660

> <Gold.Chemscore.Internal_Hbond>
0.0000

> <Gold.Chemscore.DEClash>
1.3439

> <Gold.Chemscore.DEInternal>
4.2662

> <Gold.Chemscore.Rot>
2.4614

> <Gold.Chemscore.Internal.Correction>
   9.000000E+99

> <Gold.Chemscore.Hbonds>
donor molecule, donor type, donor heavy atom, donor atom, acceptor molecule, acceptor atom, score
      L1  H     3    58       P1 10747  1.00
      L1  H    22    49       P1  7957  0.74
      P1  H  7954  7966       L1    17  0.05
      P1  H  8011  8017       L1    22  0.39

> <Gold.Chemscore.Hbond.Weighted>
-7.0814

> <Gold.Chemscore.Metal.Weighted>
-0.0000

> <Gold.Chemscore.Lipo.Weighted>
-12.2576

> <Gold.Chemscore.Internal_Hbond.Weighted>
0.0000

> <Gold.Chemscore.DEClash.Weighted>
1.3439

> <Gold.Chemscore.DEInternal.Weighted>
4.2662

> <Gold.Chemscore.Rot.Weighted>
6.3012

> <Gold.Chemscore.Internal.Correction.Weighted>
   9.000000E+99

> <Gold.Protein.RotatedTorsions>
[ 6907 6896 6895 6894 ] final  -37.76 input  -60.11 | X-H torsion
[ 7974 7965 7964 7962 ] final -124.50 input  175.53 | X-H torsion
[ 8008 7997 7996 7995 ] final  -36.94 input   59.86 | X-H torsion
[ 10167 10162 10161 10158 ] final   10.30 input  -65.29 | X-H torsion
[ 10718 10713 10712 10709 ] final   85.81 input   66.30 | X-H torsion
[ 10763 10752 10751 10750 ] final -125.84 input  -60.55 | X-H torsion
[ 11005 11000 10999 10996 ] final  -29.87 input  -57.11 | X-H torsion

> <Gold.Protein.ActiveResidues>
 VAL166  LYS551  ARG553  GLY616  TRP617  ASP618  TYR619  PRO620  LYS621  CYS622 
 ASP623  PHE694  ASN695  SER759  ASP760  ASP761  ALA762  ILE779  LEU786  VAL792 
 PHE793  MET794  SER795  GLU796  ALA797  LYS798  CYS799  TRP800  GLU811  SER814 

> <Gold.Protein.RotatedAtoms>
  151.0107  134.9394  159.8005 H   0  0  0  0  0  0  0  0  0  0  0  0  # atno 6907 bound_to 6896
  152.5302  134.3032  159.9096 H   0  0  0  0  0  0  0  0  0  0  0  0  # atno 6908 bound_to 6896
  151.3038  133.4069  159.2676 H   0  0  0  0  0  0  0  0  0  0  0  0  # atno 6909 bound_to 6896
  145.0075  140.7876  143.4459 H   0  0  0  0  0  0  0  0  0  0  0  0  # atno 7974 bound_to 7965
  154.4063  140.1617  156.2456 H   0  0  0  0  0  0  0  0  0  0  0  0  # atno 8008 bound_to 7997
  155.9163  140.3424  155.6115 H   0  0  0  0  0  0  0  0  0  0  0  0  # atno 8009 bound_to 7997
  155.7275  140.0776  157.2294 H   0  0  0  0  0  0  0  0  0  0  0  0  # atno 8010 bound_to 7997
  140.6203  143.8219  150.7167 H   0  0  0  0  0  0  0  0  0  0  0  0  # atno 10167 bound_to 10162
  157.6920  131.0190  150.2879 H   0  0  0  0  0  0  0  0  0  0  0  0  # atno 10718 bound_to 10713
  154.8740  135.4016  154.3333 H   0  0  0  0  0  0  0  0  0  0  0  0  # atno 10763 bound_to 10752
  153.4143  135.7021  153.6343 H   0  0  0  0  0  0  0  0  0  0  0  0  # atno 10764 bound_to 10752
  153.5032  135.3723  155.2520 H   0  0  0  0  0  0  0  0  0  0  0  0  # atno 10765 bound_to 10752
  140.9334  133.7324  156.0969 H   0  0  0  0  0  0  0  0  0  0  0  0  # atno 11005 bound_to 11000
  145.2069  139.2224  143.5163 LP  0  0  0  0  0  0  0  0  0  0  0  0  # atno 17320 bound_to 7965
  146.3464  140.1898  142.8589 LP  0  0  0  0  0  0  0  0  0  0  0  0  # atno 17321 bound_to 7965
  140.1808  143.4116  152.1934 LP  0  0  0  0  0  0  0  0  0  0  0  0  # atno 17342 bound_to 10162
  139.5433  144.7276  151.4664 LP  0  0  0  0  0  0  0  0  0  0  0  0  # atno 17343 bound_to 10162
  156.3415  130.3816  149.7405 LP  0  0  0  0  0  0  0  0  0  0  0  0  # atno 17370 bound_to 10713
  156.4912  130.8086  151.3095 LP  0  0  0  0  0  0  0  0  0  0  0  0  # atno 17371 bound_to 10713
  140.7832  134.3701  157.5482 LP  0  0  0  0  0  0  0  0  0  0  0  0  # atno 17394 bound_to 11000
  139.8802  134.9095  156.2991 LP  0  0  0  0  0  0  0  0  0  0  0  0  # atno 17395 bound_to 11000

$$$$
