AV-unprocessed.smi:2027|AV-procd|sdf|8215|dock10
  -GOLD-   2272010483D 1   1.00000     0.00000
 Structure written by MMmdl.
 50 52  0  0  0  0  0  0  0  0  2 V2000
  151.3624  145.0502  160.8007 C   0  0  0  0  0  0  0  0  0  0  0  0
  151.5031  143.8420  159.8905 C   0  0  0  0  0  0  0  0  0  0  0  0
  150.9273  143.8982  158.6013 C   0  0  0  0  0  0  0  0  0  0  0  0
  151.0765  142.7791  157.7906 C   0  0  0  0  0  0  0  0  0  0  0  0
  150.6361  142.5253  156.4896 N   0  3  0  0  0  0  0  0  0  0  0  0
  151.0342  141.2794  156.1097 C   0  0  0  0  0  0  0  0  0  0  0  0
  151.7221  140.7345  157.1493 N   0  0  0  0  0  0  0  0  0  0  0  0
  152.3854  139.4286  157.2647 C   0  0  0  0  0  0  0  0  0  0  0  0
  151.4491  138.2623  156.8966 C   0  0  2  0  0  0  0  0  0  0  0  0
  150.6683  137.9218  158.0257 O   0  0  0  0  0  0  0  0  0  0  0  0
  152.2285  137.0122  156.4364 C   0  0  0  0  0  0  0  0  0  0  0  0
  151.6131  136.2066  155.3689 N   0  0  0  0  0  0  0  0  0  0  0  0
  150.8955  137.0836  154.4508 C   0  0  0  0  0  0  0  0  0  0  0  0
  150.6894  135.1744  155.8611 C   0  0  0  0  0  0  0  0  0  0  0  0
  150.3533  134.0948  154.8685 C   0  0  0  0  0  0  0  0  0  0  0  0
  149.7105  134.2471  153.6070 C   0  0  0  0  0  0  0  0  0  0  0  0
  149.5279  133.0969  152.9802 N   0  0  0  0  0  0  0  0  0  0  0  0
  150.0588  132.1750  153.8086 N   0  0  0  0  0  0  0  0  0  0  0  0
  150.0159  130.7771  153.4378 C   0  0  0  0  0  0  0  0  0  0  0  0
  150.5835  132.7491  154.9466 C   0  0  0  0  0  0  0  0  0  0  0  0
  151.7693  141.6317  158.2219 C   0  0  0  0  0  0  0  0  0  0  0  0
  152.3388  141.5579  159.4906 C   0  0  0  0  0  0  0  0  0  0  0  0
  152.1978  142.6856  160.3304 C   0  0  0  0  0  0  0  0  0  0  0  0
  152.8088  142.6352  161.7203 C   0  0  0  0  0  0  0  0  0  0  0  0
  150.8363  145.8656  160.3035 H   0  0  0  0  0  0  0  0  0  0  0  0
  152.3427  145.4215  161.0999 H   0  0  0  0  0  0  0  0  0  0  0  0
  150.8013  144.7895  161.6984 H   0  0  0  0  0  0  0  0  0  0  0  0
  150.3961  144.7747  158.2604 H   0  0  0  0  0  0  0  0  0  0  0  0
  150.8476  140.8129  155.1531 H   0  0  0  0  0  0  0  0  0  0  0  0
  153.2691  139.4374  156.6253 H   0  0  0  0  0  0  0  0  0  0  0  0
  152.7419  139.3267  158.2907 H   0  0  0  0  0  0  0  0  0  0  0  0
  150.7795  138.6202  156.1234 H   0  0  0  0  0  0  0  0  0  0  0  0
  149.9602  138.5431  158.0992 H   0  0  0  0  0  0  0  0  0  0  0  0
  153.2331  137.3035  156.1264 H   0  0  0  0  0  0  0  0  0  0  0  0
  152.3738  136.3904  157.3215 H   0  0  0  0  0  0  0  0  0  0  0  0
  150.4691  136.5165  153.6225 H   0  0  0  0  0  0  0  0  0  0  0  0
  151.5654  137.8287  154.0203 H   0  0  0  0  0  0  0  0  0  0  0  0
  150.0841  137.6078  154.9580 H   0  0  0  0  0  0  0  0  0  0  0  0
  151.0903  134.7392  156.7777 H   0  0  0  0  0  0  0  0  0  0  0  0
  149.7583  135.6556  156.1638 H   0  0  0  0  0  0  0  0  0  0  0  0
  149.3563  135.1539  153.1393 H   0  0  0  0  0  0  0  0  0  0  0  0
  150.4822  130.1696  154.2139 H   0  0  0  0  0  0  0  0  0  0  0  0
  150.5511  130.6273  152.4997 H   0  0  0  0  0  0  0  0  0  0  0  0
  148.9795  130.4606  153.3146 H   0  0  0  0  0  0  0  0  0  0  0  0
  151.0493  132.1595  155.7224 H   0  0  0  0  0  0  0  0  0  0  0  0
  152.8723  140.6800  159.8230 H   0  0  0  0  0  0  0  0  0  0  0  0
  153.2760  141.6695  161.9157 H   0  0  0  0  0  0  0  0  0  0  0  0
  152.0457  142.7945  162.4820 H   0  0  0  0  0  0  0  0  0  0  0  0
  153.5745  143.4036  161.8279 H   0  0  0  0  0  0  0  0  0  0  0  0
  150.1077  143.1555  155.8999 H   0  0  0  0  0  0  0  0  0  0  0  0
  1  2  1  0  0  0  0
  1 25  1  0  0  0  0
  1 26  1  0  0  0  0
  1 27  1  0  0  0  0
  2 23  1  0  0  0  0
  2  3  2  0  0  0  0
  3  4  1  0  0  0  0
  3 28  1  0  0  0  0
  4 21  2  0  0  0  0
  4  5  1  0  0  0  0
  5  6  2  0  0  0  0
  5 50  1  0  0  0  0
  6  7  1  0  0  0  0
  6 29  1  0  0  0  0
  7  8  1  0  0  0  0
  7 21  1  0  0  0  0
  8  9  1  0  0  0  0
  8 30  1  0  0  0  0
  8 31  1  0  0  0  0
  9 10  1  0  0  0  0
  9 11  1  0  0  0  0
  9 32  1  0  0  0  0
 10 33  1  0  0  0  0
 11 12  1  0  0  0  0
 11 34  1  0  0  0  0
 11 35  1  0  0  0  0
 12 13  1  0  0  0  0
 12 14  1  0  0  0  0
 13 36  1  0  0  0  0
 13 37  1  0  0  0  0
 13 38  1  0  0  0  0
 14 15  1  0  0  0  0
 14 39  1  0  0  0  0
 14 40  1  0  0  0  0
 15 20  2  0  0  0  0
 15 16  1  0  0  0  0
 16 17  2  0  0  0  0
 16 41  1  0  0  0  0
 17 18  1  0  0  0  0
 18 19  1  0  0  0  0
 18 20  1  0  0  0  0
 19 42  1  0  0  0  0
 19 43  1  0  0  0  0
 19 44  1  0  0  0  0
 20 45  1  0  0  0  0
 21 22  1  0  0  0  0
 22 23  2  0  0  0  0
 22 46  1  0  0  0  0
 23 24  1  0  0  0  0
 24 47  1  0  0  0  0
 24 48  1  0  0  0  0
 24 49  1  0  0  0  0
M  CHG  1   5   1
M  END
> <s_m_source_file>
AV-unprocessed.smi

> <i_m_source_file_index>
2027

> <i_lp_mmshare_version>
43012

> <i_f3d_flags>
0

> <s_epik_input>
W0NIM11jKFtjSF0xKWMoW0NIM10pW2NIXWMoYzEyKW4oW2NIXW4yKVtDSDJdW0NASF0oW09IXSlbQ0gyXU4oW0NIM10pW0NIMl1jM1tjSF1ubihbQ0gzXSlbY0hdMw==

> <s_epik_cmdline>
J2VwaWtfcHl0aG9uJywgJy1waCcsICc3LjAnLCAnLXRuJywgJzgnLCAnLW1hJywgJzIwMCcsICctbWV0YWxfYmluZGluZycsICctaW1hZScsICc8aW5maWxlLm1hZT4nLCAnLW9tYWUnLCAnPG91dGZpbGUubWFlPic=

> <r_epik_Ionization_Penalty>
1.48134

> <r_epik_Ionization_Penalty_Charging>
1.21121

> <r_epik_Ionization_Penalty_Neutral>
0.270133

> <r_epik_State_Penalty>
1.53013

> <r_epik_Charging_Adjusted_Penalty>
2.74134

> <i_epik_Tot_Q>
1

> <i_epik_Tot_abs_Q>
1

> <r_epik_Metal_State_Penalty>
1.60443

> <b_epik_Metal_Only>
0

> <s_lp_Force_Field>
OPLS_2005

> <r_lp_Energy>
21.1476

> <b_lp_Chiralities_Consistent>
1

> <s_lp_Variant>
AV-unprocessed.smi:2027-7

> <Gold.Version>
5.8.1

> <Gold.Id.Protein>
6NUR|6NUR_protein|mol2

> <Gold.PLP.Fitness>
57.8146

> <Gold.PLP.PLP>
-48.6418

> <Gold.PLP.part.hbond>
-2.0000

> <Gold.PLP.part.metal>
0.0000

> <Gold.PLP.part.buried>
-5.7172

> <Gold.PLP.part.nonpolar>
-41.0940

> <Gold.PLP.part.repulsive>
0.3209

> <Gold.PLP.ligand.clash>
0.0000

> <Gold.PLP.ligand.torsion>
1.2306

> <Gold.PLP.Chemscore.Hbond>
2.8560

> <Gold.PLP.Chemscore.CHOScore>
1.0000

> <Gold.PLP.Chemscore.Metal>
0.0000

> <Gold.Chemscore.Hbonds>
donor molecule, donor type, donor heavy atom, donor atom, acceptor molecule, acceptor atom, score
      L1  H     5    50       P1  8028  2.00
      P1  H 10752 10765       L1    12  1.00
      L1  C    16    41       P1  7948  0.05

> <Gold.PLP.Chemscore.Internal.Correction>
0.0661

> <Gold.Rescore>
     Score         DG    S(hbond)    S(metal)    S(lipo)     H(rot)  DE(clash)    DE(int)     intcor
     16.21     -17.40       0.99        0.00     128.23       2.50       0.04       1.16       ----

> <Gold.Chemscore.Fitness>
16.2059

> <Gold.Chemscore.DG>
-17.4013

> <Gold.Chemscore.ZeroCoef>
-5.4800

> <Gold.Chemscore.Hbond>
0.9935

> <Gold.Chemscore.Metal>
0.0000

> <Gold.Chemscore.Lipo>
128.2294

> <Gold.Chemscore.Internal_Hbond>
0.0000

> <Gold.Chemscore.DEClash>
0.0382

> <Gold.Chemscore.DEInternal>
1.1571

> <Gold.Chemscore.Rot>
2.5000

> <Gold.Chemscore.Internal.Correction>
   9.000000E+99

> <Gold.Chemscore.Hbonds>
donor molecule, donor type, donor heavy atom, donor atom, acceptor molecule, acceptor atom, score
      L1  H     5    50       P1  8028  0.92
      P1  H 10752 10765       L1    12  0.20

> <Gold.Chemscore.Hbond.Weighted>
-3.3183

> <Gold.Chemscore.Metal.Weighted>
-0.0000

> <Gold.Chemscore.Lipo.Weighted>
-15.0028

> <Gold.Chemscore.Internal_Hbond.Weighted>
0.0000

> <Gold.Chemscore.DEClash.Weighted>
0.0382

> <Gold.Chemscore.DEInternal.Weighted>
1.1571

> <Gold.Chemscore.Rot.Weighted>
6.3999

> <Gold.Chemscore.Internal.Correction.Weighted>
   9.000000E+99

> <Gold.Protein.RotatedTorsions>
[ 6907 6896 6895 6894 ] final  145.05 input  -60.11 | X-H torsion
[ 7974 7965 7964 7962 ] final   67.25 input  175.53 | X-H torsion
[ 8008 7997 7996 7995 ] final   -6.67 input   59.86 | X-H torsion
[ 10167 10162 10161 10158 ] final  -92.09 input  -65.29 | X-H torsion
[ 10718 10713 10712 10709 ] final   21.99 input   66.30 | X-H torsion
[ 10763 10752 10751 10750 ] final  177.78 input  -60.55 | X-H torsion
[ 11005 11000 10999 10996 ] final   75.93 input  -57.11 | X-H torsion

> <Gold.Protein.ActiveResidues>
 VAL166  LYS551  ARG553  GLY616  TRP617  ASP618  TYR619  PRO620  LYS621  CYS622 
 ASP623  PHE694  ASN695  SER759  ASP760  ASP761  ALA762  ILE779  LEU786  VAL792 
 PHE793  MET794  SER795  GLU796  ALA797  LYS798  CYS799  TRP800  GLU811  SER814 

> <Gold.Protein.RotatedAtoms>
  152.1858  133.4738  159.4981 H   0  0  0  0  0  0  0  0  0  0  0  0  # atno 6907 bound_to 6896
  150.6942  134.1776  159.4245 H   0  0  0  0  0  0  0  0  0  0  0  0  # atno 6908 bound_to 6896
  151.9688  135.0086  160.0602 H   0  0  0  0  0  0  0  0  0  0  0  0  # atno 6909 bound_to 6896
  145.8168  139.3063  143.1066 H   0  0  0  0  0  0  0  0  0  0  0  0  # atno 7974 bound_to 7965
  154.5914  140.2427  155.7915 H   0  0  0  0  0  0  0  0  0  0  0  0  # atno 8008 bound_to 7997
  156.2250  140.2985  155.9998 H   0  0  0  0  0  0  0  0  0  0  0  0  # atno 8009 bound_to 7997
  155.2367  140.0405  157.2960 H   0  0  0  0  0  0  0  0  0  0  0  0  # atno 8010 bound_to 7997
  140.3383  143.2956  151.9864 H   0  0  0  0  0  0  0  0  0  0  0  0  # atno 10167 bound_to 10162
  157.1461  130.6654  149.5996 H   0  0  0  0  0  0  0  0  0  0  0  0  # atno 10718 bound_to 10713
  154.4989  135.2782  155.1436 H   0  0  0  0  0  0  0  0  0  0  0  0  # atno 10763 bound_to 10752
  154.3078  135.6235  153.5456 H   0  0  0  0  0  0  0  0  0  0  0  0  # atno 10764 bound_to 10752
  152.9899  135.5712  154.5428 H   0  0  0  0  0  0  0  0  0  0  0  0  # atno 10765 bound_to 10752
  139.9321  134.7559  156.1332 H   0  0  0  0  0  0  0  0  0  0  0  0  # atno 11005 bound_to 11000
  145.9718  140.8754  143.0159 LP  0  0  0  0  0  0  0  0  0  0  0  0  # atno 17320 bound_to 7965
  144.6751  140.1956  143.7392 LP  0  0  0  0  0  0  0  0  0  0  0  0  # atno 17321 bound_to 7965
  139.4844  144.6178  151.7313 LP  0  0  0  0  0  0  0  0  0  0  0  0  # atno 17342 bound_to 10162
  140.5333  144.0696  150.6061 LP  0  0  0  0  0  0  0  0  0  0  0  0  # atno 17343 bound_to 10162
  155.9779  130.4761  150.6623 LP  0  0  0  0  0  0  0  0  0  0  0  0  # atno 17370 bound_to 10713
  157.4263  131.0843  151.1082 LP  0  0  0  0  0  0  0  0  0  0  0  0  # atno 17371 bound_to 10713
  141.0915  133.6712  156.2552 LP  0  0  0  0  0  0  0  0  0  0  0  0  # atno 17394 bound_to 11000
  140.6174  134.5397  157.5542 LP  0  0  0  0  0  0  0  0  0  0  0  0  # atno 17395 bound_to 11000

$$$$
