AV-unprocessed.smi:2486|AV-procd|sdf|9790|dock2
  -GOLD-   2272013423D 1   1.00000     0.00000
 Structure written by MMmdl.
 42 43  0  0  0  0  0  0  0  0  1 V2000
  147.7834  133.9126  159.1030 C   0  0  0  0  0  0  0  0  0  0  0  0
  147.7484  135.1046  159.9284 N   0  0  0  0  0  0  0  0  0  0  0  0
  147.2705  135.0619  161.1943 N   0  0  0  0  0  0  0  0  0  0  0  0
  147.4061  136.3241  161.6017 C   0  0  0  0  0  0  0  0  0  0  0  0
  147.9389  137.1931  160.6926 N   0  0  0  0  0  0  0  0  0  0  0  0
  148.1267  136.3604  159.6734 C   0  0  0  0  0  0  0  0  0  0  0  0
  148.6688  136.6985  158.4046 N   0  0  0  0  0  0  0  0  0  0  0  0
  149.9639  136.8289  158.0709 C   0  0  0  0  0  0  0  0  0  0  0  0
  150.9156  136.6579  158.8330 O   0  0  0  0  0  0  0  0  0  0  0  0
  150.1016  137.1724  156.7839 N   0  0  0  0  0  0  0  0  0  0  0  0
  151.3835  137.3861  156.1191 C   0  0  0  0  0  0  0  0  0  0  0  0
  151.4437  138.7308  155.3450 C   0  0  0  0  0  0  0  0  0  0  0  0
  152.8680  138.9150  154.7720 C   0  0  0  0  0  0  0  0  0  0  0  0
  150.4593  138.6552  154.1462 C   0  0  0  0  0  0  0  0  0  0  0  0
  148.9742  138.9159  154.4606 C   0  0  0  0  0  0  0  0  0  0  0  0
  148.5943  140.4023  154.3530 C   0  0  0  0  0  0  0  0  0  0  0  0
  149.1352  141.2850  155.4867 C   0  0  0  0  0  0  0  0  0  0  0  0
  150.6605  141.2228  155.6772 C   0  0  0  0  0  0  0  0  0  0  0  0
  151.1290  139.9028  156.3178 C   0  0  0  0  0  0  0  0  0  0  0  0
  148.8057  133.7261  158.7730 H   0  0  0  0  0  0  0  0  0  0  0  0
  147.1456  134.0532  158.2298 H   0  0  0  0  0  0  0  0  0  0  0  0
  147.4300  133.0462  159.6641 H   0  0  0  0  0  0  0  0  0  0  0  0
  147.1086  136.6310  162.5937 H   0  0  0  0  0  0  0  0  0  0  0  0
  147.9946  136.8614  157.6716 H   0  0  0  0  0  0  0  0  0  0  0  0
  149.2702  137.2929  156.2244 H   0  0  0  0  0  0  0  0  0  0  0  0
  152.1760  137.3492  156.8690 H   0  0  0  0  0  0  0  0  0  0  0  0
  151.5620  136.5503  155.4413 H   0  0  0  0  0  0  0  0  0  0  0  0
  152.9521  139.8375  154.1971 H   0  0  0  0  0  0  0  0  0  0  0  0
  153.1353  138.0924  154.1076 H   0  0  0  0  0  0  0  0  0  0  0  0
  153.6244  138.9582  155.5562 H   0  0  0  0  0  0  0  0  0  0  0  0
  150.7706  139.3463  153.3617 H   0  0  0  0  0  0  0  0  0  0  0  0
  150.5466  137.6700  153.6861 H   0  0  0  0  0  0  0  0  0  0  0  0
  148.3768  138.3722  153.7279 H   0  0  0  0  0  0  0  0  0  0  0  0
  148.6918  138.5086  155.4315 H   0  0  0  0  0  0  0  0  0  0  0  0
  148.9246  140.7976  153.3915 H   0  0  0  0  0  0  0  0  0  0  0  0
  147.5070  140.4848  154.3464 H   0  0  0  0  0  0  0  0  0  0  0  0
  148.8507  142.3171  155.2793 H   0  0  0  0  0  0  0  0  0  0  0  0
  148.6366  141.0264  156.4216 H   0  0  0  0  0  0  0  0  0  0  0  0
  151.1835  141.4221  154.7417 H   0  0  0  0  0  0  0  0  0  0  0  0
  150.9385  142.0362  156.3482 H   0  0  0  0  0  0  0  0  0  0  0  0
  150.3801  139.5887  157.0464 H   0  0  0  0  0  0  0  0  0  0  0  0
  152.0182  140.1113  156.9143 H   0  0  0  0  0  0  0  0  0  0  0  0
  1  2  1  0  0  0  0
  1 20  1  0  0  0  0
  1 21  1  0  0  0  0
  1 22  1  0  0  0  0
  2  6  1  0  0  0  0
  2  3  1  0  0  0  0
  3  4  2  0  0  0  0
  4  5  1  0  0  0  0
  4 23  1  0  0  0  0
  5  6  2  0  0  0  0
  6  7  1  0  0  0  0
  7  8  1  0  0  0  0
  7 24  1  0  0  0  0
  8  9  2  0  0  0  0
  8 10  1  0  0  0  0
 10 11  1  0  0  0  0
 10 25  1  0  0  0  0
 11 12  1  0  0  0  0
 11 26  1  0  0  0  0
 11 27  1  0  0  0  0
 12 19  1  0  0  0  0
 12 13  1  0  0  0  0
 12 14  1  0  0  0  0
 13 28  1  0  0  0  0
 13 29  1  0  0  0  0
 13 30  1  0  0  0  0
 14 15  1  0  0  0  0
 14 31  1  0  0  0  0
 14 32  1  0  0  0  0
 15 16  1  0  0  0  0
 15 33  1  0  0  0  0
 15 34  1  0  0  0  0
 16 17  1  0  0  0  0
 16 35  1  0  0  0  0
 16 36  1  0  0  0  0
 17 18  1  0  0  0  0
 17 37  1  0  0  0  0
 17 38  1  0  0  0  0
 18 19  1  0  0  0  0
 18 39  1  0  0  0  0
 18 40  1  0  0  0  0
 19 41  1  0  0  0  0
 19 42  1  0  0  0  0
M  END
> <s_m_source_file>
AV-unprocessed.smi

> <i_m_source_file_index>
2486

> <i_lp_mmshare_version>
43012

> <i_f3d_flags>
0

> <s_epik_input>
W0NIM11uMW5bY0hdbmMxW05IXUMoPU8pW05IXVtDSDJdQzIoW0NIM10pW0NIMl1bQ0gyXVtDSDJdW0NIMl1bQ0gyXVtDSDJdMg==

> <s_epik_cmdline>
J2VwaWtfcHl0aG9uJywgJy1waCcsICc3LjAnLCAnLXRuJywgJzgnLCAnLW1hJywgJzIwMCcsICctbWV0YWxfYmluZGluZycsICctaW1hZScsICc8aW5maWxlLm1hZT4nLCAnLW9tYWUnLCAnPG91dGZpbGUubWFlPic=

> <r_lp_tautomer_probability>
1

> <r_epik_Ionization_Penalty>
2.33289e-05

> <r_epik_Ionization_Penalty_Charging>
0

> <r_epik_Ionization_Penalty_Neutral>
2.33289e-05

> <r_epik_State_Penalty>
-0

> <r_epik_Charging_Adjusted_Penalty>
0

> <i_epik_Tot_Q>
0

> <i_epik_Tot_abs_Q>
0

> <r_epik_Metal_State_Penalty>
-0

> <b_epik_Metal_Only>
0

> <s_lp_Force_Field>
OPLS_2005

> <r_lp_Energy>
21.4414

> <b_lp_Chiralities_Consistent>
1

> <s_lp_Variant>
AV-unprocessed.smi:2486-1

> <Gold.Version>
5.8.1

> <Gold.Id.Protein>
6NUR|6NUR_protein|mol2

> <Gold.PLP.Fitness>
37.7801

> <Gold.PLP.PLP>
-31.4653

> <Gold.PLP.part.hbond>
-3.0000

> <Gold.PLP.part.metal>
0.0000

> <Gold.PLP.part.buried>
-4.0196

> <Gold.PLP.part.nonpolar>
-25.0784

> <Gold.PLP.part.repulsive>
0.1285

> <Gold.PLP.ligand.clash>
0.0000

> <Gold.PLP.ligand.torsion>
0.8001

> <Gold.PLP.Chemscore.Hbond>
2.6320

> <Gold.PLP.Chemscore.CHOScore>
0.0000

> <Gold.PLP.Chemscore.Metal>
0.0000

> <Gold.Chemscore.Hbonds>
donor molecule, donor type, donor heavy atom, donor atom, acceptor molecule, acceptor atom, score
      P1  H  6896  6908       L1     9  1.00
      P1  H  6931  6943       L1     5  0.78
      P1  H  6934  6947       L1     5  0.78

> <Gold.PLP.Chemscore.Internal.Correction>
0.0191

> <Gold.Rescore>
     Score         DG    S(hbond)    S(metal)    S(lipo)     H(rot)  DE(clash)    DE(int)     intcor
     16.43     -17.22       2.67        0.00      53.64       1.35       0.00       0.79       ----

> <Gold.Chemscore.Fitness>
16.4255

> <Gold.Chemscore.DG>
-17.2181

> <Gold.Chemscore.ZeroCoef>
-5.4800

> <Gold.Chemscore.Hbond>
2.6665

> <Gold.Chemscore.Metal>
0.0000

> <Gold.Chemscore.Lipo>
53.6435

> <Gold.Chemscore.Internal_Hbond>
0.0000

> <Gold.Chemscore.DEClash>
0.0048

> <Gold.Chemscore.DEInternal>
0.7878

> <Gold.Chemscore.Rot>
1.3454

> <Gold.Chemscore.Internal.Correction>
   9.000000E+99

> <Gold.Chemscore.Hbonds>
donor molecule, donor type, donor heavy atom, donor atom, acceptor molecule, acceptor atom, score
      P1  H  6896  6908       L1     9  0.94
      P1  H  6931  6943       L1     5  0.17
      P1  H  6934  6947       L1     5  0.61

> <Gold.Chemscore.Hbond.Weighted>
-8.9060

> <Gold.Chemscore.Metal.Weighted>
-0.0000

> <Gold.Chemscore.Lipo.Weighted>
-6.2763

> <Gold.Chemscore.Internal_Hbond.Weighted>
0.0000

> <Gold.Chemscore.DEClash.Weighted>
0.0048

> <Gold.Chemscore.DEInternal.Weighted>
0.7878

> <Gold.Chemscore.Rot.Weighted>
3.4442

> <Gold.Chemscore.Internal.Correction.Weighted>
   9.000000E+99

> <Gold.Protein.RotatedTorsions>
[ 6907 6896 6895 6894 ] final -144.05 input  -60.11 | X-H torsion
[ 7974 7965 7964 7962 ] final  105.40 input  175.53 | X-H torsion
[ 8008 7997 7996 7995 ] final  141.24 input   59.86 | X-H torsion
[ 10167 10162 10161 10158 ] final   46.66 input  -65.29 | X-H torsion
[ 10718 10713 10712 10709 ] final   59.83 input   66.30 | X-H torsion
[ 10763 10752 10751 10750 ] final -100.47 input  -60.55 | X-H torsion
[ 11005 11000 10999 10996 ] final  119.60 input  -57.11 | X-H torsion

> <Gold.Protein.ActiveResidues>
 VAL166  LYS551  ARG553  GLY616  TRP617  ASP618  TYR619  PRO620  LYS621  CYS622 
 ASP623  PHE694  ASN695  SER759  ASP760  ASP761  ALA762  ILE779  LEU786  VAL792 
 PHE793  MET794  SER795  GLU796  ALA797  LYS798  CYS799  TRP800  GLU811  SER814 

> <Gold.Protein.RotatedAtoms>
  151.1087  133.5189  159.2606 H   0  0  0  0  0  0  0  0  0  0  0  0  # atno 6907 bound_to 6896
  151.1991  135.0434  159.8875 H   0  0  0  0  0  0  0  0  0  0  0  0  # atno 6908 bound_to 6896
  152.5448  134.0918  159.8333 H   0  0  0  0  0  0  0  0  0  0  0  0  # atno 6909 bound_to 6896
  145.3202  139.2515  143.3716 H   0  0  0  0  0  0  0  0  0  0  0  0  # atno 7974 bound_to 7965
  156.2968  140.2320  156.4532 H   0  0  0  0  0  0  0  0  0  0  0  0  # atno 8008 bound_to 7997
  154.8083  140.0444  157.1345 H   0  0  0  0  0  0  0  0  0  0  0  0  # atno 8009 bound_to 7997
  154.9452  140.3035  155.5105 H   0  0  0  0  0  0  0  0  0  0  0  0  # atno 8010 bound_to 7997
  140.3116  144.2813  150.6199 H   0  0  0  0  0  0  0  0  0  0  0  0  # atno 10167 bound_to 10162
  157.5706  130.8904  149.9261 H   0  0  0  0  0  0  0  0  0  0  0  0  # atno 10718 bound_to 10713
  154.7581  135.4934  153.9413 H   0  0  0  0  0  0  0  0  0  0  0  0  # atno 10763 bound_to 10752
  153.1219  135.6734  153.9329 H   0  0  0  0  0  0  0  0  0  0  0  0  # atno 10764 bound_to 10752
  153.9058  135.3104  155.3427 H   0  0  0  0  0  0  0  0  0  0  0  0  # atno 10765 bound_to 10752
  139.9152  134.9629  156.7679 H   0  0  0  0  0  0  0  0  0  0  0  0  # atno 11005 bound_to 11000
  146.3085  140.3757  142.8679 LP  0  0  0  0  0  0  0  0  0  0  0  0  # atno 17320 bound_to 7965
  144.8945  140.7566  143.5905 LP  0  0  0  0  0  0  0  0  0  0  0  0  # atno 17321 bound_to 7965
  140.5563  143.2198  151.7842 LP  0  0  0  0  0  0  0  0  0  0  0  0  # atno 17342 bound_to 10162
  139.4892  144.4409  151.9765 LP  0  0  0  0  0  0  0  0  0  0  0  0  # atno 17343 bound_to 10162
  156.0752  130.3680  150.0693 LP  0  0  0  0  0  0  0  0  0  0  0  0  # atno 17370 bound_to 10713
  156.8846  130.9568  151.3595 LP  0  0  0  0  0  0  0  0  0  0  0  0  # atno 17371 bound_to 10713
  140.6644  133.9616  155.7822 LP  0  0  0  0  0  0  0  0  0  0  0  0  # atno 17394 bound_to 11000
  141.0621  134.0331  157.3644 LP  0  0  0  0  0  0  0  0  0  0  0  0  # atno 17395 bound_to 11000

$$$$
