AV-unprocessed.smi:565|AV-procd|sdf|2951|dock3
  -GOLD-   2262023453D 1   1.00000     0.00000
 Structure written by MMmdl.
 50 51  0  0  0  0  0  0  0  0  2 V2000
  153.3610  138.5698  154.5915 C   0  0  0  0  0  0  0  0  0  0  0  0
  152.3895  139.0948  155.6099 C   0  0  0  0  0  0  0  0  0  0  0  0
  152.8351  139.8664  156.5868 N   0  0  0  0  0  0  0  0  0  0  0  0
  151.7414  140.1683  157.3143 N   0  0  0  0  0  0  0  0  0  0  0  0
  151.8755  141.0164  158.4827 C   0  0  0  0  0  0  0  0  0  0  0  0
  150.6014  139.5854  156.7963 C   0  0  0  0  0  0  0  0  0  0  0  0
  149.2592  139.7693  157.4286 C   0  0  0  0  0  0  0  0  0  0  0  0
  150.9817  138.8771  155.6872 C   0  0  0  0  0  0  0  0  0  0  0  0
  150.1301  138.0510  154.7556 C   0  0  0  0  0  0  0  0  0  0  0  0
  149.0395  138.9305  154.1440 C   0  0  0  0  0  0  0  0  0  0  0  0
  148.9763  140.1254  154.4318 O   0  0  0  0  0  0  0  0  0  0  0  0
  148.1950  138.3326  153.2894 N   0  0  0  0  0  0  0  0  0  0  0  0
  147.1336  139.0089  152.5550 C   0  0  0  0  0  0  0  0  0  0  0  0
  145.9463  138.0609  152.2968 C   0  0  0  0  0  0  0  0  0  0  0  0
  146.2955  136.6352  152.5193 N   0  3  1  0  0  0  0  0  0  0  0  0
  146.1420  136.2391  153.9434 C   0  0  0  0  0  0  0  0  0  0  0  0
  146.6434  134.8053  154.1772 C   0  0  0  0  0  0  0  0  0  0  0  0
  145.9208  133.8144  153.2563 C   0  0  0  0  0  0  0  0  0  0  0  0
  146.0617  134.2509  151.7885 C   0  0  1  0  0  0  0  0  0  0  0  0
  145.3245  133.2901  150.8449 C   0  0  0  0  0  0  0  0  0  0  0  0
  145.5719  135.7026  151.6131 C   0  0  0  0  0  0  0  0  0  0  0  0
  153.0378  137.6073  154.1953 H   0  0  0  0  0  0  0  0  0  0  0  0
  154.3539  138.4292  155.0203 H   0  0  0  0  0  0  0  0  0  0  0  0
  153.4556  139.2594  153.7526 H   0  0  0  0  0  0  0  0  0  0  0  0
  151.5167  140.4856  159.3647 H   0  0  0  0  0  0  0  0  0  0  0  0
  151.2852  141.9228  158.3469 H   0  0  0  0  0  0  0  0  0  0  0  0
  152.9184  141.2950  158.6401 H   0  0  0  0  0  0  0  0  0  0  0  0
  148.4969  139.1761  156.9244 H   0  0  0  0  0  0  0  0  0  0  0  0
  148.9523  140.8145  157.3854 H   0  0  0  0  0  0  0  0  0  0  0  0
  149.2784  139.4643  158.4751 H   0  0  0  0  0  0  0  0  0  0  0  0
  150.7203  137.6040  153.9549 H   0  0  0  0  0  0  0  0  0  0  0  0
  149.6631  137.2182  155.2827 H   0  0  0  0  0  0  0  0  0  0  0  0
  148.3181  137.3456  153.1149 H   0  0  0  0  0  0  0  0  0  0  0  0
  146.8266  139.8671  153.1510 H   0  0  0  0  0  0  0  0  0  0  0  0
  147.5210  139.4049  151.6148 H   0  0  0  0  0  0  0  0  0  0  0  0
  145.1374  138.3351  152.9756 H   0  0  0  0  0  0  0  0  0  0  0  0
  145.5560  138.1940  151.2866 H   0  0  0  0  0  0  0  0  0  0  0  0
  146.7066  136.9208  154.5810 H   0  0  0  0  0  0  0  0  0  0  0  0
  145.0941  136.3253  154.2357 H   0  0  0  0  0  0  0  0  0  0  0  0
  147.7182  134.7582  153.9969 H   0  0  0  0  0  0  0  0  0  0  0  0
  146.4922  134.5231  155.2197 H   0  0  0  0  0  0  0  0  0  0  0  0
  146.3302  132.8130  153.3948 H   0  0  0  0  0  0  0  0  0  0  0  0
  144.8662  133.7608  153.5307 H   0  0  0  0  0  0  0  0  0  0  0  0
  147.1204  134.2189  151.5263 H   0  0  0  0  0  0  0  0  0  0  0  0
  144.2536  133.2745  151.0503 H   0  0  0  0  0  0  0  0  0  0  0  0
  145.6985  132.2713  150.9522 H   0  0  0  0  0  0  0  0  0  0  0  0
  145.4596  133.5814  149.8029 H   0  0  0  0  0  0  0  0  0  0  0  0
  144.4999  135.7658  151.8080 H   0  0  0  0  0  0  0  0  0  0  0  0
  145.7198  135.9991  150.5755 H   0  0  0  0  0  0  0  0  0  0  0  0
  147.2797  136.5471  152.3093 H   0  0  0  0  0  0  0  0  0  0  0  0
  1  2  1  0  0  0  0
  1 22  1  0  0  0  0
  1 23  1  0  0  0  0
  1 24  1  0  0  0  0
  2  8  1  0  0  0  0
  2  3  2  0  0  0  0
  3  4  1  0  0  0  0
  4  5  1  0  0  0  0
  4  6  1  0  0  0  0
  5 25  1  0  0  0  0
  5 26  1  0  0  0  0
  5 27  1  0  0  0  0
  6  7  1  0  0  0  0
  6  8  2  0  0  0  0
  7 28  1  0  0  0  0
  7 29  1  0  0  0  0
  7 30  1  0  0  0  0
  8  9  1  0  0  0  0
  9 10  1  0  0  0  0
  9 31  1  0  0  0  0
  9 32  1  0  0  0  0
 10 11  2  0  0  0  0
 10 12  1  0  0  0  0
 12 13  1  0  0  0  0
 12 33  1  0  0  0  0
 13 14  1  0  0  0  0
 13 34  1  0  0  0  0
 13 35  1  0  0  0  0
 14 15  1  0  0  0  0
 14 36  1  0  0  0  0
 14 37  1  0  0  0  0
 15 21  1  0  0  0  0
 15 16  1  0  0  0  0
 15 50  1  0  0  0  0
 16 17  1  0  0  0  0
 16 38  1  0  0  0  0
 16 39  1  0  0  0  0
 17 18  1  0  0  0  0
 17 40  1  0  0  0  0
 17 41  1  0  0  0  0
 18 19  1  0  0  0  0
 18 42  1  0  0  0  0
 18 43  1  0  0  0  0
 19 20  1  0  0  0  0
 19 21  1  0  0  0  0
 19 44  1  0  0  0  0
 20 45  1  0  0  0  0
 20 46  1  0  0  0  0
 20 47  1  0  0  0  0
 21 48  1  0  0  0  0
 21 49  1  0  0  0  0
M  CHG  1  15   1
M  END
> <s_m_source_file>
AV-unprocessed.smi

> <i_m_source_file_index>
565

> <i_lp_mmshare_version>
43012

> <i_f3d_flags>
0

> <s_epik_input>
W0NIM11jMW5uKFtDSDNdKWMoW0NIM10pYzFbQ0gyXUMoPU8pW05IXVtDSDJdW0NIMl1OMltDSDJdW0NIMl1bQ0gyXVtDQEBIXShbQ0gzXSlbQ0gyXTI=

> <s_epik_cmdline>
J2VwaWtfcHl0aG9uJywgJy1waCcsICc3LjAnLCAnLXRuJywgJzgnLCAnLW1hJywgJzIwMCcsICctbWV0YWxfYmluZGluZycsICctaW1hZScsICc8aW5maWxlLm1hZT4nLCAnLW9tYWUnLCAnPG91dGZpbGUubWFlPic=

> <r_lp_tautomer_probability>
1

> <r_epik_Ionization_Penalty>
0.00411138

> <r_epik_Ionization_Penalty_Charging>
0.0019503

> <r_epik_Ionization_Penalty_Neutral>
0.00216107

> <r_epik_State_Penalty>
-0

> <r_epik_Charging_Adjusted_Penalty>
0.0019503

> <i_epik_Tot_Q>
1

> <i_epik_Tot_abs_Q>
1

> <r_epik_Metal_State_Penalty>
-0

> <b_epik_Metal_Only>
0

> <s_lp_Force_Field>
OPLS_2005

> <r_lp_Energy>
10.3148

> <b_lp_Chiralities_Consistent>
1

> <s_lp_Variant>
AV-unprocessed.smi:565-1

> <Gold.Version>
5.8.1

> <Gold.Id.Protein>
6NUR|6NUR_protein|mol2

> <Gold.PLP.Fitness>
44.0372

> <Gold.PLP.PLP>
-33.8249

> <Gold.PLP.part.hbond>
-4.0000

> <Gold.PLP.part.metal>
0.0000

> <Gold.PLP.part.buried>
1.7370

> <Gold.PLP.part.nonpolar>
-29.6353

> <Gold.PLP.part.repulsive>
0.2152

> <Gold.PLP.ligand.clash>
0.0000

> <Gold.PLP.ligand.torsion>
0.8717

> <Gold.PLP.Chemscore.Hbond>
3.9760

> <Gold.PLP.Chemscore.CHOScore>
0.0000

> <Gold.PLP.Chemscore.Metal>
0.0000

> <Gold.Chemscore.Hbonds>
donor molecule, donor type, donor heavy atom, donor atom, acceptor molecule, acceptor atom, score
      L1  H    12    33       P1  7948  0.78
      L1  H    15    50       P1  7948  2.00
      P1  H  7997  8009       L1     3  0.99

> <Gold.PLP.Chemscore.Internal.Correction>
0.0277

> <Gold.Rescore>
     Score         DG    S(hbond)    S(metal)    S(lipo)     H(rot)  DE(clash)    DE(int)     intcor
     17.29     -20.67       2.91        0.00      82.20       1.61       1.27       2.11       ----

> <Gold.Chemscore.Fitness>
17.2901

> <Gold.Chemscore.DG>
-20.6705

> <Gold.Chemscore.ZeroCoef>
-5.4800

> <Gold.Chemscore.Hbond>
2.9060

> <Gold.Chemscore.Metal>
0.0000

> <Gold.Chemscore.Lipo>
82.1967

> <Gold.Chemscore.Internal_Hbond>
0.0000

> <Gold.Chemscore.DEClash>
1.2716

> <Gold.Chemscore.DEInternal>
2.1089

> <Gold.Chemscore.Rot>
1.6142

> <Gold.Chemscore.Internal.Correction>
   9.000000E+99

> <Gold.Chemscore.Hbonds>
donor molecule, donor type, donor heavy atom, donor atom, acceptor molecule, acceptor atom, score
      L1  H    12    33       P1  7948  0.80
      L1  H    15    50       P1  7948  1.00
      P1  H  7997  8009       L1     3  0.76

> <Gold.Chemscore.Hbond.Weighted>
-9.7059

> <Gold.Chemscore.Metal.Weighted>
-0.0000

> <Gold.Chemscore.Lipo.Weighted>
-9.6170

> <Gold.Chemscore.Internal_Hbond.Weighted>
0.0000

> <Gold.Chemscore.DEClash.Weighted>
1.2716

> <Gold.Chemscore.DEInternal.Weighted>
2.1089

> <Gold.Chemscore.Rot.Weighted>
4.1324

> <Gold.Chemscore.Internal.Correction.Weighted>
   9.000000E+99

> <Gold.Protein.RotatedTorsions>
[ 6907 6896 6895 6894 ] final  -76.40 input  -60.11 | X-H torsion
[ 7974 7965 7964 7962 ] final  100.21 input  175.53 | X-H torsion
[ 8008 7997 7996 7995 ] final -169.83 input   59.86 | X-H torsion
[ 10167 10162 10161 10158 ] final  -76.34 input  -65.29 | X-H torsion
[ 10718 10713 10712 10709 ] final   82.33 input   66.30 | X-H torsion
[ 10763 10752 10751 10750 ] final  178.51 input  -60.55 | X-H torsion
[ 11005 11000 10999 10996 ] final  -41.38 input  -57.11 | X-H torsion

> <Gold.Protein.ActiveResidues>
 VAL166  LYS551  ARG553  GLY616  TRP617  ASP618  TYR619  PRO620  LYS621  CYS622 
 ASP623  PHE694  ASN695  SER759  ASP760  ASP761  ALA762  ILE779  LEU786  VAL792 
 PHE793  MET794  SER795  GLU796  ALA797  LYS798  CYS799  TRP800  GLU811  SER814 

> <Gold.Protein.RotatedAtoms>
  150.7028  134.4577  159.5365 H   0  0  0  0  0  0  0  0  0  0  0  0  # atno 6907 bound_to 6896
  152.2258  134.8367  160.0489 H   0  0  0  0  0  0  0  0  0  0  0  0  # atno 6908 bound_to 6896
  151.9201  133.3548  159.3931 H   0  0  0  0  0  0  0  0  0  0  0  0  # atno 6909 bound_to 6896
  145.3885  139.2367  143.3364 H   0  0  0  0  0  0  0  0  0  0  0  0  # atno 7974 bound_to 7965
  155.9103  140.1056  157.1284 H   0  0  0  0  0  0  0  0  0  0  0  0  # atno 8008 bound_to 7997
  154.4038  140.1275  156.4613 H   0  0  0  0  0  0  0  0  0  0  0  0  # atno 8009 bound_to 7997
  155.7318  140.3468  155.5065 H   0  0  0  0  0  0  0  0  0  0  0  0  # atno 8010 bound_to 7997
  140.4865  143.2390  151.7975 H   0  0  0  0  0  0  0  0  0  0  0  0  # atno 10167 bound_to 10162
  157.6854  131.0043  150.2359 H   0  0  0  0  0  0  0  0  0  0  0  0  # atno 10718 bound_to 10713
  154.5086  135.2787  155.1361 H   0  0  0  0  0  0  0  0  0  0  0  0  # atno 10763 bound_to 10752
  154.2966  135.6256  153.5411 H   0  0  0  0  0  0  0  0  0  0  0  0  # atno 10764 bound_to 10752
  152.9914  135.5687  154.5546 H   0  0  0  0  0  0  0  0  0  0  0  0  # atno 10765 bound_to 10752
  141.0242  133.6849  156.2450 H   0  0  0  0  0  0  0  0  0  0  0  0  # atno 11005 bound_to 11000
  146.2808  140.4564  142.8777 LP  0  0  0  0  0  0  0  0  0  0  0  0  # atno 17320 bound_to 7965
  144.8457  140.6925  143.6201 LP  0  0  0  0  0  0  0  0  0  0  0  0  # atno 17321 bound_to 7965
  139.4843  144.4705  151.9431 LP  0  0  0  0  0  0  0  0  0  0  0  0  # atno 17342 bound_to 10162
  140.3791  144.2759  150.5910 LP  0  0  0  0  0  0  0  0  0  0  0  0  # atno 17343 bound_to 10162
  156.2983  130.3755  149.7775 LP  0  0  0  0  0  0  0  0  0  0  0  0  # atno 17370 bound_to 10713
  156.5413  130.8301  151.3270 LP  0  0  0  0  0  0  0  0  0  0  0  0  # atno 17371 bound_to 10713
  140.6521  134.5056  157.5578 LP  0  0  0  0  0  0  0  0  0  0  0  0  # atno 17394 bound_to 11000
  139.9165  134.8236  156.1349 LP  0  0  0  0  0  0  0  0  0  0  0  0  # atno 17395 bound_to 11000

$$$$
