AV-unprocessed.smi:1351|AV-procd|sdf|5524|dock3
  -GOLD-   22720 5113D 1   1.00000     0.00000
 Structure written by MMmdl.
 34 35  0  0  0  0  0  0  0  0  1 V2000
  152.6029  143.9105  161.7369 C   0  0  0  0  0  0  0  0  0  0  0  0
  152.9020  142.7957  160.8437 N   0  0  0  0  0  0  0  0  0  0  0  0
  154.0144  141.9028  161.1438 C   0  0  0  0  0  0  0  0  0  0  0  0
  152.0909  142.5658  159.7089 C   0  0  0  0  0  0  0  0  0  0  0  0
  152.1512  141.3453  158.9914 C   0  0  0  0  0  0  0  0  0  0  0  0
  151.3197  141.1657  157.8698 C   0  0  0  0  0  0  0  0  0  0  0  0
  150.4403  142.1969  157.4889 C   0  0  0  0  0  0  0  0  0  0  0  0
  149.6260  141.9886  156.3429 N   0  0  0  0  0  0  0  0  0  0  0  0
  149.7867  141.1044  155.3398 C   0  0  0  0  0  0  0  0  0  0  0  0
  150.7103  140.2942  155.2697 O   0  0  0  0  0  0  0  0  0  0  0  0
  148.7248  141.1334  154.2291 C   0  0  2  0  0  0  0  0  0  0  0  0
  147.5436  142.0869  154.4979 C   0  0  0  0  0  0  0  0  0  0  0  0
  146.3127  141.2061  154.3583 C   0  0  0  0  0  0  0  0  0  0  0  0
  146.8290  140.0228  153.5519 C   0  0  0  0  0  0  0  0  0  0  0  0
  148.1332  139.8441  154.0756 O   0  0  0  0  0  0  0  0  0  0  0  0
  150.4580  143.3863  158.2542 C   0  0  0  0  0  0  0  0  0  0  0  0
  151.2545  143.5627  159.3295 N   0  0  0  0  0  0  0  0  0  0  0  0
  152.6625  144.8580  161.2005 H   0  0  0  0  0  0  0  0  0  0  0  0
  153.3055  143.9542  162.5691 H   0  0  0  0  0  0  0  0  0  0  0  0
  151.5998  143.8097  162.1526 H   0  0  0  0  0  0  0  0  0  0  0  0
  154.7356  141.9009  160.3260 H   0  0  0  0  0  0  0  0  0  0  0  0
  153.6572  140.8844  161.2989 H   0  0  0  0  0  0  0  0  0  0  0  0
  154.5395  142.2119  162.0476 H   0  0  0  0  0  0  0  0  0  0  0  0
  152.8165  140.5448  159.2769 H   0  0  0  0  0  0  0  0  0  0  0  0
  151.3570  140.2410  157.3124 H   0  0  0  0  0  0  0  0  0  0  0  0
  148.8588  142.6360  156.2318 H   0  0  0  0  0  0  0  0  0  0  0  0
  149.2074  141.4034  153.2886 H   0  0  0  0  0  0  0  0  0  0  0  0
  147.5700  142.5594  155.4808 H   0  0  0  0  0  0  0  0  0  0  0  0
  147.5326  142.8829  153.7526 H   0  0  0  0  0  0  0  0  0  0  0  0
  145.9872  140.8662  155.3423 H   0  0  0  0  0  0  0  0  0  0  0  0
  145.4749  141.7137  153.8798 H   0  0  0  0  0  0  0  0  0  0  0  0
  146.2183  139.1281  153.6746 H   0  0  0  0  0  0  0  0  0  0  0  0
  146.8856  140.2639  152.4893 H   0  0  0  0  0  0  0  0  0  0  0  0
  149.8436  144.2373  158.0066 H   0  0  0  0  0  0  0  0  0  0  0  0
  1  2  1  0  0  0  0
  1 18  1  0  0  0  0
  1 19  1  0  0  0  0
  1 20  1  0  0  0  0
  2  3  1  0  0  0  0
  2  4  1  0  0  0  0
  3 21  1  0  0  0  0
  3 22  1  0  0  0  0
  3 23  1  0  0  0  0
  4 17  1  0  0  0  0
  4  5  2  0  0  0  0
  5  6  1  0  0  0  0
  5 24  1  0  0  0  0
  6  7  2  0  0  0  0
  6 25  1  0  0  0  0
  7  8  1  0  0  0  0
  7 16  1  0  0  0  0
  8  9  1  0  0  0  0
  8 26  1  0  0  0  0
  9 10  2  0  0  0  0
  9 11  1  0  0  0  0
 11 15  1  0  0  0  0
 11 12  1  0  0  0  0
 11 27  1  0  0  0  0
 12 13  1  0  0  0  0
 12 28  1  0  0  0  0
 12 29  1  0  0  0  0
 13 14  1  0  0  0  0
 13 30  1  0  0  0  0
 13 31  1  0  0  0  0
 14 15  1  0  0  0  0
 14 32  1  0  0  0  0
 14 33  1  0  0  0  0
 16 17  2  0  0  0  0
 16 34  1  0  0  0  0
M  END
> <s_m_source_file>
AV-unprocessed.smi

> <i_m_source_file_index>
1351

> <i_lp_mmshare_version>
43012

> <i_f3d_flags>
0

> <s_epik_input>
W0NIM11OKFtDSDNdKWMxW2NIXVtjSF1jKFtjSF1uMSlbTkhdQyg9TylbQ0BASF0yW0NIMl1bQ0gyXVtDSDJdTzI=

> <s_epik_cmdline>
J2VwaWtfcHl0aG9uJywgJy1waCcsICc3LjAnLCAnLXRuJywgJzgnLCAnLW1hJywgJzIwMCcsICctbWV0YWxfYmluZGluZycsICctaW1hZScsICc8aW5maWxlLm1hZT4nLCAnLW9tYWUnLCAnPG91dGZpbGUubWFlPic=

> <r_lp_tautomer_probability>
1

> <r_epik_Ionization_Penalty>
0.225439

> <r_epik_Ionization_Penalty_Charging>
0

> <r_epik_Ionization_Penalty_Neutral>
0.225439

> <r_epik_State_Penalty>
0.21555

> <r_epik_Charging_Adjusted_Penalty>
0.21555

> <i_epik_Tot_Q>
0

> <i_epik_Tot_abs_Q>
0

> <r_epik_Metal_State_Penalty>
0.155168

> <b_epik_Metal_Only>
0

> <s_lp_Force_Field>
OPLS_2005

> <r_lp_Energy>
24.8197

> <b_lp_Chiralities_Consistent>
1

> <s_lp_Variant>
AV-unprocessed.smi:1351-1

> <Gold.Version>
5.8.1

> <Gold.Id.Protein>
6NUR|6NUR_protein|mol2

> <Gold.PLP.Fitness>
45.3889

> <Gold.PLP.PLP>
-37.6973

> <Gold.PLP.part.hbond>
-2.0000

> <Gold.PLP.part.metal>
0.0000

> <Gold.PLP.part.buried>
-2.0135

> <Gold.PLP.part.nonpolar>
-33.5821

> <Gold.PLP.part.repulsive>
0.9951

> <Gold.PLP.ligand.clash>
0.0000

> <Gold.PLP.ligand.torsion>
0.2267

> <Gold.PLP.Chemscore.Hbond>
1.7200

> <Gold.PLP.Chemscore.CHOScore>
0.9926

> <Gold.PLP.Chemscore.Metal>
0.0000

> <Gold.Chemscore.Hbonds>
donor molecule, donor type, donor heavy atom, donor atom, acceptor molecule, acceptor atom, score
      L1  H     8    26       P1  8028  0.41
      P1  H  7989  7998       L1    10  0.89
      L1  C    16    34       P1  8028  0.71
      L1  C    16    34       P1  8029  0.31

> <Gold.PLP.Chemscore.Internal.Correction>
0.0071

> <Gold.Rescore>
     Score         DG    S(hbond)    S(metal)    S(lipo)     H(rot)  DE(clash)    DE(int)     intcor
     14.07     -15.97       1.18        0.00      77.81       1.00       0.31       1.59       ----

> <Gold.Chemscore.Fitness>
14.0711

> <Gold.Chemscore.DG>
-15.9736

> <Gold.Chemscore.ZeroCoef>
-5.4800

> <Gold.Chemscore.Hbond>
1.1825

> <Gold.Chemscore.Metal>
0.0000

> <Gold.Chemscore.Lipo>
77.8113

> <Gold.Chemscore.Internal_Hbond>
0.0000

> <Gold.Chemscore.DEClash>
0.3137

> <Gold.Chemscore.DEInternal>
1.5889

> <Gold.Chemscore.Rot>
1.0000

> <Gold.Chemscore.Internal.Correction>
   9.000000E+99

> <Gold.Chemscore.Hbonds>
donor molecule, donor type, donor heavy atom, donor atom, acceptor molecule, acceptor atom, score
      L1  H     8    26       P1  8028  0.41
      P1  H  7989  7998       L1    10  0.25

> <Gold.Chemscore.Hbond.Weighted>
-3.9497

> <Gold.Chemscore.Metal.Weighted>
-0.0000

> <Gold.Chemscore.Lipo.Weighted>
-9.1039

> <Gold.Chemscore.Internal_Hbond.Weighted>
0.0000

> <Gold.Chemscore.DEClash.Weighted>
0.3137

> <Gold.Chemscore.DEInternal.Weighted>
1.5889

> <Gold.Chemscore.Rot.Weighted>
2.5600

> <Gold.Chemscore.Internal.Correction.Weighted>
   9.000000E+99

> <Gold.Protein.RotatedTorsions>
[ 6907 6896 6895 6894 ] final  115.25 input  -60.11 | X-H torsion
[ 7974 7965 7964 7962 ] final   21.01 input  175.53 | X-H torsion
[ 8008 7997 7996 7995 ] final  142.99 input   59.86 | X-H torsion
[ 10167 10162 10161 10158 ] final   -2.41 input  -65.29 | X-H torsion
[ 10718 10713 10712 10709 ] final  -53.28 input   66.30 | X-H torsion
[ 10763 10752 10751 10750 ] final   65.32 input  -60.55 | X-H torsion
[ 11005 11000 10999 10996 ] final  165.87 input  -57.11 | X-H torsion

> <Gold.Protein.ActiveResidues>
 VAL166  LYS551  ARG553  GLY616  TRP617  ASP618  TYR619  PRO620  LYS621  CYS622 
 ASP623  PHE694  ASN695  SER759  ASP760  ASP761  ALA762  ILE779  LEU786  VAL792 
 PHE793  MET794  SER795  GLU796  ALA797  LYS798  CYS799  TRP800  GLU811  SER814 

> <Gold.Protein.RotatedAtoms>
  152.4753  133.8124  159.7010 H   0  0  0  0  0  0  0  0  0  0  0  0  # atno 6907 bound_to 6896
  150.8767  133.7420  159.2951 H   0  0  0  0  0  0  0  0  0  0  0  0  # atno 6908 bound_to 6896
  151.4937  135.1062  159.9862 H   0  0  0  0  0  0  0  0  0  0  0  0  # atno 6909 bound_to 6896
  146.2089  139.8088  142.8704 H   0  0  0  0  0  0  0  0  0  0  0  0  # atno 7974 bound_to 7965
  156.2939  140.2274  156.4817 H   0  0  0  0  0  0  0  0  0  0  0  0  # atno 8008 bound_to 7997
  154.7847  140.0458  157.1175 H   0  0  0  0  0  0  0  0  0  0  0  0  # atno 8009 bound_to 7997
  154.9717  140.3067  155.4988 H   0  0  0  0  0  0  0  0  0  0  0  0  # atno 8010 bound_to 7997
  140.6850  143.6660  150.8225 H   0  0  0  0  0  0  0  0  0  0  0  0  # atno 10167 bound_to 10162
  156.1548  130.4150  149.9886 H   0  0  0  0  0  0  0  0  0  0  0  0  # atno 10718 bound_to 10713
  153.0092  135.5361  154.6649 H   0  0  0  0  0  0  0  0  0  0  0  0  # atno 10763 bound_to 10752
  154.5848  135.2853  155.0698 H   0  0  0  0  0  0  0  0  0  0  0  0  # atno 10764 bound_to 10752
  154.1813  135.6515  153.5087 H   0  0  0  0  0  0  0  0  0  0  0  0  # atno 10765 bound_to 10752
  140.2606  134.7905  157.3586 H   0  0  0  0  0  0  0  0  0  0  0  0  # atno 11005 bound_to 11000
  145.3218  141.0245  143.3496 LP  0  0  0  0  0  0  0  0  0  0  0  0  # atno 17320 bound_to 7965
  144.8861  139.4837  143.6700 LP  0  0  0  0  0  0  0  0  0  0  0  0  # atno 17321 bound_to 7965
  140.0366  143.5389  152.2736 LP  0  0  0  0  0  0  0  0  0  0  0  0  # atno 17342 bound_to 10162
  139.6201  144.7627  151.2760 LP  0  0  0  0  0  0  0  0  0  0  0  0  # atno 17343 bound_to 10162
  156.7733  130.9194  151.3645 LP  0  0  0  0  0  0  0  0  0  0  0  0  # atno 17370 bound_to 10713
  157.6686  130.9030  149.9989 LP  0  0  0  0  0  0  0  0  0  0  0  0  # atno 17371 bound_to 10713
  140.1469  134.4900  155.7990 LP  0  0  0  0  0  0  0  0  0  0  0  0  # atno 17394 bound_to 11000
  141.2191  133.6847  156.7309 LP  0  0  0  0  0  0  0  0  0  0  0  0  # atno 17395 bound_to 11000

$$$$
