AV-unprocessed.smi:1774|AV-procd|sdf|7167|dock10
  -GOLD-   22720 8403D 1   1.00000     0.00000
 Structure written by MMmdl.
 46 47  0  0  0  0  0  0  0  0  2 V2000
  147.1553  132.4734  152.4776 C   0  0  0  0  0  0  0  0  0  0  0  0
  145.9963  132.7770  151.5419 C   0  0  0  0  0  0  0  0  0  0  0  0
  145.3074  131.7097  150.9274 C   0  0  0  0  0  0  0  0  0  0  0  0
  144.2344  131.9919  150.0651 C   0  0  0  0  0  0  0  0  0  0  0  0
  143.8926  133.3385  149.8534 C   0  0  0  0  0  0  0  0  0  0  0  0
  144.5452  134.3646  150.4363 N   0  0  0  0  0  0  0  0  0  0  0  0
  145.5833  134.1094  151.2718 C   0  0  0  0  0  0  0  0  0  0  0  0
  146.3200  135.1426  151.9173 N   0  0  0  0  0  0  0  0  0  0  0  0
  145.8895  136.0302  152.8313 C   0  0  0  0  0  0  0  0  0  0  0  0
  144.7501  136.0839  153.2952 O   0  0  0  0  0  0  0  0  0  0  0  0
  146.8707  136.8688  153.1954 N   0  0  0  0  0  0  0  0  0  0  0  0
  146.7379  137.9241  154.1934 C   0  0  0  0  0  0  0  0  0  0  0  0
  148.0470  138.7206  154.3624 C   0  0  0  0  0  0  0  0  0  0  0  0
  149.2470  137.8474  154.3578 N   0  3  1  0  0  0  0  0  0  0  0  0
  150.4903  138.5966  154.6572 C   0  0  0  0  0  0  0  0  0  0  0  0
  151.7156  137.6665  154.5763 C   0  0  1  0  0  0  0  0  0  0  0  0
  153.0150  138.3852  154.9545 C   0  0  0  0  0  0  0  0  0  0  0  0
  151.5328  136.5784  155.4754 O   0  0  0  0  0  0  0  0  0  0  0  0
  150.3914  135.7906  155.1559 C   0  0  1  0  0  0  0  0  0  0  0  0
  150.3446  134.6016  156.1219 C   0  0  0  0  0  0  0  0  0  0  0  0
  149.1294  136.6689  155.2520 C   0  0  0  0  0  0  0  0  0  0  0  0
  147.3296  131.4001  152.5590 H   0  0  0  0  0  0  0  0  0  0  0  0
  146.9473  132.8558  153.4773 H   0  0  0  0  0  0  0  0  0  0  0  0
  148.0730  132.9353  152.1124 H   0  0  0  0  0  0  0  0  0  0  0  0
  145.5954  130.6852  151.1124 H   0  0  0  0  0  0  0  0  0  0  0  0
  143.6879  131.1974  149.5791 H   0  0  0  0  0  0  0  0  0  0  0  0
  143.0744  133.5996  149.1989 H   0  0  0  0  0  0  0  0  0  0  0  0
  147.2915  135.2078  151.6521 H   0  0  0  0  0  0  0  0  0  0  0  0
  147.7780  136.7558  152.7669 H   0  0  0  0  0  0  0  0  0  0  0  0
  145.9087  138.5727  153.9104 H   0  0  0  0  0  0  0  0  0  0  0  0
  146.4606  137.4603  155.1404 H   0  0  0  0  0  0  0  0  0  0  0  0
  148.1201  139.4303  153.5369 H   0  0  0  0  0  0  0  0  0  0  0  0
  148.0343  139.3134  155.2783 H   0  0  0  0  0  0  0  0  0  0  0  0
  150.6057  139.4168  153.9475 H   0  0  0  0  0  0  0  0  0  0  0  0
  150.4167  139.0410  155.6515 H   0  0  0  0  0  0  0  0  0  0  0  0
  151.8165  137.2801  153.5605 H   0  0  0  0  0  0  0  0  0  0  0  0
  153.2049  139.2299  154.2920 H   0  0  0  0  0  0  0  0  0  0  0  0
  153.8677  137.7094  154.8834 H   0  0  0  0  0  0  0  0  0  0  0  0
  152.9749  138.7629  155.9764 H   0  0  0  0  0  0  0  0  0  0  0  0
  150.4948  135.4059  154.1394 H   0  0  0  0  0  0  0  0  0  0  0  0
  149.4892  133.9588  155.9127 H   0  0  0  0  0  0  0  0  0  0  0  0
  150.2675  134.9357  157.1570 H   0  0  0  0  0  0  0  0  0  0  0  0
  151.2452  133.9933  156.0346 H   0  0  0  0  0  0  0  0  0  0  0  0
  148.9813  137.0046  156.2799 H   0  0  0  0  0  0  0  0  0  0  0  0
  148.2585  136.0726  154.9831 H   0  0  0  0  0  0  0  0  0  0  0  0
  149.3466  137.4976  153.4156 H   0  0  0  0  0  0  0  0  0  0  0  0
  1  2  1  0  0  0  0
  1 22  1  0  0  0  0
  1 23  1  0  0  0  0
  1 24  1  0  0  0  0
  2  7  1  0  0  0  0
  2  3  2  0  0  0  0
  3  4  1  0  0  0  0
  3 25  1  0  0  0  0
  4  5  2  0  0  0  0
  4 26  1  0  0  0  0
  5  6  1  0  0  0  0
  5 27  1  0  0  0  0
  6  7  2  0  0  0  0
  7  8  1  0  0  0  0
  8  9  1  0  0  0  0
  8 28  1  0  0  0  0
  9 10  2  0  0  0  0
  9 11  1  0  0  0  0
 11 12  1  0  0  0  0
 11 29  1  0  0  0  0
 12 13  1  0  0  0  0
 12 30  1  0  0  0  0
 12 31  1  0  0  0  0
 13 14  1  0  0  0  0
 13 32  1  0  0  0  0
 13 33  1  0  0  0  0
 14 21  1  0  0  0  0
 14 15  1  0  0  0  0
 14 46  1  0  0  0  0
 15 16  1  0  0  0  0
 15 34  1  0  0  0  0
 15 35  1  0  0  0  0
 16 17  1  0  0  0  0
 16 18  1  0  0  0  0
 16 36  1  0  0  0  0
 17 37  1  0  0  0  0
 17 38  1  0  0  0  0
 17 39  1  0  0  0  0
 18 19  1  0  0  0  0
 19 20  1  0  0  0  0
 19 21  1  0  0  0  0
 19 40  1  0  0  0  0
 20 41  1  0  0  0  0
 20 42  1  0  0  0  0
 20 43  1  0  0  0  0
 21 44  1  0  0  0  0
 21 45  1  0  0  0  0
M  CHG  1  14   1
M  END
> <s_m_source_file>
AV-unprocessed.smi

> <i_m_source_file_index>
1774

> <i_lp_mmshare_version>
43012

> <i_f3d_flags>
0

> <s_epik_input>
W0NIM11jMVtjSF1bY0hdW2NIXW5jMVtOSF1DKD1PKVtOSF1bQ0gyXVtDSDJdTjJbQ0gyXVtDQEBIXShbQ0gzXSlPW0NAQEhdKFtDSDNdKVtDSDJdMg==

> <s_epik_cmdline>
J2VwaWtfcHl0aG9uJywgJy1waCcsICc3LjAnLCAnLXRuJywgJzgnLCAnLW1hJywgJzIwMCcsICctbWV0YWxfYmluZGluZycsICctaW1hZScsICc8aW5maWxlLm1hZT4nLCAnLW9tYWUnLCAnPG91dGZpbGUubWFlPic=

> <r_epik_Ionization_Penalty>
0.602573

> <r_epik_Ionization_Penalty_Charging>
0.602531

> <r_epik_Ionization_Penalty_Neutral>
4.21996e-05

> <r_epik_State_Penalty>
0.617039

> <r_epik_Charging_Adjusted_Penalty>
1.21957

> <i_epik_Tot_Q>
1

> <i_epik_Tot_abs_Q>
1

> <r_epik_Metal_State_Penalty>
0.617042

> <b_epik_Metal_Only>
0

> <s_lp_Force_Field>
OPLS_2005

> <r_lp_Energy>
15.6229

> <b_lp_Chiralities_Consistent>
1

> <s_lp_Variant>
AV-unprocessed.smi:1774-4

> <Gold.Version>
5.8.1

> <Gold.Id.Protein>
6NUR|6NUR_protein|mol2

> <Gold.PLP.Fitness>
51.7558

> <Gold.PLP.PLP>
-35.6808

> <Gold.PLP.part.hbond>
-4.0000

> <Gold.PLP.part.metal>
0.0000

> <Gold.PLP.part.buried>
-6.0376

> <Gold.PLP.part.nonpolar>
-27.5096

> <Gold.PLP.part.repulsive>
0.3921

> <Gold.PLP.ligand.clash>
0.0000

> <Gold.PLP.ligand.torsion>
0.7352

> <Gold.PLP.Chemscore.Hbond>
4.8440

> <Gold.PLP.Chemscore.CHOScore>
1.0000

> <Gold.PLP.Chemscore.Metal>
0.0000

> <Gold.Chemscore.Hbonds>
donor molecule, donor type, donor heavy atom, donor atom, acceptor molecule, acceptor atom, score
      L1  H     8    28       P1  7948  0.94
      L1  H    11    29       P1  7948  1.00
      L1  H    14    46       P1  7948  2.00
      P1  H 10752 10764       L1    18  0.90
      L1  C     5    27       P1 10186  1.00

> <Gold.PLP.Chemscore.Internal.Correction>
0.0133

> <Gold.Rescore>
     Score         DG    S(hbond)    S(metal)    S(lipo)     H(rot)  DE(clash)    DE(int)     intcor
     20.70     -21.43       2.84        0.00      87.87       1.49       0.03       0.70       ----

> <Gold.Chemscore.Fitness>
20.7039

> <Gold.Chemscore.DG>
-21.4335

> <Gold.Chemscore.ZeroCoef>
-5.4800

> <Gold.Chemscore.Hbond>
2.8440

> <Gold.Chemscore.Metal>
0.0000

> <Gold.Chemscore.Lipo>
87.8677

> <Gold.Chemscore.Internal_Hbond>
0.0000

> <Gold.Chemscore.DEClash>
0.0323

> <Gold.Chemscore.DEInternal>
0.6973

> <Gold.Chemscore.Rot>
1.4946

> <Gold.Chemscore.Internal.Correction>
   9.000000E+99

> <Gold.Chemscore.Hbonds>
donor molecule, donor type, donor heavy atom, donor atom, acceptor molecule, acceptor atom, score
      L1  H     8    28       P1  7948  0.84
      L1  H    11    29       P1  7948  0.97
      L1  H    14    46       P1  7948  0.91
      P1  H 10752 10764       L1    18  0.09

> <Gold.Chemscore.Hbond.Weighted>
-9.4991

> <Gold.Chemscore.Metal.Weighted>
-0.0000

> <Gold.Chemscore.Lipo.Weighted>
-10.2805

> <Gold.Chemscore.Internal_Hbond.Weighted>
0.0000

> <Gold.Chemscore.DEClash.Weighted>
0.0323

> <Gold.Chemscore.DEInternal.Weighted>
0.6973

> <Gold.Chemscore.Rot.Weighted>
3.8261

> <Gold.Chemscore.Internal.Correction.Weighted>
   9.000000E+99

> <Gold.Protein.RotatedTorsions>
[ 6907 6896 6895 6894 ] final   82.91 input  -60.11 | X-H torsion
[ 7974 7965 7964 7962 ] final  -24.26 input  175.53 | X-H torsion
[ 8008 7997 7996 7995 ] final   70.92 input   59.86 | X-H torsion
[ 10167 10162 10161 10158 ] final   38.15 input  -65.29 | X-H torsion
[ 10718 10713 10712 10709 ] final  -32.90 input   66.30 | X-H torsion
[ 10763 10752 10751 10750 ] final  -39.41 input  -60.55 | X-H torsion
[ 11005 11000 10999 10996 ] final  -44.58 input  -57.11 | X-H torsion

> <Gold.Protein.ActiveResidues>
 VAL166  LYS551  ARG553  GLY616  TRP617  ASP618  TYR619  PRO620  LYS621  CYS622 
 ASP623  PHE694  ASN695  SER759  ASP760  ASP761  ALA762  ILE779  LEU786  VAL792 
 PHE793  MET794  SER795  GLU796  ALA797  LYS798  CYS799  TRP800  GLU811  SER814 

> <Gold.Protein.RotatedAtoms>
  152.5312  134.2977  159.9066 H   0  0  0  0  0  0  0  0  0  0  0  0  # atno 6907 bound_to 6896
  151.2928  133.4151  159.2642 H   0  0  0  0  0  0  0  0  0  0  0  0  # atno 6908 bound_to 6896
  151.0186  134.9468  159.8104 H   0  0  0  0  0  0  0  0  0  0  0  0  # atno 6909 bound_to 6896
  146.1566  140.4728  142.8589 H   0  0  0  0  0  0  0  0  0  0  0  0  # atno 7974 bound_to 7965
  155.7460  140.3489  155.5127 H   0  0  0  0  0  0  0  0  0  0  0  0  # atno 8008 bound_to 7997
  155.9049  140.1040  157.1344 H   0  0  0  0  0  0  0  0  0  0  0  0  # atno 8009 bound_to 7997
  154.4048  140.1279  156.4470 H   0  0  0  0  0  0  0  0  0  0  0  0  # atno 8010 bound_to 7997
  140.3964  144.1783  150.6132 H   0  0  0  0  0  0  0  0  0  0  0  0  # atno 10167 bound_to 10162
  156.3692  130.4337  149.7559 H   0  0  0  0  0  0  0  0  0  0  0  0  # atno 10718 bound_to 10713
  153.9289  135.6774  153.4746 H   0  0  0  0  0  0  0  0  0  0  0  0  # atno 10763 bound_to 10752
  153.0990  135.4837  154.8829 H   0  0  0  0  0  0  0  0  0  0  0  0  # atno 10764 bound_to 10752
  154.7438  135.3167  154.8637 H   0  0  0  0  0  0  0  0  0  0  0  0  # atno 10765 bound_to 10752
  141.0459  133.6761  156.2892 H   0  0  0  0  0  0  0  0  0  0  0  0  # atno 11005 bound_to 11000
  144.7971  140.6143  143.6503 LP  0  0  0  0  0  0  0  0  0  0  0  0  # atno 17320 bound_to 7965
  145.4694  139.1505  143.3822 LP  0  0  0  0  0  0  0  0  0  0  0  0  # atno 17321 bound_to 7965
  140.4786  143.2387  151.8987 LP  0  0  0  0  0  0  0  0  0  0  0  0  # atno 17342 bound_to 10162
  139.4786  144.5293  151.8689 LP  0  0  0  0  0  0  0  0  0  0  0  0  # atno 17343 bound_to 10162
  156.4693  130.7989  151.3007 LP  0  0  0  0  0  0  0  0  0  0  0  0  # atno 17370 bound_to 10713
  157.7482  131.0041  150.3063 LP  0  0  0  0  0  0  0  0  0  0  0  0  # atno 17371 bound_to 10713
  140.6147  134.5423  157.5539 LP  0  0  0  0  0  0  0  0  0  0  0  0  # atno 17394 bound_to 11000
  139.9312  134.7961  156.0927 LP  0  0  0  0  0  0  0  0  0  0  0  0  # atno 17395 bound_to 11000

$$$$
