AV-unprocessed.smi:1309|AV-procd|sdf|5444|dock8
  -GOLD-   22720 5 13D 1   1.00000     0.00000
 Structure written by MMmdl.
 41 42  0  0  0  0  0  0  0  0  1 V2000
  152.4892  143.2299  161.7965 C   0  0  0  0  0  0  0  0  0  0  0  0
  152.5024  143.8125  160.3758 C   0  0  0  0  0  0  0  0  0  0  0  0
  151.7149  145.1257  160.2565 C   0  0  0  0  0  0  0  0  0  0  0  0
  152.0778  142.8078  159.3512 C   0  0  0  0  0  0  0  0  0  0  0  0
  152.1537  141.4861  159.5332 N   0  0  0  0  0  0  0  0  0  0  0  0
  151.6851  140.7591  158.4341 C   0  0  0  0  0  0  0  0  0  0  0  0
  151.6842  139.2586  158.4729 C   0  0  0  0  0  0  0  0  0  0  0  0
  153.0400  138.7444  158.9597 C   0  0  0  0  0  0  0  0  0  0  0  0
  154.0067  138.7373  158.1978 O   0  0  0  0  0  0  0  0  0  0  0  0
  153.0986  138.3157  160.2311 N   0  0  0  0  0  0  0  0  0  0  0  0
  154.2942  137.7962  160.8913 C   0  0  0  0  0  0  0  0  0  0  0  0
  154.2618  136.2734  161.1179 C   0  0  0  0  0  0  0  0  0  0  0  0
  154.2140  135.5078  160.1532 O   0  0  0  0  0  0  0  0  0  0  0  0
  154.2750  135.8213  162.3887 N   0  0  0  0  0  0  0  0  0  0  0  0
  154.2683  134.4166  162.7959 C   0  0  0  0  0  0  0  0  0  0  0  0
  154.5508  134.4212  164.2986 C   0  0  0  0  0  0  0  0  0  0  0  0
  154.0689  135.7882  164.7638 C   0  0  0  0  0  0  0  0  0  0  0  0
  154.3046  136.6980  163.5577 C   0  0  0  0  0  0  0  0  0  0  0  0
  151.2637  141.5579  157.3997 C   0  0  0  0  0  0  0  0  0  0  0  0
  151.4247  143.2506  157.7777 S   0  0  0  0  0  0  0  0  0  0  0  0
  153.1203  142.3429  161.8629 H   0  0  0  0  0  0  0  0  0  0  0  0
  151.4808  142.9449  162.0985 H   0  0  0  0  0  0  0  0  0  0  0  0
  152.8605  143.9545  162.5218 H   0  0  0  0  0  0  0  0  0  0  0  0
  153.5419  144.0569  160.1533 H   0  0  0  0  0  0  0  0  0  0  0  0
  151.8127  145.5526  159.2579 H   0  0  0  0  0  0  0  0  0  0  0  0
  152.0762  145.8668  160.9699 H   0  0  0  0  0  0  0  0  0  0  0  0
  150.6529  144.9701  160.4499 H   0  0  0  0  0  0  0  0  0  0  0  0
  150.8979  138.8885  159.1324 H   0  0  0  0  0  0  0  0  0  0  0  0
  151.4756  138.8462  157.4849 H   0  0  0  0  0  0  0  0  0  0  0  0
  152.2535  138.3500  160.7822 H   0  0  0  0  0  0  0  0  0  0  0  0
  155.1776  138.0701  160.3123 H   0  0  0  0  0  0  0  0  0  0  0  0
  154.3840  138.2915  161.8581 H   0  0  0  0  0  0  0  0  0  0  0  0
  153.2834  133.9922  162.5956 H   0  0  0  0  0  0  0  0  0  0  0  0
  155.0116  133.8243  162.2605 H   0  0  0  0  0  0  0  0  0  0  0  0
  154.0635  133.5987  164.8230 H   0  0  0  0  0  0  0  0  0  0  0  0
  155.6249  134.3366  164.4689 H   0  0  0  0  0  0  0  0  0  0  0  0
  153.0016  135.7423  164.9840 H   0  0  0  0  0  0  0  0  0  0  0  0
  154.5807  136.1352  165.6618 H   0  0  0  0  0  0  0  0  0  0  0  0
  155.2846  137.1731  163.6215 H   0  0  0  0  0  0  0  0  0  0  0  0
  153.5497  137.4838  163.5008 H   0  0  0  0  0  0  0  0  0  0  0  0
  150.8638  141.2544  156.4436 H   0  0  0  0  0  0  0  0  0  0  0  0
  1  2  1  0  0  0  0
  1 21  1  0  0  0  0
  1 22  1  0  0  0  0
  1 23  1  0  0  0  0
  2  3  1  0  0  0  0
  2  4  1  0  0  0  0
  2 24  1  0  0  0  0
  3 25  1  0  0  0  0
  3 26  1  0  0  0  0
  3 27  1  0  0  0  0
  4 20  1  0  0  0  0
  4  5  2  0  0  0  0
  5  6  1  0  0  0  0
  6  7  1  0  0  0  0
  6 19  2  0  0  0  0
  7  8  1  0  0  0  0
  7 28  1  0  0  0  0
  7 29  1  0  0  0  0
  8  9  2  0  0  0  0
  8 10  1  0  0  0  0
 10 11  1  0  0  0  0
 10 30  1  0  0  0  0
 11 12  1  0  0  0  0
 11 31  1  0  0  0  0
 11 32  1  0  0  0  0
 12 13  2  0  0  0  0
 12 14  1  0  0  0  0
 14 18  1  0  0  0  0
 14 15  1  0  0  0  0
 15 16  1  0  0  0  0
 15 33  1  0  0  0  0
 15 34  1  0  0  0  0
 16 17  1  0  0  0  0
 16 35  1  0  0  0  0
 16 36  1  0  0  0  0
 17 18  1  0  0  0  0
 17 37  1  0  0  0  0
 17 38  1  0  0  0  0
 18 39  1  0  0  0  0
 18 40  1  0  0  0  0
 19 20  1  0  0  0  0
 19 41  1  0  0  0  0
M  END
> <s_m_source_file>
AV-unprocessed.smi

> <i_m_source_file_index>
1309

> <i_lp_mmshare_version>
43012

> <i_f3d_flags>
0

> <s_epik_input>
W0NIM11bQ0hdKFtDSDNdKWMxbmMoW2NIXXMxKVtDSDJdQyg9TylbTkhdW0NIMl1DKD1PKU4yW0NIMl1bQ0gyXVtDSDJdW0NIMl0y

> <s_epik_cmdline>
J2VwaWtfcHl0aG9uJywgJy1waCcsICc3LjAnLCAnLXRuJywgJzgnLCAnLW1hJywgJzIwMCcsICctbWV0YWxfYmluZGluZycsICctaW1hZScsICc8aW5maWxlLm1hZT4nLCAnLW9tYWUnLCAnPG91dGZpbGUubWFlPic=

> <r_lp_tautomer_probability>
1

> <r_epik_Ionization_Penalty>
2.87584e-05

> <r_epik_Ionization_Penalty_Charging>
0

> <r_epik_Ionization_Penalty_Neutral>
2.87584e-05

> <r_epik_State_Penalty>
-0

> <r_epik_Charging_Adjusted_Penalty>
0

> <i_epik_Tot_Q>
0

> <i_epik_Tot_abs_Q>
0

> <r_epik_Metal_State_Penalty>
-0

> <b_epik_Metal_Only>
0

> <s_lp_Force_Field>
OPLS_2005

> <r_lp_Energy>
16.8696

> <b_lp_Chiralities_Consistent>
1

> <s_lp_Variant>
AV-unprocessed.smi:1309-1

> <Gold.Version>
5.8.1

> <Gold.Id.Protein>
6NUR|6NUR_protein|mol2

> <Gold.PLP.Fitness>
44.8584

> <Gold.PLP.PLP>
-41.0170

> <Gold.PLP.part.hbond>
-2.0000

> <Gold.PLP.part.metal>
0.0000

> <Gold.PLP.part.buried>
-3.4629

> <Gold.PLP.part.nonpolar>
-37.0839

> <Gold.PLP.part.repulsive>
0.0756

> <Gold.PLP.ligand.clash>
0.0000

> <Gold.PLP.ligand.torsion>
1.1323

> <Gold.PLP.Chemscore.Hbond>
2.0000

> <Gold.PLP.Chemscore.CHOScore>
0.0000

> <Gold.PLP.Chemscore.Metal>
0.0000

> <Gold.Chemscore.Hbonds>
donor molecule, donor type, donor heavy atom, donor atom, acceptor molecule, acceptor atom, score
      P1  H  6896  6909       L1    13  1.00
      P1  H  7997  8008       L1     9  1.00

> <Gold.PLP.Chemscore.Internal.Correction>
0.1060

> <Gold.Rescore>
     Score         DG    S(hbond)    S(metal)    S(lipo)     H(rot)  DE(clash)    DE(int)     intcor
     19.60     -21.02       1.96        0.00     114.16       1.70       0.32       1.10       ----

> <Gold.Chemscore.Fitness>
19.6040

> <Gold.Chemscore.DG>
-21.0182

> <Gold.Chemscore.ZeroCoef>
-5.4800

> <Gold.Chemscore.Hbond>
1.9555

> <Gold.Chemscore.Metal>
0.0000

> <Gold.Chemscore.Lipo>
114.1575

> <Gold.Chemscore.Internal_Hbond>
0.0000

> <Gold.Chemscore.DEClash>
0.3162

> <Gold.Chemscore.DEInternal>
1.0980

> <Gold.Chemscore.Rot>
1.6991

> <Gold.Chemscore.Internal.Correction>
   9.000000E+99

> <Gold.Chemscore.Hbonds>
donor molecule, donor type, donor heavy atom, donor atom, acceptor molecule, acceptor atom, score
      P1  H  6896  6909       L1    13  0.69
      P1  H  7997  8008       L1     9  0.97

> <Gold.Chemscore.Hbond.Weighted>
-6.5315

> <Gold.Chemscore.Metal.Weighted>
-0.0000

> <Gold.Chemscore.Lipo.Weighted>
-13.3564

> <Gold.Chemscore.Internal_Hbond.Weighted>
0.0000

> <Gold.Chemscore.DEClash.Weighted>
0.3162

> <Gold.Chemscore.DEInternal.Weighted>
1.0980

> <Gold.Chemscore.Rot.Weighted>
4.3497

> <Gold.Chemscore.Internal.Correction.Weighted>
   9.000000E+99

> <Gold.Protein.RotatedTorsions>
[ 6907 6896 6895 6894 ] final  173.86 input  -60.11 | X-H torsion
[ 7974 7965 7964 7962 ] final  145.70 input  175.53 | X-H torsion
[ 8008 7997 7996 7995 ] final -115.40 input   59.86 | X-H torsion
[ 10167 10162 10161 10158 ] final  -84.25 input  -65.29 | X-H torsion
[ 10718 10713 10712 10709 ] final  -82.17 input   66.30 | X-H torsion
[ 10763 10752 10751 10750 ] final  -17.63 input  -60.55 | X-H torsion
[ 11005 11000 10999 10996 ] final -138.59 input  -57.11 | X-H torsion

> <Gold.Protein.ActiveResidues>
 VAL166  LYS551  ARG553  GLY616  TRP617  ASP618  TYR619  PRO620  LYS621  CYS622 
 ASP623  PHE694  ASN695  SER759  ASP760  ASP761  ALA762  ILE779  LEU786  VAL792 
 PHE793  MET794  SER795  GLU796  ALA797  LYS798  CYS799  TRP800  GLU811  SER814 

> <Gold.Protein.RotatedAtoms>
  151.7615  133.3334  159.3418 H   0  0  0  0  0  0  0  0  0  0  0  0  # atno 6907 bound_to 6896
  150.7496  134.6101  159.6091 H   0  0  0  0  0  0  0  0  0  0  0  0  # atno 6908 bound_to 6896
  152.3402  134.7146  160.0317 H   0  0  0  0  0  0  0  0  0  0  0  0  # atno 6909 bound_to 6896
  144.8731  139.5815  143.5877 H   0  0  0  0  0  0  0  0  0  0  0  0  # atno 7974 bound_to 7965
  155.0514  140.0393  157.2545 H   0  0  0  0  0  0  0  0  0  0  0  0  # atno 8008 bound_to 7997
  154.7134  140.2697  155.6583 H   0  0  0  0  0  0  0  0  0  0  0  0  # atno 8009 bound_to 7997
  156.2796  140.2717  156.1783 H   0  0  0  0  0  0  0  0  0  0  0  0  # atno 8010 bound_to 7997
  140.4150  143.2607  151.8967 H   0  0  0  0  0  0  0  0  0  0  0  0  # atno 10167 bound_to 10162
  156.0037  130.4626  150.4064 H   0  0  0  0  0  0  0  0  0  0  0  0  # atno 10718 bound_to 10713
  153.5769  135.7006  153.5480 H   0  0  0  0  0  0  0  0  0  0  0  0  # atno 10763 bound_to 10752
  153.3295  135.4051  155.1483 H   0  0  0  0  0  0  0  0  0  0  0  0  # atno 10764 bound_to 10752
  154.8624  135.3715  154.5294 H   0  0  0  0  0  0  0  0  0  0  0  0  # atno 10765 bound_to 10752
  140.8601  134.2180  157.4712 H   0  0  0  0  0  0  0  0  0  0  0  0  # atno 11005 bound_to 11000
  146.2944  139.7234  142.9137 LP  0  0  0  0  0  0  0  0  0  0  0  0  # atno 17320 bound_to 7965
  145.4093  141.0394  143.3026 LP  0  0  0  0  0  0  0  0  0  0  0  0  # atno 17321 bound_to 7965
  139.4782  144.5497  151.8404 LP  0  0  0  0  0  0  0  0  0  0  0  0  # atno 17342 bound_to 10162
  140.4597  144.1740  150.5905 LP  0  0  0  0  0  0  0  0  0  0  0  0  # atno 17343 bound_to 10162
  157.2130  131.0465  151.2589 LP  0  0  0  0  0  0  0  0  0  0  0  0  # atno 17370 bound_to 10713
  157.3871  130.7262  149.6671 LP  0  0  0  0  0  0  0  0  0  0  0  0  # atno 17371 bound_to 10713
  139.8706  134.9725  156.4776 LP  0  0  0  0  0  0  0  0  0  0  0  0  # atno 17394 bound_to 11000
  140.8693  133.8000  155.9347 LP  0  0  0  0  0  0  0  0  0  0  0  0  # atno 17395 bound_to 11000

$$$$
