AV-unprocessed.smi:2610|AV-procd|sdf|10209|dock3
  -GOLD-   2272014213D 1   1.00000     0.00000
 Structure written by MMmdl.
 46 48  0  0  0  0  0  0  0  0  2 V2000
  147.2215  139.6850  153.6981 C   0  0  0  0  0  0  0  0  0  0  0  0
  147.6379  141.1600  153.6771 C   0  0  0  0  0  0  0  0  0  0  0  0
  148.9559  141.4121  154.4232 C   0  0  0  0  0  0  0  0  0  0  0  0
  148.8973  140.9506  155.8879 C   0  0  0  0  0  0  0  0  0  0  0  0
  149.9241  141.6338  156.7379 C   0  0  0  0  0  0  0  0  0  0  0  0
  150.2726  142.9488  156.6496 N   0  3  0  0  0  0  0  0  0  0  0  0
  151.2577  143.2445  157.5900 C   0  0  0  0  0  0  0  0  0  0  0  0
  151.9084  144.4403  157.8778 C   0  0  0  0  0  0  0  0  0  0  0  0
  152.8690  144.4054  158.9091 C   0  0  0  0  0  0  0  0  0  0  0  0
  153.1496  143.2149  159.6095 C   0  0  0  0  0  0  0  0  0  0  0  0
  152.4837  142.0090  159.3074 C   0  0  0  0  0  0  0  0  0  0  0  0
  151.5361  142.0489  158.2832 C   0  0  0  0  0  0  0  0  0  0  0  0
  150.7048  141.0747  157.7115 N   0  0  0  0  0  0  0  0  0  0  0  0
  150.7636  139.6859  158.2100 C   0  0  0  0  0  0  0  0  0  0  0  0
  151.6315  138.7294  157.3504 C   0  0  0  0  0  0  0  0  0  0  0  0
  152.9923  139.0236  157.6113 O   0  0  0  0  0  0  0  0  0  0  0  0
  151.3920  137.2390  157.6749 C   0  0  0  0  0  0  0  0  0  0  0  0
  152.1093  136.3067  156.6823 C   0  0  0  0  0  0  0  0  0  0  0  0
  151.7148  136.6171  155.3515 O   0  0  0  0  0  0  0  0  0  0  0  0
  152.0816  137.9349  154.9617 C   0  0  0  0  0  0  0  0  0  0  0  0
  151.3643  138.9669  155.8505 C   0  0  0  0  0  0  0  0  0  0  0  0
  146.2814  139.5391  153.1657 H   0  0  0  0  0  0  0  0  0  0  0  0
  147.0834  139.3288  154.7194 H   0  0  0  0  0  0  0  0  0  0  0  0
  147.9743  139.0563  153.2216 H   0  0  0  0  0  0  0  0  0  0  0  0
  147.7333  141.4914  152.6422 H   0  0  0  0  0  0  0  0  0  0  0  0
  146.8448  141.7627  154.1216 H   0  0  0  0  0  0  0  0  0  0  0  0
  149.7655  140.8961  153.9054 H   0  0  0  0  0  0  0  0  0  0  0  0
  149.1930  142.4765  154.3879 H   0  0  0  0  0  0  0  0  0  0  0  0
  147.9018  141.1420  156.2871 H   0  0  0  0  0  0  0  0  0  0  0  0
  149.0565  139.8737  155.9503 H   0  0  0  0  0  0  0  0  0  0  0  0
  151.6930  145.3537  157.3432 H   0  0  0  0  0  0  0  0  0  0  0  0
  153.4002  145.3097  159.1688 H   0  0  0  0  0  0  0  0  0  0  0  0
  153.8914  143.2262  160.3948 H   0  0  0  0  0  0  0  0  0  0  0  0
  152.7115  141.1061  159.8534 H   0  0  0  0  0  0  0  0  0  0  0  0
  151.1148  139.6978  159.2416 H   0  0  0  0  0  0  0  0  0  0  0  0
  149.7389  139.3164  158.2638 H   0  0  0  0  0  0  0  0  0  0  0  0
  153.2937  138.4584  158.3063 H   0  0  0  0  0  0  0  0  0  0  0  0
  151.7075  137.0056  158.6923 H   0  0  0  0  0  0  0  0  0  0  0  0
  150.3236  137.0276  157.6257 H   0  0  0  0  0  0  0  0  0  0  0  0
  153.1932  136.3835  156.7809 H   0  0  0  0  0  0  0  0  0  0  0  0
  151.8477  135.2694  156.8913 H   0  0  0  0  0  0  0  0  0  0  0  0
  153.1649  138.0541  155.0143 H   0  0  0  0  0  0  0  0  0  0  0  0
  151.7997  138.0826  153.9191 H   0  0  0  0  0  0  0  0  0  0  0  0
  150.2926  138.8985  155.6601 H   0  0  0  0  0  0  0  0  0  0  0  0
  151.6605  139.9769  155.5636 H   0  0  0  0  0  0  0  0  0  0  0  0
  149.8566  143.5977  155.9942 H   0  0  0  0  0  0  0  0  0  0  0  0
  1  2  1  0  0  0  0
  1 22  1  0  0  0  0
  1 23  1  0  0  0  0
  1 24  1  0  0  0  0
  2  3  1  0  0  0  0
  2 25  1  0  0  0  0
  2 26  1  0  0  0  0
  3  4  1  0  0  0  0
  3 27  1  0  0  0  0
  3 28  1  0  0  0  0
  4  5  1  0  0  0  0
  4 29  1  0  0  0  0
  4 30  1  0  0  0  0
  5 13  1  0  0  0  0
  5  6  2  0  0  0  0
  6  7  1  0  0  0  0
  6 46  1  0  0  0  0
  7 12  2  0  0  0  0
  7  8  1  0  0  0  0
  8  9  2  0  0  0  0
  8 31  1  0  0  0  0
  9 10  1  0  0  0  0
  9 32  1  0  0  0  0
 10 11  2  0  0  0  0
 10 33  1  0  0  0  0
 11 12  1  0  0  0  0
 11 34  1  0  0  0  0
 12 13  1  0  0  0  0
 13 14  1  0  0  0  0
 14 15  1  0  0  0  0
 14 35  1  0  0  0  0
 14 36  1  0  0  0  0
 15 21  1  0  0  0  0
 15 16  1  0  0  0  0
 15 17  1  0  0  0  0
 16 37  1  0  0  0  0
 17 18  1  0  0  0  0
 17 38  1  0  0  0  0
 17 39  1  0  0  0  0
 18 19  1  0  0  0  0
 18 40  1  0  0  0  0
 18 41  1  0  0  0  0
 19 20  1  0  0  0  0
 20 21  1  0  0  0  0
 20 42  1  0  0  0  0
 20 43  1  0  0  0  0
 21 44  1  0  0  0  0
 21 45  1  0  0  0  0
M  CHG  1   6   1
M  END
> <s_m_source_file>
AV-unprocessed.smi

> <i_m_source_file_index>
2610

> <i_lp_mmshare_version>
43012

> <i_f3d_flags>
0

> <s_epik_input>
W0NIM11bQ0gyXVtDSDJdW0NIMl1jKG4xKW4oYyhjMTIpW2NIXVtjSF1bY0hdW2NIXTIpW0NIMl1DMyhbT0hdKVtDSDJdW0NIMl1PW0NIMl1bQ0gyXTM=

> <s_epik_cmdline>
J2VwaWtfcHl0aG9uJywgJy1waCcsICc3LjAnLCAnLXRuJywgJzgnLCAnLW1hJywgJzIwMCcsICctbWV0YWxfYmluZGluZycsICctaW1hZScsICc8aW5maWxlLm1hZT4nLCAnLW9tYWUnLCAnPG91dGZpbGUubWFlPic=

> <r_epik_Ionization_Penalty>
0.68424

> <r_epik_Ionization_Penalty_Charging>
0.68424

> <r_epik_Ionization_Penalty_Neutral>
5.75126e-08

> <r_epik_State_Penalty>
0.705545

> <r_epik_Charging_Adjusted_Penalty>
1.38978

> <i_epik_Tot_Q>
1

> <i_epik_Tot_abs_Q>
1

> <r_epik_Metal_State_Penalty>
4.58386

> <b_epik_Metal_Only>
0

> <s_lp_Force_Field>
OPLS_2005

> <r_lp_Energy>
18.9075

> <b_lp_Chiralities_Consistent>
1

> <s_lp_Variant>
AV-unprocessed.smi:2610-2

> <Gold.Version>
5.8.1

> <Gold.Id.Protein>
6NUR|6NUR_protein|mol2

> <Gold.PLP.Fitness>
52.9409

> <Gold.PLP.PLP>
-42.3482

> <Gold.PLP.part.hbond>
-2.7820

> <Gold.PLP.part.metal>
0.0000

> <Gold.PLP.part.buried>
-3.9641

> <Gold.PLP.part.nonpolar>
-36.6678

> <Gold.PLP.part.repulsive>
0.1406

> <Gold.PLP.ligand.clash>
0.0000

> <Gold.PLP.ligand.torsion>
0.8645

> <Gold.PLP.Chemscore.Hbond>
3.9760

> <Gold.PLP.Chemscore.CHOScore>
0.0000

> <Gold.PLP.Chemscore.Metal>
0.0000

> <Gold.Chemscore.Hbonds>
donor molecule, donor type, donor heavy atom, donor atom, acceptor molecule, acceptor atom, score
      L1  H     6    46       P1  8028  1.95
      P1  H  7997  8008       L1    16  1.00
      P1  H 10752 10764       L1    19  0.99

> <Gold.PLP.Chemscore.Internal.Correction>
0.3937

> <Gold.Rescore>
     Score         DG    S(hbond)    S(metal)    S(lipo)     H(rot)  DE(clash)    DE(int)     intcor
     22.12     -23.12       2.50        0.00     122.59       1.97       0.00       1.00       ----

> <Gold.Chemscore.Fitness>
22.1184

> <Gold.Chemscore.DG>
-23.1169

> <Gold.Chemscore.ZeroCoef>
-5.4800

> <Gold.Chemscore.Hbond>
2.4956

> <Gold.Chemscore.Metal>
0.0000

> <Gold.Chemscore.Lipo>
122.5908

> <Gold.Chemscore.Internal_Hbond>
0.0000

> <Gold.Chemscore.DEClash>
0.0029

> <Gold.Chemscore.DEInternal>
0.9956

> <Gold.Chemscore.Rot>
1.9694

> <Gold.Chemscore.Internal.Correction>
   9.000000E+99

> <Gold.Chemscore.Hbonds>
donor molecule, donor type, donor heavy atom, donor atom, acceptor molecule, acceptor atom, score
      L1  H     6    46       P1  8028  0.88
      P1  H  7997  8008       L1    16  0.69
      P1  H 10752 10764       L1    19  0.07

> <Gold.Chemscore.Hbond.Weighted>
-8.3355

> <Gold.Chemscore.Metal.Weighted>
-0.0000

> <Gold.Chemscore.Lipo.Weighted>
-14.3431

> <Gold.Chemscore.Internal_Hbond.Weighted>
0.0000

> <Gold.Chemscore.DEClash.Weighted>
0.0029

> <Gold.Chemscore.DEInternal.Weighted>
0.9956

> <Gold.Chemscore.Rot.Weighted>
5.0417

> <Gold.Chemscore.Internal.Correction.Weighted>
   9.000000E+99

> <Gold.Protein.RotatedTorsions>
[ 6907 6896 6895 6894 ] final  141.92 input  -60.11 | X-H torsion
[ 7974 7965 7964 7962 ] final   26.84 input  175.53 | X-H torsion
[ 8008 7997 7996 7995 ] final  -78.82 input   59.86 | X-H torsion
[ 10167 10162 10161 10158 ] final   66.35 input  -65.29 | X-H torsion
[ 10718 10713 10712 10709 ] final  -86.70 input   66.30 | X-H torsion
[ 10763 10752 10751 10750 ] final  -70.49 input  -60.55 | X-H torsion
[ 11005 11000 10999 10996 ] final  -81.62 input  -57.11 | X-H torsion

> <Gold.Protein.ActiveResidues>
 VAL166  LYS551  ARG553  GLY616  TRP617  ASP618  TYR619  PRO620  LYS621  CYS622 
 ASP623  PHE694  ASN695  SER759  ASP760  ASP761  ALA762  ILE779  LEU786  VAL792 
 PHE793  MET794  SER795  GLU796  ALA797  LYS798  CYS799  TRP800  GLU811  SER814 

> <Gold.Protein.RotatedAtoms>
  152.2251  133.5014  159.5183 H   0  0  0  0  0  0  0  0  0  0  0  0  # atno 6907 bound_to 6896
  150.7022  134.1291  159.4072 H   0  0  0  0  0  0  0  0  0  0  0  0  # atno 6908 bound_to 6896
  151.9212  135.0297  160.0573 H   0  0  0  0  0  0  0  0  0  0  0  0  # atno 6909 bound_to 6896
  146.1816  139.7273  142.8896 H   0  0  0  0  0  0  0  0  0  0  0  0  # atno 7974 bound_to 7965
  154.5726  140.0688  156.8986 H   0  0  0  0  0  0  0  0  0  0  0  0  # atno 8008 bound_to 7997
  155.2607  140.3358  155.4255 H   0  0  0  0  0  0  0  0  0  0  0  0  # atno 8009 bound_to 7997
  156.2130  140.1767  156.7638 H   0  0  0  0  0  0  0  0  0  0  0  0  # atno 8010 bound_to 7997
  140.1014  144.4900  150.7035 H   0  0  0  0  0  0  0  0  0  0  0  0  # atno 10167 bound_to 10162
  155.9988  130.4774  150.4754 H   0  0  0  0  0  0  0  0  0  0  0  0  # atno 10718 bound_to 10713
  154.4184  135.5992  153.5995 H   0  0  0  0  0  0  0  0  0  0  0  0  # atno 10763 bound_to 10752
  152.9793  135.5946  154.3985 H   0  0  0  0  0  0  0  0  0  0  0  0  # atno 10764 bound_to 10752
  154.3807  135.2841  155.2191 H   0  0  0  0  0  0  0  0  0  0  0  0  # atno 10765 bound_to 10752
  141.1666  133.7205  156.8450 H   0  0  0  0  0  0  0  0  0  0  0  0  # atno 11005 bound_to 11000
  145.4059  141.0391  143.3044 LP  0  0  0  0  0  0  0  0  0  0  0  0  # atno 17320 bound_to 7965
  144.8325  139.5604  143.6937 LP  0  0  0  0  0  0  0  0  0  0  0  0  # atno 17321 bound_to 7965
  140.6976  143.2413  151.4957 LP  0  0  0  0  0  0  0  0  0  0  0  0  # atno 17342 bound_to 10162
  139.5669  144.2020  152.1779 LP  0  0  0  0  0  0  0  0  0  0  0  0  # atno 17343 bound_to 10162
  157.2765  131.0598  151.2226 LP  0  0  0  0  0  0  0  0  0  0  0  0  # atno 17370 bound_to 10713
  157.3288  130.6974  149.6312 LP  0  0  0  0  0  0  0  0  0  0  0  0  # atno 17371 bound_to 10713
  140.1956  134.8934  157.3111 LP  0  0  0  0  0  0  0  0  0  0  0  0  # atno 17394 bound_to 11000
  140.2242  134.3986  155.7551 LP  0  0  0  0  0  0  0  0  0  0  0  0  # atno 17395 bound_to 11000

$$$$
