AV-unprocessed.smi:189|AV-procd|sdf|1488|dock10
  -GOLD-   2262019303D 1   1.00000     0.00000
 Structure written by MMmdl.
 53 57  0  0  0  0  0  0  0  0  1 V2000
  154.5019  138.9051  159.2623 C   0  0  0  0  0  0  0  0  0  0  0  0
  153.2076  139.6385  159.6724 C   0  0  1  0  0  0  0  0  0  0  0  0
  153.5335  140.9782  160.3774 C   0  0  0  0  0  0  0  0  0  0  0  0
  152.5590  141.9659  159.7429 C   0  0  1  0  0  0  0  0  0  0  0  0
  152.9268  143.4542  159.7219 C   0  0  0  0  0  0  0  0  0  0  0  0
  151.8297  144.2319  158.9647 C   0  0  0  0  0  0  0  0  0  0  0  0
  151.5477  143.6406  157.5644 C   0  0  0  0  0  0  0  0  0  0  0  0
  151.2726  142.1224  157.6069 C   0  0  0  0  0  0  0  0  0  0  0  0
  152.4403  141.4222  158.3270 C   0  0  2  0  0  0  0  0  0  0  0  0
  152.3285  139.9884  158.5469 N   0  0  0  0  0  0  0  0  0  0  0  0
  152.1711  139.1061  157.5277 C   0  0  0  0  0  0  0  0  0  0  0  0
  152.9711  139.1849  156.4321 N   0  0  0  0  0  0  0  0  0  0  0  0
  152.8312  138.3109  155.4313 C   0  0  0  0  0  0  0  0  0  0  0  0
  151.9742  137.2936  155.3256 N   0  0  0  0  0  0  0  0  0  0  0  0
  151.1729  137.2055  156.4257 C   0  0  0  0  0  0  0  0  0  0  0  0
  151.2028  138.0646  157.5601 C   0  0  0  0  0  0  0  0  0  0  0  0
  150.2353  137.6726  158.4773 N   0  0  0  0  0  0  0  0  0  0  0  0
  149.6712  136.6359  157.9207 C   0  0  0  0  0  0  0  0  0  0  0  0
  150.1769  136.2817  156.6902 N   0  0  0  0  0  0  0  0  0  0  0  0
  149.7384  135.1724  155.8575 C   0  0  0  0  0  0  0  0  0  0  0  0
  150.1510  133.7895  156.4130 C   0  0  2  0  0  0  0  0  0  0  0  0
  149.6233  133.6433  157.7204 O   0  0  0  0  0  0  0  0  0  0  0  0
  151.6592  133.5623  156.4708 C   0  0  0  0  0  0  0  0  0  0  0  0
  151.7848  132.0624  156.2434 C   0  0  0  0  0  0  0  0  0  0  0  0
  150.7977  131.8167  155.2563 O   0  0  0  0  0  0  0  0  0  0  0  0
  149.6532  132.6110  155.5524 C   0  0  0  0  0  0  0  0  0  0  0  0
  155.1449  138.7439  160.1280 H   0  0  0  0  0  0  0  0  0  0  0  0
  155.0694  139.4805  158.5300 H   0  0  0  0  0  0  0  0  0  0  0  0
  154.2973  137.9253  158.8312 H   0  0  0  0  0  0  0  0  0  0  0  0
  152.6351  139.0115  160.3568 H   0  0  0  0  0  0  0  0  0  0  0  0
  153.4208  140.9189  161.4601 H   0  0  0  0  0  0  0  0  0  0  0  0
  154.5580  141.2889  160.1673 H   0  0  0  0  0  0  0  0  0  0  0  0
  151.5983  141.8521  160.2499 H   0  0  0  0  0  0  0  0  0  0  0  0
  153.0270  143.8352  160.7385 H   0  0  0  0  0  0  0  0  0  0  0  0
  153.8911  143.5975  159.2327 H   0  0  0  0  0  0  0  0  0  0  0  0
  150.9097  144.2125  159.5503 H   0  0  0  0  0  0  0  0  0  0  0  0
  152.1119  145.2811  158.8751 H   0  0  0  0  0  0  0  0  0  0  0  0
  150.7035  144.1573  157.1071 H   0  0  0  0  0  0  0  0  0  0  0  0
  152.4065  143.8284  156.9188 H   0  0  0  0  0  0  0  0  0  0  0  0
  150.3353  141.9267  158.1293 H   0  0  0  0  0  0  0  0  0  0  0  0
  151.1473  141.7481  156.5917 H   0  0  0  0  0  0  0  0  0  0  0  0
  153.3667  141.6093  157.7800 H   0  0  0  0  0  0  0  0  0  0  0  0
  153.5039  138.4451  154.5970 H   0  0  0  0  0  0  0  0  0  0  0  0
  148.8682  136.0929  158.3974 H   0  0  0  0  0  0  0  0  0  0  0  0
  148.6541  135.2299  155.7529 H   0  0  0  0  0  0  0  0  0  0  0  0
  150.1484  135.3139  154.8566 H   0  0  0  0  0  0  0  0  0  0  0  0
  148.7670  134.0428  157.7437 H   0  0  0  0  0  0  0  0  0  0  0  0
  152.1509  134.0797  155.6464 H   0  0  0  0  0  0  0  0  0  0  0  0
  152.1226  133.9003  157.3988 H   0  0  0  0  0  0  0  0  0  0  0  0
  152.7776  131.7677  155.9029 H   0  0  0  0  0  0  0  0  0  0  0  0
  151.5486  131.5044  157.1508 H   0  0  0  0  0  0  0  0  0  0  0  0
  148.9121  132.0042  156.0754 H   0  0  0  0  0  0  0  0  0  0  0  0
  149.2005  132.9426  154.6172 H   0  0  0  0  0  0  0  0  0  0  0  0
  1  2  1  0  0  0  0
  1 27  1  0  0  0  0
  1 28  1  0  0  0  0
  1 29  1  0  0  0  0
  2 10  1  0  0  0  0
  2  3  1  0  0  0  0
  2 30  1  0  0  0  0
  3  4  1  0  0  0  0
  3 31  1  0  0  0  0
  3 32  1  0  0  0  0
  4  9  1  0  0  0  0
  4  5  1  0  0  0  0
  4 33  1  0  0  0  0
  5  6  1  0  0  0  0
  5 34  1  0  0  0  0
  5 35  1  0  0  0  0
  6  7  1  0  0  0  0
  6 36  1  0  0  0  0
  6 37  1  0  0  0  0
  7  8  1  0  0  0  0
  7 38  1  0  0  0  0
  7 39  1  0  0  0  0
  8  9  1  0  0  0  0
  8 40  1  0  0  0  0
  8 41  1  0  0  0  0
  9 10  1  0  0  0  0
  9 42  1  0  0  0  0
 10 11  1  0  0  0  0
 11 16  1  0  0  0  0
 11 12  2  0  0  0  0
 12 13  1  0  0  0  0
 13 14  2  0  0  0  0
 13 43  1  0  0  0  0
 14 15  1  0  0  0  0
 15 19  1  0  0  0  0
 15 16  2  0  0  0  0
 16 17  1  0  0  0  0
 17 18  2  0  0  0  0
 18 19  1  0  0  0  0
 18 44  1  0  0  0  0
 19 20  1  0  0  0  0
 20 21  1  0  0  0  0
 20 45  1  0  0  0  0
 20 46  1  0  0  0  0
 21 26  1  0  0  0  0
 21 22  1  0  0  0  0
 21 23  1  0  0  0  0
 22 47  1  0  0  0  0
 23 24  1  0  0  0  0
 23 48  1  0  0  0  0
 23 49  1  0  0  0  0
 24 25  1  0  0  0  0
 24 50  1  0  0  0  0
 24 51  1  0  0  0  0
 25 26  1  0  0  0  0
 26 52  1  0  0  0  0
 26 53  1  0  0  0  0
M  END
> <s_m_source_file>
AV-unprocessed.smi

> <i_m_source_file_index>
189

> <i_lp_mmshare_version>
43012

> <i_f3d_flags>
0

> <s_epik_input>
W0NIMl0xW0NIMl1bQ0gyXVtDSDJdW0NASF0oW0NASF0xMilOKFtDQEhdKFtDSDNdKVtDSDJdMiljKG5bY0hdbjMpYyhjMzQpbltjSF1uNFtDSDJdW0NAQF01KFtPSF0pW0NIMl1bQ0gyXU9bQ0gyXTU=

> <s_epik_cmdline>
J2VwaWtfcHl0aG9uJywgJy1waCcsICc3LjAnLCAnLXRuJywgJzgnLCAnLW1hJywgJzIwMCcsICctbWV0YWxfYmluZGluZycsICctaW1hZScsICc8aW5maWxlLm1hZT4nLCAnLW9tYWUnLCAnPG91dGZpbGUubWFlPic=

> <r_lp_tautomer_probability>
1

> <r_epik_Ionization_Penalty>
0.00594261

> <r_epik_Ionization_Penalty_Charging>
0

> <r_epik_Ionization_Penalty_Neutral>
0.00594261

> <r_epik_State_Penalty>
0.00429776

> <r_epik_Charging_Adjusted_Penalty>
0.00429776

> <i_epik_Tot_Q>
0

> <i_epik_Tot_abs_Q>
0

> <r_epik_Metal_State_Penalty>
-0

> <b_epik_Metal_Only>
0

> <s_lp_Force_Field>
OPLS_2005

> <r_lp_Energy>
58.0948

> <b_lp_Chiralities_Consistent>
1

> <s_lp_Variant>
AV-unprocessed.smi:189-14

> <Gold.Version>
5.8.1

> <Gold.Id.Protein>
6NUR|6NUR_protein|mol2

> <Gold.PLP.Fitness>
49.1476

> <Gold.PLP.PLP>
-41.5562

> <Gold.PLP.part.hbond>
-3.0000

> <Gold.PLP.part.metal>
0.0000

> <Gold.PLP.part.buried>
-6.4918

> <Gold.PLP.part.nonpolar>
-30.9976

> <Gold.PLP.part.repulsive>
0.0584

> <Gold.PLP.ligand.clash>
0.0087

> <Gold.PLP.ligand.torsion>
0.6403

> <Gold.PLP.Chemscore.Hbond>
2.8294

> <Gold.PLP.Chemscore.CHOScore>
0.0000

> <Gold.PLP.Chemscore.Metal>
0.0000

> <Gold.Chemscore.Hbonds>
donor molecule, donor type, donor heavy atom, donor atom, acceptor molecule, acceptor atom, score
      P1  H  6896  6909       L1    22  1.00
      P1  H  7997  8009       L1    12  1.00
      P1  H 10752 10765       L1    14  0.82

> <Gold.PLP.Chemscore.Internal.Correction>
0.3926

> <Gold.Rescore>
     Score         DG    S(hbond)    S(metal)    S(lipo)     H(rot)  DE(clash)    DE(int)     intcor
     21.34     -22.07       2.57        0.00     113.00       2.03       0.04       0.69       ----

> <Gold.Chemscore.Fitness>
21.3435

> <Gold.Chemscore.DG>
-22.0742

> <Gold.Chemscore.ZeroCoef>
-5.4800

> <Gold.Chemscore.Hbond>
2.5656

> <Gold.Chemscore.Metal>
0.0000

> <Gold.Chemscore.Lipo>
112.9994

> <Gold.Chemscore.Internal_Hbond>
0.0000

> <Gold.Chemscore.DEClash>
0.0404

> <Gold.Chemscore.DEInternal>
0.6903

> <Gold.Chemscore.Rot>
2.0297

> <Gold.Chemscore.Internal.Correction>
   9.000000E+99

> <Gold.Chemscore.Hbonds>
donor molecule, donor type, donor heavy atom, donor atom, acceptor molecule, acceptor atom, score
      P1  H  6896  6909       L1    22  0.94
      P1  H  7997  8009       L1    12  0.91
      P1  H 10752 10765       L1    14  0.56

> <Gold.Chemscore.Hbond.Weighted>
-8.5693

> <Gold.Chemscore.Metal.Weighted>
-0.0000

> <Gold.Chemscore.Lipo.Weighted>
-13.2209

> <Gold.Chemscore.Internal_Hbond.Weighted>
0.0000

> <Gold.Chemscore.DEClash.Weighted>
0.0404

> <Gold.Chemscore.DEInternal.Weighted>
0.6903

> <Gold.Chemscore.Rot.Weighted>
5.1960

> <Gold.Chemscore.Internal.Correction.Weighted>
   9.000000E+99

> <Gold.Protein.RotatedTorsions>
[ 6907 6896 6895 6894 ] final   -4.02 input  -60.11 | X-H torsion
[ 7974 7965 7964 7962 ] final  -36.82 input  175.53 | X-H torsion
[ 8008 7997 7996 7995 ] final -167.32 input   59.86 | X-H torsion
[ 10167 10162 10161 10158 ] final  -97.66 input  -65.29 | X-H torsion
[ 10718 10713 10712 10709 ] final  -11.74 input   66.30 | X-H torsion
[ 10763 10752 10751 10750 ] final -174.52 input  -60.55 | X-H torsion
[ 11005 11000 10999 10996 ] final -168.75 input  -57.11 | X-H torsion

> <Gold.Protein.ActiveResidues>
 VAL166  LYS551  ARG553  GLY616  TRP617  ASP618  TYR619  PRO620  LYS621  CYS622 
 ASP623  PHE694  ASN695  SER759  ASP760  ASP761  ALA762  ILE779  LEU786  VAL792 
 PHE793  MET794  SER795  GLU796  ALA797  LYS798  CYS799  TRP800  GLU811  SER814 

> <Gold.Protein.RotatedAtoms>
  151.5044  135.1063  159.9837 H   0  0  0  0  0  0  0  0  0  0  0  0  # atno 6907 bound_to 6896
  152.4688  133.7979  159.6947 H   0  0  0  0  0  0  0  0  0  0  0  0  # atno 6908 bound_to 6896
  150.8686  133.7475  159.2994 H   0  0  0  0  0  0  0  0  0  0  0  0  # atno 6909 bound_to 6896
  146.0629  140.6323  142.8988 H   0  0  0  0  0  0  0  0  0  0  0  0  # atno 7974 bound_to 7965
  155.8760  140.1001  157.1517 H   0  0  0  0  0  0  0  0  0  0  0  0  # atno 8008 bound_to 7997
  154.4001  140.1338  156.4201 H   0  0  0  0  0  0  0  0  0  0  0  0  # atno 8009 bound_to 7997
  155.7696  140.3461  155.5242 H   0  0  0  0  0  0  0  0  0  0  0  0  # atno 8010 bound_to 7997
  140.2811  143.3281  152.0440 H   0  0  0  0  0  0  0  0  0  0  0  0  # atno 10167 bound_to 10162
  156.6546  130.4964  149.6050 H   0  0  0  0  0  0  0  0  0  0  0  0  # atno 10718 bound_to 10713
  154.5952  135.2849  155.0593 H   0  0  0  0  0  0  0  0  0  0  0  0  # atno 10763 bound_to 10752
  154.1879  135.6445  153.5055 H   0  0  0  0  0  0  0  0  0  0  0  0  # atno 10764 bound_to 10752
  153.0136  135.5439  154.6652 H   0  0  0  0  0  0  0  0  0  0  0  0  # atno 10765 bound_to 10752
  140.5385  134.5546  157.5093 H   0  0  0  0  0  0  0  0  0  0  0  0  # atno 11005 bound_to 11000
  144.7185  140.4293  143.7026 LP  0  0  0  0  0  0  0  0  0  0  0  0  # atno 17320 bound_to 7965
  145.6529  139.1568  143.2852 LP  0  0  0  0  0  0  0  0  0  0  0  0  # atno 17321 bound_to 7965
  139.4962  144.6591  151.6506 LP  0  0  0  0  0  0  0  0  0  0  0  0  # atno 17342 bound_to 10162
  140.5811  143.9944  150.6269 LP  0  0  0  0  0  0  0  0  0  0  0  0  # atno 17343 bound_to 10162
  156.2057  130.6648  151.1216 LP  0  0  0  0  0  0  0  0  0  0  0  0  # atno 17370 bound_to 10713
  157.7129  131.0725  150.6433 LP  0  0  0  0  0  0  0  0  0  0  0  0  # atno 17371 bound_to 10713
  139.9517  134.7606  156.0434 LP  0  0  0  0  0  0  0  0  0  0  0  0  # atno 17394 bound_to 11000
  141.1241  133.6604  156.3291 LP  0  0  0  0  0  0  0  0  0  0  0  0  # atno 17395 bound_to 11000

$$$$
