AV-unprocessed.smi:3173|AV-procd|sdf|12119|dock10
  -GOLD-   2272017553D 1   1.00000     0.00000
 Structure written by MMmdl.
 36 37  0  0  0  0  0  0  0  0  2 V2000
  150.9275  142.0947  158.8722 O   0  0  0  0  0  0  0  0  0  0  0  0
  150.7597  142.9665  158.0192 C   0  0  0  0  0  0  0  0  0  0  0  0
  151.5064  144.3013  158.1166 C   0  0  0  0  0  0  0  0  0  0  0  0
  152.4390  144.3887  159.3427 C   0  0  2  0  0  0  0  0  0  0  0  0
  153.3783  143.2138  159.4326 C   0  0  0  0  0  0  0  0  0  0  0  0
  153.3660  142.6352  160.6315 C   0  0  0  0  0  0  0  0  0  0  0  0
  152.4154  143.3053  161.5840 C   0  0  0  0  0  0  0  0  0  0  0  0
  151.7063  144.3643  160.7115 C   0  0  0  0  0  0  0  0  0  0  0  0
  149.9390  142.8169  156.9681 N   0  0  0  0  0  0  0  0  0  0  0  0
  149.1640  141.6159  156.6792 C   0  0  0  0  0  0  0  0  0  0  0  0
  149.5100  141.0419  155.2949 C   0  0  0  0  0  0  0  0  0  0  0  0
  150.7287  140.1408  155.3337 C   0  0  0  0  0  0  0  0  0  0  0  0
  151.0592  139.2822  154.2628 C   0  0  0  0  0  0  0  0  0  0  0  0
  152.2097  138.4720  154.3588 C   0  0  0  0  0  0  0  0  0  0  0  0
  153.0050  138.5376  155.5218 C   0  0  0  0  0  0  0  0  0  0  0  0
  152.6296  139.4144  156.5602 C   0  0  0  0  0  0  0  0  0  0  0  0
  151.5205  140.1753  156.4303 N   0  3  0  0  0  0  0  0  0  0  0  0
  152.0820  144.4676  157.2044 H   0  0  0  0  0  0  0  0  0  0  0  0
  150.7634  145.0983  158.1616 H   0  0  0  0  0  0  0  0  0  0  0  0
  153.0607  145.2827  159.2730 H   0  0  0  0  0  0  0  0  0  0  0  0
  153.9969  142.9073  158.6020 H   0  0  0  0  0  0  0  0  0  0  0  0
  153.9712  141.7888  160.9215 H   0  0  0  0  0  0  0  0  0  0  0  0
  151.7115  142.5848  162.0019 H   0  0  0  0  0  0  0  0  0  0  0  0
  152.9738  143.7636  162.4007 H   0  0  0  0  0  0  0  0  0  0  0  0
  151.7137  145.3465  161.1857 H   0  0  0  0  0  0  0  0  0  0  0  0
  150.6608  144.0797  160.5844 H   0  0  0  0  0  0  0  0  0  0  0  0
  149.8544  143.5858  156.3187 H   0  0  0  0  0  0  0  0  0  0  0  0
  149.3332  140.8684  157.4563 H   0  0  0  0  0  0  0  0  0  0  0  0
  148.1060  141.8755  156.7231 H   0  0  0  0  0  0  0  0  0  0  0  0
  148.6633  140.4779  154.9011 H   0  0  0  0  0  0  0  0  0  0  0  0
  149.6950  141.8502  154.5860 H   0  0  0  0  0  0  0  0  0  0  0  0
  150.4405  139.2451  153.3777 H   0  0  0  0  0  0  0  0  0  0  0  0
  152.4789  137.8086  153.5498 H   0  0  0  0  0  0  0  0  0  0  0  0
  153.8896  137.9248  155.6152 H   0  0  0  0  0  0  0  0  0  0  0  0
  153.1787  139.5295  157.4834 H   0  0  0  0  0  0  0  0  0  0  0  0
  151.2684  140.8026  157.1944 H   0  0  0  0  0  0  0  0  0  0  0  0
  1  2  2  0  0  0  0
  2  3  1  0  0  0  0
  2  9  1  0  0  0  0
  3  4  1  0  0  0  0
  3 18  1  0  0  0  0
  3 19  1  0  0  0  0
  4  8  1  0  0  0  0
  4  5  1  0  0  0  0
  4 20  1  0  0  0  0
  5  6  2  0  0  0  0
  5 21  1  0  0  0  0
  6  7  1  0  0  0  0
  6 22  1  0  0  0  0
  7  8  1  0  0  0  0
  7 23  1  0  0  0  0
  7 24  1  0  0  0  0
  8 25  1  0  0  0  0
  8 26  1  0  0  0  0
  9 10  1  0  0  0  0
  9 27  1  0  0  0  0
 10 11  1  0  0  0  0
 10 28  1  0  0  0  0
 10 29  1  0  0  0  0
 11 12  1  0  0  0  0
 11 30  1  0  0  0  0
 11 31  1  0  0  0  0
 12 17  1  0  0  0  0
 12 13  2  0  0  0  0
 13 14  1  0  0  0  0
 13 32  1  0  0  0  0
 14 15  2  0  0  0  0
 14 33  1  0  0  0  0
 15 16  1  0  0  0  0
 15 34  1  0  0  0  0
 16 17  2  0  0  0  0
 16 35  1  0  0  0  0
 17 36  1  0  0  0  0
M  CHG  1  17   1
M  END
> <s_m_source_file>
AV-unprocessed.smi

> <i_m_source_file_index>
3173

> <i_lp_mmshare_version>
43012

> <i_f3d_flags>
0

> <s_epik_input>
W0NIMl0xW0NIMl1bQ0hdPVtDSF1bQ0BIXTFbQ0gyXUMoPU8pW05IXVtDSDJdW0NIMl1jMltjSF1bY0hdW2NIXVtjSF1uMg==

> <s_epik_cmdline>
J2VwaWtfcHl0aG9uJywgJy1waCcsICc3LjAnLCAnLXRuJywgJzgnLCAnLW1hJywgJzIwMCcsICctbWV0YWxfYmluZGluZycsICctaW1hZScsICc8aW5maWxlLm1hZT4nLCAnLW9tYWUnLCAnPG91dGZpbGUubWFlPic=

> <r_epik_Ionization_Penalty>
1.86798

> <r_epik_Ionization_Penalty_Charging>
1.86798

> <r_epik_Ionization_Penalty_Neutral>
1.53848e-08

> <r_epik_State_Penalty>
1.98677

> <r_epik_Charging_Adjusted_Penalty>
3.85475

> <i_epik_Tot_Q>
1

> <i_epik_Tot_abs_Q>
1

> <r_epik_Metal_State_Penalty>
2.01174

> <b_epik_Metal_Only>
0

> <s_lp_Force_Field>
OPLS_2005

> <r_lp_Energy>
19.7802

> <b_lp_Chiralities_Consistent>
1

> <s_lp_Variant>
AV-unprocessed.smi:3173-3

> <Gold.Version>
5.8.1

> <Gold.Id.Protein>
6NUR|6NUR_protein|mol2

> <Gold.PLP.Fitness>
46.0601

> <Gold.PLP.PLP>
-43.7109

> <Gold.PLP.part.hbond>
-0.8706

> <Gold.PLP.part.metal>
0.0000

> <Gold.PLP.part.buried>
-3.8809

> <Gold.PLP.part.nonpolar>
-38.0860

> <Gold.PLP.part.repulsive>
0.1195

> <Gold.PLP.ligand.clash>
0.0000

> <Gold.PLP.ligand.torsion>
0.3316

> <Gold.PLP.Chemscore.Hbond>
1.0000

> <Gold.PLP.Chemscore.CHOScore>
0.0000

> <Gold.PLP.Chemscore.Metal>
0.0000

> <Gold.Chemscore.Hbonds>
donor molecule, donor type, donor heavy atom, donor atom, acceptor molecule, acceptor atom, score
      L1  H     9    27       P1  8028  0.94

> <Gold.PLP.Chemscore.Internal.Correction>
0.0125

> <Gold.Rescore>
     Score         DG    S(hbond)    S(metal)    S(lipo)     H(rot)  DE(clash)    DE(int)     intcor
     15.86     -18.67       0.98        0.00     119.94       1.61       0.00       2.81       ----

> <Gold.Chemscore.Fitness>
15.8582

> <Gold.Chemscore.DG>
-18.6728

> <Gold.Chemscore.ZeroCoef>
-5.4800

> <Gold.Chemscore.Hbond>
0.9840

> <Gold.Chemscore.Metal>
0.0000

> <Gold.Chemscore.Lipo>
119.9438

> <Gold.Chemscore.Internal_Hbond>
0.0000

> <Gold.Chemscore.DEClash>
0.0038

> <Gold.Chemscore.DEInternal>
2.8107

> <Gold.Chemscore.Rot>
1.6122

> <Gold.Chemscore.Internal.Correction>
   9.000000E+99

> <Gold.Chemscore.Hbonds>
donor molecule, donor type, donor heavy atom, donor atom, acceptor molecule, acceptor atom, score
      L1  H     9    27       P1  8028  0.90

> <Gold.Chemscore.Hbond.Weighted>
-3.2865

> <Gold.Chemscore.Metal.Weighted>
-0.0000

> <Gold.Chemscore.Lipo.Weighted>
-14.0334

> <Gold.Chemscore.Internal_Hbond.Weighted>
0.0000

> <Gold.Chemscore.DEClash.Weighted>
0.0038

> <Gold.Chemscore.DEInternal.Weighted>
2.8107

> <Gold.Chemscore.Rot.Weighted>
4.1271

> <Gold.Chemscore.Internal.Correction.Weighted>
   9.000000E+99

> <Gold.Protein.RotatedTorsions>
[ 6907 6896 6895 6894 ] final  -53.03 input  -60.11 | X-H torsion
[ 7974 7965 7964 7962 ] final  -22.57 input  175.53 | X-H torsion
[ 8008 7997 7996 7995 ] final -107.02 input   59.86 | X-H torsion
[ 10167 10162 10161 10158 ] final   21.63 input  -65.29 | X-H torsion
[ 10718 10713 10712 10709 ] final   76.42 input   66.30 | X-H torsion
[ 10763 10752 10751 10750 ] final  -33.76 input  -60.55 | X-H torsion
[ 11005 11000 10999 10996 ] final  -90.22 input  -57.11 | X-H torsion

> <Gold.Protein.ActiveResidues>
 VAL166  LYS551  ARG553  GLY616  TRP617  ASP618  TYR619  PRO620  LYS621  CYS622 
 ASP623  PHE694  ASN695  SER759  ASP760  ASP761  ALA762  ILE779  LEU786  VAL792 
 PHE793  MET794  SER795  GLU796  ALA797  LYS798  CYS799  TRP800  GLU811  SER814 

> <Gold.Protein.RotatedAtoms>
  150.8463  134.7774  159.6973 H   0  0  0  0  0  0  0  0  0  0  0  0  # atno 6907 bound_to 6896
  152.4539  134.5330  159.9826 H   0  0  0  0  0  0  0  0  0  0  0  0  # atno 6908 bound_to 6896
  151.5460  133.3387  159.2980 H   0  0  0  0  0  0  0  0  0  0  0  0  # atno 6909 bound_to 6896
  146.1668  140.4497  142.8549 H   0  0  0  0  0  0  0  0  0  0  0  0  # atno 7974 bound_to 7965
  154.9232  140.0407  157.2009 H   0  0  0  0  0  0  0  0  0  0  0  0  # atno 8008 bound_to 7997
  154.8233  140.2887  155.5750 H   0  0  0  0  0  0  0  0  0  0  0  0  # atno 8009 bound_to 7997
  156.2981  140.2514  156.3144 H   0  0  0  0  0  0  0  0  0  0  0  0  # atno 8010 bound_to 7997
  140.5411  143.9675  150.6520 H   0  0  0  0  0  0  0  0  0  0  0  0  # atno 10167 bound_to 10162
  157.6672  130.9773  150.1494 H   0  0  0  0  0  0  0  0  0  0  0  0  # atno 10718 bound_to 10713
  153.8355  135.6862  153.4809 H   0  0  0  0  0  0  0  0  0  0  0  0  # atno 10763 bound_to 10752
  153.1485  135.4628  154.9600 H   0  0  0  0  0  0  0  0  0  0  0  0  # atno 10764 bound_to 10752
  154.7868  135.3287  154.7814 H   0  0  0  0  0  0  0  0  0  0  0  0  # atno 10765 bound_to 10752
  141.1570  133.7679  156.9707 H   0  0  0  0  0  0  0  0  0  0  0  0  # atno 11005 bound_to 11000
  144.8104  140.6374  143.6419 LP  0  0  0  0  0  0  0  0  0  0  0  0  # atno 17320 bound_to 7965
  145.4447  139.1531  143.3951 LP  0  0  0  0  0  0  0  0  0  0  0  0  # atno 17321 bound_to 7965
  140.3075  143.3219  152.0911 LP  0  0  0  0  0  0  0  0  0  0  0  0  # atno 17342 bound_to 10162
  139.4989  144.6657  151.6361 LP  0  0  0  0  0  0  0  0  0  0  0  0  # atno 17343 bound_to 10162
  156.2297  130.3681  149.8459 LP  0  0  0  0  0  0  0  0  0  0  0  0  # atno 17370 bound_to 10713
  156.6290  130.8658  151.3491 LP  0  0  0  0  0  0  0  0  0  0  0  0  # atno 17371 bound_to 10713
  140.1131  134.9464  157.2095 LP  0  0  0  0  0  0  0  0  0  0  0  0  # atno 17394 bound_to 11000
  140.3168  134.2962  155.7255 LP  0  0  0  0  0  0  0  0  0  0  0  0  # atno 17395 bound_to 11000

$$$$
