AV-unprocessed.smi:156|AV-procd|sdf|1288|dock4
  -GOLD-   2262018563D 1   1.00000     0.00000
 Structure written by MMmdl.
 51 53  0  0  0  0  0  0  0  0  1 V2000
  146.1752  130.6842  157.3894 C   0  0  0  0  0  0  0  0  0  0  0  0
  147.4777  131.0284  156.6402 C   0  0  1  0  0  0  0  0  0  0  0  0
  148.7592  130.7112  157.4702 C   0  0  2  0  0  0  0  0  0  0  0  0
  148.6440  131.1486  158.9428 C   0  0  0  0  0  0  0  0  0  0  0  0
  150.3088  131.4494  156.7347 S   0  0  0  0  0  0  0  0  0  0  0  0
  151.3389  129.9734  156.3383 C   0  0  0  0  0  0  0  0  0  0  0  0
  149.9543  132.0893  155.4586 O   0  0  0  0  0  0  0  0  0  0  0  0
  151.0199  132.2309  157.7575 O   0  0  0  0  0  0  0  0  0  0  0  0
  147.4669  130.3737  155.3215 N   0  0  0  0  0  0  0  0  0  0  0  0
  147.2880  128.9266  155.2259 C   0  0  0  0  0  0  0  0  0  0  0  0
  147.1997  131.1276  154.2174 C   0  0  0  0  0  0  0  0  0  0  0  0
  147.8279  132.3269  154.0971 N   0  0  0  0  0  0  0  0  0  0  0  0
  147.6257  133.1037  153.0303 C   0  0  0  0  0  0  0  0  0  0  0  0
  146.8440  132.8805  151.9746 N   0  0  0  0  0  0  0  0  0  0  0  0
  146.2009  131.6833  152.0818 C   0  0  0  0  0  0  0  0  0  0  0  0
  146.3205  130.7513  153.1546 C   0  0  0  0  0  0  0  0  0  0  0  0
  145.5082  129.6510  152.8986 N   0  0  0  0  0  0  0  0  0  0  0  0
  144.9584  129.9097  151.7448 C   0  0  0  0  0  0  0  0  0  0  0  0
  145.3055  131.1190  151.1885 N   0  0  0  0  0  0  0  0  0  0  0  0
  144.8500  131.6633  149.9162 C   0  0  0  0  0  0  0  0  0  0  0  0
  143.9994  132.9527  150.0239 C   0  0  0  0  0  0  0  0  0  0  0  0
  143.0416  132.9931  148.8252 C   0  0  0  0  0  0  0  0  0  0  0  0
  143.6989  133.4413  147.6572 O   0  0  0  0  0  0  0  0  0  0  0  0
  143.3433  133.2112  151.3907 C   0  0  0  0  0  0  0  0  0  0  0  0
  144.3354  134.1980  151.7421 O   0  0  0  0  0  0  0  0  0  0  0  0
  144.7277  134.2670  150.3550 C   0  0  0  0  0  0  0  0  0  0  0  0
  146.0483  131.2947  158.2828 H   0  0  0  0  0  0  0  0  0  0  0  0
  146.1522  129.6372  157.6932 H   0  0  0  0  0  0  0  0  0  0  0  0
  145.3031  130.8659  156.7601 H   0  0  0  0  0  0  0  0  0  0  0  0
  147.4572  132.1093  156.5130 H   0  0  0  0  0  0  0  0  0  0  0  0
  148.9234  129.6349  157.4812 H   0  0  0  0  0  0  0  0  0  0  0  0
  147.8924  130.5661  159.4749 H   0  0  0  0  0  0  0  0  0  0  0  0
  148.3708  132.1999  159.0297 H   0  0  0  0  0  0  0  0  0  0  0  0
  149.5832  131.0027  159.4759 H   0  0  0  0  0  0  0  0  0  0  0  0
  152.2858  130.3054  155.9131 H   0  0  0  0  0  0  0  0  0  0  0  0
  150.8270  129.3450  155.6109 H   0  0  0  0  0  0  0  0  0  0  0  0
  151.5400  129.3998  157.2406 H   0  0  0  0  0  0  0  0  0  0  0  0
  147.6557  128.5528  154.2697 H   0  0  0  0  0  0  0  0  0  0  0  0
  146.2350  128.6616  155.3233 H   0  0  0  0  0  0  0  0  0  0  0  0
  147.8376  128.3991  156.0030 H   0  0  0  0  0  0  0  0  0  0  0  0
  148.1698  134.0366  153.0211 H   0  0  0  0  0  0  0  0  0  0  0  0
  144.2796  129.2184  151.2677 H   0  0  0  0  0  0  0  0  0  0  0  0
  145.7342  131.8315  149.3005 H   0  0  0  0  0  0  0  0  0  0  0  0
  144.2838  130.8821  149.4075 H   0  0  0  0  0  0  0  0  0  0  0  0
  142.6087  132.0106  148.6341 H   0  0  0  0  0  0  0  0  0  0  0  0
  142.2066  133.6683  149.0158 H   0  0  0  0  0  0  0  0  0  0  0  0
  144.5902  133.6642  147.8791 H   0  0  0  0  0  0  0  0  0  0  0  0
  142.3464  133.6508  151.3295 H   0  0  0  0  0  0  0  0  0  0  0  0
  143.3372  132.3545  152.0630 H   0  0  0  0  0  0  0  0  0  0  0  0
  145.8072  134.2429  150.2162 H   0  0  0  0  0  0  0  0  0  0  0  0
  144.3008  135.1415  149.8608 H   0  0  0  0  0  0  0  0  0  0  0  0
  1  2  1  0  0  0  0
  1 27  1  0  0  0  0
  1 28  1  0  0  0  0
  1 29  1  0  0  0  0
  2  3  1  0  0  0  0
  2  9  1  0  0  0  0
  2 30  1  0  0  0  0
  3  4  1  0  0  0  0
  3  5  1  0  0  0  0
  3 31  1  0  0  0  0
  4 32  1  0  0  0  0
  4 33  1  0  0  0  0
  4 34  1  0  0  0  0
  5  6  1  0  0  0  0
  5  7  2  0  0  0  0
  5  8  2  0  0  0  0
  6 35  1  0  0  0  0
  6 36  1  0  0  0  0
  6 37  1  0  0  0  0
  9 10  1  0  0  0  0
  9 11  1  0  0  0  0
 10 38  1  0  0  0  0
 10 39  1  0  0  0  0
 10 40  1  0  0  0  0
 11 16  1  0  0  0  0
 11 12  2  0  0  0  0
 12 13  1  0  0  0  0
 13 14  2  0  0  0  0
 13 41  1  0  0  0  0
 14 15  1  0  0  0  0
 15 19  1  0  0  0  0
 15 16  2  0  0  0  0
 16 17  1  0  0  0  0
 17 18  2  0  0  0  0
 18 19  1  0  0  0  0
 18 42  1  0  0  0  0
 19 20  1  0  0  0  0
 20 21  1  0  0  0  0
 20 43  1  0  0  0  0
 20 44  1  0  0  0  0
 21 26  1  0  0  0  0
 21 22  1  0  0  0  0
 21 24  1  0  0  0  0
 22 23  1  0  0  0  0
 22 45  1  0  0  0  0
 22 46  1  0  0  0  0
 23 47  1  0  0  0  0
 24 25  1  0  0  0  0
 24 48  1  0  0  0  0
 24 49  1  0  0  0  0
 25 26  1  0  0  0  0
 26 50  1  0  0  0  0
 26 51  1  0  0  0  0
M  END
> <s_m_source_file>
AV-unprocessed.smi

> <i_m_source_file_index>
156

> <i_lp_mmshare_version>
43012

> <i_f3d_flags>
0

> <s_epik_input>
W0NIM11TKD1PKSg9TylbQ0BASF0oW0NIM10pW0NAQEhdKFtDSDNdKU4oW0NIM10pYyhuW2NIXW4xKWMoYzEyKW5bY0hdbjJbQ0gyXUMzKFtDSDJdW09IXSlbQ0gyXU9bQ0gyXTM=

> <s_epik_cmdline>
J2VwaWtfcHl0aG9uJywgJy1waCcsICc3LjAnLCAnLXRuJywgJzgnLCAnLW1hJywgJzIwMCcsICctbWV0YWxfYmluZGluZycsICctaW1hZScsICc8aW5maWxlLm1hZT4nLCAnLW9tYWUnLCAnPG91dGZpbGUubWFlPic=

> <r_lp_tautomer_probability>
1

> <r_epik_Ionization_Penalty>
0.00107697

> <r_epik_Ionization_Penalty_Charging>
0

> <r_epik_Ionization_Penalty_Neutral>
0.00107697

> <r_epik_State_Penalty>
0.000614712

> <r_epik_Charging_Adjusted_Penalty>
0.000614712

> <i_epik_Tot_Q>
0

> <i_epik_Tot_abs_Q>
0

> <r_epik_Metal_State_Penalty>
-0

> <b_epik_Metal_Only>
0

> <s_lp_Force_Field>
OPLS_2005

> <r_lp_Energy>
29.1467

> <b_lp_Chiralities_Consistent>
1

> <s_lp_Variant>
AV-unprocessed.smi:156-2

> <Gold.Version>
5.8.1

> <Gold.Id.Protein>
6NUR|6NUR_protein|mol2

> <Gold.PLP.Fitness>
45.3485

> <Gold.PLP.PLP>
-35.6008

> <Gold.PLP.part.hbond>
-4.6881

> <Gold.PLP.part.metal>
0.0000

> <Gold.PLP.part.buried>
-0.9584

> <Gold.PLP.part.nonpolar>
-30.9392

> <Gold.PLP.part.repulsive>
0.5259

> <Gold.PLP.ligand.clash>
0.0000

> <Gold.PLP.ligand.torsion>
1.8040

> <Gold.PLP.Chemscore.Hbond>
3.0000

> <Gold.PLP.Chemscore.CHOScore>
1.0000

> <Gold.PLP.Chemscore.Metal>
0.0000

> <Gold.Chemscore.Hbonds>
donor molecule, donor type, donor heavy atom, donor atom, acceptor molecule, acceptor atom, score
      L1  H    23    47       P1  7921  0.98
      P1  H  6896  6907       L1     8  1.00
      L1  C    13    41       P1  7948  0.93

> <Gold.PLP.Chemscore.Internal.Correction>
1.3556

> <Gold.Rescore>
     Score         DG    S(hbond)    S(metal)    S(lipo)     H(rot)  DE(clash)    DE(int)     intcor
      8.70     -14.54       2.75        0.00      69.22       3.21       2.02       3.83       ----

> <Gold.Chemscore.Fitness>
8.7000

> <Gold.Chemscore.DG>
-14.5440

> <Gold.Chemscore.ZeroCoef>
-5.4800

> <Gold.Chemscore.Hbond>
2.7507

> <Gold.Chemscore.Metal>
0.0000

> <Gold.Chemscore.Lipo>
69.2166

> <Gold.Chemscore.Internal_Hbond>
0.0000

> <Gold.Chemscore.DEClash>
2.0168

> <Gold.Chemscore.DEInternal>
3.8272

> <Gold.Chemscore.Rot>
3.2115

> <Gold.Chemscore.Internal.Correction>
   9.000000E+99

> <Gold.Chemscore.Hbonds>
donor molecule, donor type, donor heavy atom, donor atom, acceptor molecule, acceptor atom, score
      L1  H    23    47       P1  7921  0.90
      P1  H  6896  6907       L1     8  1.00

> <Gold.Chemscore.Hbond.Weighted>
-9.1872

> <Gold.Chemscore.Metal.Weighted>
-0.0000

> <Gold.Chemscore.Lipo.Weighted>
-8.0983

> <Gold.Chemscore.Internal_Hbond.Weighted>
0.0000

> <Gold.Chemscore.DEClash.Weighted>
2.0168

> <Gold.Chemscore.DEInternal.Weighted>
3.8272

> <Gold.Chemscore.Rot.Weighted>
8.2215

> <Gold.Chemscore.Internal.Correction.Weighted>
   9.000000E+99

> <Gold.Protein.RotatedTorsions>
[ 6907 6896 6895 6894 ] final -157.23 input  -60.11 | X-H torsion
[ 7974 7965 7964 7962 ] final  -55.67 input  175.53 | X-H torsion
[ 8008 7997 7996 7995 ] final   76.89 input   59.86 | X-H torsion
[ 10167 10162 10161 10158 ] final  -73.52 input  -65.29 | X-H torsion
[ 10718 10713 10712 10709 ] final -112.74 input   66.30 | X-H torsion
[ 10763 10752 10751 10750 ] final  -90.06 input  -60.55 | X-H torsion
[ 11005 11000 10999 10996 ] final  125.87 input  -57.11 | X-H torsion

> <Gold.Protein.ActiveResidues>
 VAL166  LYS551  ARG553  GLY616  TRP617  ASP618  TYR619  PRO620  LYS621  CYS622 
 ASP623  PHE694  ASN695  SER759  ASP760  ASP761  ALA762  ILE779  LEU786  VAL792 
 PHE793  MET794  SER795  GLU796  ALA797  LYS798  CYS799  TRP800  GLU811  SER814 

> <Gold.Protein.RotatedAtoms>
  151.2997  133.4128  159.2638 H   0  0  0  0  0  0  0  0  0  0  0  0  # atno 6907 bound_to 6896
  151.0206  134.9466  159.8067 H   0  0  0  0  0  0  0  0  0  0  0  0  # atno 6908 bound_to 6896
  152.5323  134.2960  159.9113 H   0  0  0  0  0  0  0  0  0  0  0  0  # atno 6909 bound_to 6896
  145.8715  140.8212  142.9886 H   0  0  0  0  0  0  0  0  0  0  0  0  # atno 7974 bound_to 7965
  155.8337  140.3465  155.5588 H   0  0  0  0  0  0  0  0  0  0  0  0  # atno 8008 bound_to 7997
  155.8214  140.0913  157.1866 H   0  0  0  0  0  0  0  0  0  0  0  0  # atno 8009 bound_to 7997
  154.4004  140.1429  156.3492 H   0  0  0  0  0  0  0  0  0  0  0  0  # atno 8010 bound_to 7997
  140.5103  143.2346  151.7604 H   0  0  0  0  0  0  0  0  0  0  0  0  # atno 10167 bound_to 10162
  156.0724  130.5936  150.8549 H   0  0  0  0  0  0  0  0  0  0  0  0  # atno 10718 bound_to 10713
  154.6618  135.5318  153.8028 H   0  0  0  0  0  0  0  0  0  0  0  0  # atno 10763 bound_to 10752
  153.0447  135.6507  154.0859 H   0  0  0  0  0  0  0  0  0  0  0  0  # atno 10764 bound_to 10752
  154.0767  135.2950  155.3278 H   0  0  0  0  0  0  0  0  0  0  0  0  # atno 10765 bound_to 10752
  139.9428  134.9633  156.8623 H   0  0  0  0  0  0  0  0  0  0  0  0  # atno 11005 bound_to 11000
  144.6726  140.1246  143.7447 LP  0  0  0  0  0  0  0  0  0  0  0  0  # atno 17320 bound_to 7965
  145.9131  139.2499  143.1426 LP  0  0  0  0  0  0  0  0  0  0  0  0  # atno 17321 bound_to 7965
  139.4894  144.4400  151.9776 LP  0  0  0  0  0  0  0  0  0  0  0  0  # atno 17342 bound_to 10162
  140.3492  144.3110  150.5952 LP  0  0  0  0  0  0  0  0  0  0  0  0  # atno 17343 bound_to 10162
  157.5802  131.0946  150.9283 LP  0  0  0  0  0  0  0  0  0  0  0  0  # atno 17370 bound_to 10713
  156.9480  130.5409  149.5281 LP  0  0  0  0  0  0  0  0  0  0  0  0  # atno 17371 bound_to 10713
  140.5910  134.0262  155.7499 LP  0  0  0  0  0  0  0  0  0  0  0  0  # atno 17394 bound_to 11000
  141.1068  133.9680  157.2982 LP  0  0  0  0  0  0  0  0  0  0  0  0  # atno 17395 bound_to 11000

$$$$
