AV-unprocessed.smi:107|AV-procd|sdf|1016|dock9
  -GOLD-   2262018 13D 1   1.00000     0.00000
 Structure written by MMmdl.
 31 32  0  0  0  0  0  0  0  0  1 V2000
  152.0971  141.5039  159.3676 C   0  0  0  0  0  0  0  0  0  0  0  0
  152.3680  140.3071  158.4711 C   0  0  0  0  0  0  0  0  0  0  0  0
  151.8582  140.2075  157.2169 C   0  0  0  0  0  0  0  0  0  0  0  0
  152.0842  139.1274  156.3753 N   0  0  0  0  0  0  0  0  0  0  0  0
  151.4823  139.0876  154.9884 C   0  0  1  0  0  0  0  0  0  0  0  0
  150.5275  137.8985  154.8414 C   0  0  0  0  0  0  0  0  0  0  0  0
  149.1664  138.5673  154.8851 C   0  0  2  0  0  0  0  0  0  0  0  0
  148.2179  137.8370  154.1342 O   0  0  0  0  0  0  0  0  0  0  0  0
  149.4563  139.9433  154.2803 C   0  0  1  0  0  0  0  0  0  0  0  0
  148.4514  141.0252  154.7035 C   0  0  0  0  0  0  0  0  0  0  0  0
  148.8488  142.2792  154.1914 O   0  0  0  0  0  0  0  0  0  0  0  0
  150.7487  140.2587  154.7900 O   0  0  0  0  0  0  0  0  0  0  0  0
  152.8791  138.0534  156.8287 C   0  0  0  0  0  0  0  0  0  0  0  0
  153.1091  137.0523  156.1515 O   0  0  0  0  0  0  0  0  0  0  0  0
  153.4067  138.1571  158.1148 N   0  0  0  0  0  0  0  0  0  0  0  0
  153.2095  139.2265  158.9919 C   0  0  0  0  0  0  0  0  0  0  0  0
  153.7298  139.2020  160.1060 O   0  0  0  0  0  0  0  0  0  0  0  0
  153.9782  137.3920  158.4418 H   0  0  0  0  0  0  0  0  0  0  0  0
  151.4731  142.2477  158.8718 H   0  0  0  0  0  0  0  0  0  0  0  0
  153.0322  141.9876  159.6510 H   0  0  0  0  0  0  0  0  0  0  0  0
  151.5841  141.1897  160.2772 H   0  0  0  0  0  0  0  0  0  0  0  0
  151.2412  141.0170  156.8566 H   0  0  0  0  0  0  0  0  0  0  0  0
  152.3010  139.0676  154.2679 H   0  0  0  0  0  0  0  0  0  0  0  0
  150.7093  137.4356  153.8702 H   0  0  0  0  0  0  0  0  0  0  0  0
  150.6742  137.1490  155.6206 H   0  0  0  0  0  0  0  0  0  0  0  0
  148.8277  138.6613  155.9176 H   0  0  0  0  0  0  0  0  0  0  0  0
  148.6683  137.3851  153.4369 H   0  0  0  0  0  0  0  0  0  0  0  0
  149.5154  139.8594  153.1930 H   0  0  0  0  0  0  0  0  0  0  0  0
  147.4655  140.8032  154.2940 H   0  0  0  0  0  0  0  0  0  0  0  0
  148.3494  141.0704  155.7883 H   0  0  0  0  0  0  0  0  0  0  0  0
  149.0987  142.8340  154.9144 H   0  0  0  0  0  0  0  0  0  0  0  0
  1  2  1  0  0  0  0
  1 19  1  0  0  0  0
  1 20  1  0  0  0  0
  1 21  1  0  0  0  0
  2 16  1  0  0  0  0
  2  3  2  0  0  0  0
  3  4  1  0  0  0  0
  3 22  1  0  0  0  0
  4  5  1  0  0  0  0
  4 13  1  0  0  0  0
  5 12  1  0  0  0  0
  5  6  1  0  0  0  0
  5 23  1  0  0  0  0
  6  7  1  0  0  0  0
  6 24  1  0  0  0  0
  6 25  1  0  0  0  0
  7  8  1  0  0  0  0
  7  9  1  0  0  0  0
  7 26  1  0  0  0  0
  8 27  1  0  0  0  0
  9 10  1  0  0  0  0
  9 12  1  0  0  0  0
  9 28  1  0  0  0  0
 10 11  1  0  0  0  0
 10 29  1  0  0  0  0
 10 30  1  0  0  0  0
 11 31  1  0  0  0  0
 13 14  2  0  0  0  0
 13 15  1  0  0  0  0
 15 18  1  0  0  0  0
 15 16  1  0  0  0  0
 16 17  2  0  0  0  0
M  END
> <s_m_source_file>
AV-unprocessed.smi

> <i_m_source_file_index>
107

> <i_lp_mmshare_version>
43012

> <i_f3d_flags>
0

> <s_epik_input>
Tz1jMVtuSF1jKD1PKW4oW2NIXWMxW0NIM10pW0NAQEhdMltDSDJdW0NAQEhdKFtPSF0pW0NASF0oTzIpW0NIMl1bT0hd

> <s_epik_cmdline>
J2VwaWtfcHl0aG9uJywgJy1waCcsICc3LjAnLCAnLXRuJywgJzgnLCAnLW1hJywgJzIwMCcsICctbWV0YWxfYmluZGluZycsICctaW1hZScsICc8aW5maWxlLm1hZT4nLCAnLW9tYWUnLCAnPG91dGZpbGUubWFlPic=

> <r_lp_tautomer_probability>
0.999537

> <r_epik_Ionization_Penalty>
0.00121888

> <r_epik_Ionization_Penalty_Charging>
0.00121876

> <r_epik_Ionization_Penalty_Neutral>
1.19946e-07

> <r_epik_State_Penalty>
0.000805124

> <r_epik_Charging_Adjusted_Penalty>
0.00202389

> <i_epik_Tot_Q>
0

> <i_epik_Tot_abs_Q>
0

> <r_epik_Metal_State_Penalty>
0.662472

> <b_epik_Metal_Only>
0

> <s_epik_Chemistry_Notes>
This compound contains an acetal/aminal-like group ( X-CH(R)-Y where X, Y are N, S, or O) that may be acid/base labile, releasing an aldehyde.

> <s_lp_Force_Field>
OPLS_2005

> <r_lp_Energy>
24.9253

> <b_lp_Chiralities_Consistent>
1

> <s_lp_Variant>
AV-unprocessed.smi:107-4

> <Gold.Version>
5.8.1

> <Gold.Id.Protein>
6NUR|6NUR_protein|mol2

> <Gold.PLP.Fitness>
38.8200

> <Gold.PLP.PLP>
-27.5012

> <Gold.PLP.part.hbond>
-5.0000

> <Gold.PLP.part.metal>
0.0000

> <Gold.PLP.part.buried>
-3.4350

> <Gold.PLP.part.nonpolar>
-19.3921

> <Gold.PLP.part.repulsive>
0.1720

> <Gold.PLP.ligand.clash>
0.0000

> <Gold.PLP.ligand.torsion>
0.0091

> <Gold.PLP.Chemscore.Hbond>
3.7760

> <Gold.PLP.Chemscore.CHOScore>
0.0000

> <Gold.PLP.Chemscore.Metal>
0.0000

> <Gold.Chemscore.Hbonds>
donor molecule, donor type, donor heavy atom, donor atom, acceptor molecule, acceptor atom, score
      L1  H     8    27       P1  7948  1.00
      L1  H    11    31       P1  8028  0.83
      P1  H  7989  7998       L1    12  0.90
      P1  H  8011  8017       L1    11  0.22
      P1  H 10752 10765       L1    14  0.64

> <Gold.PLP.Chemscore.Internal.Correction>
0.0089

> <Gold.Rescore>
     Score         DG    S(hbond)    S(metal)    S(lipo)     H(rot)  DE(clash)    DE(int)     intcor
     12.61     -13.00       2.83        0.00      43.14       2.73       0.29       0.09       ----

> <Gold.Chemscore.Fitness>
12.6120

> <Gold.Chemscore.DG>
-12.9960

> <Gold.Chemscore.ZeroCoef>
-5.4800

> <Gold.Chemscore.Hbond>
2.8280

> <Gold.Chemscore.Metal>
0.0000

> <Gold.Chemscore.Lipo>
43.1394

> <Gold.Chemscore.Internal_Hbond>
0.0000

> <Gold.Chemscore.DEClash>
0.2946

> <Gold.Chemscore.DEInternal>
0.0894

> <Gold.Chemscore.Rot>
2.7253

> <Gold.Chemscore.Internal.Correction>
   9.000000E+99

> <Gold.Chemscore.Hbonds>
donor molecule, donor type, donor heavy atom, donor atom, acceptor molecule, acceptor atom, score
      L1  H     8    27       P1  7948  0.98
      L1  H    11    31       P1  8028  0.78
      P1  H  7989  7998       L1    12  0.10
      P1  H  8011  8017       L1    11  0.22
      P1  H 10752 10765       L1    14  0.64

> <Gold.Chemscore.Hbond.Weighted>
-9.4455

> <Gold.Chemscore.Metal.Weighted>
-0.0000

> <Gold.Chemscore.Lipo.Weighted>
-5.0473

> <Gold.Chemscore.Internal_Hbond.Weighted>
0.0000

> <Gold.Chemscore.DEClash.Weighted>
0.2946

> <Gold.Chemscore.DEInternal.Weighted>
0.0894

> <Gold.Chemscore.Rot.Weighted>
6.9769

> <Gold.Chemscore.Internal.Correction.Weighted>
   9.000000E+99

> <Gold.Protein.RotatedTorsions>
[ 6907 6896 6895 6894 ] final  141.88 input  -60.11 | X-H torsion
[ 7974 7965 7964 7962 ] final  -56.75 input  175.53 | X-H torsion
[ 8008 7997 7996 7995 ] final  173.73 input   59.86 | X-H torsion
[ 10167 10162 10161 10158 ] final -151.50 input  -65.29 | X-H torsion
[ 10718 10713 10712 10709 ] final  115.53 input   66.30 | X-H torsion
[ 10763 10752 10751 10750 ] final -144.22 input  -60.55 | X-H torsion
[ 11005 11000 10999 10996 ] final  116.51 input  -57.11 | X-H torsion

> <Gold.Protein.ActiveResidues>
 VAL166  LYS551  ARG553  GLY616  TRP617  ASP618  TYR619  PRO620  LYS621  CYS622 
 ASP623  PHE694  ASN695  SER759  ASP760  ASP761  ALA762  ILE779  LEU786  VAL792 
 PHE793  MET794  SER795  GLU796  ALA797  LYS798  CYS799  TRP800  GLU811  SER814 

> <Gold.Protein.RotatedAtoms>
  152.2256  133.5018  159.5186 H   0  0  0  0  0  0  0  0  0  0  0  0  # atno 6907 bound_to 6896
  150.7024  134.1284  159.4070 H   0  0  0  0  0  0  0  0  0  0  0  0  # atno 6908 bound_to 6896
  151.9205  135.0300  160.0572 H   0  0  0  0  0  0  0  0  0  0  0  0  # atno 6909 bound_to 6896
  145.8590  140.8298  142.9946 H   0  0  0  0  0  0  0  0  0  0  0  0  # atno 7974 bound_to 7965
  156.1046  140.1453  156.9421 H   0  0  0  0  0  0  0  0  0  0  0  0  # atno 8008 bound_to 7997
  154.4725  140.0905  156.7226 H   0  0  0  0  0  0  0  0  0  0  0  0  # atno 8009 bound_to 7997
  155.4701  140.3441  155.4327 H   0  0  0  0  0  0  0  0  0  0  0  0  # atno 8010 bound_to 7997
  139.7262  143.8880  152.2520 H   0  0  0  0  0  0  0  0  0  0  0  0  # atno 10167 bound_to 10162
  157.6216  131.1013  150.7343 H   0  0  0  0  0  0  0  0  0  0  0  0  # atno 10718 bound_to 10713
  154.8437  135.3446  154.6311 H   0  0  0  0  0  0  0  0  0  0  0  0  # atno 10763 bound_to 10752
  153.6921  135.6974  153.5091 H   0  0  0  0  0  0  0  0  0  0  0  0  # atno 10764 bound_to 10752
  153.2587  135.4330  155.0827 H   0  0  0  0  0  0  0  0  0  0  0  0  # atno 10765 bound_to 10752
  139.9044  134.9599  156.7209 H   0  0  0  0  0  0  0  0  0  0  0  0  # atno 11005 bound_to 11000
  144.6727  140.1067  143.7457 LP  0  0  0  0  0  0  0  0  0  0  0  0  # atno 17320 bound_to 7965
  145.9270  139.2581  143.1348 LP  0  0  0  0  0  0  0  0  0  0  0  0  # atno 17321 bound_to 7965
  139.8790  144.7028  150.8900 LP  0  0  0  0  0  0  0  0  0  0  0  0  # atno 17342 bound_to 10162
  140.7763  143.3676  151.1709 LP  0  0  0  0  0  0  0  0  0  0  0  0  # atno 17343 bound_to 10162
  156.7699  130.4825  149.5420 LP  0  0  0  0  0  0  0  0  0  0  0  0  # atno 17370 bound_to 10713
  156.1365  130.6215  151.0407 LP  0  0  0  0  0  0  0  0  0  0  0  0  # atno 17371 bound_to 10713
  140.7001  133.9314  155.8019 LP  0  0  0  0  0  0  0  0  0  0  0  0  # atno 17394 bound_to 11000
  141.0378  134.0665  157.3939 LP  0  0  0  0  0  0  0  0  0  0  0  0  # atno 17395 bound_to 11000

$$$$
