AV-unprocessed.smi:99|AV-procd|sdf|875|dock8
  -GOLD-   2262017343D 1   1.00000     0.00000
 Structure written by MMmdl.
 53 56  0  0  0  0  0  0  0  0  1 V2000
  153.5774  139.6483  158.2772 O   0  0  0  0  0  0  0  0  0  0  0  0
  152.5901  140.1468  158.8205 C   0  0  0  0  0  0  0  0  0  0  0  0
  151.3372  139.6823  158.6693 O   0  0  0  0  0  0  0  0  0  0  0  0
  151.0970  138.3538  158.2280 C   0  0  0  0  0  0  0  0  0  0  0  0
  151.4621  138.2339  156.7392 C   0  0  2  0  0  0  0  0  0  0  0  0
  151.2461  139.4671  156.0671 O   0  0  0  0  0  0  0  0  0  0  0  0
  150.8114  139.2560  154.7586 C   0  0  2  0  0  0  0  0  0  0  0  0
  149.5103  140.0306  154.5988 N   0  0  0  0  0  0  0  0  0  0  0  0
  148.2652  139.4265  154.4448 C   0  0  0  0  0  0  0  0  0  0  0  0
  147.0995  140.1142  154.4159 C   0  0  0  0  0  0  0  0  0  0  0  0
  147.0898  141.5632  154.5705 C   0  0  0  0  0  0  0  0  0  0  0  0
  146.0858  142.2718  154.5565 O   0  0  0  0  0  0  0  0  0  0  0  0
  148.3513  142.1307  154.7576 N   0  0  0  0  0  0  0  0  0  0  0  0
  149.5577  141.4307  154.7986 C   0  0  0  0  0  0  0  0  0  0  0  0
  150.6060  142.0396  155.0096 O   0  0  0  0  0  0  0  0  0  0  0  0
  150.7122  137.7315  154.5212 C   0  0  1  0  0  0  0  0  0  0  0  0
  151.8083  137.2433  153.7738 O   0  0  0  0  0  0  0  0  0  0  0  0
  150.7489  137.1428  155.9285 C   0  0  2  0  0  0  0  0  0  0  0  0
  149.4322  136.8918  156.4071 O   0  0  0  0  0  0  0  0  0  0  0  0
  149.2146  136.1069  157.4842 C   0  0  0  0  0  0  0  0  0  0  0  0
  149.9438  135.1680  157.8081 O   0  0  0  0  0  0  0  0  0  0  0  0
  147.9964  136.5032  158.2460 C   0  0  0  0  0  0  0  0  0  0  0  0
  147.1852  137.5565  157.7642 C   0  0  0  0  0  0  0  0  0  0  0  0
  146.0257  137.9448  158.4638 C   0  0  0  0  0  0  0  0  0  0  0  0
  145.6662  137.2877  159.6551 C   0  0  0  0  0  0  0  0  0  0  0  0
  146.4699  136.2439  160.1489 C   0  0  0  0  0  0  0  0  0  0  0  0
  147.6286  135.8553  159.4501 C   0  0  0  0  0  0  0  0  0  0  0  0
  152.6554  141.3183  159.7402 C   0  0  0  0  0  0  0  0  0  0  0  0
  152.0218  142.5272  159.3713 C   0  0  0  0  0  0  0  0  0  0  0  0
  152.0892  143.6561  160.2108 C   0  0  0  0  0  0  0  0  0  0  0  0
  152.7873  143.5878  161.4305 C   0  0  0  0  0  0  0  0  0  0  0  0
  153.4152  142.3882  161.8124 C   0  0  0  0  0  0  0  0  0  0  0  0
  153.3488  141.2584  160.9745 C   0  0  0  0  0  0  0  0  0  0  0  0
  148.3927  143.1309  154.8895 H   0  0  0  0  0  0  0  0  0  0  0  0
  151.7111  137.6760  158.8214 H   0  0  0  0  0  0  0  0  0  0  0  0
  150.0551  138.0653  158.3750 H   0  0  0  0  0  0  0  0  0  0  0  0
  152.5317  138.0332  156.6667 H   0  0  0  0  0  0  0  0  0  0  0  0
  151.5020  139.7132  154.0469 H   0  0  0  0  0  0  0  0  0  0  0  0
  148.1728  138.3611  154.3394 H   0  0  0  0  0  0  0  0  0  0  0  0
  146.1655  139.5864  154.2869 H   0  0  0  0  0  0  0  0  0  0  0  0
  149.8292  137.4548  153.9482 H   0  0  0  0  0  0  0  0  0  0  0  0
  151.5379  137.1421  152.8740 H   0  0  0  0  0  0  0  0  0  0  0  0
  151.3326  136.2214  155.9674 H   0  0  0  0  0  0  0  0  0  0  0  0
  147.4400  138.0734  156.8501 H   0  0  0  0  0  0  0  0  0  0  0  0
  145.4108  138.7476  158.0844 H   0  0  0  0  0  0  0  0  0  0  0  0
  144.7765  137.5848  160.1906 H   0  0  0  0  0  0  0  0  0  0  0  0
  146.1989  135.7392  161.0647 H   0  0  0  0  0  0  0  0  0  0  0  0
  148.2277  135.0563  159.8585 H   0  0  0  0  0  0  0  0  0  0  0  0
  151.4866  142.6045  158.4360 H   0  0  0  0  0  0  0  0  0  0  0  0
  151.6066  144.5763  159.9163 H   0  0  0  0  0  0  0  0  0  0  0  0
  152.8397  144.4542  162.0733 H   0  0  0  0  0  0  0  0  0  0  0  0
  153.9495  142.3339  162.7494 H   0  0  0  0  0  0  0  0  0  0  0  0
  153.8416  140.3527  161.2968 H   0  0  0  0  0  0  0  0  0  0  0  0
  1  2  2  0  0  0  0
  2  3  1  0  0  0  0
  2 28  1  0  0  0  0
  3  4  1  0  0  0  0
  4  5  1  0  0  0  0
  4 35  1  0  0  0  0
  4 36  1  0  0  0  0
  5 18  1  0  0  0  0
  5  6  1  0  0  0  0
  5 37  1  0  0  0  0
  6  7  1  0  0  0  0
  7  8  1  0  0  0  0
  7 16  1  0  0  0  0
  7 38  1  0  0  0  0
  8 14  1  0  0  0  0
  8  9  1  0  0  0  0
  9 10  2  0  0  0  0
  9 39  1  0  0  0  0
 10 11  1  0  0  0  0
 10 40  1  0  0  0  0
 11 12  2  0  0  0  0
 11 13  1  0  0  0  0
 13 34  1  0  0  0  0
 13 14  1  0  0  0  0
 14 15  2  0  0  0  0
 16 17  1  0  0  0  0
 16 18  1  0  0  0  0
 16 41  1  0  0  0  0
 17 42  1  0  0  0  0
 18 19  1  0  0  0  0
 18 43  1  0  0  0  0
 19 20  1  0  0  0  0
 20 21  2  0  0  0  0
 20 22  1  0  0  0  0
 22 27  1  0  0  0  0
 22 23  2  0  0  0  0
 23 24  1  0  0  0  0
 23 44  1  0  0  0  0
 24 25  2  0  0  0  0
 24 45  1  0  0  0  0
 25 26  1  0  0  0  0
 25 46  1  0  0  0  0
 26 27  2  0  0  0  0
 26 47  1  0  0  0  0
 27 48  1  0  0  0  0
 28 33  1  0  0  0  0
 28 29  2  0  0  0  0
 29 30  1  0  0  0  0
 29 49  1  0  0  0  0
 30 31  2  0  0  0  0
 30 50  1  0  0  0  0
 31 32  1  0  0  0  0
 31 51  1  0  0  0  0
 32 33  2  0  0  0  0
 32 52  1  0  0  0  0
 33 53  1  0  0  0  0
M  END
> <s_m_source_file>
AV-unprocessed.smi

> <i_m_source_file_index>
99

> <i_lp_mmshare_version>
43012

> <i_f3d_flags>
0

> <s_epik_input>
W2NIXTFbY0hdW2NIXVtjSF1bY0hdYzFDKD1PKU9bQ0gyXVtDQEBIXTJPW0NAQEhdKG4zW2NIXVtjSF1jKD1PKVtuSF1jMz1PKVtDQEBIXShbT0hdKVtDQEhdMk9DKD1PKWM0W2NIXVtjSF1bY0hdW2NIXVtjSF00

> <s_epik_cmdline>
J2VwaWtfcHl0aG9uJywgJy1waCcsICc3LjAnLCAnLXRuJywgJzgnLCAnLW1hJywgJzIwMCcsICctbWV0YWxfYmluZGluZycsICctaW1hZScsICc8aW5maWxlLm1hZT4nLCAnLW9tYWUnLCAnPG91dGZpbGUubWFlPic=

> <r_lp_tautomer_probability>
1

> <r_epik_Ionization_Penalty>
0.00454555

> <r_epik_Ionization_Penalty_Charging>
0.0045191

> <r_epik_Ionization_Penalty_Neutral>
2.64449e-05

> <r_epik_State_Penalty>
-0

> <r_epik_Charging_Adjusted_Penalty>
0.0045191

> <i_epik_Tot_Q>
0

> <i_epik_Tot_abs_Q>
0

> <r_epik_Metal_State_Penalty>
1.27877

> <b_epik_Metal_Only>
0

> <s_epik_Chemistry_Notes>
This compound has an ester and may undergo hydrolysis at high or low pH. This compound contains an acetal/aminal-like group ( X-CH(R)-Y where X, Y are N, S, or O) that may be acid/base labile, releasing an aldehyde.

> <s_lp_Force_Field>
OPLS_2005

> <r_lp_Energy>
29.5489

> <b_lp_Chiralities_Consistent>
1

> <s_lp_Variant>
AV-unprocessed.smi:99-11

> <Gold.Version>
5.8.1

> <Gold.Id.Protein>
6NUR|6NUR_protein|mol2

> <Gold.PLP.Fitness>
56.8929

> <Gold.PLP.PLP>
-46.9856

> <Gold.PLP.part.hbond>
-6.0000

> <Gold.PLP.part.metal>
0.0000

> <Gold.PLP.part.buried>
-4.9829

> <Gold.PLP.part.nonpolar>
-36.2249

> <Gold.PLP.part.repulsive>
0.5089

> <Gold.PLP.ligand.clash>
0.0000

> <Gold.PLP.ligand.torsion>
2.4842

> <Gold.PLP.Chemscore.Hbond>
4.8688

> <Gold.PLP.Chemscore.CHOScore>
0.0000

> <Gold.PLP.Chemscore.Metal>
0.0000

> <Gold.Chemscore.Hbonds>
donor molecule, donor type, donor heavy atom, donor atom, acceptor molecule, acceptor atom, score
      L1  H    13    34       P1  8028  1.00
      L1  H    17    42       P1  7949  0.94
      P1  H  6896  6907       L1    21  0.88
      P1  H  7989  7998       L1    15  0.07
      P1  H  7997  8010       L1     1  1.00
      P1  H 10752 10764       L1    17  1.00

> <Gold.PLP.Chemscore.Internal.Correction>
0.2693

> <Gold.Rescore>
     Score         DG    S(hbond)    S(metal)    S(lipo)     H(rot)  DE(clash)    DE(int)     intcor
     17.64     -23.85       4.41        0.00     100.88       3.19       1.66       4.55       ----

> <Gold.Chemscore.Fitness>
17.6396

> <Gold.Chemscore.DG>
-23.8462

> <Gold.Chemscore.ZeroCoef>
-5.4800

> <Gold.Chemscore.Hbond>
4.4102

> <Gold.Chemscore.Metal>
0.0000

> <Gold.Chemscore.Lipo>
100.8819

> <Gold.Chemscore.Internal_Hbond>
0.0000

> <Gold.Chemscore.DEClash>
1.6609

> <Gold.Chemscore.DEInternal>
4.5457

> <Gold.Chemscore.Rot>
3.1903

> <Gold.Chemscore.Internal.Correction>
   9.000000E+99

> <Gold.Chemscore.Hbonds>
donor molecule, donor type, donor heavy atom, donor atom, acceptor molecule, acceptor atom, score
      L1  H    13    34       P1  8028  0.99
      L1  H    17    42       P1  7949  0.87
      P1  H  6896  6907       L1    21  0.86
      P1  H  7989  7998       L1    15  0.01
      P1  H  7997  8010       L1     1  1.00
      P1  H 10752 10764       L1    17  0.44

> <Gold.Chemscore.Hbond.Weighted>
-14.7301

> <Gold.Chemscore.Metal.Weighted>
-0.0000

> <Gold.Chemscore.Lipo.Weighted>
-11.8032

> <Gold.Chemscore.Internal_Hbond.Weighted>
0.0000

> <Gold.Chemscore.DEClash.Weighted>
1.6609

> <Gold.Chemscore.DEInternal.Weighted>
4.5457

> <Gold.Chemscore.Rot.Weighted>
8.1671

> <Gold.Chemscore.Internal.Correction.Weighted>
   9.000000E+99

> <Gold.Protein.RotatedTorsions>
[ 6907 6896 6895 6894 ] final  -83.90 input  -60.11 | X-H torsion
[ 7974 7965 7964 7962 ] final  145.51 input  175.53 | X-H torsion
[ 8008 7997 7996 7995 ] final   36.07 input   59.86 | X-H torsion
[ 10167 10162 10161 10158 ] final  118.37 input  -65.29 | X-H torsion
[ 10718 10713 10712 10709 ] final  -32.15 input   66.30 | X-H torsion
[ 10763 10752 10751 10750 ] final  -88.78 input  -60.55 | X-H torsion
[ 11005 11000 10999 10996 ] final  163.25 input  -57.11 | X-H torsion

> <Gold.Protein.ActiveResidues>
 VAL166  LYS551  ARG553  GLY616  TRP617  ASP618  TYR619  PRO620  LYS621  CYS622 
 ASP623  PHE694  ASN695  SER759  ASP760  ASP761  ALA762  ILE779  LEU786  VAL792 
 PHE793  MET794  SER795  GLU796  ALA797  LYS798  CYS799  TRP800  GLU811  SER814 

> <Gold.Protein.RotatedAtoms>
  150.6881  134.3440  159.4880 H   0  0  0  0  0  0  0  0  0  0  0  0  # atno 6907 bound_to 6896
  152.1290  134.9146  160.0569 H   0  0  0  0  0  0  0  0  0  0  0  0  # atno 6908 bound_to 6896
  152.0323  133.3908  159.4339 H   0  0  0  0  0  0  0  0  0  0  0  0  # atno 6909 bound_to 6896
  144.8746  139.5792  143.5871 H   0  0  0  0  0  0  0  0  0  0  0  0  # atno 7974 bound_to 7965
  155.1813  140.3300  155.4374 H   0  0  0  0  0  0  0  0  0  0  0  0  # atno 8008 bound_to 7997
  156.2475  140.1926  156.6862 H   0  0  0  0  0  0  0  0  0  0  0  0  # atno 8009 bound_to 7997
  154.6269  140.0588  156.9670 H   0  0  0  0  0  0  0  0  0  0  0  0  # atno 8010 bound_to 7997
  139.6116  144.7083  151.2832 H   0  0  0  0  0  0  0  0  0  0  0  0  # atno 10167 bound_to 10162
  156.3784  130.4352  149.7488 H   0  0  0  0  0  0  0  0  0  0  0  0  # atno 10718 bound_to 10713
  154.6483  135.5364  153.7871 H   0  0  0  0  0  0  0  0  0  0  0  0  # atno 10763 bound_to 10752
  153.0371  135.6476  154.1056 H   0  0  0  0  0  0  0  0  0  0  0  0  # atno 10764 bound_to 10752
  154.0975  135.2935  155.3238 H   0  0  0  0  0  0  0  0  0  0  0  0  # atno 10765 bound_to 10752
  140.2339  134.8103  157.3344 H   0  0  0  0  0  0  0  0  0  0  0  0  # atno 11005 bound_to 11000
  146.2954  139.7262  142.9130 LP  0  0  0  0  0  0  0  0  0  0  0  0  # atno 17320 bound_to 7965
  145.4066  141.0391  143.3040 LP  0  0  0  0  0  0  0  0  0  0  0  0  # atno 17321 bound_to 7965
  140.7323  143.6828  150.7987 LP  0  0  0  0  0  0  0  0  0  0  0  0  # atno 17342 bound_to 10162
  140.0423  143.5333  152.2712 LP  0  0  0  0  0  0  0  0  0  0  0  0  # atno 17343 bound_to 10162
  156.4588  130.7942  151.2962 LP  0  0  0  0  0  0  0  0  0  0  0  0  # atno 17370 bound_to 10713
  157.7490  131.0072  150.3181 LP  0  0  0  0  0  0  0  0  0  0  0  0  # atno 17371 bound_to 10713
  140.1722  134.4594  155.7824 LP  0  0  0  0  0  0  0  0  0  0  0  0  # atno 17394 bound_to 11000
  141.2216  133.6946  156.7727 LP  0  0  0  0  0  0  0  0  0  0  0  0  # atno 17395 bound_to 11000

$$$$
