AV-unprocessed.smi:3134|AV-procd|sdf|11943|dock10
  -GOLD-   2272017333D 1   1.00000     0.00000
 Structure written by MMmdl.
 36 36  0  0  0  0  0  0  0  0  1 V2000
  146.7736  139.2578  152.1759 C   0  0  0  0  0  0  0  0  0  0  0  0
  147.2082  139.8875  153.5057 C   0  0  0  0  0  0  0  0  0  0  0  0
  146.8794  141.3879  153.5583 C   0  0  0  0  0  0  0  0  0  0  0  0
  148.6394  139.6764  153.6969 N   0  0  0  0  0  0  0  0  0  0  0  0
  149.2870  139.7384  154.8715 C   0  0  0  0  0  0  0  0  0  0  0  0
  148.7266  139.9780  155.9416 O   0  0  0  0  0  0  0  0  0  0  0  0
  150.8108  139.5346  154.8240 C   0  0  2  0  0  0  0  0  0  0  0  0
  151.1577  138.1083  154.3667 C   0  0  0  0  0  0  0  0  0  0  0  0
  151.4793  139.8219  156.1064 N   0  0  0  0  0  0  0  0  0  0  0  0
  151.2835  141.1808  156.5997 C   0  0  0  0  0  0  0  0  0  0  0  0
  152.1004  141.3783  157.8843 C   0  0  0  0  0  0  0  0  0  0  0  0
  152.0797  142.7601  158.3235 N   0  0  0  0  0  0  0  0  0  0  0  0
  151.4989  143.8474  157.7055 C   0  0  0  0  0  0  0  0  0  0  0  0
  151.7389  144.9374  158.4920 C   0  0  0  0  0  0  0  0  0  0  0  0
  152.4842  144.4093  159.5831 C   0  0  0  0  0  0  0  0  0  0  0  0
  152.6872  143.1058  159.4792 N   0  0  0  0  0  0  0  0  0  0  0  0
  145.7018  139.3796  152.0171 H   0  0  0  0  0  0  0  0  0  0  0  0
  146.9891  138.1890  152.1583 H   0  0  0  0  0  0  0  0  0  0  0  0
  147.2891  139.7163  151.3312 H   0  0  0  0  0  0  0  0  0  0  0  0
  146.6630  139.3831  154.3056 H   0  0  0  0  0  0  0  0  0  0  0  0
  145.8114  141.5592  153.4221 H   0  0  0  0  0  0  0  0  0  0  0  0
  147.4068  141.9375  152.7778 H   0  0  0  0  0  0  0  0  0  0  0  0
  147.1607  141.8218  154.5184 H   0  0  0  0  0  0  0  0  0  0  0  0
  149.1848  139.4844  152.8692 H   0  0  0  0  0  0  0  0  0  0  0  0
  151.2176  140.2198  154.0778 H   0  0  0  0  0  0  0  0  0  0  0  0
  150.6868  137.8724  153.4115 H   0  0  0  0  0  0  0  0  0  0  0  0
  150.8318  137.3613  155.0919 H   0  0  0  0  0  0  0  0  0  0  0  0
  152.2340  137.9919  154.2358 H   0  0  0  0  0  0  0  0  0  0  0  0
  151.2134  139.1585  156.8203 H   0  0  0  0  0  0  0  0  0  0  0  0
  151.6021  141.8982  155.8418 H   0  0  0  0  0  0  0  0  0  0  0  0
  150.2286  141.3654  156.8070 H   0  0  0  0  0  0  0  0  0  0  0  0
  151.7112  140.7522  158.6888 H   0  0  0  0  0  0  0  0  0  0  0  0
  153.1382  141.0817  157.7254 H   0  0  0  0  0  0  0  0  0  0  0  0
  150.9688  143.7555  156.7687 H   0  0  0  0  0  0  0  0  0  0  0  0
  151.4296  145.9567  158.3150 H   0  0  0  0  0  0  0  0  0  0  0  0
  152.8815  144.9309  160.4414 H   0  0  0  0  0  0  0  0  0  0  0  0
  1  2  1  0  0  0  0
  1 17  1  0  0  0  0
  1 18  1  0  0  0  0
  1 19  1  0  0  0  0
  2  3  1  0  0  0  0
  2  4  1  0  0  0  0
  2 20  1  0  0  0  0
  3 21  1  0  0  0  0
  3 22  1  0  0  0  0
  3 23  1  0  0  0  0
  4  5  1  0  0  0  0
  4 24  1  0  0  0  0
  5  6  2  0  0  0  0
  5  7  1  0  0  0  0
  7  8  1  0  0  0  0
  7  9  1  0  0  0  0
  7 25  1  0  0  0  0
  8 26  1  0  0  0  0
  8 27  1  0  0  0  0
  8 28  1  0  0  0  0
  9 10  1  0  0  0  0
  9 29  1  0  0  0  0
 10 11  1  0  0  0  0
 10 30  1  0  0  0  0
 10 31  1  0  0  0  0
 11 12  1  0  0  0  0
 11 32  1  0  0  0  0
 11 33  1  0  0  0  0
 12 16  1  0  0  0  0
 12 13  1  0  0  0  0
 13 14  2  0  0  0  0
 13 34  1  0  0  0  0
 14 15  1  0  0  0  0
 14 35  1  0  0  0  0
 15 16  2  0  0  0  0
 15 36  1  0  0  0  0
M  END
> <s_m_source_file>
AV-unprocessed.smi

> <i_m_source_file_index>
3134

> <i_lp_mmshare_version>
43012

> <i_f3d_flags>
0

> <s_epik_input>
W0NIM11bQ0hdKFtDSDNdKVtOSF1DKD1PKVtDQEhdKFtDSDNdKVtOSF1bQ0gyXVtDSDJdbjFbY0hdW2NIXVtjSF1uMQ==

> <s_epik_cmdline>
J2VwaWtfcHl0aG9uJywgJy1waCcsICc3LjAnLCAnLXRuJywgJzgnLCAnLW1hJywgJzIwMCcsICctbWV0YWxfYmluZGluZycsICctaW1hZScsICc8aW5maWxlLm1hZT4nLCAnLW9tYWUnLCAnPG91dGZpbGUubWFlPic=

> <r_lp_tautomer_probability>
1

> <r_epik_Ionization_Penalty>
0.731872

> <r_epik_Ionization_Penalty_Charging>
0

> <r_epik_Ionization_Penalty_Neutral>
0.731872

> <r_epik_State_Penalty>
0.75611

> <r_epik_Charging_Adjusted_Penalty>
0.75611

> <i_epik_Tot_Q>
0

> <i_epik_Tot_abs_Q>
0

> <r_epik_Metal_State_Penalty>
0.755373

> <b_epik_Metal_Only>
0

> <s_lp_Force_Field>
OPLS_2005

> <r_lp_Energy>
3.66061

> <b_lp_Chiralities_Consistent>
1

> <s_lp_Variant>
AV-unprocessed.smi:3134-3

> <Gold.Version>
5.8.1

> <Gold.Id.Protein>
6NUR|6NUR_protein|mol2

> <Gold.PLP.Fitness>
41.0947

> <Gold.PLP.PLP>
-35.9508

> <Gold.PLP.part.hbond>
-1.0000

> <Gold.PLP.part.metal>
0.0000

> <Gold.PLP.part.buried>
-3.6403

> <Gold.PLP.part.nonpolar>
-31.2603

> <Gold.PLP.part.repulsive>
0.1093

> <Gold.PLP.ligand.clash>
0.0000

> <Gold.PLP.ligand.torsion>
0.3701

> <Gold.PLP.Chemscore.Hbond>
0.9440

> <Gold.PLP.Chemscore.CHOScore>
1.0000

> <Gold.PLP.Chemscore.Metal>
0.0000

> <Gold.Chemscore.Hbonds>
donor molecule, donor type, donor heavy atom, donor atom, acceptor molecule, acceptor atom, score
      L1  H     4    24       P1  7957  0.93
      L1  C    13    34       P1  8028  1.00

> <Gold.PLP.Chemscore.Internal.Correction>
0.0522

> <Gold.Rescore>
     Score         DG    S(hbond)    S(metal)    S(lipo)     H(rot)  DE(clash)    DE(int)     intcor
     12.62     -14.32       0.98        0.00      92.50       2.05       0.13       1.57       ----

> <Gold.Chemscore.Fitness>
12.6233

> <Gold.Chemscore.DG>
-14.3221

> <Gold.Chemscore.ZeroCoef>
-5.4800

> <Gold.Chemscore.Hbond>
0.9807

> <Gold.Chemscore.Metal>
0.0000

> <Gold.Chemscore.Lipo>
92.4952

> <Gold.Chemscore.Internal_Hbond>
0.0000

> <Gold.Chemscore.DEClash>
0.1263

> <Gold.Chemscore.DEInternal>
1.5725

> <Gold.Chemscore.Rot>
2.0529

> <Gold.Chemscore.Internal.Correction>
   9.000000E+99

> <Gold.Chemscore.Hbonds>
donor molecule, donor type, donor heavy atom, donor atom, acceptor molecule, acceptor atom, score
      L1  H     4    24       P1  7957  0.90

> <Gold.Chemscore.Hbond.Weighted>
-3.2755

> <Gold.Chemscore.Metal.Weighted>
-0.0000

> <Gold.Chemscore.Lipo.Weighted>
-10.8219

> <Gold.Chemscore.Internal_Hbond.Weighted>
0.0000

> <Gold.Chemscore.DEClash.Weighted>
0.1263

> <Gold.Chemscore.DEInternal.Weighted>
1.5725

> <Gold.Chemscore.Rot.Weighted>
5.2554

> <Gold.Chemscore.Internal.Correction.Weighted>
   9.000000E+99

> <Gold.Protein.RotatedTorsions>
[ 6907 6896 6895 6894 ] final   79.70 input  -60.11 | X-H torsion
[ 7974 7965 7964 7962 ] final -114.25 input  175.53 | X-H torsion
[ 8008 7997 7996 7995 ] final  -74.45 input   59.86 | X-H torsion
[ 10167 10162 10161 10158 ] final  135.75 input  -65.29 | X-H torsion
[ 10718 10713 10712 10709 ] final  -59.66 input   66.30 | X-H torsion
[ 10763 10752 10751 10750 ] final  -24.44 input  -60.55 | X-H torsion
[ 11005 11000 10999 10996 ] final   21.26 input  -57.11 | X-H torsion

> <Gold.Protein.ActiveResidues>
 VAL166  LYS551  ARG553  GLY616  TRP617  ASP618  TYR619  PRO620  LYS621  CYS622 
 ASP623  PHE694  ASN695  SER759  ASP760  ASP761  ALA762  ILE779  LEU786  VAL792 
 PHE793  MET794  SER795  GLU796  ALA797  LYS798  CYS799  TRP800  GLU811  SER814 

> <Gold.Protein.RotatedAtoms>
  152.5208  134.3471  159.9237 H   0  0  0  0  0  0  0  0  0  0  0  0  # atno 6907 bound_to 6896
  151.3421  133.3952  159.2680 H   0  0  0  0  0  0  0  0  0  0  0  0  # atno 6908 bound_to 6896
  150.9795  134.9171  159.7893 H   0  0  0  0  0  0  0  0  0  0  0  0  # atno 6909 bound_to 6896
  145.1224  140.8677  143.3806 H   0  0  0  0  0  0  0  0  0  0  0  0  # atno 7974 bound_to 7965
  154.5331  140.0761  156.8381 H   0  0  0  0  0  0  0  0  0  0  0  0  # atno 8008 bound_to 7997
  155.3333  140.3403  155.4221 H   0  0  0  0  0  0  0  0  0  0  0  0  # atno 8009 bound_to 7997
  156.1802  140.1649  156.8276 H   0  0  0  0  0  0  0  0  0  0  0  0  # atno 8010 bound_to 7997
  139.5205  144.6500  151.5328 H   0  0  0  0  0  0  0  0  0  0  0  0  # atno 10167 bound_to 10162
  156.1045  130.4182  150.0746 H   0  0  0  0  0  0  0  0  0  0  0  0  # atno 10718 bound_to 10713
  153.6838  135.6965  153.5110 H   0  0  0  0  0  0  0  0  0  0  0  0  # atno 10763 bound_to 10752
  153.2465  135.4289  155.0752 H   0  0  0  0  0  0  0  0  0  0  0  0  # atno 10764 bound_to 10752
  154.8392  135.3521  154.6380 H   0  0  0  0  0  0  0  0  0  0  0  0  # atno 10765 bound_to 10752
  140.3936  134.1793  155.7663 H   0  0  0  0  0  0  0  0  0  0  0  0  # atno 11005 bound_to 11000
  145.0725  139.3020  143.5824 LP  0  0  0  0  0  0  0  0  0  0  0  0  # atno 17320 bound_to 7965
  146.3520  140.0205  142.8659 LP  0  0  0  0  0  0  0  0  0  0  0  0  # atno 17321 bound_to 7965
  140.6302  143.9091  150.6598 LP  0  0  0  0  0  0  0  0  0  0  0  0  # atno 17342 bound_to 10162
  140.2393  143.3676  152.1500 LP  0  0  0  0  0  0  0  0  0  0  0  0  # atno 17343 bound_to 10162
  156.8725  130.9529  151.3608 LP  0  0  0  0  0  0  0  0  0  0  0  0  # atno 17370 bound_to 10713
  157.6220  130.8663  149.9125 LP  0  0  0  0  0  0  0  0  0  0  0  0  # atno 17371 bound_to 10713
  141.1882  133.8265  157.1003 LP  0  0  0  0  0  0  0  0  0  0  0  0  # atno 17394 bound_to 11000
  140.0388  134.9864  157.0923 LP  0  0  0  0  0  0  0  0  0  0  0  0  # atno 17395 bound_to 11000

$$$$
