AV-unprocessed.smi:821|AV-procd|sdf|3838|dock8
  -GOLD-   22720 1283D 1   1.00000     0.00000
 Structure written by MMmdl.
 44 45  0  0  0  0  0  0  0  0  1 V2000
  152.3130  138.1729  154.4653 C   0  0  0  0  0  0  0  0  0  0  0  0
  150.9515  137.9615  155.1496 C   0  0  2  0  0  0  0  0  0  0  0  0
  149.8809  138.9126  154.5710 C   0  0  0  0  0  0  0  0  0  0  0  0
  148.6873  138.2603  154.0318 N   0  0  0  0  0  0  0  0  0  0  0  0
  147.9296  137.5360  155.0498 C   0  0  0  0  0  0  0  0  0  0  0  0
  146.6611  136.8862  154.4699 C   0  0  0  0  0  0  0  0  0  0  0  0
  145.8552  137.8801  153.8458 O   0  0  0  0  0  0  0  0  0  0  0  0
  146.5444  138.5733  152.8109 C   0  0  0  0  0  0  0  0  0  0  0  0
  147.8090  139.2319  153.3881 C   0  0  0  0  0  0  0  0  0  0  0  0
  151.0932  138.1970  156.5846 N   0  0  0  0  0  0  0  0  0  0  0  0
  151.7832  139.2020  157.1449 C   0  0  0  0  0  0  0  0  0  0  0  0
  152.4041  140.0426  156.4936 O   0  0  0  0  0  0  0  0  0  0  0  0
  151.7844  139.2495  158.6785 C   0  0  0  0  0  0  0  0  0  0  0  0
  152.1697  140.5696  159.2060 N   0  0  0  0  0  0  0  0  0  0  0  0
  153.2161  140.6034  160.1450 C   0  0  0  0  0  0  0  0  0  0  0  0
  153.6441  141.7535  160.6827 C   0  0  0  0  0  0  0  0  0  0  0  0
  153.0012  142.9787  160.2743 C   0  0  0  0  0  0  0  0  0  0  0  0
  151.9934  142.9782  159.3713 C   0  0  0  0  0  0  0  0  0  0  0  0
  151.3043  144.2658  158.9250 C   0  0  0  0  0  0  0  0  0  0  0  0
  151.5024  144.4769  157.6231 F   0  0  0  0  0  0  0  0  0  0  0  0
  149.9902  144.1922  159.1399 F   0  0  0  0  0  0  0  0  0  0  0  0
  151.7662  145.3291  159.5848 F   0  0  0  0  0  0  0  0  0  0  0  0
  151.5300  141.7046  158.7840 C   0  0  0  0  0  0  0  0  0  0  0  0
  150.6169  141.6531  157.9579 O   0  0  0  0  0  0  0  0  0  0  0  0
  152.2445  137.9919  153.3923 H   0  0  0  0  0  0  0  0  0  0  0  0
  153.0673  137.4918  154.8608 H   0  0  0  0  0  0  0  0  0  0  0  0
  152.6761  139.1911  154.6091 H   0  0  0  0  0  0  0  0  0  0  0  0
  150.6440  136.9291  154.9705 H   0  0  0  0  0  0  0  0  0  0  0  0
  149.6010  139.6657  155.3098 H   0  0  0  0  0  0  0  0  0  0  0  0
  150.3438  139.4715  153.7562 H   0  0  0  0  0  0  0  0  0  0  0  0
  148.5466  136.7553  155.4941 H   0  0  0  0  0  0  0  0  0  0  0  0
  147.6513  138.2145  155.8578 H   0  0  0  0  0  0  0  0  0  0  0  0
  146.9206  136.1115  153.7466 H   0  0  0  0  0  0  0  0  0  0  0  0
  146.0856  136.4052  155.2609 H   0  0  0  0  0  0  0  0  0  0  0  0
  146.8005  137.8811  152.0074 H   0  0  0  0  0  0  0  0  0  0  0  0
  145.8837  139.3289  152.3854 H   0  0  0  0  0  0  0  0  0  0  0  0
  147.5174  139.9997  154.1065 H   0  0  0  0  0  0  0  0  0  0  0  0
  148.3449  139.7424  152.5871 H   0  0  0  0  0  0  0  0  0  0  0  0
  150.6208  137.5492  157.1981 H   0  0  0  0  0  0  0  0  0  0  0  0
  150.8017  138.9666  159.0614 H   0  0  0  0  0  0  0  0  0  0  0  0
  152.4632  138.4757  159.0391 H   0  0  0  0  0  0  0  0  0  0  0  0
  153.6484  139.6445  160.3915 H   0  0  0  0  0  0  0  0  0  0  0  0
  154.4515  141.7637  161.3999 H   0  0  0  0  0  0  0  0  0  0  0  0
  153.3445  143.9066  160.7066 H   0  0  0  0  0  0  0  0  0  0  0  0
  1  2  1  0  0  0  0
  1 25  1  0  0  0  0
  1 26  1  0  0  0  0
  1 27  1  0  0  0  0
  2  3  1  0  0  0  0
  2 10  1  0  0  0  0
  2 28  1  0  0  0  0
  3  4  1  0  0  0  0
  3 29  1  0  0  0  0
  3 30  1  0  0  0  0
  4  9  1  0  0  0  0
  4  5  1  0  0  0  0
  5  6  1  0  0  0  0
  5 31  1  0  0  0  0
  5 32  1  0  0  0  0
  6  7  1  0  0  0  0
  6 33  1  0  0  0  0
  6 34  1  0  0  0  0
  7  8  1  0  0  0  0
  8  9  1  0  0  0  0
  8 35  1  0  0  0  0
  8 36  1  0  0  0  0
  9 37  1  0  0  0  0
  9 38  1  0  0  0  0
 10 11  1  0  0  0  0
 10 39  1  0  0  0  0
 11 12  2  0  0  0  0
 11 13  1  0  0  0  0
 13 14  1  0  0  0  0
 13 40  1  0  0  0  0
 13 41  1  0  0  0  0
 14 23  1  0  0  0  0
 14 15  1  0  0  0  0
 15 16  2  0  0  0  0
 15 42  1  0  0  0  0
 16 17  1  0  0  0  0
 16 43  1  0  0  0  0
 17 18  2  0  0  0  0
 17 44  1  0  0  0  0
 18 19  1  0  0  0  0
 18 23  1  0  0  0  0
 19 20  1  0  0  0  0
 19 21  1  0  0  0  0
 19 22  1  0  0  0  0
 23 24  2  0  0  0  0
M  END
> <s_m_source_file>
AV-unprocessed.smi

> <i_m_source_file_index>
821

> <i_lp_mmshare_version>
43012

> <i_f3d_flags>
0

> <s_epik_input>
W0NIMl0xW0NIMl1PW0NIMl1bQ0gyXU4xW0NIMl1bQ0BASF0oW0NIM10pW05IXUMoPU8pW0NIMl1uMltjSF1bY0hdW2NIXWMoQyhGKShGKUYpYzI9Tw==

> <s_epik_cmdline>
J2VwaWtfcHl0aG9uJywgJy1waCcsICc3LjAnLCAnLXRuJywgJzgnLCAnLW1hJywgJzIwMCcsICctbWV0YWxfYmluZGluZycsICctaW1hZScsICc8aW5maWxlLm1hZT4nLCAnLW9tYWUnLCAnPG91dGZpbGUubWFlPic=

> <r_lp_tautomer_probability>
1

> <r_epik_Ionization_Penalty>
0.237382

> <r_epik_Ionization_Penalty_Charging>
1.90699e-09

> <r_epik_Ionization_Penalty_Neutral>
0.237382

> <r_epik_State_Penalty>
0.228245

> <r_epik_Charging_Adjusted_Penalty>
0.228245

> <i_epik_Tot_Q>
0

> <i_epik_Tot_abs_Q>
0

> <r_epik_Metal_State_Penalty>
0.228219

> <b_epik_Metal_Only>
0

> <s_lp_Force_Field>
OPLS_2005

> <r_lp_Energy>
36.3962

> <b_lp_Chiralities_Consistent>
1

> <s_lp_Variant>
AV-unprocessed.smi:821-1

> <Gold.Version>
5.8.1

> <Gold.Id.Protein>
6NUR|6NUR_protein|mol2

> <Gold.PLP.Fitness>
47.6836

> <Gold.PLP.PLP>
-47.2972

> <Gold.PLP.part.hbond>
-1.0000

> <Gold.PLP.part.metal>
0.0000

> <Gold.PLP.part.buried>
-5.1160

> <Gold.PLP.part.nonpolar>
-42.4538

> <Gold.PLP.part.repulsive>
0.8733

> <Gold.PLP.ligand.clash>
0.2474

> <Gold.PLP.ligand.torsion>
1.3536

> <Gold.PLP.Chemscore.Hbond>
1.0000

> <Gold.PLP.Chemscore.CHOScore>
0.0000

> <Gold.PLP.Chemscore.Metal>
0.0000

> <Gold.Chemscore.Hbonds>
donor molecule, donor type, donor heavy atom, donor atom, acceptor molecule, acceptor atom, score
      P1  H  7997  8009       L1    12  1.00

> <Gold.PLP.Chemscore.Internal.Correction>
0.3410

> <Gold.Rescore>
     Score         DG    S(hbond)    S(metal)    S(lipo)     H(rot)  DE(clash)    DE(int)     intcor
      8.52     -13.93       0.99        0.00      89.71       2.09       0.05       5.36       ----

> <Gold.Chemscore.Fitness>
8.5217

> <Gold.Chemscore.DG>
-13.9291

> <Gold.Chemscore.ZeroCoef>
-5.4800

> <Gold.Chemscore.Hbond>
0.9910

> <Gold.Chemscore.Metal>
0.0000

> <Gold.Chemscore.Lipo>
89.7074

> <Gold.Chemscore.Internal_Hbond>
0.0000

> <Gold.Chemscore.DEClash>
0.0515

> <Gold.Chemscore.DEInternal>
5.3559

> <Gold.Chemscore.Rot>
2.0924

> <Gold.Chemscore.Internal.Correction>
   9.000000E+99

> <Gold.Chemscore.Hbonds>
donor molecule, donor type, donor heavy atom, donor atom, acceptor molecule, acceptor atom, score
      P1  H  7997  8009       L1    12  0.98

> <Gold.Chemscore.Hbond.Weighted>
-3.3100

> <Gold.Chemscore.Metal.Weighted>
-0.0000

> <Gold.Chemscore.Lipo.Weighted>
-10.4958

> <Gold.Chemscore.Internal_Hbond.Weighted>
0.0000

> <Gold.Chemscore.DEClash.Weighted>
0.0515

> <Gold.Chemscore.DEInternal.Weighted>
5.3559

> <Gold.Chemscore.Rot.Weighted>
5.3566

> <Gold.Chemscore.Internal.Correction.Weighted>
   9.000000E+99

> <Gold.Protein.RotatedTorsions>
[ 6907 6896 6895 6894 ] final -153.73 input  -60.11 | X-H torsion
[ 7974 7965 7964 7962 ] final  -47.79 input  175.53 | X-H torsion
[ 8008 7997 7996 7995 ] final -166.48 input   59.86 | X-H torsion
[ 10167 10162 10161 10158 ] final  -38.90 input  -65.29 | X-H torsion
[ 10718 10713 10712 10709 ] final   82.61 input   66.30 | X-H torsion
[ 10763 10752 10751 10750 ] final  -16.57 input  -60.55 | X-H torsion
[ 11005 11000 10999 10996 ] final  124.22 input  -57.11 | X-H torsion

> <Gold.Protein.ActiveResidues>
 VAL166  LYS551  ARG553  GLY616  TRP617  ASP618  TYR619  PRO620  LYS621  CYS622 
 ASP623  PHE694  ASN695  SER759  ASP760  ASP761  ALA762  ILE779  LEU786  VAL792 
 PHE793  MET794  SER795  GLU796  ALA797  LYS798  CYS799  TRP800  GLU811  SER814 

> <Gold.Protein.RotatedAtoms>
  151.2469  133.4370  159.2609 H   0  0  0  0  0  0  0  0  0  0  0  0  # atno 6907 bound_to 6896
  151.0653  134.9764  159.8291 H   0  0  0  0  0  0  0  0  0  0  0  0  # atno 6908 bound_to 6896
  152.5404  134.2417  159.8917 H   0  0  0  0  0  0  0  0  0  0  0  0  # atno 6909 bound_to 6896
  145.9579  140.7508  142.9472 H   0  0  0  0  0  0  0  0  0  0  0  0  # atno 7974 bound_to 7965
  155.8644  140.0983  157.1592 H   0  0  0  0  0  0  0  0  0  0  0  0  # atno 8008 bound_to 7997
  154.3992  140.1359  156.4063 H   0  0  0  0  0  0  0  0  0  0  0  0  # atno 8009 bound_to 7997
  155.7820  140.3458  155.5305 H   0  0  0  0  0  0  0  0  0  0  0  0  # atno 8010 bound_to 7997
  140.7079  143.3248  151.2706 H   0  0  0  0  0  0  0  0  0  0  0  0  # atno 10167 bound_to 10162
  157.6861  131.0055  150.2400 H   0  0  0  0  0  0  0  0  0  0  0  0  # atno 10718 bound_to 10713
  153.5605  135.7010  153.5549 H   0  0  0  0  0  0  0  0  0  0  0  0  # atno 10763 bound_to 10752
  153.3433  135.4015  155.1589 H   0  0  0  0  0  0  0  0  0  0  0  0  # atno 10764 bound_to 10752
  154.8648  135.3747  154.5122 H   0  0  0  0  0  0  0  0  0  0  0  0  # atno 10765 bound_to 10752
  139.9349  134.9640  156.8377 H   0  0  0  0  0  0  0  0  0  0  0  0  # atno 11005 bound_to 11000
  144.6809  140.2542  143.7327 LP  0  0  0  0  0  0  0  0  0  0  0  0  # atno 17320 bound_to 7965
  145.8081  139.1992  143.2009 LP  0  0  0  0  0  0  0  0  0  0  0  0  # atno 17321 bound_to 7965
  139.6713  144.0015  152.2754 LP  0  0  0  0  0  0  0  0  0  0  0  0  # atno 17342 bound_to 10162
  139.9615  144.6555  150.8075 LP  0  0  0  0  0  0  0  0  0  0  0  0  # atno 17343 bound_to 10162
  156.3017  130.3759  149.7744 LP  0  0  0  0  0  0  0  0  0  0  0  0  # atno 17370 bound_to 10713
  156.5373  130.8284  151.3257 LP  0  0  0  0  0  0  0  0  0  0  0  0  # atno 17371 bound_to 10713
  140.6103  134.0088  155.7574 LP  0  0  0  0  0  0  0  0  0  0  0  0  # atno 17394 bound_to 11000
  141.0957  133.9847  157.3164 LP  0  0  0  0  0  0  0  0  0  0  0  0  # atno 17395 bound_to 11000

$$$$
