AV-unprocessed.smi:2831|AV-procd|sdf|10910|dock2
  -GOLD-   2272015353D 1   1.00000     0.00000
 Structure written by MMmdl.
 29 30  0  0  0  0  0  0  0  0  2 V2000
  148.9813  141.1155  154.9681 C   0  0  0  0  0  0  0  0  0  0  0  0
  149.8759  139.9290  154.8554 C   0  0  0  0  0  0  0  0  0  0  0  0
  151.2029  140.0096  154.9793 N   0  0  0  0  0  0  0  0  0  0  0  0
  151.8175  138.7742  154.8327 N   0  0  0  0  0  0  0  0  0  0  0  0
  150.9502  137.7813  154.5890 C   0  0  0  0  0  0  0  0  0  0  0  0
  151.3415  136.5077  154.4170 N   0  5  0  0  0  0  0  0  0  0  0  0
  150.6643  135.5049  155.0213 C   0  0  0  0  0  0  0  0  0  0  0  0
  150.8975  135.0430  156.1401 O   0  0  0  0  0  0  0  0  0  0  0  0
  149.6609  135.0125  154.2748 N   0  0  0  0  0  0  0  0  0  0  0  0
  148.7102  133.9341  154.5820 C   0  0  1  0  0  0  0  0  0  0  0  0
  147.9227  134.3589  155.8356 C   0  0  0  0  0  0  0  0  0  0  0  0
  147.7456  133.6259  153.4228 C   0  0  0  0  0  0  0  0  0  0  0  0
  148.0606  132.1797  153.0444 C   0  0  0  0  0  0  0  0  0  0  0  0
  148.5447  131.6206  154.2531 O   0  0  0  0  0  0  0  0  0  0  0  0
  149.4167  132.5833  154.8249 C   0  0  0  0  0  0  0  0  0  0  0  0
  149.2691  138.3114  154.5454 S   0  0  0  0  0  0  0  0  0  0  0  0
  148.9796  141.6709  154.0301 H   0  0  0  0  0  0  0  0  0  0  0  0
  149.3244  141.7737  155.7668 H   0  0  0  0  0  0  0  0  0  0  0  0
  147.9619  140.8004  155.1914 H   0  0  0  0  0  0  0  0  0  0  0  0
  149.5397  135.4480  153.3723 H   0  0  0  0  0  0  0  0  0  0  0  0
  147.2136  133.5885  156.1406 H   0  0  0  0  0  0  0  0  0  0  0  0
  147.3588  135.2754  155.6567 H   0  0  0  0  0  0  0  0  0  0  0  0
  148.5894  134.5422  156.6791 H   0  0  0  0  0  0  0  0  0  0  0  0
  146.7086  133.6901  153.7551 H   0  0  0  0  0  0  0  0  0  0  0  0
  147.8418  134.2991  152.5702 H   0  0  0  0  0  0  0  0  0  0  0  0
  147.1879  131.6422  152.6735 H   0  0  0  0  0  0  0  0  0  0  0  0
  148.8402  132.1329  152.2826 H   0  0  0  0  0  0  0  0  0  0  0  0
  150.3808  132.5155  154.3195 H   0  0  0  0  0  0  0  0  0  0  0  0
  149.5910  132.3754  155.8810 H   0  0  0  0  0  0  0  0  0  0  0  0
  1  2  1  0  0  0  0
  1 17  1  0  0  0  0
  1 18  1  0  0  0  0
  1 19  1  0  0  0  0
  2 16  1  0  0  0  0
  2  3  2  0  0  0  0
  3  4  1  0  0  0  0
  4  5  2  0  0  0  0
  5  6  1  0  0  0  0
  5 16  1  0  0  0  0
  6  7  1  0  0  0  0
  7  8  2  0  0  0  0
  7  9  1  0  0  0  0
  9 10  1  0  0  0  0
  9 20  1  0  0  0  0
 10 15  1  0  0  0  0
 10 11  1  0  0  0  0
 10 12  1  0  0  0  0
 11 21  1  0  0  0  0
 11 22  1  0  0  0  0
 11 23  1  0  0  0  0
 12 13  1  0  0  0  0
 12 24  1  0  0  0  0
 12 25  1  0  0  0  0
 13 14  1  0  0  0  0
 13 26  1  0  0  0  0
 13 27  1  0  0  0  0
 14 15  1  0  0  0  0
 15 28  1  0  0  0  0
 15 29  1  0  0  0  0
M  CHG  1   6  -1
M  END
> <s_m_source_file>
AV-unprocessed.smi

> <i_m_source_file_index>
2831

> <i_lp_mmshare_version>
43012

> <i_f3d_flags>
0

> <s_epik_input>
W0NIM11jMW5uYyhzMSlbTkhdQyg9TylbTkhdW0NAQF0yKFtDSDNdKVtDSDJdW0NIMl1PW0NIMl0y

> <s_epik_cmdline>
J2VwaWtfcHl0aG9uJywgJy1waCcsICc3LjAnLCAnLXRuJywgJzgnLCAnLW1hJywgJzIwMCcsICctbWV0YWxfYmluZGluZycsICctaW1hZScsICc8aW5maWxlLm1hZT4nLCAnLW9tYWUnLCAnPG91dGZpbGUubWFlPic=

> <r_lp_tautomer_probability>
1

> <r_epik_Ionization_Penalty>
3.33648

> <r_epik_Ionization_Penalty_Charging>
3.18522

> <r_epik_Ionization_Penalty_Neutral>
0.151254

> <r_epik_State_Penalty>
3.18248

> <r_epik_Charging_Adjusted_Penalty>
6.3677

> <i_epik_Tot_Q>
-1

> <i_epik_Tot_abs_Q>
1

> <r_epik_Metal_State_Penalty>
0.469716

> <b_epik_Metal_Only>
1

> <s_lp_Force_Field>
OPLS_2005

> <r_lp_Energy>
14.581

> <b_lp_Chiralities_Consistent>
1

> <s_lp_Variant>
AV-unprocessed.smi:2831-3

> <Gold.Version>
5.8.1

> <Gold.Id.Protein>
6NUR|6NUR_protein|mol2

> <Gold.PLP.Fitness>
33.2972

> <Gold.PLP.PLP>
-23.9563

> <Gold.PLP.part.hbond>
-3.0367

> <Gold.PLP.part.metal>
0.0000

> <Gold.PLP.part.buried>
-4.7541

> <Gold.PLP.part.nonpolar>
-18.3903

> <Gold.PLP.part.repulsive>
0.7859

> <Gold.PLP.ligand.clash>
0.0000

> <Gold.PLP.ligand.torsion>
1.1119

> <Gold.PLP.Chemscore.Hbond>
3.8500

> <Gold.PLP.Chemscore.CHOScore>
0.0000

> <Gold.PLP.Chemscore.Metal>
0.0000

> <Gold.Chemscore.Hbonds>
donor molecule, donor type, donor heavy atom, donor atom, acceptor molecule, acceptor atom, score
      L1  H     9    20       P1  7948  0.65
      P1  H  7989  7998       L1     3  1.00
      P1  H 10752 10763       L1     6  1.50

> <Gold.PLP.Chemscore.Internal.Correction>
0.0147

> <Gold.Rescore>
     Score         DG    S(hbond)    S(metal)    S(lipo)     H(rot)  DE(clash)    DE(int)     intcor
     10.66     -11.98       1.40        0.00      37.59       1.00       0.03       1.28       ----

> <Gold.Chemscore.Fitness>
10.6641

> <Gold.Chemscore.DG>
-11.9800

> <Gold.Chemscore.ZeroCoef>
-5.4800

> <Gold.Chemscore.Hbond>
1.3957

> <Gold.Chemscore.Metal>
0.0000

> <Gold.Chemscore.Lipo>
37.5918

> <Gold.Chemscore.Internal_Hbond>
0.0000

> <Gold.Chemscore.DEClash>
0.0314

> <Gold.Chemscore.DEInternal>
1.2846

> <Gold.Chemscore.Rot>
1.0000

> <Gold.Chemscore.Internal.Correction>
   9.000000E+99

> <Gold.Chemscore.Hbonds>
donor molecule, donor type, donor heavy atom, donor atom, acceptor molecule, acceptor atom, score
      L1  H     9    20       P1  7948  0.06
      P1  H  7989  7998       L1     3  0.16
      P1  H 10752 10763       L1     6  0.09

> <Gold.Chemscore.Hbond.Weighted>
-4.6618

> <Gold.Chemscore.Metal.Weighted>
-0.0000

> <Gold.Chemscore.Lipo.Weighted>
-4.3982

> <Gold.Chemscore.Internal_Hbond.Weighted>
0.0000

> <Gold.Chemscore.DEClash.Weighted>
0.0314

> <Gold.Chemscore.DEInternal.Weighted>
1.2846

> <Gold.Chemscore.Rot.Weighted>
2.5600

> <Gold.Chemscore.Internal.Correction.Weighted>
   9.000000E+99

> <Gold.Protein.RotatedTorsions>
[ 6907 6896 6895 6894 ] final  121.93 input  -60.11 | X-H torsion
[ 7974 7965 7964 7962 ] final   39.75 input  175.53 | X-H torsion
[ 8008 7997 7996 7995 ] final   54.08 input   59.86 | X-H torsion
[ 10167 10162 10161 10158 ] final  178.47 input  -65.29 | X-H torsion
[ 10718 10713 10712 10709 ] final  175.62 input   66.30 | X-H torsion
[ 10763 10752 10751 10750 ] final   48.52 input  -60.55 | X-H torsion
[ 11005 11000 10999 10996 ] final  -13.86 input  -57.11 | X-H torsion

> <Gold.Protein.ActiveResidues>
 VAL166  LYS551  ARG553  GLY616  TRP617  ASP618  TYR619  PRO620  LYS621  CYS622 
 ASP623  PHE694  ASN695  SER759  ASP760  ASP761  ALA762  ILE779  LEU786  VAL792 
 PHE793  MET794  SER795  GLU796  ALA797  LYS798  CYS799  TRP800  GLU811  SER814 

> <Gold.Protein.RotatedAtoms>
  152.4283  133.7233  159.6545 H   0  0  0  0  0  0  0  0  0  0  0  0  # atno 6907 bound_to 6896
  150.8161  133.8325  159.3166 H   0  0  0  0  0  0  0  0  0  0  0  0  # atno 6908 bound_to 6896
  151.6021  135.1048  160.0114 H   0  0  0  0  0  0  0  0  0  0  0  0  # atno 6909 bound_to 6896
  146.0959  139.5614  142.9445 H   0  0  0  0  0  0  0  0  0  0  0  0  # atno 7974 bound_to 7965
  155.4788  140.3467  155.4336 H   0  0  0  0  0  0  0  0  0  0  0  0  # atno 8008 bound_to 7997
  156.1052  140.1446  156.9442 H   0  0  0  0  0  0  0  0  0  0  0  0  # atno 8009 bound_to 7997
  154.4720  140.0898  156.7146 H   0  0  0  0  0  0  0  0  0  0  0  0  # atno 8010 bound_to 7997
  139.5295  144.2676  152.0655 H   0  0  0  0  0  0  0  0  0  0  0  0  # atno 10167 bound_to 10162
  156.9322  130.9974  151.2985 H   0  0  0  0  0  0  0  0  0  0  0  0  # atno 10718 bound_to 10713
  152.9791  135.5941  154.3940 H   0  0  0  0  0  0  0  0  0  0  0  0  # atno 10763 bound_to 10752
  154.3592  135.2767  155.2331 H   0  0  0  0  0  0  0  0  0  0  0  0  # atno 10764 bound_to 10752
  154.4335  135.6030  153.6139 H   0  0  0  0  0  0  0  0  0  0  0  0  # atno 10765 bound_to 10752
  140.7805  133.8367  155.9287 H   0  0  0  0  0  0  0  0  0  0  0  0  # atno 11005 bound_to 11000
  145.5949  141.0364  143.2050 LP  0  0  0  0  0  0  0  0  0  0  0  0  # atno 17320 bound_to 7965
  144.7395  139.7489  143.7316 LP  0  0  0  0  0  0  0  0  0  0  0  0  # atno 17321 bound_to 7965
  140.2138  144.4536  150.6373 LP  0  0  0  0  0  0  0  0  0  0  0  0  # atno 17342 bound_to 10162
  140.6463  143.2214  151.6178 LP  0  0  0  0  0  0  0  0  0  0  0  0  # atno 17343 bound_to 10162
  157.5839  130.8396  149.8562 LP  0  0  0  0  0  0  0  0  0  0  0  0  # atno 17370 bound_to 10713
  156.0442  130.3732  150.1359 LP  0  0  0  0  0  0  0  0  0  0  0  0  # atno 17371 bound_to 10713
  140.9487  134.1807  157.4744 LP  0  0  0  0  0  0  0  0  0  0  0  0  # atno 17394 bound_to 11000
  139.8743  134.9901  156.5485 LP  0  0  0  0  0  0  0  0  0  0  0  0  # atno 17395 bound_to 11000

$$$$
