AV-unprocessed.smi:1149|AV-procd|sdf|4891|dock5
  -GOLD-   22720 3463D 1   1.00000     0.00000
 Structure written by MMmdl.
 51 52  0  0  0  0  0  0  0  0  2 V2000
  154.0659  140.3094  160.9289 C   0  0  0  0  0  0  0  0  0  0  0  0
  153.9021  141.6416  160.4552 O   0  0  0  0  0  0  0  0  0  0  0  0
  152.8603  141.9052  159.5895 C   0  0  0  0  0  0  0  0  0  0  0  0
  152.6629  143.2308  159.1549 C   0  0  0  0  0  0  0  0  0  0  0  0
  151.6021  143.5082  158.2717 C   0  0  0  0  0  0  0  0  0  0  0  0
  150.7735  142.4439  157.8420 C   0  0  0  0  0  0  0  0  0  0  0  0
  149.6621  142.5908  156.9681 N   0  0  0  0  0  0  0  0  0  0  0  0
  148.6543  141.7320  156.7372 C   0  0  0  0  0  0  0  0  0  0  0  0
  148.5078  140.6392  157.2835 O   0  0  0  0  0  0  0  0  0  0  0  0
  147.7915  142.2298  155.8394 N   0  0  0  0  0  0  0  0  0  0  0  0
  146.5784  141.5642  155.3647 C   0  0  0  0  0  0  0  0  0  0  0  0
  145.2992  142.4474  155.4824 C   0  0  0  0  0  0  0  0  0  0  0  0
  145.2653  143.1734  156.8513 C   0  0  0  0  0  0  0  0  0  0  0  0
  145.3373  143.5633  154.4083 C   0  0  0  0  0  0  0  0  0  0  0  0
  144.0469  141.6239  155.3154 N   0  3  0  0  0  0  0  0  0  0  0  0
  142.7587  142.3525  155.5003 C   0  0  0  0  0  0  0  0  0  0  0  0
  141.5646  141.4675  155.0856 C   0  0  0  0  0  0  0  0  0  0  0  0
  141.5208  140.2101  155.8303 N   0  0  0  0  0  0  0  0  0  0  0  0
  141.1379  140.3834  157.2276 C   0  0  0  0  0  0  0  0  0  0  0  0
  142.7856  139.4955  155.6611 C   0  0  0  0  0  0  0  0  0  0  0  0
  144.0006  140.3474  156.0849 C   0  0  0  0  0  0  0  0  0  0  0  0
  151.0481  141.1556  158.3459 C   0  0  0  0  0  0  0  0  0  0  0  0
  152.0628  140.8830  159.1927 N   0  0  0  0  0  0  0  0  0  0  0  0
  154.9285  140.2664  161.5935 H   0  0  0  0  0  0  0  0  0  0  0  0
  154.2457  139.6130  160.1085 H   0  0  0  0  0  0  0  0  0  0  0  0
  153.1948  139.9779  161.4959 H   0  0  0  0  0  0  0  0  0  0  0  0
  153.3117  144.0236  159.4972 H   0  0  0  0  0  0  0  0  0  0  0  0
  151.4415  144.5274  157.9572 H   0  0  0  0  0  0  0  0  0  0  0  0
  149.6016  143.4820  156.4978 H   0  0  0  0  0  0  0  0  0  0  0  0
  147.9907  143.1393  155.4488 H   0  0  0  0  0  0  0  0  0  0  0  0
  146.7666  141.3040  154.3237 H   0  0  0  0  0  0  0  0  0  0  0  0
  146.4501  140.6161  155.8878 H   0  0  0  0  0  0  0  0  0  0  0  0
  146.0355  143.9419  156.9226 H   0  0  0  0  0  0  0  0  0  0  0  0
  145.4410  142.4940  157.6853 H   0  0  0  0  0  0  0  0  0  0  0  0
  144.3079  143.6693  157.0158 H   0  0  0  0  0  0  0  0  0  0  0  0
  146.1176  144.2964  154.6166 H   0  0  0  0  0  0  0  0  0  0  0  0
  144.3926  144.1068  154.3652 H   0  0  0  0  0  0  0  0  0  0  0  0
  145.5481  143.1753  153.4122 H   0  0  0  0  0  0  0  0  0  0  0  0
  142.6473  142.6859  156.5315 H   0  0  0  0  0  0  0  0  0  0  0  0
  142.7190  143.2457  154.8804 H   0  0  0  0  0  0  0  0  0  0  0  0
  140.6263  142.0060  155.2238 H   0  0  0  0  0  0  0  0  0  0  0  0
  141.6334  141.2386  154.0211 H   0  0  0  0  0  0  0  0  0  0  0  0
  141.0653  139.4141  157.7214 H   0  0  0  0  0  0  0  0  0  0  0  0
  140.1594  140.8607  157.2930 H   0  0  0  0  0  0  0  0  0  0  0  0
  141.8471  140.9931  157.7861 H   0  0  0  0  0  0  0  0  0  0  0  0
  142.7571  138.5648  156.2291 H   0  0  0  0  0  0  0  0  0  0  0  0
  142.8869  139.2122  154.6125 H   0  0  0  0  0  0  0  0  0  0  0  0
  144.8904  139.7483  155.9037 H   0  0  0  0  0  0  0  0  0  0  0  0
  143.9704  140.5422  157.1566 H   0  0  0  0  0  0  0  0  0  0  0  0
  150.4370  140.3128  158.0576 H   0  0  0  0  0  0  0  0  0  0  0  0
  144.0522  141.3458  154.3444 H   0  0  0  0  0  0  0  0  0  0  0  0
  1  2  1  0  0  0  0
  1 24  1  0  0  0  0
  1 25  1  0  0  0  0
  1 26  1  0  0  0  0
  2  3  1  0  0  0  0
  3 23  1  0  0  0  0
  3  4  2  0  0  0  0
  4  5  1  0  0  0  0
  4 27  1  0  0  0  0
  5  6  2  0  0  0  0
  5 28  1  0  0  0  0
  6  7  1  0  0  0  0
  6 22  1  0  0  0  0
  7  8  1  0  0  0  0
  7 29  1  0  0  0  0
  8  9  2  0  0  0  0
  8 10  1  0  0  0  0
 10 11  1  0  0  0  0
 10 30  1  0  0  0  0
 11 12  1  0  0  0  0
 11 31  1  0  0  0  0
 11 32  1  0  0  0  0
 12 13  1  0  0  0  0
 12 14  1  0  0  0  0
 12 15  1  0  0  0  0
 13 33  1  0  0  0  0
 13 34  1  0  0  0  0
 13 35  1  0  0  0  0
 14 36  1  0  0  0  0
 14 37  1  0  0  0  0
 14 38  1  0  0  0  0
 15 21  1  0  0  0  0
 15 16  1  0  0  0  0
 15 51  1  0  0  0  0
 16 17  1  0  0  0  0
 16 39  1  0  0  0  0
 16 40  1  0  0  0  0
 17 18  1  0  0  0  0
 17 41  1  0  0  0  0
 17 42  1  0  0  0  0
 18 19  1  0  0  0  0
 18 20  1  0  0  0  0
 19 43  1  0  0  0  0
 19 44  1  0  0  0  0
 19 45  1  0  0  0  0
 20 21  1  0  0  0  0
 20 46  1  0  0  0  0
 20 47  1  0  0  0  0
 21 48  1  0  0  0  0
 21 49  1  0  0  0  0
 22 23  2  0  0  0  0
 22 50  1  0  0  0  0
M  CHG  1  15   1
M  END
> <s_m_source_file>
AV-unprocessed.smi

> <i_m_source_file_index>
1149

> <i_lp_mmshare_version>
43012

> <i_f3d_flags>
0

> <s_epik_input>
W0NIM11PYzFbY0hdW2NIXWMoW2NIXW4xKVtOSF1DKD1PKVtOSF1bQ0gyXUMoW0NIM10pKFtDSDNdKU4yW0NIMl1bQ0gyXU4oW0NIM10pW0NIMl1bQ0gyXTI=

> <s_epik_cmdline>
J2VwaWtfcHl0aG9uJywgJy1waCcsICc3LjAnLCAnLXRuJywgJzgnLCAnLW1hJywgJzIwMCcsICctbWV0YWxfYmluZGluZycsICctaW1hZScsICc8aW5maWxlLm1hZT4nLCAnLW9tYWUnLCAnPG91dGZpbGUubWFlPic=

> <r_epik_Ionization_Penalty>
0.0907124

> <r_epik_Ionization_Penalty_Charging>
0.0886444

> <r_epik_Ionization_Penalty_Neutral>
0.00206799

> <r_epik_State_Penalty>
1.00524

> <r_epik_Charging_Adjusted_Penalty>
1.09388

> <i_epik_Tot_Q>
1

> <i_epik_Tot_abs_Q>
1

> <r_epik_Metal_State_Penalty>
1.00525

> <b_epik_Metal_Only>
0

> <s_lp_Force_Field>
OPLS_2005

> <r_lp_Energy>
30.5246

> <b_lp_Chiralities_Consistent>
1

> <s_lp_Variant>
AV-unprocessed.smi:1149-2

> <Gold.Version>
5.8.1

> <Gold.Id.Protein>
6NUR|6NUR_protein|mol2

> <Gold.PLP.Fitness>
44.0639

> <Gold.PLP.PLP>
-33.5218

> <Gold.PLP.part.hbond>
-3.0000

> <Gold.PLP.part.metal>
0.0000

> <Gold.PLP.part.buried>
-3.0706

> <Gold.PLP.part.nonpolar>
-26.8666

> <Gold.PLP.part.repulsive>
0.2052

> <Gold.PLP.ligand.clash>
0.0000

> <Gold.PLP.ligand.torsion>
0.4042

> <Gold.PLP.Chemscore.Hbond>
3.7440

> <Gold.PLP.Chemscore.CHOScore>
0.0000

> <Gold.PLP.Chemscore.Metal>
0.0000

> <Gold.Chemscore.Hbonds>
donor molecule, donor type, donor heavy atom, donor atom, acceptor molecule, acceptor atom, score
      L1  H     7    29       P1  8028  1.00
      L1  H    10    30       P1  8028  0.94
      L1  H    15    51       P1 10175  1.89

> <Gold.PLP.Chemscore.Internal.Correction>
0.1185

> <Gold.Rescore>
     Score         DG    S(hbond)    S(metal)    S(lipo)     H(rot)  DE(clash)    DE(int)     intcor
     15.80     -17.91       2.73        0.00      66.09       1.72       0.00       2.11       ----

> <Gold.Chemscore.Fitness>
15.8029

> <Gold.Chemscore.DG>
-17.9116

> <Gold.Chemscore.ZeroCoef>
-5.4800

> <Gold.Chemscore.Hbond>
2.7263

> <Gold.Chemscore.Metal>
0.0000

> <Gold.Chemscore.Lipo>
66.0873

> <Gold.Chemscore.Internal_Hbond>
0.0000

> <Gold.Chemscore.DEClash>
0.0015

> <Gold.Chemscore.DEInternal>
2.1072

> <Gold.Chemscore.Rot>
1.7213

> <Gold.Chemscore.Internal.Correction>
   9.000000E+99

> <Gold.Chemscore.Hbonds>
donor molecule, donor type, donor heavy atom, donor atom, acceptor molecule, acceptor atom, score
      L1  H     7    29       P1  8028  0.99
      L1  H    10    30       P1  8028  0.68
      L1  H    15    51       P1 10175  0.45

> <Gold.Chemscore.Hbond.Weighted>
-9.1059

> <Gold.Chemscore.Metal.Weighted>
-0.0000

> <Gold.Chemscore.Lipo.Weighted>
-7.7322

> <Gold.Chemscore.Internal_Hbond.Weighted>
0.0000

> <Gold.Chemscore.DEClash.Weighted>
0.0015

> <Gold.Chemscore.DEInternal.Weighted>
2.1072

> <Gold.Chemscore.Rot.Weighted>
4.4066

> <Gold.Chemscore.Internal.Correction.Weighted>
   9.000000E+99

> <Gold.Protein.RotatedTorsions>
[ 6907 6896 6895 6894 ] final  -50.42 input  -60.11 | X-H torsion
[ 7974 7965 7964 7962 ] final -120.21 input  175.53 | X-H torsion
[ 8008 7997 7996 7995 ] final   40.72 input   59.86 | X-H torsion
[ 10167 10162 10161 10158 ] final -167.24 input  -65.29 | X-H torsion
[ 10718 10713 10712 10709 ] final -138.73 input   66.30 | X-H torsion
[ 10763 10752 10751 10750 ] final  156.46 input  -60.55 | X-H torsion
[ 11005 11000 10999 10996 ] final   64.70 input  -57.11 | X-H torsion

> <Gold.Protein.ActiveResidues>
 VAL166  LYS551  ARG553  GLY616  TRP617  ASP618  TYR619  PRO620  LYS621  CYS622 
 ASP623  PHE694  ASN695  SER759  ASP760  ASP761  ALA762  ILE779  LEU786  VAL792 
 PHE793  MET794  SER795  GLU796  ALA797  LYS798  CYS799  TRP800  GLU811  SER814 

> <Gold.Protein.RotatedAtoms>
  150.8709  134.8082  159.7153 H   0  0  0  0  0  0  0  0  0  0  0  0  # atno 6907 bound_to 6896
  152.4713  134.4949  159.9716 H   0  0  0  0  0  0  0  0  0  0  0  0  # atno 6908 bound_to 6896
  151.5038  133.3460  159.2909 H   0  0  0  0  0  0  0  0  0  0  0  0  # atno 6909 bound_to 6896
  145.0539  140.8239  143.4193 H   0  0  0  0  0  0  0  0  0  0  0  0  # atno 7974 bound_to 7965
  155.2577  140.3357  155.4276 H   0  0  0  0  0  0  0  0  0  0  0  0  # atno 8008 bound_to 7997
  156.2188  140.1800  156.7569 H   0  0  0  0  0  0  0  0  0  0  0  0  # atno 8009 bound_to 7997
  154.5794  140.0656  156.9066 H   0  0  0  0  0  0  0  0  0  0  0  0  # atno 8010 bound_to 7997
  139.6062  144.0908  152.1795 H   0  0  0  0  0  0  0  0  0  0  0  0  # atno 10167 bound_to 10162
  156.3027  130.7437  151.1493 H   0  0  0  0  0  0  0  0  0  0  0  0  # atno 10718 bound_to 10713
  154.1847  135.2798  155.3041 H   0  0  0  0  0  0  0  0  0  0  0  0  # atno 10763 bound_to 10752
  154.5976  135.5540  153.7344 H   0  0  0  0  0  0  0  0  0  0  0  0  # atno 10764 bound_to 10752
  153.0128  135.6383  154.1985 H   0  0  0  0  0  0  0  0  0  0  0  0  # atno 10765 bound_to 10752
  139.9942  134.6544  156.0039 H   0  0  0  0  0  0  0  0  0  0  0  0  # atno 11005 bound_to 11000
  145.1493  139.2524  143.5449 LP  0  0  0  0  0  0  0  0  0  0  0  0  # atno 17320 bound_to 7965
  146.3520  140.1191  142.8601 LP  0  0  0  0  0  0  0  0  0  0  0  0  # atno 17321 bound_to 7965
  140.0515  144.5928  150.7332 LP  0  0  0  0  0  0  0  0  0  0  0  0  # atno 17342 bound_to 10162
  140.7286  143.2664  151.4031 LP  0  0  0  0  0  0  0  0  0  0  0  0  # atno 17343 bound_to 10162
  157.7372  131.0554  150.5370 LP  0  0  0  0  0  0  0  0  0  0  0  0  # atno 17370 bound_to 10713
  156.5500  130.4229  149.6112 LP  0  0  0  0  0  0  0  0  0  0  0  0  # atno 17371 bound_to 10713
  141.1590  133.6540  156.4257 LP  0  0  0  0  0  0  0  0  0  0  0  0  # atno 17394 bound_to 11000
  140.4851  134.6628  157.5187 LP  0  0  0  0  0  0  0  0  0  0  0  0  # atno 17395 bound_to 11000

$$$$
