AV-unprocessed.smi:1292|AV-procd|sdf|5398|dock4
  -GOLD-   22720 4553D 1   1.00000     0.00000
 Structure written by MMmdl.
 39 40  0  0  0  0  0  0  0  0  2 V2000
  151.6007  144.8540  158.7845 C   0  0  0  0  0  0  0  0  0  0  0  0
  152.3992  143.5451  158.7078 C   0  0  1  0  0  0  0  0  0  0  0  0
  152.8729  143.0954  160.0966 C   0  0  0  0  0  0  0  0  0  0  0  0
  153.6694  141.7949  159.9684 C   0  0  0  0  0  0  0  0  0  0  0  0
  152.8399  140.7025  159.2774 C   0  0  0  0  0  0  0  0  0  0  0  0
  152.3346  141.1573  157.9625 N   0  0  0  0  0  0  0  0  0  0  0  0
  151.7497  139.9458  156.8600 S   0  0  0  0  0  0  0  0  0  0  0  0
  151.2532  140.6765  155.6827 O   0  0  0  0  0  0  0  0  0  0  0  0
  152.8564  138.9962  156.6567 O   0  0  0  0  0  0  0  0  0  0  0  0
  150.5681  139.3562  157.8039 N   0  5  0  0  0  0  0  0  0  0  0  0
  149.1784  139.6050  157.4534 C   0  0  0  0  0  0  0  0  0  0  0  0
  148.9063  141.1174  157.2623 C   0  0  0  0  0  0  0  0  0  0  0  0
  148.0509  141.4916  156.0543 C   0  0  0  0  0  0  0  0  0  0  0  0
  146.8297  142.1852  156.2194 C   0  0  0  0  0  0  0  0  0  0  0  0
  146.0824  142.5171  155.0732 C   0  0  0  0  0  0  0  0  0  0  0  0
  146.5739  142.1395  153.8091 C   0  0  0  0  0  0  0  0  0  0  0  0
  147.7958  141.4410  153.7476 C   0  0  0  0  0  0  0  0  0  0  0  0
  148.5184  141.1141  154.8396 N   0  0  0  0  0  0  0  0  0  0  0  0
  151.5835  142.4285  158.0254 C   0  0  0  0  0  0  0  0  0  0  0  0
  150.6985  144.7328  159.3851 H   0  0  0  0  0  0  0  0  0  0  0  0
  151.2976  145.1872  157.7915 H   0  0  0  0  0  0  0  0  0  0  0  0
  152.1953  145.6508  159.2321 H   0  0  0  0  0  0  0  0  0  0  0  0
  153.2820  143.7353  158.0951 H   0  0  0  0  0  0  0  0  0  0  0  0
  153.4926  143.8664  160.5556 H   0  0  0  0  0  0  0  0  0  0  0  0
  152.0174  142.9434  160.7559 H   0  0  0  0  0  0  0  0  0  0  0  0
  154.5812  141.9755  159.3973 H   0  0  0  0  0  0  0  0  0  0  0  0
  153.9848  141.4526  160.9543 H   0  0  0  0  0  0  0  0  0  0  0  0
  153.4523  139.8090  159.1625 H   0  0  0  0  0  0  0  0  0  0  0  0
  151.9916  140.4196  159.9017 H   0  0  0  0  0  0  0  0  0  0  0  0
  148.9273  139.0970  156.5220 H   0  0  0  0  0  0  0  0  0  0  0  0
  148.4833  139.2047  158.1925 H   0  0  0  0  0  0  0  0  0  0  0  0
  148.4454  141.5230  158.1644 H   0  0  0  0  0  0  0  0  0  0  0  0
  149.8611  141.6352  157.1657 H   0  0  0  0  0  0  0  0  0  0  0  0
  146.4816  142.4676  157.2018 H   0  0  0  0  0  0  0  0  0  0  0  0
  145.1497  143.0541  155.1621 H   0  0  0  0  0  0  0  0  0  0  0  0
  146.0289  142.3797  152.9084 H   0  0  0  0  0  0  0  0  0  0  0  0
  148.2021  141.1336  152.7953 H   0  0  0  0  0  0  0  0  0  0  0  0
  150.6453  142.2567  158.5546 H   0  0  0  0  0  0  0  0  0  0  0  0
  151.3225  142.7501  157.0176 H   0  0  0  0  0  0  0  0  0  0  0  0
  1  2  1  0  0  0  0
  1 20  1  0  0  0  0
  1 21  1  0  0  0  0
  1 22  1  0  0  0  0
  2 19  1  0  0  0  0
  2  3  1  0  0  0  0
  2 23  1  0  0  0  0
  3  4  1  0  0  0  0
  3 24  1  0  0  0  0
  3 25  1  0  0  0  0
  4  5  1  0  0  0  0
  4 26  1  0  0  0  0
  4 27  1  0  0  0  0
  5  6  1  0  0  0  0
  5 28  1  0  0  0  0
  5 29  1  0  0  0  0
  6  7  1  0  0  0  0
  6 19  1  0  0  0  0
  7  8  2  0  0  0  0
  7  9  2  0  0  0  0
  7 10  1  0  0  0  0
 10 11  1  0  0  0  0
 11 12  1  0  0  0  0
 11 30  1  0  0  0  0
 11 31  1  0  0  0  0
 12 13  1  0  0  0  0
 12 32  1  0  0  0  0
 12 33  1  0  0  0  0
 13 18  1  0  0  0  0
 13 14  2  0  0  0  0
 14 15  1  0  0  0  0
 14 34  1  0  0  0  0
 15 16  2  0  0  0  0
 15 35  1  0  0  0  0
 16 17  1  0  0  0  0
 16 36  1  0  0  0  0
 17 18  2  0  0  0  0
 17 37  1  0  0  0  0
 19 38  1  0  0  0  0
 19 39  1  0  0  0  0
M  CHG  1  10  -1
M  END
> <s_m_source_file>
AV-unprocessed.smi

> <i_m_source_file_index>
1292

> <i_lp_mmshare_version>
43012

> <i_f3d_flags>
0

> <s_epik_input>
W0NIM11bQ0BASF0xW0NIMl1bQ0gyXVtDSDJdTihbQ0gyXTEpUyg9TykoPU8pW05IXVtDSDJdW0NIMl1jMltjSF1bY0hdW2NIXVtjSF1uMg==

> <s_epik_cmdline>
J2VwaWtfcHl0aG9uJywgJy1waCcsICc3LjAnLCAnLXRuJywgJzgnLCAnLW1hJywgJzIwMCcsICctbWV0YWxfYmluZGluZycsICctaW1hZScsICc8aW5maWxlLm1hZT4nLCAnLW9tYWUnLCAnPG91dGZpbGUubWFlPic=

> <r_epik_Ionization_Penalty>
2.02944

> <r_epik_Ionization_Penalty_Charging>
1.95606

> <r_epik_Ionization_Penalty_Neutral>
0.0733799

> <r_epik_State_Penalty>
2.47711

> <r_epik_Charging_Adjusted_Penalty>
4.43317

> <i_epik_Tot_Q>
-1

> <i_epik_Tot_abs_Q>
1

> <r_epik_Metal_State_Penalty>
0.729901

> <b_epik_Metal_Only>
0

> <s_lp_Force_Field>
OPLS_2005

> <r_lp_Energy>
9.691

> <b_lp_Chiralities_Consistent>
1

> <s_lp_Variant>
AV-unprocessed.smi:1292-4

> <Gold.Version>
5.8.1

> <Gold.Id.Protein>
6NUR|6NUR_protein|mol2

> <Gold.PLP.Fitness>
44.2138

> <Gold.PLP.PLP>
-37.1968

> <Gold.PLP.part.hbond>
-2.0598

> <Gold.PLP.part.metal>
0.0000

> <Gold.PLP.part.buried>
-2.8236

> <Gold.PLP.part.nonpolar>
-29.7952

> <Gold.PLP.part.repulsive>
0.1580

> <Gold.PLP.ligand.clash>
0.0000

> <Gold.PLP.ligand.torsion>
1.2664

> <Gold.PLP.Chemscore.Hbond>
1.6490

> <Gold.PLP.Chemscore.CHOScore>
1.0000

> <Gold.PLP.Chemscore.Metal>
0.0000

> <Gold.Chemscore.Hbonds>
donor molecule, donor type, donor heavy atom, donor atom, acceptor molecule, acceptor atom, score
      P1  H  7989  7998       L1     8  0.42
      P1  H  7997  8009       L1     9  1.00
      L1  C    17    37       P1  7957  1.00

> <Gold.PLP.Chemscore.Internal.Correction>
1.6028

> <Gold.Rescore>
     Score         DG    S(hbond)    S(metal)    S(lipo)     H(rot)  DE(clash)    DE(int)     intcor
     13.71     -17.79       1.32        0.00      98.68       1.42       0.10       3.98       ----

> <Gold.Chemscore.Fitness>
13.7141

> <Gold.Chemscore.DG>
-17.7915

> <Gold.Chemscore.ZeroCoef>
-5.4800

> <Gold.Chemscore.Hbond>
1.3188

> <Gold.Chemscore.Metal>
0.0000

> <Gold.Chemscore.Lipo>
98.6824

> <Gold.Chemscore.Internal_Hbond>
0.0000

> <Gold.Chemscore.DEClash>
0.0951

> <Gold.Chemscore.DEInternal>
3.9823

> <Gold.Chemscore.Rot>
1.4216

> <Gold.Chemscore.Internal.Correction>
   9.000000E+99

> <Gold.Chemscore.Hbonds>
donor molecule, donor type, donor heavy atom, donor atom, acceptor molecule, acceptor atom, score
      P1  H  7989  7998       L1     8  0.42
      P1  H  7997  8009       L1     9  0.50

> <Gold.Chemscore.Hbond.Weighted>
-4.4048

> <Gold.Chemscore.Metal.Weighted>
-0.0000

> <Gold.Chemscore.Lipo.Weighted>
-11.5458

> <Gold.Chemscore.Internal_Hbond.Weighted>
0.0000

> <Gold.Chemscore.DEClash.Weighted>
0.0951

> <Gold.Chemscore.DEInternal.Weighted>
3.9823

> <Gold.Chemscore.Rot.Weighted>
3.6392

> <Gold.Chemscore.Internal.Correction.Weighted>
   9.000000E+99

> <Gold.Protein.RotatedTorsions>
[ 6907 6896 6895 6894 ] final -148.36 input  -60.11 | X-H torsion
[ 7974 7965 7964 7962 ] final  178.90 input  175.53 | X-H torsion
[ 8008 7997 7996 7995 ] final  175.96 input   59.86 | X-H torsion
[ 10167 10162 10161 10158 ] final  105.97 input  -65.29 | X-H torsion
[ 10718 10713 10712 10709 ] final  106.49 input   66.30 | X-H torsion
[ 10763 10752 10751 10750 ] final  109.18 input  -60.55 | X-H torsion
[ 11005 11000 10999 10996 ] final  136.30 input  -57.11 | X-H torsion

> <Gold.Protein.ActiveResidues>
 VAL166  LYS551  ARG553  GLY616  TRP617  ASP618  TYR619  PRO620  LYS621  CYS622 
 ASP623  PHE694  ASN695  SER759  ASP760  ASP761  ALA762  ILE779  LEU786  VAL792 
 PHE793  MET794  SER795  GLU796  ALA797  LYS798  CYS799  TRP800  GLU811  SER814 

> <Gold.Protein.RotatedAtoms>
  151.1687  133.4798  159.2593 H   0  0  0  0  0  0  0  0  0  0  0  0  # atno 6907 bound_to 6896
  151.1378  135.0164  159.8622 H   0  0  0  0  0  0  0  0  0  0  0  0  # atno 6908 bound_to 6896
  152.5462  134.1584  159.8600 H   0  0  0  0  0  0  0  0  0  0  0  0  # atno 6909 bound_to 6896
  144.7151  140.0467  143.6436 H   0  0  0  0  0  0  0  0  0  0  0  0  # atno 7974 bound_to 7965
  156.0815  140.1395  156.9706 H   0  0  0  0  0  0  0  0  0  0  0  0  # atno 8008 bound_to 7997
  154.4588  140.0951  156.6883 H   0  0  0  0  0  0  0  0  0  0  0  0  # atno 8009 bound_to 7997
  155.5067  140.3452  155.4383 H   0  0  0  0  0  0  0  0  0  0  0  0  # atno 8010 bound_to 7997
  139.7048  144.7088  151.1125 H   0  0  0  0  0  0  0  0  0  0  0  0  # atno 10167 bound_to 10162
  157.6666  131.0852  150.6014 H   0  0  0  0  0  0  0  0  0  0  0  0  # atno 10718 bound_to 10713
  153.4311  135.3788  155.2171 H   0  0  0  0  0  0  0  0  0  0  0  0  # atno 10763 bound_to 10752
  154.8750  135.3840  154.4267 H   0  0  0  0  0  0  0  0  0  0  0  0  # atno 10764 bound_to 10752
  153.4799  135.7088  153.6007 H   0  0  0  0  0  0  0  0  0  0  0  0  # atno 10765 bound_to 10752
  140.0037  134.9468  157.0127 H   0  0  0  0  0  0  0  0  0  0  0  0  # atno 11005 bound_to 11000
  145.9978  139.3066  143.0946 LP  0  0  0  0  0  0  0  0  0  0  0  0  # atno 17320 bound_to 7965
  145.8829  140.9352  143.0592 LP  0  0  0  0  0  0  0  0  0  0  0  0  # atno 17321 bound_to 7965
  140.7719  143.5374  150.9352 LP  0  0  0  0  0  0  0  0  0  0  0  0  # atno 17342 bound_to 10162
  139.9057  143.6781  152.3124 LP  0  0  0  0  0  0  0  0  0  0  0  0  # atno 17343 bound_to 10162
  156.6315  130.4433  149.5785 LP  0  0  0  0  0  0  0  0  0  0  0  0  # atno 17370 bound_to 10713
  156.2279  130.6776  151.1434 LP  0  0  0  0  0  0  0  0  0  0  0  0  # atno 17371 bound_to 10713
  140.4681  134.1414  155.7199 LP  0  0  0  0  0  0  0  0  0  0  0  0  # atno 17394 bound_to 11000
  141.1661  133.8701  157.1711 LP  0  0  0  0  0  0  0  0  0  0  0  0  # atno 17395 bound_to 11000

$$$$
