AV-unprocessed.smi:2226|AV-procd|sdf|9013|dock3
  -GOLD-   2272012213D 1   1.00000     0.00000
 Structure written by MMmdl.
 40 42  0  0  0  0  0  0  0  0  2 V2000
  147.0807  139.9847  152.2310 C   0  0  0  0  0  0  0  0  0  0  0  0
  146.5229  140.6372  153.4396 N   0  3  2  0  0  0  0  0  0  0  0  0
  147.1777  141.9123  153.8169 C   0  0  2  0  0  0  0  0  0  0  0  0
  148.6106  141.6751  154.3572 C   0  0  0  0  0  0  0  0  0  0  0  0
  148.6991  140.6160  155.4712 C   0  0  0  0  0  0  0  0  0  0  0  0
  147.7950  139.3986  155.2078 C   0  0  0  0  0  0  0  0  0  0  0  0
  146.4045  139.7559  154.6258 C   0  0  1  0  0  0  0  0  0  0  0  0
  145.4139  140.3900  155.6303 C   0  0  0  0  0  0  0  0  0  0  0  0
  145.6353  141.8970  155.9380 C   0  0  1  0  0  0  0  0  0  0  0  0
  146.3785  142.1244  157.1750 N   0  0  0  0  0  0  0  0  0  0  0  0
  145.8742  142.5636  158.3384 C   0  0  0  0  0  0  0  0  0  0  0  0
  144.6749  142.8296  158.4655 O   0  0  0  0  0  0  0  0  0  0  0  0
  146.8774  142.6268  159.2945 N   0  0  0  0  0  0  0  0  0  0  0  0
  147.1226  143.7466  159.9034 C   0  0  0  0  0  0  0  0  0  0  0  0
  146.5524  145.0146  159.8253 N   0  0  0  0  0  0  0  0  0  0  0  0
  147.2056  145.8309  160.7057 C   0  0  0  0  0  0  0  0  0  0  0  0
  148.1447  145.1128  161.3140 C   0  0  0  0  0  0  0  0  0  0  0  0
  148.1172  143.8337  160.8446 O   0  0  0  0  0  0  0  0  0  0  0  0
  146.2381  142.7019  154.7582 C   0  0  0  0  0  0  0  0  0  0  0  0
  148.1139  139.6685  152.3711 H   0  0  0  0  0  0  0  0  0  0  0  0
  147.0495  140.6681  151.3820 H   0  0  0  0  0  0  0  0  0  0  0  0
  146.4919  139.1058  151.9670 H   0  0  0  0  0  0  0  0  0  0  0  0
  147.2768  142.5146  152.9124 H   0  0  0  0  0  0  0  0  0  0  0  0
  149.2463  141.3553  153.5311 H   0  0  0  0  0  0  0  0  0  0  0  0
  149.0420  142.6142  154.7051 H   0  0  0  0  0  0  0  0  0  0  0  0
  149.7325  140.2839  155.5736 H   0  0  0  0  0  0  0  0  0  0  0  0
  148.4649  141.0578  156.4336 H   0  0  0  0  0  0  0  0  0  0  0  0
  148.3073  138.7367  154.5090 H   0  0  0  0  0  0  0  0  0  0  0  0
  147.6814  138.8186  156.1243 H   0  0  0  0  0  0  0  0  0  0  0  0
  145.9484  138.8201  154.2991 H   0  0  0  0  0  0  0  0  0  0  0  0
  144.4184  140.2982  155.1932 H   0  0  0  0  0  0  0  0  0  0  0  0
  145.3720  139.7986  156.5456 H   0  0  0  0  0  0  0  0  0  0  0  0
  144.6503  142.3308  156.1215 H   0  0  0  0  0  0  0  0  0  0  0  0
  147.3683  141.9256  157.1484 H   0  0  0  0  0  0  0  0  0  0  0  0
  145.7927  145.3240  159.2359 H   0  0  0  0  0  0  0  0  0  0  0  0
  146.9202  146.8678  160.8053 H   0  0  0  0  0  0  0  0  0  0  0  0
  148.8790  145.3541  162.0685 H   0  0  0  0  0  0  0  0  0  0  0  0
  146.7272  143.6096  155.1147 H   0  0  0  0  0  0  0  0  0  0  0  0
  145.4030  143.0524  154.1496 H   0  0  0  0  0  0  0  0  0  0  0  0
  145.5764  140.8808  153.1847 H   0  0  0  0  0  0  0  0  0  0  0  0
  1  2  1  0  0  0  0
  1 20  1  0  0  0  0
  1 21  1  0  0  0  0
  1 22  1  0  0  0  0
  2  7  1  0  0  0  0
  2  3  1  0  0  0  0
  2 40  1  0  0  0  0
  3 19  1  0  0  0  0
  3  4  1  0  0  0  0
  3 23  1  0  0  0  0
  4  5  1  0  0  0  0
  4 24  1  0  0  0  0
  4 25  1  0  0  0  0
  5  6  1  0  0  0  0
  5 26  1  0  0  0  0
  5 27  1  0  0  0  0
  6  7  1  0  0  0  0
  6 28  1  0  0  0  0
  6 29  1  0  0  0  0
  7  8  1  0  0  0  0
  7 30  1  0  0  0  0
  8  9  1  0  0  0  0
  8 31  1  0  0  0  0
  8 32  1  0  0  0  0
  9 10  1  0  0  0  0
  9 19  1  0  0  0  0
  9 33  1  0  0  0  0
 10 34  1  0  0  0  0
 10 11  1  0  0  0  0
 11 13  1  0  0  0  0
 11 12  2  0  0  0  0
 13 14  2  0  0  0  0
 14 18  1  0  0  0  0
 14 15  1  0  0  0  0
 15 35  1  0  0  0  0
 15 16  1  0  0  0  0
 16 36  1  0  0  0  0
 16 17  2  0  0  0  0
 17 37  1  0  0  0  0
 17 18  1  0  0  0  0
 19 38  1  0  0  0  0
 19 39  1  0  0  0  0
M  CHG  1   2   1
M  END
> <s_m_source_file>
AV-unprocessed.smi

> <i_m_source_file_index>
2226

> <i_lp_mmshare_version>
43012

> <i_f3d_flags>
0

> <s_epik_input>
W0NIMl0xW0NIMl1bQ0gyXVtDQEhdKE4oW0NIM10pW0NIXTEyKVtDSDJdW0NASF0oW0NIMl0yKVtOSF1DKD1PKVtOSF1jM25bY0hdW2NIXW8z

> <s_epik_cmdline>
J2VwaWtfcHl0aG9uJywgJy1waCcsICc3LjAnLCAnLXRuJywgJzgnLCAnLW1hJywgJzIwMCcsICctbWV0YWxfYmluZGluZycsICctaW1hZScsICc8aW5maWxlLm1hZT4nLCAnLW9tYWUnLCAnPG91dGZpbGUubWFlPic=

> <r_lp_tautomer_probability>
0.107061

> <r_epik_Ionization_Penalty>
1.08307

> <r_epik_Ionization_Penalty_Charging>
1.08272

> <r_epik_Ionization_Penalty_Neutral>
0.000345913

> <r_epik_State_Penalty>
2.5744

> <r_epik_Charging_Adjusted_Penalty>
3.65713

> <i_epik_Tot_Q>
1

> <i_epik_Tot_abs_Q>
1

> <r_epik_Metal_State_Penalty>
3.72133

> <b_epik_Metal_Only>
0

> <s_lp_Force_Field>
OPLS_2005

> <r_lp_Energy>
59.8025

> <b_lp_Chiralities_Consistent>
1

> <s_lp_Variant>
AV-unprocessed.smi:2226-13

> <Gold.Version>
5.8.1

> <Gold.Id.Protein>
6NUR|6NUR_protein|mol2

> <Gold.PLP.Fitness>
37.6108

> <Gold.PLP.PLP>
-28.0581

> <Gold.PLP.part.hbond>
-3.5620

> <Gold.PLP.part.metal>
0.0000

> <Gold.PLP.part.buried>
-2.7649

> <Gold.PLP.part.nonpolar>
-22.3422

> <Gold.PLP.part.repulsive>
0.2831

> <Gold.PLP.ligand.clash>
0.0000

> <Gold.PLP.ligand.torsion>
0.6229

> <Gold.PLP.Chemscore.Hbond>
3.5824

> <Gold.PLP.Chemscore.CHOScore>
0.0000

> <Gold.PLP.Chemscore.Metal>
0.0000

> <Gold.Chemscore.Hbonds>
donor molecule, donor type, donor heavy atom, donor atom, acceptor molecule, acceptor atom, score
      L1  H     2    40       P1 10175  1.89
      P1  H  6933  6944       L1    18  1.00
      P1  H  6934  6946       L1    13  0.37

> <Gold.PLP.Chemscore.Internal.Correction>
0.0513

> <Gold.Rescore>
     Score         DG    S(hbond)    S(metal)    S(lipo)     H(rot)  DE(clash)    DE(int)     intcor
     16.51     -17.35       2.59        0.00      49.41       1.00       0.26       0.58       ----

> <Gold.Chemscore.Fitness>
16.5088

> <Gold.Chemscore.DG>
-17.3489

> <Gold.Chemscore.ZeroCoef>
-5.4800

> <Gold.Chemscore.Hbond>
2.5893

> <Gold.Chemscore.Metal>
0.0000

> <Gold.Chemscore.Lipo>
49.4067

> <Gold.Chemscore.Internal_Hbond>
0.0000

> <Gold.Chemscore.DEClash>
0.2566

> <Gold.Chemscore.DEInternal>
0.5835

> <Gold.Chemscore.Rot>
1.0000

> <Gold.Chemscore.Internal.Correction>
   9.000000E+99

> <Gold.Chemscore.Hbonds>
donor molecule, donor type, donor heavy atom, donor atom, acceptor molecule, acceptor atom, score
      L1  H     2    40       P1 10175  0.49
      P1  H  6933  6944       L1    18  0.81
      P1  H  6934  6946       L1    13  0.27

> <Gold.Chemscore.Hbond.Weighted>
-8.6483

> <Gold.Chemscore.Metal.Weighted>
-0.0000

> <Gold.Chemscore.Lipo.Weighted>
-5.7806

> <Gold.Chemscore.Internal_Hbond.Weighted>
0.0000

> <Gold.Chemscore.DEClash.Weighted>
0.2566

> <Gold.Chemscore.DEInternal.Weighted>
0.5835

> <Gold.Chemscore.Rot.Weighted>
2.5600

> <Gold.Chemscore.Internal.Correction.Weighted>
   9.000000E+99

> <Gold.Protein.RotatedTorsions>
[ 6907 6896 6895 6894 ] final  -47.22 input  -60.11 | X-H torsion
[ 7974 7965 7964 7962 ] final  -43.28 input  175.53 | X-H torsion
[ 8008 7997 7996 7995 ] final -130.92 input   59.86 | X-H torsion
[ 10167 10162 10161 10158 ] final   37.04 input  -65.29 | X-H torsion
[ 10718 10713 10712 10709 ] final   39.43 input   66.30 | X-H torsion
[ 10763 10752 10751 10750 ] final  159.53 input  -60.55 | X-H torsion
[ 11005 11000 10999 10996 ] final -170.44 input  -57.11 | X-H torsion

> <Gold.Protein.ActiveResidues>
 VAL166  LYS551  ARG553  GLY616  TRP617  ASP618  TYR619  PRO620  LYS621  CYS622 
 ASP623  PHE694  ASN695  SER759  ASP760  ASP761  ALA762  ILE779  LEU786  VAL792 
 PHE793  MET794  SER795  GLU796  ALA797  LYS798  CYS799  TRP800  GLU811  SER814 

> <Gold.Protein.RotatedAtoms>
  150.9030  134.8443  159.7372 H   0  0  0  0  0  0  0  0  0  0  0  0  # atno 6907 bound_to 6896
  152.4903  134.4474  159.9573 H   0  0  0  0  0  0  0  0  0  0  0  0  # atno 6908 bound_to 6896
  151.4523  133.3575  159.2832 H   0  0  0  0  0  0  0  0  0  0  0  0  # atno 6909 bound_to 6896
  146.0034  140.7048  142.9259 H   0  0  0  0  0  0  0  0  0  0  0  0  # atno 7974 bound_to 7965
  155.3038  140.0454  157.3031 H   0  0  0  0  0  0  0  0  0  0  0  0  # atno 8008 bound_to 7997
  154.5471  140.2306  155.8512 H   0  0  0  0  0  0  0  0  0  0  0  0  # atno 8009 bound_to 7997
  156.1934  140.3044  155.9385 H   0  0  0  0  0  0  0  0  0  0  0  0  # atno 8010 bound_to 7997
  140.4071  144.1644  150.6137 H   0  0  0  0  0  0  0  0  0  0  0  0  # atno 10167 bound_to 10162
  157.3705  130.7699  149.7115 H   0  0  0  0  0  0  0  0  0  0  0  0  # atno 10718 bound_to 10713
  154.2333  135.2777  155.2882 H   0  0  0  0  0  0  0  0  0  0  0  0  # atno 10763 bound_to 10752
  154.5606  135.5648  153.7007 H   0  0  0  0  0  0  0  0  0  0  0  0  # atno 10764 bound_to 10752
  153.0015  135.6297  154.2475 H   0  0  0  0  0  0  0  0  0  0  0  0  # atno 10765 bound_to 10752
  140.5195  134.5723  157.5043 H   0  0  0  0  0  0  0  0  0  0  0  0  # atno 11005 bound_to 11000
  144.6927  140.3272  143.7222 LP  0  0  0  0  0  0  0  0  0  0  0  0  # atno 17320 bound_to 7965
  145.7453  139.1777  143.2352 LP  0  0  0  0  0  0  0  0  0  0  0  0  # atno 17321 bound_to 7965
  140.4678  143.2424  151.9131 LP  0  0  0  0  0  0  0  0  0  0  0  0  # atno 17342 bound_to 10162
  139.4783  144.5401  151.8541 LP  0  0  0  0  0  0  0  0  0  0  0  0  # atno 17343 bound_to 10162
  155.9754  130.4088  150.3848 LP  0  0  0  0  0  0  0  0  0  0  0  0  # atno 17370 bound_to 10713
  157.1938  131.0421  151.2686 LP  0  0  0  0  0  0  0  0  0  0  0  0  # atno 17371 bound_to 10713
  139.9614  134.7446  156.0229 LP  0  0  0  0  0  0  0  0  0  0  0  0  # atno 17394 bound_to 11000
  141.1342  133.6579  156.3548 LP  0  0  0  0  0  0  0  0  0  0  0  0  # atno 17395 bound_to 11000

$$$$
