AV-unprocessed.smi:2426|AV-procd|sdf|9576|dock10
  -GOLD-   2272013213D 1   1.00000     0.00000
 Structure written by MMmdl.
 36 37  0  0  0  0  0  0  0  0  1 V2000
  146.8819  140.0892  153.0415 C   0  0  0  0  0  0  0  0  0  0  0  0
  147.7480  139.0340  153.4434 O   0  0  0  0  0  0  0  0  0  0  0  0
  148.9049  139.3625  154.1188 C   0  0  0  0  0  0  0  0  0  0  0  0
  148.9722  140.5836  154.8205 C   0  0  0  0  0  0  0  0  0  0  0  0
  150.1752  140.8818  155.4989 C   0  0  0  0  0  0  0  0  0  0  0  0
  150.2007  142.1200  156.1934 N   0  0  0  0  0  0  0  0  0  0  0  0
  151.0093  142.4885  157.2026 C   0  0  0  0  0  0  0  0  0  0  0  0
  151.8912  141.7881  157.7006 O   0  0  0  0  0  0  0  0  0  0  0  0
  150.7343  143.7357  157.6120 N   0  0  0  0  0  0  0  0  0  0  0  0
  151.4240  144.4487  158.6836 C   0  0  2  0  0  0  0  0  0  0  0  0
  152.7942  144.9453  158.1950 C   0  0  0  0  0  0  0  0  0  0  0  0
  151.5453  143.5296  159.8979 C   0  0  0  0  0  0  0  0  0  0  0  0
  151.7802  144.1280  161.2936 C   0  0  0  0  0  0  0  0  0  0  0  0
  152.6349  142.9014  161.6249 C   0  0  0  0  0  0  0  0  0  0  0  0
  152.8253  142.7084  160.1179 C   0  0  0  0  0  0  0  0  0  0  0  0
  151.2095  140.0058  155.4584 N   0  0  0  0  0  0  0  0  0  0  0  0
  151.0461  138.8770  154.7664 C   0  0  0  0  0  0  0  0  0  0  0  0
  149.9548  138.5064  154.0958 N   0  0  0  0  0  0  0  0  0  0  0  0
  146.0192  139.6709  152.5235 H   0  0  0  0  0  0  0  0  0  0  0  0
  147.3799  140.7745  152.3541 H   0  0  0  0  0  0  0  0  0  0  0  0
  146.5120  140.6499  153.9010 H   0  0  0  0  0  0  0  0  0  0  0  0
  148.1310  141.2611  154.8339 H   0  0  0  0  0  0  0  0  0  0  0  0
  149.5245  142.8037  155.8874 H   0  0  0  0  0  0  0  0  0  0  0  0
  149.9910  144.2348  157.1457 H   0  0  0  0  0  0  0  0  0  0  0  0
  150.8292  145.3197  158.9653 H   0  0  0  0  0  0  0  0  0  0  0  0
  153.3162  145.4928  158.9799 H   0  0  0  0  0  0  0  0  0  0  0  0
  152.6912  145.6175  157.3426 H   0  0  0  0  0  0  0  0  0  0  0  0
  153.4308  144.1145  157.8891 H   0  0  0  0  0  0  0  0  0  0  0  0
  150.6914  142.8503  159.9531 H   0  0  0  0  0  0  0  0  0  0  0  0
  152.3617  145.0510  161.2674 H   0  0  0  0  0  0  0  0  0  0  0  0
  150.8811  144.2366  161.9010 H   0  0  0  0  0  0  0  0  0  0  0  0
  153.5495  143.1168  162.1782 H   0  0  0  0  0  0  0  0  0  0  0  0
  152.0603  142.0962  162.0857 H   0  0  0  0  0  0  0  0  0  0  0  0
  152.7668  141.6739  159.7782 H   0  0  0  0  0  0  0  0  0  0  0  0
  153.7195  143.2065  159.7395 H   0  0  0  0  0  0  0  0  0  0  0  0
  151.8829  138.1947  154.7471 H   0  0  0  0  0  0  0  0  0  0  0  0
  1  2  1  0  0  0  0
  1 19  1  0  0  0  0
  1 20  1  0  0  0  0
  1 21  1  0  0  0  0
  2  3  1  0  0  0  0
  3 18  1  0  0  0  0
  3  4  2  0  0  0  0
  4  5  1  0  0  0  0
  4 22  1  0  0  0  0
  5  6  1  0  0  0  0
  5 16  2  0  0  0  0
  6  7  1  0  0  0  0
  6 23  1  0  0  0  0
  7  8  2  0  0  0  0
  7  9  1  0  0  0  0
  9 10  1  0  0  0  0
  9 24  1  0  0  0  0
 10 11  1  0  0  0  0
 10 12  1  0  0  0  0
 10 25  1  0  0  0  0
 11 26  1  0  0  0  0
 11 27  1  0  0  0  0
 11 28  1  0  0  0  0
 12 15  1  0  0  0  0
 12 13  1  0  0  0  0
 12 29  1  0  0  0  0
 13 14  1  0  0  0  0
 13 30  1  0  0  0  0
 13 31  1  0  0  0  0
 14 15  1  0  0  0  0
 14 32  1  0  0  0  0
 14 33  1  0  0  0  0
 15 34  1  0  0  0  0
 15 35  1  0  0  0  0
 16 17  1  0  0  0  0
 17 18  2  0  0  0  0
 17 36  1  0  0  0  0
M  END
> <s_m_source_file>
AV-unprocessed.smi

> <i_m_source_file_index>
2426

> <i_lp_mmshare_version>
43012

> <i_f3d_flags>
0

> <s_epik_input>
W0NIM11PYzFbY0hdYyhuW2NIXW4xKVtOSF1DKD1PKVtOSF1bQ0BIXShbQ0gzXSlbQ0hdMltDSDJdW0NIMl1bQ0gyXTI=

> <s_epik_cmdline>
J2VwaWtfcHl0aG9uJywgJy1waCcsICc3LjAnLCAnLXRuJywgJzgnLCAnLW1hJywgJzIwMCcsICctbWV0YWxfYmluZGluZycsICctaW1hZScsICc8aW5maWxlLm1hZT4nLCAnLW9tYWUnLCAnPG91dGZpbGUubWFlPic=

> <r_lp_tautomer_probability>
1

> <r_epik_Ionization_Penalty>
2.84534e-05

> <r_epik_Ionization_Penalty_Charging>
0

> <r_epik_Ionization_Penalty_Neutral>
2.84534e-05

> <r_epik_State_Penalty>
-0

> <r_epik_Charging_Adjusted_Penalty>
0

> <i_epik_Tot_Q>
0

> <i_epik_Tot_abs_Q>
0

> <r_epik_Metal_State_Penalty>
-0

> <b_epik_Metal_Only>
0

> <s_lp_Force_Field>
OPLS_2005

> <r_lp_Energy>
12.1235

> <b_lp_Chiralities_Consistent>
1

> <s_lp_Variant>
AV-unprocessed.smi:2426-1

> <Gold.Version>
5.8.1

> <Gold.Id.Protein>
6NUR|6NUR_protein|mol2

> <Gold.PLP.Fitness>
44.2699

> <Gold.PLP.PLP>
-40.5027

> <Gold.PLP.part.hbond>
-2.7563

> <Gold.PLP.part.metal>
0.0000

> <Gold.PLP.part.buried>
-4.4256

> <Gold.PLP.part.nonpolar>
-34.7316

> <Gold.PLP.part.repulsive>
0.8202

> <Gold.PLP.ligand.clash>
0.0000

> <Gold.PLP.ligand.torsion>
1.2392

> <Gold.PLP.Chemscore.Hbond>
2.0410

> <Gold.PLP.Chemscore.CHOScore>
0.0000

> <Gold.PLP.Chemscore.Metal>
0.0000

> <Gold.Chemscore.Hbonds>
donor molecule, donor type, donor heavy atom, donor atom, acceptor molecule, acceptor atom, score
      L1  H     6    23       P1  8028  0.99
      L1  H     9    24       P1  8028  1.00
      P1  H  7989  7998       L1    16  0.04

> <Gold.PLP.Chemscore.Internal.Correction>
0.1227

> <Gold.Rescore>
     Score         DG    S(hbond)    S(metal)    S(lipo)     H(rot)  DE(clash)    DE(int)     intcor
     13.01     -18.43       1.89        0.00      91.70       1.60       0.64       4.78       ----

> <Gold.Chemscore.Fitness>
13.0101

> <Gold.Chemscore.DG>
-18.4323

> <Gold.Chemscore.ZeroCoef>
-5.4800

> <Gold.Chemscore.Hbond>
1.8898

> <Gold.Chemscore.Metal>
0.0000

> <Gold.Chemscore.Lipo>
91.7002

> <Gold.Chemscore.Internal_Hbond>
0.0000

> <Gold.Chemscore.DEClash>
0.6378

> <Gold.Chemscore.DEInternal>
4.7844

> <Gold.Chemscore.Rot>
1.5971

> <Gold.Chemscore.Internal.Correction>
   9.000000E+99

> <Gold.Chemscore.Hbonds>
donor molecule, donor type, donor heavy atom, donor atom, acceptor molecule, acceptor atom, score
      L1  H     6    23       P1  8028  0.89
      L1  H     9    24       P1  8028  0.69

> <Gold.Chemscore.Hbond.Weighted>
-6.3120

> <Gold.Chemscore.Metal.Weighted>
-0.0000

> <Gold.Chemscore.Lipo.Weighted>
-10.7289

> <Gold.Chemscore.Internal_Hbond.Weighted>
0.0000

> <Gold.Chemscore.DEClash.Weighted>
0.6378

> <Gold.Chemscore.DEInternal.Weighted>
4.7844

> <Gold.Chemscore.Rot.Weighted>
4.0886

> <Gold.Chemscore.Internal.Correction.Weighted>
   9.000000E+99

> <Gold.Protein.RotatedTorsions>
[ 6907 6896 6895 6894 ] final -172.44 input  -60.11 | X-H torsion
[ 7974 7965 7964 7962 ] final   46.39 input  175.53 | X-H torsion
[ 8008 7997 7996 7995 ] final -118.24 input   59.86 | X-H torsion
[ 10167 10162 10161 10158 ] final   44.01 input  -65.29 | X-H torsion
[ 10718 10713 10712 10709 ] final -152.15 input   66.30 | X-H torsion
[ 10763 10752 10751 10750 ] final  117.94 input  -60.55 | X-H torsion
[ 11005 11000 10999 10996 ] final   27.71 input  -57.11 | X-H torsion

> <Gold.Protein.ActiveResidues>
 VAL166  LYS551  ARG553  GLY616  TRP617  ASP618  TYR619  PRO620  LYS621  CYS622 
 ASP623  PHE694  ASN695  SER759  ASP760  ASP761  ALA762  ILE779  LEU786  VAL792 
 PHE793  MET794  SER795  GLU796  ALA797  LYS798  CYS799  TRP800  GLU811  SER814 

> <Gold.Protein.RotatedAtoms>
  151.5400  133.3434  159.2933 H   0  0  0  0  0  0  0  0  0  0  0  0  # atno 6907 bound_to 6896
  150.8542  134.7878  159.7043 H   0  0  0  0  0  0  0  0  0  0  0  0  # atno 6908 bound_to 6896
  152.4580  134.5257  159.9847 H   0  0  0  0  0  0  0  0  0  0  0  0  # atno 6909 bound_to 6896
  146.0394  139.4861  142.9788 H   0  0  0  0  0  0  0  0  0  0  0  0  # atno 7974 bound_to 7965
  155.0965  140.0395  157.2684 H   0  0  0  0  0  0  0  0  0  0  0  0  # atno 8008 bound_to 7997
  154.6791  140.2629  155.6902 H   0  0  0  0  0  0  0  0  0  0  0  0  # atno 8009 bound_to 7997
  156.2688  140.2782  156.1328 H   0  0  0  0  0  0  0  0  0  0  0  0  # atno 8010 bound_to 7997
  140.3386  144.2499  150.6158 H   0  0  0  0  0  0  0  0  0  0  0  0  # atno 10167 bound_to 10162
  156.4686  130.8248  151.2477 H   0  0  0  0  0  0  0  0  0  0  0  0  # atno 10718 bound_to 10713
  153.5601  135.3522  155.2795 H   0  0  0  0  0  0  0  0  0  0  0  0  # atno 10763 bound_to 10752
  154.8696  135.4134  154.2840 H   0  0  0  0  0  0  0  0  0  0  0  0  # atno 10764 bound_to 10752
  153.3584  135.7058  153.6801 H   0  0  0  0  0  0  0  0  0  0  0  0  # atno 10765 bound_to 10752
  140.3234  134.2518  155.7713 H   0  0  0  0  0  0  0  0  0  0  0  0  # atno 11005 bound_to 11000
  145.6910  141.0164  143.1555 LP  0  0  0  0  0  0  0  0  0  0  0  0  # atno 17320 bound_to 7965
  144.7067  139.8532  143.7427 LP  0  0  0  0  0  0  0  0  0  0  0  0  # atno 17321 bound_to 7965
  140.5330  143.2239  151.8208 LP  0  0  0  0  0  0  0  0  0  0  0  0  # atno 17342 bound_to 10162
  139.4844  144.4696  151.9441 LP  0  0  0  0  0  0  0  0  0  0  0  0  # atno 17343 bound_to 10162
  157.7493  131.0083  150.3225 LP  0  0  0  0  0  0  0  0  0  0  0  0  # atno 17370 bound_to 10713
  156.3641  130.3852  149.7227 LP  0  0  0  0  0  0  0  0  0  0  0  0  # atno 17371 bound_to 10713
  141.2081  133.7787  157.0079 LP  0  0  0  0  0  0  0  0  0  0  0  0  # atno 17394 bound_to 11000
  140.0922  134.9585  157.1794 LP  0  0  0  0  0  0  0  0  0  0  0  0  # atno 17395 bound_to 11000

$$$$
