AV-unprocessed.smi:875|AV-procd|sdf|4018|dock2
  -GOLD-   22720 1503D 1   1.00000     0.00000
 Structure written by MMmdl.
 37 38  0  0  0  0  0  0  0  0  1 V2000
  146.5151  134.6531  161.9995 C   0  0  0  0  0  0  0  0  0  0  0  0
  146.8792  135.1260  160.6730 N   0  0  0  0  0  0  0  0  0  0  0  0
  147.1029  136.4123  160.3642 C   0  0  0  0  0  0  0  0  0  0  0  0
  147.0066  137.3286  161.1805 O   0  0  0  0  0  0  0  0  0  0  0  0
  147.4809  136.7187  158.9125 C   0  0  0  0  0  0  0  0  0  0  0  0
  148.8724  137.2610  158.8211 C   0  0  0  0  0  0  0  0  0  0  0  0
  149.9155  136.5699  159.2670 N   0  0  0  0  0  0  0  0  0  0  0  0
  151.0031  137.4113  158.9919 O   0  0  0  0  0  0  0  0  0  0  0  0
  150.4795  138.5178  158.4121 C   0  0  0  0  0  0  0  0  0  0  0  0
  151.4015  139.6194  158.0045 C   0  0  0  0  0  0  0  0  0  0  0  0
  150.8808  140.8279  158.5409 O   0  0  0  0  0  0  0  0  0  0  0  0
  151.7969  141.9149  158.5450 C   0  0  0  0  0  0  0  0  0  0  0  0
  152.0405  142.4354  159.9779 C   0  0  0  0  0  0  0  0  0  0  0  0
  152.9224  143.6951  159.9741 C   0  0  0  0  0  0  0  0  0  0  0  0
  152.3237  144.7956  159.0842 C   0  0  0  0  0  0  0  0  0  0  0  0
  152.0771  144.2816  157.6571 C   0  0  0  0  0  0  0  0  0  0  0  0
  151.1933  143.0237  157.6649 C   0  0  0  0  0  0  0  0  0  0  0  0
  149.1539  138.4828  158.2888 N   0  0  0  0  0  0  0  0  0  0  0  0
  146.4229  133.5670  161.9944 H   0  0  0  0  0  0  0  0  0  0  0  0
  145.5600  135.0759  162.3133 H   0  0  0  0  0  0  0  0  0  0  0  0
  147.2756  134.9265  162.7323 H   0  0  0  0  0  0  0  0  0  0  0  0
  146.9787  134.4324  159.9452 H   0  0  0  0  0  0  0  0  0  0  0  0
  147.3985  135.8095  158.3156 H   0  0  0  0  0  0  0  0  0  0  0  0
  146.7792  137.4393  158.4899 H   0  0  0  0  0  0  0  0  0  0  0  0
  152.3988  139.4025  158.3865 H   0  0  0  0  0  0  0  0  0  0  0  0
  151.4504  139.6677  156.9157 H   0  0  0  0  0  0  0  0  0  0  0  0
  152.7431  141.6007  158.1001 H   0  0  0  0  0  0  0  0  0  0  0  0
  151.0848  142.6617  160.4525 H   0  0  0  0  0  0  0  0  0  0  0  0
  152.5166  141.6712  160.5915 H   0  0  0  0  0  0  0  0  0  0  0  0
  153.0442  144.0663  160.9920 H   0  0  0  0  0  0  0  0  0  0  0  0
  153.9209  143.4402  159.6165 H   0  0  0  0  0  0  0  0  0  0  0  0
  151.3839  145.1432  159.5155 H   0  0  0  0  0  0  0  0  0  0  0  0
  152.9900  145.6583  159.0592 H   0  0  0  0  0  0  0  0  0  0  0  0
  151.6078  145.0620  157.0575 H   0  0  0  0  0  0  0  0  0  0  0  0
  153.0311  144.0553  157.1793 H   0  0  0  0  0  0  0  0  0  0  0  0
  151.0618  142.6592  156.6455 H   0  0  0  0  0  0  0  0  0  0  0  0
  150.1985  143.2820  158.0307 H   0  0  0  0  0  0  0  0  0  0  0  0
  1  2  1  0  0  0  0
  1 19  1  0  0  0  0
  1 20  1  0  0  0  0
  1 21  1  0  0  0  0
  2  3  1  0  0  0  0
  2 22  1  0  0  0  0
  3  4  2  0  0  0  0
  3  5  1  0  0  0  0
  5  6  1  0  0  0  0
  5 23  1  0  0  0  0
  5 24  1  0  0  0  0
  6 18  1  0  0  0  0
  6  7  2  0  0  0  0
  7  8  1  0  0  0  0
  8  9  1  0  0  0  0
  9 10  1  0  0  0  0
  9 18  2  0  0  0  0
 10 11  1  0  0  0  0
 10 25  1  0  0  0  0
 10 26  1  0  0  0  0
 11 12  1  0  0  0  0
 12 17  1  0  0  0  0
 12 13  1  0  0  0  0
 12 27  1  0  0  0  0
 13 14  1  0  0  0  0
 13 28  1  0  0  0  0
 13 29  1  0  0  0  0
 14 15  1  0  0  0  0
 14 30  1  0  0  0  0
 14 31  1  0  0  0  0
 15 16  1  0  0  0  0
 15 32  1  0  0  0  0
 15 33  1  0  0  0  0
 16 17  1  0  0  0  0
 16 34  1  0  0  0  0
 16 35  1  0  0  0  0
 17 36  1  0  0  0  0
 17 37  1  0  0  0  0
M  END
> <s_m_source_file>
AV-unprocessed.smi

> <i_m_source_file_index>
875

> <i_lp_mmshare_version>
43012

> <i_f3d_flags>
0

> <s_epik_input>
W0NIM11bTkhdQyg9TylbQ0gyXWMxbm9jKG4xKVtDSDJdT1tDSF0yW0NIMl1bQ0gyXVtDSDJdW0NIMl1bQ0gyXTI=

> <s_epik_cmdline>
J2VwaWtfcHl0aG9uJywgJy1waCcsICc3LjAnLCAnLXRuJywgJzgnLCAnLW1hJywgJzIwMCcsICctbWV0YWxfYmluZGluZycsICctaW1hZScsICc8aW5maWxlLm1hZT4nLCAnLW9tYWUnLCAnPG91dGZpbGUubWFlPic=

> <r_lp_tautomer_probability>
1

> <r_epik_Ionization_Penalty>
1.02915e-07

> <r_epik_Ionization_Penalty_Charging>
0

> <r_epik_Ionization_Penalty_Neutral>
1.02915e-07

> <r_epik_State_Penalty>
-0

> <r_epik_Charging_Adjusted_Penalty>
0

> <i_epik_Tot_Q>
0

> <i_epik_Tot_abs_Q>
0

> <r_epik_Metal_State_Penalty>
-0

> <b_epik_Metal_Only>
0

> <s_lp_Force_Field>
OPLS_2005

> <r_lp_Energy>
10.4582

> <b_lp_Chiralities_Consistent>
1

> <s_lp_Variant>
AV-unprocessed.smi:875-1

> <Gold.Version>
5.8.1

> <Gold.Id.Protein>
6NUR|6NUR_protein|mol2

> <Gold.PLP.Fitness>
44.6555

> <Gold.PLP.PLP>
-38.2447

> <Gold.PLP.part.hbond>
-3.0000

> <Gold.PLP.part.metal>
0.0000

> <Gold.PLP.part.buried>
-5.5617

> <Gold.PLP.part.nonpolar>
-29.2712

> <Gold.PLP.part.repulsive>
0.0496

> <Gold.PLP.ligand.clash>
0.0000

> <Gold.PLP.ligand.torsion>
0.9268

> <Gold.PLP.Chemscore.Hbond>
2.7440

> <Gold.PLP.Chemscore.CHOScore>
0.0000

> <Gold.PLP.Chemscore.Metal>
0.0000

> <Gold.Chemscore.Hbonds>
donor molecule, donor type, donor heavy atom, donor atom, acceptor molecule, acceptor atom, score
      P1  H  6896  6907       L1     7  0.75
      P1  H  6931  6943       L1     4  0.18
      P1  H  6934  6947       L1     4  1.00

> <Gold.PLP.Chemscore.Internal.Correction>
0.0323

> <Gold.Rescore>
     Score         DG    S(hbond)    S(metal)    S(lipo)     H(rot)  DE(clash)    DE(int)     intcor
     18.25     -19.18       2.76        0.00      85.91       2.18       0.03       0.89       ----

> <Gold.Chemscore.Fitness>
18.2543

> <Gold.Chemscore.DG>
-19.1786

> <Gold.Chemscore.ZeroCoef>
-5.4800

> <Gold.Chemscore.Hbond>
2.7599

> <Gold.Chemscore.Metal>
0.0000

> <Gold.Chemscore.Lipo>
85.9123

> <Gold.Chemscore.Internal_Hbond>
0.0000

> <Gold.Chemscore.DEClash>
0.0318

> <Gold.Chemscore.DEInternal>
0.8925

> <Gold.Chemscore.Rot>
2.1763

> <Gold.Chemscore.Internal.Correction>
   9.000000E+99

> <Gold.Chemscore.Hbonds>
donor molecule, donor type, donor heavy atom, donor atom, acceptor molecule, acceptor atom, score
      P1  H  6896  6907       L1     7  0.09
      P1  H  6931  6943       L1     4  0.17
      P1  H  6934  6947       L1     4  0.99

> <Gold.Chemscore.Hbond.Weighted>
-9.2181

> <Gold.Chemscore.Metal.Weighted>
-0.0000

> <Gold.Chemscore.Lipo.Weighted>
-10.0517

> <Gold.Chemscore.Internal_Hbond.Weighted>
0.0000

> <Gold.Chemscore.DEClash.Weighted>
0.0318

> <Gold.Chemscore.DEInternal.Weighted>
0.8925

> <Gold.Chemscore.Rot.Weighted>
5.5712

> <Gold.Chemscore.Internal.Correction.Weighted>
   9.000000E+99

> <Gold.Protein.RotatedTorsions>
[ 6907 6896 6895 6894 ] final  -32.74 input  -60.11 | X-H torsion
[ 7974 7965 7964 7962 ] final   24.61 input  175.53 | X-H torsion
[ 8008 7997 7996 7995 ] final  -77.04 input   59.86 | X-H torsion
[ 10167 10162 10161 10158 ] final  161.28 input  -65.29 | X-H torsion
[ 10718 10713 10712 10709 ] final -162.08 input   66.30 | X-H torsion
[ 10763 10752 10751 10750 ] final  125.42 input  -60.55 | X-H torsion
[ 11005 11000 10999 10996 ] final -161.24 input  -57.11 | X-H torsion

> <Gold.Protein.ActiveResidues>
 VAL166  LYS551  ARG553  GLY616  TRP617  ASP618  TYR619  PRO620  LYS621  CYS622 
 ASP623  PHE694  ASN695  SER759  ASP760  ASP761  ALA762  ILE779  LEU786  VAL792 
 PHE793  MET794  SER795  GLU796  ALA797  LYS798  CYS799  TRP800  GLU811  SER814 

> <Gold.Protein.RotatedAtoms>
  151.0748  134.9821  159.8326 H   0  0  0  0  0  0  0  0  0  0  0  0  # atno 6907 bound_to 6896
  152.5413  134.2255  159.8814 H   0  0  0  0  0  0  0  0  0  0  0  0  # atno 6908 bound_to 6896
  151.2281  133.4422  159.2636 H   0  0  0  0  0  0  0  0  0  0  0  0  # atno 6909 bound_to 6896
  146.1929  139.7580  142.8818 H   0  0  0  0  0  0  0  0  0  0  0  0  # atno 7974 bound_to 7965
  154.5560  140.0717  156.8744 H   0  0  0  0  0  0  0  0  0  0  0  0  # atno 8008 bound_to 7997
  155.2901  140.3377  155.4235 H   0  0  0  0  0  0  0  0  0  0  0  0  # atno 8009 bound_to 7997
  156.2002  140.1719  156.7900 H   0  0  0  0  0  0  0  0  0  0  0  0  # atno 8010 bound_to 7997
  139.4848  144.4552  151.8778 H   0  0  0  0  0  0  0  0  0  0  0  0  # atno 10167 bound_to 10162
  156.6053  130.8828  151.2923 H   0  0  0  0  0  0  0  0  0  0  0  0  # atno 10718 bound_to 10713
  153.6771  135.3320  155.3168 H   0  0  0  0  0  0  0  0  0  0  0  0  # atno 10763 bound_to 10752
  154.8476  135.4400  154.1645 H   0  0  0  0  0  0  0  0  0  0  0  0  # atno 10764 bound_to 10752
  153.2651  135.6995  153.7614 H   0  0  0  0  0  0  0  0  0  0  0  0  # atno 10765 bound_to 10752
  140.6225  134.4735  157.5224 H   0  0  0  0  0  0  0  0  0  0  0  0  # atno 11005 bound_to 11000
  145.3736  141.0347  143.3217 LP  0  0  0  0  0  0  0  0  0  0  0  0  # atno 17320 bound_to 7965
  144.8522  139.5304  143.6851 LP  0  0  0  0  0  0  0  0  0  0  0  0  # atno 17321 bound_to 7965
  140.4011  144.2492  150.5893 LP  0  0  0  0  0  0  0  0  0  0  0  0  # atno 17342 bound_to 10162
  140.5056  143.2305  151.8613 LP  0  0  0  0  0  0  0  0  0  0  0  0  # atno 17343 bound_to 10162
  157.7269  130.9635  150.1674 LP  0  0  0  0  0  0  0  0  0  0  0  0  # atno 17370 bound_to 10713
  156.2435  130.3693  149.8311 LP  0  0  0  0  0  0  0  0  0  0  0  0  # atno 17371 bound_to 10713
  139.9147  134.8270  156.1405 LP  0  0  0  0  0  0  0  0  0  0  0  0  # atno 17394 bound_to 11000
  141.0732  133.6787  156.2183 LP  0  0  0  0  0  0  0  0  0  0  0  0  # atno 17395 bound_to 11000

$$$$
