AV-unprocessed.smi:2832|AV-procd|sdf|10912|dock8
  -GOLD-   2272015363D 1   1.00000     0.00000
 Structure written by MMmdl.
 33 33  0  0  0  0  0  0  0  0  2 V2000
  149.6635  136.7147  158.6939 C   0  0  0  0  0  0  0  0  0  0  0  0
  149.8888  137.8131  157.6495 C   0  0  0  0  0  0  0  0  0  0  0  0
  150.9957  138.8059  158.0729 C   0  0  0  0  0  0  0  0  0  0  0  0
  151.0872  140.1539  157.2883 C   0  0  1  0  0  0  0  0  0  0  0  0
  149.6654  140.7350  157.1132 C   0  0  0  0  0  0  0  0  0  0  0  0
  151.9036  141.1972  157.9341 N   0  0  0  0  0  0  0  0  0  0  0  0
  152.7707  141.1360  158.9616 C   0  0  0  0  0  0  0  0  0  0  0  0
  152.9627  140.1405  159.6585 O   0  0  0  0  0  0  0  0  0  0  0  0
  153.5399  142.4233  159.2628 C   0  0  0  0  0  0  0  0  0  0  0  0
  152.6420  143.4996  159.6455 N   0  0  0  0  0  0  0  0  0  0  0  0
  152.4553  144.7205  159.0303 C   0  0  0  0  0  0  0  0  0  0  0  0
  151.5147  145.3995  159.7506 C   0  0  0  0  0  0  0  0  0  0  0  0
  151.1787  144.4994  160.8002 C   0  0  0  0  0  0  0  0  0  0  0  0
  151.8524  143.3628  160.7334 N   0  0  0  0  0  0  0  0  0  0  0  0
  151.7178  139.8559  155.9044 C   0  0  0  0  0  0  0  0  0  0  0  0
  152.8758  139.3821  155.8774 O   0  0  0  0  0  0  0  0  0  0  0  0
  151.0407  140.1166  154.8836 O   0  5  0  0  0  0  0  0  0  0  0  0
  148.8672  136.0394  158.3804 H   0  0  0  0  0  0  0  0  0  0  0  0
  149.3803  137.1395  159.6573 H   0  0  0  0  0  0  0  0  0  0  0  0
  150.5660  136.1204  158.8395 H   0  0  0  0  0  0  0  0  0  0  0  0
  150.1331  137.3456  156.6969 H   0  0  0  0  0  0  0  0  0  0  0  0
  148.9481  138.3415  157.4958 H   0  0  0  0  0  0  0  0  0  0  0  0
  150.8482  139.0308  159.1307 H   0  0  0  0  0  0  0  0  0  0  0  0
  151.9611  138.3011  158.0422 H   0  0  0  0  0  0  0  0  0  0  0  0
  148.9843  140.0168  156.6550 H   0  0  0  0  0  0  0  0  0  0  0  0
  149.6711  141.6306  156.4900 H   0  0  0  0  0  0  0  0  0  0  0  0
  149.2355  141.0129  158.0762 H   0  0  0  0  0  0  0  0  0  0  0  0
  151.8510  142.0936  157.4713 H   0  0  0  0  0  0  0  0  0  0  0  0
  154.2476  142.2557  160.0756 H   0  0  0  0  0  0  0  0  0  0  0  0
  154.1198  142.7190  158.3868 H   0  0  0  0  0  0  0  0  0  0  0  0
  153.0050  145.0009  158.1437 H   0  0  0  0  0  0  0  0  0  0  0  0
  151.1266  146.3886  159.5579 H   0  0  0  0  0  0  0  0  0  0  0  0
  150.4693  144.6366  161.6031 H   0  0  0  0  0  0  0  0  0  0  0  0
  1  2  1  0  0  0  0
  1 18  1  0  0  0  0
  1 19  1  0  0  0  0
  1 20  1  0  0  0  0
  2  3  1  0  0  0  0
  2 21  1  0  0  0  0
  2 22  1  0  0  0  0
  3  4  1  0  0  0  0
  3 23  1  0  0  0  0
  3 24  1  0  0  0  0
  4  5  1  0  0  0  0
  4  6  1  0  0  0  0
  4 15  1  0  0  0  0
  5 25  1  0  0  0  0
  5 26  1  0  0  0  0
  5 27  1  0  0  0  0
  6  7  1  0  0  0  0
  6 28  1  0  0  0  0
  7  8  2  0  0  0  0
  7  9  1  0  0  0  0
  9 10  1  0  0  0  0
  9 29  1  0  0  0  0
  9 30  1  0  0  0  0
 10 14  1  0  0  0  0
 10 11  1  0  0  0  0
 11 12  2  0  0  0  0
 11 31  1  0  0  0  0
 12 13  1  0  0  0  0
 12 32  1  0  0  0  0
 13 14  2  0  0  0  0
 13 33  1  0  0  0  0
 15 16  2  0  0  0  0
 15 17  1  0  0  0  0
M  CHG  1  17  -1
M  END
> <s_m_source_file>
AV-unprocessed.smi

> <i_m_source_file_index>
2832

> <i_lp_mmshare_version>
43012

> <i_f3d_flags>
0

> <s_epik_input>
W0NIM11bQ0gyXVtDSDJdW0NAXShbQ0gzXSkoQyg9TylbT0hdKVtOSF1DKD1PKVtDSDJdbjFbY0hdW2NIXVtjSF1uMQ==

> <s_epik_cmdline>
J2VwaWtfcHl0aG9uJywgJy1waCcsICc3LjAnLCAnLXRuJywgJzgnLCAnLW1hJywgJzIwMCcsICctbWV0YWxfYmluZGluZycsICctaW1hZScsICc8aW5maWxlLm1hZT4nLCAnLW9tYWUnLCAnPG91dGZpbGUubWFlPic=

> <r_lp_tautomer_probability>
1

> <r_epik_Ionization_Penalty>
0.000287256

> <r_epik_Ionization_Penalty_Charging>
0.00026921

> <r_epik_Ionization_Penalty_Neutral>
1.80463e-05

> <r_epik_State_Penalty>
-0

> <r_epik_Charging_Adjusted_Penalty>
0.00026921

> <i_epik_Tot_Q>
-1

> <i_epik_Tot_abs_Q>
1

> <r_epik_Metal_State_Penalty>
-0

> <b_epik_Metal_Only>
0

> <s_lp_Force_Field>
OPLS_2005

> <r_lp_Energy>
4.0175

> <b_lp_Chiralities_Consistent>
1

> <s_lp_Variant>
AV-unprocessed.smi:2832-1

> <Gold.Version>
5.8.1

> <Gold.Id.Protein>
6NUR|6NUR_protein|mol2

> <Gold.PLP.Fitness>
42.5379

> <Gold.PLP.PLP>
-34.4310

> <Gold.PLP.part.hbond>
-2.0000

> <Gold.PLP.part.metal>
0.0000

> <Gold.PLP.part.buried>
-6.9854

> <Gold.PLP.part.nonpolar>
-25.8188

> <Gold.PLP.part.repulsive>
0.2291

> <Gold.PLP.ligand.clash>
0.0000

> <Gold.PLP.ligand.torsion>
0.4759

> <Gold.PLP.Chemscore.Hbond>
3.0000

> <Gold.PLP.Chemscore.CHOScore>
0.0000

> <Gold.PLP.Chemscore.Metal>
0.0000

> <Gold.Chemscore.Hbonds>
donor molecule, donor type, donor heavy atom, donor atom, acceptor molecule, acceptor atom, score
      P1  H  7989  7998       L1    17  1.00
      P1  H  7997  8010       L1    16  2.00

> <Gold.PLP.Chemscore.Internal.Correction>
0.0586

> <Gold.Rescore>
     Score         DG    S(hbond)    S(metal)    S(lipo)     H(rot)  DE(clash)    DE(int)     intcor
     12.06     -13.52       1.99        0.00      65.98       2.47       0.06       1.41       ----

> <Gold.Chemscore.Fitness>
12.0562

> <Gold.Chemscore.DG>
-13.5221

> <Gold.Chemscore.ZeroCoef>
-5.4800

> <Gold.Chemscore.Hbond>
1.9916

> <Gold.Chemscore.Metal>
0.0000

> <Gold.Chemscore.Lipo>
65.9810

> <Gold.Chemscore.Internal_Hbond>
0.0000

> <Gold.Chemscore.DEClash>
0.0565

> <Gold.Chemscore.DEInternal>
1.4095

> <Gold.Chemscore.Rot>
2.4726

> <Gold.Chemscore.Internal.Correction>
   9.000000E+99

> <Gold.Chemscore.Hbonds>
donor molecule, donor type, donor heavy atom, donor atom, acceptor molecule, acceptor atom, score
      P1  H  7989  7998       L1    17  1.00
      P1  H  7997  8010       L1    16  1.00

> <Gold.Chemscore.Hbond.Weighted>
-6.6521

> <Gold.Chemscore.Metal.Weighted>
-0.0000

> <Gold.Chemscore.Lipo.Weighted>
-7.7198

> <Gold.Chemscore.Internal_Hbond.Weighted>
0.0000

> <Gold.Chemscore.DEClash.Weighted>
0.0565

> <Gold.Chemscore.DEInternal.Weighted>
1.4095

> <Gold.Chemscore.Rot.Weighted>
6.3297

> <Gold.Chemscore.Internal.Correction.Weighted>
   9.000000E+99

> <Gold.Protein.RotatedTorsions>
[ 6907 6896 6895 6894 ] final  139.98 input  -60.11 | X-H torsion
[ 7974 7965 7964 7962 ] final  -15.24 input  175.53 | X-H torsion
[ 8008 7997 7996 7995 ] final   85.60 input   59.86 | X-H torsion
[ 10167 10162 10161 10158 ] final   65.17 input  -65.29 | X-H torsion
[ 10718 10713 10712 10709 ] final   74.43 input   66.30 | X-H torsion
[ 10763 10752 10751 10750 ] final -163.87 input  -60.55 | X-H torsion
[ 11005 11000 10999 10996 ] final -105.84 input  -57.11 | X-H torsion

> <Gold.Protein.ActiveResidues>
 VAL166  LYS551  ARG553  GLY616  TRP617  ASP618  TYR619  PRO620  LYS621  CYS622 
 ASP623  PHE694  ASN695  SER759  ASP760  ASP761  ALA762  ILE779  LEU786  VAL792 
 PHE793  MET794  SER795  GLU796  ALA797  LYS798  CYS799  TRP800  GLU811  SER814 

> <Gold.Protein.RotatedAtoms>
  152.2484  133.5194  159.5310 H   0  0  0  0  0  0  0  0  0  0  0  0  # atno 6907 bound_to 6896
  150.7086  134.0993  159.3969 H   0  0  0  0  0  0  0  0  0  0  0  0  # atno 6908 bound_to 6896
  151.8913  135.0415  160.0549 H   0  0  0  0  0  0  0  0  0  0  0  0  # atno 6909 bound_to 6896
  146.2040  140.3464  142.8413 H   0  0  0  0  0  0  0  0  0  0  0  0  # atno 7974 bound_to 7965
  155.9521  140.3400  155.6417 H   0  0  0  0  0  0  0  0  0  0  0  0  # atno 8008 bound_to 7997
  155.6906  140.0748  157.2468 H   0  0  0  0  0  0  0  0  0  0  0  0  # atno 8009 bound_to 7997
  154.4124  140.1658  156.2070 H   0  0  0  0  0  0  0  0  0  0  0  0  # atno 8010 bound_to 7997
  140.1142  144.4790  150.6959 H   0  0  0  0  0  0  0  0  0  0  0  0  # atno 10167 bound_to 10162
  157.6592  130.9677  150.1210 H   0  0  0  0  0  0  0  0  0  0  0  0  # atno 10718 bound_to 10713
  154.7082  135.3001  154.9237 H   0  0  0  0  0  0  0  0  0  0  0  0  # atno 10763 bound_to 10752
  154.0147  135.6690  153.4772 H   0  0  0  0  0  0  0  0  0  0  0  0  # atno 10764 bound_to 10752
  153.0734  135.5048  154.8265 H   0  0  0  0  0  0  0  0  0  0  0  0  # atno 10765 bound_to 10752
  141.1034  133.8842  157.1783 H   0  0  0  0  0  0  0  0  0  0  0  0  # atno 11005 bound_to 11000
  144.8749  140.7323  143.6023 LP  0  0  0  0  0  0  0  0  0  0  0  0  # atno 17320 bound_to 7965
  145.3384  139.1739  143.4499 LP  0  0  0  0  0  0  0  0  0  0  0  0  # atno 17321 bound_to 7965
  140.6908  143.2375  151.5135 LP  0  0  0  0  0  0  0  0  0  0  0  0  # atno 17342 bound_to 10162
  139.5603  144.2174  152.1680 LP  0  0  0  0  0  0  0  0  0  0  0  0  # atno 17343 bound_to 10162
  156.2082  130.3665  149.8703 LP  0  0  0  0  0  0  0  0  0  0  0  0  # atno 17370 bound_to 10713
  156.6589  130.8774  151.3544 LP  0  0  0  0  0  0  0  0  0  0  0  0  # atno 17371 bound_to 10713
  139.9894  135.0070  156.9939 LP  0  0  0  0  0  0  0  0  0  0  0  0  # atno 17394 bound_to 11000
  140.4965  134.1140  155.7242 LP  0  0  0  0  0  0  0  0  0  0  0  0  # atno 17395 bound_to 11000

$$$$
