AV-unprocessed.smi:1088|AV-procd|sdf|4732|dock8
  -GOLD-   22720 3263D 1   1.00000     0.00000
 Structure written by MMmdl.
 47 48  0  0  0  0  0  0  0  0  1 V2000
  148.9746  130.8283  154.2082 C   0  0  0  0  0  0  0  0  0  0  0  0
  149.0842  132.2338  154.0729 O   0  0  0  0  0  0  0  0  0  0  0  0
  148.2147  132.7546  153.0803 C   0  0  0  0  0  0  0  0  0  0  0  0
  146.7587  132.6866  153.5661 C   0  0  0  0  0  0  0  0  0  0  0  0
  145.7642  133.4837  152.8360 N   0  0  0  0  0  0  0  0  0  0  0  0
  145.4704  132.8530  151.5603 C   0  0  0  0  0  0  0  0  0  0  0  0
  144.7589  133.8969  150.7083 C   0  0  0  0  0  0  0  0  0  0  0  0
  145.2724  135.2246  151.2693 C   0  0  0  0  0  0  0  0  0  0  0  0
  146.1724  134.8404  152.4622 C   0  0  1  0  0  0  0  0  0  0  0  0
  146.1109  135.9043  153.5826 C   0  0  0  0  0  0  0  0  0  0  0  0
  146.9204  137.0742  153.2538 N   0  0  0  0  0  0  0  0  0  0  0  0
  146.8623  138.2677  153.8635 C   0  0  0  0  0  0  0  0  0  0  0  0
  146.0882  138.5216  154.7873 O   0  0  0  0  0  0  0  0  0  0  0  0
  147.8153  139.3416  153.3209 C   0  0  0  0  0  0  0  0  0  0  0  0
  149.0314  139.4989  154.1289 N   0  0  0  0  0  0  0  0  0  0  0  0
  149.9607  138.4760  154.1762 C   0  0  0  0  0  0  0  0  0  0  0  0
  151.1077  138.5437  154.8866 C   0  0  0  0  0  0  0  0  0  0  0  0
  151.4378  139.7308  155.6658 C   0  0  0  0  0  0  0  0  0  0  0  0
  152.4789  139.8377  156.3147 O   0  0  0  0  0  0  0  0  0  0  0  0
  150.4651  140.7579  155.6084 N   0  0  0  0  0  0  0  0  0  0  0  0
  150.7000  141.9873  156.3365 C   0  0  0  0  0  0  0  0  0  0  0  0
  149.2738  140.6859  154.8529 C   0  0  0  0  0  0  0  0  0  0  0  0
  148.4696  141.6206  154.8158 O   0  0  0  0  0  0  0  0  0  0  0  0
  149.6534  130.4818  154.9874 H   0  0  0  0  0  0  0  0  0  0  0  0
  149.2418  130.3223  153.2796 H   0  0  0  0  0  0  0  0  0  0  0  0
  147.9619  130.5358  154.4886 H   0  0  0  0  0  0  0  0  0  0  0  0
  148.4858  133.7733  152.8082 H   0  0  0  0  0  0  0  0  0  0  0  0
  148.3132  132.1673  152.1661 H   0  0  0  0  0  0  0  0  0  0  0  0
  146.4431  131.6434  153.6141 H   0  0  0  0  0  0  0  0  0  0  0  0
  146.7668  133.0356  154.5998 H   0  0  0  0  0  0  0  0  0  0  0  0
  146.3985  132.5652  151.0631 H   0  0  0  0  0  0  0  0  0  0  0  0
  144.8723  131.9502  151.6882 H   0  0  0  0  0  0  0  0  0  0  0  0
  144.9771  133.7763  149.6470 H   0  0  0  0  0  0  0  0  0  0  0  0
  143.6789  133.8243  150.8425 H   0  0  0  0  0  0  0  0  0  0  0  0
  145.8264  135.7961  150.5239 H   0  0  0  0  0  0  0  0  0  0  0  0
  144.4242  135.8327  151.5866 H   0  0  0  0  0  0  0  0  0  0  0  0
  147.1975  134.7944  152.0898 H   0  0  0  0  0  0  0  0  0  0  0  0
  145.0739  136.1766  153.7859 H   0  0  0  0  0  0  0  0  0  0  0  0
  146.5088  135.5280  154.5185 H   0  0  0  0  0  0  0  0  0  0  0  0
  147.5839  136.9647  152.5008 H   0  0  0  0  0  0  0  0  0  0  0  0
  148.0823  139.1101  152.2880 H   0  0  0  0  0  0  0  0  0  0  0  0
  147.2716  140.2864  153.2795 H   0  0  0  0  0  0  0  0  0  0  0  0
  149.7647  137.5759  153.6118 H   0  0  0  0  0  0  0  0  0  0  0  0
  151.7925  137.7085  154.8760 H   0  0  0  0  0  0  0  0  0  0  0  0
  149.7864  142.2379  156.8787 H   0  0  0  0  0  0  0  0  0  0  0  0
  150.9487  142.7508  155.5979 H   0  0  0  0  0  0  0  0  0  0  0  0
  151.5092  141.8671  157.0564 H   0  0  0  0  0  0  0  0  0  0  0  0
  1  2  1  0  0  0  0
  1 24  1  0  0  0  0
  1 25  1  0  0  0  0
  1 26  1  0  0  0  0
  2  3  1  0  0  0  0
  3  4  1  0  0  0  0
  3 27  1  0  0  0  0
  3 28  1  0  0  0  0
  4  5  1  0  0  0  0
  4 29  1  0  0  0  0
  4 30  1  0  0  0  0
  5  9  1  0  0  0  0
  5  6  1  0  0  0  0
  6  7  1  0  0  0  0
  6 31  1  0  0  0  0
  6 32  1  0  0  0  0
  7  8  1  0  0  0  0
  7 33  1  0  0  0  0
  7 34  1  0  0  0  0
  8  9  1  0  0  0  0
  8 35  1  0  0  0  0
  8 36  1  0  0  0  0
  9 10  1  0  0  0  0
  9 37  1  0  0  0  0
 10 11  1  0  0  0  0
 10 38  1  0  0  0  0
 10 39  1  0  0  0  0
 11 12  1  0  0  0  0
 11 40  1  0  0  0  0
 12 13  2  0  0  0  0
 12 14  1  0  0  0  0
 14 15  1  0  0  0  0
 14 41  1  0  0  0  0
 14 42  1  0  0  0  0
 15 22  1  0  0  0  0
 15 16  1  0  0  0  0
 16 17  2  0  0  0  0
 16 43  1  0  0  0  0
 17 18  1  0  0  0  0
 17 44  1  0  0  0  0
 18 19  2  0  0  0  0
 18 20  1  0  0  0  0
 20 21  1  0  0  0  0
 20 22  1  0  0  0  0
 21 45  1  0  0  0  0
 21 46  1  0  0  0  0
 21 47  1  0  0  0  0
 22 23  2  0  0  0  0
M  END
> <s_m_source_file>
AV-unprocessed.smi

> <i_m_source_file_index>
1088

> <i_lp_mmshare_version>
43012

> <i_f3d_flags>
0

> <s_epik_input>
W0NIM11PW0NIMl1bQ0gyXU4xW0NIMl1bQ0gyXVtDSDJdW0NASF0xW0NIMl1bTkhdQyg9TylbQ0gyXW4yW2NIXVtjSF1jKD1PKW4oW0NIM10pYzI9Tw==

> <s_epik_cmdline>
J2VwaWtfcHl0aG9uJywgJy1waCcsICc3LjAnLCAnLXRuJywgJzgnLCAnLW1hJywgJzIwMCcsICctbWV0YWxfYmluZGluZycsICctaW1hZScsICc8aW5maWxlLm1hZT4nLCAnLW9tYWUnLCAnPG91dGZpbGUubWFlPic=

> <r_lp_tautomer_probability>
1

> <r_epik_Ionization_Penalty>
2.28131

> <r_epik_Ionization_Penalty_Charging>
1.22971e-08

> <r_epik_Ionization_Penalty_Neutral>
2.28131

> <r_epik_State_Penalty>
2.43063

> <r_epik_Charging_Adjusted_Penalty>
2.43063

> <i_epik_Tot_Q>
0

> <i_epik_Tot_abs_Q>
0

> <r_epik_Metal_State_Penalty>
2.43056

> <b_epik_Metal_Only>
0

> <s_lp_Force_Field>
OPLS_2005

> <r_lp_Energy>
52.4092

> <b_lp_Chiralities_Consistent>
1

> <s_lp_Variant>
AV-unprocessed.smi:1088-5

> <Gold.Version>
5.8.1

> <Gold.Id.Protein>
6NUR|6NUR_protein|mol2

> <Gold.PLP.Fitness>
45.5019

> <Gold.PLP.PLP>
-38.2829

> <Gold.PLP.part.hbond>
-2.0000

> <Gold.PLP.part.metal>
0.0000

> <Gold.PLP.part.buried>
-0.8458

> <Gold.PLP.part.nonpolar>
-35.3433

> <Gold.PLP.part.repulsive>
0.4190

> <Gold.PLP.ligand.clash>
0.0000

> <Gold.PLP.ligand.torsion>
0.8077

> <Gold.PLP.Chemscore.Hbond>
1.9280

> <Gold.PLP.Chemscore.CHOScore>
1.0000

> <Gold.PLP.Chemscore.Metal>
0.0000

> <Gold.Chemscore.Hbonds>
donor molecule, donor type, donor heavy atom, donor atom, acceptor molecule, acceptor atom, score
      L1  H    11    40       P1  7948  1.00
      P1  H  7997  8009       L1    19  1.00
      L1  C    16    43       P1  7948  1.00

> <Gold.PLP.Chemscore.Internal.Correction>
0.0506

> <Gold.Rescore>
     Score         DG    S(hbond)    S(metal)    S(lipo)     H(rot)  DE(clash)    DE(int)     intcor
     12.55     -13.65       1.99        0.00      67.58       2.49       0.10       1.00       ----

> <Gold.Chemscore.Fitness>
12.5533

> <Gold.Chemscore.DG>
-13.6531

> <Gold.Chemscore.ZeroCoef>
-5.4800

> <Gold.Chemscore.Hbond>
1.9912

> <Gold.Chemscore.Metal>
0.0000

> <Gold.Chemscore.Lipo>
67.5785

> <Gold.Chemscore.Internal_Hbond>
0.0000

> <Gold.Chemscore.DEClash>
0.1030

> <Gold.Chemscore.DEInternal>
0.9968

> <Gold.Chemscore.Rot>
2.4938

> <Gold.Chemscore.Internal.Correction>
   9.000000E+99

> <Gold.Chemscore.Hbonds>
donor molecule, donor type, donor heavy atom, donor atom, acceptor molecule, acceptor atom, score
      L1  H    11    40       P1  7948  0.95
      P1  H  7997  8009       L1    19  1.00

> <Gold.Chemscore.Hbond.Weighted>
-6.6505

> <Gold.Chemscore.Metal.Weighted>
-0.0000

> <Gold.Chemscore.Lipo.Weighted>
-7.9067

> <Gold.Chemscore.Internal_Hbond.Weighted>
0.0000

> <Gold.Chemscore.DEClash.Weighted>
0.1030

> <Gold.Chemscore.DEInternal.Weighted>
0.9968

> <Gold.Chemscore.Rot.Weighted>
6.3841

> <Gold.Chemscore.Internal.Correction.Weighted>
   9.000000E+99

> <Gold.Protein.RotatedTorsions>
[ 6907 6896 6895 6894 ] final   -2.57 input  -60.11 | X-H torsion
[ 7974 7965 7964 7962 ] final  -43.78 input  175.53 | X-H torsion
[ 8008 7997 7996 7995 ] final -159.66 input   59.86 | X-H torsion
[ 10167 10162 10161 10158 ] final  -53.42 input  -65.29 | X-H torsion
[ 10718 10713 10712 10709 ] final   37.69 input   66.30 | X-H torsion
[ 10763 10752 10751 10750 ] final  -26.47 input  -60.55 | X-H torsion
[ 11005 11000 10999 10996 ] final  -45.19 input  -57.11 | X-H torsion

> <Gold.Protein.ActiveResidues>
 VAL166  LYS551  ARG553  GLY616  TRP617  ASP618  TYR619  PRO620  LYS621  CYS622 
 ASP623  PHE694  ASN695  SER759  ASP760  ASP761  ALA762  ILE779  LEU786  VAL792 
 PHE793  MET794  SER795  GLU796  ALA797  LYS798  CYS799  TRP800  GLU811  SER814 

> <Gold.Protein.RotatedAtoms>
  151.5277  135.1068  159.9894 H   0  0  0  0  0  0  0  0  0  0  0  0  # atno 6907 bound_to 6896
  152.4592  133.7783  159.6847 H   0  0  0  0  0  0  0  0  0  0  0  0  # atno 6908 bound_to 6896
  150.8547  133.7668  159.3038 H   0  0  0  0  0  0  0  0  0  0  0  0  # atno 6909 bound_to 6896
  145.9985  140.7101  142.9282 H   0  0  0  0  0  0  0  0  0  0  0  0  # atno 7974 bound_to 7965
  155.7658  140.0845  157.2132 H   0  0  0  0  0  0  0  0  0  0  0  0  # atno 8008 bound_to 7997
  154.4000  140.1534  156.2942 H   0  0  0  0  0  0  0  0  0  0  0  0  # atno 8009 bound_to 7997
  155.8795  140.3421  155.5880 H   0  0  0  0  0  0  0  0  0  0  0  0  # atno 8010 bound_to 7997
  140.6486  143.2551  151.4789 H   0  0  0  0  0  0  0  0  0  0  0  0  # atno 10167 bound_to 10162
  157.3499  130.7593  149.6971 H   0  0  0  0  0  0  0  0  0  0  0  0  # atno 10718 bound_to 10713
  153.7165  135.6947  153.5023 H   0  0  0  0  0  0  0  0  0  0  0  0  # atno 10763 bound_to 10752
  153.2234  135.4362  155.0514 H   0  0  0  0  0  0  0  0  0  0  0  0  # atno 10764 bound_to 10752
  154.8298  135.3466  154.6700 H   0  0  0  0  0  0  0  0  0  0  0  0  # atno 10765 bound_to 10752
  141.0499  133.6747  156.2978 H   0  0  0  0  0  0  0  0  0  0  0  0  # atno 11005 bound_to 11000
  144.6911  140.3192  143.7235 LP  0  0  0  0  0  0  0  0  0  0  0  0  # atno 17320 bound_to 7965
  145.7523  139.1798  143.2314 LP  0  0  0  0  0  0  0  0  0  0  0  0  # atno 17321 bound_to 7965
  139.5698  144.1955  152.1820 LP  0  0  0  0  0  0  0  0  0  0  0  0  # atno 17342 bound_to 10162
  140.1247  144.5341  150.6840 LP  0  0  0  0  0  0  0  0  0  0  0  0  # atno 17343 bound_to 10162
  155.9720  130.4143  150.4128 LP  0  0  0  0  0  0  0  0  0  0  0  0  # atno 17370 bound_to 10713
  157.2189  131.0478  151.2558 LP  0  0  0  0  0  0  0  0  0  0  0  0  # atno 17371 bound_to 10713
  140.6074  134.5493  157.5528 LP  0  0  0  0  0  0  0  0  0  0  0  0  # atno 17394 bound_to 11000
  139.9342  134.7906  156.0847 LP  0  0  0  0  0  0  0  0  0  0  0  0  # atno 17395 bound_to 11000

$$$$
