AV-unprocessed.smi:2730|AV-procd|sdf|10528|dock6
  -GOLD-   2272014573D 1   1.00000     0.00000
 Structure written by MMmdl.
 43 44  0  0  0  0  0  0  0  0  1 V2000
  146.6406  133.9973  157.6213 C   0  0  0  0  0  0  0  0  0  0  0  0
  147.8971  134.1505  158.4910 C   0  0  0  0  0  0  0  0  0  0  0  0
  147.9736  135.4955  159.2419 C   0  0  2  0  0  0  0  0  0  0  0  0
  146.7431  135.7382  160.1353 C   0  0  0  0  0  0  0  0  0  0  0  0
  146.9154  136.8422  161.0924 C   0  0  0  0  0  0  0  0  0  0  0  0
  147.0513  137.7105  161.8449 N   0  0  0  0  0  0  0  0  0  0  0  0
  148.1190  136.5940  158.2896 N   0  0  0  0  0  0  0  0  0  0  0  0
  148.8363  137.7077  158.4965 C   0  0  0  0  0  0  0  0  0  0  0  0
  149.4534  137.9334  159.5378 O   0  0  0  0  0  0  0  0  0  0  0  0
  148.7854  138.5231  157.4289 N   0  0  0  0  0  0  0  0  0  0  0  0
  149.4067  139.7876  157.2605 C   0  0  0  0  0  0  0  0  0  0  0  0
  149.1997  140.6127  156.1886 N   0  0  0  0  0  0  0  0  0  0  0  0
  149.9971  141.6140  156.5362 C   0  0  0  0  0  0  0  0  0  0  0  0
  150.6301  141.4277  157.6982 N   0  0  0  0  0  0  0  0  0  0  0  0
  151.5714  142.2855  158.4015 C   0  0  0  0  0  0  0  0  0  0  0  0
  152.0324  141.6517  159.7306 C   0  0  0  0  0  0  0  0  0  0  0  0
  153.0347  142.5587  160.4630 C   0  0  0  0  0  0  0  0  0  0  0  0
  152.4515  143.9623  160.6931 C   0  0  0  0  0  0  0  0  0  0  0  0
  151.9913  144.5981  159.3713 C   0  0  0  0  0  0  0  0  0  0  0  0
  150.9869  143.6938  158.6381 C   0  0  0  0  0  0  0  0  0  0  0  0
  150.2512  140.2227  158.1930 N   0  0  0  0  0  0  0  0  0  0  0  0
  146.6608  133.0529  157.0772 H   0  0  0  0  0  0  0  0  0  0  0  0
  146.5708  134.8009  156.8878 H   0  0  0  0  0  0  0  0  0  0  0  0
  145.7306  134.0104  158.2214 H   0  0  0  0  0  0  0  0  0  0  0  0
  147.9443  133.3278  159.2055 H   0  0  0  0  0  0  0  0  0  0  0  0
  148.7712  134.0424  157.8486 H   0  0  0  0  0  0  0  0  0  0  0  0
  148.8587  135.4692  159.8808 H   0  0  0  0  0  0  0  0  0  0  0  0
  145.8681  135.9720  159.5282 H   0  0  0  0  0  0  0  0  0  0  0  0
  146.5049  134.8406  160.7068 H   0  0  0  0  0  0  0  0  0  0  0  0
  147.6445  136.4921  157.4044 H   0  0  0  0  0  0  0  0  0  0  0  0
  148.2389  138.2027  156.6434 H   0  0  0  0  0  0  0  0  0  0  0  0
  150.1222  142.5003  155.9317 H   0  0  0  0  0  0  0  0  0  0  0  0
  152.4469  142.3896  157.7581 H   0  0  0  0  0  0  0  0  0  0  0  0
  151.1735  141.4717  160.3787 H   0  0  0  0  0  0  0  0  0  0  0  0
  152.4871  140.6782  159.5429 H   0  0  0  0  0  0  0  0  0  0  0  0
  153.3121  142.1107  161.4175 H   0  0  0  0  0  0  0  0  0  0  0  0
  153.9526  142.6357  159.8789 H   0  0  0  0  0  0  0  0  0  0  0  0
  151.6072  143.8988  161.3808 H   0  0  0  0  0  0  0  0  0  0  0  0
  153.1943  144.5997  161.1735 H   0  0  0  0  0  0  0  0  0  0  0  0
  151.5421  145.5725  159.5645 H   0  0  0  0  0  0  0  0  0  0  0  0
  152.8563  144.7778  158.7314 H   0  0  0  0  0  0  0  0  0  0  0  0
  150.7102  144.1485  157.6861 H   0  0  0  0  0  0  0  0  0  0  0  0
  150.0704  143.6262  159.2262 H   0  0  0  0  0  0  0  0  0  0  0  0
  1  2  1  0  0  0  0
  1 22  1  0  0  0  0
  1 23  1  0  0  0  0
  1 24  1  0  0  0  0
  2  3  1  0  0  0  0
  2 25  1  0  0  0  0
  2 26  1  0  0  0  0
  3  4  1  0  0  0  0
  3  7  1  0  0  0  0
  3 27  1  0  0  0  0
  4  5  1  0  0  0  0
  4 28  1  0  0  0  0
  4 29  1  0  0  0  0
  5  6  3  0  0  0  0
  7  8  1  0  0  0  0
  7 30  1  0  0  0  0
  8  9  2  0  0  0  0
  8 10  1  0  0  0  0
 10 11  1  0  0  0  0
 10 31  1  0  0  0  0
 11 21  2  0  0  0  0
 11 12  1  0  0  0  0
 12 13  2  0  0  0  0
 13 14  1  0  0  0  0
 13 32  1  0  0  0  0
 14 15  1  0  0  0  0
 14 21  1  0  0  0  0
 15 20  1  0  0  0  0
 15 16  1  0  0  0  0
 15 33  1  0  0  0  0
 16 17  1  0  0  0  0
 16 34  1  0  0  0  0
 16 35  1  0  0  0  0
 17 18  1  0  0  0  0
 17 36  1  0  0  0  0
 17 37  1  0  0  0  0
 18 19  1  0  0  0  0
 18 38  1  0  0  0  0
 18 39  1  0  0  0  0
 19 20  1  0  0  0  0
 19 40  1  0  0  0  0
 19 41  1  0  0  0  0
 20 42  1  0  0  0  0
 20 43  1  0  0  0  0
M  END
> <s_m_source_file>
AV-unprocessed.smi

> <i_m_source_file_index>
2730

> <i_lp_mmshare_version>
43012

> <i_f3d_flags>
0

> <s_epik_input>
TiNDW0NIMl1bQ0BASF0oW0NIMl1bQ0gzXSlbTkhdQyg9TylbTkhdYzFuW2NIXW4objEpW0NIXTJbQ0gyXVtDSDJdW0NIMl1bQ0gyXVtDSDJdMg==

> <s_epik_cmdline>
J2VwaWtfcHl0aG9uJywgJy1waCcsICc3LjAnLCAnLXRuJywgJzgnLCAnLW1hJywgJzIwMCcsICctbWV0YWxfYmluZGluZycsICctaW1hZScsICc8aW5maWxlLm1hZT4nLCAnLW9tYWUnLCAnPG91dGZpbGUubWFlPic=

> <r_lp_tautomer_probability>
1

> <r_epik_Ionization_Penalty>
7.18854e-05

> <r_epik_Ionization_Penalty_Charging>
0

> <r_epik_Ionization_Penalty_Neutral>
7.18854e-05

> <r_epik_State_Penalty>
-0

> <r_epik_Charging_Adjusted_Penalty>
0

> <i_epik_Tot_Q>
0

> <i_epik_Tot_abs_Q>
0

> <r_epik_Metal_State_Penalty>
-0

> <b_epik_Metal_Only>
0

> <s_lp_Force_Field>
OPLS_2005

> <r_lp_Energy>
15.2848

> <b_lp_Chiralities_Consistent>
1

> <s_lp_Variant>
AV-unprocessed.smi:2730-1

> <Gold.Version>
5.8.1

> <Gold.Id.Protein>
6NUR|6NUR_protein|mol2

> <Gold.PLP.Fitness>
39.9045

> <Gold.PLP.PLP>
-32.5291

> <Gold.PLP.part.hbond>
-2.8926

> <Gold.PLP.part.metal>
0.0000

> <Gold.PLP.part.buried>
-5.1272

> <Gold.PLP.part.nonpolar>
-24.7430

> <Gold.PLP.part.repulsive>
0.1354

> <Gold.PLP.ligand.clash>
0.0000

> <Gold.PLP.ligand.torsion>
0.4818

> <Gold.PLP.Chemscore.Hbond>
1.7600

> <Gold.PLP.Chemscore.CHOScore>
1.0000

> <Gold.PLP.Chemscore.Metal>
0.0000

> <Gold.Chemscore.Hbonds>
donor molecule, donor type, donor heavy atom, donor atom, acceptor molecule, acceptor atom, score
      P1  H  6931  6943       L1     6  0.56
      P1  H  6934  6947       L1     6  0.74
      L1  C    13    32       P1  8028  0.94

> <Gold.PLP.Chemscore.Internal.Correction>
0.0591

> <Gold.Rescore>
     Score         DG    S(hbond)    S(metal)    S(lipo)     H(rot)  DE(clash)    DE(int)     intcor
     13.56     -15.48       1.78        0.00      74.52       1.82       0.01       1.91       ----

> <Gold.Chemscore.Fitness>
13.5565

> <Gold.Chemscore.DG>
-15.4785

> <Gold.Chemscore.ZeroCoef>
-5.4800

> <Gold.Chemscore.Hbond>
1.7820

> <Gold.Chemscore.Metal>
0.0000

> <Gold.Chemscore.Lipo>
74.5176

> <Gold.Chemscore.Internal_Hbond>
0.0000

> <Gold.Chemscore.DEClash>
0.0115

> <Gold.Chemscore.DEInternal>
1.9105

> <Gold.Chemscore.Rot>
1.8249

> <Gold.Chemscore.Internal.Correction>
   9.000000E+99

> <Gold.Chemscore.Hbonds>
donor molecule, donor type, donor heavy atom, donor atom, acceptor molecule, acceptor atom, score
      P1  H  6931  6943       L1     6  0.38
      P1  H  6934  6947       L1     6  0.40

> <Gold.Chemscore.Hbond.Weighted>
-5.9517

> <Gold.Chemscore.Metal.Weighted>
-0.0000

> <Gold.Chemscore.Lipo.Weighted>
-8.7186

> <Gold.Chemscore.Internal_Hbond.Weighted>
0.0000

> <Gold.Chemscore.DEClash.Weighted>
0.0115

> <Gold.Chemscore.DEInternal.Weighted>
1.9105

> <Gold.Chemscore.Rot.Weighted>
4.6718

> <Gold.Chemscore.Internal.Correction.Weighted>
   9.000000E+99

> <Gold.Protein.RotatedTorsions>
[ 6907 6896 6895 6894 ] final -164.24 input  -60.11 | X-H torsion
[ 7974 7965 7964 7962 ] final   43.76 input  175.53 | X-H torsion
[ 8008 7997 7996 7995 ] final  136.87 input   59.86 | X-H torsion
[ 10167 10162 10161 10158 ] final   34.94 input  -65.29 | X-H torsion
[ 10718 10713 10712 10709 ] final  143.02 input   66.30 | X-H torsion
[ 10763 10752 10751 10750 ] final   33.69 input  -60.55 | X-H torsion
[ 11005 11000 10999 10996 ] final  168.23 input  -57.11 | X-H torsion

> <Gold.Protein.ActiveResidues>
 VAL166  LYS551  ARG553  GLY616  TRP617  ASP618  TYR619  PRO620  LYS621  CYS622 
 ASP623  PHE694  ASN695  SER759  ASP760  ASP761  ALA762  ILE779  LEU786  VAL792 
 PHE793  MET794  SER795  GLU796  ALA797  LYS798  CYS799  TRP800  GLU811  SER814 

> <Gold.Protein.RotatedAtoms>
  151.4086  133.3734  159.2740 H   0  0  0  0  0  0  0  0  0  0  0  0  # atno 6907 bound_to 6896
  150.9380  134.8792  159.7604 H   0  0  0  0  0  0  0  0  0  0  0  0  # atno 6908 bound_to 6896
  152.5058  134.4035  159.9476 H   0  0  0  0  0  0  0  0  0  0  0  0  # atno 6909 bound_to 6896
  146.0627  139.5150  142.9648 H   0  0  0  0  0  0  0  0  0  0  0  0  # atno 7974 bound_to 7965
  156.3003  140.2434  156.3816 H   0  0  0  0  0  0  0  0  0  0  0  0  # atno 8008 bound_to 7997
  154.8696  140.0416  157.1736 H   0  0  0  0  0  0  0  0  0  0  0  0  # atno 8009 bound_to 7997
  154.8810  140.2949  155.5429 H   0  0  0  0  0  0  0  0  0  0  0  0  # atno 8010 bound_to 7997
  140.4268  144.1381  150.6154 H   0  0  0  0  0  0  0  0  0  0  0  0  # atno 10167 bound_to 10162
  157.3738  131.0982  151.0803 H   0  0  0  0  0  0  0  0  0  0  0  0  # atno 10718 bound_to 10713
  153.0200  135.6380  154.1551 H   0  0  0  0  0  0  0  0  0  0  0  0  # atno 10763 bound_to 10752
  154.1286  135.2842  155.3192 H   0  0  0  0  0  0  0  0  0  0  0  0  # atno 10764 bound_to 10752
  154.6211  135.5524  153.7638 H   0  0  0  0  0  0  0  0  0  0  0  0  # atno 10765 bound_to 10752
  140.2850  134.7719  157.3790 H   0  0  0  0  0  0  0  0  0  0  0  0  # atno 11005 bound_to 11000
  145.6531  141.0258  143.1749 LP  0  0  0  0  0  0  0  0  0  0  0  0  # atno 17320 bound_to 7965
  144.7184  139.8114  143.7390 LP  0  0  0  0  0  0  0  0  0  0  0  0  # atno 17321 bound_to 7965
  140.4472  143.2502  151.9396 LP  0  0  0  0  0  0  0  0  0  0  0  0  # atno 17342 bound_to 10162
  139.4784  144.5598  151.8257 LP  0  0  0  0  0  0  0  0  0  0  0  0  # atno 17343 bound_to 10162
  157.1897  130.6346  149.5700 LP  0  0  0  0  0  0  0  0  0  0  0  0  # atno 17370 bound_to 10713
  155.9761  130.4726  150.6505 LP  0  0  0  0  0  0  0  0  0  0  0  0  # atno 17371 bound_to 10713
  140.1248  134.5172  155.8154 LP  0  0  0  0  0  0  0  0  0  0  0  0  # atno 17394 bound_to 11000
  141.2156  133.6769  156.6931 LP  0  0  0  0  0  0  0  0  0  0  0  0  # atno 17395 bound_to 11000

$$$$
