AV-unprocessed.smi:2448|AV-procd|sdf|9656|dock1
  -GOLD-   2272013293D 1   1.00000     0.00000
 Structure written by MMmdl.
 38 39  0  0  0  0  0  0  0  0  2 V2000
  147.6038  138.9069  152.1516 O   0  0  0  0  0  0  0  0  0  0  0  0
  147.3945  138.9693  153.5520 C   0  0  2  0  0  0  0  0  0  0  0  0
  146.5338  137.7598  153.9666 C   0  0  0  0  0  0  0  0  0  0  0  0
  147.2785  136.4866  153.8424 N   0  3  0  0  0  0  0  0  0  0  0  0
  146.4637  135.2580  153.9964 C   0  0  2  0  0  0  0  0  0  0  0  0
  145.1592  135.3521  153.1727 C   0  0  0  0  0  0  0  0  0  0  0  0
  145.0607  134.3140  152.0698 C   0  0  0  0  0  0  0  0  0  0  0  0
  143.9318  134.2635  151.2256 C   0  0  0  0  0  0  0  0  0  0  0  0
  143.9025  133.2964  150.2007 C   0  0  0  0  0  0  0  0  0  0  0  0
  144.9024  132.4154  149.9851 N   0  0  0  0  0  0  0  0  0  0  0  0
  145.9764  132.4639  150.8020 C   0  0  0  0  0  0  0  0  0  0  0  0
  146.1053  133.3917  151.8551 C   0  0  0  0  0  0  0  0  0  0  0  0
  146.1744  135.0112  155.4896 C   0  0  0  0  0  0  0  0  0  0  0  0
  145.6916  133.7796  155.6552 F   0  0  0  0  0  0  0  0  0  0  0  0
  147.2880  135.1374  156.2119 F   0  0  0  0  0  0  0  0  0  0  0  0
  145.2669  135.8804  155.9336 F   0  0  0  0  0  0  0  0  0  0  0  0
  146.7035  140.3060  153.8678 C   0  0  0  0  0  0  0  0  0  0  0  0
  147.7466  141.4195  153.7271 C   0  0  0  0  0  0  0  0  0  0  0  0
  149.3434  140.7407  154.2430 S   0  0  0  0  0  0  0  0  0  0  0  0
  148.7517  139.0285  154.2762 C   0  0  0  0  0  0  0  0  0  0  0  0
  148.3589  139.4320  151.9332 H   0  0  0  0  0  0  0  0  0  0  0  0
  146.1992  137.8871  154.9960 H   0  0  0  0  0  0  0  0  0  0  0  0
  145.6350  137.7082  153.3502 H   0  0  0  0  0  0  0  0  0  0  0  0
  147.6925  136.4722  152.9207 H   0  0  0  0  0  0  0  0  0  0  0  0
  147.0420  134.4042  153.6382 H   0  0  0  0  0  0  0  0  0  0  0  0
  144.2969  135.2235  153.8278 H   0  0  0  0  0  0  0  0  0  0  0  0
  145.0602  136.3477  152.7383 H   0  0  0  0  0  0  0  0  0  0  0  0
  143.1074  134.9500  151.3515 H   0  0  0  0  0  0  0  0  0  0  0  0
  143.0558  133.2336  149.5332 H   0  0  0  0  0  0  0  0  0  0  0  0
  146.7589  131.7455  150.6081 H   0  0  0  0  0  0  0  0  0  0  0  0
  146.9879  133.3939  152.4781 H   0  0  0  0  0  0  0  0  0  0  0  0
  145.8335  140.4855  153.2347 H   0  0  0  0  0  0  0  0  0  0  0  0
  146.3456  140.2926  154.8985 H   0  0  0  0  0  0  0  0  0  0  0  0
  147.8297  141.7275  152.6845 H   0  0  0  0  0  0  0  0  0  0  0  0
  147.4879  142.3016  154.3132 H   0  0  0  0  0  0  0  0  0  0  0  0
  148.6277  138.7558  155.3244 H   0  0  0  0  0  0  0  0  0  0  0  0
  149.4906  138.3500  153.8487 H   0  0  0  0  0  0  0  0  0  0  0  0
  148.0239  136.4674  154.5235 H   0  0  0  0  0  0  0  0  0  0  0  0
  1  2  1  0  0  0  0
  1 21  1  0  0  0  0
  2 20  1  0  0  0  0
  2  3  1  0  0  0  0
  2 17  1  0  0  0  0
  3  4  1  0  0  0  0
  3 22  1  0  0  0  0
  3 23  1  0  0  0  0
  4  5  1  0  0  0  0
  4 24  1  0  0  0  0
  4 38  1  0  0  0  0
  5  6  1  0  0  0  0
  5 13  1  0  0  0  0
  5 25  1  0  0  0  0
  6  7  1  0  0  0  0
  6 26  1  0  0  0  0
  6 27  1  0  0  0  0
  7 12  1  0  0  0  0
  7  8  2  0  0  0  0
  8  9  1  0  0  0  0
  8 28  1  0  0  0  0
  9 10  2  0  0  0  0
  9 29  1  0  0  0  0
 10 11  1  0  0  0  0
 11 12  2  0  0  0  0
 11 30  1  0  0  0  0
 12 31  1  0  0  0  0
 13 14  1  0  0  0  0
 13 15  1  0  0  0  0
 13 16  1  0  0  0  0
 17 18  1  0  0  0  0
 17 32  1  0  0  0  0
 17 33  1  0  0  0  0
 18 19  1  0  0  0  0
 18 34  1  0  0  0  0
 18 35  1  0  0  0  0
 19 20  1  0  0  0  0
 20 36  1  0  0  0  0
 20 37  1  0  0  0  0
M  CHG  1   4   1
M  END
> <s_m_source_file>
AV-unprocessed.smi

> <i_m_source_file_index>
2448

> <i_lp_mmshare_version>
43012

> <i_f3d_flags>
0

> <s_epik_input>
W0NIMl0xU1tDSDJdW0NIMl1bQ0BAXTEoW09IXSlbQ0gyXVtOSF1bQ0BASF0oQyhGKShGKUYpW0NIMl1jMltjSF1bY0hdbltjSF1bY0hdMg==

> <s_epik_cmdline>
J2VwaWtfcHl0aG9uJywgJy1waCcsICc3LjAnLCAnLXRuJywgJzgnLCAnLW1hJywgJzIwMCcsICctbWV0YWxfYmluZGluZycsICctaW1hZScsICc8aW5maWxlLm1hZT4nLCAnLW9tYWUnLCAnPG91dGZpbGUubWFlPic=

> <r_epik_Ionization_Penalty>
1.19945

> <r_epik_Ionization_Penalty_Charging>
1.19892

> <r_epik_Ionization_Penalty_Neutral>
0.000532129

> <r_epik_State_Penalty>
0.752927

> <r_epik_Charging_Adjusted_Penalty>
1.95185

> <i_epik_Tot_Q>
1

> <i_epik_Tot_abs_Q>
1

> <r_epik_Metal_State_Penalty>
0.804507

> <b_epik_Metal_Only>
0

> <s_lp_Force_Field>
OPLS_2005

> <r_lp_Energy>
23.2993

> <b_lp_Chiralities_Consistent>
1

> <s_lp_Variant>
AV-unprocessed.smi:2448-6

> <Gold.Version>
5.8.1

> <Gold.Id.Protein>
6NUR|6NUR_protein|mol2

> <Gold.PLP.Fitness>
41.5786

> <Gold.PLP.PLP>
-27.8809

> <Gold.PLP.part.hbond>
-2.5053

> <Gold.PLP.part.metal>
0.0000

> <Gold.PLP.part.buried>
-4.5490

> <Gold.PLP.part.nonpolar>
-21.2184

> <Gold.PLP.part.repulsive>
0.1572

> <Gold.PLP.ligand.clash>
0.0000

> <Gold.PLP.ligand.torsion>
1.1469

> <Gold.PLP.Chemscore.Hbond>
3.0000

> <Gold.PLP.Chemscore.CHOScore>
1.9954

> <Gold.PLP.Chemscore.Metal>
0.0000

> <Gold.Chemscore.Hbonds>
donor molecule, donor type, donor heavy atom, donor atom, acceptor molecule, acceptor atom, score
      L1  H     1    21       P1  7957  1.00
      L1  H     4    24       P1  7948  2.00
      L1  C     9    29       P1 10186  1.00
      L1  C    11    30       P1 10747  1.00

> <Gold.PLP.Chemscore.Internal.Correction>
1.0053

> <Gold.Rescore>
     Score         DG    S(hbond)    S(metal)    S(lipo)     H(rot)  DE(clash)    DE(int)     intcor
     12.63     -14.03       1.97        0.00      69.14       2.39       0.05       1.35       ----

> <Gold.Chemscore.Fitness>
12.6282

> <Gold.Chemscore.DG>
-14.0284

> <Gold.Chemscore.ZeroCoef>
-5.4800

> <Gold.Chemscore.Hbond>
1.9666

> <Gold.Chemscore.Metal>
0.0000

> <Gold.Chemscore.Lipo>
69.1429

> <Gold.Chemscore.Internal_Hbond>
0.0000

> <Gold.Chemscore.DEClash>
0.0534

> <Gold.Chemscore.DEInternal>
1.3468

> <Gold.Chemscore.Rot>
2.3866

> <Gold.Chemscore.Internal.Correction>
   9.000000E+99

> <Gold.Chemscore.Hbonds>
donor molecule, donor type, donor heavy atom, donor atom, acceptor molecule, acceptor atom, score
      L1  H     1    21       P1  7957  0.96
      L1  H     4    24       P1  7948  0.97

> <Gold.Chemscore.Hbond.Weighted>
-6.5683

> <Gold.Chemscore.Metal.Weighted>
-0.0000

> <Gold.Chemscore.Lipo.Weighted>
-8.0897

> <Gold.Chemscore.Internal_Hbond.Weighted>
0.0000

> <Gold.Chemscore.DEClash.Weighted>
0.0534

> <Gold.Chemscore.DEInternal.Weighted>
1.3468

> <Gold.Chemscore.Rot.Weighted>
6.1096

> <Gold.Chemscore.Internal.Correction.Weighted>
   9.000000E+99

> <Gold.Protein.RotatedTorsions>
[ 6907 6896 6895 6894 ] final  -51.93 input  -60.11 | X-H torsion
[ 7974 7965 7964 7962 ] final   54.86 input  175.53 | X-H torsion
[ 8008 7997 7996 7995 ] final -153.03 input   59.86 | X-H torsion
[ 10167 10162 10161 10158 ] final    9.04 input  -65.29 | X-H torsion
[ 10718 10713 10712 10709 ] final -178.63 input   66.30 | X-H torsion
[ 10763 10752 10751 10750 ] final -141.43 input  -60.55 | X-H torsion
[ 11005 11000 10999 10996 ] final -120.34 input  -57.11 | X-H torsion

> <Gold.Protein.ActiveResidues>
 VAL166  LYS551  ARG553  GLY616  TRP617  ASP618  TYR619  PRO620  LYS621  CYS622 
 ASP623  PHE694  ASN695  SER759  ASP760  ASP761  ALA762  ILE779  LEU786  VAL792 
 PHE793  MET794  SER795  GLU796  ALA797  LYS798  CYS799  TRP800  GLU811  SER814 

> <Gold.Protein.RotatedAtoms>
  150.8565  134.7905  159.7049 H   0  0  0  0  0  0  0  0  0  0  0  0  # atno 6907 bound_to 6896
  152.4615  134.5170  159.9781 H   0  0  0  0  0  0  0  0  0  0  0  0  # atno 6908 bound_to 6896
  151.5282  133.3416  159.2949 H   0  0  0  0  0  0  0  0  0  0  0  0  # atno 6909 bound_to 6896
  145.9564  139.4019  143.0274 H   0  0  0  0  0  0  0  0  0  0  0  0  # atno 7974 bound_to 7965
  155.6645  140.0726  157.2542 H   0  0  0  0  0  0  0  0  0  0  0  0  # atno 8008 bound_to 7997
  154.4135  140.1710  156.1863 H   0  0  0  0  0  0  0  0  0  0  0  0  # atno 8009 bound_to 7997
  155.9669  140.3365  155.6543 H   0  0  0  0  0  0  0  0  0  0  0  0  # atno 8010 bound_to 7997
  140.6279  143.8060  150.7256 H   0  0  0  0  0  0  0  0  0  0  0  0  # atno 10167 bound_to 10162
  156.8472  130.9706  151.3095 H   0  0  0  0  0  0  0  0  0  0  0  0  # atno 10718 bound_to 10713
  154.8545  135.3525  154.5866 H   0  0  0  0  0  0  0  0  0  0  0  0  # atno 10763 bound_to 10752
  153.6476  135.6995  153.5224 H   0  0  0  0  0  0  0  0  0  0  0  0  # atno 10764 bound_to 10752
  153.2920  135.4232  155.1134 H   0  0  0  0  0  0  0  0  0  0  0  0  # atno 10765 bound_to 10752
  141.0151  134.0208  157.3361 H   0  0  0  0  0  0  0  0  0  0  0  0  # atno 11005 bound_to 11000
  145.8100  140.9730  143.0954 LP  0  0  0  0  0  0  0  0  0  0  0  0  # atno 17320 bound_to 7965
  144.6806  139.9909  143.7484 LP  0  0  0  0  0  0  0  0  0  0  0  0  # atno 17321 bound_to 7965
  140.1665  143.4231  152.2031 LP  0  0  0  0  0  0  0  0  0  0  0  0  # atno 17342 bound_to 10162
  139.5496  144.7327  151.4474 LP  0  0  0  0  0  0  0  0  0  0  0  0  # atno 17343 bound_to 10162
  157.6323  130.8739  149.9297 LP  0  0  0  0  0  0  0  0  0  0  0  0  # atno 17370 bound_to 10713
  156.0848  130.3669  150.0509 LP  0  0  0  0  0  0  0  0  0  0  0  0  # atno 17371 bound_to 10713
  139.9112  135.0190  156.7698 LP  0  0  0  0  0  0  0  0  0  0  0  0  # atno 17394 bound_to 11000
  140.6669  133.9595  155.7835 LP  0  0  0  0  0  0  0  0  0  0  0  0  # atno 17395 bound_to 11000

$$$$
