AV-unprocessed.smi:265|AV-procd|sdf|2027|dock9
  -GOLD-   2262021233D 1   1.00000     0.00000
 Structure written by MMmdl.
 52 56  0  0  0  0  0  0  0  0  1 V2000
  148.9555  135.0206  157.5132 C   0  0  0  0  0  0  0  0  0  0  0  0
  148.4367  134.2935  156.2635 C   0  0  2  0  0  0  0  0  0  0  0  0
  148.6085  132.8845  156.3887 O   0  0  0  0  0  0  0  0  0  0  0  0
  148.8789  132.3069  155.1140 C   0  0  0  0  0  0  0  0  0  0  0  0
  148.7193  133.4391  154.1030 C   0  0  0  0  0  0  0  0  0  0  0  0
  149.0920  134.6700  154.9212 C   0  0  1  0  0  0  0  0  0  0  0  0
  148.4541  135.8044  154.3644 O   0  0  0  0  0  0  0  0  0  0  0  0
  150.6212  134.9259  155.0117 C   0  0  0  0  0  0  0  0  0  0  0  0
  150.9708  136.1592  155.6986 N   0  0  0  0  0  0  0  0  0  0  0  0
  151.6126  136.2746  156.9108 C   0  0  0  0  0  0  0  0  0  0  0  0
  151.8139  137.4973  157.3198 N   0  0  0  0  0  0  0  0  0  0  0  0
  151.2812  138.2870  156.3074 C   0  0  0  0  0  0  0  0  0  0  0  0
  151.1580  139.6908  156.1056 C   0  0  0  0  0  0  0  0  0  0  0  0
  151.6308  140.6039  156.9915 N   0  0  0  0  0  0  0  0  0  0  0  0
  152.2491  140.1006  158.2232 C   0  0  0  0  0  0  0  0  0  0  0  0
  153.0349  141.2087  158.9501 C   0  0  0  0  0  0  0  0  0  0  0  0
  152.1320  142.4280  159.1767 C   0  0  1  0  0  0  0  0  0  0  0  0
  152.8395  143.5159  159.7523 O   0  0  0  0  0  0  0  0  0  0  0  0
  151.9940  144.6107  160.1225 C   0  0  0  0  0  0  0  0  0  0  0  0
  150.9907  144.9943  159.0136 C   0  0  0  0  0  0  0  0  0  0  0  0
  150.3695  146.0517  159.0898 O   0  0  0  0  0  0  0  0  0  0  0  0
  150.7956  144.1272  158.0064 N   0  0  0  0  0  0  0  0  0  0  0  0
  151.5916  142.9207  157.8254 C   0  0  2  0  0  0  0  0  0  0  0  0
  150.7966  141.7992  157.1393 C   0  0  0  0  0  0  0  0  0  0  0  0
  150.5393  140.1061  154.9676 N   0  0  0  0  0  0  0  0  0  0  0  0
  150.0839  139.2149  154.0820 C   0  0  0  0  0  0  0  0  0  0  0  0
  150.1375  137.8831  154.1358 N   0  0  0  0  0  0  0  0  0  0  0  0
  150.7464  137.4591  155.2799 C   0  0  0  0  0  0  0  0  0  0  0  0
  151.3120  142.1396  159.8381 H   0  0  0  0  0  0  0  0  0  0  0  0
  152.4310  143.1929  157.1829 H   0  0  0  0  0  0  0  0  0  0  0  0
  148.8562  136.1011  157.4075 H   0  0  0  0  0  0  0  0  0  0  0  0
  150.0037  134.7941  157.7082 H   0  0  0  0  0  0  0  0  0  0  0  0
  148.3886  134.7214  158.3949 H   0  0  0  0  0  0  0  0  0  0  0  0
  147.3603  134.4608  156.1884 H   0  0  0  0  0  0  0  0  0  0  0  0
  149.9020  131.9297  155.1112 H   0  0  0  0  0  0  0  0  0  0  0  0
  148.2103  131.4711  154.9071 H   0  0  0  0  0  0  0  0  0  0  0  0
  149.3082  133.2936  153.1982 H   0  0  0  0  0  0  0  0  0  0  0  0
  147.6723  133.4921  153.7988 H   0  0  0  0  0  0  0  0  0  0  0  0
  148.5047  135.7448  153.4228 H   0  0  0  0  0  0  0  0  0  0  0  0
  151.1142  134.1046  155.5332 H   0  0  0  0  0  0  0  0  0  0  0  0
  151.0606  134.9570  154.0140 H   0  0  0  0  0  0  0  0  0  0  0  0
  151.9244  135.4167  157.4887 H   0  0  0  0  0  0  0  0  0  0  0  0
  151.4709  139.7086  158.8796 H   0  0  0  0  0  0  0  0  0  0  0  0
  152.9221  139.2738  157.9918 H   0  0  0  0  0  0  0  0  0  0  0  0
  153.4153  140.8380  159.9022 H   0  0  0  0  0  0  0  0  0  0  0  0
  153.9031  141.4956  158.3554 H   0  0  0  0  0  0  0  0  0  0  0  0
  151.4358  144.3452  161.0213 H   0  0  0  0  0  0  0  0  0  0  0  0
  152.6155  145.4712  160.3713 H   0  0  0  0  0  0  0  0  0  0  0  0
  150.1190  144.3559  157.2926 H   0  0  0  0  0  0  0  0  0  0  0  0
  150.4311  142.1524  156.1758 H   0  0  0  0  0  0  0  0  0  0  0  0
  149.9178  141.5428  157.7328 H   0  0  0  0  0  0  0  0  0  0  0  0
  149.6098  139.6281  153.2039 H   0  0  0  0  0  0  0  0  0  0  0  0
  1  2  1  0  0  0  0
  1 31  1  0  0  0  0
  1 32  1  0  0  0  0
  1 33  1  0  0  0  0
  2  6  1  0  0  0  0
  2  3  1  0  0  0  0
  2 34  1  0  0  0  0
  3  4  1  0  0  0  0
  4  5  1  0  0  0  0
  4 35  1  0  0  0  0
  4 36  1  0  0  0  0
  5  6  1  0  0  0  0
  5 37  1  0  0  0  0
  5 38  1  0  0  0  0
  6  7  1  0  0  0  0
  6  8  1  0  0  0  0
  7 39  1  0  0  0  0
  8  9  1  0  0  0  0
  8 40  1  0  0  0  0
  8 41  1  0  0  0  0
  9 28  1  0  0  0  0
  9 10  1  0  0  0  0
 10 11  2  0  0  0  0
 10 42  1  0  0  0  0
 11 12  1  0  0  0  0
 12 28  2  0  0  0  0
 12 13  1  0  0  0  0
 13 14  1  0  0  0  0
 13 25  2  0  0  0  0
 14 24  1  0  0  0  0
 14 15  1  0  0  0  0
 15 16  1  0  0  0  0
 15 43  1  0  0  0  0
 15 44  1  0  0  0  0
 16 17  1  0  0  0  0
 16 45  1  0  0  0  0
 16 46  1  0  0  0  0
 17 29  1  0  0  0  0
 17 23  1  0  0  0  0
 17 18  1  0  0  0  0
 18 19  1  0  0  0  0
 19 20  1  0  0  0  0
 19 47  1  0  0  0  0
 19 48  1  0  0  0  0
 20 21  2  0  0  0  0
 20 22  1  0  0  0  0
 22 23  1  0  0  0  0
 22 49  1  0  0  0  0
 23 30  1  0  0  0  0
 23 24  1  0  0  0  0
 24 50  1  0  0  0  0
 24 51  1  0  0  0  0
 25 26  1  0  0  0  0
 26 27  2  0  0  0  0
 26 52  1  0  0  0  0
 27 28  1  0  0  0  0
M  END
> <s_m_source_file>
AV-unprocessed.smi

> <i_m_source_file_index>
265

> <i_lp_mmshare_version>
43012

> <i_f3d_flags>
0

> <s_epik_input>
W0NIMl0xW0NIMl1PW0NAQEhdKFtDSDNdKVtDQEBdMShbT0hdKVtDSDJdbihbY0hdbjIpYyhjMjMpbltjSF1uYzNOKFtDSDJdW0NIMl00KVtDSDJdW0NAQEhdKFtDQEhdNDUpW05IXUMoPU8pW0NIMl1PNQ==

> <s_epik_cmdline>
J2VwaWtfcHl0aG9uJywgJy1waCcsICc3LjAnLCAnLXRuJywgJzgnLCAnLW1hJywgJzIwMCcsICctbWV0YWxfYmluZGluZycsICctaW1hZScsICc8aW5maWxlLm1hZT4nLCAnLW9tYWUnLCAnPG91dGZpbGUubWFlPic=

> <r_lp_tautomer_probability>
1

> <r_epik_Ionization_Penalty>
0.00221504

> <r_epik_Ionization_Penalty_Charging>
0

> <r_epik_Ionization_Penalty_Neutral>
0.00221504

> <r_epik_State_Penalty>
-0

> <r_epik_Charging_Adjusted_Penalty>
0

> <i_epik_Tot_Q>
0

> <i_epik_Tot_abs_Q>
0

> <r_epik_Metal_State_Penalty>
-0

> <b_epik_Metal_Only>
0

> <s_lp_Force_Field>
OPLS_2005

> <r_lp_Energy>
44.3077

> <b_lp_Chiralities_Consistent>
1

> <s_lp_Variant>
AV-unprocessed.smi:265-13

> <Gold.Version>
5.8.1

> <Gold.Id.Protein>
6NUR|6NUR_protein|mol2

> <Gold.PLP.Fitness>
45.2541

> <Gold.PLP.PLP>
-36.5529

> <Gold.PLP.part.hbond>
-5.0693

> <Gold.PLP.part.metal>
0.0000

> <Gold.PLP.part.buried>
-2.7720

> <Gold.PLP.part.nonpolar>
-30.8661

> <Gold.PLP.part.repulsive>
1.8310

> <Gold.PLP.ligand.clash>
0.9689

> <Gold.PLP.ligand.torsion>
0.4436

> <Gold.PLP.Chemscore.Hbond>
2.3750

> <Gold.PLP.Chemscore.CHOScore>
1.0000

> <Gold.PLP.Chemscore.Metal>
0.0000

> <Gold.Chemscore.Hbonds>
donor molecule, donor type, donor heavy atom, donor atom, acceptor molecule, acceptor atom, score
      L1  H     7    39       P1  7948  1.00
      L1  H    22    49       P1  8028  0.96
      P1  H  7989  7998       L1    25  0.35
      L1  C    26    52       P1  7957  1.00

> <Gold.PLP.Chemscore.Internal.Correction>
0.4324

> <Gold.Rescore>
     Score         DG    S(hbond)    S(metal)    S(lipo)     H(rot)  DE(clash)    DE(int)     intcor
      8.11     -12.95       1.00        0.00      84.45       2.25       0.11       4.74       ----

> <Gold.Chemscore.Fitness>
8.1073

> <Gold.Chemscore.DG>
-12.9528

> <Gold.Chemscore.ZeroCoef>
-5.4800

> <Gold.Chemscore.Hbond>
0.9999

> <Gold.Chemscore.Metal>
0.0000

> <Gold.Chemscore.Lipo>
84.4549

> <Gold.Chemscore.Internal_Hbond>
0.0000

> <Gold.Chemscore.DEClash>
0.1092

> <Gold.Chemscore.DEInternal>
4.7364

> <Gold.Chemscore.Rot>
2.2453

> <Gold.Chemscore.Internal.Correction>
   9.000000E+99

> <Gold.Chemscore.Hbonds>
donor molecule, donor type, donor heavy atom, donor atom, acceptor molecule, acceptor atom, score
      L1  H     7    39       P1  7948  0.98
      L1  H    22    49       P1  8028  0.50
      P1  H  7989  7998       L1    25  0.01

> <Gold.Chemscore.Hbond.Weighted>
-3.3395

> <Gold.Chemscore.Metal.Weighted>
-0.0000

> <Gold.Chemscore.Lipo.Weighted>
-9.8812

> <Gold.Chemscore.Internal_Hbond.Weighted>
0.0000

> <Gold.Chemscore.DEClash.Weighted>
0.1092

> <Gold.Chemscore.DEInternal.Weighted>
4.7364

> <Gold.Chemscore.Rot.Weighted>
5.7479

> <Gold.Chemscore.Internal.Correction.Weighted>
   9.000000E+99

> <Gold.Protein.RotatedTorsions>
[ 6907 6896 6895 6894 ] final   -1.71 input  -60.11 | X-H torsion
[ 7974 7965 7964 7962 ] final -122.09 input  175.53 | X-H torsion
[ 8008 7997 7996 7995 ] final  -49.58 input   59.86 | X-H torsion
[ 10167 10162 10161 10158 ] final  173.77 input  -65.29 | X-H torsion
[ 10718 10713 10712 10709 ] final  169.67 input   66.30 | X-H torsion
[ 10763 10752 10751 10750 ] final -106.11 input  -60.55 | X-H torsion
[ 11005 11000 10999 10996 ] final  140.52 input  -57.11 | X-H torsion

> <Gold.Protein.ActiveResidues>
 VAL166  LYS551  ARG553  GLY616  TRP617  ASP618  TYR619  PRO620  LYS621  CYS622 
 ASP623  PHE694  ASN695  SER759  ASP760  ASP761  ALA762  ILE779  LEU786  VAL792 
 PHE793  MET794  SER795  GLU796  ALA797  LYS798  CYS799  TRP800  GLU811  SER814 

> <Gold.Protein.RotatedAtoms>
  151.5416  135.1068  159.9927 H   0  0  0  0  0  0  0  0  0  0  0  0  # atno 6907 bound_to 6896
  152.4532  133.7667  159.6787 H   0  0  0  0  0  0  0  0  0  0  0  0  # atno 6908 bound_to 6896
  150.8467  133.7783  159.3065 H   0  0  0  0  0  0  0  0  0  0  0  0  # atno 6909 bound_to 6896
  145.0332  140.8084  143.4311 H   0  0  0  0  0  0  0  0  0  0  0  0  # atno 7974 bound_to 7965
  154.4046  140.1293  156.4526 H   0  0  0  0  0  0  0  0  0  0  0  0  # atno 8008 bound_to 7997
  155.7351  140.3491  155.5058 H   0  0  0  0  0  0  0  0  0  0  0  0  # atno 8009 bound_to 7997
  155.9091  140.1032  157.1283 H   0  0  0  0  0  0  0  0  0  0  0  0  # atno 8010 bound_to 7997
  139.5119  144.3222  152.0191 H   0  0  0  0  0  0  0  0  0  0  0  0  # atno 10167 bound_to 10162
  157.0193  131.0227  151.2779 H   0  0  0  0  0  0  0  0  0  0  0  0  # atno 10718 bound_to 10713
  154.7991  135.4724  154.0232 H   0  0  0  0  0  0  0  0  0  0  0  0  # atno 10763 bound_to 10752
  153.1751  135.6831  153.8561 H   0  0  0  0  0  0  0  0  0  0  0  0  # atno 10764 bound_to 10752
  153.8130  135.3214  155.3380 H   0  0  0  0  0  0  0  0  0  0  0  0  # atno 10765 bound_to 10752
  140.0333  134.9341  157.0705 H   0  0  0  0  0  0  0  0  0  0  0  0  # atno 11005 bound_to 11000
  145.1744  139.2386  143.5325 LP  0  0  0  0  0  0  0  0  0  0  0  0  # atno 17320 bound_to 7965
  146.3501  140.1502  142.8592 LP  0  0  0  0  0  0  0  0  0  0  0  0  # atno 17321 bound_to 7965
  140.2664  144.4012  150.6167 LP  0  0  0  0  0  0  0  0  0  0  0  0  # atno 17342 bound_to 10162
  140.6120  143.2170  151.6867 LP  0  0  0  0  0  0  0  0  0  0  0  0  # atno 17343 bound_to 10162
  157.5262  130.8029  149.7864 LP  0  0  0  0  0  0  0  0  0  0  0  0  # atno 17370 bound_to 10713
  156.0108  130.3834  150.2272 LP  0  0  0  0  0  0  0  0  0  0  0  0  # atno 17371 bound_to 10713
  140.4188  134.1902  155.7164 LP  0  0  0  0  0  0  0  0  0  0  0  0  # atno 17394 bound_to 11000
  141.1843  133.8346  157.1143 LP  0  0  0  0  0  0  0  0  0  0  0  0  # atno 17395 bound_to 11000

$$$$
