AV-unprocessed.smi:3093|AV-procd|sdf|11786|dock4
  -GOLD-   2272017163D 1   1.00000     0.00000
 Structure written by MMmdl.
 25 26  0  0  0  0  0  0  0  0  2 V2000
  153.1627  142.4425  161.7783 C   0  0  0  0  0  0  0  0  0  0  0  0
  152.5100  143.6754  162.0574 C   0  0  0  0  0  0  0  0  0  0  0  0
  152.1056  144.2967  160.9612 N   0  0  0  0  0  0  0  0  0  0  0  0
  152.4950  143.4909  159.9489 N   0  0  0  0  0  0  0  0  0  0  0  0
  152.1903  143.8489  158.5736 C   0  0  0  0  0  0  0  0  0  0  0  0
  151.1050  142.9563  157.9399 C   0  0  2  0  0  0  0  0  0  0  0  0
  151.3165  141.4614  158.1893 C   0  0  0  0  0  0  0  0  0  0  0  0
  150.5387  140.8147  157.0492 C   0  0  0  0  0  0  0  0  0  0  0  0
  150.7592  141.7760  155.8783 C   0  0  0  0  0  0  0  0  0  0  0  0
  151.0422  143.0993  156.4704 N   0  3  0  0  0  0  0  0  0  0  0  0
  153.1244  142.3558  160.4161 C   0  0  0  0  0  0  0  0  0  0  0  0
  153.5860  141.7302  162.4710 H   0  0  0  0  0  0  0  0  0  0  0  0
  152.3163  144.1325  163.0166 H   0  0  0  0  0  0  0  0  0  0  0  0
  151.8814  144.8949  158.5487 H   0  0  0  0  0  0  0  0  0  0  0  0
  153.1129  143.7813  157.9962 H   0  0  0  0  0  0  0  0  0  0  0  0
  150.1226  143.2256  158.3317 H   0  0  0  0  0  0  0  0  0  0  0  0
  152.3738  141.2048  158.1055 H   0  0  0  0  0  0  0  0  0  0  0  0
  150.9693  141.1437  159.1730 H   0  0  0  0  0  0  0  0  0  0  0  0
  150.8681  139.7983  156.8318 H   0  0  0  0  0  0  0  0  0  0  0  0
  149.4785  140.7769  157.3032 H   0  0  0  0  0  0  0  0  0  0  0  0
  151.6263  141.4697  155.2925 H   0  0  0  0  0  0  0  0  0  0  0  0
  149.8982  141.8155  155.2106 H   0  0  0  0  0  0  0  0  0  0  0  0
  150.3249  143.7656  156.2218 H   0  0  0  0  0  0  0  0  0  0  0  0
  153.4897  141.5885  159.7492 H   0  0  0  0  0  0  0  0  0  0  0  0
  151.9355  143.4213  156.1268 H   0  0  0  0  0  0  0  0  0  0  0  0
  1 11  2  0  0  0  0
  1  2  1  0  0  0  0
  1 12  1  0  0  0  0
  2  3  2  0  0  0  0
  2 13  1  0  0  0  0
  3  4  1  0  0  0  0
  4  5  1  0  0  0  0
  4 11  1  0  0  0  0
  5  6  1  0  0  0  0
  5 14  1  0  0  0  0
  5 15  1  0  0  0  0
  6 10  1  0  0  0  0
  6  7  1  0  0  0  0
  6 16  1  0  0  0  0
  7  8  1  0  0  0  0
  7 17  1  0  0  0  0
  7 18  1  0  0  0  0
  8  9  1  0  0  0  0
  8 19  1  0  0  0  0
  8 20  1  0  0  0  0
  9 10  1  0  0  0  0
  9 21  1  0  0  0  0
  9 22  1  0  0  0  0
 10 23  1  0  0  0  0
 10 25  1  0  0  0  0
 11 24  1  0  0  0  0
M  CHG  1  10   1
M  END
> <s_m_source_file>
AV-unprocessed.smi

> <i_m_source_file_index>
3093

> <i_lp_mmshare_version>
43012

> <i_f3d_flags>
0

> <s_epik_input>
W2NIXTFbY0hdW2NIXW5uMVtDSDJdW0NAQEhdMltDSDJdW0NIMl1bQ0gyXVtOSF0y

> <s_epik_cmdline>
J2VwaWtfcHl0aG9uJywgJy1waCcsICc3LjAnLCAnLXRuJywgJzgnLCAnLW1hJywgJzIwMCcsICctbWV0YWxfYmluZGluZycsICctaW1hZScsICc8aW5maWxlLm1hZT4nLCAnLW9tYWUnLCAnPG91dGZpbGUubWFlPic=

> <r_lp_tautomer_probability>
1

> <r_epik_Ionization_Penalty>
0.000867737

> <r_epik_Ionization_Penalty_Charging>
0.000863359

> <r_epik_Ionization_Penalty_Neutral>
4.37747e-06

> <r_epik_State_Penalty>
0.000557253

> <r_epik_Charging_Adjusted_Penalty>
0.00142061

> <i_epik_Tot_Q>
1

> <i_epik_Tot_abs_Q>
1

> <r_epik_Metal_State_Penalty>
-0

> <b_epik_Metal_Only>
0

> <s_lp_Force_Field>
OPLS_2005

> <r_lp_Energy>
25.0009

> <b_lp_Chiralities_Consistent>
1

> <s_lp_Variant>
AV-unprocessed.smi:3093-1

> <Gold.Version>
5.8.1

> <Gold.Id.Protein>
6NUR|6NUR_protein|mol2

> <Gold.PLP.Fitness>
37.1908

> <Gold.PLP.PLP>
-31.5795

> <Gold.PLP.part.hbond>
-1.0000

> <Gold.PLP.part.metal>
0.0000

> <Gold.PLP.part.buried>
-4.3490

> <Gold.PLP.part.nonpolar>
-26.0402

> <Gold.PLP.part.repulsive>
0.2055

> <Gold.PLP.ligand.clash>
0.0000

> <Gold.PLP.ligand.torsion>
0.1961

> <Gold.PLP.Chemscore.Hbond>
2.0000

> <Gold.PLP.Chemscore.CHOScore>
0.0000

> <Gold.PLP.Chemscore.Metal>
0.0000

> <Gold.Chemscore.Hbonds>
donor molecule, donor type, donor heavy atom, donor atom, acceptor molecule, acceptor atom, score
      L1  H    10    23       P1  8028  2.00

> <Gold.PLP.Chemscore.Internal.Correction>
0.0034

> <Gold.Rescore>
     Score         DG    S(hbond)    S(metal)    S(lipo)     H(rot)  DE(clash)    DE(int)     intcor
     14.03     -14.88       1.00        0.00      78.18       1.21       0.01       0.84       ----

> <Gold.Chemscore.Fitness>
14.0343

> <Gold.Chemscore.DG>
-14.8792

> <Gold.Chemscore.ZeroCoef>
-5.4800

> <Gold.Chemscore.Hbond>
0.9997

> <Gold.Chemscore.Metal>
0.0000

> <Gold.Chemscore.Lipo>
78.1774

> <Gold.Chemscore.Internal_Hbond>
0.0000

> <Gold.Chemscore.DEClash>
0.0072

> <Gold.Chemscore.DEInternal>
0.8377

> <Gold.Chemscore.Rot>
1.2056

> <Gold.Chemscore.Internal.Correction>
   9.000000E+99

> <Gold.Chemscore.Hbonds>
donor molecule, donor type, donor heavy atom, donor atom, acceptor molecule, acceptor atom, score
      L1  H    10    23       P1  8028  1.00

> <Gold.Chemscore.Hbond.Weighted>
-3.3389

> <Gold.Chemscore.Metal.Weighted>
-0.0000

> <Gold.Chemscore.Lipo.Weighted>
-9.1468

> <Gold.Chemscore.Internal_Hbond.Weighted>
0.0000

> <Gold.Chemscore.DEClash.Weighted>
0.0072

> <Gold.Chemscore.DEInternal.Weighted>
0.8377

> <Gold.Chemscore.Rot.Weighted>
3.0864

> <Gold.Chemscore.Internal.Correction.Weighted>
   9.000000E+99

> <Gold.Protein.RotatedTorsions>
[ 6907 6896 6895 6894 ] final -107.09 input  -60.11 | X-H torsion
[ 7974 7965 7964 7962 ] final  -27.07 input  175.53 | X-H torsion
[ 8008 7997 7996 7995 ] final  -81.01 input   59.86 | X-H torsion
[ 10167 10162 10161 10158 ] final   -6.00 input  -65.29 | X-H torsion
[ 10718 10713 10712 10709 ] final   41.80 input   66.30 | X-H torsion
[ 10763 10752 10751 10750 ] final   50.16 input  -60.55 | X-H torsion
[ 11005 11000 10999 10996 ] final   77.85 input  -57.11 | X-H torsion

> <Gold.Protein.ActiveResidues>
 VAL166  LYS551  ARG553  GLY616  TRP617  ASP618  TYR619  PRO620  LYS621  CYS622 
 ASP623  PHE694  ASN695  SER759  ASP760  ASP761  ALA762  ILE779  LEU786  VAL792 
 PHE793  MET794  SER795  GLU796  ALA797  LYS798  CYS799  TRP800  GLU811  SER814 

> <Gold.Protein.RotatedAtoms>
  150.7424  133.9879  159.3597 H   0  0  0  0  0  0  0  0  0  0  0  0  # atno 6907 bound_to 6896
  151.7825  135.0756  160.0385 H   0  0  0  0  0  0  0  0  0  0  0  0  # atno 6908 bound_to 6896
  152.3264  133.5873  159.5816 H   0  0  0  0  0  0  0  0  0  0  0  0  # atno 6909 bound_to 6896
  146.1382  140.5104  142.8663 H   0  0  0  0  0  0  0  0  0  0  0  0  # atno 7974 bound_to 7965
  154.5940  140.0654  156.9278 H   0  0  0  0  0  0  0  0  0  0  0  0  # atno 8008 bound_to 7997
  155.2246  140.3333  155.4293 H   0  0  0  0  0  0  0  0  0  0  0  0  # atno 8009 bound_to 7997
  156.2275  140.1826  156.7311 H   0  0  0  0  0  0  0  0  0  0  0  0  # atno 8010 bound_to 7997
  140.6982  143.6243  150.8582 H   0  0  0  0  0  0  0  0  0  0  0  0  # atno 10167 bound_to 10162
  157.3976  130.7842  149.7321 H   0  0  0  0  0  0  0  0  0  0  0  0  # atno 10718 bound_to 10713
  152.9785  135.5888  154.4207 H   0  0  0  0  0  0  0  0  0  0  0  0  # atno 10763 bound_to 10752
  154.3832  135.2767  155.2201 H   0  0  0  0  0  0  0  0  0  0  0  0  # atno 10764 bound_to 10752
  154.4105  135.6082  153.6004 H   0  0  0  0  0  0  0  0  0  0  0  0  # atno 10765 bound_to 10752
  139.9237  134.7716  156.1574 H   0  0  0  0  0  0  0  0  0  0  0  0  # atno 11005 bound_to 11000
  144.7763  140.5747  143.6635 LP  0  0  0  0  0  0  0  0  0  0  0  0  # atno 17320 bound_to 7965
  145.5107  139.1479  143.3606 LP  0  0  0  0  0  0  0  0  0  0  0  0  # atno 17321 bound_to 7965
  139.9963  143.5792  152.2892 LP  0  0  0  0  0  0  0  0  0  0  0  0  # atno 17342 bound_to 10162
  139.6465  144.7658  151.2233 LP  0  0  0  0  0  0  0  0  0  0  0  0  # atno 17343 bound_to 10162
  155.9814  130.4019  150.3471 LP  0  0  0  0  0  0  0  0  0  0  0  0  # atno 17370 bound_to 10713
  157.1594  131.0341  151.2848 LP  0  0  0  0  0  0  0  0  0  0  0  0  # atno 17371 bound_to 10713
  141.0778  133.6767  156.2273 LP  0  0  0  0  0  0  0  0  0  0  0  0  # atno 17394 bound_to 11000
  140.6398  134.5177  157.5568 LP  0  0  0  0  0  0  0  0  0  0  0  0  # atno 17395 bound_to 11000

$$$$
