AV-unprocessed.smi:3133|AV-procd|sdf|11940|dock1
  -GOLD-   2272017333D 1   1.00000     0.00000
 Structure written by MMmdl.
 32 33  0  0  0  0  0  0  0  0  1 V2000
  148.0739  139.1196  153.7694 C   0  0  0  0  0  0  0  0  0  0  0  0
  149.2862  139.8904  154.3304 C   0  0  1  0  0  0  0  0  0  0  0  0
  148.9472  140.6571  155.6177 C   0  0  0  0  0  0  0  0  0  0  0  0
  147.7800  140.7594  155.9974 O   0  0  0  0  0  0  0  0  0  0  0  0
  149.9839  141.1880  156.2848 N   0  0  0  0  0  0  0  0  0  0  0  0
  149.8847  141.9404  157.5300 C   0  0  0  0  0  0  0  0  0  0  0  0
  151.1705  142.7318  157.8219 C   0  0  1  0  0  0  0  0  0  0  0  0
  150.9414  143.9953  158.6459 C   0  0  0  0  0  0  0  0  0  0  0  0
  152.3250  144.2447  159.2030 C   0  0  0  0  0  0  0  0  0  0  0  0
  152.8377  142.8268  159.4548 C   0  0  0  0  0  0  0  0  0  0  0  0
  152.0693  141.9653  158.6168 O   0  0  0  0  0  0  0  0  0  0  0  0
  150.4405  139.0275  154.5517 N   0  0  0  0  0  0  0  0  0  0  0  0
  150.5542  137.7027  154.4327 C   0  0  0  0  0  0  0  0  0  0  0  0
  151.7759  137.2430  154.6642 N   0  0  0  0  0  0  0  0  0  0  0  0
  152.4164  138.4208  154.9258 C   0  0  0  0  0  0  0  0  0  0  0  0
  151.6663  139.5204  154.8604 N   0  0  0  0  0  0  0  0  0  0  0  0
  147.2414  139.7935  153.5643 H   0  0  0  0  0  0  0  0  0  0  0  0
  147.7154  138.3555  154.4604 H   0  0  0  0  0  0  0  0  0  0  0  0
  148.3297  138.6231  152.8330 H   0  0  0  0  0  0  0  0  0  0  0  0
  149.5770  140.6224  153.5747 H   0  0  0  0  0  0  0  0  0  0  0  0
  150.9098  141.0649  155.9016 H   0  0  0  0  0  0  0  0  0  0  0  0
  149.0278  142.6147  157.4844 H   0  0  0  0  0  0  0  0  0  0  0  0
  149.6832  141.2393  158.3404 H   0  0  0  0  0  0  0  0  0  0  0  0
  151.6777  143.0006  156.8936 H   0  0  0  0  0  0  0  0  0  0  0  0
  150.5611  144.8280  158.0533 H   0  0  0  0  0  0  0  0  0  0  0  0
  150.2402  143.8035  159.4595 H   0  0  0  0  0  0  0  0  0  0  0  0
  152.9435  144.7389  158.4523 H   0  0  0  0  0  0  0  0  0  0  0  0
  152.3211  144.8625  160.1012 H   0  0  0  0  0  0  0  0  0  0  0  0
  153.9026  142.7367  159.2393 H   0  0  0  0  0  0  0  0  0  0  0  0
  152.6774  142.5354  160.4931 H   0  0  0  0  0  0  0  0  0  0  0  0
  149.7266  137.0616  154.1668 H   0  0  0  0  0  0  0  0  0  0  0  0
  153.4687  138.4699  155.1649 H   0  0  0  0  0  0  0  0  0  0  0  0
  1  2  1  0  0  0  0
  1 17  1  0  0  0  0
  1 18  1  0  0  0  0
  1 19  1  0  0  0  0
  2  3  1  0  0  0  0
  2 12  1  0  0  0  0
  2 20  1  0  0  0  0
  3  4  2  0  0  0  0
  3  5  1  0  0  0  0
  5  6  1  0  0  0  0
  5 21  1  0  0  0  0
  6  7  1  0  0  0  0
  6 22  1  0  0  0  0
  6 23  1  0  0  0  0
  7 11  1  0  0  0  0
  7  8  1  0  0  0  0
  7 24  1  0  0  0  0
  8  9  1  0  0  0  0
  8 25  1  0  0  0  0
  8 26  1  0  0  0  0
  9 10  1  0  0  0  0
  9 27  1  0  0  0  0
  9 28  1  0  0  0  0
 10 11  1  0  0  0  0
 10 29  1  0  0  0  0
 10 30  1  0  0  0  0
 12 16  1  0  0  0  0
 12 13  1  0  0  0  0
 13 14  2  0  0  0  0
 13 31  1  0  0  0  0
 14 15  1  0  0  0  0
 15 16  2  0  0  0  0
 15 32  1  0  0  0  0
M  END
> <s_m_source_file>
AV-unprocessed.smi

> <i_m_source_file_index>
3133

> <i_lp_mmshare_version>
43012

> <i_f3d_flags>
0

> <s_epik_input>
bjFbY0hdbltjSF1uMVtDQEhdKFtDSDNdKUMoPU8pW05IXVtDSDJdW0NAQEhdMltDSDJdW0NIMl1bQ0gyXU8y

> <s_epik_cmdline>
J2VwaWtfcHl0aG9uJywgJy1waCcsICc3LjAnLCAnLXRuJywgJzgnLCAnLW1hJywgJzIwMCcsICctbWV0YWxfYmluZGluZycsICctaW1hZScsICc8aW5maWxlLm1hZT4nLCAnLW9tYWUnLCAnPG91dGZpbGUubWFlPic=

> <r_lp_tautomer_probability>
1

> <r_epik_Ionization_Penalty>
1.2027e-05

> <r_epik_Ionization_Penalty_Charging>
0

> <r_epik_Ionization_Penalty_Neutral>
1.2027e-05

> <r_epik_State_Penalty>
-0

> <r_epik_Charging_Adjusted_Penalty>
0

> <i_epik_Tot_Q>
0

> <i_epik_Tot_abs_Q>
0

> <r_epik_Metal_State_Penalty>
-0

> <b_epik_Metal_Only>
0

> <s_lp_Force_Field>
OPLS_2005

> <r_lp_Energy>
22.8462

> <b_lp_Chiralities_Consistent>
1

> <s_lp_Variant>
AV-unprocessed.smi:3133-4

> <Gold.Version>
5.8.1

> <Gold.Id.Protein>
6NUR|6NUR_protein|mol2

> <Gold.PLP.Fitness>
40.1857

> <Gold.PLP.PLP>
-32.9757

> <Gold.PLP.part.hbond>
-2.0000

> <Gold.PLP.part.metal>
0.0000

> <Gold.PLP.part.buried>
-5.4222

> <Gold.PLP.part.nonpolar>
-27.5466

> <Gold.PLP.part.repulsive>
0.3048

> <Gold.PLP.ligand.clash>
0.0000

> <Gold.PLP.ligand.torsion>
0.8259

> <Gold.PLP.Chemscore.Hbond>
1.9120

> <Gold.PLP.Chemscore.CHOScore>
0.9996

> <Gold.PLP.Chemscore.Metal>
0.0000

> <Gold.Chemscore.Hbonds>
donor molecule, donor type, donor heavy atom, donor atom, acceptor molecule, acceptor atom, score
      P1  H  7989  7998       L1    16  0.75
      P1  H 10752 10764       L1    14  0.94
      L1  C    13    31       P1  7948  0.96

> <Gold.PLP.Chemscore.Internal.Correction>
0.1272

> <Gold.Rescore>
     Score         DG    S(hbond)    S(metal)    S(lipo)     H(rot)  DE(clash)    DE(int)     intcor
     10.62     -13.01       1.75        0.00      63.68       2.26       0.03       2.36       ----

> <Gold.Chemscore.Fitness>
10.6169

> <Gold.Chemscore.DG>
-13.0058

> <Gold.Chemscore.ZeroCoef>
-5.4800

> <Gold.Chemscore.Hbond>
1.7514

> <Gold.Chemscore.Metal>
0.0000

> <Gold.Chemscore.Lipo>
63.6830

> <Gold.Chemscore.Internal_Hbond>
0.0000

> <Gold.Chemscore.DEClash>
0.0308

> <Gold.Chemscore.DEInternal>
2.3581

> <Gold.Chemscore.Rot>
2.2558

> <Gold.Chemscore.Internal.Correction>
   9.000000E+99

> <Gold.Chemscore.Hbonds>
donor molecule, donor type, donor heavy atom, donor atom, acceptor molecule, acceptor atom, score
      P1  H  7989  7998       L1    16  0.09
      P1  H 10752 10764       L1    14  0.80

> <Gold.Chemscore.Hbond.Weighted>
-5.8496

> <Gold.Chemscore.Metal.Weighted>
-0.0000

> <Gold.Chemscore.Lipo.Weighted>
-7.4509

> <Gold.Chemscore.Internal_Hbond.Weighted>
0.0000

> <Gold.Chemscore.DEClash.Weighted>
0.0308

> <Gold.Chemscore.DEInternal.Weighted>
2.3581

> <Gold.Chemscore.Rot.Weighted>
5.7747

> <Gold.Chemscore.Internal.Correction.Weighted>
   9.000000E+99

> <Gold.Protein.RotatedTorsions>
[ 6907 6896 6895 6894 ] final  -52.37 input  -60.11 | X-H torsion
[ 7974 7965 7964 7962 ] final   57.28 input  175.53 | X-H torsion
[ 8008 7997 7996 7995 ] final   69.79 input   59.86 | X-H torsion
[ 10167 10162 10161 10158 ] final  158.55 input  -65.29 | X-H torsion
[ 10718 10713 10712 10709 ] final  -63.68 input   66.30 | X-H torsion
[ 10763 10752 10751 10750 ] final  -83.31 input  -60.55 | X-H torsion
[ 11005 11000 10999 10996 ] final -135.90 input  -57.11 | X-H torsion

> <Gold.Protein.ActiveResidues>
 VAL166  LYS551  ARG553  GLY616  TRP617  ASP618  TYR619  PRO620  LYS621  CYS622 
 ASP623  PHE694  ASN695  SER759  ASP760  ASP761  ALA762  ILE779  LEU786  VAL792 
 PHE793  MET794  SER795  GLU796  ALA797  LYS798  CYS799  TRP800  GLU811  SER814 

> <Gold.Protein.RotatedAtoms>
  150.8525  134.7853  159.7019 H   0  0  0  0  0  0  0  0  0  0  0  0  # atno 6907 bound_to 6896
  152.4585  134.5233  159.9799 H   0  0  0  0  0  0  0  0  0  0  0  0  # atno 6908 bound_to 6896
  151.5352  133.3404  159.2961 H   0  0  0  0  0  0  0  0  0  0  0  0  # atno 6909 bound_to 6896
  145.9307  139.3805  143.0422 H   0  0  0  0  0  0  0  0  0  0  0  0  # atno 7974 bound_to 7965
  155.7290  140.3492  155.5050 H   0  0  0  0  0  0  0  0  0  0  0  0  # atno 8008 bound_to 7997
  155.9200  140.1065  157.1235 H   0  0  0  0  0  0  0  0  0  0  0  0  # atno 8009 bound_to 7997
  154.4068  140.1251  156.4654 H   0  0  0  0  0  0  0  0  0  0  0  0  # atno 8010 bound_to 7997
  139.4827  144.4814  151.8439 H   0  0  0  0  0  0  0  0  0  0  0  0  # atno 10167 bound_to 10162
  156.0776  130.4224  150.1311 H   0  0  0  0  0  0  0  0  0  0  0  0  # atno 10718 bound_to 10713
  154.5862  135.5560  153.7233 H   0  0  0  0  0  0  0  0  0  0  0  0  # atno 10763 bound_to 10752
  153.0099  135.6332  154.1914 H   0  0  0  0  0  0  0  0  0  0  0  0  # atno 10764 bound_to 10752
  154.1854  135.2885  155.3019 H   0  0  0  0  0  0  0  0  0  0  0  0  # atno 10765 bound_to 10752
  140.8855  134.1878  157.4563 H   0  0  0  0  0  0  0  0  0  0  0  0  # atno 11005 bound_to 11000
  145.8429  140.9571  143.0790 LP  0  0  0  0  0  0  0  0  0  0  0  0  # atno 17320 bound_to 7965
  144.6764  140.0308  143.7482 LP  0  0  0  0  0  0  0  0  0  0  0  0  # atno 17321 bound_to 7965
  140.4290  144.2141  150.5887 LP  0  0  0  0  0  0  0  0  0  0  0  0  # atno 17342 bound_to 10162
  140.4798  143.2383  151.8971 LP  0  0  0  0  0  0  0  0  0  0  0  0  # atno 17343 bound_to 10162
  156.9349  130.9726  151.3526 LP  0  0  0  0  0  0  0  0  0  0  0  0  # atno 17370 bound_to 10713
  157.5879  130.8422  149.8616 LP  0  0  0  0  0  0  0  0  0  0  0  0  # atno 17371 bound_to 10713
  139.8724  134.9836  156.5204 LP  0  0  0  0  0  0  0  0  0  0  0  0  # atno 17394 bound_to 11000
  140.8410  133.8205  155.9075 LP  0  0  0  0  0  0  0  0  0  0  0  0  # atno 17395 bound_to 11000

$$$$
