AV-unprocessed.smi:721|AV-procd|sdf|3503|dock3
  -GOLD-   22720 0493D 1   1.00000     0.00000
 Structure written by MMmdl.
 29 30  0  0  0  0  0  0  0  0  1 V2000
  146.3033  138.1464  152.5035 Cl  0  0  0  0  0  0  0  0  0  0  0  0
  147.2983  139.2620  153.3648 C   0  0  0  0  0  0  0  0  0  0  0  0
  148.5286  138.8742  153.9319 C   0  0  0  0  0  0  0  0  0  0  0  0
  149.3047  139.7513  154.6059 N   0  0  0  0  0  0  0  0  0  0  0  0
  148.8554  141.0051  154.7117 C   0  0  0  0  0  0  0  0  0  0  0  0
  149.6790  141.8722  155.4066 N   0  0  0  0  0  0  0  0  0  0  0  0
  150.7729  141.4651  156.2784 C   0  0  0  0  0  0  0  0  0  0  0  0
  150.4145  141.5975  157.7646 C   0  0  0  0  0  0  0  0  0  0  0  0
  151.5120  142.1687  158.4570 O   0  0  0  0  0  0  0  0  0  0  0  0
  151.8078  143.4833  158.0196 C   0  0  0  0  0  0  0  0  0  0  0  0
  152.5427  144.2136  159.1226 C   0  0  0  0  0  0  0  0  0  0  0  0
  152.0071  144.2060  160.5359 C   0  0  0  0  0  0  0  0  0  0  0  0
  151.9677  145.4758  159.7239 C   0  0  0  0  0  0  0  0  0  0  0  0
  147.7053  141.4784  154.2151 N   0  0  0  0  0  0  0  0  0  0  0  0
  146.9231  140.6089  153.5387 C   0  0  0  0  0  0  0  0  0  0  0  0
  148.8919  137.8608  153.8465 H   0  0  0  0  0  0  0  0  0  0  0  0
  149.4306  142.8509  155.3900 H   0  0  0  0  0  0  0  0  0  0  0  0
  151.0470  140.4343  156.0523 H   0  0  0  0  0  0  0  0  0  0  0  0
  151.6490  142.0726  156.0506 H   0  0  0  0  0  0  0  0  0  0  0  0
  149.5149  142.1996  157.8998 H   0  0  0  0  0  0  0  0  0  0  0  0
  150.2066  140.6077  158.1735 H   0  0  0  0  0  0  0  0  0  0  0  0
  152.4381  143.4574  157.1295 H   0  0  0  0  0  0  0  0  0  0  0  0
  150.8907  144.0189  157.7684 H   0  0  0  0  0  0  0  0  0  0  0  0
  153.6262  144.1846  159.0224 H   0  0  0  0  0  0  0  0  0  0  0  0
  151.0637  143.6943  160.7164 H   0  0  0  0  0  0  0  0  0  0  0  0
  152.7314  144.1471  161.3456 H   0  0  0  0  0  0  0  0  0  0  0  0
  152.6652  146.2665  159.9928 H   0  0  0  0  0  0  0  0  0  0  0  0
  150.9957  145.8119  159.3677 H   0  0  0  0  0  0  0  0  0  0  0  0
  145.9963  140.9909  153.1368 H   0  0  0  0  0  0  0  0  0  0  0  0
  1  2  1  0  0  0  0
  2 15  1  0  0  0  0
  2  3  2  0  0  0  0
  3  4  1  0  0  0  0
  3 16  1  0  0  0  0
  4  5  2  0  0  0  0
  5  6  1  0  0  0  0
  5 14  1  0  0  0  0
  6  7  1  0  0  0  0
  6 17  1  0  0  0  0
  7  8  1  0  0  0  0
  7 18  1  0  0  0  0
  7 19  1  0  0  0  0
  8  9  1  0  0  0  0
  8 20  1  0  0  0  0
  8 21  1  0  0  0  0
  9 10  1  0  0  0  0
 10 11  1  0  0  0  0
 10 22  1  0  0  0  0
 10 23  1  0  0  0  0
 11 13  1  0  0  0  0
 11 12  1  0  0  0  0
 11 24  1  0  0  0  0
 12 13  1  0  0  0  0
 12 25  1  0  0  0  0
 12 26  1  0  0  0  0
 13 27  1  0  0  0  0
 13 28  1  0  0  0  0
 14 15  2  0  0  0  0
 15 29  1  0  0  0  0
M  END
> <s_m_source_file>
AV-unprocessed.smi

> <i_m_source_file_index>
721

> <i_lp_mmshare_version>
43012

> <i_f3d_flags>
0

> <s_epik_input>
Q2xjMVtjSF1uYyhuW2NIXTEpW05IXVtDSDJdW0NIMl1PW0NIMl1bQ0hdMltDSDJdW0NIMl0y

> <s_epik_cmdline>
J2VwaWtfcHl0aG9uJywgJy1waCcsICc3LjAnLCAnLXRuJywgJzgnLCAnLW1hJywgJzIwMCcsICctbWV0YWxfYmluZGluZycsICctaW1hZScsICc8aW5maWxlLm1hZT4nLCAnLW9tYWUnLCAnPG91dGZpbGUubWFlPic=

> <r_lp_tautomer_probability>
1

> <r_epik_Ionization_Penalty>
7.18353e-06

> <r_epik_Ionization_Penalty_Charging>
0

> <r_epik_Ionization_Penalty_Neutral>
7.18353e-06

> <r_epik_State_Penalty>
-0

> <r_epik_Charging_Adjusted_Penalty>
0

> <i_epik_Tot_Q>
0

> <i_epik_Tot_abs_Q>
0

> <r_epik_Metal_State_Penalty>
-0

> <b_epik_Metal_Only>
0

> <s_lp_Force_Field>
OPLS_2005

> <r_lp_Energy>
6.1156

> <b_lp_Chiralities_Consistent>
1

> <s_lp_Variant>
AV-unprocessed.smi:721-1

> <Gold.Version>
5.8.1

> <Gold.Id.Protein>
6NUR|6NUR_protein|mol2

> <Gold.PLP.Fitness>
42.3523

> <Gold.PLP.PLP>
-34.9427

> <Gold.PLP.part.hbond>
-1.0000

> <Gold.PLP.part.metal>
0.0000

> <Gold.PLP.part.buried>
-1.7550

> <Gold.PLP.part.nonpolar>
-32.8649

> <Gold.PLP.part.repulsive>
0.4903

> <Gold.PLP.ligand.clash>
0.0000

> <Gold.PLP.ligand.torsion>
0.9982

> <Gold.PLP.Chemscore.Hbond>
1.0000

> <Gold.PLP.Chemscore.CHOScore>
1.9328

> <Gold.PLP.Chemscore.Metal>
0.0000

> <Gold.Chemscore.Hbonds>
donor molecule, donor type, donor heavy atom, donor atom, acceptor molecule, acceptor atom, score
      L1  H     6    17       P1  8028  1.00
      L1  C     3    16       P1  7948  0.95
      L1  C    15    29       P1 10175  1.00

> <Gold.PLP.Chemscore.Internal.Correction>
0.6076

> <Gold.Rescore>
     Score         DG    S(hbond)    S(metal)    S(lipo)     H(rot)  DE(clash)    DE(int)     intcor
     14.01     -15.03       1.00        0.00      91.87       1.77       0.06       0.96       ----

> <Gold.Chemscore.Fitness>
14.0145

> <Gold.Chemscore.DG>
-15.0325

> <Gold.Chemscore.ZeroCoef>
-5.4800

> <Gold.Chemscore.Hbond>
1.0000

> <Gold.Chemscore.Metal>
0.0000

> <Gold.Chemscore.Lipo>
91.8734

> <Gold.Chemscore.Internal_Hbond>
0.0000

> <Gold.Chemscore.DEClash>
0.0588

> <Gold.Chemscore.DEInternal>
0.9592

> <Gold.Chemscore.Rot>
1.7722

> <Gold.Chemscore.Internal.Correction>
   9.000000E+99

> <Gold.Chemscore.Hbonds>
donor molecule, donor type, donor heavy atom, donor atom, acceptor molecule, acceptor atom, score
      L1  H     6    17       P1  8028  0.99

> <Gold.Chemscore.Hbond.Weighted>
-3.3400

> <Gold.Chemscore.Metal.Weighted>
-0.0000

> <Gold.Chemscore.Lipo.Weighted>
-10.7492

> <Gold.Chemscore.Internal_Hbond.Weighted>
0.0000

> <Gold.Chemscore.DEClash.Weighted>
0.0588

> <Gold.Chemscore.DEInternal.Weighted>
0.9592

> <Gold.Chemscore.Rot.Weighted>
4.5367

> <Gold.Chemscore.Internal.Correction.Weighted>
   9.000000E+99

> <Gold.Protein.RotatedTorsions>
[ 6907 6896 6895 6894 ] final -115.20 input  -60.11 | X-H torsion
[ 7974 7965 7964 7962 ] final   82.86 input  175.53 | X-H torsion
[ 8008 7997 7996 7995 ] final  166.81 input   59.86 | X-H torsion
[ 10167 10162 10161 10158 ] final   42.90 input  -65.29 | X-H torsion
[ 10718 10713 10712 10709 ] final   40.26 input   66.30 | X-H torsion
[ 10763 10752 10751 10750 ] final   30.11 input  -60.55 | X-H torsion
[ 11005 11000 10999 10996 ] final -135.47 input  -57.11 | X-H torsion

> <Gold.Protein.ActiveResidues>
 VAL166  LYS551  ARG553  GLY616  TRP617  ASP618  TYR619  PRO620  LYS621  CYS622 
 ASP623  PHE694  ASN695  SER759  ASP760  ASP761  ALA762  ILE779  LEU786  VAL792 
 PHE793  MET794  SER795  GLU796  ALA797  LYS798  CYS799  TRP800  GLU811  SER814 

> <Gold.Protein.RotatedAtoms>
  150.7960  133.8692  159.3253 H   0  0  0  0  0  0  0  0  0  0  0  0  # atno 6907 bound_to 6896
  151.6517  135.0999  160.0171 H   0  0  0  0  0  0  0  0  0  0  0  0  # atno 6908 bound_to 6896
  152.4041  133.6823  159.6376 H   0  0  0  0  0  0  0  0  0  0  0  0  # atno 6909 bound_to 6896
  145.6195  139.2383  143.2146 H   0  0  0  0  0  0  0  0  0  0  0  0  # atno 7974 bound_to 7965
  156.1687  140.1633  156.8486 H   0  0  0  0  0  0  0  0  0  0  0  0  # atno 8008 bound_to 7997
  154.5234  140.0773  156.8249 H   0  0  0  0  0  0  0  0  0  0  0  0  # atno 8009 bound_to 7997
  155.3558  140.3392  155.4242 H   0  0  0  0  0  0  0  0  0  0  0  0  # atno 8010 bound_to 7997
  140.3498  144.2365  150.6147 H   0  0  0  0  0  0  0  0  0  0  0  0  # atno 10167 bound_to 10162
  157.3801  130.7749  149.7186 H   0  0  0  0  0  0  0  0  0  0  0  0  # atno 10718 bound_to 10713
  153.0391  135.6472  154.0994 H   0  0  0  0  0  0  0  0  0  0  0  0  # atno 10763 bound_to 10752
  154.0704  135.2881  155.3311 H   0  0  0  0  0  0  0  0  0  0  0  0  # atno 10764 bound_to 10752
  154.6598  135.5395  153.8068 H   0  0  0  0  0  0  0  0  0  0  0  0  # atno 10765 bound_to 10752
  140.8895  134.1829  157.4537 H   0  0  0  0  0  0  0  0  0  0  0  0  # atno 11005 bound_to 11000
  146.1442  140.7016  142.9353 LP  0  0  0  0  0  0  0  0  0  0  0  0  # atno 17320 bound_to 7965
  144.7237  140.4455  143.6989 LP  0  0  0  0  0  0  0  0  0  0  0  0  # atno 17321 bound_to 7965
  140.5230  143.2261  151.8359 LP  0  0  0  0  0  0  0  0  0  0  0  0  # atno 17342 bound_to 10162
  139.4828  144.4814  151.9302 LP  0  0  0  0  0  0  0  0  0  0  0  0  # atno 17343 bound_to 10162
  155.9774  130.4064  150.3716 LP  0  0  0  0  0  0  0  0  0  0  0  0  # atno 17370 bound_to 10713
  157.1818  131.0394  151.2744 LP  0  0  0  0  0  0  0  0  0  0  0  0  # atno 17371 bound_to 10713
  139.8728  134.9852  156.5273 LP  0  0  0  0  0  0  0  0  0  0  0  0  # atno 17394 bound_to 11000
  140.8364  133.8239  155.9033 LP  0  0  0  0  0  0  0  0  0  0  0  0  # atno 17395 bound_to 11000

$$$$
