AV-unprocessed.smi:72|AV-procd|sdf|685|dock5
  -GOLD-   2262016593D 1   1.00000     0.00000
 Structure written by MMmdl.
 29 30  0  0  0  0  0  0  0  0  1 V2000
  154.1989  136.8428  156.6994 N   0  0  0  0  0  0  0  0  0  0  0  0
  153.1450  137.5591  156.5377 C   0  0  0  0  0  0  0  0  0  0  0  0
  153.0943  138.7903  155.8679 N   0  0  0  0  0  0  0  0  0  0  0  0
  151.9595  139.4159  155.8002 C   0  0  0  0  0  0  0  0  0  0  0  0
  150.7451  138.8955  156.4172 N   0  0  0  0  0  0  0  0  0  0  0  0
  149.4056  139.6107  156.3293 C   0  0  2  0  0  0  0  0  0  0  0  0
  148.4878  138.8411  155.6110 O   0  0  0  0  0  0  0  0  0  0  0  0
  148.4908  139.2442  154.2472 C   0  0  1  0  0  0  0  0  0  0  0  0
  147.1973  138.7805  153.5613 C   0  0  0  0  0  0  0  0  0  0  0  0
  147.4472  138.5027  152.2002 O   0  0  0  0  0  0  0  0  0  0  0  0
  148.6144  140.7639  154.3663 C   0  0  2  0  0  0  0  0  0  0  0  0
  149.2052  141.3020  153.2003 O   0  0  0  0  0  0  0  0  0  0  0  0
  149.5333  140.9522  155.5720 C   0  0  1  0  0  0  0  0  0  0  0  0
  149.0899  142.0379  156.3597 O   0  0  0  0  0  0  0  0  0  0  0  0
  150.7728  137.6246  157.0448 C   0  0  0  0  0  0  0  0  0  0  0  0
  149.7647  137.1042  157.5229 O   0  0  0  0  0  0  0  0  0  0  0  0
  151.9781  137.0181  157.0901 N   0  0  0  0  0  0  0  0  0  0  0  0
  149.0754  139.7053  157.3655 H   0  0  0  0  0  0  0  0  0  0  0  0
  149.3695  138.8411  153.7398 H   0  0  0  0  0  0  0  0  0  0  0  0
  147.6342  141.2104  154.5428 H   0  0  0  0  0  0  0  0  0  0  0  0
  150.5668  141.1138  155.2608 H   0  0  0  0  0  0  0  0  0  0  0  0
  154.9951  137.2975  156.2755 H   0  0  0  0  0  0  0  0  0  0  0  0
  151.8540  140.3648  155.2744 H   0  0  0  0  0  0  0  0  0  0  0  0
  146.7746  137.9063  154.0573 H   0  0  0  0  0  0  0  0  0  0  0  0
  146.4474  139.5711  153.6013 H   0  0  0  0  0  0  0  0  0  0  0  0
  147.9823  139.1962  151.8455 H   0  0  0  0  0  0  0  0  0  0  0  0
  149.3363  140.5992  152.5819 H   0  0  0  0  0  0  0  0  0  0  0  0
  148.9519  142.7805  155.7911 H   0  0  0  0  0  0  0  0  0  0  0  0
  152.0337  136.1181  157.5444 H   0  0  0  0  0  0  0  0  0  0  0  0
  1  2  2  0  0  0  0
  1 22  1  0  0  0  0
  2 17  1  0  0  0  0
  2  3  1  0  0  0  0
  3  4  2  0  0  0  0
  4  5  1  0  0  0  0
  4 23  1  0  0  0  0
  5  6  1  0  0  0  0
  5 15  1  0  0  0  0
  6 18  1  0  0  0  0
  6 13  1  0  0  0  0
  6  7  1  0  0  0  0
  7  8  1  0  0  0  0
  8 19  1  0  0  0  0
  8  9  1  0  0  0  0
  8 11  1  0  0  0  0
  9 10  1  0  0  0  0
  9 24  1  0  0  0  0
  9 25  1  0  0  0  0
 10 26  1  0  0  0  0
 11 20  1  0  0  0  0
 11 12  1  0  0  0  0
 11 13  1  0  0  0  0
 12 27  1  0  0  0  0
 13 21  1  0  0  0  0
 13 14  1  0  0  0  0
 14 28  1  0  0  0  0
 15 16  2  0  0  0  0
 15 17  1  0  0  0  0
 17 29  1  0  0  0  0
M  END
> <s_m_source_file>
AV-unprocessed.smi

> <i_m_source_file_index>
72

> <i_lp_mmshare_version>
43012

> <i_f3d_flags>
0

> <s_epik_input>
W05IMl1jMW5bY0hdbihjKD1PKW4xKVtDQEBIXTJPW0NASF0oW0NIMl1bT0hdKVtDQEBIXShbT0hdKVtDQEhdMltPSF0=

> <s_epik_cmdline>
J2VwaWtfcHl0aG9uJywgJy1waCcsICc3LjAnLCAnLXRuJywgJzgnLCAnLW1hJywgJzIwMCcsICctbWV0YWxfYmluZGluZycsICctaW1hZScsICc8aW5maWxlLm1hZT4nLCAnLW9tYWUnLCAnPG91dGZpbGUubWFlPic=

> <r_lp_tautomer_probability>
7.17554e-07

> <r_epik_Ionization_Penalty>
0.0066451

> <r_epik_Ionization_Penalty_Charging>
0.00663793

> <r_epik_Ionization_Penalty_Neutral>
7.17052e-06

> <r_epik_State_Penalty>
0.419231

> <r_epik_Charging_Adjusted_Penalty>
0.425868

> <i_epik_Tot_Q>
0

> <i_epik_Tot_abs_Q>
0

> <r_epik_Metal_State_Penalty>
1.44144

> <b_epik_Metal_Only>
0

> <s_epik_Chemistry_Notes>
This compound contains an acetal/aminal-like group ( X-CH(R)-Y where X, Y are N, S, or O) that may be acid/base labile, releasing an aldehyde.

> <s_lp_Force_Field>
OPLS_2005

> <r_lp_Energy>
35.407

> <b_lp_Chiralities_Consistent>
1

> <s_lp_Variant>
AV-unprocessed.smi:72-23

> <Gold.Version>
5.8.1

> <Gold.Id.Protein>
6NUR|6NUR_protein|mol2

> <Gold.PLP.Fitness>
36.6605

> <Gold.PLP.PLP>
-20.9491

> <Gold.PLP.part.hbond>
-7.4567

> <Gold.PLP.part.metal>
0.0000

> <Gold.PLP.part.buried>
-3.9232

> <Gold.PLP.part.nonpolar>
-10.8848

> <Gold.PLP.part.repulsive>
0.1509

> <Gold.PLP.ligand.clash>
0.0000

> <Gold.PLP.ligand.torsion>
0.4824

> <Gold.PLP.Chemscore.Hbond>
5.5460

> <Gold.PLP.Chemscore.CHOScore>
0.0000

> <Gold.PLP.Chemscore.Metal>
0.0000

> <Gold.Chemscore.Hbonds>
donor molecule, donor type, donor heavy atom, donor atom, acceptor molecule, acceptor atom, score
      L1  H    10    26       P1  7957  1.00
      L1  H    12    27       P1  7957  1.00
      L1  H    14    28       P1  8028  0.93
      P1  H  7997  8008       L1     3  1.00
      P1  H  8011  8017       L1    12  0.79
      P1  H 10752 10765       L1     1  0.77

> <Gold.PLP.Chemscore.Internal.Correction>
0.0382

> <Gold.Rescore>
     Score         DG    S(hbond)    S(metal)    S(lipo)     H(rot)  DE(clash)    DE(int)     intcor
      9.69     -11.59       4.07        0.00      24.77       4.06       0.13       1.78       ----

> <Gold.Chemscore.Fitness>
9.6865

> <Gold.Chemscore.DG>
-11.5939

> <Gold.Chemscore.ZeroCoef>
-5.4800

> <Gold.Chemscore.Hbond>
4.0748

> <Gold.Chemscore.Metal>
0.0000

> <Gold.Chemscore.Lipo>
24.7675

> <Gold.Chemscore.Internal_Hbond>
0.0000

> <Gold.Chemscore.DEClash>
0.1313

> <Gold.Chemscore.DEInternal>
1.7761

> <Gold.Chemscore.Rot>
4.0600

> <Gold.Chemscore.Internal.Correction>
   9.000000E+99

> <Gold.Chemscore.Hbonds>
donor molecule, donor type, donor heavy atom, donor atom, acceptor molecule, acceptor atom, score
      L1  H    10    26       P1  7957  0.97
      L1  H    12    27       P1  7957  0.92
      L1  H    14    28       P1  8028  0.89
      P1  H  7997  8008       L1     3  0.48
      P1  H  8011  8017       L1    12  0.11
      P1  H 10752 10765       L1     1  0.07

> <Gold.Chemscore.Hbond.Weighted>
-13.6097

> <Gold.Chemscore.Metal.Weighted>
-0.0000

> <Gold.Chemscore.Lipo.Weighted>
-2.8978

> <Gold.Chemscore.Internal_Hbond.Weighted>
0.0000

> <Gold.Chemscore.DEClash.Weighted>
0.1313

> <Gold.Chemscore.DEInternal.Weighted>
1.7761

> <Gold.Chemscore.Rot.Weighted>
10.3936

> <Gold.Chemscore.Internal.Correction.Weighted>
   9.000000E+99

> <Gold.Protein.RotatedTorsions>
[ 6907 6896 6895 6894 ] final   38.04 input  -60.11 | X-H torsion
[ 7974 7965 7964 7962 ] final   16.24 input  175.53 | X-H torsion
[ 8008 7997 7996 7995 ] final  -27.85 input   59.86 | X-H torsion
[ 10167 10162 10161 10158 ] final   67.08 input  -65.29 | X-H torsion
[ 10718 10713 10712 10709 ] final  -77.68 input   66.30 | X-H torsion
[ 10763 10752 10751 10750 ] final -103.76 input  -60.55 | X-H torsion
[ 11005 11000 10999 10996 ] final   13.73 input  -57.11 | X-H torsion

> <Gold.Protein.ActiveResidues>
 VAL166  LYS551  ARG553  GLY616  TRP617  ASP618  TYR619  PRO620  LYS621  CYS622 
 ASP623  PHE694  ASN695  SER759  ASP760  ASP761  ALA762  ILE779  LEU786  VAL792 
 PHE793  MET794  SER795  GLU796  ALA797  LYS798  CYS799  TRP800  GLU811  SER814 

> <Gold.Protein.RotatedAtoms>
  152.1511  134.8987  160.0547 H   0  0  0  0  0  0  0  0  0  0  0  0  # atno 6907 bound_to 6896
  152.0018  133.3823  159.4193 H   0  0  0  0  0  0  0  0  0  0  0  0  # atno 6908 bound_to 6896
  150.6876  134.3747  159.5051 H   0  0  0  0  0  0  0  0  0  0  0  0  # atno 6909 bound_to 6896
  146.2255  139.8777  142.8576 H   0  0  0  0  0  0  0  0  0  0  0  0  # atno 7974 bound_to 7965
  154.4358  140.1861  156.0997 H   0  0  0  0  0  0  0  0  0  0  0  0  # atno 8008 bound_to 7997
  156.0301  140.3331  155.7105 H   0  0  0  0  0  0  0  0  0  0  0  0  # atno 8009 bound_to 7997
  155.5851  140.0625  157.2764 H   0  0  0  0  0  0  0  0  0  0  0  0  # atno 8010 bound_to 7997
  140.0934  144.4968  150.7084 H   0  0  0  0  0  0  0  0  0  0  0  0  # atno 10167 bound_to 10162
  156.0138  130.4498  150.3381 H   0  0  0  0  0  0  0  0  0  0  0  0  # atno 10718 bound_to 10713
  154.7831  135.4811  153.9886 H   0  0  0  0  0  0  0  0  0  0  0  0  # atno 10763 bound_to 10752
  153.1521  135.6793  153.8874 H   0  0  0  0  0  0  0  0  0  0  0  0  # atno 10764 bound_to 10752
  153.8515  135.3166  155.3411 H   0  0  0  0  0  0  0  0  0  0  0  0  # atno 10765 bound_to 10752
  140.4774  134.0970  155.7744 H   0  0  0  0  0  0  0  0  0  0  0  0  # atno 11005 bound_to 11000
  145.2544  141.0055  143.3862 LP  0  0  0  0  0  0  0  0  0  0  0  0  # atno 17320 bound_to 7965
  144.9349  139.4256  143.6477 LP  0  0  0  0  0  0  0  0  0  0  0  0  # atno 17321 bound_to 7965
  140.7016  143.2439  151.4847 LP  0  0  0  0  0  0  0  0  0  0  0  0  # atno 17342 bound_to 10162
  139.5712  144.1925  152.1838 LP  0  0  0  0  0  0  0  0  0  0  0  0  # atno 17343 bound_to 10162
  157.1478  131.0313  151.2899 LP  0  0  0  0  0  0  0  0  0  0  0  0  # atno 17370 bound_to 10713
  157.4418  130.7548  149.7076 LP  0  0  0  0  0  0  0  0  0  0  0  0  # atno 17371 bound_to 10713
  141.1548  133.8903  157.2006 LP  0  0  0  0  0  0  0  0  0  0  0  0  # atno 17394 bound_to 11000
  139.9847  135.0086  156.9835 LP  0  0  0  0  0  0  0  0  0  0  0  0  # atno 17395 bound_to 11000

$$$$
