AV-unprocessed.smi:955|AV-procd|sdf|4261|dock1
  -GOLD-   22720 2173D 1   1.00000     0.00000
 Structure written by MMmdl.
 29 29  0  0  0  0  0  0  0  0  1 V2000
  153.1364  138.2277  155.9990 C   0  0  0  0  0  0  0  0  0  0  0  0
  152.4645  138.8090  154.7440 C   0  0  2  0  0  0  0  0  0  0  0  0
  151.8359  140.0749  155.1154 N   0  0  0  0  0  0  0  0  0  0  0  0
  151.1310  140.2936  156.2379 C   0  0  0  0  0  0  0  0  0  0  0  0
  150.8943  139.4116  157.0648 O   0  0  0  0  0  0  0  0  0  0  0  0
  150.6283  141.7301  156.4508 C   0  0  1  0  0  0  0  0  0  0  0  0
  149.0904  141.8234  156.5294 C   0  0  0  0  0  0  0  0  0  0  0  0
  151.2785  142.3218  157.6150 N   0  0  0  0  0  0  0  0  0  0  0  0
  151.2499  143.6402  158.0230 C   0  0  0  0  0  0  0  0  0  0  0  0
  152.0365  143.7444  159.1340 C   0  0  0  0  0  0  0  0  0  0  0  0
  152.5240  142.4225  159.3275 C   0  0  0  0  0  0  0  0  0  0  0  0
  152.0761  141.5763  158.4150 N   0  0  0  0  0  0  0  0  0  0  0  0
  151.4022  137.8053  154.2660 C   0  0  0  0  0  0  0  0  0  0  0  0
  150.5731  138.2183  153.3046 N   0  0  0  0  0  0  0  0  0  0  0  0
  151.3380  136.6721  154.7416 O   0  0  0  0  0  0  0  0  0  0  0  0
  153.6266  137.2778  155.7821 H   0  0  0  0  0  0  0  0  0  0  0  0
  152.4186  138.0558  156.8028 H   0  0  0  0  0  0  0  0  0  0  0  0
  153.9004  138.9059  156.3800 H   0  0  0  0  0  0  0  0  0  0  0  0
  153.2134  138.9717  153.9663 H   0  0  0  0  0  0  0  0  0  0  0  0
  151.9881  140.8552  154.4933 H   0  0  0  0  0  0  0  0  0  0  0  0
  150.9397  142.3108  155.5809 H   0  0  0  0  0  0  0  0  0  0  0  0
  148.6264  141.4326  155.6233 H   0  0  0  0  0  0  0  0  0  0  0  0
  148.7701  142.8598  156.6386 H   0  0  0  0  0  0  0  0  0  0  0  0
  148.6871  141.2633  157.3741 H   0  0  0  0  0  0  0  0  0  0  0  0
  150.6790  144.3878  157.4927 H   0  0  0  0  0  0  0  0  0  0  0  0
  152.2383  144.6314  159.7158 H   0  0  0  0  0  0  0  0  0  0  0  0
  153.1887  142.0559  160.0957 H   0  0  0  0  0  0  0  0  0  0  0  0
  149.8636  137.5948  152.9475 H   0  0  0  0  0  0  0  0  0  0  0  0
  150.6662  139.1516  152.9308 H   0  0  0  0  0  0  0  0  0  0  0  0
  1  2  1  0  0  0  0
  1 16  1  0  0  0  0
  1 17  1  0  0  0  0
  1 18  1  0  0  0  0
  2  3  1  0  0  0  0
  2 13  1  0  0  0  0
  2 19  1  0  0  0  0
  3  4  1  0  0  0  0
  3 20  1  0  0  0  0
  4  5  2  0  0  0  0
  4  6  1  0  0  0  0
  6  7  1  0  0  0  0
  6  8  1  0  0  0  0
  6 21  1  0  0  0  0
  7 22  1  0  0  0  0
  7 23  1  0  0  0  0
  7 24  1  0  0  0  0
  8 12  1  0  0  0  0
  8  9  1  0  0  0  0
  9 10  2  0  0  0  0
  9 25  1  0  0  0  0
 10 11  1  0  0  0  0
 10 26  1  0  0  0  0
 11 12  2  0  0  0  0
 11 27  1  0  0  0  0
 13 14  1  0  0  0  0
 13 15  2  0  0  0  0
 14 28  1  0  0  0  0
 14 29  1  0  0  0  0
M  END
> <s_m_source_file>
AV-unprocessed.smi

> <i_m_source_file_index>
955

> <i_lp_mmshare_version>
43012

> <i_f3d_flags>
0

> <s_epik_input>
W05IMl1DKD1PKVtDQEhdKFtDSDNdKVtOSF1DKD1PKVtDQEhdKFtDSDNdKW4xW2NIXVtjSF1bY0hdbjE=

> <s_epik_cmdline>
J2VwaWtfcHl0aG9uJywgJy1waCcsICc3LjAnLCAnLXRuJywgJzgnLCAnLW1hJywgJzIwMCcsICctbWV0YWxfYmluZGluZycsICctaW1hZScsICc8aW5maWxlLm1hZT4nLCAnLW9tYWUnLCAnPG91dGZpbGUubWFlPic=

> <r_lp_tautomer_probability>
1

> <r_epik_Ionization_Penalty>
2.8146e-05

> <r_epik_Ionization_Penalty_Charging>
0

> <r_epik_Ionization_Penalty_Neutral>
2.8146e-05

> <r_epik_State_Penalty>
-0

> <r_epik_Charging_Adjusted_Penalty>
0

> <i_epik_Tot_Q>
0

> <i_epik_Tot_abs_Q>
0

> <r_epik_Metal_State_Penalty>
-0

> <b_epik_Metal_Only>
0

> <s_lp_Force_Field>
OPLS_2005

> <r_lp_Energy>
4.42999

> <b_lp_Chiralities_Consistent>
1

> <s_lp_Variant>
AV-unprocessed.smi:955-3

> <Gold.Version>
5.8.1

> <Gold.Id.Protein>
6NUR|6NUR_protein|mol2

> <Gold.PLP.Fitness>
38.1209

> <Gold.PLP.PLP>
-29.4076

> <Gold.PLP.part.hbond>
-3.7445

> <Gold.PLP.part.metal>
0.0000

> <Gold.PLP.part.buried>
-1.3045

> <Gold.PLP.part.nonpolar>
-26.8438

> <Gold.PLP.part.repulsive>
2.9572

> <Gold.PLP.ligand.clash>
0.0000

> <Gold.PLP.ligand.torsion>
0.4771

> <Gold.PLP.Chemscore.Hbond>
2.1780

> <Gold.PLP.Chemscore.CHOScore>
1.0000

> <Gold.PLP.Chemscore.Metal>
0.0000

> <Gold.Chemscore.Hbonds>
donor molecule, donor type, donor heavy atom, donor atom, acceptor molecule, acceptor atom, score
      L1  H    14    28       P1  7948  1.00
      L1  H    14    29       P1  7957  0.29
      P1  H 10752 10764       L1    15  1.00
      L1  C     9    25       P1  8028  0.94

> <Gold.PLP.Chemscore.Internal.Correction>
0.1334

> <Gold.Rescore>
     Score         DG    S(hbond)    S(metal)    S(lipo)     H(rot)  DE(clash)    DE(int)     intcor
      9.27     -14.19       2.16        0.00      63.06       2.30       1.62       3.30       ----

> <Gold.Chemscore.Fitness>
9.2697

> <Gold.Chemscore.DG>
-14.1879

> <Gold.Chemscore.ZeroCoef>
-5.4800

> <Gold.Chemscore.Hbond>
2.1590

> <Gold.Chemscore.Metal>
0.0000

> <Gold.Chemscore.Lipo>
63.0584

> <Gold.Chemscore.Internal_Hbond>
0.0000

> <Gold.Chemscore.DEClash>
1.6163

> <Gold.Chemscore.DEInternal>
3.3019

> <Gold.Chemscore.Rot>
2.2972

> <Gold.Chemscore.Internal.Correction>
   9.000000E+99

> <Gold.Chemscore.Hbonds>
donor molecule, donor type, donor heavy atom, donor atom, acceptor molecule, acceptor atom, score
      L1  H    14    28       P1  7948  0.34
      L1  H    14    29       P1  7957  0.13
      P1  H 10752 10764       L1    15  0.85

> <Gold.Chemscore.Hbond.Weighted>
-7.2110

> <Gold.Chemscore.Metal.Weighted>
-0.0000

> <Gold.Chemscore.Lipo.Weighted>
-7.3778

> <Gold.Chemscore.Internal_Hbond.Weighted>
0.0000

> <Gold.Chemscore.DEClash.Weighted>
1.6163

> <Gold.Chemscore.DEInternal.Weighted>
3.3019

> <Gold.Chemscore.Rot.Weighted>
5.8809

> <Gold.Chemscore.Internal.Correction.Weighted>
   9.000000E+99

> <Gold.Protein.RotatedTorsions>
[ 6907 6896 6895 6894 ] final  -48.93 input  -60.11 | X-H torsion
[ 7974 7965 7964 7962 ] final  161.44 input  175.53 | X-H torsion
[ 8008 7997 7996 7995 ] final    9.76 input   59.86 | X-H torsion
[ 10167 10162 10161 10158 ] final  -74.24 input  -65.29 | X-H torsion
[ 10718 10713 10712 10709 ] final   49.71 input   66.30 | X-H torsion
[ 10763 10752 10751 10750 ] final  -70.89 input  -60.55 | X-H torsion
[ 11005 11000 10999 10996 ] final   -5.55 input  -57.11 | X-H torsion

> <Gold.Protein.ActiveResidues>
 VAL166  LYS551  ARG553  GLY616  TRP617  ASP618  TYR619  PRO620  LYS621  CYS622 
 ASP623  PHE694  ASN695  SER759  ASP760  ASP761  ALA762  ILE779  LEU786  VAL792 
 PHE793  MET794  SER795  GLU796  ALA797  LYS798  CYS799  TRP800  GLU811  SER814 

> <Gold.Protein.RotatedAtoms>
  150.8856  134.8254  159.7256 H   0  0  0  0  0  0  0  0  0  0  0  0  # atno 6907 bound_to 6896
  152.4805  134.4727  159.9650 H   0  0  0  0  0  0  0  0  0  0  0  0  # atno 6908 bound_to 6896
  151.4796  133.3511  159.2871 H   0  0  0  0  0  0  0  0  0  0  0  0  # atno 6909 bound_to 6896
  144.7686  139.7898  143.6306 H   0  0  0  0  0  0  0  0  0  0  0  0  # atno 7974 bound_to 7965
  154.7843  140.2824  155.6040 H   0  0  0  0  0  0  0  0  0  0  0  0  # atno 8008 bound_to 7997
  156.2955  140.2617  156.2604 H   0  0  0  0  0  0  0  0  0  0  0  0  # atno 8009 bound_to 7997
  154.9747  140.0375  157.2240 H   0  0  0  0  0  0  0  0  0  0  0  0  # atno 8010 bound_to 7997
  140.5043  143.2355  151.7699 H   0  0  0  0  0  0  0  0  0  0  0  0  # atno 10167 bound_to 10162
  157.4814  130.8317  149.8097 H   0  0  0  0  0  0  0  0  0  0  0  0  # atno 10718 bound_to 10713
  154.4241  135.5979  153.6028 H   0  0  0  0  0  0  0  0  0  0  0  0  # atno 10763 bound_to 10752
  152.9795  135.5959  154.3919 H   0  0  0  0  0  0  0  0  0  0  0  0  # atno 10764 bound_to 10752
  154.3749  135.2841  155.2224 H   0  0  0  0  0  0  0  0  0  0  0  0  # atno 10765 bound_to 10752
  140.6924  133.9060  155.8627 H   0  0  0  0  0  0  0  0  0  0  0  0  # atno 11005 bound_to 11000
  146.1814  139.5008  142.9864 LP  0  0  0  0  0  0  0  0  0  0  0  0  # atno 17320 bound_to 7965
  145.6394  141.0287  143.1820 LP  0  0  0  0  0  0  0  0  0  0  0  0  # atno 17321 bound_to 7965
  139.4880  144.4478  151.9689 LP  0  0  0  0  0  0  0  0  0  0  0  0  # atno 17342 bound_to 10162
  140.3568  144.3021  150.5940 LP  0  0  0  0  0  0  0  0  0  0  0  0  # atno 17343 bound_to 10162
  156.0123  130.3828  150.2223 LP  0  0  0  0  0  0  0  0  0  0  0  0  # atno 17370 bound_to 10713
  157.0409  131.0035  151.3284 LP  0  0  0  0  0  0  0  0  0  0  0  0  # atno 17371 bound_to 10713
  141.0231  134.0862  157.4099 LP  0  0  0  0  0  0  0  0  0  0  0  0  # atno 17394 bound_to 11000
  139.8920  135.0122  156.6820 LP  0  0  0  0  0  0  0  0  0  0  0  0  # atno 17395 bound_to 11000

$$$$
