AV-unprocessed.smi:2506|AV-procd|sdf|9862|dock10
  -GOLD-   2272013493D 1   1.00000     0.00000
 Structure written by MMmdl.
 39 40  0  0  0  0  0  0  0  0  2 V2000
  150.4033  138.6289  154.2524 C   0  0  0  0  0  0  0  0  0  0  0  0
  149.3442  139.7158  154.1881 C   0  0  0  0  0  0  0  0  0  0  0  0
  149.7605  140.9537  154.5465 N   0  0  0  0  0  0  0  0  0  0  0  0
  148.8669  141.9557  154.5091 N   0  3  0  0  0  0  0  0  0  0  0  0
  147.5769  141.7816  154.1388 C   0  0  0  0  0  0  0  0  0  0  0  0
  147.1091  140.5096  153.7618 C   0  0  0  0  0  0  0  0  0  0  0  0
  148.0225  139.4314  153.7717 C   0  0  0  0  0  0  0  0  0  0  0  0
  147.6702  138.0962  153.4275 N   0  0  0  0  0  0  0  0  0  0  0  0
  146.4802  137.4872  153.5631 C   0  0  0  0  0  0  0  0  0  0  0  0
  145.4703  138.0028  154.0414 O   0  0  0  0  0  0  0  0  0  0  0  0
  146.5203  136.2371  153.0813 N   0  0  0  0  0  0  0  0  0  0  0  0
  145.3973  135.3026  153.0397 C   0  0  0  0  0  0  0  0  0  0  0  0
  145.2209  134.6358  151.6525 C   0  0  0  0  0  0  0  0  0  0  0  0
  145.0478  135.7040  150.5485 C   0  0  0  0  0  0  0  0  0  0  0  0
  146.3829  133.6858  151.3119 C   0  0  0  0  0  0  0  0  0  0  0  0
  145.8142  132.6533  150.3320 C   0  0  0  0  0  0  0  0  0  0  0  0
  144.2965  132.6395  150.5583 C   0  0  0  0  0  0  0  0  0  0  0  0
  144.0158  133.6795  151.6502 C   0  0  0  0  0  0  0  0  0  0  0  0
  150.5398  138.1736  153.2710 H   0  0  0  0  0  0  0  0  0  0  0  0
  150.1073  137.8508  154.9567 H   0  0  0  0  0  0  0  0  0  0  0  0
  151.3671  139.0253  154.5750 H   0  0  0  0  0  0  0  0  0  0  0  0
  146.9575  142.6663  154.1611 H   0  0  0  0  0  0  0  0  0  0  0  0
  146.0719  140.3874  153.4897 H   0  0  0  0  0  0  0  0  0  0  0  0
  148.3839  137.5695  152.9451 H   0  0  0  0  0  0  0  0  0  0  0  0
  147.3946  135.9027  152.7028 H   0  0  0  0  0  0  0  0  0  0  0  0
  145.5903  134.5417  153.7966 H   0  0  0  0  0  0  0  0  0  0  0  0
  144.4702  135.7917  153.3437 H   0  0  0  0  0  0  0  0  0  0  0  0
  144.8354  135.2567  149.5773 H   0  0  0  0  0  0  0  0  0  0  0  0
  145.9458  136.3100  150.4293 H   0  0  0  0  0  0  0  0  0  0  0  0
  144.2238  136.3793  150.7815 H   0  0  0  0  0  0  0  0  0  0  0  0
  147.2525  134.2051  150.9072 H   0  0  0  0  0  0  0  0  0  0  0  0
  146.7113  133.1669  152.2137 H   0  0  0  0  0  0  0  0  0  0  0  0
  146.0309  132.9506  149.3052 H   0  0  0  0  0  0  0  0  0  0  0  0
  146.2593  131.6699  150.4864 H   0  0  0  0  0  0  0  0  0  0  0  0
  143.7829  132.9118  149.6353 H   0  0  0  0  0  0  0  0  0  0  0  0
  143.9373  131.6521  150.8503 H   0  0  0  0  0  0  0  0  0  0  0  0
  143.9481  133.1633  152.6090 H   0  0  0  0  0  0  0  0  0  0  0  0
  143.0658  134.1939  151.4995 H   0  0  0  0  0  0  0  0  0  0  0  0
  149.1706  142.8922  154.7775 H   0  0  0  0  0  0  0  0  0  0  0  0
  1  2  1  0  0  0  0
  1 19  1  0  0  0  0
  1 20  1  0  0  0  0
  1 21  1  0  0  0  0
  2  7  1  0  0  0  0
  2  3  2  0  0  0  0
  3  4  1  0  0  0  0
  4  5  2  0  0  0  0
  4 39  1  0  0  0  0
  5  6  1  0  0  0  0
  5 22  1  0  0  0  0
  6  7  2  0  0  0  0
  6 23  1  0  0  0  0
  7  8  1  0  0  0  0
  8  9  1  0  0  0  0
  8 24  1  0  0  0  0
  9 10  2  0  0  0  0
  9 11  1  0  0  0  0
 11 12  1  0  0  0  0
 11 25  1  0  0  0  0
 12 13  1  0  0  0  0
 12 26  1  0  0  0  0
 12 27  1  0  0  0  0
 13 18  1  0  0  0  0
 13 14  1  0  0  0  0
 13 15  1  0  0  0  0
 14 28  1  0  0  0  0
 14 29  1  0  0  0  0
 14 30  1  0  0  0  0
 15 16  1  0  0  0  0
 15 31  1  0  0  0  0
 15 32  1  0  0  0  0
 16 17  1  0  0  0  0
 16 33  1  0  0  0  0
 16 34  1  0  0  0  0
 17 18  1  0  0  0  0
 17 35  1  0  0  0  0
 17 36  1  0  0  0  0
 18 37  1  0  0  0  0
 18 38  1  0  0  0  0
M  CHG  1   4   1
M  END
> <s_m_source_file>
AV-unprocessed.smi

> <i_m_source_file_index>
2506

> <i_lp_mmshare_version>
43012

> <i_f3d_flags>
0

> <s_epik_input>
W0NIM11jMW5uW2NIXVtjSF1jMVtOSF1DKD1PKVtOSF1bQ0gyXUMyKFtDSDNdKVtDSDJdW0NIMl1bQ0gyXVtDSDJdMg==

> <s_epik_cmdline>
J2VwaWtfcHl0aG9uJywgJy1waCcsICc3LjAnLCAnLXRuJywgJzgnLCAnLW1hJywgJzIwMCcsICctbWV0YWxfYmluZGluZycsICctaW1hZScsICc8aW5maWxlLm1hZT4nLCAnLW9tYWUnLCAnPG91dGZpbGUubWFlPic=

> <r_lp_tautomer_probability>
0.5088

> <r_epik_Ionization_Penalty>
1.13414

> <r_epik_Ionization_Penalty_Charging>
1.1341

> <r_epik_Ionization_Penalty_Neutral>
4.35135e-05

> <r_epik_State_Penalty>
2.14502

> <r_epik_Charging_Adjusted_Penalty>
3.27912

> <i_epik_Tot_Q>
1

> <i_epik_Tot_abs_Q>
1

> <r_epik_Metal_State_Penalty>
2.23434

> <b_epik_Metal_Only>
0

> <s_lp_Force_Field>
OPLS_2005

> <r_lp_Energy>
34.1821

> <b_lp_Chiralities_Consistent>
1

> <s_lp_Variant>
AV-unprocessed.smi:2506-2

> <Gold.Version>
5.8.1

> <Gold.Id.Protein>
6NUR|6NUR_protein|mol2

> <Gold.PLP.Fitness>
45.5478

> <Gold.PLP.PLP>
-32.9069

> <Gold.PLP.part.hbond>
-4.0000

> <Gold.PLP.part.metal>
0.0000

> <Gold.PLP.part.buried>
-3.0475

> <Gold.PLP.part.nonpolar>
-26.1283

> <Gold.PLP.part.repulsive>
1.2347

> <Gold.PLP.ligand.clash>
0.0000

> <Gold.PLP.ligand.torsion>
0.2647

> <Gold.PLP.Chemscore.Hbond>
4.3856

> <Gold.PLP.Chemscore.CHOScore>
0.0000

> <Gold.PLP.Chemscore.Metal>
0.0000

> <Gold.Chemscore.Hbonds>
donor molecule, donor type, donor heavy atom, donor atom, acceptor molecule, acceptor atom, score
      L1  H     4    39       P1  8028  1.98
      L1  H     8    24       P1  7948  1.00
      L1  H    11    25       P1  7948  1.00
      P1  H  7989  7998       L1     3  0.37

> <Gold.PLP.Chemscore.Internal.Correction>
0.0135

> <Gold.Rescore>
     Score         DG    S(hbond)    S(metal)    S(lipo)     H(rot)  DE(clash)    DE(int)     intcor
     20.23     -21.26       2.94        0.00      77.78       1.22       0.06       0.97       ----

> <Gold.Chemscore.Fitness>
20.2297

> <Gold.Chemscore.DG>
-21.2600

> <Gold.Chemscore.ZeroCoef>
-5.4800

> <Gold.Chemscore.Hbond>
2.9355

> <Gold.Chemscore.Metal>
0.0000

> <Gold.Chemscore.Lipo>
77.7796

> <Gold.Chemscore.Internal_Hbond>
0.0000

> <Gold.Chemscore.DEClash>
0.0588

> <Gold.Chemscore.DEInternal>
0.9715

> <Gold.Chemscore.Rot>
1.2207

> <Gold.Chemscore.Internal.Correction>
   9.000000E+99

> <Gold.Chemscore.Hbonds>
donor molecule, donor type, donor heavy atom, donor atom, acceptor molecule, acceptor atom, score
      L1  H     4    39       P1  8028  0.90
      L1  H     8    24       P1  7948  0.98
      L1  H    11    25       P1  7948  0.94
      P1  H  7989  7998       L1     3  0.05

> <Gold.Chemscore.Hbond.Weighted>
-9.8047

> <Gold.Chemscore.Metal.Weighted>
-0.0000

> <Gold.Chemscore.Lipo.Weighted>
-9.1002

> <Gold.Chemscore.Internal_Hbond.Weighted>
0.0000

> <Gold.Chemscore.DEClash.Weighted>
0.0588

> <Gold.Chemscore.DEInternal.Weighted>
0.9715

> <Gold.Chemscore.Rot.Weighted>
3.1250

> <Gold.Chemscore.Internal.Correction.Weighted>
   9.000000E+99

> <Gold.Protein.RotatedTorsions>
[ 6907 6896 6895 6894 ] final  170.33 input  -60.11 | X-H torsion
[ 7974 7965 7964 7962 ] final  -20.15 input  175.53 | X-H torsion
[ 8008 7997 7996 7995 ] final  -16.63 input   59.86 | X-H torsion
[ 10167 10162 10161 10158 ] final   58.23 input  -65.29 | X-H torsion
[ 10718 10713 10712 10709 ] final  -56.00 input   66.30 | X-H torsion
[ 10763 10752 10751 10750 ] final -110.01 input  -60.55 | X-H torsion
[ 11005 11000 10999 10996 ] final -109.78 input  -57.11 | X-H torsion

> <Gold.Protein.ActiveResidues>
 VAL166  LYS551  ARG553  GLY616  TRP617  ASP618  TYR619  PRO620  LYS621  CYS622 
 ASP623  PHE694  ASN695  SER759  ASP760  ASP761  ALA762  ILE779  LEU786  VAL792 
 PHE793  MET794  SER795  GLU796  ALA797  LYS798  CYS799  TRP800  GLU811  SER814 

> <Gold.Protein.RotatedAtoms>
  151.8178  133.3390  159.3574 H   0  0  0  0  0  0  0  0  0  0  0  0  # atno 6907 bound_to 6896
  150.7304  134.5602  159.5848 H   0  0  0  0  0  0  0  0  0  0  0  0  # atno 6908 bound_to 6896
  152.3028  134.7592  160.0405 H   0  0  0  0  0  0  0  0  0  0  0  0  # atno 6909 bound_to 6896
  146.1804  140.4161  142.8497 H   0  0  0  0  0  0  0  0  0  0  0  0  # atno 7974 bound_to 7965
  154.5039  140.2164  155.9291 H   0  0  0  0  0  0  0  0  0  0  0  0  # atno 8008 bound_to 7997
  156.1469  140.3169  155.8551 H   0  0  0  0  0  0  0  0  0  0  0  0  # atno 8009 bound_to 7997
  155.4014  140.0484  157.3027 H   0  0  0  0  0  0  0  0  0  0  0  0  # atno 8010 bound_to 7997
  140.1894  144.4101  150.6578 H   0  0  0  0  0  0  0  0  0  0  0  0  # atno 10167 bound_to 10162
  156.1323  130.4159  150.0247 H   0  0  0  0  0  0  0  0  0  0  0  0  # atno 10718 bound_to 10713
  154.8225  135.4580  154.0820 H   0  0  0  0  0  0  0  0  0  0  0  0  # atno 10763 bound_to 10752
  153.2162  135.6888  153.8061 H   0  0  0  0  0  0  0  0  0  0  0  0  # atno 10764 bound_to 10752
  153.7494  135.3300  155.3295 H   0  0  0  0  0  0  0  0  0  0  0  0  # atno 10765 bound_to 10752
  141.0828  133.9190  157.2251 H   0  0  0  0  0  0  0  0  0  0  0  0  # atno 11005 bound_to 11000
  144.8305  140.6699  143.6294 LP  0  0  0  0  0  0  0  0  0  0  0  0  # atno 17320 bound_to 7965
  145.4093  139.1583  143.4134 LP  0  0  0  0  0  0  0  0  0  0  0  0  # atno 17321 bound_to 7965
  140.6466  143.2215  151.6172 LP  0  0  0  0  0  0  0  0  0  0  0  0  # atno 17342 bound_to 10162
  139.5262  144.3052  152.1039 LP  0  0  0  0  0  0  0  0  0  0  0  0  # atno 17343 bound_to 10162
  156.8155  130.9340  151.3643 LP  0  0  0  0  0  0  0  0  0  0  0  0  # atno 17370 bound_to 10713
  157.6500  130.8876  149.9613 LP  0  0  0  0  0  0  0  0  0  0  0  0  # atno 17371 bound_to 10713
  139.9644  135.0146  156.9347 LP  0  0  0  0  0  0  0  0  0  0  0  0  # atno 17394 bound_to 11000
  140.5429  134.0702  155.7347 LP  0  0  0  0  0  0  0  0  0  0  0  0  # atno 17395 bound_to 11000

$$$$
