AV-unprocessed.smi:926|AV-procd|sdf|4183|dock4
  -GOLD-   22720 2 83D 1   1.00000     0.00000
 Structure written by MMmdl.
 37 39  0  0  0  0  0  0  0  0  1 V2000
  148.9375  141.5210  153.7212 O   0  0  0  0  0  0  0  0  0  0  0  0
  149.2195  140.6721  154.5669 C   0  0  0  0  0  0  0  0  0  0  0  0
  149.1427  139.1876  154.2123 C   0  0  0  0  0  0  0  0  0  0  0  0
  150.4280  138.5444  154.4093 N   0  0  0  0  0  0  0  0  0  0  0  0
  150.7889  137.2617  154.3310 C   0  0  0  0  0  0  0  0  0  0  0  0
  152.0759  137.0991  154.5976 N   0  0  0  0  0  0  0  0  0  0  0  0
  152.5100  138.3893  154.8529 N   0  0  0  0  0  0  0  0  0  0  0  0
  151.5366  139.2512  154.7425 N   0  0  0  0  0  0  0  0  0  0  0  0
  149.5905  140.9708  155.8219 N   0  0  0  0  0  0  0  0  0  0  0  0
  149.6750  142.3200  156.3662 C   0  0  0  0  0  0  0  0  0  0  0  0
  150.1986  142.3068  157.8129 C   0  0  0  0  0  0  0  0  0  0  0  0
  150.6720  143.6888  158.3044 C   0  0  2  0  0  0  0  0  0  0  0  0
  151.9088  144.2301  157.5553 C   0  0  0  0  0  0  0  0  0  0  0  0
  152.8609  144.6250  158.6997 C   0  0  2  0  0  0  0  0  0  0  0  0
  153.4414  143.3493  159.3380 C   0  0  0  0  0  0  0  0  0  0  0  0
  152.2394  142.7837  160.1161 C   0  0  0  0  0  0  0  0  0  0  0  0
  151.1157  143.7875  159.7853 C   0  0  1  0  0  0  0  0  0  0  0  0
  151.8900  145.1018  159.7737 C   0  0  0  0  0  0  0  0  0  0  0  0
  148.4030  138.6899  154.8408 H   0  0  0  0  0  0  0  0  0  0  0  0
  148.8244  139.0628  153.1759 H   0  0  0  0  0  0  0  0  0  0  0  0
  150.1141  136.4546  154.0862 H   0  0  0  0  0  0  0  0  0  0  0  0
  149.8056  140.2094  156.4496 H   0  0  0  0  0  0  0  0  0  0  0  0
  150.3432  142.9043  155.7330 H   0  0  0  0  0  0  0  0  0  0  0  0
  148.6963  142.7990  156.3109 H   0  0  0  0  0  0  0  0  0  0  0  0
  149.4372  141.9100  158.4840 H   0  0  0  0  0  0  0  0  0  0  0  0
  151.0343  141.6090  157.8791 H   0  0  0  0  0  0  0  0  0  0  0  0
  149.8509  144.3918  158.1548 H   0  0  0  0  0  0  0  0  0  0  0  0
  152.3600  143.4940  156.8884 H   0  0  0  0  0  0  0  0  0  0  0  0
  151.6404  145.0991  156.9531 H   0  0  0  0  0  0  0  0  0  0  0  0
  153.6198  145.3510  158.4063 H   0  0  0  0  0  0  0  0  0  0  0  0
  153.8206  142.6496  158.5925 H   0  0  0  0  0  0  0  0  0  0  0  0
  154.2592  143.5898  160.0185 H   0  0  0  0  0  0  0  0  0  0  0  0
  152.0007  141.7567  159.8424 H   0  0  0  0  0  0  0  0  0  0  0  0
  152.4488  142.7891  161.1866 H   0  0  0  0  0  0  0  0  0  0  0  0
  150.2865  143.7613  160.4929 H   0  0  0  0  0  0  0  0  0  0  0  0
  152.3741  145.3299  160.7251 H   0  0  0  0  0  0  0  0  0  0  0  0
  151.2888  145.9588  159.4646 H   0  0  0  0  0  0  0  0  0  0  0  0
  1  2  2  0  0  0  0
  2  3  1  0  0  0  0
  2  9  1  0  0  0  0
  3  4  1  0  0  0  0
  3 19  1  0  0  0  0
  3 20  1  0  0  0  0
  4  8  1  0  0  0  0
  4  5  1  0  0  0  0
  5  6  2  0  0  0  0
  5 21  1  0  0  0  0
  6  7  1  0  0  0  0
  7  8  2  0  0  0  0
  9 10  1  0  0  0  0
  9 22  1  0  0  0  0
 10 11  1  0  0  0  0
 10 23  1  0  0  0  0
 10 24  1  0  0  0  0
 11 12  1  0  0  0  0
 11 25  1  0  0  0  0
 11 26  1  0  0  0  0
 12 17  1  0  0  0  0
 12 13  1  0  0  0  0
 12 27  1  0  0  0  0
 13 14  1  0  0  0  0
 13 28  1  0  0  0  0
 13 29  1  0  0  0  0
 14 18  1  0  0  0  0
 14 15  1  0  0  0  0
 14 30  1  0  0  0  0
 15 16  1  0  0  0  0
 15 31  1  0  0  0  0
 15 32  1  0  0  0  0
 16 17  1  0  0  0  0
 16 33  1  0  0  0  0
 16 34  1  0  0  0  0
 17 18  1  0  0  0  0
 17 35  1  0  0  0  0
 18 36  1  0  0  0  0
 18 37  1  0  0  0  0
M  END
> <s_m_source_file>
AV-unprocessed.smi

> <i_m_source_file_index>
926

> <i_lp_mmshare_version>
43012

> <i_f3d_flags>
0

> <s_epik_input>
bjFubltjSF1uMVtDSDJdQyg9TylbTkhdW0NIMl1bQ0gyXVtDQEhdKFtDSDJdW0NASF0yMylbQ0BIXShbQ0gyXTMpW0NIMl1bQ0gyXTI=

> <s_epik_cmdline>
J2VwaWtfcHl0aG9uJywgJy1waCcsICc3LjAnLCAnLXRuJywgJzgnLCAnLW1hJywgJzIwMCcsICctbWV0YWxfYmluZGluZycsICctaW1hZScsICc8aW5maWxlLm1hZT4nLCAnLW9tYWUnLCAnPG91dGZpbGUubWFlPic=

> <r_lp_tautomer_probability>
1

> <r_epik_Ionization_Penalty>
4.22645e-07

> <r_epik_Ionization_Penalty_Charging>
0

> <r_epik_Ionization_Penalty_Neutral>
4.22645e-07

> <r_epik_State_Penalty>
-0

> <r_epik_Charging_Adjusted_Penalty>
0

> <i_epik_Tot_Q>
0

> <i_epik_Tot_abs_Q>
0

> <r_epik_Metal_State_Penalty>
-0

> <b_epik_Metal_Only>
0

> <s_lp_Force_Field>
OPLS_2005

> <r_lp_Energy>
51.1932

> <b_lp_Chiralities_Consistent>
1

> <s_lp_Variant>
AV-unprocessed.smi:926-1

> <Gold.Version>
5.8.1

> <Gold.Id.Protein>
6NUR|6NUR_protein|mol2

> <Gold.PLP.Fitness>
48.7089

> <Gold.PLP.PLP>
-38.7969

> <Gold.PLP.part.hbond>
-3.1310

> <Gold.PLP.part.metal>
0.0000

> <Gold.PLP.part.buried>
-2.1392

> <Gold.PLP.part.nonpolar>
-35.0773

> <Gold.PLP.part.repulsive>
0.9468

> <Gold.PLP.ligand.clash>
0.0000

> <Gold.PLP.ligand.torsion>
0.1150

> <Gold.PLP.Chemscore.Hbond>
2.6320

> <Gold.PLP.Chemscore.CHOScore>
0.7436

> <Gold.PLP.Chemscore.Metal>
0.0000

> <Gold.Chemscore.Hbonds>
donor molecule, donor type, donor heavy atom, donor atom, acceptor molecule, acceptor atom, score
      P1  H  7989  7998       L1     8  0.99
      P1  H  8011  8017       L1     1  0.74
      P1  H 10752 10765       L1     6  0.94
      L1  C     5    21       P1  7948  0.82
      L1  C     5    21       P1  7949  0.01

> <Gold.PLP.Chemscore.Internal.Correction>
0.0151

> <Gold.Rescore>
     Score         DG    S(hbond)    S(metal)    S(lipo)     H(rot)  DE(clash)    DE(int)     intcor
     18.09     -20.00       2.66        0.00     103.93       2.54       1.75       0.16       ----

> <Gold.Chemscore.Fitness>
18.0881

> <Gold.Chemscore.DG>
-19.9968

> <Gold.Chemscore.ZeroCoef>
-5.4800

> <Gold.Chemscore.Hbond>
2.6553

> <Gold.Chemscore.Metal>
0.0000

> <Gold.Chemscore.Lipo>
103.9285

> <Gold.Chemscore.Internal_Hbond>
0.0000

> <Gold.Chemscore.DEClash>
1.7488

> <Gold.Chemscore.DEInternal>
0.1598

> <Gold.Chemscore.Rot>
2.5436

> <Gold.Chemscore.Internal.Correction>
   9.000000E+99

> <Gold.Chemscore.Hbonds>
donor molecule, donor type, donor heavy atom, donor atom, acceptor molecule, acceptor atom, score
      P1  H  7989  7998       L1     8  0.59
      P1  H  8011  8017       L1     1  0.74
      P1  H 10752 10765       L1     6  0.91

> <Gold.Chemscore.Hbond.Weighted>
-8.8689

> <Gold.Chemscore.Metal.Weighted>
-0.0000

> <Gold.Chemscore.Lipo.Weighted>
-12.1596

> <Gold.Chemscore.Internal_Hbond.Weighted>
0.0000

> <Gold.Chemscore.DEClash.Weighted>
1.7488

> <Gold.Chemscore.DEInternal.Weighted>
0.1598

> <Gold.Chemscore.Rot.Weighted>
6.5117

> <Gold.Chemscore.Internal.Correction.Weighted>
   9.000000E+99

> <Gold.Protein.RotatedTorsions>
[ 6907 6896 6895 6894 ] final  131.18 input  -60.11 | X-H torsion
[ 7974 7965 7964 7962 ] final  164.22 input  175.53 | X-H torsion
[ 8008 7997 7996 7995 ] final  -25.12 input   59.86 | X-H torsion
[ 10167 10162 10161 10158 ] final  152.80 input  -65.29 | X-H torsion
[ 10718 10713 10712 10709 ] final -101.92 input   66.30 | X-H torsion
[ 10763 10752 10751 10750 ] final  164.79 input  -60.55 | X-H torsion
[ 11005 11000 10999 10996 ] final  168.27 input  -57.11 | X-H torsion

> <Gold.Protein.ActiveResidues>
 VAL166  LYS551  ARG553  GLY616  TRP617  ASP618  TYR619  PRO620  LYS621  CYS622 
 ASP623  PHE694  ASN695  SER759  ASP760  ASP761  ALA762  ILE779  LEU786  VAL792 
 PHE793  MET794  SER795  GLU796  ALA797  LYS798  CYS799  TRP800  GLU811  SER814 

> <Gold.Protein.RotatedAtoms>
  152.3452  133.6113  159.5904 H   0  0  0  0  0  0  0  0  0  0  0  0  # atno 6907 bound_to 6896
  150.7503  133.9661  159.3540 H   0  0  0  0  0  0  0  0  0  0  0  0  # atno 6908 bound_to 6896
  151.7520  135.0831  160.0383 H   0  0  0  0  0  0  0  0  0  0  0  0  # atno 6909 bound_to 6896
  144.7555  139.8294  143.6351 H   0  0  0  0  0  0  0  0  0  0  0  0  # atno 7974 bound_to 7965
  154.4492  140.1935  156.0571 H   0  0  0  0  0  0  0  0  0  0  0  0  # atno 8008 bound_to 7997
  156.0611  140.3296  155.7435 H   0  0  0  0  0  0  0  0  0  0  0  0  # atno 8009 bound_to 7997
  155.5410  140.0586  157.2860 H   0  0  0  0  0  0  0  0  0  0  0  0  # atno 8010 bound_to 7997
  139.4830  144.5327  151.7696 H   0  0  0  0  0  0  0  0  0  0  0  0  # atno 10167 bound_to 10162
  156.0211  130.5396  150.7033 H   0  0  0  0  0  0  0  0  0  0  0  0  # atno 10718 bound_to 10713
  154.3143  135.2757  155.2551 H   0  0  0  0  0  0  0  0  0  0  0  0  # atno 10763 bound_to 10752
  154.4932  135.5828  153.6478 H   0  0  0  0  0  0  0  0  0  0  0  0  # atno 10764 bound_to 10752
  152.9884  135.6140  154.3322 H   0  0  0  0  0  0  0  0  0  0  0  0  # atno 10765 bound_to 10752
  140.2855  134.7716  157.3794 H   0  0  0  0  0  0  0  0  0  0  0  0  # atno 11005 bound_to 11000
  146.1559  139.4657  143.0019 LP  0  0  0  0  0  0  0  0  0  0  0  0  # atno 17320 bound_to 7965
  145.6795  141.0195  143.1614 LP  0  0  0  0  0  0  0  0  0  0  0  0  # atno 17321 bound_to 7965
  140.4855  144.1387  150.5940 LP  0  0  0  0  0  0  0  0  0  0  0  0  # atno 17342 bound_to 10162
  140.4230  143.2603  151.9692 LP  0  0  0  0  0  0  0  0  0  0  0  0  # atno 17343 bound_to 10162
  157.4688  131.0891  151.0665 LP  0  0  0  0  0  0  0  0  0  0  0  0  # atno 17370 bound_to 10713
  157.1131  130.6030  149.5487 LP  0  0  0  0  0  0  0  0  0  0  0  0  # atno 17371 bound_to 10713
  140.1244  134.5178  155.8157 LP  0  0  0  0  0  0  0  0  0  0  0  0  # atno 17394 bound_to 11000
  141.2155  133.6767  156.6924 LP  0  0  0  0  0  0  0  0  0  0  0  0  # atno 17395 bound_to 11000

$$$$
