AV-unprocessed.smi:2279|AV-procd|sdf|9188|dock7
  -GOLD-   2272012403D 1   1.00000     0.00000
 Structure written by MMmdl.
 57 59  0  0  0  0  0  0  0  0  2 V2000
  155.2385  140.4611  163.2968 C   0  0  0  0  0  0  0  0  0  0  0  0
  154.3252  141.0855  162.2628 C   0  0  0  0  0  0  0  0  0  0  0  0
  153.7275  142.3398  162.4905 C   0  0  0  0  0  0  0  0  0  0  0  0
  152.8868  142.8669  161.4905 C   0  0  0  0  0  0  0  0  0  0  0  0
  152.2121  144.2107  161.6685 C   0  0  0  0  0  0  0  0  0  0  0  0
  152.6272  142.2237  160.3321 N   0  0  0  0  0  0  0  0  0  0  0  0
  153.1960  141.0143  160.1025 C   0  0  0  0  0  0  0  0  0  0  0  0
  152.9910  140.2596  158.9171 N   0  0  0  0  0  0  0  0  0  0  0  0
  151.9086  140.2421  158.1193 C   0  0  0  0  0  0  0  0  0  0  0  0
  150.8733  140.8817  158.3076 O   0  0  0  0  0  0  0  0  0  0  0  0
  152.0905  139.4219  157.0739 N   0  0  0  0  0  0  0  0  0  0  0  0
  151.1081  139.1671  156.0242 C   0  0  0  0  0  0  0  0  0  0  0  0
  150.6286  140.4796  155.3907 C   0  0  0  0  0  0  0  0  0  0  0  0
  149.4919  140.2211  154.3875 C   0  0  0  0  0  0  0  0  0  0  0  0
  148.3371  139.5762  155.0346 N   0  0  0  0  0  0  0  0  0  0  0  0
  147.2098  139.4804  154.0811 C   0  0  2  0  0  0  0  0  0  0  0  0
  147.0492  140.7843  153.2585 C   0  0  0  0  0  0  0  0  0  0  0  0
  146.4834  141.9384  154.1065 C   0  0  0  0  0  0  0  0  0  0  0  0
  145.1835  141.5706  154.7187 N   0  3  2  0  0  0  0  0  0  0  0  0
  144.5722  142.6942  155.4602 C   0  0  0  0  0  0  0  0  0  0  0  0
  145.2828  140.3403  155.5403 C   0  0  0  0  0  0  0  0  0  0  0  0
  145.8281  139.1653  154.7096 C   0  0  0  0  0  0  0  0  0  0  0  0
  148.7810  138.2740  155.5561 C   0  0  0  0  0  0  0  0  0  0  0  0
  149.8932  138.4390  156.6074 C   0  0  0  0  0  0  0  0  0  0  0  0
  154.0550  140.4164  161.0519 C   0  0  0  0  0  0  0  0  0  0  0  0
  155.5003  141.1768  164.0767 H   0  0  0  0  0  0  0  0  0  0  0  0
  156.1611  140.1144  162.8303 H   0  0  0  0  0  0  0  0  0  0  0  0
  154.7476  139.6082  163.7656 H   0  0  0  0  0  0  0  0  0  0  0  0
  153.9079  142.8829  163.4068 H   0  0  0  0  0  0  0  0  0  0  0  0
  152.6189  144.7472  162.5261 H   0  0  0  0  0  0  0  0  0  0  0  0
  151.1416  144.0767  161.8250 H   0  0  0  0  0  0  0  0  0  0  0  0
  152.3551  144.8302  160.7825 H   0  0  0  0  0  0  0  0  0  0  0  0
  153.7604  139.6674  158.6424 H   0  0  0  0  0  0  0  0  0  0  0  0
  152.9724  138.9371  156.9980 H   0  0  0  0  0  0  0  0  0  0  0  0
  151.5522  138.5349  155.2526 H   0  0  0  0  0  0  0  0  0  0  0  0
  150.2829  141.1680  156.1636 H   0  0  0  0  0  0  0  0  0  0  0  0
  151.4576  140.9747  154.8835 H   0  0  0  0  0  0  0  0  0  0  0  0
  149.2222  141.1788  153.9497 H   0  0  0  0  0  0  0  0  0  0  0  0
  149.8537  139.5977  153.5681 H   0  0  0  0  0  0  0  0  0  0  0  0
  147.4378  138.6618  153.3964 H   0  0  0  0  0  0  0  0  0  0  0  0
  147.9718  141.1004  152.7766 H   0  0  0  0  0  0  0  0  0  0  0  0
  146.3594  140.5920  152.4358 H   0  0  0  0  0  0  0  0  0  0  0  0
  147.1929  142.2151  154.8880 H   0  0  0  0  0  0  0  0  0  0  0  0
  146.3496  142.8186  153.4766 H   0  0  0  0  0  0  0  0  0  0  0  0
  145.1905  142.9834  156.3110 H   0  0  0  0  0  0  0  0  0  0  0  0
  143.5849  142.4185  155.8323 H   0  0  0  0  0  0  0  0  0  0  0  0
  144.4517  143.5633  154.8127 H   0  0  0  0  0  0  0  0  0  0  0  0
  145.9240  140.5252  156.4037 H   0  0  0  0  0  0  0  0  0  0  0  0
  144.2964  140.0833  155.9280 H   0  0  0  0  0  0  0  0  0  0  0  0
  145.1232  138.9696  153.9002 H   0  0  0  0  0  0  0  0  0  0  0  0
  145.8298  138.2416  155.2868 H   0  0  0  0  0  0  0  0  0  0  0  0
  147.9625  137.7607  156.0569 H   0  0  0  0  0  0  0  0  0  0  0  0
  149.1159  137.6343  154.7382 H   0  0  0  0  0  0  0  0  0  0  0  0
  150.1915  137.4596  156.9830 H   0  0  0  0  0  0  0  0  0  0  0  0
  149.5005  138.9920  157.4624 H   0  0  0  0  0  0  0  0  0  0  0  0
  154.5020  139.4522  160.8564 H   0  0  0  0  0  0  0  0  0  0  0  0
  144.5576  141.3567  153.9555 H   0  0  0  0  0  0  0  0  0  0  0  0
  1  2  1  0  0  0  0
  1 26  1  0  0  0  0
  1 27  1  0  0  0  0
  1 28  1  0  0  0  0
  2 25  1  0  0  0  0
  2  3  2  0  0  0  0
  3  4  1  0  0  0  0
  3 29  1  0  0  0  0
  4  5  1  0  0  0  0
  4  6  2  0  0  0  0
  5 30  1  0  0  0  0
  5 31  1  0  0  0  0
  5 32  1  0  0  0  0
  6  7  1  0  0  0  0
  7  8  1  0  0  0  0
  7 25  2  0  0  0  0
  8  9  1  0  0  0  0
  8 33  1  0  0  0  0
  9 10  2  0  0  0  0
  9 11  1  0  0  0  0
 11 12  1  0  0  0  0
 11 34  1  0  0  0  0
 12 24  1  0  0  0  0
 12 13  1  0  0  0  0
 12 35  1  0  0  0  0
 13 14  1  0  0  0  0
 13 36  1  0  0  0  0
 13 37  1  0  0  0  0
 14 15  1  0  0  0  0
 14 38  1  0  0  0  0
 14 39  1  0  0  0  0
 15 16  1  0  0  0  0
 15 23  1  0  0  0  0
 16 22  1  0  0  0  0
 16 17  1  0  0  0  0
 16 40  1  0  0  0  0
 17 18  1  0  0  0  0
 17 41  1  0  0  0  0
 17 42  1  0  0  0  0
 18 19  1  0  0  0  0
 18 43  1  0  0  0  0
 18 44  1  0  0  0  0
 19 20  1  0  0  0  0
 19 21  1  0  0  0  0
 19 57  1  0  0  0  0
 20 45  1  0  0  0  0
 20 46  1  0  0  0  0
 20 47  1  0  0  0  0
 21 22  1  0  0  0  0
 21 48  1  0  0  0  0
 21 49  1  0  0  0  0
 22 50  1  0  0  0  0
 22 51  1  0  0  0  0
 23 24  1  0  0  0  0
 23 52  1  0  0  0  0
 23 53  1  0  0  0  0
 24 54  1  0  0  0  0
 24 55  1  0  0  0  0
 25 56  1  0  0  0  0
M  CHG  1  19   1
M  END
> <s_m_source_file>
AV-unprocessed.smi

> <i_m_source_file_index>
2279

> <i_lp_mmshare_version>
43012

> <i_f3d_flags>
0

> <s_epik_input>
W0NIM11jMVtjSF1jKFtDSDNdKW5jKFtjSF0xKVtOSF1DKD1PKVtOSF1bQ0hdMltDSDJdW0NIMl1OKFtDSDJdW0NIMl0yKVtDSF0zW0NIMl1bQ0gyXU4oW0NIM10pW0NIMl1bQ0gyXTM=

> <s_epik_cmdline>
J2VwaWtfcHl0aG9uJywgJy1waCcsICc3LjAnLCAnLXRuJywgJzgnLCAnLW1hJywgJzIwMCcsICctbWV0YWxfYmluZGluZycsICctaW1hZScsICc8aW5maWxlLm1hZT4nLCAnLW9tYWUnLCAnPG91dGZpbGUubWFlPic=

> <r_epik_Ionization_Penalty>
1.01001

> <r_epik_Ionization_Penalty_Charging>
0.000974969

> <r_epik_Ionization_Penalty_Neutral>
1.00904

> <r_epik_State_Penalty>
1.10286

> <r_epik_Charging_Adjusted_Penalty>
1.10383

> <i_epik_Tot_Q>
1

> <i_epik_Tot_abs_Q>
1

> <r_epik_Metal_State_Penalty>
1.10279

> <b_epik_Metal_Only>
0

> <s_lp_Force_Field>
OPLS_2005

> <r_lp_Energy>
36.6633

> <b_lp_Chiralities_Consistent>
1

> <s_lp_Variant>
AV-unprocessed.smi:2279-6

> <Gold.Version>
5.8.1

> <Gold.Id.Protein>
6NUR|6NUR_protein|mol2

> <Gold.PLP.Fitness>
46.3452

> <Gold.PLP.PLP>
-41.2848

> <Gold.PLP.part.hbond>
-1.0000

> <Gold.PLP.part.metal>
0.0000

> <Gold.PLP.part.buried>
-1.6265

> <Gold.PLP.part.nonpolar>
-37.1464

> <Gold.PLP.part.repulsive>
0.2647

> <Gold.PLP.ligand.clash>
0.0258

> <Gold.PLP.ligand.torsion>
0.4591

> <Gold.PLP.Chemscore.Hbond>
2.0000

> <Gold.PLP.Chemscore.CHOScore>
0.0000

> <Gold.PLP.Chemscore.Metal>
0.0000

> <Gold.Chemscore.Hbonds>
donor molecule, donor type, donor heavy atom, donor atom, acceptor molecule, acceptor atom, score
      L1  H    19    57       P1 10175  2.00

> <Gold.PLP.Chemscore.Internal.Correction>
0.0045

> <Gold.Rescore>
     Score         DG    S(hbond)    S(metal)    S(lipo)     H(rot)  DE(clash)    DE(int)     intcor
     15.86     -18.40       1.00        0.00     108.17       1.20       0.07       2.48       ----

> <Gold.Chemscore.Fitness>
15.8550

> <Gold.Chemscore.DG>
-18.4015

> <Gold.Chemscore.ZeroCoef>
-5.4800

> <Gold.Chemscore.Hbond>
0.9978

> <Gold.Chemscore.Metal>
0.0000

> <Gold.Chemscore.Lipo>
108.1713

> <Gold.Chemscore.Internal_Hbond>
0.0000

> <Gold.Chemscore.DEClash>
0.0688

> <Gold.Chemscore.DEInternal>
2.4777

> <Gold.Chemscore.Rot>
1.1981

> <Gold.Chemscore.Internal.Correction>
   9.000000E+99

> <Gold.Chemscore.Hbonds>
donor molecule, donor type, donor heavy atom, donor atom, acceptor molecule, acceptor atom, score
      L1  H    19    57       P1 10175  0.40

> <Gold.Chemscore.Hbond.Weighted>
-3.3327

> <Gold.Chemscore.Metal.Weighted>
-0.0000

> <Gold.Chemscore.Lipo.Weighted>
-12.6560

> <Gold.Chemscore.Internal_Hbond.Weighted>
0.0000

> <Gold.Chemscore.DEClash.Weighted>
0.0688

> <Gold.Chemscore.DEInternal.Weighted>
2.4777

> <Gold.Chemscore.Rot.Weighted>
3.0673

> <Gold.Chemscore.Internal.Correction.Weighted>
   9.000000E+99

> <Gold.Protein.RotatedTorsions>
[ 6907 6896 6895 6894 ] final  -55.93 input  -60.11 | X-H torsion
[ 7974 7965 7964 7962 ] final   99.70 input  175.53 | X-H torsion
[ 8008 7997 7996 7995 ] final  161.76 input   59.86 | X-H torsion
[ 10167 10162 10161 10158 ] final  -12.12 input  -65.29 | X-H torsion
[ 10718 10713 10712 10709 ] final   -5.45 input   66.30 | X-H torsion
[ 10763 10752 10751 10750 ] final   46.88 input  -60.55 | X-H torsion
[ 11005 11000 10999 10996 ] final   69.97 input  -57.11 | X-H torsion

> <Gold.Protein.ActiveResidues>
 VAL166  LYS551  ARG553  GLY616  TRP617  ASP618  TYR619  PRO620  LYS621  CYS622 
 ASP623  PHE694  ASN695  SER759  ASP760  ASP761  ALA762  ILE779  LEU786  VAL792 
 PHE793  MET794  SER795  GLU796  ALA797  LYS798  CYS799  TRP800  GLU811  SER814 

> <Gold.Protein.RotatedAtoms>
  150.8210  134.7417  159.6771 H   0  0  0  0  0  0  0  0  0  0  0  0  # atno 6907 bound_to 6896
  152.4325  134.5747  159.9941 H   0  0  0  0  0  0  0  0  0  0  0  0  # atno 6908 bound_to 6896
  151.5931  133.3327  159.3068 H   0  0  0  0  0  0  0  0  0  0  0  0  # atno 6909 bound_to 6896
  145.3954  139.2356  143.3329 H   0  0  0  0  0  0  0  0  0  0  0  0  # atno 7974 bound_to 7965
  156.2080  140.1768  156.7758 H   0  0  0  0  0  0  0  0  0  0  0  0  # atno 8008 bound_to 7997
  154.5682  140.0687  156.8954 H   0  0  0  0  0  0  0  0  0  0  0  0  # atno 8009 bound_to 7997
  155.2722  140.3343  155.4267 H   0  0  0  0  0  0  0  0  0  0  0  0  # atno 8010 bound_to 7997
  140.7154  143.5566  150.9241 H   0  0  0  0  0  0  0  0  0  0  0  0  # atno 10167 bound_to 10162
  156.7465  130.5226  149.5813 H   0  0  0  0  0  0  0  0  0  0  0  0  # atno 10718 bound_to 10713
  152.9806  135.5994  154.3671 H   0  0  0  0  0  0  0  0  0  0  0  0  # atno 10763 bound_to 10752
  154.3348  135.2768  155.2455 H   0  0  0  0  0  0  0  0  0  0  0  0  # atno 10764 bound_to 10752
  154.4563  135.5977  153.6281 H   0  0  0  0  0  0  0  0  0  0  0  0  # atno 10765 bound_to 10752
  139.9624  134.7039  156.0618 H   0  0  0  0  0  0  0  0  0  0  0  0  # atno 11005 bound_to 11000
  146.2777  140.4644  142.8788 LP  0  0  0  0  0  0  0  0  0  0  0  0  # atno 17320 bound_to 7965
  144.8411  140.6858  143.6229 LP  0  0  0  0  0  0  0  0  0  0  0  0  # atno 17321 bound_to 7965
  139.9291  143.6514  152.3080 LP  0  0  0  0  0  0  0  0  0  0  0  0  # atno 17342 bound_to 10162
  139.6959  144.7641  151.1358 LP  0  0  0  0  0  0  0  0  0  0  0  0  # atno 17343 bound_to 10162
  156.1430  130.6257  151.0493 LP  0  0  0  0  0  0  0  0  0  0  0  0  # atno 17370 bound_to 10713
  157.6796  131.0841  150.7405 LP  0  0  0  0  0  0  0  0  0  0  0  0  # atno 17371 bound_to 10713
  141.1301  133.6588  156.3442 LP  0  0  0  0  0  0  0  0  0  0  0  0  # atno 17394 bound_to 11000
  140.5472  134.6063  157.5397 LP  0  0  0  0  0  0  0  0  0  0  0  0  # atno 17395 bound_to 11000

$$$$
