AV-unprocessed.smi:2473|AV-procd|sdf|9750|dock6
  -GOLD-   2272013393D 1   1.00000     0.00000
 Structure written by MMmdl.
 47 48  0  0  0  0  0  0  0  0  1 V2000
  149.0738  141.3173  156.4985 C   0  0  0  0  0  0  0  0  0  0  0  0
  150.2686  140.3542  156.5471 C   0  0  1  0  0  0  0  0  0  0  0  0
  150.3658  139.6646  157.9225 C   0  0  0  0  0  0  0  0  0  0  0  0
  151.5239  138.6470  158.0235 C   0  0  2  0  0  0  0  0  0  0  0  0
  152.8973  139.2865  158.2989 C   0  0  0  0  0  0  0  0  0  0  0  0
  153.8413  139.1279  157.5251 O   0  0  0  0  0  0  0  0  0  0  0  0
  152.9728  140.0685  159.3879 N   0  0  0  0  0  0  0  0  0  0  0  0
  154.1392  140.8459  159.7987 C   0  0  0  0  0  0  0  0  0  0  0  0
  153.8845  141.6617  161.0817 C   0  0  0  0  0  0  0  0  0  0  0  0
  152.7049  142.5850  160.9939 C   0  0  0  0  0  0  0  0  0  0  0  0
  152.0937  142.8814  159.8509 N   0  0  0  0  0  0  0  0  0  0  0  0
  151.0505  143.7260  160.2131 C   0  0  0  0  0  0  0  0  0  0  0  0
  151.0702  143.9167  161.5733 C   0  0  0  0  0  0  0  0  0  0  0  0
  152.1396  143.1794  162.0642 N   0  0  0  0  0  0  0  0  0  0  0  0
  152.5377  143.0889  163.4559 C   0  0  0  0  0  0  0  0  0  0  0  0
  151.5222  137.6651  156.8252 C   0  0  0  0  0  0  0  0  0  0  0  0
  151.3572  138.2948  155.4146 C   0  0  0  0  0  0  0  0  0  0  0  0
  152.6581  138.9637  154.9186 C   0  0  0  0  0  0  0  0  0  0  0  0
  151.0247  137.1648  154.4187 C   0  0  0  0  0  0  0  0  0  0  0  0
  150.1816  139.3023  155.4236 C   0  0  0  0  0  0  0  0  0  0  0  0
  148.1307  140.7887  156.6409 H   0  0  0  0  0  0  0  0  0  0  0  0
  149.0243  141.8339  155.5397 H   0  0  0  0  0  0  0  0  0  0  0  0
  149.1508  142.0763  157.2774 H   0  0  0  0  0  0  0  0  0  0  0  0
  151.1609  140.9583  156.3890 H   0  0  0  0  0  0  0  0  0  0  0  0
  150.4587  140.4161  158.7085 H   0  0  0  0  0  0  0  0  0  0  0  0
  149.4288  139.1440  158.1251 H   0  0  0  0  0  0  0  0  0  0  0  0
  151.3187  138.0507  158.9144 H   0  0  0  0  0  0  0  0  0  0  0  0
  152.1478  140.1520  159.9640 H   0  0  0  0  0  0  0  0  0  0  0  0
  154.9581  140.1480  159.9726 H   0  0  0  0  0  0  0  0  0  0  0  0
  154.4683  141.5036  158.9925 H   0  0  0  0  0  0  0  0  0  0  0  0
  153.7665  140.9907  161.9324 H   0  0  0  0  0  0  0  0  0  0  0  0
  154.7666  142.2641  161.3015 H   0  0  0  0  0  0  0  0  0  0  0  0
  150.3731  144.1270  159.4739 H   0  0  0  0  0  0  0  0  0  0  0  0
  150.4271  144.5002  162.2155 H   0  0  0  0  0  0  0  0  0  0  0  0
  151.8198  143.6140  164.0867 H   0  0  0  0  0  0  0  0  0  0  0  0
  153.5204  143.5418  163.5876 H   0  0  0  0  0  0  0  0  0  0  0  0
  152.5774  142.0458  163.7674 H   0  0  0  0  0  0  0  0  0  0  0  0
  152.4168  137.0410  156.8482 H   0  0  0  0  0  0  0  0  0  0  0  0
  150.6947  136.9732  156.9894 H   0  0  0  0  0  0  0  0  0  0  0  0
  152.5560  139.3028  153.8872 H   0  0  0  0  0  0  0  0  0  0  0  0
  153.4972  138.2681  154.9495 H   0  0  0  0  0  0  0  0  0  0  0  0
  152.9380  139.8357  155.5032 H   0  0  0  0  0  0  0  0  0  0  0  0
  150.8873  137.5515  153.4082 H   0  0  0  0  0  0  0  0  0  0  0  0
  150.1068  136.6434  154.6928 H   0  0  0  0  0  0  0  0  0  0  0  0
  151.8223  136.4222  154.3799 H   0  0  0  0  0  0  0  0  0  0  0  0
  149.2433  138.7569  155.5365 H   0  0  0  0  0  0  0  0  0  0  0  0
  150.1191  139.8027  154.4563 H   0  0  0  0  0  0  0  0  0  0  0  0
  1  2  1  0  0  0  0
  1 21  1  0  0  0  0
  1 22  1  0  0  0  0
  1 23  1  0  0  0  0
  2 20  1  0  0  0  0
  2  3  1  0  0  0  0
  2 24  1  0  0  0  0
  3  4  1  0  0  0  0
  3 25  1  0  0  0  0
  3 26  1  0  0  0  0
  4  5  1  0  0  0  0
  4 16  1  0  0  0  0
  4 27  1  0  0  0  0
  5  6  2  0  0  0  0
  5  7  1  0  0  0  0
  7  8  1  0  0  0  0
  7 28  1  0  0  0  0
  8  9  1  0  0  0  0
  8 29  1  0  0  0  0
  8 30  1  0  0  0  0
  9 10  1  0  0  0  0
  9 31  1  0  0  0  0
  9 32  1  0  0  0  0
 10 14  1  0  0  0  0
 10 11  2  0  0  0  0
 11 12  1  0  0  0  0
 12 13  2  0  0  0  0
 12 33  1  0  0  0  0
 13 14  1  0  0  0  0
 13 34  1  0  0  0  0
 14 15  1  0  0  0  0
 15 35  1  0  0  0  0
 15 36  1  0  0  0  0
 15 37  1  0  0  0  0
 16 17  1  0  0  0  0
 16 38  1  0  0  0  0
 16 39  1  0  0  0  0
 17 18  1  0  0  0  0
 17 19  1  0  0  0  0
 17 20  1  0  0  0  0
 18 40  1  0  0  0  0
 18 41  1  0  0  0  0
 18 42  1  0  0  0  0
 19 43  1  0  0  0  0
 19 44  1  0  0  0  0
 19 45  1  0  0  0  0
 20 46  1  0  0  0  0
 20 47  1  0  0  0  0
M  END
> <s_m_source_file>
AV-unprocessed.smi

> <i_m_source_file_index>
2473

> <i_lp_mmshare_version>
43012

> <i_f3d_flags>
0

> <s_epik_input>
W0NIM11bQ0BASF0oW0NIMl0xKVtDSDJdW0NASF0oW0NIMl1DMShbQ0gzXSlbQ0gzXSlDKD1PKVtOSF1bQ0gyXVtDSDJdYzJuW2NIXVtjSF1uMltDSDNd

> <s_epik_cmdline>
J2VwaWtfcHl0aG9uJywgJy1waCcsICc3LjAnLCAnLXRuJywgJzgnLCAnLW1hJywgJzIwMCcsICctbWV0YWxfYmluZGluZycsICctaW1hZScsICc8aW5maWxlLm1hZT4nLCAnLW9tYWUnLCAnPG91dGZpbGUubWFlPic=

> <r_lp_tautomer_probability>
1

> <r_epik_Ionization_Penalty>
1.22858

> <r_epik_Ionization_Penalty_Charging>
1.22858

> <r_epik_Ionization_Penalty_Neutral>
2.12671e-08

> <r_epik_State_Penalty>
1.2965

> <r_epik_Charging_Adjusted_Penalty>
2.52508

> <i_epik_Tot_Q>
0

> <i_epik_Tot_abs_Q>
0

> <r_epik_Metal_State_Penalty>
0.411461

> <b_epik_Metal_Only>
0

> <s_lp_Force_Field>
OPLS_2005

> <r_lp_Energy>
14.2462

> <b_lp_Chiralities_Consistent>
1

> <s_lp_Variant>
AV-unprocessed.smi:2473-8

> <Gold.Version>
5.8.1

> <Gold.Id.Protein>
6NUR|6NUR_protein|mol2

> <Gold.PLP.Fitness>
47.2759

> <Gold.PLP.PLP>
-44.6020

> <Gold.PLP.part.hbond>
-1.0000

> <Gold.PLP.part.metal>
0.0000

> <Gold.PLP.part.buried>
-0.8893

> <Gold.PLP.part.nonpolar>
-42.2948

> <Gold.PLP.part.repulsive>
0.1142

> <Gold.PLP.ligand.clash>
0.0000

> <Gold.PLP.ligand.torsion>
0.2156

> <Gold.PLP.Chemscore.Hbond>
1.0000

> <Gold.PLP.Chemscore.CHOScore>
0.0000

> <Gold.PLP.Chemscore.Metal>
0.0000

> <Gold.Chemscore.Hbonds>
donor molecule, donor type, donor heavy atom, donor atom, acceptor molecule, acceptor atom, score
      P1  H  7997  8008       L1     6  0.36

> <Gold.PLP.Chemscore.Internal.Correction>
0.1051

> <Gold.Rescore>
     Score         DG    S(hbond)    S(metal)    S(lipo)     H(rot)  DE(clash)    DE(int)     intcor
     13.20     -17.37       0.92        0.00     108.52       1.51       0.99       3.18       ----

> <Gold.Chemscore.Fitness>
13.2002

> <Gold.Chemscore.DG>
-17.3720

> <Gold.Chemscore.ZeroCoef>
-5.4800

> <Gold.Chemscore.Hbond>
0.9172

> <Gold.Chemscore.Metal>
0.0000

> <Gold.Chemscore.Lipo>
108.5178

> <Gold.Chemscore.Internal_Hbond>
0.0000

> <Gold.Chemscore.DEClash>
0.9949

> <Gold.Chemscore.DEInternal>
3.1768

> <Gold.Chemscore.Rot>
1.5109

> <Gold.Chemscore.Internal.Correction>
   9.000000E+99

> <Gold.Chemscore.Hbonds>
donor molecule, donor type, donor heavy atom, donor atom, acceptor molecule, acceptor atom, score
      P1  H  7997  8008       L1     6  0.37

> <Gold.Chemscore.Hbond.Weighted>
-3.0633

> <Gold.Chemscore.Metal.Weighted>
-0.0000

> <Gold.Chemscore.Lipo.Weighted>
-12.6966

> <Gold.Chemscore.Internal_Hbond.Weighted>
0.0000

> <Gold.Chemscore.DEClash.Weighted>
0.9949

> <Gold.Chemscore.DEInternal.Weighted>
3.1768

> <Gold.Chemscore.Rot.Weighted>
3.8680

> <Gold.Chemscore.Internal.Correction.Weighted>
   9.000000E+99

> <Gold.Protein.RotatedTorsions>
[ 6907 6896 6895 6894 ] final -140.06 input  -60.11 | X-H torsion
[ 7974 7965 7964 7962 ] final   58.40 input  175.53 | X-H torsion
[ 8008 7997 7996 7995 ] final  -88.14 input   59.86 | X-H torsion
[ 10167 10162 10161 10158 ] final  169.32 input  -65.29 | X-H torsion
[ 10718 10713 10712 10709 ] final -159.80 input   66.30 | X-H torsion
[ 10763 10752 10751 10750 ] final -143.63 input  -60.55 | X-H torsion
[ 11005 11000 10999 10996 ] final  146.73 input  -57.11 | X-H torsion

> <Gold.Protein.ActiveResidues>
 VAL166  LYS551  ARG553  GLY616  TRP617  ASP618  TYR619  PRO620  LYS621  CYS622 
 ASP623  PHE694  ASN695  SER759  ASP760  ASP761  ALA762  ILE779  LEU786  VAL792 
 PHE793  MET794  SER795  GLU796  ALA797  LYS798  CYS799  TRP800  GLU811  SER814 

> <Gold.Protein.RotatedAtoms>
  151.0558  133.5585  159.2638 H   0  0  0  0  0  0  0  0  0  0  0  0  # atno 6907 bound_to 6896
  151.2579  135.0643  159.9097 H   0  0  0  0  0  0  0  0  0  0  0  0  # atno 6908 bound_to 6896
  152.5389  134.0309  159.8078 H   0  0  0  0  0  0  0  0  0  0  0  0  # atno 6909 bound_to 6896
  145.9186  139.3711  143.0492 H   0  0  0  0  0  0  0  0  0  0  0  0  # atno 7974 bound_to 7965
  154.6713  140.0557  157.0169 H   0  0  0  0  0  0  0  0  0  0  0  0  # atno 8008 bound_to 7997
  155.1084  140.3236  155.4509 H   0  0  0  0  0  0  0  0  0  0  0  0  # atno 8009 bound_to 7997
  156.2658  140.2018  156.6209 H   0  0  0  0  0  0  0  0  0  0  0  0  # atno 8010 bound_to 7997
  139.4989  144.3719  151.9715 H   0  0  0  0  0  0  0  0  0  0  0  0  # atno 10167 bound_to 10162
  156.5731  130.8697  151.2843 H   0  0  0  0  0  0  0  0  0  0  0  0  # atno 10718 bound_to 10713
  154.8462  135.3463  154.6217 H   0  0  0  0  0  0  0  0  0  0  0  0  # atno 10763 bound_to 10752
  153.6826  135.6979  153.5118 H   0  0  0  0  0  0  0  0  0  0  0  0  # atno 10764 bound_to 10752
  153.2656  135.4309  155.0893 H   0  0  0  0  0  0  0  0  0  0  0  0  # atno 10765 bound_to 10752
  140.0817  134.9093  157.1511 H   0  0  0  0  0  0  0  0  0  0  0  0  # atno 11005 bound_to 11000
  145.8579  140.9492  143.0715 LP  0  0  0  0  0  0  0  0  0  0  0  0  # atno 17320 bound_to 7965
  144.6750  140.0493  143.7479 LP  0  0  0  0  0  0  0  0  0  0  0  0  # atno 17321 bound_to 7965
  140.3155  144.3488  150.6022 LP  0  0  0  0  0  0  0  0  0  0  0  0  # atno 17342 bound_to 10162
  140.5764  143.2176  151.7507 LP  0  0  0  0  0  0  0  0  0  0  0  0  # atno 17343 bound_to 10162
  157.7343  130.9745  150.2025 LP  0  0  0  0  0  0  0  0  0  0  0  0  # atno 17370 bound_to 10713
  156.2697  130.3720  149.8044 LP  0  0  0  0  0  0  0  0  0  0  0  0  # atno 17371 bound_to 10713
  140.3478  134.2632  155.7202 LP  0  0  0  0  0  0  0  0  0  0  0  0  # atno 17394 bound_to 11000
  141.2049  133.7875  157.0263 LP  0  0  0  0  0  0  0  0  0  0  0  0  # atno 17395 bound_to 11000

$$$$
