AV-unprocessed.smi:427|AV-procd|sdf|2542|dock9
  -GOLD-   2262022503D 1   1.00000     0.00000
 Structure written by MMmdl.
 51 52  0  0  0  0  0  0  0  0  1 V2000
  152.9506  139.0514  158.7138 C   0  0  0  0  0  0  0  0  0  0  0  0
  151.9218  140.1633  158.6210 C   0  0  0  0  0  0  0  0  0  0  0  0
  152.3003  141.4885  158.9215 C   0  0  0  0  0  0  0  0  0  0  0  0
  151.3653  142.5496  158.8517 C   0  0  0  0  0  0  0  0  0  0  0  0
  151.7437  144.0081  159.1737 C   0  0  0  0  0  0  0  0  0  0  0  0
  150.4807  144.8916  159.1175 C   0  0  0  0  0  0  0  0  0  0  0  0
  152.7744  144.5976  158.1843 C   0  0  0  0  0  0  0  0  0  0  0  0
  152.3583  144.0870  160.5872 C   0  0  0  0  0  0  0  0  0  0  0  0
  150.0401  142.2423  158.4673 C   0  0  0  0  0  0  0  0  0  0  0  0
  149.6560  140.9223  158.1681 C   0  0  0  0  0  0  0  0  0  0  0  0
  150.5941  139.8651  158.2443 C   0  0  0  0  0  0  0  0  0  0  0  0
  150.2896  138.5490  157.9684 O   0  0  0  0  0  0  0  0  0  0  0  0
  148.9675  138.0900  158.2165 C   0  0  0  0  0  0  0  0  0  0  0  0
  149.0537  136.7481  158.9582 C   0  0  2  0  0  0  0  0  0  0  0  0
  149.8541  135.8862  158.1751 O   0  0  0  0  0  0  0  0  0  0  0  0
  147.6633  136.1005  159.1497 C   0  0  0  0  0  0  0  0  0  0  0  0
  147.5851  135.2610  160.3325 N   0  0  0  0  0  0  0  0  0  0  0  0
  147.4763  135.8973  161.5936 C   0  0  0  0  0  0  0  0  0  0  0  0
  147.4461  137.1229  161.7110 O   0  0  0  0  0  0  0  0  0  0  0  0
  147.3874  134.9873  162.7306 C   0  0  0  0  0  0  0  0  0  0  0  0
  147.3942  133.6484  162.5512 C   0  0  0  0  0  0  0  0  0  0  0  0
  147.4811  133.0605  161.3044 N   0  0  0  0  0  0  0  0  0  0  0  0
  147.4706  131.6380  161.1207 C   0  0  0  0  0  0  0  0  0  0  0  0
  147.5743  133.8581  160.1436 C   0  0  0  0  0  0  0  0  0  0  0  0
  147.6328  133.3495  159.0205 O   0  0  0  0  0  0  0  0  0  0  0  0
  153.9468  139.4423  158.9226 H   0  0  0  0  0  0  0  0  0  0  0  0
  152.9968  138.4946  157.7773 H   0  0  0  0  0  0  0  0  0  0  0  0
  152.6838  138.3587  159.5123 H   0  0  0  0  0  0  0  0  0  0  0  0
  153.3248  141.6670  159.2078 H   0  0  0  0  0  0  0  0  0  0  0  0
  150.7168  145.9357  159.3255 H   0  0  0  0  0  0  0  0  0  0  0  0
  149.7310  144.5825  159.8460 H   0  0  0  0  0  0  0  0  0  0  0  0
  150.0162  144.8512  158.1315 H   0  0  0  0  0  0  0  0  0  0  0  0
  152.3920  144.6122  157.1628 H   0  0  0  0  0  0  0  0  0  0  0  0
  153.7069  144.0319  158.1895 H   0  0  0  0  0  0  0  0  0  0  0  0
  153.0255  145.6271  158.4424 H   0  0  0  0  0  0  0  0  0  0  0  0
  152.6580  145.1065  160.8331 H   0  0  0  0  0  0  0  0  0  0  0  0
  153.2456  143.4575  160.6664 H   0  0  0  0  0  0  0  0  0  0  0  0
  151.6591  143.7671  161.3597 H   0  0  0  0  0  0  0  0  0  0  0  0
  149.2976  143.0228  158.3966 H   0  0  0  0  0  0  0  0  0  0  0  0
  148.6310  140.7478  157.8792 H   0  0  0  0  0  0  0  0  0  0  0  0
  148.4103  138.8135  158.8144 H   0  0  0  0  0  0  0  0  0  0  0  0
  148.4457  137.9573  157.2670 H   0  0  0  0  0  0  0  0  0  0  0  0
  149.5500  136.9060  159.9167 H   0  0  0  0  0  0  0  0  0  0  0  0
  149.3105  135.4973  157.5067 H   0  0  0  0  0  0  0  0  0  0  0  0
  146.8819  136.8544  159.2616 H   0  0  0  0  0  0  0  0  0  0  0  0
  147.3429  135.5217  158.2816 H   0  0  0  0  0  0  0  0  0  0  0  0
  147.3115  135.3918  163.7294 H   0  0  0  0  0  0  0  0  0  0  0  0
  147.3237  133.0143  163.4228 H   0  0  0  0  0  0  0  0  0  0  0  0
  148.4011  131.3625  160.6212 H   0  0  0  0  0  0  0  0  0  0  0  0
  146.5923  131.3905  160.5216 H   0  0  0  0  0  0  0  0  0  0  0  0
  147.4093  131.1718  162.1048 H   0  0  0  0  0  0  0  0  0  0  0  0
  1  2  1  0  0  0  0
  1 26  1  0  0  0  0
  1 27  1  0  0  0  0
  1 28  1  0  0  0  0
  2 11  1  0  0  0  0
  2  3  2  0  0  0  0
  3  4  1  0  0  0  0
  3 29  1  0  0  0  0
  4  5  1  0  0  0  0
  4  9  2  0  0  0  0
  5  6  1  0  0  0  0
  5  7  1  0  0  0  0
  5  8  1  0  0  0  0
  6 30  1  0  0  0  0
  6 31  1  0  0  0  0
  6 32  1  0  0  0  0
  7 33  1  0  0  0  0
  7 34  1  0  0  0  0
  7 35  1  0  0  0  0
  8 36  1  0  0  0  0
  8 37  1  0  0  0  0
  8 38  1  0  0  0  0
  9 10  1  0  0  0  0
  9 39  1  0  0  0  0
 10 11  2  0  0  0  0
 10 40  1  0  0  0  0
 11 12  1  0  0  0  0
 12 13  1  0  0  0  0
 13 14  1  0  0  0  0
 13 41  1  0  0  0  0
 13 42  1  0  0  0  0
 14 15  1  0  0  0  0
 14 16  1  0  0  0  0
 14 43  1  0  0  0  0
 15 44  1  0  0  0  0
 16 17  1  0  0  0  0
 16 45  1  0  0  0  0
 16 46  1  0  0  0  0
 17 24  1  0  0  0  0
 17 18  1  0  0  0  0
 18 19  2  0  0  0  0
 18 20  1  0  0  0  0
 20 21  2  0  0  0  0
 20 47  1  0  0  0  0
 21 22  1  0  0  0  0
 21 48  1  0  0  0  0
 22 23  1  0  0  0  0
 22 24  1  0  0  0  0
 23 49  1  0  0  0  0
 23 50  1  0  0  0  0
 23 51  1  0  0  0  0
 24 25  2  0  0  0  0
M  END
> <s_m_source_file>
AV-unprocessed.smi

> <i_m_source_file_index>
427

> <i_lp_mmshare_version>
43012

> <i_f3d_flags>
0

> <s_epik_input>
W0NIM11jMVtjSF1jKEMoW0NIM10pKFtDSDNdKVtDSDNdKVtjSF1bY0hdYzFPW0NIMl1bQ0BIXShbT0hdKVtDSDJdbjJjKD1PKVtjSF1bY0hdbihbQ0gzXSljMj1P

> <s_epik_cmdline>
J2VwaWtfcHl0aG9uJywgJy1waCcsICc3LjAnLCAnLXRuJywgJzgnLCAnLW1hJywgJzIwMCcsICctbWV0YWxfYmluZGluZycsICctaW1hZScsICc8aW5maWxlLm1hZT4nLCAnLW9tYWUnLCAnPG91dGZpbGUubWFlPic=

> <r_lp_tautomer_probability>
1

> <r_epik_Ionization_Penalty>
2.02112e-07

> <r_epik_Ionization_Penalty_Charging>
8.49383e-08

> <r_epik_Ionization_Penalty_Neutral>
1.17174e-07

> <r_epik_State_Penalty>
-0

> <r_epik_Charging_Adjusted_Penalty>
8.49383e-08

> <i_epik_Tot_Q>
0

> <i_epik_Tot_abs_Q>
0

> <r_epik_Metal_State_Penalty>
-0

> <b_epik_Metal_Only>
0

> <s_lp_Force_Field>
OPLS_2005

> <r_lp_Energy>
25.5029

> <b_lp_Chiralities_Consistent>
1

> <s_lp_Variant>
AV-unprocessed.smi:427-1

> <Gold.Version>
5.8.1

> <Gold.Id.Protein>
6NUR|6NUR_protein|mol2

> <Gold.PLP.Fitness>
57.0125

> <Gold.PLP.PLP>
-51.5124

> <Gold.PLP.part.hbond>
-3.0000

> <Gold.PLP.part.metal>
0.0000

> <Gold.PLP.part.buried>
-6.5329

> <Gold.PLP.part.nonpolar>
-42.8964

> <Gold.PLP.part.repulsive>
0.0000

> <Gold.PLP.ligand.clash>
0.0000

> <Gold.PLP.ligand.torsion>
1.3381

> <Gold.PLP.Chemscore.Hbond>
2.7040

> <Gold.PLP.Chemscore.CHOScore>
0.0000

> <Gold.PLP.Chemscore.Metal>
0.0000

> <Gold.Chemscore.Hbonds>
donor molecule, donor type, donor heavy atom, donor atom, acceptor molecule, acceptor atom, score
      P1  H  6896  6908       L1    15  0.94
      P1  H  6931  6943       L1    19  0.96
      P1  H  6934  6947       L1    19  0.74

> <Gold.PLP.Chemscore.Internal.Correction>
0.0643

> <Gold.Rescore>
     Score         DG    S(hbond)    S(metal)    S(lipo)     H(rot)  DE(clash)    DE(int)     intcor
     21.18     -22.36       2.48        0.00     128.00       2.49       0.05       1.13       ----

> <Gold.Chemscore.Fitness>
21.1750

> <Gold.Chemscore.DG>
-22.3587

> <Gold.Chemscore.ZeroCoef>
-5.4800

> <Gold.Chemscore.Hbond>
2.4778

> <Gold.Chemscore.Metal>
0.0000

> <Gold.Chemscore.Lipo>
127.9980

> <Gold.Chemscore.Internal_Hbond>
0.0000

> <Gold.Chemscore.DEClash>
0.0515

> <Gold.Chemscore.DEInternal>
1.1322

> <Gold.Chemscore.Rot>
2.4894

> <Gold.Chemscore.Internal.Correction>
   9.000000E+99

> <Gold.Chemscore.Hbonds>
donor molecule, donor type, donor heavy atom, donor atom, acceptor molecule, acceptor atom, score
      P1  H  6896  6908       L1    15  0.26
      P1  H  6931  6943       L1    19  0.91
      P1  H  6934  6947       L1    19  0.72

> <Gold.Chemscore.Hbond.Weighted>
-8.2758

> <Gold.Chemscore.Metal.Weighted>
-0.0000

> <Gold.Chemscore.Lipo.Weighted>
-14.9758

> <Gold.Chemscore.Internal_Hbond.Weighted>
0.0000

> <Gold.Chemscore.DEClash.Weighted>
0.0515

> <Gold.Chemscore.DEInternal.Weighted>
1.1322

> <Gold.Chemscore.Rot.Weighted>
6.3728

> <Gold.Chemscore.Internal.Correction.Weighted>
   9.000000E+99

> <Gold.Protein.RotatedTorsions>
[ 6907 6896 6895 6894 ] final -176.45 input  -60.11 | X-H torsion
[ 7974 7965 7964 7962 ] final   70.17 input  175.53 | X-H torsion
[ 8008 7997 7996 7995 ] final  100.49 input   59.86 | X-H torsion
[ 10167 10162 10161 10158 ] final  -11.07 input  -65.29 | X-H torsion
[ 10718 10713 10712 10709 ] final  107.59 input   66.30 | X-H torsion
[ 10763 10752 10751 10750 ] final  -40.02 input  -60.55 | X-H torsion
[ 11005 11000 10999 10996 ] final -131.83 input  -57.11 | X-H torsion

> <Gold.Protein.ActiveResidues>
 VAL166  LYS551  ARG553  GLY616  TRP617  ASP618  TYR619  PRO620  LYS621  CYS622 
 ASP623  PHE694  ASN695  SER759  ASP760  ASP761  ALA762  ILE779  LEU786  VAL792 
 PHE793  MET794  SER795  GLU796  ALA797  LYS798  CYS799  TRP800  GLU811  SER814 

> <Gold.Protein.RotatedAtoms>
  151.6050  133.3352  159.3055 H   0  0  0  0  0  0  0  0  0  0  0  0  # atno 6907 bound_to 6896
  150.8187  134.7386  159.6764 H   0  0  0  0  0  0  0  0  0  0  0  0  # atno 6908 bound_to 6896
  152.4282  134.5834  160.0006 H   0  0  0  0  0  0  0  0  0  0  0  0  # atno 6909 bound_to 6896
  145.7814  139.2889  143.1263 H   0  0  0  0  0  0  0  0  0  0  0  0  # atno 7974 bound_to 7965
  156.1208  140.3212  155.8206 H   0  0  0  0  0  0  0  0  0  0  0  0  # atno 8008 bound_to 7997
  155.4508  140.0532  157.3018 H   0  0  0  0  0  0  0  0  0  0  0  0  # atno 8009 bound_to 7997
  154.4826  140.2059  155.9742 H   0  0  0  0  0  0  0  0  0  0  0  0  # atno 8010 bound_to 7997
  140.7129  143.5679  150.9124 H   0  0  0  0  0  0  0  0  0  0  0  0  # atno 10167 bound_to 10162
  157.6622  131.0876  150.6179 H   0  0  0  0  0  0  0  0  0  0  0  0  # atno 10718 bound_to 10713
  153.9390  135.6763  153.4744 H   0  0  0  0  0  0  0  0  0  0  0  0  # atno 10763 bound_to 10752
  153.0941  135.4860  154.8742 H   0  0  0  0  0  0  0  0  0  0  0  0  # atno 10764 bound_to 10752
  154.7387  135.3155  154.8724 H   0  0  0  0  0  0  0  0  0  0  0  0  # atno 10765 bound_to 10752
  140.9224  134.1427  157.4303 H   0  0  0  0  0  0  0  0  0  0  0  0  # atno 11005 bound_to 11000
  146.0070  140.8469  142.9990 LP  0  0  0  0  0  0  0  0  0  0  0  0  # atno 17320 bound_to 7965
  144.6796  140.2435  143.7341 LP  0  0  0  0  0  0  0  0  0  0  0  0  # atno 17321 bound_to 7965
  139.9405  143.6388  152.3055 LP  0  0  0  0  0  0  0  0  0  0  0  0  # atno 17342 bound_to 10162
  139.6871  144.7650  151.1505 LP  0  0  0  0  0  0  0  0  0  0  0  0  # atno 17343 bound_to 10162
  156.6482  130.4477  149.5728 LP  0  0  0  0  0  0  0  0  0  0  0  0  # atno 17370 bound_to 10713
  156.2158  130.6707  151.1317 LP  0  0  0  0  0  0  0  0  0  0  0  0  # atno 17371 bound_to 10713
  139.8778  134.9976  156.5856 LP  0  0  0  0  0  0  0  0  0  0  0  0  # atno 17394 bound_to 11000
  140.7970  133.8536  155.8694 LP  0  0  0  0  0  0  0  0  0  0  0  0  # atno 17395 bound_to 11000

$$$$
