AV-unprocessed.smi:750|AV-procd|sdf|3593|dock3
  -GOLD-   22720 0583D 1   1.00000     0.00000
 Structure written by MMmdl.
 22 23  0  0  0  0  0  0  0  0  2 V2000
  150.3144  141.0257  155.7036 C   0  0  0  0  0  0  0  0  0  0  0  0
  151.2135  140.4539  156.8213 C   0  0  2  0  0  0  0  0  0  0  0  0
  151.6403  141.5444  157.8229 C   0  0  0  0  0  0  0  0  0  0  0  0
  152.4914  141.2786  158.9244 C   0  0  0  0  0  0  0  0  0  0  0  0
  152.8370  142.3258  159.8000 C   0  0  0  0  0  0  0  0  0  0  0  0
  152.3214  143.6101  159.5462 C   0  0  0  0  0  0  0  0  0  0  0  0
  151.5104  143.8879  158.5055 N   0  0  0  0  0  0  0  0  0  0  0  0
  151.1837  142.8768  157.6722 C   0  0  0  0  0  0  0  0  0  0  0  0
  152.3273  139.7412  156.2057 N   0  5  0  0  0  0  0  0  0  0  0  0
  152.2796  138.4404  156.5773 C   0  0  0  0  0  0  0  0  0  0  0  0
  153.0578  137.5404  156.2696 O   0  0  0  0  0  0  0  0  0  0  0  0
  151.2253  138.2156  157.3658 N   0  0  0  0  0  0  0  0  0  0  0  0
  150.5120  139.3200  157.5614 C   0  0  0  0  0  0  0  0  0  0  0  0
  149.4720  139.4235  158.2116 O   0  0  0  0  0  0  0  0  0  0  0  0
  149.3969  141.4638  156.0964 H   0  0  0  0  0  0  0  0  0  0  0  0
  150.0179  140.2541  154.9912 H   0  0  0  0  0  0  0  0  0  0  0  0
  150.8346  141.8032  155.1432 H   0  0  0  0  0  0  0  0  0  0  0  0
  152.8842  140.2912  159.1148 H   0  0  0  0  0  0  0  0  0  0  0  0
  153.4826  142.1465  160.6467 H   0  0  0  0  0  0  0  0  0  0  0  0
  152.5664  144.4361  160.1975 H   0  0  0  0  0  0  0  0  0  0  0  0
  150.5272  143.1466  156.8586 H   0  0  0  0  0  0  0  0  0  0  0  0
  150.9898  137.3132  157.7508 H   0  0  0  0  0  0  0  0  0  0  0  0
  1  2  1  0  0  0  0
  1 15  1  0  0  0  0
  1 16  1  0  0  0  0
  1 17  1  0  0  0  0
  2 13  1  0  0  0  0
  2  3  1  0  0  0  0
  2  9  1  0  0  0  0
  3  8  1  0  0  0  0
  3  4  2  0  0  0  0
  4  5  1  0  0  0  0
  4 18  1  0  0  0  0
  5  6  2  0  0  0  0
  5 19  1  0  0  0  0
  6  7  1  0  0  0  0
  6 20  1  0  0  0  0
  7  8  2  0  0  0  0
  8 21  1  0  0  0  0
  9 10  1  0  0  0  0
 10 11  2  0  0  0  0
 10 12  1  0  0  0  0
 12 13  1  0  0  0  0
 12 22  1  0  0  0  0
 13 14  2  0  0  0  0
M  CHG  1   9  -1
M  END
> <s_m_source_file>
AV-unprocessed.smi

> <i_m_source_file_index>
750

> <i_lp_mmshare_version>
43012

> <i_f3d_flags>
0

> <s_epik_input>
Tz1DMVtOSF1DKD1PKVtOSF1bQ0BAXTEoW0NIM10pYzJbY0hdW2NIXVtjSF1uW2NIXTI=

> <s_epik_cmdline>
J2VwaWtfcHl0aG9uJywgJy1waCcsICc3LjAnLCAnLXRuJywgJzgnLCAnLW1hJywgJzIwMCcsICctbWV0YWxfYmluZGluZycsICctaW1hZScsICc8aW5maWxlLm1hZT4nLCAnLW9tYWUnLCAnPG91dGZpbGUubWFlPic=

> <r_lp_tautomer_probability>
1

> <r_epik_Ionization_Penalty>
4.84674

> <r_epik_Ionization_Penalty_Charging>
4.8337

> <r_epik_Ionization_Penalty_Neutral>
0.0130349

> <r_epik_State_Penalty>
4.85653

> <r_epik_Charging_Adjusted_Penalty>
9.69023

> <i_epik_Tot_Q>
-1

> <i_epik_Tot_abs_Q>
1

> <r_epik_Metal_State_Penalty>
1.3191

> <b_epik_Metal_Only>
1

> <s_lp_Force_Field>
OPLS_2005

> <r_lp_Energy>
14.3278

> <b_lp_Chiralities_Consistent>
1

> <s_lp_Variant>
AV-unprocessed.smi:750-6

> <Gold.Version>
5.8.1

> <Gold.Id.Protein>
6NUR|6NUR_protein|mol2

> <Gold.PLP.Fitness>
33.2996

> <Gold.PLP.PLP>
-24.0127

> <Gold.PLP.part.hbond>
-1.9050

> <Gold.PLP.part.metal>
0.0000

> <Gold.PLP.part.buried>
-3.6327

> <Gold.PLP.part.nonpolar>
-19.0658

> <Gold.PLP.part.repulsive>
0.1036

> <Gold.PLP.ligand.clash>
0.0000

> <Gold.PLP.ligand.torsion>
0.0335

> <Gold.PLP.Chemscore.Hbond>
2.1030

> <Gold.PLP.Chemscore.CHOScore>
0.9968

> <Gold.PLP.Chemscore.Metal>
0.0000

> <Gold.Chemscore.Hbonds>
donor molecule, donor type, donor heavy atom, donor atom, acceptor molecule, acceptor atom, score
      P1  H  7997  8008       L1     9  1.89
      P1  H 10752 10765       L1    11  0.08
      L1  C     8    21       P1  8028  0.92

> <Gold.PLP.Chemscore.Internal.Correction>
0.0547

> <Gold.Rescore>
     Score         DG    S(hbond)    S(metal)    S(lipo)     H(rot)  DE(clash)    DE(int)     intcor
     15.13     -15.29       1.59        0.00      60.42       1.00       0.11       0.05       ----

> <Gold.Chemscore.Fitness>
15.1268

> <Gold.Chemscore.DG>
-15.2886

> <Gold.Chemscore.ZeroCoef>
-5.4800

> <Gold.Chemscore.Hbond>
1.5866

> <Gold.Chemscore.Metal>
0.0000

> <Gold.Chemscore.Lipo>
60.4211

> <Gold.Chemscore.Internal_Hbond>
0.0000

> <Gold.Chemscore.DEClash>
0.1124

> <Gold.Chemscore.DEInternal>
0.0493

> <Gold.Chemscore.Rot>
1.0000

> <Gold.Chemscore.Internal.Correction>
   9.000000E+99

> <Gold.Chemscore.Hbonds>
donor molecule, donor type, donor heavy atom, donor atom, acceptor molecule, acceptor atom, score
      P1  H  7997  8008       L1     9  0.36
      P1  H 10752 10765       L1    11  0.10

> <Gold.Chemscore.Hbond.Weighted>
-5.2993

> <Gold.Chemscore.Metal.Weighted>
-0.0000

> <Gold.Chemscore.Lipo.Weighted>
-7.0693

> <Gold.Chemscore.Internal_Hbond.Weighted>
0.0000

> <Gold.Chemscore.DEClash.Weighted>
0.1124

> <Gold.Chemscore.DEInternal.Weighted>
0.0493

> <Gold.Chemscore.Rot.Weighted>
2.5600

> <Gold.Chemscore.Internal.Correction.Weighted>
   9.000000E+99

> <Gold.Protein.RotatedTorsions>
[ 6907 6896 6895 6894 ] final  151.11 input  -60.11 | X-H torsion
[ 7974 7965 7964 7962 ] final    2.85 input  175.53 | X-H torsion
[ 8008 7997 7996 7995 ] final  -35.59 input   59.86 | X-H torsion
[ 10167 10162 10161 10158 ] final  -60.07 input  -65.29 | X-H torsion
[ 10718 10713 10712 10709 ] final -165.14 input   66.30 | X-H torsion
[ 10763 10752 10751 10750 ] final -149.79 input  -60.55 | X-H torsion
[ 11005 11000 10999 10996 ] final  152.88 input  -57.11 | X-H torsion

> <Gold.Protein.ActiveResidues>
 VAL166  LYS551  ARG553  GLY616  TRP617  ASP618  TYR619  PRO620  LYS621  CYS622 
 ASP623  PHE694  ASN695  SER759  ASP760  ASP761  ALA762  ILE779  LEU786  VAL792 
 PHE793  MET794  SER795  GLU796  ALA797  LYS798  CYS799  TRP800  GLU811  SER814 

> <Gold.Protein.RotatedAtoms>
  152.1051  133.4270  159.4604 H   0  0  0  0  0  0  0  0  0  0  0  0  # atno 6907 bound_to 6896
  150.6865  134.2714  159.4599 H   0  0  0  0  0  0  0  0  0  0  0  0  # atno 6908 bound_to 6896
  152.0578  134.9613  160.0625 H   0  0  0  0  0  0  0  0  0  0  0  0  # atno 6909 bound_to 6896
  146.2444  140.0773  142.8359 H   0  0  0  0  0  0  0  0  0  0  0  0  # atno 7974 bound_to 7965
  154.4092  140.1653  156.2237 H   0  0  0  0  0  0  0  0  0  0  0  0  # atno 8008 bound_to 7997
  155.9342  140.3412  155.6251 H   0  0  0  0  0  0  0  0  0  0  0  0  # atno 8009 bound_to 7997
  155.7069  140.0752  157.2378 H   0  0  0  0  0  0  0  0  0  0  0  0  # atno 8010 bound_to 7997
  140.6095  143.2383  151.5743 H   0  0  0  0  0  0  0  0  0  0  0  0  # atno 10167 bound_to 10162
  156.6491  130.9000  151.3010 H   0  0  0  0  0  0  0  0  0  0  0  0  # atno 10718 bound_to 10713
  154.8157  135.3300  154.7184 H   0  0  0  0  0  0  0  0  0  0  0  0  # atno 10763 bound_to 10752
  153.7825  135.6917  153.4890 H   0  0  0  0  0  0  0  0  0  0  0  0  # atno 10764 bound_to 10752
  153.1971  135.4530  155.0168 H   0  0  0  0  0  0  0  0  0  0  0  0  # atno 10765 bound_to 10752
  140.1347  134.8778  157.2251 H   0  0  0  0  0  0  0  0  0  0  0  0  # atno 11005 bound_to 11000
  145.0763  140.9190  143.4852 LP  0  0  0  0  0  0  0  0  0  0  0  0  # atno 17320 bound_to 7965
  145.0917  139.2885  143.5731 LP  0  0  0  0  0  0  0  0  0  0  0  0  # atno 17321 bound_to 7965
  139.5350  144.2807  152.1231 LP  0  0  0  0  0  0  0  0  0  0  0  0  # atno 17342 bound_to 10162
  140.2003  144.4664  150.6435 LP  0  0  0  0  0  0  0  0  0  0  0  0  # atno 17343 bound_to 10162
  157.7146  130.9482  150.1211 LP  0  0  0  0  0  0  0  0  0  0  0  0  # atno 17370 bound_to 10713
  156.2098  130.3666  149.8684 LP  0  0  0  0  0  0  0  0  0  0  0  0  # atno 17371 bound_to 10713
  140.2797  134.3364  155.7347 LP  0  0  0  0  0  0  0  0  0  0  0  0  # atno 17394 bound_to 11000
  141.2176  133.7471  156.9346 LP  0  0  0  0  0  0  0  0  0  0  0  0  # atno 17395 bound_to 11000

$$$$
