AV-unprocessed.smi:1758|AV-procd|sdf|7082|dock8
  -GOLD-   22720 8303D 1   1.00000     0.00000
 Structure written by MMmdl.
 44 46  0  0  0  0  0  0  0  0  2 V2000
  151.1457  144.2542  160.0391 C   0  0  0  0  0  0  0  0  0  0  0  0
  151.8870  143.9040  158.7430 C   0  0  0  0  0  0  0  0  0  0  0  0
  151.4317  142.6451  158.1867 N   0  0  0  0  0  0  0  0  0  0  0  0
  150.7173  142.4338  157.0240 C   0  0  0  0  0  0  0  0  0  0  0  0
  150.5432  141.0812  156.9389 C   0  0  0  0  0  0  0  0  0  0  0  0
  149.8898  140.3192  155.9382 N   0  0  0  0  0  0  0  0  0  0  0  0
  148.6965  140.5674  155.3747 C   0  0  0  0  0  0  0  0  0  0  0  0
  147.9552  141.5051  155.6681 O   0  0  0  0  0  0  0  0  0  0  0  0
  148.3943  139.6456  154.4491 N   0  0  0  0  0  0  0  0  0  0  0  0
  147.1667  139.6167  153.6555 C   0  0  1  0  0  0  0  0  0  0  0  0
  147.4063  139.9331  152.1667 C   0  0  0  0  0  0  0  0  0  0  0  0
  146.5000  138.9545  151.4126 C   0  0  0  0  0  0  0  0  0  0  0  0
  146.5124  137.7678  152.2753 N   0  3  2  0  0  0  0  0  0  0  0  0
  145.5527  136.6802  151.9973 C   0  0  0  0  0  0  0  0  0  0  0  0
  145.8946  135.4847  152.9123 C   0  0  0  0  0  0  0  0  0  0  0  0
  145.9827  135.8926  154.4007 C   0  0  0  0  0  0  0  0  0  0  0  0
  146.8993  137.1181  154.6069 C   0  0  0  0  0  0  0  0  0  0  0  0
  146.4441  138.2483  153.6663 C   0  0  1  0  0  0  0  0  0  0  0  0
  151.1789  140.5357  158.0844 C   0  0  0  0  0  0  0  0  0  0  0  0
  151.7104  141.4875  158.8358 N   0  0  0  0  0  0  0  0  0  0  0  0
  151.5085  145.1965  160.4501 H   0  0  0  0  0  0  0  0  0  0  0  0
  151.2913  143.4829  160.7959 H   0  0  0  0  0  0  0  0  0  0  0  0
  150.0739  144.3571  159.8671 H   0  0  0  0  0  0  0  0  0  0  0  0
  151.7443  144.6887  157.9989 H   0  0  0  0  0  0  0  0  0  0  0  0
  152.9591  143.8355  158.9307 H   0  0  0  0  0  0  0  0  0  0  0  0
  150.4140  143.2468  156.3810 H   0  0  0  0  0  0  0  0  0  0  0  0
  150.3830  139.4974  155.6217 H   0  0  0  0  0  0  0  0  0  0  0  0
  149.0656  138.9115  154.2773 H   0  0  0  0  0  0  0  0  0  0  0  0
  146.4770  140.3682  154.0456 H   0  0  0  0  0  0  0  0  0  0  0  0
  147.1945  140.9736  151.9185 H   0  0  0  0  0  0  0  0  0  0  0  0
  148.4461  139.7371  151.8999 H   0  0  0  0  0  0  0  0  0  0  0  0
  145.4848  139.3483  151.3399 H   0  0  0  0  0  0  0  0  0  0  0  0
  146.8604  138.7339  150.4075 H   0  0  0  0  0  0  0  0  0  0  0  0
  144.5320  137.0248  152.1698 H   0  0  0  0  0  0  0  0  0  0  0  0
  145.6232  136.3848  150.9500 H   0  0  0  0  0  0  0  0  0  0  0  0
  145.1564  134.6925  152.7845 H   0  0  0  0  0  0  0  0  0  0  0  0
  146.8518  135.0620  152.6037 H   0  0  0  0  0  0  0  0  0  0  0  0
  144.9824  136.1266  154.7672 H   0  0  0  0  0  0  0  0  0  0  0  0
  146.3390  135.0534  154.9991 H   0  0  0  0  0  0  0  0  0  0  0  0
  146.8512  137.4419  155.6469 H   0  0  0  0  0  0  0  0  0  0  0  0
  147.9363  136.8478  154.4033 H   0  0  0  0  0  0  0  0  0  0  0  0
  145.3955  138.4607  153.8866 H   0  0  0  0  0  0  0  0  0  0  0  0
  151.2705  139.5039  158.3900 H   0  0  0  0  0  0  0  0  0  0  0  0
  147.4335  137.3685  152.1654 H   0  0  0  0  0  0  0  0  0  0  0  0
  1  2  1  0  0  0  0
  1 21  1  0  0  0  0
  1 22  1  0  0  0  0
  1 23  1  0  0  0  0
  2  3  1  0  0  0  0
  2 24  1  0  0  0  0
  2 25  1  0  0  0  0
  3 20  1  0  0  0  0
  3  4  1  0  0  0  0
  4  5  2  0  0  0  0
  4 26  1  0  0  0  0
  5  6  1  0  0  0  0
  5 19  1  0  0  0  0
  6  7  1  0  0  0  0
  6 27  1  0  0  0  0
  7  8  2  0  0  0  0
  7  9  1  0  0  0  0
  9 10  1  0  0  0  0
  9 28  1  0  0  0  0
 10 18  1  0  0  0  0
 10 11  1  0  0  0  0
 10 29  1  0  0  0  0
 11 12  1  0  0  0  0
 11 30  1  0  0  0  0
 11 31  1  0  0  0  0
 12 13  1  0  0  0  0
 12 32  1  0  0  0  0
 12 33  1  0  0  0  0
 13 18  1  0  0  0  0
 13 14  1  0  0  0  0
 13 44  1  0  0  0  0
 14 15  1  0  0  0  0
 14 34  1  0  0  0  0
 14 35  1  0  0  0  0
 15 16  1  0  0  0  0
 15 36  1  0  0  0  0
 15 37  1  0  0  0  0
 16 17  1  0  0  0  0
 16 38  1  0  0  0  0
 16 39  1  0  0  0  0
 17 18  1  0  0  0  0
 17 40  1  0  0  0  0
 17 41  1  0  0  0  0
 18 42  1  0  0  0  0
 19 20  2  0  0  0  0
 19 43  1  0  0  0  0
M  CHG  1  13   1
M  END
> <s_m_source_file>
AV-unprocessed.smi

> <i_m_source_file_index>
1758

> <i_lp_mmshare_version>
43012

> <i_f3d_flags>
0

> <s_epik_input>
W0NIM11bQ0gyXW4xW2NIXWMoW2NIXW4xKVtOSF1DKD1PKVtOSF1bQ0BIXShbQ0gyXVtDSDJdMilbQ0BASF0oTjIzKVtDSDJdW0NIMl1bQ0gyXVtDSDJdMw==

> <s_epik_cmdline>
J2VwaWtfcHl0aG9uJywgJy1waCcsICc3LjAnLCAnLXRuJywgJzgnLCAnLW1hJywgJzIwMCcsICctbWV0YWxfYmluZGluZycsICctaW1hZScsICc8aW5maWxlLm1hZT4nLCAnLW9tYWUnLCAnPG91dGZpbGUubWFlPic=

> <r_lp_tautomer_probability>
1

> <r_epik_Ionization_Penalty>
0.00111541

> <r_epik_Ionization_Penalty_Charging>
0.000974069

> <r_epik_Ionization_Penalty_Neutral>
0.000141346

> <r_epik_State_Penalty>
0.000633842

> <r_epik_Charging_Adjusted_Penalty>
0.00160791

> <i_epik_Tot_Q>
1

> <i_epik_Tot_abs_Q>
1

> <r_epik_Metal_State_Penalty>
-0

> <b_epik_Metal_Only>
0

> <s_lp_Force_Field>
OPLS_2005

> <r_lp_Energy>
45.3498

> <b_lp_Chiralities_Consistent>
1

> <s_lp_Variant>
AV-unprocessed.smi:1758-4

> <Gold.Version>
5.8.1

> <Gold.Id.Protein>
6NUR|6NUR_protein|mol2

> <Gold.PLP.Fitness>
37.9808

> <Gold.PLP.PLP>
-30.0430

> <Gold.PLP.part.hbond>
-1.2082

> <Gold.PLP.part.metal>
0.0000

> <Gold.PLP.part.buried>
3.0604

> <Gold.PLP.part.nonpolar>
-32.2345

> <Gold.PLP.part.repulsive>
0.4668

> <Gold.PLP.ligand.clash>
0.0000

> <Gold.PLP.ligand.torsion>
0.5318

> <Gold.PLP.Chemscore.Hbond>
2.0000

> <Gold.PLP.Chemscore.CHOScore>
1.0000

> <Gold.PLP.Chemscore.Metal>
0.0000

> <Gold.Chemscore.Hbonds>
donor molecule, donor type, donor heavy atom, donor atom, acceptor molecule, acceptor atom, score
      L1  H    13    44       P1  7948  2.00
      L1  C     4    26       P1  8028  1.00

> <Gold.PLP.Chemscore.Internal.Correction>
0.0014

> <Gold.Rescore>
     Score         DG    S(hbond)    S(metal)    S(lipo)     H(rot)  DE(clash)    DE(int)     intcor
     13.66     -15.94       1.00        0.00      86.87       1.19       1.97       0.31       ----

> <Gold.Chemscore.Fitness>
13.6627

> <Gold.Chemscore.DG>
-15.9405

> <Gold.Chemscore.ZeroCoef>
-5.4800

> <Gold.Chemscore.Hbond>
0.9997

> <Gold.Chemscore.Metal>
0.0000

> <Gold.Chemscore.Lipo>
86.8692

> <Gold.Chemscore.Internal_Hbond>
0.0000

> <Gold.Chemscore.DEClash>
1.9682

> <Gold.Chemscore.DEInternal>
0.3096

> <Gold.Chemscore.Rot>
1.1884

> <Gold.Chemscore.Internal.Correction>
   9.000000E+99

> <Gold.Chemscore.Hbonds>
donor molecule, donor type, donor heavy atom, donor atom, acceptor molecule, acceptor atom, score
      L1  H    13    44       P1  7948  1.00

> <Gold.Chemscore.Hbond.Weighted>
-3.3391

> <Gold.Chemscore.Metal.Weighted>
-0.0000

> <Gold.Chemscore.Lipo.Weighted>
-10.1637

> <Gold.Chemscore.Internal_Hbond.Weighted>
0.0000

> <Gold.Chemscore.DEClash.Weighted>
1.9682

> <Gold.Chemscore.DEInternal.Weighted>
0.3096

> <Gold.Chemscore.Rot.Weighted>
3.0423

> <Gold.Chemscore.Internal.Correction.Weighted>
   9.000000E+99

> <Gold.Protein.RotatedTorsions>
[ 6907 6896 6895 6894 ] final  164.77 input  -60.11 | X-H torsion
[ 7974 7965 7964 7962 ] final  -51.55 input  175.53 | X-H torsion
[ 8008 7997 7996 7995 ] final -176.84 input   59.86 | X-H torsion
[ 10167 10162 10161 10158 ] final  -75.63 input  -65.29 | X-H torsion
[ 10718 10713 10712 10709 ] final   67.93 input   66.30 | X-H torsion
[ 10763 10752 10751 10750 ] final    7.65 input  -60.55 | X-H torsion
[ 11005 11000 10999 10996 ] final   27.49 input  -57.11 | X-H torsion

> <Gold.Protein.ActiveResidues>
 VAL166  LYS551  ARG553  GLY616  TRP617  ASP618  TYR619  PRO620  LYS621  CYS622 
 ASP623  PHE694  ASN695  SER759  ASP760  ASP761  ALA762  ILE779  LEU786  VAL792 
 PHE793  MET794  SER795  GLU796  ALA797  LYS798  CYS799  TRP800  GLU811  SER814 

> <Gold.Protein.RotatedAtoms>
  151.9047  133.3546  159.3842 H   0  0  0  0  0  0  0  0  0  0  0  0  # atno 6907 bound_to 6896
  150.7072  134.4793  159.5472 H   0  0  0  0  0  0  0  0  0  0  0  0  # atno 6908 bound_to 6896
  152.2388  134.8250  160.0514 H   0  0  0  0  0  0  0  0  0  0  0  0  # atno 6909 bound_to 6896
  145.9177  140.7861  142.9663 H   0  0  0  0  0  0  0  0  0  0  0  0  # atno 7974 bound_to 7965
  155.9997  140.1218  157.0559 H   0  0  0  0  0  0  0  0  0  0  0  0  # atno 8008 bound_to 7997
  154.4238  140.1109  156.5749 H   0  0  0  0  0  0  0  0  0  0  0  0  # atno 8009 bound_to 7997
  155.6229  140.3472  155.4660 H   0  0  0  0  0  0  0  0  0  0  0  0  # atno 8010 bound_to 7997
  140.4926  143.2377  151.7882 H   0  0  0  0  0  0  0  0  0  0  0  0  # atno 10167 bound_to 10162
  157.6260  130.9347  150.0309 H   0  0  0  0  0  0  0  0  0  0  0  0  # atno 10718 bound_to 10713
  153.2339  135.6896  153.7859 H   0  0  0  0  0  0  0  0  0  0  0  0  # atno 10763 bound_to 10752
  153.7013  135.3297  155.3226 H   0  0  0  0  0  0  0  0  0  0  0  0  # atno 10764 bound_to 10752
  154.8326  135.4568  154.1235 H   0  0  0  0  0  0  0  0  0  0  0  0  # atno 10765 bound_to 10752
  140.3257  134.2494  155.7710 H   0  0  0  0  0  0  0  0  0  0  0  0  # atno 11005 bound_to 11000
  144.6749  140.1926  143.7395 LP  0  0  0  0  0  0  0  0  0  0  0  0  # atno 17320 bound_to 7965
  145.8590  139.2213  143.1728 LP  0  0  0  0  0  0  0  0  0  0  0  0  # atno 17321 bound_to 7965
  139.4854  144.4629  151.9520 LP  0  0  0  0  0  0  0  0  0  0  0  0  # atno 17342 bound_to 10162
  140.3716  144.2849  150.5919 LP  0  0  0  0  0  0  0  0  0  0  0  0  # atno 17343 bound_to 10162
  156.1432  130.3642  149.9550 LP  0  0  0  0  0  0  0  0  0  0  0  0  # atno 17370 bound_to 10713
  156.7587  130.9142  151.3640 LP  0  0  0  0  0  0  0  0  0  0  0  0  # atno 17371 bound_to 10713
  141.2076  133.7802  157.0110 LP  0  0  0  0  0  0  0  0  0  0  0  0  # atno 17394 bound_to 11000
  140.0904  134.9596  157.1766 LP  0  0  0  0  0  0  0  0  0  0  0  0  # atno 17395 bound_to 11000

$$$$
