AV-unprocessed.smi:3314|AV-procd|sdf|12740|dock1
  -GOLD-   2272019 83D 1   1.00000     0.00000
 Structure written by MMmdl.
 38 39  0  0  0  0  0  0  0  0  2 V2000
  151.8654  145.5537  160.0900 C   0  0  0  0  0  0  0  0  0  0  0  0
  152.1144  144.1204  159.6669 C   0  0  0  0  0  0  0  0  0  0  0  0
  152.9054  143.2338  160.5033 C   0  0  0  0  0  0  0  0  0  0  0  0
  153.1140  141.9657  160.1104 C   0  0  0  0  0  0  0  0  0  0  0  0
  153.9221  140.9610  160.9045 C   0  0  0  0  0  0  0  0  0  0  0  0
  152.5830  141.4922  158.9173 N   0  0  0  0  0  0  0  0  0  0  0  0
  151.8088  142.2863  158.0529 C   0  0  0  0  0  0  0  0  0  0  0  0
  151.2905  141.8923  156.9260 N   0  0  0  0  0  0  0  0  0  0  0  0
  151.4432  140.5961  156.4410 C   0  0  0  0  0  0  0  0  0  0  0  0
  152.4611  139.9012  156.3710 O   0  0  0  0  0  0  0  0  0  0  0  0
  150.1180  140.0161  155.9323 C   0  0  1  0  0  0  0  0  0  0  0  0
  149.4161  140.9987  154.9706 C   0  0  0  0  0  0  0  0  0  0  0  0
  148.1890  140.3873  154.4104 N   0  3  1  0  0  0  0  0  0  0  0  0
  147.4548  141.3028  153.5112 C   0  0  0  0  0  0  0  0  0  0  0  0
  148.4892  139.0828  153.7781 C   0  0  0  0  0  0  0  0  0  0  0  0
  149.2097  138.1616  154.7755 C   0  0  0  0  0  0  0  0  0  0  0  0
  150.3921  138.7994  155.2418 O   0  0  0  0  0  0  0  0  0  0  0  0
  151.6010  143.6540  158.5041 C   0  0  0  0  0  0  0  0  0  0  0  0
  152.3466  145.7733  161.0436 H   0  0  0  0  0  0  0  0  0  0  0  0
  150.7960  145.7367  160.1985 H   0  0  0  0  0  0  0  0  0  0  0  0
  152.2596  146.2434  159.3433 H   0  0  0  0  0  0  0  0  0  0  0  0
  153.3224  143.5919  161.4333 H   0  0  0  0  0  0  0  0  0  0  0  0
  154.2939  141.3979  161.8319 H   0  0  0  0  0  0  0  0  0  0  0  0
  154.7783  140.6184  160.3228 H   0  0  0  0  0  0  0  0  0  0  0  0
  153.3094  140.0954  161.1580 H   0  0  0  0  0  0  0  0  0  0  0  0
  149.4684  139.7979  156.7831 H   0  0  0  0  0  0  0  0  0  0  0  0
  149.1528  141.9167  155.4988 H   0  0  0  0  0  0  0  0  0  0  0  0
  150.0856  141.2793  154.1549 H   0  0  0  0  0  0  0  0  0  0  0  0
  148.0555  141.5606  152.6380 H   0  0  0  0  0  0  0  0  0  0  0  0
  147.1943  142.2249  154.0319 H   0  0  0  0  0  0  0  0  0  0  0  0
  146.5286  140.8422  153.1657 H   0  0  0  0  0  0  0  0  0  0  0  0
  147.5639  138.6141  153.4408 H   0  0  0  0  0  0  0  0  0  0  0  0
  149.1123  139.2365  152.8955 H   0  0  0  0  0  0  0  0  0  0  0  0
  148.5607  137.9106  155.6160 H   0  0  0  0  0  0  0  0  0  0  0  0
  149.4816  137.2231  154.2919 H   0  0  0  0  0  0  0  0  0  0  0  0
  151.0182  144.3426  157.9088 H   0  0  0  0  0  0  0  0  0  0  0  0
  152.7840  140.5275  158.6954 H   0  0  0  0  0  0  0  0  0  0  0  0
  147.5780  140.1967  155.1918 H   0  0  0  0  0  0  0  0  0  0  0  0
  1  2  1  0  0  0  0
  1 19  1  0  0  0  0
  1 20  1  0  0  0  0
  1 21  1  0  0  0  0
  2 18  2  0  0  0  0
  2  3  1  0  0  0  0
  3  4  2  0  0  0  0
  3 22  1  0  0  0  0
  4  5  1  0  0  0  0
  4  6  1  0  0  0  0
  5 23  1  0  0  0  0
  5 24  1  0  0  0  0
  5 25  1  0  0  0  0
  6  7  1  0  0  0  0
  6 37  1  0  0  0  0
  7  8  2  0  0  0  0
  7 18  1  0  0  0  0
  8  9  1  0  0  0  0
  9 10  2  0  0  0  0
  9 11  1  0  0  0  0
 11 17  1  0  0  0  0
 11 12  1  0  0  0  0
 11 26  1  0  0  0  0
 12 13  1  0  0  0  0
 12 27  1  0  0  0  0
 12 28  1  0  0  0  0
 13 14  1  0  0  0  0
 13 15  1  0  0  0  0
 13 38  1  0  0  0  0
 14 29  1  0  0  0  0
 14 30  1  0  0  0  0
 14 31  1  0  0  0  0
 15 16  1  0  0  0  0
 15 32  1  0  0  0  0
 15 33  1  0  0  0  0
 16 17  1  0  0  0  0
 16 34  1  0  0  0  0
 16 35  1  0  0  0  0
 18 36  1  0  0  0  0
M  CHG  1  13   1
M  END
> <s_m_source_file>
AV-unprocessed.smi

> <i_m_source_file_index>
3314

> <i_lp_mmshare_version>
43012

> <i_f3d_flags>
0

> <s_epik_input>
W0NIM11jMVtjSF1jKFtDSDNdKW5jKFtjSF0xKVtOSF1DKD1PKVtDQEBIXTJbQ0gyXU4oW0NIM10pW0NIMl1bQ0gyXU8y

> <s_epik_cmdline>
J2VwaWtfcHl0aG9uJywgJy1waCcsICc3LjAnLCAnLXRuJywgJzgnLCAnLW1hJywgJzIwMCcsICctbWV0YWxfYmluZGluZycsICctaW1hZScsICc8aW5maWxlLm1hZT4nLCAnLW9tYWUnLCAnPG91dGZpbGUubWFlPic=

> <r_epik_Ionization_Penalty>
0.519783

> <r_epik_Ionization_Penalty_Charging>
0.519783

> <r_epik_Ionization_Penalty_Neutral>
1.74183e-13

> <r_epik_State_Penalty>
2.39351

> <r_epik_Charging_Adjusted_Penalty>
2.91329

> <i_epik_Tot_Q>
1

> <i_epik_Tot_abs_Q>
1

> <r_epik_Metal_State_Penalty>
2.41924

> <b_epik_Metal_Only>
0

> <s_lp_Force_Field>
OPLS_2005

> <r_lp_Energy>
34.3137

> <b_lp_Chiralities_Consistent>
1

> <s_lp_Variant>
AV-unprocessed.smi:3314-10

> <Gold.Version>
5.8.1

> <Gold.Id.Protein>
6NUR|6NUR_protein|mol2

> <Gold.PLP.Fitness>
39.7190

> <Gold.PLP.PLP>
-37.8777

> <Gold.PLP.part.hbond>
-1.0000

> <Gold.PLP.part.metal>
0.0000

> <Gold.PLP.part.buried>
-3.4397

> <Gold.PLP.part.nonpolar>
-32.9171

> <Gold.PLP.part.repulsive>
0.2922

> <Gold.PLP.ligand.clash>
0.0000

> <Gold.PLP.ligand.torsion>
0.5798

> <Gold.PLP.Chemscore.Hbond>
1.0000

> <Gold.PLP.Chemscore.CHOScore>
0.0000

> <Gold.PLP.Chemscore.Metal>
0.0000

> <Gold.Chemscore.Hbonds>
donor molecule, donor type, donor heavy atom, donor atom, acceptor molecule, acceptor atom, score
      P1  H  7997  8010       L1    10  1.00

> <Gold.PLP.Chemscore.Internal.Correction>
0.0010

> <Gold.Rescore>
     Score         DG    S(hbond)    S(metal)    S(lipo)     H(rot)  DE(clash)    DE(int)     intcor
     16.30     -17.81       1.00        0.00      98.72       1.00       0.04       1.47       ----

> <Gold.Chemscore.Fitness>
16.2966

> <Gold.Chemscore.DG>
-17.8068

> <Gold.Chemscore.ZeroCoef>
-5.4800

> <Gold.Chemscore.Hbond>
0.9990

> <Gold.Chemscore.Metal>
0.0000

> <Gold.Chemscore.Lipo>
98.7182

> <Gold.Chemscore.Internal_Hbond>
0.0000

> <Gold.Chemscore.DEClash>
0.0379

> <Gold.Chemscore.DEInternal>
1.4722

> <Gold.Chemscore.Rot>
1.0000

> <Gold.Chemscore.Internal.Correction>
   9.000000E+99

> <Gold.Chemscore.Hbonds>
donor molecule, donor type, donor heavy atom, donor atom, acceptor molecule, acceptor atom, score
      P1  H  7997  8010       L1    10  1.00

> <Gold.Chemscore.Hbond.Weighted>
-3.3367

> <Gold.Chemscore.Metal.Weighted>
-0.0000

> <Gold.Chemscore.Lipo.Weighted>
-11.5500

> <Gold.Chemscore.Internal_Hbond.Weighted>
0.0000

> <Gold.Chemscore.DEClash.Weighted>
0.0379

> <Gold.Chemscore.DEInternal.Weighted>
1.4722

> <Gold.Chemscore.Rot.Weighted>
2.5600

> <Gold.Chemscore.Internal.Correction.Weighted>
   9.000000E+99

> <Gold.Protein.RotatedTorsions>
[ 6907 6896 6895 6894 ] final    7.73 input  -60.11 | X-H torsion
[ 7974 7965 7964 7962 ] final -113.86 input  175.53 | X-H torsion
[ 8008 7997 7996 7995 ] final   81.54 input   59.86 | X-H torsion
[ 10167 10162 10161 10158 ] final   52.61 input  -65.29 | X-H torsion
[ 10718 10713 10712 10709 ] final   36.41 input   66.30 | X-H torsion
[ 10763 10752 10751 10750 ] final   57.72 input  -60.55 | X-H torsion
[ 11005 11000 10999 10996 ] final  -73.70 input  -57.11 | X-H torsion

> <Gold.Protein.ActiveResidues>
 VAL166  LYS551  ARG553  GLY616  TRP617  ASP618  TYR619  PRO620  LYS621  CYS622 
 ASP623  PHE694  ASN695  SER759  ASP760  ASP761  ALA762  ILE779  LEU786  VAL792 
 PHE793  MET794  SER795  GLU796  ALA797  LYS798  CYS799  TRP800  GLU811  SER814 

> <Gold.Protein.RotatedAtoms>
  151.6946  135.0940  160.0239 H   0  0  0  0  0  0  0  0  0  0  0  0  # atno 6907 bound_to 6896
  152.3758  133.6475  159.6131 H   0  0  0  0  0  0  0  0  0  0  0  0  # atno 6908 bound_to 6896
  150.7708  133.9112  159.3411 H   0  0  0  0  0  0  0  0  0  0  0  0  # atno 6909 bound_to 6896
  145.1271  140.8703  143.3780 H   0  0  0  0  0  0  0  0  0  0  0  0  # atno 7974 bound_to 7965
  155.8985  140.3434  155.6009 H   0  0  0  0  0  0  0  0  0  0  0  0  # atno 8008 bound_to 7997
  155.7527  140.0822  157.2212 H   0  0  0  0  0  0  0  0  0  0  0  0  # atno 8009 bound_to 7997
  154.4041  140.1550  156.2730 H   0  0  0  0  0  0  0  0  0  0  0  0  # atno 8010 bound_to 7997
  140.2495  144.3495  150.6353 H   0  0  0  0  0  0  0  0  0  0  0  0  # atno 10167 bound_to 10162
  157.3346  130.7515  149.6870 H   0  0  0  0  0  0  0  0  0  0  0  0  # atno 10718 bound_to 10713
  152.9856  135.5632  154.5437 H   0  0  0  0  0  0  0  0  0  0  0  0  # atno 10763 bound_to 10752
  154.4886  135.2792  155.1516 H   0  0  0  0  0  0  0  0  0  0  0  0  # atno 10764 bound_to 10752
  154.2995  135.6310  153.5472 H   0  0  0  0  0  0  0  0  0  0  0  0  # atno 10765 bound_to 10752
  141.1626  133.6887  156.7252 H   0  0  0  0  0  0  0  0  0  0  0  0  # atno 11005 bound_to 11000
  145.0677  139.3056  143.5848 LP  0  0  0  0  0  0  0  0  0  0  0  0  # atno 17320 bound_to 7965
  146.3517  140.0140  142.8664 LP  0  0  0  0  0  0  0  0  0  0  0  0  # atno 17321 bound_to 7965
  140.6051  143.2167  151.6996 LP  0  0  0  0  0  0  0  0  0  0  0  0  # atno 17342 bound_to 10162
  139.5051  144.3731  152.0451 LP  0  0  0  0  0  0  0  0  0  0  0  0  # atno 17343 bound_to 10162
  155.9700  130.4185  150.4332 LP  0  0  0  0  0  0  0  0  0  0  0  0  # atno 17370 bound_to 10713
  157.2370  131.0517  151.2459 LP  0  0  0  0  0  0  0  0  0  0  0  0  # atno 17371 bound_to 10713
  140.2786  134.8335  157.3913 LP  0  0  0  0  0  0  0  0  0  0  0  0  # atno 17394 bound_to 11000
  140.1454  134.4918  155.8000 LP  0  0  0  0  0  0  0  0  0  0  0  0  # atno 17395 bound_to 11000

$$$$
