AV-unprocessed.smi:1703|AV-procd|sdf|6867|dock3
  -GOLD-   22720 8 63D 1   1.00000     0.00000
 Structure written by MMmdl.
 49 51  0  0  0  0  0  0  0  0  2 V2000
  147.5740  136.0423  156.8923 C   0  0  0  0  0  0  0  0  0  0  0  0
  148.8135  135.1708  157.1573 C   0  0  2  0  0  0  0  0  0  0  0  0
  150.1318  135.9702  157.1512 C   0  0  0  0  0  0  0  0  0  0  0  0
  150.5429  136.3693  155.8061 N   0  0  0  0  0  0  0  0  0  0  0  0
  151.8065  137.1076  155.7945 C   0  0  0  0  0  0  0  0  0  0  0  0
  151.6842  138.6375  155.6410 C   0  0  2  0  0  0  0  0  0  0  0  0
  152.9555  139.1659  155.3179 O   0  0  0  0  0  0  0  0  0  0  0  0
  151.1706  139.2929  156.9372 C   0  0  0  0  0  0  0  0  0  0  0  0
  150.9258  140.7370  156.7880 N   0  0  0  0  0  0  0  0  0  0  0  0
  150.1309  141.3996  155.8992 C   0  0  0  0  0  0  0  0  0  0  0  0
  149.2951  140.7827  154.8229 C   0  0  0  0  0  0  0  0  0  0  0  0
  149.7301  141.1105  153.5199 O   0  0  0  0  0  0  0  0  0  0  0  0
  150.2442  142.7307  156.1730 N   0  3  0  0  0  0  0  0  0  0  0  0
  151.1192  142.9222  157.2422 C   0  0  0  0  0  0  0  0  0  0  0  0
  151.5445  144.0876  157.8724 C   0  0  0  0  0  0  0  0  0  0  0  0
  152.4544  143.9342  158.9388 C   0  0  0  0  0  0  0  0  0  0  0  0
  152.9063  142.6604  159.3400 C   0  0  0  0  0  0  0  0  0  0  0  0
  152.4659  141.4860  158.6948 C   0  0  0  0  0  0  0  0  0  0  0  0
  151.5645  141.6453  157.6419 C   0  0  0  0  0  0  0  0  0  0  0  0
  150.6273  135.1799  154.9682 C   0  0  0  0  0  0  0  0  0  0  0  0
  149.2945  134.4112  154.9206 C   0  0  1  0  0  0  0  0  0  0  0  0
  149.4064  133.1145  154.1121 C   0  0  0  0  0  0  0  0  0  0  0  0
  148.8954  134.0728  156.2475 O   0  0  0  0  0  0  0  0  0  0  0  0
  147.4686  136.8092  157.6597 H   0  0  0  0  0  0  0  0  0  0  0  0
  146.6660  135.4393  156.9008 H   0  0  0  0  0  0  0  0  0  0  0  0
  147.6287  136.5517  155.9305 H   0  0  0  0  0  0  0  0  0  0  0  0
  148.6898  134.7368  158.1498 H   0  0  0  0  0  0  0  0  0  0  0  0
  150.0129  136.8406  157.7947 H   0  0  0  0  0  0  0  0  0  0  0  0
  150.9155  135.3592  157.6018 H   0  0  0  0  0  0  0  0  0  0  0  0
  152.3552  136.8828  156.7104 H   0  0  0  0  0  0  0  0  0  0  0  0
  152.4314  136.7379  154.9802 H   0  0  0  0  0  0  0  0  0  0  0  0
  150.9957  138.8920  154.8369 H   0  0  0  0  0  0  0  0  0  0  0  0
  152.9039  139.5733  154.4671 H   0  0  0  0  0  0  0  0  0  0  0  0
  150.2244  138.8371  157.2305 H   0  0  0  0  0  0  0  0  0  0  0  0
  151.8550  139.1221  157.7680 H   0  0  0  0  0  0  0  0  0  0  0  0
  149.3098  139.6986  154.9363 H   0  0  0  0  0  0  0  0  0  0  0  0
  148.2612  141.1079  154.9399 H   0  0  0  0  0  0  0  0  0  0  0  0
  149.5205  140.3913  152.9434 H   0  0  0  0  0  0  0  0  0  0  0  0
  151.2009  145.0644  157.5649 H   0  0  0  0  0  0  0  0  0  0  0  0
  152.8141  144.8109  159.4580 H   0  0  0  0  0  0  0  0  0  0  0  0
  153.6063  142.5819  160.1592 H   0  0  0  0  0  0  0  0  0  0  0  0
  152.8237  140.5175  159.0101 H   0  0  0  0  0  0  0  0  0  0  0  0
  150.9115  135.4635  153.9541 H   0  0  0  0  0  0  0  0  0  0  0  0
  151.4154  134.5226  155.3394 H   0  0  0  0  0  0  0  0  0  0  0  0
  148.5296  135.0370  154.4603 H   0  0  0  0  0  0  0  0  0  0  0  0
  149.7000  133.3185  153.0824 H   0  0  0  0  0  0  0  0  0  0  0  0
  148.4526  132.5871  154.0877 H   0  0  0  0  0  0  0  0  0  0  0  0
  150.1482  132.4425  154.5451 H   0  0  0  0  0  0  0  0  0  0  0  0
  149.7546  143.4517  155.6586 H   0  0  0  0  0  0  0  0  0  0  0  0
  1  2  1  0  0  0  0
  1 24  1  0  0  0  0
  1 25  1  0  0  0  0
  1 26  1  0  0  0  0
  2 23  1  0  0  0  0
  2  3  1  0  0  0  0
  2 27  1  0  0  0  0
  3  4  1  0  0  0  0
  3 28  1  0  0  0  0
  3 29  1  0  0  0  0
  4  5  1  0  0  0  0
  4 20  1  0  0  0  0
  5  6  1  0  0  0  0
  5 30  1  0  0  0  0
  5 31  1  0  0  0  0
  6  7  1  0  0  0  0
  6  8  1  0  0  0  0
  6 32  1  0  0  0  0
  7 33  1  0  0  0  0
  8  9  1  0  0  0  0
  8 34  1  0  0  0  0
  8 35  1  0  0  0  0
  9 19  1  0  0  0  0
  9 10  1  0  0  0  0
 10 11  1  0  0  0  0
 10 13  2  0  0  0  0
 11 12  1  0  0  0  0
 11 36  1  0  0  0  0
 11 37  1  0  0  0  0
 12 38  1  0  0  0  0
 13 14  1  0  0  0  0
 13 49  1  0  0  0  0
 14 19  2  0  0  0  0
 14 15  1  0  0  0  0
 15 16  2  0  0  0  0
 15 39  1  0  0  0  0
 16 17  1  0  0  0  0
 16 40  1  0  0  0  0
 17 18  2  0  0  0  0
 17 41  1  0  0  0  0
 18 19  1  0  0  0  0
 18 42  1  0  0  0  0
 20 21  1  0  0  0  0
 20 43  1  0  0  0  0
 20 44  1  0  0  0  0
 21 22  1  0  0  0  0
 21 23  1  0  0  0  0
 21 45  1  0  0  0  0
 22 46  1  0  0  0  0
 22 47  1  0  0  0  0
 22 48  1  0  0  0  0
M  CHG  1  13   1
M  END
> <s_m_source_file>
AV-unprocessed.smi

> <i_m_source_file_index>
1703

> <i_lp_mmshare_version>
43012

> <i_f3d_flags>
0

> <s_epik_input>
W0NIM11bQ0BASF0xW0NIMl1OKFtDSDJdW0NASF0oTzEpW0NIM10pW0NIMl1bQ0BIXShbT0hdKVtDSDJdbihjKG4yKVtDSDJdW09IXSljKGMyMylbY0hdW2NIXVtjSF1bY0hdMw==

> <s_epik_cmdline>
J2VwaWtfcHl0aG9uJywgJy1waCcsICc3LjAnLCAnLXRuJywgJzgnLCAnLW1hJywgJzIwMCcsICctbWV0YWxfYmluZGluZycsICctaW1hZScsICc8aW5maWxlLm1hZT4nLCAnLW9tYWUnLCAnPG91dGZpbGUubWFlPic=

> <r_epik_Ionization_Penalty>
1.7682

> <r_epik_Ionization_Penalty_Charging>
1.55298

> <r_epik_Ionization_Penalty_Neutral>
0.215215

> <r_epik_State_Penalty>
1.83821

> <r_epik_Charging_Adjusted_Penalty>
3.39119

> <i_epik_Tot_Q>
1

> <i_epik_Tot_abs_Q>
1

> <r_epik_Metal_State_Penalty>
5.89206

> <b_epik_Metal_Only>
0

> <s_lp_Force_Field>
OPLS_2005

> <r_lp_Energy>
34.6201

> <b_lp_Chiralities_Consistent>
1

> <s_lp_Variant>
AV-unprocessed.smi:1703-15

> <Gold.Version>
5.8.1

> <Gold.Id.Protein>
6NUR|6NUR_protein|mol2

> <Gold.PLP.Fitness>
55.3423

> <Gold.PLP.PLP>
-42.1071

> <Gold.PLP.part.hbond>
-4.7070

> <Gold.PLP.part.metal>
0.0000

> <Gold.PLP.part.buried>
-4.2428

> <Gold.PLP.part.nonpolar>
-34.1110

> <Gold.PLP.part.repulsive>
0.1846

> <Gold.PLP.ligand.clash>
0.0000

> <Gold.PLP.ligand.torsion>
0.7701

> <Gold.PLP.Chemscore.Hbond>
4.9040

> <Gold.PLP.Chemscore.CHOScore>
0.0000

> <Gold.PLP.Chemscore.Metal>
0.0000

> <Gold.Chemscore.Hbonds>
donor molecule, donor type, donor heavy atom, donor atom, acceptor molecule, acceptor atom, score
      L1  H    12    38       P1  7957  0.74
      L1  H    13    49       P1  8028  2.00
      P1  H  7989  7998       L1    12  0.19
      P1  H  7997  8009       L1     7  1.00
      P1  H  8011  8017       L1    12  0.94

> <Gold.PLP.Chemscore.Internal.Correction>
0.0634

> <Gold.Rescore>
     Score         DG    S(hbond)    S(metal)    S(lipo)     H(rot)  DE(clash)    DE(int)     intcor
     19.98     -20.91       2.97        0.00     111.62       2.96       0.21       0.72       ----

> <Gold.Chemscore.Fitness>
19.9756

> <Gold.Chemscore.DG>
-20.9092

> <Gold.Chemscore.ZeroCoef>
-5.4800

> <Gold.Chemscore.Hbond>
2.9747

> <Gold.Chemscore.Metal>
0.0000

> <Gold.Chemscore.Lipo>
111.6214

> <Gold.Chemscore.Internal_Hbond>
0.0000

> <Gold.Chemscore.DEClash>
0.2119

> <Gold.Chemscore.DEInternal>
0.7216

> <Gold.Chemscore.Rot>
2.9555

> <Gold.Chemscore.Internal.Correction>
   9.000000E+99

> <Gold.Chemscore.Hbonds>
donor molecule, donor type, donor heavy atom, donor atom, acceptor molecule, acceptor atom, score
      L1  H    12    38       P1  7957  0.74
      L1  H    13    49       P1  8028  0.88
      P1  H  7989  7998       L1    12  0.02
      P1  H  7997  8009       L1     7  0.26
      P1  H  8011  8017       L1    12  0.20

> <Gold.Chemscore.Hbond.Weighted>
-9.9355

> <Gold.Chemscore.Metal.Weighted>
-0.0000

> <Gold.Chemscore.Lipo.Weighted>
-13.0597

> <Gold.Chemscore.Internal_Hbond.Weighted>
0.0000

> <Gold.Chemscore.DEClash.Weighted>
0.2119

> <Gold.Chemscore.DEInternal.Weighted>
0.7216

> <Gold.Chemscore.Rot.Weighted>
7.5660

> <Gold.Chemscore.Internal.Correction.Weighted>
   9.000000E+99

> <Gold.Protein.RotatedTorsions>
[ 6907 6896 6895 6894 ] final -178.72 input  -60.11 | X-H torsion
[ 7974 7965 7964 7962 ] final    9.51 input  175.53 | X-H torsion
[ 8008 7997 7996 7995 ] final -147.45 input   59.86 | X-H torsion
[ 10167 10162 10161 10158 ] final   65.56 input  -65.29 | X-H torsion
[ 10718 10713 10712 10709 ] final  -47.49 input   66.30 | X-H torsion
[ 10763 10752 10751 10750 ] final -178.23 input  -60.55 | X-H torsion
[ 11005 11000 10999 10996 ] final  -51.23 input  -57.11 | X-H torsion

> <Gold.Protein.ActiveResidues>
 VAL166  LYS551  ARG553  GLY616  TRP617  ASP618  TYR619  PRO620  LYS621  CYS622 
 ASP623  PHE694  ASN695  SER759  ASP760  ASP761  ALA762  ILE779  LEU786  VAL792 
 PHE793  MET794  SER795  GLU796  ALA797  LYS798  CYS799  TRP800  GLU811  SER814 

> <Gold.Protein.RotatedAtoms>
  151.6419  133.3325  159.3131 H   0  0  0  0  0  0  0  0  0  0  0  0  # atno 6907 bound_to 6896
  150.8004  134.7097  159.6606 H   0  0  0  0  0  0  0  0  0  0  0  0  # atno 6908 bound_to 6896
  152.4095  134.6153  160.0088 H   0  0  0  0  0  0  0  0  0  0  0  0  # atno 6909 bound_to 6896
  146.2402  139.9773  142.8440 H   0  0  0  0  0  0  0  0  0  0  0  0  # atno 7974 bound_to 7965
  155.5757  140.0638  157.2795 H   0  0  0  0  0  0  0  0  0  0  0  0  # atno 8008 bound_to 7997
  154.4347  140.1861  156.0971 H   0  0  0  0  0  0  0  0  0  0  0  0  # atno 8009 bound_to 7997
  156.0343  140.3303  155.7177 H   0  0  0  0  0  0  0  0  0  0  0  0  # atno 8010 bound_to 7997
  140.1100  144.4827  150.6984 H   0  0  0  0  0  0  0  0  0  0  0  0  # atno 10167 bound_to 10162
  156.2079  130.4159  149.9153 H   0  0  0  0  0  0  0  0  0  0  0  0  # atno 10718 bound_to 10713
  154.5503  135.2812  155.1015 H   0  0  0  0  0  0  0  0  0  0  0  0  # atno 10763 bound_to 10752
  154.2463  135.6347  153.5228 H   0  0  0  0  0  0  0  0  0  0  0  0  # atno 10764 bound_to 10752
  153.0001  135.5572  154.6067 H   0  0  0  0  0  0  0  0  0  0  0  0  # atno 10765 bound_to 10752
  141.0860  133.6642  156.3848 H   0  0  0  0  0  0  0  0  0  0  0  0  # atno 11005 bound_to 11000
  145.1625  140.9680  143.4369 LP  0  0  0  0  0  0  0  0  0  0  0  0  # atno 17320 bound_to 7965
  145.0103  139.3516  143.6123 LP  0  0  0  0  0  0  0  0  0  0  0  0  # atno 17321 bound_to 7965
  140.6931  143.2387  151.5076 LP  0  0  0  0  0  0  0  0  0  0  0  0  # atno 17342 bound_to 10162
  139.5624  144.2123  152.1713 LP  0  0  0  0  0  0  0  0  0  0  0  0  # atno 17343 bound_to 10162
  156.6841  130.8870  151.3579 LP  0  0  0  0  0  0  0  0  0  0  0  0  # atno 17370 bound_to 10713
  157.7022  130.9346  150.0821 LP  0  0  0  0  0  0  0  0  0  0  0  0  # atno 17371 bound_to 10713
  140.5362  134.6165  157.5365 LP  0  0  0  0  0  0  0  0  0  0  0  0  # atno 17394 bound_to 11000
  139.9678  134.7343  156.0102 LP  0  0  0  0  0  0  0  0  0  0  0  0  # atno 17395 bound_to 11000

$$$$
