AV-unprocessed.smi:2881|AV-procd|sdf|11058|dock1
  -GOLD-   2272015523D 1   1.00000     0.00000
 Structure written by MMmdl.
 40 42  0  0  0  0  0  0  0  0  1 V2000
  147.1450  138.7223  153.7406 C   0  0  0  0  0  0  0  0  0  0  0  0
  148.4915  139.1382  154.2281 C   0  0  0  0  0  0  0  0  0  0  0  0
  149.1519  138.8642  155.3922 C   0  0  0  0  0  0  0  0  0  0  0  0
  150.4017  139.5391  155.2578 C   0  0  0  0  0  0  0  0  0  0  0  0
  151.5503  139.5635  156.2328 C   0  0  0  0  0  0  0  0  0  0  0  0
  151.1227  140.2508  157.5311 C   0  0  0  0  0  0  0  0  0  0  0  0
  150.1861  139.8000  158.1896 O   0  0  0  0  0  0  0  0  0  0  0  0
  151.8061  141.3548  157.8725 N   0  0  0  0  0  0  0  0  0  0  0  0
  151.4964  142.2395  158.9942 C   0  0  1  0  0  0  0  0  0  0  0  0
  152.6874  142.2860  159.9753 C   0  0  2  0  0  0  0  0  0  0  0  0
  152.2231  142.9114  161.3032 C   0  0  0  0  0  0  0  0  0  0  0  0
  152.0437  144.3951  160.9288 C   0  0  0  0  0  0  0  0  0  0  0  0
  152.4264  144.4214  159.4357 C   0  0  1  0  0  0  0  0  0  0  0  0
  153.5537  143.3976  159.3950 C   0  0  0  0  0  0  0  0  0  0  0  0
  151.3104  143.7391  158.6064 C   0  0  1  0  0  0  0  0  0  0  0  0
  151.3822  144.0687  157.0964 C   0  0  0  0  0  0  0  0  0  0  0  0
  150.6502  143.1219  156.3473 O   0  0  0  0  0  0  0  0  0  0  0  0
  150.5023  140.1877  154.1057 N   0  0  0  0  0  0  0  0  0  0  0  0
  149.3346  139.9340  153.4870 N   0  0  0  0  0  0  0  0  0  0  0  0
  149.1282  140.3074  152.5714 H   0  0  0  0  0  0  0  0  0  0  0  0
  147.0955  137.6394  153.6267 H   0  0  0  0  0  0  0  0  0  0  0  0
  146.9160  139.1734  152.7746 H   0  0  0  0  0  0  0  0  0  0  0  0
  146.3697  139.0237  154.4452 H   0  0  0  0  0  0  0  0  0  0  0  0
  148.7998  138.2614  156.2164 H   0  0  0  0  0  0  0  0  0  0  0  0
  151.8960  138.5516  156.4492 H   0  0  0  0  0  0  0  0  0  0  0  0
  152.4002  140.0998  155.8096 H   0  0  0  0  0  0  0  0  0  0  0  0
  152.5656  141.6401  157.2712 H   0  0  0  0  0  0  0  0  0  0  0  0
  150.6097  141.8651  159.5098 H   0  0  0  0  0  0  0  0  0  0  0  0
  153.1929  141.3283  160.1066 H   0  0  0  0  0  0  0  0  0  0  0  0
  151.3038  142.4606  161.6782 H   0  0  0  0  0  0  0  0  0  0  0  0
  152.9877  142.8006  162.0730 H   0  0  0  0  0  0  0  0  0  0  0  0
  151.0281  144.7506  161.1054 H   0  0  0  0  0  0  0  0  0  0  0  0
  152.7205  145.0200  161.5128 H   0  0  0  0  0  0  0  0  0  0  0  0
  152.7006  145.4163  159.0838 H   0  0  0  0  0  0  0  0  0  0  0  0
  154.4010  143.6614  160.0302 H   0  0  0  0  0  0  0  0  0  0  0  0
  153.9174  143.1864  158.3884 H   0  0  0  0  0  0  0  0  0  0  0  0
  150.3352  144.0747  158.9631 H   0  0  0  0  0  0  0  0  0  0  0  0
  150.9976  145.0661  156.8824 H   0  0  0  0  0  0  0  0  0  0  0  0
  152.4139  144.0364  156.7455 H   0  0  0  0  0  0  0  0  0  0  0  0
  149.9859  143.5787  155.8542 H   0  0  0  0  0  0  0  0  0  0  0  0
  1  2  1  0  0  0  0
  1 21  1  0  0  0  0
  1 22  1  0  0  0  0
  1 23  1  0  0  0  0
  2 19  1  0  0  0  0
  2  3  2  0  0  0  0
  3  4  1  0  0  0  0
  3 24  1  0  0  0  0
  4  5  1  0  0  0  0
  4 18  2  0  0  0  0
  5  6  1  0  0  0  0
  5 25  1  0  0  0  0
  5 26  1  0  0  0  0
  6  7  2  0  0  0  0
  6  8  1  0  0  0  0
  8  9  1  0  0  0  0
  8 27  1  0  0  0  0
  9 15  1  0  0  0  0
  9 10  1  0  0  0  0
  9 28  1  0  0  0  0
 10 14  1  0  0  0  0
 10 11  1  0  0  0  0
 10 29  1  0  0  0  0
 11 12  1  0  0  0  0
 11 30  1  0  0  0  0
 11 31  1  0  0  0  0
 12 13  1  0  0  0  0
 12 32  1  0  0  0  0
 12 33  1  0  0  0  0
 13 14  1  0  0  0  0
 13 15  1  0  0  0  0
 13 34  1  0  0  0  0
 14 35  1  0  0  0  0
 14 36  1  0  0  0  0
 15 16  1  0  0  0  0
 15 37  1  0  0  0  0
 16 17  1  0  0  0  0
 16 38  1  0  0  0  0
 16 39  1  0  0  0  0
 17 40  1  0  0  0  0
 18 19  1  0  0  0  0
 19 20  1  0  0  0  0
M  END
> <s_m_source_file>
AV-unprocessed.smi

> <i_m_source_file_index>
2881

> <i_lp_mmshare_version>
43012

> <i_f3d_flags>
0

> <s_epik_input>
W0NIM11jMVtjSF1jKG5bbkhdMSlbQ0gyXUMoPU8pW05IXVtDQEhdKFtDQEBIXTIzKVtDQEhdKFtDSDJdW09IXSlbQ0BASF0oW0NIMl0zKVtDSDJdW0NIMl0y

> <s_epik_cmdline>
J2VwaWtfcHl0aG9uJywgJy1waCcsICc3LjAnLCAnLXRuJywgJzgnLCAnLW1hJywgJzIwMCcsICctbWV0YWxfYmluZGluZycsICctaW1hZScsICc8aW5maWxlLm1hZT4nLCAnLW9tYWUnLCAnPG91dGZpbGUubWFlPic=

> <r_lp_tautomer_probability>
0.5

> <r_epik_Ionization_Penalty>
9.4349e-05

> <r_epik_Ionization_Penalty_Charging>
0

> <r_epik_Ionization_Penalty_Neutral>
9.4349e-05

> <r_epik_State_Penalty>
0.41068

> <r_epik_Charging_Adjusted_Penalty>
0.41068

> <i_epik_Tot_Q>
0

> <i_epik_Tot_abs_Q>
0

> <r_epik_Metal_State_Penalty>
0.4107

> <b_epik_Metal_Only>
0

> <s_lp_Force_Field>
OPLS_2005

> <r_lp_Energy>
47.5678

> <b_lp_Chiralities_Consistent>
1

> <s_lp_Variant>
AV-unprocessed.smi:2881-4

> <Gold.Version>
5.8.1

> <Gold.Id.Protein>
6NUR|6NUR_protein|mol2

> <Gold.PLP.Fitness>
44.6697

> <Gold.PLP.PLP>
-36.7753

> <Gold.PLP.part.hbond>
-2.2031

> <Gold.PLP.part.metal>
0.0000

> <Gold.PLP.part.buried>
-5.5251

> <Gold.PLP.part.nonpolar>
-30.0078

> <Gold.PLP.part.repulsive>
0.7449

> <Gold.PLP.ligand.clash>
0.0000

> <Gold.PLP.ligand.torsion>
0.1747

> <Gold.PLP.Chemscore.Hbond>
2.7360

> <Gold.PLP.Chemscore.CHOScore>
0.0000

> <Gold.PLP.Chemscore.Metal>
0.0000

> <Gold.Chemscore.Hbonds>
donor molecule, donor type, donor heavy atom, donor atom, acceptor molecule, acceptor atom, score
      L1  H    17    40       P1  8028  1.00
      L1  H    19    20       P1  7957  0.69
      P1  H  7989  7998       L1    18  0.80

> <Gold.PLP.Chemscore.Internal.Correction>
0.0357

> <Gold.Rescore>
     Score         DG    S(hbond)    S(metal)    S(lipo)     H(rot)  DE(clash)    DE(int)     intcor
     20.16     -22.21       2.69        0.00     116.09       2.28       0.37       1.67       ----

> <Gold.Chemscore.Fitness>
20.1628

> <Gold.Chemscore.DG>
-22.2077

> <Gold.Chemscore.ZeroCoef>
-5.4800

> <Gold.Chemscore.Hbond>
2.6857

> <Gold.Chemscore.Metal>
0.0000

> <Gold.Chemscore.Lipo>
116.0918

> <Gold.Chemscore.Internal_Hbond>
0.0000

> <Gold.Chemscore.DEClash>
0.3712

> <Gold.Chemscore.DEInternal>
1.6737

> <Gold.Chemscore.Rot>
2.2755

> <Gold.Chemscore.Internal.Correction>
   9.000000E+99

> <Gold.Chemscore.Hbonds>
donor molecule, donor type, donor heavy atom, donor atom, acceptor molecule, acceptor atom, score
      L1  H    17    40       P1  8028  0.95
      L1  H    19    20       P1  7957  0.66
      P1  H  7989  7998       L1    18  0.76

> <Gold.Chemscore.Hbond.Weighted>
-8.9702

> <Gold.Chemscore.Metal.Weighted>
-0.0000

> <Gold.Chemscore.Lipo.Weighted>
-13.5827

> <Gold.Chemscore.Internal_Hbond.Weighted>
0.0000

> <Gold.Chemscore.DEClash.Weighted>
0.3712

> <Gold.Chemscore.DEInternal.Weighted>
1.6737

> <Gold.Chemscore.Rot.Weighted>
5.8252

> <Gold.Chemscore.Internal.Correction.Weighted>
   9.000000E+99

> <Gold.Protein.RotatedTorsions>
[ 6907 6896 6895 6894 ] final  -99.53 input  -60.11 | X-H torsion
[ 7974 7965 7964 7962 ] final  168.96 input  175.53 | X-H torsion
[ 8008 7997 7996 7995 ] final -129.15 input   59.86 | X-H torsion
[ 10167 10162 10161 10158 ] final   38.29 input  -65.29 | X-H torsion
[ 10718 10713 10712 10709 ] final  127.91 input   66.30 | X-H torsion
[ 10763 10752 10751 10750 ] final  -53.81 input  -60.55 | X-H torsion
[ 11005 11000 10999 10996 ] final   50.48 input  -57.11 | X-H torsion

> <Gold.Protein.ActiveResidues>
 VAL166  LYS551  ARG553  GLY616  TRP617  ASP618  TYR619  PRO620  LYS621  CYS622 
 ASP623  PHE694  ASN695  SER759  ASP760  ASP761  ALA762  ILE779  LEU786  VAL792 
 PHE793  MET794  SER795  GLU796  ALA797  LYS798  CYS799  TRP800  GLU811  SER814 

> <Gold.Protein.RotatedAtoms>
  150.7083  134.1026  159.3970 H   0  0  0  0  0  0  0  0  0  0  0  0  # atno 6907 bound_to 6896
  151.9012  135.0375  160.0516 H   0  0  0  0  0  0  0  0  0  0  0  0  # atno 6908 bound_to 6896
  152.2413  133.5102  159.5308 H   0  0  0  0  0  0  0  0  0  0  0  0  # atno 6909 bound_to 6896
  144.7371  139.8983  143.6408 H   0  0  0  0  0  0  0  0  0  0  0  0  # atno 7974 bound_to 7965
  155.2745  140.0441  157.3010 H   0  0  0  0  0  0  0  0  0  0  0  0  # atno 8008 bound_to 7997
  154.5633  140.2352  155.8270 H   0  0  0  0  0  0  0  0  0  0  0  0  # atno 8009 bound_to 7997
  156.2065  140.3011  155.9646 H   0  0  0  0  0  0  0  0  0  0  0  0  # atno 8010 bound_to 7997
  140.3951  144.1800  150.6132 H   0  0  0  0  0  0  0  0  0  0  0  0  # atno 10167 bound_to 10162
  157.5291  131.1098  150.9037 H   0  0  0  0  0  0  0  0  0  0  0  0  # atno 10718 bound_to 10713
  154.1648  135.6469  153.4994 H   0  0  0  0  0  0  0  0  0  0  0  0  # atno 10763 bound_to 10752
  153.0100  135.5369  154.6674 H   0  0  0  0  0  0  0  0  0  0  0  0  # atno 10764 bound_to 10752
  154.5997  135.2942  155.0520 H   0  0  0  0  0  0  0  0  0  0  0  0  # atno 10765 bound_to 10752
  140.1014  134.5077  155.8759 H   0  0  0  0  0  0  0  0  0  0  0  0  # atno 11005 bound_to 11000
  146.1090  139.4093  143.0299 LP  0  0  0  0  0  0  0  0  0  0  0  0  # atno 17320 bound_to 7965
  145.7470  140.9987  143.1271 LP  0  0  0  0  0  0  0  0  0  0  0  0  # atno 17321 bound_to 7965
  140.4799  143.2383  151.8970 LP  0  0  0  0  0  0  0  0  0  0  0  0  # atno 17342 bound_to 10162
  139.4787  144.5280  151.8707 LP  0  0  0  0  0  0  0  0  0  0  0  0  # atno 17343 bound_to 10162
  156.9624  130.5460  149.5286 LP  0  0  0  0  0  0  0  0  0  0  0  0  # atno 17370 bound_to 10713
  156.0409  130.5491  150.8768 LP  0  0  0  0  0  0  0  0  0  0  0  0  # atno 17371 bound_to 10713
  141.2106  133.6697  156.6525 LP  0  0  0  0  0  0  0  0  0  0  0  0  # atno 17394 bound_to 11000
  140.3215  134.8004  157.4256 LP  0  0  0  0  0  0  0  0  0  0  0  0  # atno 17395 bound_to 11000

$$$$
