AV-unprocessed.smi:1537|AV-procd|sdf|6190|dock1
  -GOLD-   22720 6353D 1   1.00000     0.00000
 Structure written by MMmdl.
 43 43  0  0  0  0  0  0  0  0  1 V2000
  152.4867  142.9230  160.1004 C   0  0  0  0  0  0  0  0  0  0  0  0
  151.6085  143.1052  158.8578 C   0  0  0  0  0  0  0  0  0  0  0  0
  150.8634  141.8641  158.4969 C   0  0  0  0  0  0  0  0  0  0  0  0
  151.4557  140.6887  158.2700 N   0  0  0  0  0  0  0  0  0  0  0  0
  150.5479  139.6883  157.9054 C   0  0  0  0  0  0  0  0  0  0  0  0
  151.0351  138.2972  157.6047 C   0  0  0  0  0  0  0  0  0  0  0  0
  150.4607  137.2595  158.5784 C   0  0  0  0  0  0  0  0  0  0  0  0
  150.9632  137.1303  159.6947 O   0  0  0  0  0  0  0  0  0  0  0  0
  149.4014  136.5423  158.1657 N   0  0  0  0  0  0  0  0  0  0  0  0
  148.6989  135.5327  158.9541 C   0  0  2  0  0  0  0  0  0  0  0  0
  147.3898  135.1906  158.2234 C   0  0  0  0  0  0  0  0  0  0  0  0
  148.3342  136.0911  160.3388 C   0  0  0  0  0  0  0  0  0  0  0  0
  148.3594  137.3051  160.5472 O   0  0  0  0  0  0  0  0  0  0  0  0
  147.9795  135.1801  161.2626 N   0  0  0  0  0  0  0  0  0  0  0  0
  147.5713  135.4030  162.6547 C   0  0  0  0  0  0  0  0  0  0  0  0
  146.2467  136.1847  162.6137 C   0  0  0  0  0  0  0  0  0  0  0  0
  148.6255  136.2452  163.4039 C   0  0  0  0  0  0  0  0  0  0  0  0
  147.3373  134.0580  163.3747 C   0  0  0  0  0  0  0  0  0  0  0  0
  149.2481  140.1298  157.8607 C   0  0  0  0  0  0  0  0  0  0  0  0
  149.1208  141.8212  158.2566 S   0  0  0  0  0  0  0  0  0  0  0  0
  153.0205  143.8435  160.3375 H   0  0  0  0  0  0  0  0  0  0  0  0
  153.2275  142.1379  159.9469 H   0  0  0  0  0  0  0  0  0  0  0  0
  151.8863  142.6523  160.9696 H   0  0  0  0  0  0  0  0  0  0  0  0
  150.8923  143.9112  159.0221 H   0  0  0  0  0  0  0  0  0  0  0  0
  152.2236  143.4023  158.0081 H   0  0  0  0  0  0  0  0  0  0  0  0
  150.7680  138.0158  156.5852 H   0  0  0  0  0  0  0  0  0  0  0  0
  152.1231  138.2520  157.6599 H   0  0  0  0  0  0  0  0  0  0  0  0
  149.0472  136.7187  157.2367 H   0  0  0  0  0  0  0  0  0  0  0  0
  149.3115  134.6341  159.0534 H   0  0  0  0  0  0  0  0  0  0  0  0
  146.8168  134.4380  158.7665 H   0  0  0  0  0  0  0  0  0  0  0  0
  147.5936  134.7877  157.2307 H   0  0  0  0  0  0  0  0  0  0  0  0
  146.7529  136.0676  158.0972 H   0  0  0  0  0  0  0  0  0  0  0  0
  147.9990  134.2146  160.9677 H   0  0  0  0  0  0  0  0  0  0  0  0
  145.8741  136.3872  163.6186 H   0  0  0  0  0  0  0  0  0  0  0  0
  145.4719  135.6291  162.0836 H   0  0  0  0  0  0  0  0  0  0  0  0
  146.3662  137.1446  162.1099 H   0  0  0  0  0  0  0  0  0  0  0  0
  148.8268  137.1828  162.8844 H   0  0  0  0  0  0  0  0  0  0  0  0
  149.5732  135.7174  163.5109 H   0  0  0  0  0  0  0  0  0  0  0  0
  148.2853  136.4951  164.4094 H   0  0  0  0  0  0  0  0  0  0  0  0
  146.9456  134.2151  164.3801 H   0  0  0  0  0  0  0  0  0  0  0  0
  148.2566  133.4815  163.4778 H   0  0  0  0  0  0  0  0  0  0  0  0
  146.6186  133.4394  162.8359 H   0  0  0  0  0  0  0  0  0  0  0  0
  148.3618  139.5662  157.6095 H   0  0  0  0  0  0  0  0  0  0  0  0
  1  2  1  0  0  0  0
  1 21  1  0  0  0  0
  1 22  1  0  0  0  0
  1 23  1  0  0  0  0
  2  3  1  0  0  0  0
  2 24  1  0  0  0  0
  2 25  1  0  0  0  0
  3 20  1  0  0  0  0
  3  4  2  0  0  0  0
  4  5  1  0  0  0  0
  5  6  1  0  0  0  0
  5 19  2  0  0  0  0
  6  7  1  0  0  0  0
  6 26  1  0  0  0  0
  6 27  1  0  0  0  0
  7  8  2  0  0  0  0
  7  9  1  0  0  0  0
  9 10  1  0  0  0  0
  9 28  1  0  0  0  0
 10 11  1  0  0  0  0
 10 12  1  0  0  0  0
 10 29  1  0  0  0  0
 11 30  1  0  0  0  0
 11 31  1  0  0  0  0
 11 32  1  0  0  0  0
 12 13  2  0  0  0  0
 12 14  1  0  0  0  0
 14 15  1  0  0  0  0
 14 33  1  0  0  0  0
 15 16  1  0  0  0  0
 15 17  1  0  0  0  0
 15 18  1  0  0  0  0
 16 34  1  0  0  0  0
 16 35  1  0  0  0  0
 16 36  1  0  0  0  0
 17 37  1  0  0  0  0
 17 38  1  0  0  0  0
 17 39  1  0  0  0  0
 18 40  1  0  0  0  0
 18 41  1  0  0  0  0
 18 42  1  0  0  0  0
 19 20  1  0  0  0  0
 19 43  1  0  0  0  0
M  END
> <s_m_source_file>
AV-unprocessed.smi

> <i_m_source_file_index>
1537

> <i_lp_mmshare_version>
43012

> <i_f3d_flags>
0

> <s_epik_input>
W0NIM11bQ0gyXWMxbmMoW2NIXXMxKVtDSDJdQyg9TylbTkhdW0NASF0oW0NIM10pQyg9TylbTkhdQyhbQ0gzXSkoW0NIM10pW0NIM10=

> <s_epik_cmdline>
J2VwaWtfcHl0aG9uJywgJy1waCcsICc3LjAnLCAnLXRuJywgJzgnLCAnLW1hJywgJzIwMCcsICctbWV0YWxfYmluZGluZycsICctaW1hZScsICc8aW5maWxlLm1hZT4nLCAnLW9tYWUnLCAnPG91dGZpbGUubWFlPic=

> <r_lp_tautomer_probability>
1

> <r_epik_Ionization_Penalty>
4.05444e-05

> <r_epik_Ionization_Penalty_Charging>
0

> <r_epik_Ionization_Penalty_Neutral>
4.05444e-05

> <r_epik_State_Penalty>
-0

> <r_epik_Charging_Adjusted_Penalty>
0

> <i_epik_Tot_Q>
0

> <i_epik_Tot_abs_Q>
0

> <r_epik_Metal_State_Penalty>
-0

> <b_epik_Metal_Only>
0

> <s_lp_Force_Field>
OPLS_2005

> <r_lp_Energy>
-1.93446

> <b_lp_Chiralities_Consistent>
1

> <s_lp_Variant>
AV-unprocessed.smi:1537-1

> <Gold.Version>
5.8.1

> <Gold.Id.Protein>
6NUR|6NUR_protein|mol2

> <Gold.PLP.Fitness>
39.4202

> <Gold.PLP.PLP>
-35.0419

> <Gold.PLP.part.hbond>
-3.0554

> <Gold.PLP.part.metal>
0.0000

> <Gold.PLP.part.buried>
-5.0639

> <Gold.PLP.part.nonpolar>
-27.3075

> <Gold.PLP.part.repulsive>
0.1613

> <Gold.PLP.ligand.clash>
0.0000

> <Gold.PLP.ligand.torsion>
0.9295

> <Gold.PLP.Chemscore.Hbond>
1.9944

> <Gold.PLP.Chemscore.CHOScore>
0.0000

> <Gold.PLP.Chemscore.Metal>
0.0000

> <Gold.Chemscore.Hbonds>
donor molecule, donor type, donor heavy atom, donor atom, acceptor molecule, acceptor atom, score
      P1  H  6896  6907       L1     8  1.00
      P1  H  6931  6943       L1    13  0.70
      P1  H  6934  6947       L1    13  0.46

> <Gold.PLP.Chemscore.Internal.Correction>
0.2540

> <Gold.Rescore>
     Score         DG    S(hbond)    S(metal)    S(lipo)     H(rot)  DE(clash)    DE(int)     intcor
     15.92     -17.39       2.12        0.00      82.35       1.88       0.20       1.26       ----

> <Gold.Chemscore.Fitness>
15.9242

> <Gold.Chemscore.DG>
-17.3857

> <Gold.Chemscore.ZeroCoef>
-5.4800

> <Gold.Chemscore.Hbond>
2.1182

> <Gold.Chemscore.Metal>
0.0000

> <Gold.Chemscore.Lipo>
82.3515

> <Gold.Chemscore.Internal_Hbond>
0.0000

> <Gold.Chemscore.DEClash>
0.2015

> <Gold.Chemscore.DEInternal>
1.2600

> <Gold.Chemscore.Rot>
1.8766

> <Gold.Chemscore.Internal.Correction>
   9.000000E+99

> <Gold.Chemscore.Hbonds>
donor molecule, donor type, donor heavy atom, donor atom, acceptor molecule, acceptor atom, score
      P1  H  6896  6907       L1     8  0.52
      P1  H  6931  6943       L1    13  0.72
      P1  H  6934  6947       L1    13  0.45

> <Gold.Chemscore.Hbond.Weighted>
-7.0747

> <Gold.Chemscore.Metal.Weighted>
-0.0000

> <Gold.Chemscore.Lipo.Weighted>
-9.6351

> <Gold.Chemscore.Internal_Hbond.Weighted>
0.0000

> <Gold.Chemscore.DEClash.Weighted>
0.2015

> <Gold.Chemscore.DEInternal.Weighted>
1.2600

> <Gold.Chemscore.Rot.Weighted>
4.8042

> <Gold.Chemscore.Internal.Correction.Weighted>
   9.000000E+99

> <Gold.Protein.RotatedTorsions>
[ 6907 6896 6895 6894 ] final  -16.97 input  -60.11 | X-H torsion
[ 7974 7965 7964 7962 ] final  -65.96 input  175.53 | X-H torsion
[ 8008 7997 7996 7995 ] final    3.19 input   59.86 | X-H torsion
[ 10167 10162 10161 10158 ] final  -26.65 input  -65.29 | X-H torsion
[ 10718 10713 10712 10709 ] final   74.01 input   66.30 | X-H torsion
[ 10763 10752 10751 10750 ] final  -79.09 input  -60.55 | X-H torsion
[ 11005 11000 10999 10996 ] final -175.62 input  -57.11 | X-H torsion

> <Gold.Protein.ActiveResidues>
 VAL166  LYS551  ARG553  GLY616  TRP617  ASP618  TYR619  PRO620  LYS621  CYS622 
 ASP623  PHE694  ASN695  SER759  ASP760  ASP761  ALA762  ILE779  LEU786  VAL792 
 PHE793  MET794  SER795  GLU796  ALA797  LYS798  CYS799  TRP800  GLU811  SER814 

> <Gold.Protein.RotatedAtoms>
  151.3005  135.0767  159.9236 H   0  0  0  0  0  0  0  0  0  0  0  0  # atno 6907 bound_to 6896
  152.5298  133.9838  159.7829 H   0  0  0  0  0  0  0  0  0  0  0  0  # atno 6908 bound_to 6896
  151.0124  133.5901  159.2711 H   0  0  0  0  0  0  0  0  0  0  0  0  # atno 6909 bound_to 6896
  145.7478  140.8923  143.0496 H   0  0  0  0  0  0  0  0  0  0  0  0  # atno 7974 bound_to 7965
  154.7007  140.2672  155.6722 H   0  0  0  0  0  0  0  0  0  0  0  0  # atno 8008 bound_to 7997
  156.2764  140.2773  156.1540 H   0  0  0  0  0  0  0  0  0  0  0  0  # atno 8009 bound_to 7997
  155.0769  140.0372  157.2616 H   0  0  0  0  0  0  0  0  0  0  0  0  # atno 8010 bound_to 7997
  140.7282  143.4160  151.1027 H   0  0  0  0  0  0  0  0  0  0  0  0  # atno 10167 bound_to 10162
  157.6573  130.9656  150.1150 H   0  0  0  0  0  0  0  0  0  0  0  0  # atno 10718 bound_to 10713
  154.5342  135.5707  153.6784 H   0  0  0  0  0  0  0  0  0  0  0  0  # atno 10763 bound_to 10752
  152.9947  135.6212  154.2589 H   0  0  0  0  0  0  0  0  0  0  0  0  # atno 10764 bound_to 10752
  154.2517  135.2859  155.2794 H   0  0  0  0  0  0  0  0  0  0  0  0  # atno 10765 bound_to 10752
  140.4612  134.6253  157.4843 H   0  0  0  0  0  0  0  0  0  0  0  0  # atno 11005 bound_to 11000
  144.6856  139.9549  143.7479 LP  0  0  0  0  0  0  0  0  0  0  0  0  # atno 17320 bound_to 7965
  146.0386  139.3401  143.0711 LP  0  0  0  0  0  0  0  0  0  0  0  0  # atno 17321 bound_to 7965
  139.7800  143.8369  152.3136 LP  0  0  0  0  0  0  0  0  0  0  0  0  # atno 17342 bound_to 10162
  139.8317  144.7251  150.9442 LP  0  0  0  0  0  0  0  0  0  0  0  0  # atno 17343 bound_to 10162
  156.2036  130.3662  149.8757 LP  0  0  0  0  0  0  0  0  0  0  0  0  # atno 17370 bound_to 10713
  156.6654  130.8799  151.3554 LP  0  0  0  0  0  0  0  0  0  0  0  0  # atno 17371 bound_to 10713
  139.9944  134.6934  155.9634 LP  0  0  0  0  0  0  0  0  0  0  0  0  # atno 17394 bound_to 11000
  141.1620  133.6538  156.4351 LP  0  0  0  0  0  0  0  0  0  0  0  0  # atno 17395 bound_to 11000

$$$$
