AV-unprocessed.smi:1959|AV-procd|sdf|7913|dock10
  -GOLD-   2272010 83D 1   1.00000     0.00000
 Structure written by MMmdl.
 44 45  0  0  0  0  0  0  0  0  1 V2000
  153.8753  141.2740  160.9801 C   0  0  0  0  0  0  0  0  0  0  0  0
  153.0194  142.3331  160.3502 C   0  0  0  0  0  0  0  0  0  0  0  0
  152.5837  143.5651  160.9134 C   0  0  0  0  0  0  0  0  0  0  0  0
  151.8381  144.1427  159.9247 C   0  0  0  0  0  0  0  0  0  0  0  0
  151.1095  145.4461  159.9035 C   0  0  0  0  0  0  0  0  0  0  0  0
  151.8527  143.2716  158.8496 N   0  0  0  0  0  0  0  0  0  0  0  0
  151.2156  143.4088  157.5469 C   0  0  0  0  0  0  0  0  0  0  0  0
  150.2593  142.2554  157.2186 C   0  0  0  0  0  0  0  0  0  0  0  0
  150.0447  141.3510  158.0274 O   0  0  0  0  0  0  0  0  0  0  0  0
  149.6864  142.3066  156.0064 N   0  0  0  0  0  0  0  0  0  0  0  0
  148.7488  141.3258  155.4642 C   0  0  1  0  0  0  0  0  0  0  0  0
  147.4932  142.0258  154.9211 C   0  0  0  0  0  0  0  0  0  0  0  0
  149.4149  140.3707  154.4426 C   0  0  0  0  0  0  0  0  0  0  0  0
  150.2624  139.3035  154.9840 N   0  0  0  0  0  0  0  0  0  0  0  0
  151.6500  139.7462  155.0805 C   0  0  0  0  0  0  0  0  0  0  0  0
  152.5680  138.6529  155.6528 C   0  0  0  0  0  0  0  0  0  0  0  0
  152.4739  137.4844  154.8459 O   0  0  0  0  0  0  0  0  0  0  0  0
  151.1434  136.9861  154.7587 C   0  0  0  0  0  0  0  0  0  0  0  0
  150.2144  138.0750  154.1929 C   0  0  0  0  0  0  0  0  0  0  0  0
  152.5792  142.1637  159.1144 N   0  0  0  0  0  0  0  0  0  0  0  0
  154.2219  141.5813  161.9671 H   0  0  0  0  0  0  0  0  0  0  0  0
  154.7551  141.0656  160.3707 H   0  0  0  0  0  0  0  0  0  0  0  0
  153.3219  140.3422  161.0986 H   0  0  0  0  0  0  0  0  0  0  0  0
  152.7873  143.9648  161.8958 H   0  0  0  0  0  0  0  0  0  0  0  0
  151.2286  145.9744  160.8495 H   0  0  0  0  0  0  0  0  0  0  0  0
  150.0429  145.2931  159.7377 H   0  0  0  0  0  0  0  0  0  0  0  0
  151.4884  146.0904  159.1102 H   0  0  0  0  0  0  0  0  0  0  0  0
  150.6698  144.3526  157.5224 H   0  0  0  0  0  0  0  0  0  0  0  0
  151.9853  143.4679  156.7754 H   0  0  0  0  0  0  0  0  0  0  0  0
  149.9219  143.0843  155.4069 H   0  0  0  0  0  0  0  0  0  0  0  0
  148.4196  140.7099  156.3033 H   0  0  0  0  0  0  0  0  0  0  0  0
  146.7720  141.2983  154.5479 H   0  0  0  0  0  0  0  0  0  0  0  0
  147.7326  142.7071  154.1039 H   0  0  0  0  0  0  0  0  0  0  0  0
  147.0010  142.6069  155.7015 H   0  0  0  0  0  0  0  0  0  0  0  0
  148.6618  139.9459  153.7772 H   0  0  0  0  0  0  0  0  0  0  0  0
  150.0371  140.9977  153.8023 H   0  0  0  0  0  0  0  0  0  0  0  0
  152.0136  140.0417  154.0949 H   0  0  0  0  0  0  0  0  0  0  0  0
  151.7130  140.6321  155.7134 H   0  0  0  0  0  0  0  0  0  0  0  0
  153.6030  138.9948  155.6658 H   0  0  0  0  0  0  0  0  0  0  0  0
  152.2946  138.4175  156.6826 H   0  0  0  0  0  0  0  0  0  0  0  0
  151.1337  136.1073  154.1136 H   0  0  0  0  0  0  0  0  0  0  0  0
  150.8044  136.6642  155.7447 H   0  0  0  0  0  0  0  0  0  0  0  0
  149.2012  137.6775  154.1710 H   0  0  0  0  0  0  0  0  0  0  0  0
  150.4926  138.2884  153.1597 H   0  0  0  0  0  0  0  0  0  0  0  0
  1  2  1  0  0  0  0
  1 21  1  0  0  0  0
  1 22  1  0  0  0  0
  1 23  1  0  0  0  0
  2 20  2  0  0  0  0
  2  3  1  0  0  0  0
  3  4  2  0  0  0  0
  3 24  1  0  0  0  0
  4  5  1  0  0  0  0
  4  6  1  0  0  0  0
  5 25  1  0  0  0  0
  5 26  1  0  0  0  0
  5 27  1  0  0  0  0
  6  7  1  0  0  0  0
  6 20  1  0  0  0  0
  7  8  1  0  0  0  0
  7 28  1  0  0  0  0
  7 29  1  0  0  0  0
  8  9  2  0  0  0  0
  8 10  1  0  0  0  0
 10 11  1  0  0  0  0
 10 30  1  0  0  0  0
 11 12  1  0  0  0  0
 11 13  1  0  0  0  0
 11 31  1  0  0  0  0
 12 32  1  0  0  0  0
 12 33  1  0  0  0  0
 12 34  1  0  0  0  0
 13 14  1  0  0  0  0
 13 35  1  0  0  0  0
 13 36  1  0  0  0  0
 14 19  1  0  0  0  0
 14 15  1  0  0  0  0
 15 16  1  0  0  0  0
 15 37  1  0  0  0  0
 15 38  1  0  0  0  0
 16 17  1  0  0  0  0
 16 39  1  0  0  0  0
 16 40  1  0  0  0  0
 17 18  1  0  0  0  0
 18 19  1  0  0  0  0
 18 41  1  0  0  0  0
 18 42  1  0  0  0  0
 19 43  1  0  0  0  0
 19 44  1  0  0  0  0
M  END
> <s_m_source_file>
AV-unprocessed.smi

> <i_m_source_file_index>
1959

> <i_lp_mmshare_version>
43012

> <i_f3d_flags>
0

> <s_epik_input>
W0NIM11jMVtjSF1jKFtDSDNdKW4objEpW0NIMl1DKD1PKVtOSF1bQ0BIXShbQ0gzXSlbQ0gyXU4yW0NIMl1bQ0gyXU9bQ0gyXVtDSDJdMg==

> <s_epik_cmdline>
J2VwaWtfcHl0aG9uJywgJy1waCcsICc3LjAnLCAnLXRuJywgJzgnLCAnLW1hJywgJzIwMCcsICctbWV0YWxfYmluZGluZycsICctaW1hZScsICc8aW5maWxlLm1hZT4nLCAnLW9tYWUnLCAnPG91dGZpbGUubWFlPic=

> <r_lp_tautomer_probability>
1

> <r_epik_Ionization_Penalty>
0.197284

> <r_epik_Ionization_Penalty_Charging>
0

> <r_epik_Ionization_Penalty_Neutral>
0.197284

> <r_epik_State_Penalty>
0.186684

> <r_epik_Charging_Adjusted_Penalty>
0.186684

> <i_epik_Tot_Q>
0

> <i_epik_Tot_abs_Q>
0

> <r_epik_Metal_State_Penalty>
0.186639

> <b_epik_Metal_Only>
0

> <s_lp_Force_Field>
OPLS_2005

> <r_lp_Energy>
28.5782

> <b_lp_Chiralities_Consistent>
1

> <s_lp_Variant>
AV-unprocessed.smi:1959-2

> <Gold.Version>
5.8.1

> <Gold.Id.Protein>
6NUR|6NUR_protein|mol2

> <Gold.PLP.Fitness>
45.5729

> <Gold.PLP.PLP>
-44.2234

> <Gold.PLP.part.hbond>
-2.0000

> <Gold.PLP.part.metal>
0.0000

> <Gold.PLP.part.buried>
-2.5197

> <Gold.PLP.part.nonpolar>
-40.9421

> <Gold.PLP.part.repulsive>
0.3278

> <Gold.PLP.ligand.clash>
0.0000

> <Gold.PLP.ligand.torsion>
0.7762

> <Gold.PLP.Chemscore.Hbond>
0.9462

> <Gold.PLP.Chemscore.CHOScore>
0.0000

> <Gold.PLP.Chemscore.Metal>
0.0000

> <Gold.Chemscore.Hbonds>
donor molecule, donor type, donor heavy atom, donor atom, acceptor molecule, acceptor atom, score
      L1  H    10    30       P1  8028  0.35
      P1  H 10752 10764       L1    17  0.13

> <Gold.PLP.Chemscore.Internal.Correction>
0.0633

> <Gold.Rescore>
     Score         DG    S(hbond)    S(metal)    S(lipo)     H(rot)  DE(clash)    DE(int)     intcor
     15.39     -16.99       0.98        0.00     107.52       1.70       0.05       1.55       ----

> <Gold.Chemscore.Fitness>
15.3950

> <Gold.Chemscore.DG>
-16.9928

> <Gold.Chemscore.ZeroCoef>
-5.4800

> <Gold.Chemscore.Hbond>
0.9800

> <Gold.Chemscore.Metal>
0.0000

> <Gold.Chemscore.Lipo>
107.5167

> <Gold.Chemscore.Internal_Hbond>
0.0000

> <Gold.Chemscore.DEClash>
0.0525

> <Gold.Chemscore.DEInternal>
1.5454

> <Gold.Chemscore.Rot>
1.6952

> <Gold.Chemscore.Internal.Correction>
   9.000000E+99

> <Gold.Chemscore.Hbonds>
donor molecule, donor type, donor heavy atom, donor atom, acceptor molecule, acceptor atom, score
      L1  H    10    30       P1  8028  0.34

> <Gold.Chemscore.Hbond.Weighted>
-3.2732

> <Gold.Chemscore.Metal.Weighted>
-0.0000

> <Gold.Chemscore.Lipo.Weighted>
-12.5795

> <Gold.Chemscore.Internal_Hbond.Weighted>
0.0000

> <Gold.Chemscore.DEClash.Weighted>
0.0525

> <Gold.Chemscore.DEInternal.Weighted>
1.5454

> <Gold.Chemscore.Rot.Weighted>
4.3398

> <Gold.Chemscore.Internal.Correction.Weighted>
   9.000000E+99

> <Gold.Protein.RotatedTorsions>
[ 6907 6896 6895 6894 ] final   73.83 input  -60.11 | X-H torsion
[ 7974 7965 7964 7962 ] final  -92.84 input  175.53 | X-H torsion
[ 8008 7997 7996 7995 ] final   14.58 input   59.86 | X-H torsion
[ 10167 10162 10161 10158 ] final -120.16 input  -65.29 | X-H torsion
[ 10718 10713 10712 10709 ] final -178.50 input   66.30 | X-H torsion
[ 10763 10752 10751 10750 ] final  -47.81 input  -60.55 | X-H torsion
[ 11005 11000 10999 10996 ] final  -72.20 input  -57.11 | X-H torsion

> <Gold.Protein.ActiveResidues>
 VAL166  LYS551  ARG553  GLY616  TRP617  ASP618  TYR619  PRO620  LYS621  CYS622 
 ASP623  PHE694  ASN695  SER759  ASP760  ASP761  ALA762  ILE779  LEU786  VAL792 
 PHE793  MET794  SER795  GLU796  ALA797  LYS798  CYS799  TRP800  GLU811  SER814 

> <Gold.Protein.RotatedAtoms>
  152.4944  134.4363  159.9528 H   0  0  0  0  0  0  0  0  0  0  0  0  # atno 6907 bound_to 6896
  151.4344  133.3655  159.2781 H   0  0  0  0  0  0  0  0  0  0  0  0  # atno 6908 bound_to 6896
  150.9131  134.8572  159.7499 H   0  0  0  0  0  0  0  0  0  0  0  0  # atno 6909 bound_to 6896
  145.3945  140.9531  143.2322 H   0  0  0  0  0  0  0  0  0  0  0  0  # atno 7974 bound_to 7965
  154.8504  140.2929  155.5602 H   0  0  0  0  0  0  0  0  0  0  0  0  # atno 8008 bound_to 7997
  156.3016  140.2497  156.3394 H   0  0  0  0  0  0  0  0  0  0  0  0  # atno 8009 bound_to 7997
  154.9027  140.0391  157.1891 H   0  0  0  0  0  0  0  0  0  0  0  0  # atno 8010 bound_to 7997
  140.0388  143.5174  152.2140 H   0  0  0  0  0  0  0  0  0  0  0  0  # atno 10167 bound_to 10162
  156.8452  130.9700  151.3097 H   0  0  0  0  0  0  0  0  0  0  0  0  # atno 10718 bound_to 10713
  154.0674  135.6609  153.4820 H   0  0  0  0  0  0  0  0  0  0  0  0  # atno 10763 bound_to 10752
  153.0403  135.5149  154.7600 H   0  0  0  0  0  0  0  0  0  0  0  0  # atno 10764 bound_to 10752
  154.6655  135.3021  154.9778 H   0  0  0  0  0  0  0  0  0  0  0  0  # atno 10765 bound_to 10752
  141.1605  133.6840  156.7023 H   0  0  0  0  0  0  0  0  0  0  0  0  # atno 11005 bound_to 11000
  144.8417  139.5462  143.6897 LP  0  0  0  0  0  0  0  0  0  0  0  0  # atno 17320 bound_to 7965
  146.2782  139.6807  142.9248 LP  0  0  0  0  0  0  0  0  0  0  0  0  # atno 17321 bound_to 7965
  139.6027  144.7587  151.3133 LP  0  0  0  0  0  0  0  0  0  0  0  0  # atno 17342 bound_to 10162
  140.7269  143.6977  150.7870 LP  0  0  0  0  0  0  0  0  0  0  0  0  # atno 17343 bound_to 10162
  157.6334  130.8747  149.9315 LP  0  0  0  0  0  0  0  0  0  0  0  0  # atno 17370 bound_to 10713
  156.0859  130.3668  150.0489 LP  0  0  0  0  0  0  0  0  0  0  0  0  # atno 17371 bound_to 10713
  140.2949  134.8210  157.4049 LP  0  0  0  0  0  0  0  0  0  0  0  0  # atno 17394 bound_to 11000
  140.1313  134.5091  155.8103 LP  0  0  0  0  0  0  0  0  0  0  0  0  # atno 17395 bound_to 11000

$$$$
