AV-unprocessed.smi:3349|AV-procd|sdf|12934|dock6
  -GOLD-   2272019363D 1   1.00000     0.00000
 Structure written by MMmdl.
 40 41  0  0  0  0  0  0  0  0  1 V2000
  152.0281  144.3821  157.8980 C   0  0  0  0  0  0  0  0  0  0  0  0
  151.2371  143.0915  158.2345 C   0  0  1  0  0  0  0  0  0  0  0  0
  151.2684  142.1447  157.0026 C   0  0  0  0  0  0  0  0  0  0  0  0
  150.0890  142.2851  156.1562 N   0  0  0  0  0  0  0  0  0  0  0  0
  149.6991  141.3888  155.2380 C   0  0  0  0  0  0  0  0  0  0  0  0
  150.2990  140.3327  155.0331 O   0  0  0  0  0  0  0  0  0  0  0  0
  148.4388  141.7442  154.4344 C   0  0  1  0  0  0  0  0  0  0  0  0
  148.0186  140.6251  153.4639 C   0  0  0  0  0  0  0  0  0  0  0  0
  147.3452  142.0935  155.3301 N   0  0  0  0  0  0  0  0  0  0  0  0
  146.0989  142.5029  155.0753 C   0  0  0  0  0  0  0  0  0  0  0  0
  145.3802  142.7445  156.1626 N   0  0  0  0  0  0  0  0  0  0  0  0
  146.3090  142.4492  157.1199 C   0  0  0  0  0  0  0  0  0  0  0  0
  147.5033  142.0579  156.6751 N   0  0  0  0  0  0  0  0  0  0  0  0
  151.7077  142.4418  159.4805 N   0  0  0  0  0  0  0  0  0  0  0  0
  151.9017  143.3928  160.5814 C   0  0  0  0  0  0  0  0  0  0  0  0
  152.4147  142.7219  161.8677 C   0  0  0  0  0  0  0  0  0  0  0  0
  153.6264  142.0305  161.5983 O   0  0  0  0  0  0  0  0  0  0  0  0
  153.4631  141.0425  160.5904 C   0  0  0  0  0  0  0  0  0  0  0  0
  152.9625  141.7037  159.2946 C   0  0  0  0  0  0  0  0  0  0  0  0
  151.7131  144.8341  156.9581 H   0  0  0  0  0  0  0  0  0  0  0  0
  153.0968  144.1795  157.8211 H   0  0  0  0  0  0  0  0  0  0  0  0
  151.8854  145.1617  158.6448 H   0  0  0  0  0  0  0  0  0  0  0  0
  150.1968  143.3864  158.3820 H   0  0  0  0  0  0  0  0  0  0  0  0
  152.1675  142.3324  156.4130 H   0  0  0  0  0  0  0  0  0  0  0  0
  151.2936  141.0986  157.3049 H   0  0  0  0  0  0  0  0  0  0  0  0
  149.5396  143.1249  156.2691 H   0  0  0  0  0  0  0  0  0  0  0  0
  148.6763  142.6239  153.8324 H   0  0  0  0  0  0  0  0  0  0  0  0
  148.8352  140.3554  152.7934 H   0  0  0  0  0  0  0  0  0  0  0  0
  147.1798  140.9440  152.8448 H   0  0  0  0  0  0  0  0  0  0  0  0
  147.7113  139.7232  153.9945 H   0  0  0  0  0  0  0  0  0  0  0  0
  145.7109  142.6272  154.0745 H   0  0  0  0  0  0  0  0  0  0  0  0
  146.0998  142.5267  158.1767 H   0  0  0  0  0  0  0  0  0  0  0  0
  152.5996  144.1742  160.2771 H   0  0  0  0  0  0  0  0  0  0  0  0
  150.9652  143.8848  160.8362 H   0  0  0  0  0  0  0  0  0  0  0  0
  152.5973  143.4712  162.6382 H   0  0  0  0  0  0  0  0  0  0  0  0
  151.6711  142.0291  162.2649 H   0  0  0  0  0  0  0  0  0  0  0  0
  154.4196  140.5486  160.4182 H   0  0  0  0  0  0  0  0  0  0  0  0
  152.7634  140.2766  160.9292 H   0  0  0  0  0  0  0  0  0  0  0  0
  152.8369  140.9091  158.5614 H   0  0  0  0  0  0  0  0  0  0  0  0
  153.7325  142.3736  158.9090 H   0  0  0  0  0  0  0  0  0  0  0  0
  1  2  1  0  0  0  0
  1 20  1  0  0  0  0
  1 21  1  0  0  0  0
  1 22  1  0  0  0  0
  2  3  1  0  0  0  0
  2 14  1  0  0  0  0
  2 23  1  0  0  0  0
  3  4  1  0  0  0  0
  3 24  1  0  0  0  0
  3 25  1  0  0  0  0
  4  5  1  0  0  0  0
  4 26  1  0  0  0  0
  5  6  2  0  0  0  0
  5  7  1  0  0  0  0
  7  8  1  0  0  0  0
  7  9  1  0  0  0  0
  7 27  1  0  0  0  0
  8 28  1  0  0  0  0
  8 29  1  0  0  0  0
  8 30  1  0  0  0  0
  9 13  1  0  0  0  0
  9 10  1  0  0  0  0
 10 11  2  0  0  0  0
 10 31  1  0  0  0  0
 11 12  1  0  0  0  0
 12 13  2  0  0  0  0
 12 32  1  0  0  0  0
 14 19  1  0  0  0  0
 14 15  1  0  0  0  0
 15 16  1  0  0  0  0
 15 33  1  0  0  0  0
 15 34  1  0  0  0  0
 16 17  1  0  0  0  0
 16 35  1  0  0  0  0
 16 36  1  0  0  0  0
 17 18  1  0  0  0  0
 18 19  1  0  0  0  0
 18 37  1  0  0  0  0
 18 38  1  0  0  0  0
 19 39  1  0  0  0  0
 19 40  1  0  0  0  0
M  END
> <s_m_source_file>
AV-unprocessed.smi

> <i_m_source_file_index>
3349

> <i_lp_mmshare_version>
43012

> <i_f3d_flags>
0

> <s_epik_input>
W0NIMl0xW0NIMl1PW0NIMl1bQ0gyXU4xW0NASF0oW0NIM10pW0NIMl1bTkhdQyg9TylbQ0BIXShbQ0gzXSluMltjSF1uW2NIXW4y

> <s_epik_cmdline>
J2VwaWtfcHl0aG9uJywgJy1waCcsICc3LjAnLCAnLXRuJywgJzgnLCAnLW1hJywgJzIwMCcsICctbWV0YWxfYmluZGluZycsICctaW1hZScsICc8aW5maWxlLm1hZT4nLCAnLW9tYWUnLCAnPG91dGZpbGUubWFlPic=

> <r_lp_tautomer_probability>
1

> <r_epik_Ionization_Penalty>
0.211373

> <r_epik_Ionization_Penalty_Charging>
0

> <r_epik_Ionization_Penalty_Neutral>
0.211373

> <r_epik_State_Penalty>
0.201459

> <r_epik_Charging_Adjusted_Penalty>
0.201459

> <i_epik_Tot_Q>
0

> <i_epik_Tot_abs_Q>
0

> <r_epik_Metal_State_Penalty>
0.201458

> <b_epik_Metal_Only>
0

> <s_lp_Force_Field>
OPLS_2005

> <r_lp_Energy>
35.0343

> <b_lp_Chiralities_Consistent>
1

> <s_lp_Variant>
AV-unprocessed.smi:3349-4

> <Gold.Version>
5.8.1

> <Gold.Id.Protein>
6NUR|6NUR_protein|mol2

> <Gold.PLP.Fitness>
43.3212

> <Gold.PLP.PLP>
-39.0998

> <Gold.PLP.part.hbond>
-2.3157

> <Gold.PLP.part.metal>
0.0000

> <Gold.PLP.part.buried>
-2.3685

> <Gold.PLP.part.nonpolar>
-34.0836

> <Gold.PLP.part.repulsive>
0.4311

> <Gold.PLP.ligand.clash>
0.0000

> <Gold.PLP.ligand.torsion>
0.9251

> <Gold.PLP.Chemscore.Hbond>
1.9920

> <Gold.PLP.Chemscore.CHOScore>
0.0000

> <Gold.PLP.Chemscore.Metal>
0.0000

> <Gold.Chemscore.Hbonds>
donor molecule, donor type, donor heavy atom, donor atom, acceptor molecule, acceptor atom, score
      L1  H     4    26       P1  8028  1.00
      P1  H  7989  7998       L1     6  0.83

> <Gold.PLP.Chemscore.Internal.Correction>
0.0956

> <Gold.Rescore>
     Score         DG    S(hbond)    S(metal)    S(lipo)     H(rot)  DE(clash)    DE(int)     intcor
     11.98     -14.85       1.59        0.00      90.79       2.56       0.08       2.80       ----

> <Gold.Chemscore.Fitness>
11.9803

> <Gold.Chemscore.DG>
-14.8515

> <Gold.Chemscore.ZeroCoef>
-5.4800

> <Gold.Chemscore.Hbond>
1.5855

> <Gold.Chemscore.Metal>
0.0000

> <Gold.Chemscore.Lipo>
90.7863

> <Gold.Chemscore.Internal_Hbond>
0.0000

> <Gold.Chemscore.DEClash>
0.0759

> <Gold.Chemscore.DEInternal>
2.7953

> <Gold.Chemscore.Rot>
2.5570

> <Gold.Chemscore.Internal.Correction>
   9.000000E+99

> <Gold.Chemscore.Hbonds>
donor molecule, donor type, donor heavy atom, donor atom, acceptor molecule, acceptor atom, score
      L1  H     4    26       P1  8028  0.96
      P1  H  7989  7998       L1     6  0.27

> <Gold.Chemscore.Hbond.Weighted>
-5.2954

> <Gold.Chemscore.Metal.Weighted>
-0.0000

> <Gold.Chemscore.Lipo.Weighted>
-10.6220

> <Gold.Chemscore.Internal_Hbond.Weighted>
0.0000

> <Gold.Chemscore.DEClash.Weighted>
0.0759

> <Gold.Chemscore.DEInternal.Weighted>
2.7953

> <Gold.Chemscore.Rot.Weighted>
6.5459

> <Gold.Chemscore.Internal.Correction.Weighted>
   9.000000E+99

> <Gold.Protein.RotatedTorsions>
[ 6907 6896 6895 6894 ] final -172.95 input  -60.11 | X-H torsion
[ 7974 7965 7964 7962 ] final    1.65 input  175.53 | X-H torsion
[ 8008 7997 7996 7995 ] final   99.02 input   59.86 | X-H torsion
[ 10167 10162 10161 10158 ] final  -36.95 input  -65.29 | X-H torsion
[ 10718 10713 10712 10709 ] final -106.43 input   66.30 | X-H torsion
[ 10763 10752 10751 10750 ] final   32.79 input  -60.55 | X-H torsion
[ 11005 11000 10999 10996 ] final  175.20 input  -57.11 | X-H torsion

> <Gold.Protein.ActiveResidues>
 VAL166  LYS551  ARG553  GLY616  TRP617  ASP618  TYR619  PRO620  LYS621  CYS622 
 ASP623  PHE694  ASN695  SER759  ASP760  ASP761  ALA762  ILE779  LEU786  VAL792 
 PHE793  MET794  SER795  GLU796  ALA797  LYS798  CYS799  TRP800  GLU811  SER814 

> <Gold.Protein.RotatedAtoms>
  151.5483  133.3421  159.2948 H   0  0  0  0  0  0  0  0  0  0  0  0  # atno 6907 bound_to 6896
  150.8494  134.7816  159.7007 H   0  0  0  0  0  0  0  0  0  0  0  0  # atno 6908 bound_to 6896
  152.4544  134.5332  159.9869 H   0  0  0  0  0  0  0  0  0  0  0  0  # atno 6909 bound_to 6896
  146.2441  140.0955  142.8350 H   0  0  0  0  0  0  0  0  0  0  0  0  # atno 7974 bound_to 7965
  156.1063  140.3235  155.8011 H   0  0  0  0  0  0  0  0  0  0  0  0  # atno 8008 bound_to 7997
  155.4750  140.0549  157.2992 H   0  0  0  0  0  0  0  0  0  0  0  0  # atno 8009 bound_to 7997
  154.4730  140.2020  155.9962 H   0  0  0  0  0  0  0  0  0  0  0  0  # atno 8010 bound_to 7997
  140.7130  143.3374  151.2432 H   0  0  0  0  0  0  0  0  0  0  0  0  # atno 10167 bound_to 10162
  156.0390  130.5612  150.7680 H   0  0  0  0  0  0  0  0  0  0  0  0  # atno 10718 bound_to 10713
  153.0244  135.6404  154.1410 H   0  0  0  0  0  0  0  0  0  0  0  0  # atno 10763 bound_to 10752
  154.1141  135.2851  155.3225 H   0  0  0  0  0  0  0  0  0  0  0  0  # atno 10764 bound_to 10752
  154.6311  135.5492  153.7744 H   0  0  0  0  0  0  0  0  0  0  0  0  # atno 10765 bound_to 10752
  140.3596  134.7124  157.4322 H   0  0  0  0  0  0  0  0  0  0  0  0  # atno 11005 bound_to 11000
  145.0613  140.9090  143.4937 LP  0  0  0  0  0  0  0  0  0  0  0  0  # atno 17320 bound_to 7965
  145.1071  139.2782  143.5656 LP  0  0  0  0  0  0  0  0  0  0  0  0  # atno 17321 bound_to 7965
  139.6873  143.9752  152.2840 LP  0  0  0  0  0  0  0  0  0  0  0  0  # atno 17342 bound_to 10162
  139.9402  144.6686  150.8274 LP  0  0  0  0  0  0  0  0  0  0  0  0  # atno 17343 bound_to 10162
  157.5181  131.0930  151.0113 LP  0  0  0  0  0  0  0  0  0  0  0  0  # atno 17370 bound_to 10713
  157.0451  130.5764  149.5362 LP  0  0  0  0  0  0  0  0  0  0  0  0  # atno 17371 bound_to 10713
  140.0637  134.5960  155.8720 LP  0  0  0  0  0  0  0  0  0  0  0  0  # atno 17394 bound_to 11000
  141.1988  133.6603  156.5810 LP  0  0  0  0  0  0  0  0  0  0  0  0  # atno 17395 bound_to 11000

$$$$
