AV-unprocessed.smi:2874|AV-procd|sdf|11039|dock8
  -GOLD-   2272015503D 1   1.00000     0.00000
 Structure written by MMmdl.
 40 42  0  0  0  0  0  0  0  0  2 V2000
  151.0887  138.0096  154.3059 C   0  0  0  0  0  0  0  0  0  0  0  0
  151.9004  139.1388  154.5742 O   0  0  0  0  0  0  0  0  0  0  0  0
  152.5697  139.0453  155.8212 C   0  0  0  0  0  0  0  0  0  0  0  0
  151.5791  139.3351  156.9577 C   0  0  0  0  0  0  0  0  0  0  0  0
  151.0454  140.7028  156.8936 N   0  0  0  0  0  0  0  0  0  0  0  0
  150.1441  141.2625  156.0384 C   0  0  0  0  0  0  0  0  0  0  0  0
  149.3368  140.4460  154.6961 S   0  0  0  0  0  0  0  0  0  0  0  0
  148.2470  141.6720  153.9132 C   0  0  0  0  0  0  0  0  0  0  0  0
  147.1412  142.0908  154.8659 C   0  0  0  0  0  0  0  0  0  0  0  0
  147.1322  141.5143  156.0722 N   0  0  0  0  0  0  0  0  0  0  0  0
  146.1381  141.8730  156.9133 C   0  0  0  0  0  0  0  0  0  0  0  0
  145.1533  142.8103  156.5409 C   0  0  0  0  0  0  0  0  0  0  0  0
  145.2682  143.3535  155.2457 C   0  0  0  0  0  0  0  0  0  0  0  0
  144.3468  144.2867  154.7783 N   0  0  0  0  0  0  0  0  0  0  0  0
  146.2641  142.9917  154.4092 N   0  0  0  0  0  0  0  0  0  0  0  0
  149.9758  142.5610  156.4128 N   0  3  0  0  0  0  0  0  0  0  0  0
  150.7841  142.8393  157.5151 C   0  0  0  0  0  0  0  0  0  0  0  0
  150.9614  144.0124  158.2415 C   0  0  0  0  0  0  0  0  0  0  0  0
  151.8663  143.9582  159.3223 C   0  0  0  0  0  0  0  0  0  0  0  0
  152.1376  145.3747  160.2687 Cl  0  0  0  0  0  0  0  0  0  0  0  0
  152.5519  142.7682  159.6438 C   0  0  0  0  0  0  0  0  0  0  0  0
  152.3650  141.5847  158.8997 C   0  0  0  0  0  0  0  0  0  0  0  0
  151.4710  141.6491  157.8319 C   0  0  0  0  0  0  0  0  0  0  0  0
  150.6017  138.1310  153.3384 H   0  0  0  0  0  0  0  0  0  0  0  0
  150.3113  137.8942  155.0621 H   0  0  0  0  0  0  0  0  0  0  0  0
  151.6831  137.0956  154.2714 H   0  0  0  0  0  0  0  0  0  0  0  0
  152.9948  138.0476  155.9403 H   0  0  0  0  0  0  0  0  0  0  0  0
  153.3948  139.7579  155.8592 H   0  0  0  0  0  0  0  0  0  0  0  0
  150.7486  138.6288  156.9457 H   0  0  0  0  0  0  0  0  0  0  0  0
  152.0725  139.2140  157.9225 H   0  0  0  0  0  0  0  0  0  0  0  0
  148.8360  142.5460  153.6339 H   0  0  0  0  0  0  0  0  0  0  0  0
  147.8345  141.2547  152.9936 H   0  0  0  0  0  0  0  0  0  0  0  0
  146.1272  141.4082  157.8883 H   0  0  0  0  0  0  0  0  0  0  0  0
  144.3589  143.0942  157.2156 H   0  0  0  0  0  0  0  0  0  0  0  0
  143.5761  144.5968  155.3528 H   0  0  0  0  0  0  0  0  0  0  0  0
  144.4902  144.7737  153.9053 H   0  0  0  0  0  0  0  0  0  0  0  0
  150.4353  144.9232  157.9958 H   0  0  0  0  0  0  0  0  0  0  0  0
  153.2373  142.7619  160.4790 H   0  0  0  0  0  0  0  0  0  0  0  0
  152.8948  140.6789  159.1555 H   0  0  0  0  0  0  0  0  0  0  0  0
  149.3618  143.2107  155.9377 H   0  0  0  0  0  0  0  0  0  0  0  0
  1  2  1  0  0  0  0
  1 24  1  0  0  0  0
  1 25  1  0  0  0  0
  1 26  1  0  0  0  0
  2  3  1  0  0  0  0
  3  4  1  0  0  0  0
  3 27  1  0  0  0  0
  3 28  1  0  0  0  0
  4  5  1  0  0  0  0
  4 29  1  0  0  0  0
  4 30  1  0  0  0  0
  5 23  1  0  0  0  0
  5  6  1  0  0  0  0
  6  7  1  0  0  0  0
  6 16  2  0  0  0  0
  7  8  1  0  0  0  0
  8  9  1  0  0  0  0
  8 31  1  0  0  0  0
  8 32  1  0  0  0  0
  9 15  1  0  0  0  0
  9 10  2  0  0  0  0
 10 11  1  0  0  0  0
 11 12  2  0  0  0  0
 11 33  1  0  0  0  0
 12 13  1  0  0  0  0
 12 34  1  0  0  0  0
 13 14  1  0  0  0  0
 13 15  2  0  0  0  0
 14 35  1  0  0  0  0
 14 36  1  0  0  0  0
 16 17  1  0  0  0  0
 16 40  1  0  0  0  0
 17 23  2  0  0  0  0
 17 18  1  0  0  0  0
 18 19  2  0  0  0  0
 18 37  1  0  0  0  0
 19 20  1  0  0  0  0
 19 21  1  0  0  0  0
 21 22  2  0  0  0  0
 21 38  1  0  0  0  0
 22 23  1  0  0  0  0
 22 39  1  0  0  0  0
M  CHG  1  16   1
M  END
> <s_m_source_file>
AV-unprocessed.smi

> <i_m_source_file_index>
2874

> <i_lp_mmshare_version>
43012

> <i_f3d_flags>
0

> <s_epik_input>
W2NIXTFjKENsKVtjSF1bY0hdYyhjMTIpbihbQ0gyXVtDSDJdT1tDSDNdKWMobjIpU1tDSDJdYzNuW2NIXVtjSF1jKG4zKVtOSDJd

> <s_epik_cmdline>
J2VwaWtfcHl0aG9uJywgJy1waCcsICc3LjAnLCAnLXRuJywgJzgnLCAnLW1hJywgJzIwMCcsICctbWV0YWxfYmluZGluZycsICctaW1hZScsICc8aW5maWxlLm1hZT4nLCAnLW9tYWUnLCAnPG91dGZpbGUubWFlPic=

> <r_lp_tautomer_probability>
1

> <r_epik_Ionization_Penalty>
2.48176

> <r_epik_Ionization_Penalty_Charging>
2.48043

> <r_epik_Ionization_Penalty_Neutral>
0.00132706

> <r_epik_State_Penalty>
2.64401

> <r_epik_Charging_Adjusted_Penalty>
5.12444

> <i_epik_Tot_Q>
1

> <i_epik_Tot_abs_Q>
1

> <r_epik_Metal_State_Penalty>
2.65168

> <b_epik_Metal_Only>
0

> <s_lp_Force_Field>
OPLS_2005

> <r_lp_Energy>
0.65944

> <b_lp_Chiralities_Consistent>
1

> <s_lp_Variant>
AV-unprocessed.smi:2874-2

> <Gold.Version>
5.8.1

> <Gold.Id.Protein>
6NUR|6NUR_protein|mol2

> <Gold.PLP.Fitness>
53.6485

> <Gold.PLP.PLP>
-45.1330

> <Gold.PLP.part.hbond>
-1.9548

> <Gold.PLP.part.metal>
0.0000

> <Gold.PLP.part.buried>
-4.2762

> <Gold.PLP.part.nonpolar>
-39.7441

> <Gold.PLP.part.repulsive>
0.5127

> <Gold.PLP.ligand.clash>
0.0000

> <Gold.PLP.ligand.torsion>
0.2189

> <Gold.PLP.Chemscore.Hbond>
2.9675

> <Gold.PLP.Chemscore.CHOScore>
0.0000

> <Gold.PLP.Chemscore.Metal>
0.0000

> <Gold.Chemscore.Hbonds>
donor molecule, donor type, donor heavy atom, donor atom, acceptor molecule, acceptor atom, score
      L1  H    16    40       P1  8028  1.98
      P1  H  7989  7998       L1     2  0.92

> <Gold.PLP.Chemscore.Internal.Correction>
0.0509

> <Gold.Rescore>
     Score         DG    S(hbond)    S(metal)    S(lipo)     H(rot)  DE(clash)    DE(int)     intcor
     16.70     -17.23       1.64        0.00     108.61       2.51       0.16       0.37       ----

> <Gold.Chemscore.Fitness>
16.6993

> <Gold.Chemscore.DG>
-17.2330

> <Gold.Chemscore.ZeroCoef>
-5.4800

> <Gold.Chemscore.Hbond>
1.6370

> <Gold.Chemscore.Metal>
0.0000

> <Gold.Chemscore.Lipo>
108.6134

> <Gold.Chemscore.Internal_Hbond>
0.0000

> <Gold.Chemscore.DEClash>
0.1623

> <Gold.Chemscore.DEInternal>
0.3714

> <Gold.Chemscore.Rot>
2.5088

> <Gold.Chemscore.Internal.Correction>
   9.000000E+99

> <Gold.Chemscore.Hbonds>
donor molecule, donor type, donor heavy atom, donor atom, acceptor molecule, acceptor atom, score
      L1  H    16    40       P1  8028  0.93
      P1  H  7989  7998       L1     2  0.83

> <Gold.Chemscore.Hbond.Weighted>
-5.4677

> <Gold.Chemscore.Metal.Weighted>
-0.0000

> <Gold.Chemscore.Lipo.Weighted>
-12.7078

> <Gold.Chemscore.Internal_Hbond.Weighted>
0.0000

> <Gold.Chemscore.DEClash.Weighted>
0.1623

> <Gold.Chemscore.DEInternal.Weighted>
0.3714

> <Gold.Chemscore.Rot.Weighted>
6.4224

> <Gold.Chemscore.Internal.Correction.Weighted>
   9.000000E+99

> <Gold.Protein.RotatedTorsions>
[ 6907 6896 6895 6894 ] final  128.63 input  -60.11 | X-H torsion
[ 7974 7965 7964 7962 ] final -152.35 input  175.53 | X-H torsion
[ 8008 7997 7996 7995 ] final   95.23 input   59.86 | X-H torsion
[ 10167 10162 10161 10158 ] final  -92.12 input  -65.29 | X-H torsion
[ 10718 10713 10712 10709 ] final    1.47 input   66.30 | X-H torsion
[ 10763 10752 10751 10750 ] final  149.79 input  -60.55 | X-H torsion
[ 11005 11000 10999 10996 ] final  -84.02 input  -57.11 | X-H torsion

> <Gold.Protein.ActiveResidues>
 VAL166  LYS551  ARG553  GLY616  TRP617  ASP618  TYR619  PRO620  LYS621  CYS622 
 ASP623  PHE694  ASN695  SER759  ASP760  ASP761  ALA762  ILE779  LEU786  VAL792 
 PHE793  MET794  SER795  GLU796  ALA797  LYS798  CYS799  TRP800  GLU811  SER814 

> <Gold.Protein.RotatedAtoms>
  152.3701  133.6408  159.6080 H   0  0  0  0  0  0  0  0  0  0  0  0  # atno 6907 bound_to 6896
  150.7662  133.9284  159.3428 H   0  0  0  0  0  0  0  0  0  0  0  0  # atno 6908 bound_to 6896
  151.7108  135.0914  160.0318 H   0  0  0  0  0  0  0  0  0  0  0  0  # atno 6909 bound_to 6896
  144.7799  140.4674  143.5847 H   0  0  0  0  0  0  0  0  0  0  0  0  # atno 7974 bound_to 7965
  156.0666  140.3289  155.7525 H   0  0  0  0  0  0  0  0  0  0  0  0  # atno 8008 bound_to 7997
  155.5372  140.0598  157.2895 H   0  0  0  0  0  0  0  0  0  0  0  0  # atno 8009 bound_to 7997
  154.4508  140.1917  156.0543 H   0  0  0  0  0  0  0  0  0  0  0  0  # atno 8010 bound_to 7997
  140.3380  143.2957  151.9867 H   0  0  0  0  0  0  0  0  0  0  0  0  # atno 10167 bound_to 10162
  156.8487  130.5546  149.5671 H   0  0  0  0  0  0  0  0  0  0  0  0  # atno 10718 bound_to 10713
  154.0769  135.2862  155.3298 H   0  0  0  0  0  0  0  0  0  0  0  0  # atno 10763 bound_to 10752
  154.6710  135.5299  153.8141 H   0  0  0  0  0  0  0  0  0  0  0  0  # atno 10764 bound_to 10752
  153.0464  135.6557  154.0946 H   0  0  0  0  0  0  0  0  0  0  0  0  # atno 10765 bound_to 10752
  141.1654  133.7324  156.8806 H   0  0  0  0  0  0  0  0  0  0  0  0  # atno 11005 bound_to 11000
  145.6080  139.1510  143.3092 LP  0  0  0  0  0  0  0  0  0  0  0  0  # atno 17320 bound_to 7965
  146.2001  140.6197  142.9106 LP  0  0  0  0  0  0  0  0  0  0  0  0  # atno 17321 bound_to 7965
  139.4845  144.6180  151.7309 LP  0  0  0  0  0  0  0  0  0  0  0  0  # atno 17342 bound_to 10162
  140.5335  144.0693  150.6062 LP  0  0  0  0  0  0  0  0  0  0  0  0  # atno 17343 bound_to 10162
  156.0840  130.5843  150.9614 LP  0  0  0  0  0  0  0  0  0  0  0  0  # atno 17370 bound_to 10713
  157.6315  131.0920  150.8432 LP  0  0  0  0  0  0  0  0  0  0  0  0  # atno 17371 bound_to 10713
  140.1718  134.9095  157.2842 LP  0  0  0  0  0  0  0  0  0  0  0  0  # atno 17394 bound_to 11000
  140.2494  134.3701  155.7448 LP  0  0  0  0  0  0  0  0  0  0  0  0  # atno 17395 bound_to 11000

$$$$
