AV-unprocessed.smi:25|AV-procd|sdf|179|dock6
  -GOLD-   2262015443D 1   1.00000     0.00000
 Structure written by MMmdl.
 47 50  0  0  0  0  0  0  0  0  1 V2000
  150.8314  140.8221  155.8120 C   0  0  0  0  0  0  0  0  0  0  0  0
  150.3199  140.9548  157.2605 C   0  0  2  0  0  0  0  0  0  0  0  0
  150.0959  142.4342  157.6467 C   0  0  0  0  0  0  0  0  0  0  0  0
  151.1066  142.6617  158.7278 C   0  0  0  0  0  0  0  0  0  0  0  0
  151.3800  143.8881  159.3577 C   0  0  0  0  0  0  0  0  0  0  0  0
  152.3906  143.9255  160.3392 C   0  0  0  0  0  0  0  0  0  0  0  0
  153.1077  142.7528  160.6624 C   0  0  0  0  0  0  0  0  0  0  0  0
  152.8196  141.5295  160.0184 C   0  0  0  0  0  0  0  0  0  0  0  0
  151.7906  141.4896  159.0464 C   0  0  0  0  0  0  0  0  0  0  0  0
  151.2903  140.4194  158.2435 N   0  0  0  0  0  0  0  0  0  0  0  0
  151.4670  139.0756  158.3773 C   0  0  0  0  0  0  0  0  0  0  0  0
  152.2480  138.6195  159.2163 O   0  0  0  0  0  0  0  0  0  0  0  0
  150.7228  138.0759  157.4708 C   0  0  0  0  0  0  0  0  0  0  0  0
  149.4773  137.5390  158.0675 N   0  0  0  0  0  0  0  0  0  0  0  0
  148.2592  137.7024  157.3606 C   0  0  0  0  0  0  0  0  0  0  0  0
  148.2233  138.2860  156.2761 O   0  0  0  0  0  0  0  0  0  0  0  0
  147.0788  137.1280  157.9965 C   0  0  0  0  0  0  0  0  0  0  0  0
  145.8820  137.2284  157.3936 F   0  0  0  0  0  0  0  0  0  0  0  0
  147.1693  136.4913  159.1821 C   0  0  0  0  0  0  0  0  0  0  0  0
  148.3631  136.3438  159.8632 N   0  0  0  0  0  0  0  0  0  0  0  0
  148.4231  135.6077  161.1821 C   0  0  2  0  0  0  0  0  0  0  0  0
  147.0272  135.1108  161.5773 C   0  0  0  0  0  0  0  0  0  0  0  0
  146.5743  136.1787  162.5499 C   0  0  0  0  0  0  0  0  0  0  0  0
  147.8900  136.5648  163.2142 C   0  0  0  0  0  0  0  0  0  0  0  0
  148.8597  136.4917  162.1745 O   0  0  0  0  0  0  0  0  0  0  0  0
  149.5549  136.8532  159.3041 C   0  0  0  0  0  0  0  0  0  0  0  0
  150.6363  136.6922  159.8739 O   0  0  0  0  0  0  0  0  0  0  0  0
  150.1305  141.2743  155.1100 H   0  0  0  0  0  0  0  0  0  0  0  0
  150.9554  139.7809  155.5153 H   0  0  0  0  0  0  0  0  0  0  0  0
  151.7937  141.3199  155.6867 H   0  0  0  0  0  0  0  0  0  0  0  0
  149.3691  140.4260  157.3519 H   0  0  0  0  0  0  0  0  0  0  0  0
  150.2589  143.1215  156.8156 H   0  0  0  0  0  0  0  0  0  0  0  0
  149.0923  142.5976  158.0405 H   0  0  0  0  0  0  0  0  0  0  0  0
  150.8335  144.7815  159.0933 H   0  0  0  0  0  0  0  0  0  0  0  0
  152.6236  144.8545  160.8384 H   0  0  0  0  0  0  0  0  0  0  0  0
  153.8889  142.7933  161.4072 H   0  0  0  0  0  0  0  0  0  0  0  0
  153.4138  140.6772  160.2931 H   0  0  0  0  0  0  0  0  0  0  0  0
  150.4927  138.5728  156.5286 H   0  0  0  0  0  0  0  0  0  0  0  0
  151.3949  137.2550  157.2197 H   0  0  0  0  0  0  0  0  0  0  0  0
  146.2649  136.0791  159.6040 H   0  0  0  0  0  0  0  0  0  0  0  0
  149.1569  134.8095  161.0613 H   0  0  0  0  0  0  0  0  0  0  0  0
  146.3696  134.9858  160.7159 H   0  0  0  0  0  0  0  0  0  0  0  0
  147.1309  134.1512  162.0850 H   0  0  0  0  0  0  0  0  0  0  0  0
  146.1581  137.0301  162.0104 H   0  0  0  0  0  0  0  0  0  0  0  0
  145.8261  135.8236  163.2588 H   0  0  0  0  0  0  0  0  0  0  0  0
  147.8601  137.5562  163.6662 H   0  0  0  0  0  0  0  0  0  0  0  0
  148.1503  135.8434  163.9898 H   0  0  0  0  0  0  0  0  0  0  0  0
  1  2  1  0  0  0  0
  1 28  1  0  0  0  0
  1 29  1  0  0  0  0
  1 30  1  0  0  0  0
  2 10  1  0  0  0  0
  2  3  1  0  0  0  0
  2 31  1  0  0  0  0
  3  4  1  0  0  0  0
  3 32  1  0  0  0  0
  3 33  1  0  0  0  0
  4  9  2  0  0  0  0
  4  5  1  0  0  0  0
  5  6  2  0  0  0  0
  5 34  1  0  0  0  0
  6  7  1  0  0  0  0
  6 35  1  0  0  0  0
  7  8  2  0  0  0  0
  7 36  1  0  0  0  0
  8  9  1  0  0  0  0
  8 37  1  0  0  0  0
  9 10  1  0  0  0  0
 10 11  1  0  0  0  0
 11 12  2  0  0  0  0
 11 13  1  0  0  0  0
 13 14  1  0  0  0  0
 13 38  1  0  0  0  0
 13 39  1  0  0  0  0
 14 26  1  0  0  0  0
 14 15  1  0  0  0  0
 15 16  2  0  0  0  0
 15 17  1  0  0  0  0
 17 18  1  0  0  0  0
 17 19  2  0  0  0  0
 19 20  1  0  0  0  0
 19 40  1  0  0  0  0
 20 21  1  0  0  0  0
 20 26  1  0  0  0  0
 21 25  1  0  0  0  0
 21 22  1  0  0  0  0
 21 41  1  0  0  0  0
 22 23  1  0  0  0  0
 22 42  1  0  0  0  0
 22 43  1  0  0  0  0
 23 24  1  0  0  0  0
 23 44  1  0  0  0  0
 23 45  1  0  0  0  0
 24 25  1  0  0  0  0
 24 46  1  0  0  0  0
 24 47  1  0  0  0  0
 26 27  2  0  0  0  0
M  END
> <s_m_source_file>
AV-unprocessed.smi

> <i_m_source_file_index>
25

> <i_lp_mmshare_version>
43012

> <i_f3d_flags>
0

> <s_epik_input>
W2NIXTFbY0hdW2NIXVtjSF1jKGMxMilOKFtDQEhdKFtDSDNdKVtDSDJdMilDKD1PKVtDSDJdbjNjKD1PKWMoRilbY0hdbihjMz1PKVtDQEBIXTRbQ0gyXVtDSDJdW0NIMl1PNA==

> <s_epik_cmdline>
J2VwaWtfcHl0aG9uJywgJy1waCcsICc3LjAnLCAnLXRuJywgJzgnLCAnLW1hJywgJzIwMCcsICctbWV0YWxfYmluZGluZycsICctaW1hZScsICc8aW5maWxlLm1hZT4nLCAnLW9tYWUnLCAnPG91dGZpbGUubWFlPic=

> <r_lp_tautomer_probability>
1

> <r_epik_Ionization_Penalty>
1.67943e-06

> <r_epik_Ionization_Penalty_Charging>
3.79603e-09

> <r_epik_Ionization_Penalty_Neutral>
1.67563e-06

> <r_epik_State_Penalty>
-0

> <r_epik_Charging_Adjusted_Penalty>
3.79603e-09

> <i_epik_Tot_Q>
0

> <i_epik_Tot_abs_Q>
0

> <r_epik_Metal_State_Penalty>
-0

> <b_epik_Metal_Only>
0

> <s_epik_Chemistry_Notes>
This compound contains an acetal/aminal-like group ( X-CH(R)-Y where X, Y are N, S, or O) that may be acid/base labile, releasing an aldehyde.

> <s_lp_Force_Field>
OPLS_2005

> <r_lp_Energy>
56.1974

> <b_lp_Chiralities_Consistent>
1

> <s_lp_Variant>
AV-unprocessed.smi:25-1

> <Gold.Version>
5.8.1

> <Gold.Id.Protein>
6NUR|6NUR_protein|mol2

> <Gold.PLP.Fitness>
50.5607

> <Gold.PLP.PLP>
-45.2794

> <Gold.PLP.part.hbond>
-2.2513

> <Gold.PLP.part.metal>
0.0000

> <Gold.PLP.part.buried>
-4.9324

> <Gold.PLP.part.nonpolar>
-37.1960

> <Gold.PLP.part.repulsive>
0.0088

> <Gold.PLP.ligand.clash>
0.0000

> <Gold.PLP.ligand.torsion>
0.3758

> <Gold.PLP.Chemscore.Hbond>
2.0000

> <Gold.PLP.Chemscore.CHOScore>
0.0000

> <Gold.PLP.Chemscore.Metal>
0.0000

> <Gold.Chemscore.Hbonds>
donor molecule, donor type, donor heavy atom, donor atom, acceptor molecule, acceptor atom, score
      P1  H  6896  6908       L1    27  1.00
      P1  H  6931  6943       L1    25  0.85

> <Gold.PLP.Chemscore.Internal.Correction>
0.0329

> <Gold.Rescore>
     Score         DG    S(hbond)    S(metal)    S(lipo)     H(rot)  DE(clash)    DE(int)     intcor
     18.20     -21.38       1.96        0.00     113.94       1.55       0.40       2.79       ----

> <Gold.Chemscore.Fitness>
18.1962

> <Gold.Chemscore.DG>
-21.3832

> <Gold.Chemscore.ZeroCoef>
-5.4800

> <Gold.Chemscore.Hbond>
1.9573

> <Gold.Chemscore.Metal>
0.0000

> <Gold.Chemscore.Lipo>
113.9392

> <Gold.Chemscore.Internal_Hbond>
0.0000

> <Gold.Chemscore.DEClash>
0.4002

> <Gold.Chemscore.DEInternal>
2.7868

> <Gold.Chemscore.Rot>
1.5489

> <Gold.Chemscore.Internal.Correction>
   9.000000E+99

> <Gold.Chemscore.Hbonds>
donor molecule, donor type, donor heavy atom, donor atom, acceptor molecule, acceptor atom, score
      P1  H  6896  6908       L1    27  0.85
      P1  H  6931  6943       L1    25  0.15

> <Gold.Chemscore.Hbond.Weighted>
-6.5375

> <Gold.Chemscore.Metal.Weighted>
-0.0000

> <Gold.Chemscore.Lipo.Weighted>
-13.3309

> <Gold.Chemscore.Internal_Hbond.Weighted>
0.0000

> <Gold.Chemscore.DEClash.Weighted>
0.4002

> <Gold.Chemscore.DEInternal.Weighted>
2.7868

> <Gold.Chemscore.Rot.Weighted>
3.9651

> <Gold.Chemscore.Internal.Correction.Weighted>
   9.000000E+99

> <Gold.Protein.RotatedTorsions>
[ 6907 6896 6895 6894 ] final -145.47 input  -60.11 | X-H torsion
[ 7974 7965 7964 7962 ] final -139.13 input  175.53 | X-H torsion
[ 8008 7997 7996 7995 ] final  -62.60 input   59.86 | X-H torsion
[ 10167 10162 10161 10158 ] final  123.77 input  -65.29 | X-H torsion
[ 10718 10713 10712 10709 ] final -170.23 input   66.30 | X-H torsion
[ 10763 10752 10751 10750 ] final  -81.96 input  -60.55 | X-H torsion
[ 11005 11000 10999 10996 ] final  -86.46 input  -57.11 | X-H torsion

> <Gold.Protein.ActiveResidues>
 VAL166  LYS551  ARG553  GLY616  TRP617  ASP618  TYR619  PRO620  LYS621  CYS622 
 ASP623  PHE694  ASN695  SER759  ASP760  ASP761  ALA762  ILE779  LEU786  VAL792 
 PHE793  MET794  SER795  GLU796  ALA797  LYS798  CYS799  TRP800  GLU811  SER814 

> <Gold.Protein.RotatedAtoms>
  151.1282  133.5056  159.2599 H   0  0  0  0  0  0  0  0  0  0  0  0  # atno 6907 bound_to 6896
  151.1787  135.0350  159.8793 H   0  0  0  0  0  0  0  0  0  0  0  0  # atno 6908 bound_to 6896
  152.5459  134.1136  159.8422 H   0  0  0  0  0  0  0  0  0  0  0  0  # atno 6909 bound_to 6896
  144.8702  140.6355  143.5272 H   0  0  0  0  0  0  0  0  0  0  0  0  # atno 7974 bound_to 7965
  154.4509  140.0992  156.6613 H   0  0  0  0  0  0  0  0  0  0  0  0  # atno 8008 bound_to 7997
  155.5290  140.3481  155.4404 H   0  0  0  0  0  0  0  0  0  0  0  0  # atno 8009 bound_to 7997
  156.0677  140.1342  156.9855 H   0  0  0  0  0  0  0  0  0  0  0  0  # atno 8010 bound_to 7997
  139.5780  144.6973  151.3602 H   0  0  0  0  0  0  0  0  0  0  0  0  # atno 10167 bound_to 10162
  156.7232  130.9278  151.3099 H   0  0  0  0  0  0  0  0  0  0  0  0  # atno 10718 bound_to 10713
  154.5699  135.5608  153.7085 H   0  0  0  0  0  0  0  0  0  0  0  0  # atno 10763 bound_to 10752
  153.0045  135.6294  154.2128 H   0  0  0  0  0  0  0  0  0  0  0  0  # atno 10764 bound_to 10752
  154.2068  135.2875  155.2952 H   0  0  0  0  0  0  0  0  0  0  0  0  # atno 10765 bound_to 10752
  141.1629  133.7456  156.9165 H   0  0  0  0  0  0  0  0  0  0  0  0  # atno 11005 bound_to 11000
  145.4145  139.1574  143.4107 LP  0  0  0  0  0  0  0  0  0  0  0  0  # atno 17320 bound_to 7965
  146.2925  140.4251  142.8734 LP  0  0  0  0  0  0  0  0  0  0  0  0  # atno 17321 bound_to 7965
  140.7061  143.7510  150.7484 LP  0  0  0  0  0  0  0  0  0  0  0  0  # atno 17342 bound_to 10162
  140.1035  143.4766  152.2411 LP  0  0  0  0  0  0  0  0  0  0  0  0  # atno 17343 bound_to 10162
  157.6889  130.9214  150.0461 LP  0  0  0  0  0  0  0  0  0  0  0  0  # atno 17370 bound_to 10713
  156.1580  130.3643  149.9341 LP  0  0  0  0  0  0  0  0  0  0  0  0  # atno 17371 bound_to 10713
  140.1481  134.9249  157.2556 LP  0  0  0  0  0  0  0  0  0  0  0  0  # atno 17394 bound_to 11000
  140.2756  134.3409  155.7359 LP  0  0  0  0  0  0  0  0  0  0  0  0  # atno 17395 bound_to 11000

$$$$
