AV-unprocessed.smi:671|AV-procd|sdf|3276|dock4
  -GOLD-   22720 0233D 1   1.00000     0.00000
 Structure written by MMmdl.
 49 50  0  0  0  0  0  0  0  0  1 V2000
  152.9066  138.5061  154.5523 C   0  0  0  0  0  0  0  0  0  0  0  0
  152.0205  139.4409  155.3248 C   0  0  0  0  0  0  0  0  0  0  0  0
  152.4951  140.0462  156.4012 N   0  0  0  0  0  0  0  0  0  0  0  0
  151.4724  140.8001  156.8522 N   0  0  0  0  0  0  0  0  0  0  0  0
  151.6553  141.6117  158.0398 C   0  0  0  0  0  0  0  0  0  0  0  0
  150.3488  140.6689  156.0598 C   0  0  0  0  0  0  0  0  0  0  0  0
  149.0771  141.3999  156.3446 C   0  0  0  0  0  0  0  0  0  0  0  0
  150.6673  139.7982  155.0530 C   0  0  0  0  0  0  0  0  0  0  0  0
  149.7973  139.3233  153.9180 C   0  0  0  0  0  0  0  0  0  0  0  0
  148.3776  138.9355  154.3862 C   0  0  1  0  0  0  0  0  0  0  0  0
  147.3634  140.0743  154.1939 C   0  0  0  0  0  0  0  0  0  0  0  0
  147.9074  137.7562  153.6561 N   0  0  0  0  0  0  0  0  0  0  0  0
  146.7039  137.1575  153.7218 C   0  0  0  0  0  0  0  0  0  0  0  0
  145.8142  137.5731  154.4617 O   0  0  0  0  0  0  0  0  0  0  0  0
  146.5657  136.0830  152.9253 N   0  0  0  0  0  0  0  0  0  0  0  0
  145.3570  135.2694  152.7878 C   0  0  1  0  0  0  0  0  0  0  0  0
  144.3223  136.0259  151.9438 C   0  0  0  0  0  0  0  0  0  0  0  0
  144.5023  135.4921  150.5260 C   0  0  0  0  0  0  0  0  0  0  0  0
  144.8330  134.0146  150.7191 C   0  0  0  0  0  0  0  0  0  0  0  0
  145.5863  133.9154  152.0584 C   0  0  1  0  0  0  0  0  0  0  0  0
  147.0523  133.4772  151.8756 C   0  0  0  0  0  0  0  0  0  0  0  0
  152.4613  137.5133  154.4865 H   0  0  0  0  0  0  0  0  0  0  0  0
  153.8869  138.3979  155.0182 H   0  0  0  0  0  0  0  0  0  0  0  0
  153.0615  138.8684  153.5359 H   0  0  0  0  0  0  0  0  0  0  0  0
  150.9471  141.3016  158.8084 H   0  0  0  0  0  0  0  0  0  0  0  0
  151.4818  142.6602  157.7968 H   0  0  0  0  0  0  0  0  0  0  0  0
  152.6684  141.5026  158.4298 H   0  0  0  0  0  0  0  0  0  0  0  0
  148.2619  141.0155  155.7329 H   0  0  0  0  0  0  0  0  0  0  0  0
  149.1855  142.4632  156.1305 H   0  0  0  0  0  0  0  0  0  0  0  0
  148.7866  141.2905  157.3896 H   0  0  0  0  0  0  0  0  0  0  0  0
  149.7229  140.0858  153.1418 H   0  0  0  0  0  0  0  0  0  0  0  0
  150.2683  138.4691  153.4308 H   0  0  0  0  0  0  0  0  0  0  0  0
  148.4022  138.7049  155.4526 H   0  0  0  0  0  0  0  0  0  0  0  0
  147.6359  140.9543  154.7770 H   0  0  0  0  0  0  0  0  0  0  0  0
  146.3669  139.7700  154.5159 H   0  0  0  0  0  0  0  0  0  0  0  0
  147.2977  140.3759  153.1481 H   0  0  0  0  0  0  0  0  0  0  0  0
  148.5790  137.3371  153.0290 H   0  0  0  0  0  0  0  0  0  0  0  0
  147.3573  135.8140  152.3596 H   0  0  0  0  0  0  0  0  0  0  0  0
  144.9343  135.0907  153.7781 H   0  0  0  0  0  0  0  0  0  0  0  0
  143.3194  135.7778  152.2941 H   0  0  0  0  0  0  0  0  0  0  0  0
  144.4248  137.1107  152.0006 H   0  0  0  0  0  0  0  0  0  0  0  0
  143.6213  135.6477  149.9028 H   0  0  0  0  0  0  0  0  0  0  0  0
  145.3426  135.9930  150.0452 H   0  0  0  0  0  0  0  0  0  0  0  0
  143.9055  133.4440  150.7829 H   0  0  0  0  0  0  0  0  0  0  0  0
  145.3986  133.6123  149.8777 H   0  0  0  0  0  0  0  0  0  0  0  0
  145.0987  133.1371  152.6472 H   0  0  0  0  0  0  0  0  0  0  0  0
  147.6117  134.1852  151.2632 H   0  0  0  0  0  0  0  0  0  0  0  0
  147.1074  132.5051  151.3853 H   0  0  0  0  0  0  0  0  0  0  0  0
  147.5592  133.3838  152.8362 H   0  0  0  0  0  0  0  0  0  0  0  0
  1  2  1  0  0  0  0
  1 22  1  0  0  0  0
  1 23  1  0  0  0  0
  1 24  1  0  0  0  0
  2  8  1  0  0  0  0
  2  3  2  0  0  0  0
  3  4  1  0  0  0  0
  4  5  1  0  0  0  0
  4  6  1  0  0  0  0
  5 25  1  0  0  0  0
  5 26  1  0  0  0  0
  5 27  1  0  0  0  0
  6  7  1  0  0  0  0
  6  8  2  0  0  0  0
  7 28  1  0  0  0  0
  7 29  1  0  0  0  0
  7 30  1  0  0  0  0
  8  9  1  0  0  0  0
  9 10  1  0  0  0  0
  9 31  1  0  0  0  0
  9 32  1  0  0  0  0
 10 11  1  0  0  0  0
 10 12  1  0  0  0  0
 10 33  1  0  0  0  0
 11 34  1  0  0  0  0
 11 35  1  0  0  0  0
 11 36  1  0  0  0  0
 12 13  1  0  0  0  0
 12 37  1  0  0  0  0
 13 14  2  0  0  0  0
 13 15  1  0  0  0  0
 15 16  1  0  0  0  0
 15 38  1  0  0  0  0
 16 20  1  0  0  0  0
 16 17  1  0  0  0  0
 16 39  1  0  0  0  0
 17 18  1  0  0  0  0
 17 40  1  0  0  0  0
 17 41  1  0  0  0  0
 18 19  1  0  0  0  0
 18 42  1  0  0  0  0
 18 43  1  0  0  0  0
 19 20  1  0  0  0  0
 19 44  1  0  0  0  0
 19 45  1  0  0  0  0
 20 21  1  0  0  0  0
 20 46  1  0  0  0  0
 21 47  1  0  0  0  0
 21 48  1  0  0  0  0
 21 49  1  0  0  0  0
M  END
> <s_m_source_file>
AV-unprocessed.smi

> <i_m_source_file_index>
671

> <i_lp_mmshare_version>
43012

> <i_f3d_flags>
0

> <s_epik_input>
W0NIM11jMW5uKFtDSDNdKWMoW0NIM10pYzFbQ0gyXVtDQEhdKFtDSDNdKVtOSF1DKD1PKVtOSF1bQ0BASF0yW0NIMl1bQ0gyXVtDSDJdW0NASF0yW0NIM10=

> <s_epik_cmdline>
J2VwaWtfcHl0aG9uJywgJy1waCcsICc3LjAnLCAnLXRuJywgJzgnLCAnLW1hJywgJzIwMCcsICctbWV0YWxfYmluZGluZycsICctaW1hZScsICc8aW5maWxlLm1hZT4nLCAnLW9tYWUnLCAnPG91dGZpbGUubWFlPic=

> <r_lp_tautomer_probability>
1

> <r_epik_Ionization_Penalty>
0.0126855

> <r_epik_Ionization_Penalty_Charging>
0

> <r_epik_Ionization_Penalty_Neutral>
0.0126855

> <r_epik_State_Penalty>
0.00977547

> <r_epik_Charging_Adjusted_Penalty>
0.00977547

> <i_epik_Tot_Q>
0

> <i_epik_Tot_abs_Q>
0

> <r_epik_Metal_State_Penalty>
0.00957132

> <b_epik_Metal_Only>
0

> <s_lp_Force_Field>
OPLS_2005

> <r_lp_Energy>
24.0852

> <b_lp_Chiralities_Consistent>
1

> <s_lp_Variant>
AV-unprocessed.smi:671-4

> <Gold.Version>
5.8.1

> <Gold.Id.Protein>
6NUR|6NUR_protein|mol2

> <Gold.PLP.Fitness>
41.7861

> <Gold.PLP.PLP>
-34.9368

> <Gold.PLP.part.hbond>
-3.0000

> <Gold.PLP.part.metal>
0.0000

> <Gold.PLP.part.buried>
-0.5765

> <Gold.PLP.part.nonpolar>
-31.8386

> <Gold.PLP.part.repulsive>
0.1048

> <Gold.PLP.ligand.clash>
0.0000

> <Gold.PLP.ligand.torsion>
0.9161

> <Gold.PLP.Chemscore.Hbond>
2.8880

> <Gold.PLP.Chemscore.CHOScore>
0.0000

> <Gold.PLP.Chemscore.Metal>
0.0000

> <Gold.Chemscore.Hbonds>
donor molecule, donor type, donor heavy atom, donor atom, acceptor molecule, acceptor atom, score
      L1  H    12    37       P1  7948  1.00
      L1  H    15    38       P1  7948  0.94
      P1  H  7997  8009       L1     3  1.00

> <Gold.PLP.Chemscore.Internal.Correction>
0.0176

> <Gold.Rescore>
     Score         DG    S(hbond)    S(metal)    S(lipo)     H(rot)  DE(clash)    DE(int)     intcor
     20.19     -21.14       2.89        0.00      83.00       1.45       0.15       0.79       ----

> <Gold.Chemscore.Fitness>
20.1948

> <Gold.Chemscore.DG>
-21.1391

> <Gold.Chemscore.ZeroCoef>
-5.4800

> <Gold.Chemscore.Hbond>
2.8921

> <Gold.Chemscore.Metal>
0.0000

> <Gold.Chemscore.Lipo>
83.0021

> <Gold.Chemscore.Internal_Hbond>
0.0000

> <Gold.Chemscore.DEClash>
0.1513

> <Gold.Chemscore.DEInternal>
0.7930

> <Gold.Chemscore.Rot>
1.4499

> <Gold.Chemscore.Internal.Correction>
   9.000000E+99

> <Gold.Chemscore.Hbonds>
donor molecule, donor type, donor heavy atom, donor atom, acceptor molecule, acceptor atom, score
      L1  H    12    37       P1  7948  0.95
      L1  H    15    38       P1  7948  0.91
      P1  H  7997  8009       L1     3  0.69

> <Gold.Chemscore.Hbond.Weighted>
-9.6597

> <Gold.Chemscore.Metal.Weighted>
-0.0000

> <Gold.Chemscore.Lipo.Weighted>
-9.7112

> <Gold.Chemscore.Internal_Hbond.Weighted>
0.0000

> <Gold.Chemscore.DEClash.Weighted>
0.1513

> <Gold.Chemscore.DEInternal.Weighted>
0.7930

> <Gold.Chemscore.Rot.Weighted>
3.7118

> <Gold.Chemscore.Internal.Correction.Weighted>
   9.000000E+99

> <Gold.Protein.RotatedTorsions>
[ 6907 6896 6895 6894 ] final  -87.14 input  -60.11 | X-H torsion
[ 7974 7965 7964 7962 ] final   30.39 input  175.53 | X-H torsion
[ 8008 7997 7996 7995 ] final -158.33 input   59.86 | X-H torsion
[ 10167 10162 10161 10158 ] final -157.02 input  -65.29 | X-H torsion
[ 10718 10713 10712 10709 ] final  -70.53 input   66.30 | X-H torsion
[ 10763 10752 10751 10750 ] final  -84.48 input  -60.55 | X-H torsion
[ 11005 11000 10999 10996 ] final -139.91 input  -57.11 | X-H torsion

> <Gold.Protein.ActiveResidues>
 VAL166  LYS551  ARG553  GLY616  TRP617  ASP618  TYR619  PRO620  LYS621  CYS622 
 ASP623  PHE694  ASN695  SER759  ASP760  ASP761  ALA762  ILE779  LEU786  VAL792 
 PHE793  MET794  SER795  GLU796  ALA797  LYS798  CYS799  TRP800  GLU811  SER814 

> <Gold.Protein.RotatedAtoms>
  150.6866  134.2942  159.4679 H   0  0  0  0  0  0  0  0  0  0  0  0  # atno 6907 bound_to 6896
  152.0844  134.9447  160.0582 H   0  0  0  0  0  0  0  0  0  0  0  0  # atno 6908 bound_to 6896
  152.0787  133.4107  159.4528 H   0  0  0  0  0  0  0  0  0  0  0  0  # atno 6909 bound_to 6896
  146.1615  139.6795  142.9030 H   0  0  0  0  0  0  0  0  0  0  0  0  # atno 7974 bound_to 7965
  155.7459  140.0820  157.2224 H   0  0  0  0  0  0  0  0  0  0  0  0  # atno 8008 bound_to 7997
  154.4017  140.1569  156.2724 H   0  0  0  0  0  0  0  0  0  0  0  0  # atno 8009 bound_to 7997
  155.8977  140.3411  155.6005 H   0  0  0  0  0  0  0  0  0  0  0  0  # atno 8010 bound_to 7997
  139.6804  143.9591  152.2333 H   0  0  0  0  0  0  0  0  0  0  0  0  # atno 10167 bound_to 10162
  156.0403  130.4333  150.2310 H   0  0  0  0  0  0  0  0  0  0  0  0  # atno 10718 bound_to 10713
  154.6000  135.5519  153.7364 H   0  0  0  0  0  0  0  0  0  0  0  0  # atno 10763 bound_to 10752
  153.0151  135.6364  154.1728 H   0  0  0  0  0  0  0  0  0  0  0  0  # atno 10764 bound_to 10752
  154.1668  135.2894  155.3073 H   0  0  0  0  0  0  0  0  0  0  0  0  # atno 10765 bound_to 10752
  140.8474  134.2328  157.4779 H   0  0  0  0  0  0  0  0  0  0  0  0  # atno 11005 bound_to 11000
  145.4577  141.0431  143.2769 LP  0  0  0  0  0  0  0  0  0  0  0  0  # atno 17320 bound_to 7965
  144.8033  139.6099  143.7062 LP  0  0  0  0  0  0  0  0  0  0  0  0  # atno 17321 bound_to 7965
  139.9380  144.6700  150.8295 LP  0  0  0  0  0  0  0  0  0  0  0  0  # atno 17342 bound_to 10162
  140.7650  143.3264  151.2507 LP  0  0  0  0  0  0  0  0  0  0  0  0  # atno 17343 bound_to 10162
  157.0405  131.0034  151.3285 LP  0  0  0  0  0  0  0  0  0  0  0  0  # atno 17370 bound_to 10713
  157.5212  130.7999  149.7812 LP  0  0  0  0  0  0  0  0  0  0  0  0  # atno 17371 bound_to 10713
  139.8703  134.9666  156.4568 LP  0  0  0  0  0  0  0  0  0  0  0  0  # atno 17394 bound_to 11000
  140.8828  133.7905  155.9486 LP  0  0  0  0  0  0  0  0  0  0  0  0  # atno 17395 bound_to 11000

$$$$
