AV-unprocessed.smi:1635|AV-procd|sdf|6540|dock4
  -GOLD-   22720 7223D 1   1.00000     0.00000
 Structure written by MMmdl.
 37 38  0  0  0  0  0  0  0  0  1 V2000
  151.6941  144.4693  158.2906 C   0  0  0  0  0  0  0  0  0  0  0  0
  152.2948  143.1629  158.7837 C   0  0  0  0  0  0  0  0  0  0  0  0
  153.2723  143.1933  159.8010 C   0  0  0  0  0  0  0  0  0  0  0  0
  153.8244  141.9844  160.2576 C   0  0  0  0  0  0  0  0  0  0  0  0
  153.3729  140.7887  159.6729 C   0  0  0  0  0  0  0  0  0  0  0  0
  152.4404  140.7506  158.6993 N   0  0  0  0  0  0  0  0  0  0  0  0
  151.8973  141.9088  158.2471 C   0  0  0  0  0  0  0  0  0  0  0  0
  150.9101  141.9464  157.2220 N   0  0  0  0  0  0  0  0  0  0  0  0
  150.2635  140.9197  156.6422 C   0  0  0  0  0  0  0  0  0  0  0  0
  150.4285  139.7290  156.9097 O   0  0  0  0  0  0  0  0  0  0  0  0
  149.4000  141.3571  155.7139 N   0  0  0  0  0  0  0  0  0  0  0  0
  148.5193  140.5183  154.9006 C   0  0  2  0  0  0  0  0  0  0  0  0
  147.5250  139.7373  155.7993 C   0  0  0  0  0  0  0  0  0  0  0  0
  146.9875  138.4088  155.2270 C   0  0  0  0  0  0  0  0  0  0  0  0
  146.3319  138.4999  153.8341 C   0  0  0  0  0  0  0  0  0  0  0  0
  147.1769  139.1461  152.7109 C   0  0  0  0  0  0  0  0  0  0  0  0
  148.6214  139.0487  152.9148 N   0  0  0  0  0  0  0  0  0  0  0  0
  149.3113  139.6667  153.8890 C   0  0  0  0  0  0  0  0  0  0  0  0
  150.5317  139.5446  153.9869 O   0  0  0  0  0  0  0  0  0  0  0  0
  152.1104  145.3244  158.8238 H   0  0  0  0  0  0  0  0  0  0  0  0
  150.6144  144.4737  158.4420 H   0  0  0  0  0  0  0  0  0  0  0  0
  151.8963  144.6056  157.2280 H   0  0  0  0  0  0  0  0  0  0  0  0
  153.5967  144.1305  160.2286 H   0  0  0  0  0  0  0  0  0  0  0  0
  154.5736  141.9737  161.0354 H   0  0  0  0  0  0  0  0  0  0  0  0
  153.7705  139.8375  159.9945 H   0  0  0  0  0  0  0  0  0  0  0  0
  150.6681  142.8687  156.8916 H   0  0  0  0  0  0  0  0  0  0  0  0
  149.3268  142.3531  155.5656 H   0  0  0  0  0  0  0  0  0  0  0  0
  147.9331  141.2056  154.2892 H   0  0  0  0  0  0  0  0  0  0  0  0
  148.0038  139.5095  156.7529 H   0  0  0  0  0  0  0  0  0  0  0  0
  146.6849  140.3888  156.0432 H   0  0  0  0  0  0  0  0  0  0  0  0
  147.7945  137.6753  155.1971 H   0  0  0  0  0  0  0  0  0  0  0  0
  146.2601  137.9970  155.9273 H   0  0  0  0  0  0  0  0  0  0  0  0
  146.0721  137.4859  153.5281 H   0  0  0  0  0  0  0  0  0  0  0  0
  145.3831  139.0318  153.9115 H   0  0  0  0  0  0  0  0  0  0  0  0
  146.9316  138.6783  151.7572 H   0  0  0  0  0  0  0  0  0  0  0  0
  146.9023  140.1951  152.5936 H   0  0  0  0  0  0  0  0  0  0  0  0
  149.1381  138.4820  152.2582 H   0  0  0  0  0  0  0  0  0  0  0  0
  1  2  1  0  0  0  0
  1 20  1  0  0  0  0
  1 21  1  0  0  0  0
  1 22  1  0  0  0  0
  2  7  1  0  0  0  0
  2  3  2  0  0  0  0
  3  4  1  0  0  0  0
  3 23  1  0  0  0  0
  4  5  2  0  0  0  0
  4 24  1  0  0  0  0
  5  6  1  0  0  0  0
  5 25  1  0  0  0  0
  6  7  2  0  0  0  0
  7  8  1  0  0  0  0
  8  9  1  0  0  0  0
  8 26  1  0  0  0  0
  9 10  2  0  0  0  0
  9 11  1  0  0  0  0
 11 12  1  0  0  0  0
 11 27  1  0  0  0  0
 12 18  1  0  0  0  0
 12 13  1  0  0  0  0
 12 28  1  0  0  0  0
 13 14  1  0  0  0  0
 13 29  1  0  0  0  0
 13 30  1  0  0  0  0
 14 15  1  0  0  0  0
 14 31  1  0  0  0  0
 14 32  1  0  0  0  0
 15 16  1  0  0  0  0
 15 33  1  0  0  0  0
 15 34  1  0  0  0  0
 16 17  1  0  0  0  0
 16 35  1  0  0  0  0
 16 36  1  0  0  0  0
 17 18  1  0  0  0  0
 17 37  1  0  0  0  0
 18 19  2  0  0  0  0
M  END
> <s_m_source_file>
AV-unprocessed.smi

> <i_m_source_file_index>
1635

> <i_lp_mmshare_version>
43012

> <i_f3d_flags>
0

> <s_epik_input>
W0NIM11jMVtjSF1bY0hdW2NIXW5jMVtOSF1DKD1PKVtOSF1bQ0BASF0yW0NIMl1bQ0gyXVtDSDJdW0NIMl1bTkhdQzI9Tw==

> <s_epik_cmdline>
J2VwaWtfcHl0aG9uJywgJy1waCcsICc3LjAnLCAnLXRuJywgJzgnLCAnLW1hJywgJzIwMCcsICctbWV0YWxfYmluZGluZycsICctaW1hZScsICc8aW5maWxlLm1hZT4nLCAnLW9tYWUnLCAnPG91dGZpbGUubWFlPic=

> <r_lp_tautomer_probability>
1

> <r_epik_Ionization_Penalty>
5.14862e-05

> <r_epik_Ionization_Penalty_Charging>
0

> <r_epik_Ionization_Penalty_Neutral>
5.14862e-05

> <r_epik_State_Penalty>
-0

> <r_epik_Charging_Adjusted_Penalty>
0

> <i_epik_Tot_Q>
0

> <i_epik_Tot_abs_Q>
0

> <r_epik_Metal_State_Penalty>
-0

> <b_epik_Metal_Only>
0

> <s_lp_Force_Field>
OPLS_2005

> <r_lp_Energy>
17.2511

> <b_lp_Chiralities_Consistent>
1

> <s_lp_Variant>
AV-unprocessed.smi:1635-1

> <Gold.Version>
5.8.1

> <Gold.Id.Protein>
6NUR|6NUR_protein|mol2

> <Gold.PLP.Fitness>
37.9514

> <Gold.PLP.PLP>
-32.4952

> <Gold.PLP.part.hbond>
-2.7150

> <Gold.PLP.part.metal>
0.0000

> <Gold.PLP.part.buried>
-2.5631

> <Gold.PLP.part.nonpolar>
-27.1633

> <Gold.PLP.part.repulsive>
0.4279

> <Gold.PLP.ligand.clash>
0.0000

> <Gold.PLP.ligand.torsion>
0.0494

> <Gold.PLP.Chemscore.Hbond>
1.8337

> <Gold.PLP.Chemscore.CHOScore>
0.0000

> <Gold.PLP.Chemscore.Metal>
0.0000

> <Gold.Chemscore.Hbonds>
donor molecule, donor type, donor heavy atom, donor atom, acceptor molecule, acceptor atom, score
      L1  H    11    27       P1  8028  0.06
      L1  H    17    37       P1  7948  0.29
      P1  H  7989  7998       L1    19  1.00

> <Gold.PLP.Chemscore.Internal.Correction>
0.0541

> <Gold.Rescore>
     Score         DG    S(hbond)    S(metal)    S(lipo)     H(rot)  DE(clash)    DE(int)     intcor
     15.94     -19.82       2.45        0.00      74.54       1.00       0.16       3.72       ----

> <Gold.Chemscore.Fitness>
15.9448

> <Gold.Chemscore.DG>
-19.8188

> <Gold.Chemscore.ZeroCoef>
-5.4800

> <Gold.Chemscore.Hbond>
2.4484

> <Gold.Chemscore.Metal>
0.0000

> <Gold.Chemscore.Lipo>
74.5396

> <Gold.Chemscore.Internal_Hbond>
0.0000

> <Gold.Chemscore.DEClash>
0.1568

> <Gold.Chemscore.DEInternal>
3.7171

> <Gold.Chemscore.Rot>
1.0000

> <Gold.Chemscore.Internal.Correction>
   9.000000E+99

> <Gold.Chemscore.Hbonds>
donor molecule, donor type, donor heavy atom, donor atom, acceptor molecule, acceptor atom, score
      L1  H    11    27       P1  8028  0.10
      L1  H    17    37       P1  7948  0.24
      P1  H  7989  7998       L1    19  0.97

> <Gold.Chemscore.Hbond.Weighted>
-8.1777

> <Gold.Chemscore.Metal.Weighted>
-0.0000

> <Gold.Chemscore.Lipo.Weighted>
-8.7211

> <Gold.Chemscore.Internal_Hbond.Weighted>
0.0000

> <Gold.Chemscore.DEClash.Weighted>
0.1568

> <Gold.Chemscore.DEInternal.Weighted>
3.7171

> <Gold.Chemscore.Rot.Weighted>
2.5600

> <Gold.Chemscore.Internal.Correction.Weighted>
   9.000000E+99

> <Gold.Protein.RotatedTorsions>
[ 6907 6896 6895 6894 ] final  116.76 input  -60.11 | X-H torsion
[ 7974 7965 7964 7962 ] final   56.70 input  175.53 | X-H torsion
[ 8008 7997 7996 7995 ] final -123.65 input   59.86 | X-H torsion
[ 10167 10162 10161 10158 ] final -157.12 input  -65.29 | X-H torsion
[ 10718 10713 10712 10709 ] final -176.23 input   66.30 | X-H torsion
[ 10763 10752 10751 10750 ] final   66.38 input  -60.55 | X-H torsion
[ 11005 11000 10999 10996 ] final  176.95 input  -57.11 | X-H torsion

> <Gold.Protein.ActiveResidues>
 VAL166  LYS551  ARG553  GLY616  TRP617  ASP618  TYR619  PRO620  LYS621  CYS622 
 ASP623  PHE694  ASN695  SER759  ASP760  ASP761  ALA762  ILE779  LEU786  VAL792 
 PHE793  MET794  SER795  GLU796  ALA797  LYS798  CYS799  TRP800  GLU811  SER814 

> <Gold.Protein.RotatedAtoms>
  152.4657  133.7917  159.6905 H   0  0  0  0  0  0  0  0  0  0  0  0  # atno 6907 bound_to 6896
  150.8620  133.7620  159.2995 H   0  0  0  0  0  0  0  0  0  0  0  0  # atno 6908 bound_to 6896
  151.5182  135.1070  159.9923 H   0  0  0  0  0  0  0  0  0  0  0  0  # atno 6909 bound_to 6896
  145.9370  139.3856  143.0386 H   0  0  0  0  0  0  0  0  0  0  0  0  # atno 7974 bound_to 7965
  155.1840  140.0411  157.2887 H   0  0  0  0  0  0  0  0  0  0  0  0  # atno 8008 bound_to 7997
  154.6184  140.2494  155.7552 H   0  0  0  0  0  0  0  0  0  0  0  0  # atno 8009 bound_to 7997
  156.2419  140.2900  156.0480 H   0  0  0  0  0  0  0  0  0  0  0  0  # atno 8010 bound_to 7997
  139.6796  143.9604  152.2329 H   0  0  0  0  0  0  0  0  0  0  0  0  # atno 10167 bound_to 10162
  156.8116  130.9588  151.3115 H   0  0  0  0  0  0  0  0  0  0  0  0  # atno 10718 bound_to 10713
  153.0137  135.5322  154.6814 H   0  0  0  0  0  0  0  0  0  0  0  0  # atno 10763 bound_to 10752
  154.5973  135.2864  155.0575 H   0  0  0  0  0  0  0  0  0  0  0  0  # atno 10764 bound_to 10752
  154.1645  135.6542  153.5046 H   0  0  0  0  0  0  0  0  0  0  0  0  # atno 10765 bound_to 10752
  140.3788  134.6965  157.4438 H   0  0  0  0  0  0  0  0  0  0  0  0  # atno 11005 bound_to 11000
  145.8350  140.9611  143.0829 LP  0  0  0  0  0  0  0  0  0  0  0  0  # atno 17320 bound_to 7965
  144.6773  140.0211  143.7483 LP  0  0  0  0  0  0  0  0  0  0  0  0  # atno 17321 bound_to 7965
  139.9390  144.6693  150.8285 LP  0  0  0  0  0  0  0  0  0  0  0  0  # atno 17342 bound_to 10162
  140.7647  143.3257  151.2522 LP  0  0  0  0  0  0  0  0  0  0  0  0  # atno 17343 bound_to 10162
  157.6503  130.8879  149.9619 LP  0  0  0  0  0  0  0  0  0  0  0  0  # atno 17370 bound_to 10713
  156.1041  130.3654  150.0165 LP  0  0  0  0  0  0  0  0  0  0  0  0  # atno 17371 bound_to 10713
  140.0495  134.6152  155.8880 LP  0  0  0  0  0  0  0  0  0  0  0  0  # atno 17394 bound_to 11000
  141.1930  133.6577  156.5529 LP  0  0  0  0  0  0  0  0  0  0  0  0  # atno 17395 bound_to 11000

$$$$
