AV-unprocessed.smi:3303|AV-procd|sdf|12692|dock3
  -GOLD-   2272019 23D 1   1.00000     0.00000
 Structure written by MMmdl.
 44 45  0  0  0  0  0  0  0  0  2 V2000
  150.9024  139.2909  155.3226 C   0  0  0  0  0  0  0  0  0  0  0  0
  149.8665  140.0188  154.4482 C   0  0  1  0  0  0  0  0  0  0  0  0
  148.8077  139.0159  153.9434 C   0  0  0  0  0  0  0  0  0  0  0  0
  147.7687  139.6810  153.1179 N   0  3  1  0  0  0  0  0  0  0  0  0
  146.8660  138.7197  152.4449 C   0  0  0  0  0  0  0  0  0  0  0  0
  147.0640  140.7829  153.8316 C   0  0  1  0  0  0  0  0  0  0  0  0
  146.1372  140.2971  154.9671 C   0  0  0  0  0  0  0  0  0  0  0  0
  148.0890  141.8233  154.3192 C   0  0  0  0  0  0  0  0  0  0  0  0
  149.1931  141.1962  155.1922 C   0  0  2  0  0  0  0  0  0  0  0  0
  150.1761  142.2390  155.4641 N   0  0  0  0  0  0  0  0  0  0  0  0
  150.4889  142.3104  156.8830 C   0  0  0  0  0  0  0  0  0  0  0  0
  151.3655  143.5393  157.1591 C   0  0  0  0  0  0  0  0  0  0  0  0
  151.6708  143.7013  158.6358 C   0  0  0  0  0  0  0  0  0  0  0  0
  151.3387  144.8931  159.3150 C   0  0  0  0  0  0  0  0  0  0  0  0
  151.6481  144.9922  160.6854 C   0  0  0  0  0  0  0  0  0  0  0  0
  152.2760  143.9028  161.3195 C   0  0  0  0  0  0  0  0  0  0  0  0
  152.5674  142.7575  160.5520 C   0  0  0  0  0  0  0  0  0  0  0  0
  152.2742  142.6516  159.2379 N   0  0  0  0  0  0  0  0  0  0  0  0
  150.4468  138.8977  156.2320 H   0  0  0  0  0  0  0  0  0  0  0  0
  151.7154  139.9546  155.6179 H   0  0  0  0  0  0  0  0  0  0  0  0
  151.3496  138.4538  154.7861 H   0  0  0  0  0  0  0  0  0  0  0  0
  150.3866  140.4155  153.5743 H   0  0  0  0  0  0  0  0  0  0  0  0
  149.2994  138.2506  153.3408 H   0  0  0  0  0  0  0  0  0  0  0  0
  148.3414  138.4944  154.7801 H   0  0  0  0  0  0  0  0  0  0  0  0
  146.3377  138.0938  153.1647 H   0  0  0  0  0  0  0  0  0  0  0  0
  147.4361  138.0633  151.7868 H   0  0  0  0  0  0  0  0  0  0  0  0
  146.1291  139.2412  151.8332 H   0  0  0  0  0  0  0  0  0  0  0  0
  146.4306  141.2826  153.0971 H   0  0  0  0  0  0  0  0  0  0  0  0
  145.6439  141.1428  155.4464 H   0  0  0  0  0  0  0  0  0  0  0  0
  146.6776  139.7578  155.7446 H   0  0  0  0  0  0  0  0  0  0  0  0
  145.3487  139.6436  154.5953 H   0  0  0  0  0  0  0  0  0  0  0  0
  148.5417  142.2994  153.4475 H   0  0  0  0  0  0  0  0  0  0  0  0
  147.5815  142.6188  154.8669 H   0  0  0  0  0  0  0  0  0  0  0  0
  148.7480  140.8295  156.1190 H   0  0  0  0  0  0  0  0  0  0  0  0
  149.8201  143.1332  155.1572 H   0  0  0  0  0  0  0  0  0  0  0  0
  149.5635  142.3748  157.4574 H   0  0  0  0  0  0  0  0  0  0  0  0
  151.0075  141.4025  157.1935 H   0  0  0  0  0  0  0  0  0  0  0  0
  152.3027  143.4633  156.6054 H   0  0  0  0  0  0  0  0  0  0  0  0
  150.8695  144.4434  156.8025 H   0  0  0  0  0  0  0  0  0  0  0  0
  150.8588  145.7126  158.8007 H   0  0  0  0  0  0  0  0  0  0  0  0
  151.4090  145.8878  161.2398 H   0  0  0  0  0  0  0  0  0  0  0  0
  152.5288  143.9439  162.3687 H   0  0  0  0  0  0  0  0  0  0  0  0
  153.0488  141.9037  161.0053 H   0  0  0  0  0  0  0  0  0  0  0  0
  148.2745  140.1350  152.3704 H   0  0  0  0  0  0  0  0  0  0  0  0
  1  2  1  0  0  0  0
  1 19  1  0  0  0  0
  1 20  1  0  0  0  0
  1 21  1  0  0  0  0
  2  9  1  0  0  0  0
  2  3  1  0  0  0  0
  2 22  1  0  0  0  0
  3  4  1  0  0  0  0
  3 23  1  0  0  0  0
  3 24  1  0  0  0  0
  4  5  1  0  0  0  0
  4  6  1  0  0  0  0
  4 44  1  0  0  0  0
  5 25  1  0  0  0  0
  5 26  1  0  0  0  0
  5 27  1  0  0  0  0
  6  7  1  0  0  0  0
  6  8  1  0  0  0  0
  6 28  1  0  0  0  0
  7 29  1  0  0  0  0
  7 30  1  0  0  0  0
  7 31  1  0  0  0  0
  8  9  1  0  0  0  0
  8 32  1  0  0  0  0
  8 33  1  0  0  0  0
  9 10  1  0  0  0  0
  9 34  1  0  0  0  0
 10 11  1  0  0  0  0
 10 35  1  0  0  0  0
 11 12  1  0  0  0  0
 11 36  1  0  0  0  0
 11 37  1  0  0  0  0
 12 13  1  0  0  0  0
 12 38  1  0  0  0  0
 12 39  1  0  0  0  0
 13 18  1  0  0  0  0
 13 14  2  0  0  0  0
 14 15  1  0  0  0  0
 14 40  1  0  0  0  0
 15 16  2  0  0  0  0
 15 41  1  0  0  0  0
 16 17  1  0  0  0  0
 16 42  1  0  0  0  0
 17 18  2  0  0  0  0
 17 43  1  0  0  0  0
M  CHG  1   4   1
M  END
> <s_m_source_file>
AV-unprocessed.smi

> <i_m_source_file_index>
3303

> <i_lp_mmshare_version>
43012

> <i_f3d_flags>
0

> <s_epik_input>
W0NIM11bQ0BASF0xW0NIMl1OKFtDSDNdKVtDQEBIXShbQ0gzXSlbQ0gyXVtDQEhdMVtOSF1bQ0gyXVtDSDJdYzJbY0hdW2NIXVtjSF1bY0hdbjI=

> <s_epik_cmdline>
J2VwaWtfcHl0aG9uJywgJy1waCcsICc3LjAnLCAnLXRuJywgJzgnLCAnLW1hJywgJzIwMCcsICctbWV0YWxfYmluZGluZycsICctaW1hZScsICc8aW5maWxlLm1hZT4nLCAnLW9tYWUnLCAnPG91dGZpbGUubWFlPic=

> <r_epik_Ionization_Penalty>
2.31085

> <r_epik_Ionization_Penalty_Charging>
0.000313057

> <r_epik_Ionization_Penalty_Neutral>
2.31054

> <r_epik_State_Penalty>
2.4087

> <r_epik_Charging_Adjusted_Penalty>
2.40902

> <i_epik_Tot_Q>
1

> <i_epik_Tot_abs_Q>
1

> <r_epik_Metal_State_Penalty>
2.30979

> <b_epik_Metal_Only>
0

> <s_lp_Force_Field>
OPLS_2005

> <r_lp_Energy>
24.34

> <b_lp_Chiralities_Consistent>
1

> <s_lp_Variant>
AV-unprocessed.smi:3303-36

> <Gold.Version>
5.8.1

> <Gold.Id.Protein>
6NUR|6NUR_protein|mol2

> <Gold.PLP.Fitness>
47.6290

> <Gold.PLP.PLP>
-43.3321

> <Gold.PLP.part.hbond>
-2.3312

> <Gold.PLP.part.metal>
0.0000

> <Gold.PLP.part.buried>
-1.6552

> <Gold.PLP.part.nonpolar>
-39.5875

> <Gold.PLP.part.repulsive>
0.0696

> <Gold.PLP.ligand.clash>
0.0000

> <Gold.PLP.ligand.torsion>
0.7216

> <Gold.PLP.Chemscore.Hbond>
1.9120

> <Gold.PLP.Chemscore.CHOScore>
0.0000

> <Gold.PLP.Chemscore.Metal>
0.0000

> <Gold.Chemscore.Hbonds>
donor molecule, donor type, donor heavy atom, donor atom, acceptor molecule, acceptor atom, score
      L1  H     4    44       P1  7957  0.96
      L1  H    10    35       P1  8028  0.94

> <Gold.PLP.Chemscore.Internal.Correction>
0.0042

> <Gold.Rescore>
     Score         DG    S(hbond)    S(metal)    S(lipo)     H(rot)  DE(clash)    DE(int)     intcor
     22.07     -22.94       1.87        0.00     124.99       1.33       0.14       0.74       ----

> <Gold.Chemscore.Fitness>
22.0691

> <Gold.Chemscore.DG>
-22.9450

> <Gold.Chemscore.ZeroCoef>
-5.4800

> <Gold.Chemscore.Hbond>
1.8679

> <Gold.Chemscore.Metal>
0.0000

> <Gold.Chemscore.Lipo>
124.9913

> <Gold.Chemscore.Internal_Hbond>
0.0000

> <Gold.Chemscore.DEClash>
0.1398

> <Gold.Chemscore.DEInternal>
0.7361

> <Gold.Chemscore.Rot>
1.3272

> <Gold.Chemscore.Internal.Correction>
   9.000000E+99

> <Gold.Chemscore.Hbonds>
donor molecule, donor type, donor heavy atom, donor atom, acceptor molecule, acceptor atom, score
      L1  H     4    44       P1  7957  0.92
      L1  H    10    35       P1  8028  0.91

> <Gold.Chemscore.Hbond.Weighted>
-6.2386

> <Gold.Chemscore.Metal.Weighted>
-0.0000

> <Gold.Chemscore.Lipo.Weighted>
-14.6240

> <Gold.Chemscore.Internal_Hbond.Weighted>
0.0000

> <Gold.Chemscore.DEClash.Weighted>
0.1398

> <Gold.Chemscore.DEInternal.Weighted>
0.7361

> <Gold.Chemscore.Rot.Weighted>
3.3976

> <Gold.Chemscore.Internal.Correction.Weighted>
   9.000000E+99

> <Gold.Protein.RotatedTorsions>
[ 6907 6896 6895 6894 ] final  -22.86 input  -60.11 | X-H torsion
[ 7974 7965 7964 7962 ] final   18.38 input  175.53 | X-H torsion
[ 8008 7997 7996 7995 ] final -129.17 input   59.86 | X-H torsion
[ 10167 10162 10161 10158 ] final  150.74 input  -65.29 | X-H torsion
[ 10718 10713 10712 10709 ] final -108.96 input   66.30 | X-H torsion
[ 10763 10752 10751 10750 ] final  129.76 input  -60.55 | X-H torsion
[ 11005 11000 10999 10996 ] final  171.25 input  -57.11 | X-H torsion

> <Gold.Protein.ActiveResidues>
 VAL166  LYS551  ARG553  GLY616  TRP617  ASP618  TYR619  PRO620  LYS621  CYS622 
 ASP623  PHE694  ASN695  SER759  ASP760  ASP761  ALA762  ILE779  LEU786  VAL792 
 PHE793  MET794  SER795  GLU796  ALA797  LYS798  CYS799  TRP800  GLU811  SER814 

> <Gold.Protein.RotatedAtoms>
  151.2124  135.0486  159.8916 H   0  0  0  0  0  0  0  0  0  0  0  0  # atno 6907 bound_to 6896
  152.5423  134.0730  159.8212 H   0  0  0  0  0  0  0  0  0  0  0  0  # atno 6908 bound_to 6896
  151.0885  133.5286  159.2648 H   0  0  0  0  0  0  0  0  0  0  0  0  # atno 6909 bound_to 6896
  146.2187  139.8465  142.8631 H   0  0  0  0  0  0  0  0  0  0  0  0  # atno 7974 bound_to 7965
  155.2748  140.0441  157.3010 H   0  0  0  0  0  0  0  0  0  0  0  0  # atno 8008 bound_to 7997
  154.5631  140.2352  155.8273 H   0  0  0  0  0  0  0  0  0  0  0  0  # atno 8009 bound_to 7997
  156.2064  140.3011  155.9643 H   0  0  0  0  0  0  0  0  0  0  0  0  # atno 8010 bound_to 7997
  139.4847  144.5497  151.7421 H   0  0  0  0  0  0  0  0  0  0  0  0  # atno 10167 bound_to 10162
  156.0512  130.5739  150.8034 H   0  0  0  0  0  0  0  0  0  0  0  0  # atno 10718 bound_to 10713
  153.7471  135.3215  155.3314 H   0  0  0  0  0  0  0  0  0  0  0  0  # atno 10763 bound_to 10752
  154.8276  135.4558  154.0969 H   0  0  0  0  0  0  0  0  0  0  0  0  # atno 10764 bound_to 10752
  153.2161  135.6942  153.8138 H   0  0  0  0  0  0  0  0  0  0  0  0  # atno 10765 bound_to 10752
  140.3170  134.7469  157.4035 H   0  0  0  0  0  0  0  0  0  0  0  0  # atno 11005 bound_to 11000
  145.2845  141.0149  143.3698 LP  0  0  0  0  0  0  0  0  0  0  0  0  # atno 17320 bound_to 7965
  144.9124  139.4512  143.6580 LP  0  0  0  0  0  0  0  0  0  0  0  0  # atno 17321 bound_to 7965
  140.5050  144.1112  150.5980 LP  0  0  0  0  0  0  0  0  0  0  0  0  # atno 17342 bound_to 10162
  140.4018  143.2700  151.9938 LP  0  0  0  0  0  0  0  0  0  0  0  0  # atno 17343 bound_to 10162
  157.5440  131.0942  150.9788 LP  0  0  0  0  0  0  0  0  0  0  0  0  # atno 17370 bound_to 10713
  157.0064  130.5619  149.5316 LP  0  0  0  0  0  0  0  0  0  0  0  0  # atno 17371 bound_to 10713
  140.0975  134.5518  155.8385 LP  0  0  0  0  0  0  0  0  0  0  0  0  # atno 17394 bound_to 11000
  141.2095  133.6685  156.6445 LP  0  0  0  0  0  0  0  0  0  0  0  0  # atno 17395 bound_to 11000

$$$$
