AV-unprocessed.smi:644|AV-procd|sdf|3157|dock4
  -GOLD-   22720 0 83D 1   1.00000     0.00000
 Structure written by MMmdl.
 38 40  0  0  0  0  0  0  0  0  2 V2000
  153.3921  142.6026  161.3494 C   0  0  0  0  0  0  0  0  0  0  0  0
  152.6602  142.2217  160.0738 C   0  0  0  0  0  0  0  0  0  0  0  0
  152.8888  140.9406  159.5223 C   0  0  0  0  0  0  0  0  0  0  0  0
  152.2051  140.6216  158.3551 C   0  0  0  0  0  0  0  0  0  0  0  0
  152.2108  139.4607  157.5786 N   0  3  0  0  0  0  0  0  0  0  0  0
  151.3704  139.6191  156.5188 C   0  0  0  0  0  0  0  0  0  0  0  0
  150.8289  140.8640  156.6081 N   0  0  0  0  0  0  0  0  0  0  0  0
  149.8608  141.5362  155.7318 C   0  0  0  0  0  0  0  0  0  0  0  0
  149.2480  140.5908  154.6804 C   0  0  2  0  0  0  0  0  0  0  0  0
  149.8459  140.8348  153.4213 O   0  0  0  0  0  0  0  0  0  0  0  0
  147.7271  140.7755  154.5619 C   0  0  0  0  0  0  0  0  0  0  0  0
  147.2925  142.3151  153.6947 S   0  0  0  0  0  0  0  0  0  0  0  0
  145.8613  142.7936  154.6091 C   0  0  0  0  0  0  0  0  0  0  0  0
  145.4143  142.1882  155.7188 N   0  0  0  0  0  0  0  0  0  0  0  0
  144.2663  142.7856  156.2211 N   0  0  0  0  0  0  0  0  0  0  0  0
  143.8871  143.8228  155.4709 C   0  0  0  0  0  0  0  0  0  0  0  0
  144.8954  144.1653  154.0778 S   0  0  0  0  0  0  0  0  0  0  0  0
  151.3201  141.5261  157.7375 C   0  0  0  0  0  0  0  0  0  0  0  0
  151.0828  142.7921  158.2667 C   0  0  0  0  0  0  0  0  0  0  0  0
  151.7690  143.1356  159.4536 C   0  0  0  0  0  0  0  0  0  0  0  0
  151.5324  144.5106  160.0548 C   0  0  0  0  0  0  0  0  0  0  0  0
  154.0187  141.7859  161.7091 H   0  0  0  0  0  0  0  0  0  0  0  0
  152.6833  142.8503  162.1399 H   0  0  0  0  0  0  0  0  0  0  0  0
  154.0359  143.4657  161.1774 H   0  0  0  0  0  0  0  0  0  0  0  0
  153.5660  140.2398  159.9885 H   0  0  0  0  0  0  0  0  0  0  0  0
  151.1654  138.8884  155.7497 H   0  0  0  0  0  0  0  0  0  0  0  0
  149.0862  141.9872  156.3532 H   0  0  0  0  0  0  0  0  0  0  0  0
  150.3824  142.3594  155.2414 H   0  0  0  0  0  0  0  0  0  0  0  0
  149.4607  139.5579  154.9587 H   0  0  0  0  0  0  0  0  0  0  0  0
  149.5029  140.2082  152.8020 H   0  0  0  0  0  0  0  0  0  0  0  0
  147.2993  139.9388  154.0082 H   0  0  0  0  0  0  0  0  0  0  0  0
  147.2701  140.7746  155.5525 H   0  0  0  0  0  0  0  0  0  0  0  0
  143.0072  144.3887  155.7391 H   0  0  0  0  0  0  0  0  0  0  0  0
  150.4033  143.4856  157.7939 H   0  0  0  0  0  0  0  0  0  0  0  0
  150.8288  145.0915  159.4576 H   0  0  0  0  0  0  0  0  0  0  0  0
  152.4662  145.0712  160.1073 H   0  0  0  0  0  0  0  0  0  0  0  0
  151.1223  144.4237  161.0613 H   0  0  0  0  0  0  0  0  0  0  0  0
  152.7455  138.6201  157.7573 H   0  0  0  0  0  0  0  0  0  0  0  0
  1  2  1  0  0  0  0
  1 22  1  0  0  0  0
  1 23  1  0  0  0  0
  1 24  1  0  0  0  0
  2 20  1  0  0  0  0
  2  3  2  0  0  0  0
  3  4  1  0  0  0  0
  3 25  1  0  0  0  0
  4 18  2  0  0  0  0
  4  5  1  0  0  0  0
  5  6  2  0  0  0  0
  5 38  1  0  0  0  0
  6  7  1  0  0  0  0
  6 26  1  0  0  0  0
  7  8  1  0  0  0  0
  7 18  1  0  0  0  0
  8  9  1  0  0  0  0
  8 27  1  0  0  0  0
  8 28  1  0  0  0  0
  9 10  1  0  0  0  0
  9 11  1  0  0  0  0
  9 29  1  0  0  0  0
 10 30  1  0  0  0  0
 11 12  1  0  0  0  0
 11 31  1  0  0  0  0
 11 32  1  0  0  0  0
 12 13  1  0  0  0  0
 13 17  1  0  0  0  0
 13 14  2  0  0  0  0
 14 15  1  0  0  0  0
 15 16  2  0  0  0  0
 16 17  1  0  0  0  0
 16 33  1  0  0  0  0
 18 19  1  0  0  0  0
 19 20  2  0  0  0  0
 19 34  1  0  0  0  0
 20 21  1  0  0  0  0
 21 35  1  0  0  0  0
 21 36  1  0  0  0  0
 21 37  1  0  0  0  0
M  CHG  1   5   1
M  END
> <s_m_source_file>
AV-unprocessed.smi

> <i_m_source_file_index>
644

> <i_lp_mmshare_version>
43012

> <i_f3d_flags>
0

> <s_epik_input>
W0NIM11jKFtjSF0xKWMoW0NIM10pW2NIXWMoYzEyKW4oW2NIXW4yKVtDSDJdW0NASF0oW09IXSlbQ0gyXVNjM25uW2NIXXMz

> <s_epik_cmdline>
J2VwaWtfcHl0aG9uJywgJy1waCcsICc3LjAnLCAnLXRuJywgJzgnLCAnLW1hJywgJzIwMCcsICctbWV0YWxfYmluZGluZycsICctaW1hZScsICc8aW5maWxlLm1hZT4nLCAnLW9tYWUnLCAnPG91dGZpbGUubWFlPic=

> <r_lp_tautomer_probability>
1

> <r_epik_Ionization_Penalty>
1.07492

> <r_epik_Ionization_Penalty_Charging>
1.07491

> <r_epik_Ionization_Penalty_Neutral>
3.80549e-06

> <r_epik_State_Penalty>
1.12982

> <r_epik_Charging_Adjusted_Penalty>
2.20473

> <i_epik_Tot_Q>
1

> <i_epik_Tot_abs_Q>
1

> <r_epik_Metal_State_Penalty>
1.2206

> <b_epik_Metal_Only>
0

> <s_lp_Force_Field>
OPLS_2005

> <r_lp_Energy>
11.8761

> <b_lp_Chiralities_Consistent>
1

> <s_lp_Variant>
AV-unprocessed.smi:644-3

> <Gold.Version>
5.8.1

> <Gold.Id.Protein>
6NUR|6NUR_protein|mol2

> <Gold.PLP.Fitness>
48.1091

> <Gold.PLP.PLP>
-44.3854

> <Gold.PLP.part.hbond>
-2.2350

> <Gold.PLP.part.metal>
0.0000

> <Gold.PLP.part.buried>
-6.4685

> <Gold.PLP.part.nonpolar>
-35.2455

> <Gold.PLP.part.repulsive>
0.2630

> <Gold.PLP.ligand.clash>
0.0000

> <Gold.PLP.ligand.torsion>
1.0955

> <Gold.PLP.Chemscore.Hbond>
1.9600

> <Gold.PLP.Chemscore.CHOScore>
0.0000

> <Gold.PLP.Chemscore.Metal>
0.0000

> <Gold.Chemscore.Hbonds>
donor molecule, donor type, donor heavy atom, donor atom, acceptor molecule, acceptor atom, score
      L1  H    10    30       P1  7957  0.67
      P1  H  7989  7998       L1    10  0.30
      P1  H  8011  8017       L1    10  0.95

> <Gold.PLP.Chemscore.Internal.Correction>
0.0348

> <Gold.Rescore>
     Score         DG    S(hbond)    S(metal)    S(lipo)     H(rot)  DE(clash)    DE(int)     intcor
     15.52     -17.15       1.42        0.00     114.60       2.53       0.52       1.10       ----

> <Gold.Chemscore.Fitness>
15.5237

> <Gold.Chemscore.DG>
-17.1461

> <Gold.Chemscore.ZeroCoef>
-5.4800

> <Gold.Chemscore.Hbond>
1.4186

> <Gold.Chemscore.Metal>
0.0000

> <Gold.Chemscore.Lipo>
114.6019

> <Gold.Chemscore.Internal_Hbond>
0.0000

> <Gold.Chemscore.DEClash>
0.5228

> <Gold.Chemscore.DEInternal>
1.0996

> <Gold.Chemscore.Rot>
2.5315

> <Gold.Chemscore.Internal.Correction>
   9.000000E+99

> <Gold.Chemscore.Hbonds>
donor molecule, donor type, donor heavy atom, donor atom, acceptor molecule, acceptor atom, score
      L1  H    10    30       P1  7957  0.68
      P1  H  7989  7998       L1    10  0.23
      P1  H  8011  8017       L1    10  0.21

> <Gold.Chemscore.Hbond.Weighted>
-4.7382

> <Gold.Chemscore.Metal.Weighted>
-0.0000

> <Gold.Chemscore.Lipo.Weighted>
-13.4084

> <Gold.Chemscore.Internal_Hbond.Weighted>
0.0000

> <Gold.Chemscore.DEClash.Weighted>
0.5228

> <Gold.Chemscore.DEInternal.Weighted>
1.0996

> <Gold.Chemscore.Rot.Weighted>
6.4805

> <Gold.Chemscore.Internal.Correction.Weighted>
   9.000000E+99

> <Gold.Protein.RotatedTorsions>
[ 6907 6896 6895 6894 ] final  106.77 input  -60.11 | X-H torsion
[ 7974 7965 7964 7962 ] final  -39.14 input  175.53 | X-H torsion
[ 8008 7997 7996 7995 ] final  113.51 input   59.86 | X-H torsion
[ 10167 10162 10161 10158 ] final  178.32 input  -65.29 | X-H torsion
[ 10718 10713 10712 10709 ] final  135.73 input   66.30 | X-H torsion
[ 10763 10752 10751 10750 ] final   76.02 input  -60.55 | X-H torsion
[ 11005 11000 10999 10996 ] final   32.02 input  -57.11 | X-H torsion

> <Gold.Protein.ActiveResidues>
 VAL166  LYS551  ARG553  GLY616  TRP617  ASP618  TYR619  PRO620  LYS621  CYS622 
 ASP623  PHE694  ASN695  SER759  ASP760  ASP761  ALA762  ILE779  LEU786  VAL792 
 PHE793  MET794  SER795  GLU796  ALA797  LYS798  CYS799  TRP800  GLU811  SER814 

> <Gold.Protein.RotatedAtoms>
  152.5181  133.9332  159.7590 H   0  0  0  0  0  0  0  0  0  0  0  0  # atno 6907 bound_to 6896
  150.9678  133.6368  159.2750 H   0  0  0  0  0  0  0  0  0  0  0  0  # atno 6908 bound_to 6896
  151.3590  135.0905  159.9481 H   0  0  0  0  0  0  0  0  0  0  0  0  # atno 6909 bound_to 6896
  146.0423  140.6592  142.9081 H   0  0  0  0  0  0  0  0  0  0  0  0  # atno 7974 bound_to 7965
  156.2262  140.2978  156.0074 H   0  0  0  0  0  0  0  0  0  0  0  0  # atno 8008 bound_to 7997
  155.2348  140.0420  157.2984 H   0  0  0  0  0  0  0  0  0  0  0  0  # atno 8009 bound_to 7997
  154.5920  140.2404  155.7915 H   0  0  0  0  0  0  0  0  0  0  0  0  # atno 8010 bound_to 7997
  139.5289  144.2694  152.0641 H   0  0  0  0  0  0  0  0  0  0  0  0  # atno 10167 bound_to 10162
  157.4541  131.1068  150.9999 H   0  0  0  0  0  0  0  0  0  0  0  0  # atno 10718 bound_to 10713
  153.0696  135.4967  154.8275 H   0  0  0  0  0  0  0  0  0  0  0  0  # atno 10763 bound_to 10752
  154.7003  135.3000  154.9353 H   0  0  0  0  0  0  0  0  0  0  0  0  # atno 10764 bound_to 10752
  154.0079  135.6758  153.4816 H   0  0  0  0  0  0  0  0  0  0  0  0  # atno 10765 bound_to 10752
  140.2778  134.3008  155.7809 H   0  0  0  0  0  0  0  0  0  0  0  0  # atno 11005 bound_to 11000
  144.7080  140.3930  143.7102 LP  0  0  0  0  0  0  0  0  0  0  0  0  # atno 17320 bound_to 7965
  145.6864  139.1629  143.2672 LP  0  0  0  0  0  0  0  0  0  0  0  0  # atno 17321 bound_to 7965
  140.2154  144.4520  150.6366 LP  0  0  0  0  0  0  0  0  0  0  0  0  # atno 17342 bound_to 10162
  140.6453  143.2212  151.6199 LP  0  0  0  0  0  0  0  0  0  0  0  0  # atno 17343 bound_to 10162
  157.0819  130.5906  149.5422 LP  0  0  0  0  0  0  0  0  0  0  0  0  # atno 17370 bound_to 10713
  155.9999  130.5076  150.7625 LP  0  0  0  0  0  0  0  0  0  0  0  0  # atno 17371 bound_to 10713
  141.2167  133.7506  156.9434 LP  0  0  0  0  0  0  0  0  0  0  0  0  # atno 17394 bound_to 11000
  140.1312  134.9355  157.2339 LP  0  0  0  0  0  0  0  0  0  0  0  0  # atno 17395 bound_to 11000

$$$$
