AV-unprocessed.smi:3161|AV-procd|sdf|12059|dock5
  -GOLD-   2272017483D 1   1.00000     0.00000
 Structure written by MMmdl.
 40 41  0  0  0  0  0  0  0  0  1 V2000
  151.1847  145.3232  159.7979 C   0  0  0  0  0  0  0  0  0  0  0  0
  152.0242  144.0809  159.8791 C   0  0  0  0  0  0  0  0  0  0  0  0
  152.4094  143.2135  158.8175 C   0  0  0  0  0  0  0  0  0  0  0  0
  153.1584  142.2022  159.2254 N   0  0  0  0  0  0  0  0  0  0  0  0
  153.2727  142.3834  160.5585 N   0  0  0  0  0  0  0  0  0  0  0  0
  154.0388  141.4412  161.3559 C   0  0  0  0  0  0  0  0  0  0  0  0
  154.5778  140.2630  160.5198 C   0  0  2  0  0  0  0  0  0  0  0  0
  153.4408  139.2789  160.1898 C   0  0  0  0  0  0  0  0  0  0  0  0
  155.6786  139.6011  161.2291 N   0  0  0  0  0  0  0  0  0  0  0  0
  155.4882  139.4175  162.6665 C   0  0  0  0  0  0  0  0  0  0  0  0
  155.0281  137.9860  162.9764 C   0  0  2  0  0  0  0  0  0  0  0  0
  155.0157  137.7061  164.4915 C   0  0  0  0  0  0  0  0  0  0  0  0
  154.6375  136.2459  164.7661 C   0  0  0  0  0  0  0  0  0  0  0  0
  155.5546  135.3150  163.9662 C   0  0  0  0  0  0  0  0  0  0  0  0
  155.5596  135.7160  162.4828 C   0  0  0  0  0  0  0  0  0  0  0  0
  155.9386  137.0827  162.3512 O   0  0  0  0  0  0  0  0  0  0  0  0
  152.6002  143.5110  160.9791 C   0  0  0  0  0  0  0  0  0  0  0  0
  150.7455  145.4518  158.8082 H   0  0  0  0  0  0  0  0  0  0  0  0
  151.7712  146.2177  160.0079 H   0  0  0  0  0  0  0  0  0  0  0  0
  150.3626  145.3012  160.5132 H   0  0  0  0  0  0  0  0  0  0  0  0
  152.1691  143.2898  157.7673 H   0  0  0  0  0  0  0  0  0  0  0  0
  154.8550  141.9682  161.8537 H   0  0  0  0  0  0  0  0  0  0  0  0
  153.3831  141.0708  162.1450 H   0  0  0  0  0  0  0  0  0  0  0  0
  154.9534  140.6654  159.5781 H   0  0  0  0  0  0  0  0  0  0  0  0
  152.5998  139.7970  159.7283 H   0  0  0  0  0  0  0  0  0  0  0  0
  153.0698  138.7843  161.0882 H   0  0  0  0  0  0  0  0  0  0  0  0
  153.7577  138.5084  159.4873 H   0  0  0  0  0  0  0  0  0  0  0  0
  156.5469  140.1004  161.0627 H   0  0  0  0  0  0  0  0  0  0  0  0
  156.4048  139.6279  163.2171 H   0  0  0  0  0  0  0  0  0  0  0  0
  154.7372  140.1242  163.0211 H   0  0  0  0  0  0  0  0  0  0  0  0
  154.0235  137.8343  162.5761 H   0  0  0  0  0  0  0  0  0  0  0  0
  156.0003  137.9136  164.9126 H   0  0  0  0  0  0  0  0  0  0  0  0
  154.3136  138.3721  164.9939 H   0  0  0  0  0  0  0  0  0  0  0  0
  154.7079  136.0275  165.8321 H   0  0  0  0  0  0  0  0  0  0  0  0
  153.5994  136.0752  164.4783 H   0  0  0  0  0  0  0  0  0  0  0  0
  156.5696  135.3719  164.3613 H   0  0  0  0  0  0  0  0  0  0  0  0
  155.2324  134.2792  164.0769 H   0  0  0  0  0  0  0  0  0  0  0  0
  156.2685  135.0990  161.9306 H   0  0  0  0  0  0  0  0  0  0  0  0
  154.5792  135.5543  162.0320 H   0  0  0  0  0  0  0  0  0  0  0  0
  152.5862  143.8100  162.0168 H   0  0  0  0  0  0  0  0  0  0  0  0
  1  2  1  0  0  0  0
  1 18  1  0  0  0  0
  1 19  1  0  0  0  0
  1 20  1  0  0  0  0
  2 17  2  0  0  0  0
  2  3  1  0  0  0  0
  3  4  2  0  0  0  0
  3 21  1  0  0  0  0
  4  5  1  0  0  0  0
  5  6  1  0  0  0  0
  5 17  1  0  0  0  0
  6  7  1  0  0  0  0
  6 22  1  0  0  0  0
  6 23  1  0  0  0  0
  7  8  1  0  0  0  0
  7  9  1  0  0  0  0
  7 24  1  0  0  0  0
  8 25  1  0  0  0  0
  8 26  1  0  0  0  0
  8 27  1  0  0  0  0
  9 10  1  0  0  0  0
  9 28  1  0  0  0  0
 10 11  1  0  0  0  0
 10 29  1  0  0  0  0
 10 30  1  0  0  0  0
 11 16  1  0  0  0  0
 11 12  1  0  0  0  0
 11 31  1  0  0  0  0
 12 13  1  0  0  0  0
 12 32  1  0  0  0  0
 12 33  1  0  0  0  0
 13 14  1  0  0  0  0
 13 34  1  0  0  0  0
 13 35  1  0  0  0  0
 14 15  1  0  0  0  0
 14 36  1  0  0  0  0
 14 37  1  0  0  0  0
 15 16  1  0  0  0  0
 15 38  1  0  0  0  0
 15 39  1  0  0  0  0
 17 40  1  0  0  0  0
M  END
> <s_m_source_file>
AV-unprocessed.smi

> <i_m_source_file_index>
3161

> <i_lp_mmshare_version>
43012

> <i_f3d_flags>
0

> <s_epik_input>
W0NIM11jMVtjSF1ubihbY0hdMSlbQ0gyXVtDQEhdKFtDSDNdKVtOSF1bQ0gyXVtDQEBIXTJbQ0gyXVtDSDJdW0NIMl1bQ0gyXU8y

> <s_epik_cmdline>
J2VwaWtfcHl0aG9uJywgJy1waCcsICc3LjAnLCAnLXRuJywgJzgnLCAnLW1hJywgJzIwMCcsICctbWV0YWxfYmluZGluZycsICctaW1hZScsICc8aW5maWxlLm1hZT4nLCAnLW9tYWUnLCAnPG91dGZpbGUubWFlPic=

> <r_lp_tautomer_probability>
1

> <r_epik_Ionization_Penalty>
2.51986

> <r_epik_Ionization_Penalty_Charging>
0

> <r_epik_Ionization_Penalty_Neutral>
2.51986

> <r_epik_State_Penalty>
2.68614

> <r_epik_Charging_Adjusted_Penalty>
2.68614

> <i_epik_Tot_Q>
0

> <i_epik_Tot_abs_Q>
0

> <r_epik_Metal_State_Penalty>
2.68606

> <b_epik_Metal_Only>
0

> <s_lp_Force_Field>
OPLS_2005

> <r_lp_Energy>
14.7371

> <b_lp_Chiralities_Consistent>
1

> <s_lp_Variant>
AV-unprocessed.smi:3161-5

> <Gold.Version>
5.8.1

> <Gold.Id.Protein>
6NUR|6NUR_protein|mol2

> <Gold.PLP.Fitness>
41.7972

> <Gold.PLP.PLP>
-43.0573

> <Gold.PLP.part.hbond>
0.0000

> <Gold.PLP.part.metal>
0.0000

> <Gold.PLP.part.buried>
-4.9564

> <Gold.PLP.part.nonpolar>
-38.4534

> <Gold.PLP.part.repulsive>
0.0000

> <Gold.PLP.ligand.clash>
0.0000

> <Gold.PLP.ligand.torsion>
0.6412

> <Gold.PLP.Chemscore.Hbond>
0.0000

> <Gold.PLP.Chemscore.CHOScore>
0.0000

> <Gold.PLP.Chemscore.Metal>
0.0000

> <Gold.PLP.Chemscore.Internal.Correction>
0.0224

> <Gold.Rescore>
     Score         DG    S(hbond)    S(metal)    S(lipo)     H(rot)  DE(clash)    DE(int)     intcor
     14.81     -15.52       0.00        0.00     118.68       1.50       0.13       0.58       ----

> <Gold.Chemscore.Fitness>
14.8095

> <Gold.Chemscore.DG>
-15.5174

> <Gold.Chemscore.ZeroCoef>
-5.4800

> <Gold.Chemscore.Hbond>
0.0000

> <Gold.Chemscore.Metal>
0.0000

> <Gold.Chemscore.Lipo>
118.6762

> <Gold.Chemscore.Internal_Hbond>
0.0000

> <Gold.Chemscore.DEClash>
0.1280

> <Gold.Chemscore.DEInternal>
0.5799

> <Gold.Chemscore.Rot>
1.5030

> <Gold.Chemscore.Internal.Correction>
   9.000000E+99

> <Gold.Chemscore.Hbond.Weighted>
-0.0000

> <Gold.Chemscore.Metal.Weighted>
-0.0000

> <Gold.Chemscore.Lipo.Weighted>
-13.8851

> <Gold.Chemscore.Internal_Hbond.Weighted>
0.0000

> <Gold.Chemscore.DEClash.Weighted>
0.1280

> <Gold.Chemscore.DEInternal.Weighted>
0.5799

> <Gold.Chemscore.Rot.Weighted>
3.8477

> <Gold.Chemscore.Internal.Correction.Weighted>
   9.000000E+99

> <Gold.Protein.RotatedTorsions>
[ 6907 6896 6895 6894 ] final -135.66 input  -60.11 | X-H torsion
[ 7974 7965 7964 7962 ] final  164.61 input  175.53 | X-H torsion
[ 8008 7997 7996 7995 ] final   45.05 input   59.86 | X-H torsion
[ 10167 10162 10161 10158 ] final  -83.26 input  -65.29 | X-H torsion
[ 10718 10713 10712 10709 ] final -152.53 input   66.30 | X-H torsion
[ 10763 10752 10751 10750 ] final -140.98 input  -60.55 | X-H torsion
[ 11005 11000 10999 10996 ] final -135.89 input  -57.11 | X-H torsion

> <Gold.Protein.ActiveResidues>
 VAL166  LYS551  ARG553  GLY616  TRP617  ASP618  TYR619  PRO620  LYS621  CYS622 
 ASP623  PHE694  ASN695  SER759  ASP760  ASP761  ALA762  ILE779  LEU786  VAL792 
 PHE793  MET794  SER795  GLU796  ALA797  LYS798  CYS799  TRP800  GLU811  SER814 

> <Gold.Protein.RotatedAtoms>
  151.0006  133.6060  159.2695 H   0  0  0  0  0  0  0  0  0  0  0  0  # atno 6907 bound_to 6896
  151.3247  135.0826  159.9328 H   0  0  0  0  0  0  0  0  0  0  0  0  # atno 6908 bound_to 6896
  152.5272  133.9647  159.7788 H   0  0  0  0  0  0  0  0  0  0  0  0  # atno 6909 bound_to 6896
  144.7538  139.8350  143.6357 H   0  0  0  0  0  0  0  0  0  0  0  0  # atno 7974 bound_to 7965
  155.3295  140.3401  155.4240 H   0  0  0  0  0  0  0  0  0  0  0  0  # atno 8008 bound_to 7997
  156.1869  140.1683  156.8205 H   0  0  0  0  0  0  0  0  0  0  0  0  # atno 8009 bound_to 7997
  154.5396  140.0727  156.8470 H   0  0  0  0  0  0  0  0  0  0  0  0  # atno 8010 bound_to 7997
  140.4243  143.2572  151.8847 H   0  0  0  0  0  0  0  0  0  0  0  0  # atno 10167 bound_to 10162
  156.4737  130.8270  151.2499 H   0  0  0  0  0  0  0  0  0  0  0  0  # atno 10718 bound_to 10713
  154.8560  135.3537  154.5795 H   0  0  0  0  0  0  0  0  0  0  0  0  # atno 10763 bound_to 10752
  153.6406  135.6998  153.5247 H   0  0  0  0  0  0  0  0  0  0  0  0  # atno 10764 bound_to 10752
  153.2974  135.4216  155.1181 H   0  0  0  0  0  0  0  0  0  0  0  0  # atno 10765 bound_to 10752
  140.8856  134.1877  157.4562 H   0  0  0  0  0  0  0  0  0  0  0  0  # atno 11005 bound_to 11000
  146.1522  139.4609  143.0041 LP  0  0  0  0  0  0  0  0  0  0  0  0  # atno 17320 bound_to 7965
  145.6851  141.0180  143.1585 LP  0  0  0  0  0  0  0  0  0  0  0  0  # atno 17321 bound_to 7965
  139.4783  144.5403  151.8537 LP  0  0  0  0  0  0  0  0  0  0  0  0  # atno 17342 bound_to 10162
  140.4498  144.1870  150.5896 LP  0  0  0  0  0  0  0  0  0  0  0  0  # atno 17343 bound_to 10162
  157.7489  131.0068  150.3164 LP  0  0  0  0  0  0  0  0  0  0  0  0  # atno 17370 bound_to 10713
  156.3592  130.3844  149.7265 LP  0  0  0  0  0  0  0  0  0  0  0  0  # atno 17371 bound_to 10713
  139.8724  134.9836  156.5205 LP  0  0  0  0  0  0  0  0  0  0  0  0  # atno 17394 bound_to 11000
  140.8409  133.8206  155.9074 LP  0  0  0  0  0  0  0  0  0  0  0  0  # atno 17395 bound_to 11000

$$$$
