AV-unprocessed.smi:2587|AV-procd|sdf|10146|dock4
  -GOLD-   2272014153D 1   1.00000     0.00000
 Structure written by MMmdl.
 39 40  0  0  0  0  0  0  0  0  1 V2000
  147.0640  143.5478  152.5511 C   0  0  0  0  0  0  0  0  0  0  0  0
  147.4257  142.7393  153.5582 C   0  0  0  0  0  0  0  0  0  0  0  0
  148.4841  141.6601  153.4500 C   0  0  0  0  0  0  0  0  0  0  0  0
  148.2765  140.5671  154.3995 N   0  0  0  0  0  0  0  0  0  0  0  0
  147.2627  139.5632  154.0874 C   0  0  0  0  0  0  0  0  0  0  0  0
  146.8908  139.5530  152.5971 C   0  0  0  0  0  0  0  0  0  0  0  0
  146.6384  138.2281  152.1847 O   0  0  0  0  0  0  0  0  0  0  0  0
  149.1707  140.3836  155.4828 C   0  0  0  0  0  0  0  0  0  0  0  0
  149.8228  141.4696  156.1205 C   0  0  0  0  0  0  0  0  0  0  0  0
  150.6987  141.1772  157.1934 C   0  0  0  0  0  0  0  0  0  0  0  0
  151.3803  142.2102  157.8725 N   0  0  0  0  0  0  0  0  0  0  0  0
  151.8469  143.3525  157.0890 C   0  0  0  0  0  0  0  0  0  0  0  0
  152.8071  144.2178  157.9226 C   0  0  0  0  0  0  0  0  0  0  0  0
  152.1729  144.6051  159.1368 O   0  0  0  0  0  0  0  0  0  0  0  0
  151.8272  143.4787  159.9359 C   0  0  0  0  0  0  0  0  0  0  0  0
  150.8334  142.5844  159.1746 C   0  0  0  0  0  0  0  0  0  0  0  0
  150.8895  139.8972  157.5922 N   0  0  0  0  0  0  0  0  0  0  0  0
  150.2335  138.9440  156.9320 C   0  0  0  0  0  0  0  0  0  0  0  0
  149.3959  139.1178  155.9102 N   0  0  0  0  0  0  0  0  0  0  0  0
  147.5208  143.4681  151.5754 H   0  0  0  0  0  0  0  0  0  0  0  0
  146.3034  144.3015  152.6912 H   0  0  0  0  0  0  0  0  0  0  0  0
  146.9483  142.8516  154.5209 H   0  0  0  0  0  0  0  0  0  0  0  0
  148.4837  141.2625  152.4342 H   0  0  0  0  0  0  0  0  0  0  0  0
  149.4678  142.1081  153.5927 H   0  0  0  0  0  0  0  0  0  0  0  0
  147.5824  138.5761  154.4207 H   0  0  0  0  0  0  0  0  0  0  0  0
  146.3719  139.7872  154.6757 H   0  0  0  0  0  0  0  0  0  0  0  0
  146.0015  140.1570  152.4150 H   0  0  0  0  0  0  0  0  0  0  0  0
  147.6953  139.9653  151.9876 H   0  0  0  0  0  0  0  0  0  0  0  0
  146.3803  137.7219  152.9398 H   0  0  0  0  0  0  0  0  0  0  0  0
  149.6495  142.4918  155.8250 H   0  0  0  0  0  0  0  0  0  0  0  0
  152.3602  143.0102  156.1893 H   0  0  0  0  0  0  0  0  0  0  0  0
  150.9896  143.9469  156.7701 H   0  0  0  0  0  0  0  0  0  0  0  0
  153.7300  143.6767  158.1382 H   0  0  0  0  0  0  0  0  0  0  0  0
  153.0857  145.1124  157.3656 H   0  0  0  0  0  0  0  0  0  0  0  0
  152.7255  142.9201  160.2041 H   0  0  0  0  0  0  0  0  0  0  0  0
  151.3806  143.8278  160.8669 H   0  0  0  0  0  0  0  0  0  0  0  0
  149.8948  143.1181  159.0204 H   0  0  0  0  0  0  0  0  0  0  0  0
  150.6047  141.7122  159.7852 H   0  0  0  0  0  0  0  0  0  0  0  0
  150.3964  137.9274  157.2579 H   0  0  0  0  0  0  0  0  0  0  0  0
  1  2  2  0  0  0  0
  1 20  1  0  0  0  0
  1 21  1  0  0  0  0
  2  3  1  0  0  0  0
  2 22  1  0  0  0  0
  3  4  1  0  0  0  0
  3 23  1  0  0  0  0
  3 24  1  0  0  0  0
  4  5  1  0  0  0  0
  4  8  1  0  0  0  0
  5  6  1  0  0  0  0
  5 25  1  0  0  0  0
  5 26  1  0  0  0  0
  6  7  1  0  0  0  0
  6 27  1  0  0  0  0
  6 28  1  0  0  0  0
  7 29  1  0  0  0  0
  8 19  1  0  0  0  0
  8  9  2  0  0  0  0
  9 10  1  0  0  0  0
  9 30  1  0  0  0  0
 10 11  1  0  0  0  0
 10 17  2  0  0  0  0
 11 16  1  0  0  0  0
 11 12  1  0  0  0  0
 12 13  1  0  0  0  0
 12 31  1  0  0  0  0
 12 32  1  0  0  0  0
 13 14  1  0  0  0  0
 13 33  1  0  0  0  0
 13 34  1  0  0  0  0
 14 15  1  0  0  0  0
 15 16  1  0  0  0  0
 15 35  1  0  0  0  0
 15 36  1  0  0  0  0
 16 37  1  0  0  0  0
 16 38  1  0  0  0  0
 17 18  1  0  0  0  0
 18 19  2  0  0  0  0
 18 39  1  0  0  0  0
M  END
> <s_m_source_file>
AV-unprocessed.smi

> <i_m_source_file_index>
2587

> <i_lp_mmshare_version>
43012

> <i_f3d_flags>
0

> <s_epik_input>
W0NIMl09W0NIXVtDSDJdTihbQ0gyXVtDSDJdW09IXSljMVtjSF1jKG5bY0hdbjEpTjJbQ0gyXVtDSDJdT1tDSDJdW0NIMl0y

> <s_epik_cmdline>
J2VwaWtfcHl0aG9uJywgJy1waCcsICc3LjAnLCAnLXRuJywgJzgnLCAnLW1hJywgJzIwMCcsICctbWV0YWxfYmluZGluZycsICctaW1hZScsICc8aW5maWxlLm1hZT4nLCAnLW9tYWUnLCAnPG91dGZpbGUubWFlPic=

> <r_lp_tautomer_probability>
1

> <r_epik_Ionization_Penalty>
0.00218234

> <r_epik_Ionization_Penalty_Charging>
0

> <r_epik_Ionization_Penalty_Neutral>
0.00218234

> <r_epik_State_Penalty>
0.00992355

> <r_epik_Charging_Adjusted_Penalty>
0.00992355

> <i_epik_Tot_Q>
0

> <i_epik_Tot_abs_Q>
0

> <r_epik_Metal_State_Penalty>
0.00985368

> <b_epik_Metal_Only>
0

> <s_lp_Force_Field>
OPLS_2005

> <r_lp_Energy>
11.4622

> <b_lp_Chiralities_Consistent>
1

> <s_lp_Variant>
AV-unprocessed.smi:2587-1

> <Gold.Version>
5.8.1

> <Gold.Id.Protein>
6NUR|6NUR_protein|mol2

> <Gold.PLP.Fitness>
46.6188

> <Gold.PLP.PLP>
-43.0120

> <Gold.PLP.part.hbond>
-3.9641

> <Gold.PLP.part.metal>
0.0000

> <Gold.PLP.part.buried>
0.2473

> <Gold.PLP.part.nonpolar>
-38.3186

> <Gold.PLP.part.repulsive>
0.1369

> <Gold.PLP.ligand.clash>
0.0000

> <Gold.PLP.ligand.torsion>
1.8108

> <Gold.PLP.Chemscore.Hbond>
2.2198

> <Gold.PLP.Chemscore.CHOScore>
0.0000

> <Gold.PLP.Chemscore.Metal>
0.0000

> <Gold.PLP.Chemscore.Internal.Correction>
0.5691

> <Gold.Rescore>
     Score         DG    S(hbond)    S(metal)    S(lipo)     H(rot)  DE(clash)    DE(int)     intcor
     10.25     -11.23       0.96        0.00      76.65       2.51       0.17       0.82       ----

> <Gold.Chemscore.Fitness>
10.2463

> <Gold.Chemscore.DG>
-11.2349

> <Gold.Chemscore.ZeroCoef>
-5.4800

> <Gold.Chemscore.Hbond>
0.9636

> <Gold.Chemscore.Metal>
0.0000

> <Gold.Chemscore.Lipo>
76.6495

> <Gold.Chemscore.Internal_Hbond>
0.0000

> <Gold.Chemscore.DEClash>
0.1664

> <Gold.Chemscore.DEInternal>
0.8222

> <Gold.Chemscore.Rot>
2.5123

> <Gold.Chemscore.Internal.Correction>
   9.000000E+99

> <Gold.Chemscore.Hbond.Weighted>
-3.2184

> <Gold.Chemscore.Metal.Weighted>
-0.0000

> <Gold.Chemscore.Lipo.Weighted>
-8.9680

> <Gold.Chemscore.Internal_Hbond.Weighted>
0.0000

> <Gold.Chemscore.DEClash.Weighted>
0.1664

> <Gold.Chemscore.DEInternal.Weighted>
0.8222

> <Gold.Chemscore.Rot.Weighted>
6.4315

> <Gold.Chemscore.Internal.Correction.Weighted>
   9.000000E+99

> <Gold.Protein.RotatedTorsions>
[ 6907 6896 6895 6894 ] final -120.38 input  -60.11 | X-H torsion
[ 7974 7965 7964 7962 ] final  119.11 input  175.53 | X-H torsion
[ 8008 7997 7996 7995 ] final   62.11 input   59.86 | X-H torsion
[ 10167 10162 10161 10158 ] final -173.59 input  -65.29 | X-H torsion
[ 10718 10713 10712 10709 ] final   82.83 input   66.30 | X-H torsion
[ 10763 10752 10751 10750 ] final  -87.93 input  -60.55 | X-H torsion
[ 11005 11000 10999 10996 ] final  -23.84 input  -57.11 | X-H torsion

> <Gold.Protein.ActiveResidues>
 VAL166  LYS551  ARG553  GLY616  TRP617  ASP618  TYR619  PRO620  LYS621  CYS622 
 ASP623  PHE694  ASN695  SER759  ASP760  ASP761  ALA762  ILE779  LEU786  VAL792 
 PHE793  MET794  SER795  GLU796  ALA797  LYS798  CYS799  TRP800  GLU811  SER814 

> <Gold.Protein.RotatedAtoms>
  150.8388  133.7970  159.3068 H   0  0  0  0  0  0  0  0  0  0  0  0  # atno 6907 bound_to 6896
  151.5677  135.1062  159.9997 H   0  0  0  0  0  0  0  0  0  0  0  0  # atno 6908 bound_to 6896
  152.4456  133.7487  159.6738 H   0  0  0  0  0  0  0  0  0  0  0  0  # atno 6909 bound_to 6896
  145.1471  139.3233  143.4586 H   0  0  0  0  0  0  0  0  0  0  0  0  # atno 7974 bound_to 7965
  155.6090  140.3495  155.4617 H   0  0  0  0  0  0  0  0  0  0  0  0  # atno 8008 bound_to 7997
  156.0169  140.1245  157.0422 H   0  0  0  0  0  0  0  0  0  0  0  0  # atno 8009 bound_to 7997
  154.4301  140.1070  156.5894 H   0  0  0  0  0  0  0  0  0  0  0  0  # atno 8010 bound_to 7997
  139.5680  144.1709  152.1341 H   0  0  0  0  0  0  0  0  0  0  0  0  # atno 10167 bound_to 10162
  157.6866  131.0064  150.2432 H   0  0  0  0  0  0  0  0  0  0  0  0  # atno 10718 bound_to 10713
  154.6390  135.5395  153.7768 H   0  0  0  0  0  0  0  0  0  0  0  0  # atno 10763 bound_to 10752
  153.0324  135.6454  154.1188 H   0  0  0  0  0  0  0  0  0  0  0  0  # atno 10764 bound_to 10752
  154.1113  135.2926  155.3210 H   0  0  0  0  0  0  0  0  0  0  0  0  # atno 10765 bound_to 10752
  140.8789  133.7667  156.0278 H   0  0  0  0  0  0  0  0  0  0  0  0  # atno 11005 bound_to 11000
  146.3499  140.1530  142.8592 LP  0  0  0  0  0  0  0  0  0  0  0  0  # atno 17320 bound_to 7965
  145.0471  140.8989  143.5018 LP  0  0  0  0  0  0  0  0  0  0  0  0  # atno 17321 bound_to 7965
  140.1236  144.5351  150.6847 LP  0  0  0  0  0  0  0  0  0  0  0  0  # atno 17342 bound_to 10162
  140.6964  143.2406  151.4989 LP  0  0  0  0  0  0  0  0  0  0  0  0  # atno 17343 bound_to 10162
  156.3043  130.3763  149.7721 LP  0  0  0  0  0  0  0  0  0  0  0  0  # atno 17370 bound_to 10713
  156.5341  130.8271  151.3247 LP  0  0  0  0  0  0  0  0  0  0  0  0  # atno 17371 bound_to 10713
  140.8484  134.2983  157.5285 LP  0  0  0  0  0  0  0  0  0  0  0  0  # atno 17394 bound_to 11000
  139.8718  134.9454  156.3910 LP  0  0  0  0  0  0  0  0  0  0  0  0  # atno 17395 bound_to 11000

$$$$
