AV-unprocessed.smi:1853|AV-procd|sdf|7527|dock4
  -GOLD-   22720 9233D 1   1.00000     0.00000
 Structure written by MMmdl.
 42 44  0  0  0  0  0  0  0  0  1 V2000
  145.1701  142.9984  155.3812 C   0  0  0  0  0  0  0  0  0  0  0  0
  146.5304  142.3477  155.2371 C   0  0  0  0  0  0  0  0  0  0  0  0
  147.2929  142.0275  156.3776 C   0  0  0  0  0  0  0  0  0  0  0  0
  148.5551  141.4199  156.2351 C   0  0  0  0  0  0  0  0  0  0  0  0
  149.0739  141.1212  154.9584 C   0  0  0  0  0  0  0  0  0  0  0  0
  150.3158  140.5249  154.9117 O   0  0  0  0  0  0  0  0  0  0  0  0
  151.2154  140.7671  155.9836 C   0  0  0  0  0  0  0  0  0  0  0  0
  151.2022  139.5522  156.9189 C   0  0  0  0  0  0  0  0  0  0  0  0
  152.1138  139.7245  158.0395 N   0  0  0  0  0  0  0  0  0  0  0  0
  152.9935  138.8315  158.5624 C   0  0  0  0  0  0  0  0  0  0  0  0
  153.1497  137.4368  158.0129 C   0  0  0  0  0  0  0  0  0  0  0  0
  154.1936  136.7217  158.7429 N   0  0  0  0  0  0  0  0  0  0  0  0
  154.7271  135.5485  158.3734 C   0  0  0  0  0  0  0  0  0  0  0  0
  154.4042  134.9232  157.3648 O   0  0  0  0  0  0  0  0  0  0  0  0
  153.7263  139.2792  159.5858 N   0  0  0  0  0  0  0  0  0  0  0  0
  153.2618  140.5678  159.7574 C   0  0  0  0  0  0  0  0  0  0  0  0
  153.6329  141.5616  160.6916 C   0  0  0  0  0  0  0  0  0  0  0  0
  153.0088  142.8262  160.6740 C   0  0  0  0  0  0  0  0  0  0  0  0
  152.0069  143.1144  159.7247 C   0  0  0  0  0  0  0  0  0  0  0  0
  151.6233  142.1385  158.7849 C   0  0  0  0  0  0  0  0  0  0  0  0
  152.2498  140.8777  158.8062 C   0  0  0  0  0  0  0  0  0  0  0  0
  148.3009  141.4456  153.8147 C   0  0  0  0  0  0  0  0  0  0  0  0
  147.0386  142.0541  153.9565 C   0  0  0  0  0  0  0  0  0  0  0  0
  145.0357  143.4165  156.3793 H   0  0  0  0  0  0  0  0  0  0  0  0
  144.3824  142.2649  155.2077 H   0  0  0  0  0  0  0  0  0  0  0  0
  145.0539  143.8058  154.6578 H   0  0  0  0  0  0  0  0  0  0  0  0
  146.9137  142.2448  157.3654 H   0  0  0  0  0  0  0  0  0  0  0  0
  149.1311  141.1782  157.1164 H   0  0  0  0  0  0  0  0  0  0  0  0
  152.2243  140.9253  155.5985 H   0  0  0  0  0  0  0  0  0  0  0  0
  150.9145  141.6607  156.5305 H   0  0  0  0  0  0  0  0  0  0  0  0
  150.1972  139.3559  157.2923 H   0  0  0  0  0  0  0  0  0  0  0  0
  151.4979  138.6591  156.3676 H   0  0  0  0  0  0  0  0  0  0  0  0
  152.2178  136.8748  158.0636 H   0  0  0  0  0  0  0  0  0  0  0  0
  153.4297  137.5019  156.9616 H   0  0  0  0  0  0  0  0  0  0  0  0
  154.5254  137.1473  159.5962 H   0  0  0  0  0  0  0  0  0  0  0  0
  155.4907  135.2205  159.0954 H   0  0  0  0  0  0  0  0  0  0  0  0
  154.3983  141.3506  161.4236 H   0  0  0  0  0  0  0  0  0  0  0  0
  153.2996  143.5786  161.3925 H   0  0  0  0  0  0  0  0  0  0  0  0
  151.5332  144.0852  159.7182 H   0  0  0  0  0  0  0  0  0  0  0  0
  150.8558  142.3571  158.0575 H   0  0  0  0  0  0  0  0  0  0  0  0
  148.6534  141.2381  152.8157 H   0  0  0  0  0  0  0  0  0  0  0  0
  146.4602  142.2949  153.0765 H   0  0  0  0  0  0  0  0  0  0  0  0
  1  2  1  0  0  0  0
  1 24  1  0  0  0  0
  1 25  1  0  0  0  0
  1 26  1  0  0  0  0
  2 23  1  0  0  0  0
  2  3  2  0  0  0  0
  3  4  1  0  0  0  0
  3 27  1  0  0  0  0
  4  5  2  0  0  0  0
  4 28  1  0  0  0  0
  5  6  1  0  0  0  0
  5 22  1  0  0  0  0
  6  7  1  0  0  0  0
  7  8  1  0  0  0  0
  7 29  1  0  0  0  0
  7 30  1  0  0  0  0
  8  9  1  0  0  0  0
  8 31  1  0  0  0  0
  8 32  1  0  0  0  0
  9 21  1  0  0  0  0
  9 10  1  0  0  0  0
 10 11  1  0  0  0  0
 10 15  2  0  0  0  0
 11 12  1  0  0  0  0
 11 33  1  0  0  0  0
 11 34  1  0  0  0  0
 12 13  1  0  0  0  0
 12 35  1  0  0  0  0
 13 14  2  0  0  0  0
 13 36  1  0  0  0  0
 15 16  1  0  0  0  0
 16 21  2  0  0  0  0
 16 17  1  0  0  0  0
 17 18  2  0  0  0  0
 17 37  1  0  0  0  0
 18 19  1  0  0  0  0
 18 38  1  0  0  0  0
 19 20  2  0  0  0  0
 19 39  1  0  0  0  0
 20 21  1  0  0  0  0
 20 40  1  0  0  0  0
 22 23  2  0  0  0  0
 22 41  1  0  0  0  0
 23 42  1  0  0  0  0
M  END
> <s_m_source_file>
AV-unprocessed.smi

> <i_m_source_file_index>
1853

> <i_lp_mmshare_version>
43012

> <i_f3d_flags>
0

> <s_epik_input>
W0NIM11jMVtjSF1bY0hdYyhbY0hdW2NIXTEpT1tDSDJdW0NIMl1uKGMobjIpW0NIMl1bTkhdW0NIXT1PKWMoYzIzKVtjSF1bY0hdW2NIXVtjSF0z

> <s_epik_cmdline>
J2VwaWtfcHl0aG9uJywgJy1waCcsICc3LjAnLCAnLXRuJywgJzgnLCAnLW1hJywgJzIwMCcsICctbWV0YWxfYmluZGluZycsICctaW1hZScsICc8aW5maWxlLm1hZT4nLCAnLW9tYWUnLCAnPG91dGZpbGUubWFlPic=

> <r_lp_tautomer_probability>
1

> <r_epik_Ionization_Penalty>
0.0586177

> <r_epik_Ionization_Penalty_Charging>
0

> <r_epik_Ionization_Penalty_Neutral>
0.0586177

> <r_epik_State_Penalty>
0.0507031

> <r_epik_Charging_Adjusted_Penalty>
0.0507031

> <i_epik_Tot_Q>
0

> <i_epik_Tot_abs_Q>
0

> <r_epik_Metal_State_Penalty>
0.0461069

> <b_epik_Metal_Only>
0

> <s_lp_Force_Field>
OPLS_2005

> <r_lp_Energy>
12.744

> <b_lp_Chiralities_Consistent>
1

> <s_lp_Variant>
AV-unprocessed.smi:1853-1

> <Gold.Version>
5.8.1

> <Gold.Id.Protein>
6NUR|6NUR_protein|mol2

> <Gold.PLP.Fitness>
46.7840

> <Gold.PLP.PLP>
-43.0916

> <Gold.PLP.part.hbond>
-2.0000

> <Gold.PLP.part.metal>
0.0000

> <Gold.PLP.part.buried>
-4.5242

> <Gold.PLP.part.nonpolar>
-35.9989

> <Gold.PLP.part.repulsive>
0.1847

> <Gold.PLP.ligand.clash>
0.0000

> <Gold.PLP.ligand.torsion>
0.9154

> <Gold.PLP.Chemscore.Hbond>
1.7808

> <Gold.PLP.Chemscore.CHOScore>
0.0000

> <Gold.PLP.Chemscore.Metal>
0.0000

> <Gold.Chemscore.Hbonds>
donor molecule, donor type, donor heavy atom, donor atom, acceptor molecule, acceptor atom, score
      P1  H  7989  7998       L1     6  0.73
      P1  H 10752 10765       L1    14  0.99

> <Gold.PLP.Chemscore.Internal.Correction>
0.1808

> <Gold.Rescore>
     Score         DG    S(hbond)    S(metal)    S(lipo)     H(rot)  DE(clash)    DE(int)     intcor
     15.08     -16.05       1.08        0.00     112.00       2.40       0.07       0.91       ----

> <Gold.Chemscore.Fitness>
15.0756

> <Gold.Chemscore.DG>
-16.0524

> <Gold.Chemscore.ZeroCoef>
-5.4800

> <Gold.Chemscore.Hbond>
1.0792

> <Gold.Chemscore.Metal>
0.0000

> <Gold.Chemscore.Lipo>
112.0001

> <Gold.Chemscore.Internal_Hbond>
0.0000

> <Gold.Chemscore.DEClash>
0.0655

> <Gold.Chemscore.DEInternal>
0.9112

> <Gold.Chemscore.Rot>
2.3969

> <Gold.Chemscore.Internal.Correction>
   9.000000E+99

> <Gold.Chemscore.Hbonds>
donor molecule, donor type, donor heavy atom, donor atom, acceptor molecule, acceptor atom, score
      P1  H  7989  7998       L1     6  0.08
      P1  H 10752 10765       L1    14  0.92

> <Gold.Chemscore.Hbond.Weighted>
-3.6045

> <Gold.Chemscore.Metal.Weighted>
-0.0000

> <Gold.Chemscore.Lipo.Weighted>
-13.1040

> <Gold.Chemscore.Internal_Hbond.Weighted>
0.0000

> <Gold.Chemscore.DEClash.Weighted>
0.0655

> <Gold.Chemscore.DEInternal.Weighted>
0.9112

> <Gold.Chemscore.Rot.Weighted>
6.1361

> <Gold.Chemscore.Internal.Correction.Weighted>
   9.000000E+99

> <Gold.Protein.RotatedTorsions>
[ 6907 6896 6895 6894 ] final -132.67 input  -60.11 | X-H torsion
[ 7974 7965 7964 7962 ] final   46.40 input  175.53 | X-H torsion
[ 8008 7997 7996 7995 ] final  -32.20 input   59.86 | X-H torsion
[ 10167 10162 10161 10158 ] final   78.37 input  -65.29 | X-H torsion
[ 10718 10713 10712 10709 ] final  -32.51 input   66.30 | X-H torsion
[ 10763 10752 10751 10750 ] final  -96.31 input  -60.55 | X-H torsion
[ 11005 11000 10999 10996 ] final  -83.24 input  -57.11 | X-H torsion

> <Gold.Protein.ActiveResidues>
 VAL166  LYS551  ARG553  GLY616  TRP617  ASP618  TYR619  PRO620  LYS621  CYS622 
 ASP623  PHE694  ASN695  SER759  ASP760  ASP761  ALA762  ILE779  LEU786  VAL792 
 PHE793  MET794  SER795  GLU796  ALA797  LYS798  CYS799  TRP800  GLU811  SER814 

> <Gold.Protein.RotatedAtoms>
  150.9650  133.6404  159.2747 H   0  0  0  0  0  0  0  0  0  0  0  0  # atno 6907 bound_to 6896
  151.3713  135.0922  159.9476 H   0  0  0  0  0  0  0  0  0  0  0  0  # atno 6908 bound_to 6896
  152.5162  133.9204  159.7586 H   0  0  0  0  0  0  0  0  0  0  0  0  # atno 6909 bound_to 6896
  146.0393  139.4860  142.9788 H   0  0  0  0  0  0  0  0  0  0  0  0  # atno 7974 bound_to 7965
  154.4188  140.1744  156.1689 H   0  0  0  0  0  0  0  0  0  0  0  0  # atno 8008 bound_to 7997
  155.9777  140.3380  155.6610 H   0  0  0  0  0  0  0  0  0  0  0  0  # atno 8009 bound_to 7997
  155.6542  140.0693  157.2567 H   0  0  0  0  0  0  0  0  0  0  0  0  # atno 8010 bound_to 7997
  139.9716  144.5890  150.7980 H   0  0  0  0  0  0  0  0  0  0  0  0  # atno 10167 bound_to 10162
  156.3740  130.4344  149.7522 H   0  0  0  0  0  0  0  0  0  0  0  0  # atno 10718 bound_to 10713
  154.7228  135.5088  153.8838 H   0  0  0  0  0  0  0  0  0  0  0  0  # atno 10763 bound_to 10752
  153.0877  135.6650  153.9924 H   0  0  0  0  0  0  0  0  0  0  0  0  # atno 10764 bound_to 10752
  153.9743  135.3035  155.3404 H   0  0  0  0  0  0  0  0  0  0  0  0  # atno 10765 bound_to 10752
  141.1659  133.7284  156.8691 H   0  0  0  0  0  0  0  0  0  0  0  0  # atno 11005 bound_to 11000
  145.6911  141.0164  143.1555 LP  0  0  0  0  0  0  0  0  0  0  0  0  # atno 17320 bound_to 7965
  144.7067  139.8534  143.7428 LP  0  0  0  0  0  0  0  0  0  0  0  0  # atno 17321 bound_to 7965
  140.7520  143.2982  151.3149 LP  0  0  0  0  0  0  0  0  0  0  0  0  # atno 17342 bound_to 10162
  139.6477  144.0421  152.2603 LP  0  0  0  0  0  0  0  0  0  0  0  0  # atno 17343 bound_to 10162
  156.4638  130.7964  151.2984 LP  0  0  0  0  0  0  0  0  0  0  0  0  # atno 17370 bound_to 10713
  157.7486  131.0057  150.3124 LP  0  0  0  0  0  0  0  0  0  0  0  0  # atno 17371 bound_to 10713
  140.1794  134.9044  157.2931 LP  0  0  0  0  0  0  0  0  0  0  0  0  # atno 17394 bound_to 11000
  140.2412  134.3794  155.7480 LP  0  0  0  0  0  0  0  0  0  0  0  0  # atno 17395 bound_to 11000

$$$$
