AV-unprocessed.smi:1795|AV-procd|sdf|7238|dock9
  -GOLD-   22720 8483D 1   1.00000     0.00000
 Structure written by MMmdl.
 47 48  0  0  0  0  0  0  0  0  1 V2000
  146.8597  136.5691  155.8566 C   0  0  0  0  0  0  0  0  0  0  0  0
  146.6030  137.9175  155.1753 C   0  0  1  0  0  0  0  0  0  0  0  0
  147.6403  138.9813  155.5820 C   0  0  0  0  0  0  0  0  0  0  0  0
  147.4536  140.2596  154.8868 N   0  0  0  0  0  0  0  0  0  0  0  0
  148.4725  141.2649  155.2705 C   0  0  2  0  0  0  0  0  0  0  0  0
  149.8966  140.8910  154.7860 C   0  0  0  0  0  0  0  0  0  0  0  0
  148.5239  141.5411  156.8018 C   0  0  0  0  0  0  0  0  0  0  0  0
  149.6567  142.3708  157.2035 N   0  0  0  0  0  0  0  0  0  0  0  0
  150.6939  141.9500  157.9432 C   0  0  0  0  0  0  0  0  0  0  0  0
  150.7916  140.7988  158.3713 O   0  0  0  0  0  0  0  0  0  0  0  0
  151.7669  143.0025  158.2567 C   0  0  0  0  0  0  0  0  0  0  0  0
  152.1540  143.0368  159.6771 N   0  0  0  0  0  0  0  0  0  0  0  0
  152.7795  141.8868  160.1989 C   0  0  0  0  0  0  0  0  0  0  0  0
  153.1786  141.8143  161.4786 C   0  0  0  0  0  0  0  0  0  0  0  0
  152.9508  142.9576  162.3303 C   0  0  0  0  0  0  0  0  0  0  0  0
  152.3562  144.0638  161.8407 C   0  0  0  0  0  0  0  0  0  0  0  0
  151.9215  144.1487  160.4413 C   0  0  0  0  0  0  0  0  0  0  0  0
  151.3822  145.1570  159.9844 O   0  0  0  0  0  0  0  0  0  0  0  0
  147.4414  139.9890  153.4446 C   0  0  0  0  0  0  0  0  0  0  0  0
  146.4093  138.9190  153.0403 C   0  0  1  0  0  0  0  0  0  0  0  0
  146.4723  138.5915  151.5445 C   0  0  0  0  0  0  0  0  0  0  0  0
  146.6630  137.7243  153.7681 O   0  0  0  0  0  0  0  0  0  0  0  0
  146.8101  136.6623  156.9419 H   0  0  0  0  0  0  0  0  0  0  0  0
  147.8437  136.1770  155.5981 H   0  0  0  0  0  0  0  0  0  0  0  0
  146.1169  135.8314  155.5527 H   0  0  0  0  0  0  0  0  0  0  0  0
  145.6025  138.2603  155.4451 H   0  0  0  0  0  0  0  0  0  0  0  0
  147.5530  139.1161  156.6586 H   0  0  0  0  0  0  0  0  0  0  0  0
  148.6453  138.6018  155.3903 H   0  0  0  0  0  0  0  0  0  0  0  0
  148.2092  142.2046  154.7828 H   0  0  0  0  0  0  0  0  0  0  0  0
  150.6505  141.6030  155.1199 H   0  0  0  0  0  0  0  0  0  0  0  0
  149.9756  140.8848  153.6999 H   0  0  0  0  0  0  0  0  0  0  0  0
  150.1913  139.9071  155.1520 H   0  0  0  0  0  0  0  0  0  0  0  0
  147.6286  142.0470  157.1601 H   0  0  0  0  0  0  0  0  0  0  0  0
  148.5820  140.5984  157.3469 H   0  0  0  0  0  0  0  0  0  0  0  0
  149.6496  143.3326  156.8958 H   0  0  0  0  0  0  0  0  0  0  0  0
  152.6440  142.8214  157.6323 H   0  0  0  0  0  0  0  0  0  0  0  0
  151.3893  143.9761  157.9414 H   0  0  0  0  0  0  0  0  0  0  0  0
  152.9197  141.0792  159.4951 H   0  0  0  0  0  0  0  0  0  0  0  0
  153.6610  140.9264  161.8600 H   0  0  0  0  0  0  0  0  0  0  0  0
  153.2598  142.9264  163.3647 H   0  0  0  0  0  0  0  0  0  0  0  0
  152.1952  144.9098  162.4927 H   0  0  0  0  0  0  0  0  0  0  0  0
  147.1915  140.8892  152.8873 H   0  0  0  0  0  0  0  0  0  0  0  0
  148.4360  139.6791  153.1194 H   0  0  0  0  0  0  0  0  0  0  0  0
  145.4047  139.2731  153.2784 H   0  0  0  0  0  0  0  0  0  0  0  0
  146.2700  139.4760  150.9399 H   0  0  0  0  0  0  0  0  0  0  0  0
  145.7350  137.8328  151.2807 H   0  0  0  0  0  0  0  0  0  0  0  0
  147.4556  138.2121  151.2646 H   0  0  0  0  0  0  0  0  0  0  0  0
  1  2  1  0  0  0  0
  1 23  1  0  0  0  0
  1 24  1  0  0  0  0
  1 25  1  0  0  0  0
  2 22  1  0  0  0  0
  2  3  1  0  0  0  0
  2 26  1  0  0  0  0
  3  4  1  0  0  0  0
  3 27  1  0  0  0  0
  3 28  1  0  0  0  0
  4  5  1  0  0  0  0
  4 19  1  0  0  0  0
  5  6  1  0  0  0  0
  5  7  1  0  0  0  0
  5 29  1  0  0  0  0
  6 30  1  0  0  0  0
  6 31  1  0  0  0  0
  6 32  1  0  0  0  0
  7  8  1  0  0  0  0
  7 33  1  0  0  0  0
  7 34  1  0  0  0  0
  8  9  1  0  0  0  0
  8 35  1  0  0  0  0
  9 10  2  0  0  0  0
  9 11  1  0  0  0  0
 11 12  1  0  0  0  0
 11 36  1  0  0  0  0
 11 37  1  0  0  0  0
 12 17  1  0  0  0  0
 12 13  1  0  0  0  0
 13 14  2  0  0  0  0
 13 38  1  0  0  0  0
 14 15  1  0  0  0  0
 14 39  1  0  0  0  0
 15 16  2  0  0  0  0
 15 40  1  0  0  0  0
 16 17  1  0  0  0  0
 16 41  1  0  0  0  0
 17 18  2  0  0  0  0
 19 20  1  0  0  0  0
 19 42  1  0  0  0  0
 19 43  1  0  0  0  0
 20 21  1  0  0  0  0
 20 22  1  0  0  0  0
 20 44  1  0  0  0  0
 21 45  1  0  0  0  0
 21 46  1  0  0  0  0
 21 47  1  0  0  0  0
M  END
> <s_m_source_file>
AV-unprocessed.smi

> <i_m_source_file_index>
1795

> <i_lp_mmshare_version>
43012

> <i_f3d_flags>
0

> <s_epik_input>
W0NIM11bQ0BASF0xW0NIMl1OKFtDSDJdW0NASF0oTzEpW0NIM10pW0NASF0oW0NIM10pW0NIMl1bTkhdQyg9TylbQ0gyXW4yW2NIXVtjSF1bY0hdW2NIXWMyPU8=

> <s_epik_cmdline>
J2VwaWtfcHl0aG9uJywgJy1waCcsICc3LjAnLCAnLXRuJywgJzgnLCAnLW1hJywgJzIwMCcsICctbWV0YWxfYmluZGluZycsICctaW1hZScsICc8aW5maWxlLm1hZT4nLCAnLW9tYWUnLCAnPG91dGZpbGUubWFlPic=

> <r_lp_tautomer_probability>
1

> <r_epik_Ionization_Penalty>
0.237383

> <r_epik_Ionization_Penalty_Charging>
3.58805e-07

> <r_epik_Ionization_Penalty_Neutral>
0.237382

> <r_epik_State_Penalty>
0.228245

> <r_epik_Charging_Adjusted_Penalty>
0.228245

> <i_epik_Tot_Q>
0

> <i_epik_Tot_abs_Q>
0

> <r_epik_Metal_State_Penalty>
0.228221

> <b_epik_Metal_Only>
0

> <s_lp_Force_Field>
OPLS_2005

> <r_lp_Energy>
36.5545

> <b_lp_Chiralities_Consistent>
1

> <s_lp_Variant>
AV-unprocessed.smi:1795-2

> <Gold.Version>
5.8.1

> <Gold.Id.Protein>
6NUR|6NUR_protein|mol2

> <Gold.PLP.Fitness>
43.4241

> <Gold.PLP.PLP>
-41.0021

> <Gold.PLP.part.hbond>
-1.0000

> <Gold.PLP.part.metal>
0.0000

> <Gold.PLP.part.buried>
-2.3694

> <Gold.PLP.part.nonpolar>
-38.0062

> <Gold.PLP.part.repulsive>
0.3976

> <Gold.PLP.ligand.clash>
0.0000

> <Gold.PLP.ligand.torsion>
0.2879

> <Gold.PLP.Chemscore.Hbond>
0.9833

> <Gold.PLP.Chemscore.CHOScore>
0.0000

> <Gold.PLP.Chemscore.Metal>
0.0000

> <Gold.Chemscore.Hbonds>
donor molecule, donor type, donor heavy atom, donor atom, acceptor molecule, acceptor atom, score
      L1  H     8    35       P1  8028  0.98

> <Gold.PLP.Chemscore.Internal.Correction>
0.0478

> <Gold.Rescore>
     Score         DG    S(hbond)    S(metal)    S(lipo)     H(rot)  DE(clash)    DE(int)     intcor
     13.03     -15.23       0.92        0.00      97.11       1.83       0.73       1.47       ----

> <Gold.Chemscore.Fitness>
13.0319

> <Gold.Chemscore.DG>
-15.2287

> <Gold.Chemscore.ZeroCoef>
-5.4800

> <Gold.Chemscore.Hbond>
0.9161

> <Gold.Chemscore.Metal>
0.0000

> <Gold.Chemscore.Lipo>
97.1062

> <Gold.Chemscore.Internal_Hbond>
0.0000

> <Gold.Chemscore.DEClash>
0.7272

> <Gold.Chemscore.DEInternal>
1.4697

> <Gold.Chemscore.Rot>
1.8251

> <Gold.Chemscore.Internal.Correction>
   9.000000E+99

> <Gold.Chemscore.Hbonds>
donor molecule, donor type, donor heavy atom, donor atom, acceptor molecule, acceptor atom, score
      L1  H     8    35       P1  8028  0.89

> <Gold.Chemscore.Hbond.Weighted>
-3.0597

> <Gold.Chemscore.Metal.Weighted>
-0.0000

> <Gold.Chemscore.Lipo.Weighted>
-11.3614

> <Gold.Chemscore.Internal_Hbond.Weighted>
0.0000

> <Gold.Chemscore.DEClash.Weighted>
0.7272

> <Gold.Chemscore.DEInternal.Weighted>
1.4697

> <Gold.Chemscore.Rot.Weighted>
4.6724

> <Gold.Chemscore.Internal.Correction.Weighted>
   9.000000E+99

> <Gold.Protein.RotatedTorsions>
[ 6907 6896 6895 6894 ] final  -52.82 input  -60.11 | X-H torsion
[ 7974 7965 7964 7962 ] final -125.07 input  175.53 | X-H torsion
[ 8008 7997 7996 7995 ] final  150.19 input   59.86 | X-H torsion
[ 10167 10162 10161 10158 ] final   27.80 input  -65.29 | X-H torsion
[ 10718 10713 10712 10709 ] final  117.41 input   66.30 | X-H torsion
[ 10763 10752 10751 10750 ] final   50.07 input  -60.55 | X-H torsion
[ 11005 11000 10999 10996 ] final  -25.55 input  -57.11 | X-H torsion

> <Gold.Protein.ActiveResidues>
 VAL166  LYS551  ARG553  GLY616  TRP617  ASP618  TYR619  PRO620  LYS621  CYS622 
 ASP623  PHE694  ASN695  SER759  ASP760  ASP761  ALA762  ILE779  LEU786  VAL792 
 PHE793  MET794  SER795  GLU796  ALA797  LYS798  CYS799  TRP800  GLU811  SER814 

> <Gold.Protein.RotatedAtoms>
  150.8483  134.7799  159.6987 H   0  0  0  0  0  0  0  0  0  0  0  0  # atno 6907 bound_to 6896
  152.4554  134.5299  159.9817 H   0  0  0  0  0  0  0  0  0  0  0  0  # atno 6908 bound_to 6896
  151.5425  133.3392  159.2974 H   0  0  0  0  0  0  0  0  0  0  0  0  # atno 6909 bound_to 6896
  145.0014  140.7824  143.4494 H   0  0  0  0  0  0  0  0  0  0  0  0  # atno 7974 bound_to 7965
  156.2726  140.2081  156.5977 H   0  0  0  0  0  0  0  0  0  0  0  0  # atno 8008 bound_to 7997
  154.6931  140.0528  157.0407 H   0  0  0  0  0  0  0  0  0  0  0  0  # atno 8009 bound_to 7997
  155.0838  140.3189  155.4596 H   0  0  0  0  0  0  0  0  0  0  0  0  # atno 8010 bound_to 7997
  140.4907  144.0471  150.6296 H   0  0  0  0  0  0  0  0  0  0  0  0  # atno 10167 bound_to 10162
  157.6098  131.1037  150.7611 H   0  0  0  0  0  0  0  0  0  0  0  0  # atno 10718 bound_to 10713
  152.9785  135.5891  154.4192 H   0  0  0  0  0  0  0  0  0  0  0  0  # atno 10763 bound_to 10752
  154.3818  135.2767  155.2208 H   0  0  0  0  0  0  0  0  0  0  0  0  # atno 10764 bound_to 10752
  154.4119  135.6079  153.6012 H   0  0  0  0  0  0  0  0  0  0  0  0  # atno 10765 bound_to 10752
  140.8948  133.7564  156.0467 H   0  0  0  0  0  0  0  0  0  0  0  0  # atno 11005 bound_to 11000
  145.2148  139.2187  143.5124 LP  0  0  0  0  0  0  0  0  0  0  0  0  # atno 17320 bound_to 7965
  146.3452  140.1993  142.8589 LP  0  0  0  0  0  0  0  0  0  0  0  0  # atno 17321 bound_to 7965
  140.3740  143.2839  152.0246 LP  0  0  0  0  0  0  0  0  0  0  0  0  # atno 17342 bound_to 10162
  139.4851  144.6208  151.7259 LP  0  0  0  0  0  0  0  0  0  0  0  0  # atno 17343 bound_to 10162
  156.7991  130.4915  149.5372 LP  0  0  0  0  0  0  0  0  0  0  0  0  # atno 17370 bound_to 10713
  156.1197  130.6101  151.0174 LP  0  0  0  0  0  0  0  0  0  0  0  0  # atno 17371 bound_to 10713
  140.8303  134.3186  157.5351 LP  0  0  0  0  0  0  0  0  0  0  0  0  # atno 17394 bound_to 11000
  139.8734  134.9359  156.3647 LP  0  0  0  0  0  0  0  0  0  0  0  0  # atno 17395 bound_to 11000

$$$$
