AV-unprocessed.smi:2451|AV-procd|sdf|9676|dock4
  -GOLD-   2272013313D 1   1.00000     0.00000
 Structure written by MMmdl.
 38 39  0  0  0  0  0  0  0  0  1 V2000
  153.4376  142.6428  162.5501 C   0  0  0  0  0  0  0  0  0  0  0  0
  152.5437  142.8944  161.3229 C   0  0  1  0  0  0  0  0  0  0  0  0
  152.1213  144.3768  161.2798 C   0  0  0  0  0  0  0  0  0  0  0  0
  151.2055  144.6797  160.0874 C   0  0  0  0  0  0  0  0  0  0  0  0
  151.8711  144.2858  158.7614 C   0  0  0  0  0  0  0  0  0  0  0  0
  152.3310  142.8142  158.7604 C   0  0  2  0  0  0  0  0  0  0  0  0
  151.1782  141.9052  158.6799 N   0  0  0  0  0  0  0  0  0  0  0  0
  151.2187  140.5608  157.5970 S   0  0  0  0  0  0  0  0  0  0  0  0
  152.5770  139.9980  157.6396 O   0  0  0  0  0  0  0  0  0  0  0  0
  150.0566  139.7061  157.8858 O   0  0  0  0  0  0  0  0  0  0  0  0
  150.9555  141.3667  155.9619 C   0  0  0  0  0  0  0  0  0  0  0  0
  149.8220  140.6906  155.2452 C   0  0  0  0  0  0  0  0  0  0  0  0
  148.6180  141.2667  154.7531 C   0  0  0  0  0  0  0  0  0  0  0  0
  147.9601  140.2061  154.2001 C   0  0  0  0  0  0  0  0  0  0  0  0
  148.6928  139.0716  154.3317 O   0  0  0  0  0  0  0  0  0  0  0  0
  149.8811  139.3915  154.9981 N   0  0  0  0  0  0  0  0  0  0  0  0
  153.2180  142.4778  159.9869 C   0  0  2  0  0  0  0  0  0  0  0  0
  153.6874  141.0091  159.9583 C   0  0  0  0  0  0  0  0  0  0  0  0
  154.3945  143.1571  162.4568 H   0  0  0  0  0  0  0  0  0  0  0  0
  153.6385  141.5813  162.6932 H   0  0  0  0  0  0  0  0  0  0  0  0
  152.9583  142.9988  163.4623 H   0  0  0  0  0  0  0  0  0  0  0  0
  151.6411  142.2951  161.4514 H   0  0  0  0  0  0  0  0  0  0  0  0
  151.6079  144.6454  162.2039 H   0  0  0  0  0  0  0  0  0  0  0  0
  153.0071  145.0115  161.2260 H   0  0  0  0  0  0  0  0  0  0  0  0
  150.2631  144.1426  160.2014 H   0  0  0  0  0  0  0  0  0  0  0  0
  150.9539  145.7406  160.0734 H   0  0  0  0  0  0  0  0  0  0  0  0
  151.1992  144.4876  157.9270 H   0  0  0  0  0  0  0  0  0  0  0  0
  152.7400  144.9256  158.6023 H   0  0  0  0  0  0  0  0  0  0  0  0
  152.9348  142.6550  157.8663 H   0  0  0  0  0  0  0  0  0  0  0  0
  150.3086  142.4282  158.5795 H   0  0  0  0  0  0  0  0  0  0  0  0
  150.7388  142.4214  156.1295 H   0  0  0  0  0  0  0  0  0  0  0  0
  151.8838  141.3035  155.3934 H   0  0  0  0  0  0  0  0  0  0  0  0
  148.2879  142.2937  154.8033 H   0  0  0  0  0  0  0  0  0  0  0  0
  147.0094  140.1020  153.6986 H   0  0  0  0  0  0  0  0  0  0  0  0
  154.1188  143.0853  159.8866 H   0  0  0  0  0  0  0  0  0  0  0  0
  152.8710  140.3216  160.1805 H   0  0  0  0  0  0  0  0  0  0  0  0
  154.4815  140.8264  160.6819 H   0  0  0  0  0  0  0  0  0  0  0  0
  154.0861  140.7450  158.9784 H   0  0  0  0  0  0  0  0  0  0  0  0
  1  2  1  0  0  0  0
  1 19  1  0  0  0  0
  1 20  1  0  0  0  0
  1 21  1  0  0  0  0
  2 17  1  0  0  0  0
  2  3  1  0  0  0  0
  2 22  1  0  0  0  0
  3  4  1  0  0  0  0
  3 23  1  0  0  0  0
  3 24  1  0  0  0  0
  4  5  1  0  0  0  0
  4 25  1  0  0  0  0
  4 26  1  0  0  0  0
  5  6  1  0  0  0  0
  5 27  1  0  0  0  0
  5 28  1  0  0  0  0
  6  7  1  0  0  0  0
  6 17  1  0  0  0  0
  6 29  1  0  0  0  0
  7  8  1  0  0  0  0
  7 30  1  0  0  0  0
  8  9  2  0  0  0  0
  8 10  2  0  0  0  0
  8 11  1  0  0  0  0
 11 12  1  0  0  0  0
 11 31  1  0  0  0  0
 11 32  1  0  0  0  0
 12 16  2  0  0  0  0
 12 13  1  0  0  0  0
 13 14  2  0  0  0  0
 13 33  1  0  0  0  0
 14 15  1  0  0  0  0
 14 34  1  0  0  0  0
 15 16  1  0  0  0  0
 17 18  1  0  0  0  0
 17 35  1  0  0  0  0
 18 36  1  0  0  0  0
 18 37  1  0  0  0  0
 18 38  1  0  0  0  0
M  END
> <s_m_source_file>
AV-unprocessed.smi

> <i_m_source_file_index>
2451

> <i_lp_mmshare_version>
43012

> <i_f3d_flags>
0

> <s_epik_input>
W0NIM11bQ0BASF0xW0NIMl1bQ0gyXVtDSDJdW0NASF0oW0NASF0xW0NIM10pW05IXVMoPU8pKD1PKVtDSDJdYzJbY0hdW2NIXW9uMg==

> <s_epik_cmdline>
J2VwaWtfcHl0aG9uJywgJy1waCcsICc3LjAnLCAnLXRuJywgJzgnLCAnLW1hJywgJzIwMCcsICctbWV0YWxfYmluZGluZycsICctaW1hZScsICc8aW5maWxlLm1hZT4nLCAnLW9tYWUnLCAnPG91dGZpbGUubWFlPic=

> <r_lp_tautomer_probability>
1

> <r_epik_Ionization_Penalty>
8.73668e-05

> <r_epik_Ionization_Penalty_Charging>
0

> <r_epik_Ionization_Penalty_Neutral>
8.73668e-05

> <r_epik_State_Penalty>
-0

> <r_epik_Charging_Adjusted_Penalty>
0

> <i_epik_Tot_Q>
0

> <i_epik_Tot_abs_Q>
0

> <r_epik_Metal_State_Penalty>
0.0716439

> <b_epik_Metal_Only>
0

> <s_lp_Force_Field>
OPLS_2005

> <r_lp_Energy>
8.50206

> <b_lp_Chiralities_Consistent>
1

> <s_lp_Variant>
AV-unprocessed.smi:2451-8

> <Gold.Version>
5.8.1

> <Gold.Id.Protein>
6NUR|6NUR_protein|mol2

> <Gold.PLP.Fitness>
45.3646

> <Gold.PLP.PLP>
-44.2118

> <Gold.PLP.part.hbond>
-1.0000

> <Gold.PLP.part.metal>
0.0000

> <Gold.PLP.part.buried>
-5.6811

> <Gold.PLP.part.nonpolar>
-37.1080

> <Gold.PLP.part.repulsive>
0.2465

> <Gold.PLP.ligand.clash>
0.0000

> <Gold.PLP.ligand.torsion>
0.9985

> <Gold.PLP.Chemscore.Hbond>
1.0000

> <Gold.PLP.Chemscore.CHOScore>
0.0000

> <Gold.PLP.Chemscore.Metal>
0.0000

> <Gold.Chemscore.Hbonds>
donor molecule, donor type, donor heavy atom, donor atom, acceptor molecule, acceptor atom, score
      P1  H  7997  8009       L1     9  0.98

> <Gold.PLP.Chemscore.Internal.Correction>
0.1496

> <Gold.Rescore>
     Score         DG    S(hbond)    S(metal)    S(lipo)     H(rot)  DE(clash)    DE(int)     intcor
     15.83     -18.43       0.99        0.00     118.78       1.66       0.01       2.59       ----

> <Gold.Chemscore.Fitness>
15.8287

> <Gold.Chemscore.DG>
-18.4283

> <Gold.Chemscore.ZeroCoef>
-5.4800

> <Gold.Chemscore.Hbond>
0.9874

> <Gold.Chemscore.Metal>
0.0000

> <Gold.Chemscore.Lipo>
118.7765

> <Gold.Chemscore.Internal_Hbond>
0.0000

> <Gold.Chemscore.DEClash>
0.0093

> <Gold.Chemscore.DEInternal>
2.5903

> <Gold.Chemscore.Rot>
1.6588

> <Gold.Chemscore.Internal.Correction>
   9.000000E+99

> <Gold.Chemscore.Hbonds>
donor molecule, donor type, donor heavy atom, donor atom, acceptor molecule, acceptor atom, score
      P1  H  7997  8009       L1     9  0.91

> <Gold.Chemscore.Hbond.Weighted>
-3.2980

> <Gold.Chemscore.Metal.Weighted>
-0.0000

> <Gold.Chemscore.Lipo.Weighted>
-13.8969

> <Gold.Chemscore.Internal_Hbond.Weighted>
0.0000

> <Gold.Chemscore.DEClash.Weighted>
0.0093

> <Gold.Chemscore.DEInternal.Weighted>
2.5903

> <Gold.Chemscore.Rot.Weighted>
4.2466

> <Gold.Chemscore.Internal.Correction.Weighted>
   9.000000E+99

> <Gold.Protein.RotatedTorsions>
[ 6907 6896 6895 6894 ] final  -23.26 input  -60.11 | X-H torsion
[ 7974 7965 7964 7962 ] final  -39.43 input  175.53 | X-H torsion
[ 8008 7997 7996 7995 ] final  172.66 input   59.86 | X-H torsion
[ 10167 10162 10161 10158 ] final  153.81 input  -65.29 | X-H torsion
[ 10718 10713 10712 10709 ] final    9.88 input   66.30 | X-H torsion
[ 10763 10752 10751 10750 ] final -169.60 input  -60.55 | X-H torsion
[ 11005 11000 10999 10996 ] final   60.00 input  -57.11 | X-H torsion

> <Gold.Protein.ActiveResidues>
 VAL166  LYS551  ARG553  GLY616  TRP617  ASP618  TYR619  PRO620  LYS621  CYS622 
 ASP623  PHE694  ASN695  SER759  ASP760  ASP761  ALA762  ILE779  LEU786  VAL792 
 PHE793  MET794  SER795  GLU796  ALA797  LYS798  CYS799  TRP800  GLU811  SER814 

> <Gold.Protein.RotatedAtoms>
  151.2065  135.0464  159.8893 H   0  0  0  0  0  0  0  0  0  0  0  0  # atno 6907 bound_to 6896
  152.5428  134.0792  159.8238 H   0  0  0  0  0  0  0  0  0  0  0  0  # atno 6908 bound_to 6896
  151.0939  133.5247  159.2645 H   0  0  0  0  0  0  0  0  0  0  0  0  # atno 6909 bound_to 6896
  146.0397  140.6625  142.9093 H   0  0  0  0  0  0  0  0  0  0  0  0  # atno 7974 bound_to 7965
  156.1152  140.1480  156.9282 H   0  0  0  0  0  0  0  0  0  0  0  0  # atno 8008 bound_to 7997
  154.4795  140.0884  156.7387 H   0  0  0  0  0  0  0  0  0  0  0  0  # atno 8009 bound_to 7997
  155.4526  140.3435  155.4305 H   0  0  0  0  0  0  0  0  0  0  0  0  # atno 8010 bound_to 7997
  139.4825  144.5241  151.7830 H   0  0  0  0  0  0  0  0  0  0  0  0  # atno 10167 bound_to 10162
  156.9728  130.5976  149.5670 H   0  0  0  0  0  0  0  0  0  0  0  0  # atno 10718 bound_to 10713
  154.6505  135.2911  154.9992 H   0  0  0  0  0  0  0  0  0  0  0  0  # atno 10763 bound_to 10752
  154.1087  135.6566  153.4885 H   0  0  0  0  0  0  0  0  0  0  0  0  # atno 10764 bound_to 10752
  153.0374  135.5260  154.7411 H   0  0  0  0  0  0  0  0  0  0  0  0  # atno 10765 bound_to 10752
  140.0263  134.6077  155.9568 H   0  0  0  0  0  0  0  0  0  0  0  0  # atno 11005 bound_to 11000
  144.7068  140.3885  143.7111 LP  0  0  0  0  0  0  0  0  0  0  0  0  # atno 17320 bound_to 7965
  145.6906  139.1638  143.2649 LP  0  0  0  0  0  0  0  0  0  0  0  0  # atno 17321 bound_to 7965
  140.4758  144.1521  150.5924 LP  0  0  0  0  0  0  0  0  0  0  0  0  # atno 17342 bound_to 10162
  140.4332  143.2559  151.9569 LP  0  0  0  0  0  0  0  0  0  0  0  0  # atno 17343 bound_to 10162
  156.0276  130.5369  150.8447 LP  0  0  0  0  0  0  0  0  0  0  0  0  # atno 17370 bound_to 10713
  157.5580  131.0945  150.9600 LP  0  0  0  0  0  0  0  0  0  0  0  0  # atno 17371 bound_to 10713
  141.1805  133.6546  156.5000 LP  0  0  0  0  0  0  0  0  0  0  0  0  # atno 17394 bound_to 11000
  140.4300  134.7110  157.4937 LP  0  0  0  0  0  0  0  0  0  0  0  0  # atno 17395 bound_to 11000

$$$$
