AV-unprocessed.smi:3308|AV-procd|sdf|12715|dock3
  -GOLD-   2272019 53D 1   1.00000     0.00000
 Structure written by MMmdl.
 40 41  0  0  0  0  0  0  0  0  1 V2000
  148.8910  138.3800  156.8140 C   0  0  0  0  0  0  0  0  0  0  0  0
  149.6679  139.7022  156.6903 C   0  0  1  0  0  0  0  0  0  0  0  0
  150.9362  139.4922  157.3933 N   0  0  0  0  0  0  0  0  0  0  0  0
  151.8067  140.6785  157.4644 C   0  0  0  0  0  0  0  0  0  0  0  0
  152.8240  140.6331  158.6203 C   0  0  0  0  0  0  0  0  0  0  0  0
  153.6554  139.7242  158.6325 O   0  0  0  0  0  0  0  0  0  0  0  0
  152.7799  141.5730  159.5895 N   0  0  0  0  0  0  0  0  0  0  0  0
  151.8254  142.6805  159.5825 C   0  0  0  0  0  0  0  0  0  0  0  0
  152.2970  143.6442  160.6711 C   0  0  0  0  0  0  0  0  0  0  0  0
  153.0613  142.7581  161.6436 C   0  0  0  0  0  0  0  0  0  0  0  0
  153.6500  141.6565  160.7622 C   0  0  0  0  0  0  0  0  0  0  0  0
  149.9413  140.1163  155.2170 C   0  0  1  0  0  0  0  0  0  0  0  0
  150.6915  139.0365  154.4118 C   0  0  0  0  0  0  0  0  0  0  0  0
  148.7106  140.4850  154.5253 N   0  0  0  0  0  0  0  0  0  0  0  0
  148.3150  141.7366  154.1001 C   0  0  0  0  0  0  0  0  0  0  0  0
  147.0806  141.6052  153.5314 C   0  0  0  0  0  0  0  0  0  0  0  0
  146.7958  140.2174  153.6591 C   0  0  0  0  0  0  0  0  0  0  0  0
  147.7701  139.5503  154.2552 N   0  0  0  0  0  0  0  0  0  0  0  0
  147.8827  138.4680  156.4101 H   0  0  0  0  0  0  0  0  0  0  0  0
  148.7849  138.0827  157.8581 H   0  0  0  0  0  0  0  0  0  0  0  0
  149.3938  137.5686  156.2863 H   0  0  0  0  0  0  0  0  0  0  0  0
  149.0702  140.4788  157.1692 H   0  0  0  0  0  0  0  0  0  0  0  0
  150.7480  139.1298  158.3173 H   0  0  0  0  0  0  0  0  0  0  0  0
  152.3700  140.7438  156.5337 H   0  0  0  0  0  0  0  0  0  0  0  0
  151.1818  141.5676  157.4941 H   0  0  0  0  0  0  0  0  0  0  0  0
  151.7764  143.1757  158.6115 H   0  0  0  0  0  0  0  0  0  0  0  0
  150.8324  142.2939  159.8167 H   0  0  0  0  0  0  0  0  0  0  0  0
  152.9757  144.3805  160.2387 H   0  0  0  0  0  0  0  0  0  0  0  0
  151.4756  144.1833  161.1438 H   0  0  0  0  0  0  0  0  0  0  0  0
  153.8218  143.3020  162.2045 H   0  0  0  0  0  0  0  0  0  0  0  0
  152.3658  142.3204  162.3611 H   0  0  0  0  0  0  0  0  0  0  0  0
  153.7045  140.7124  161.3060 H   0  0  0  0  0  0  0  0  0  0  0  0
  154.6557  141.9279  160.4394 H   0  0  0  0  0  0  0  0  0  0  0  0
  150.5768  141.0036  155.2259 H   0  0  0  0  0  0  0  0  0  0  0  0
  151.6992  138.8772  154.7944 H   0  0  0  0  0  0  0  0  0  0  0  0
  150.7928  139.3296  153.3663 H   0  0  0  0  0  0  0  0  0  0  0  0
  150.1689  138.0797  154.4393 H   0  0  0  0  0  0  0  0  0  0  0  0
  148.9366  142.6086  154.2408 H   0  0  0  0  0  0  0  0  0  0  0  0
  146.4723  142.3829  153.0939 H   0  0  0  0  0  0  0  0  0  0  0  0
  145.9151  139.6788  153.3418 H   0  0  0  0  0  0  0  0  0  0  0  0
  1  2  1  0  0  0  0
  1 19  1  0  0  0  0
  1 20  1  0  0  0  0
  1 21  1  0  0  0  0
  2  3  1  0  0  0  0
  2 12  1  0  0  0  0
  2 22  1  0  0  0  0
  3  4  1  0  0  0  0
  3 23  1  0  0  0  0
  4  5  1  0  0  0  0
  4 24  1  0  0  0  0
  4 25  1  0  0  0  0
  5  6  2  0  0  0  0
  5  7  1  0  0  0  0
  7 11  1  0  0  0  0
  7  8  1  0  0  0  0
  8  9  1  0  0  0  0
  8 26  1  0  0  0  0
  8 27  1  0  0  0  0
  9 10  1  0  0  0  0
  9 28  1  0  0  0  0
  9 29  1  0  0  0  0
 10 11  1  0  0  0  0
 10 30  1  0  0  0  0
 10 31  1  0  0  0  0
 11 32  1  0  0  0  0
 11 33  1  0  0  0  0
 12 13  1  0  0  0  0
 12 14  1  0  0  0  0
 12 34  1  0  0  0  0
 13 35  1  0  0  0  0
 13 36  1  0  0  0  0
 13 37  1  0  0  0  0
 14 18  1  0  0  0  0
 14 15  1  0  0  0  0
 15 16  2  0  0  0  0
 15 38  1  0  0  0  0
 16 17  1  0  0  0  0
 16 39  1  0  0  0  0
 17 18  2  0  0  0  0
 17 40  1  0  0  0  0
M  END
> <s_m_source_file>
AV-unprocessed.smi

> <i_m_source_file_index>
3308

> <i_lp_mmshare_version>
43012

> <i_f3d_flags>
0

> <s_epik_input>
bjFbY0hdW2NIXVtjSF1uMVtDQEBIXShbQ0gzXSlbQ0BIXShbQ0gzXSlbTkhdW0NIMl1DKD1PKU4yW0NIMl1bQ0gyXVtDSDJdW0NIMl0y

> <s_epik_cmdline>
J2VwaWtfcHl0aG9uJywgJy1waCcsICc3LjAnLCAnLXRuJywgJzgnLCAnLW1hJywgJzIwMCcsICctbWV0YWxfYmluZGluZycsICctaW1hZScsICc8aW5maWxlLm1hZT4nLCAnLW9tYWUnLCAnPG91dGZpbGUubWFlPic=

> <r_lp_tautomer_probability>
1

> <r_epik_Ionization_Penalty>
0.918676

> <r_epik_Ionization_Penalty_Charging>
0

> <r_epik_Ionization_Penalty_Neutral>
0.918676

> <r_epik_State_Penalty>
0.958258

> <r_epik_Charging_Adjusted_Penalty>
0.958258

> <i_epik_Tot_Q>
0

> <i_epik_Tot_abs_Q>
0

> <r_epik_Metal_State_Penalty>
0.956879

> <b_epik_Metal_Only>
0

> <s_lp_Force_Field>
OPLS_2005

> <r_lp_Energy>
35.595

> <b_lp_Chiralities_Consistent>
1

> <s_lp_Variant>
AV-unprocessed.smi:3308-8

> <Gold.Version>
5.8.1

> <Gold.Id.Protein>
6NUR|6NUR_protein|mol2

> <Gold.PLP.Fitness>
45.6019

> <Gold.PLP.PLP>
-36.9728

> <Gold.PLP.part.hbond>
-1.0000

> <Gold.PLP.part.metal>
0.0000

> <Gold.PLP.part.buried>
-3.0541

> <Gold.PLP.part.nonpolar>
-31.6705

> <Gold.PLP.part.repulsive>
0.1308

> <Gold.PLP.ligand.clash>
0.0000

> <Gold.PLP.ligand.torsion>
0.2346

> <Gold.PLP.Chemscore.Hbond>
1.0000

> <Gold.PLP.Chemscore.CHOScore>
1.9977

> <Gold.PLP.Chemscore.Metal>
0.0000

> <Gold.Chemscore.Hbonds>
donor molecule, donor type, donor heavy atom, donor atom, acceptor molecule, acceptor atom, score
      P1  H  7997  8008       L1     6  1.00
      L1  C    15    38       P1  8028  1.00
      L1  C    17    40       P1 10175  1.00

> <Gold.PLP.Chemscore.Internal.Correction>
0.1050

> <Gold.Rescore>
     Score         DG    S(hbond)    S(metal)    S(lipo)     H(rot)  DE(clash)    DE(int)     intcor
     14.34     -14.85       0.90        0.00      91.91       1.72       0.10       0.41       ----

> <Gold.Chemscore.Fitness>
14.3379

> <Gold.Chemscore.DG>
-14.8507

> <Gold.Chemscore.ZeroCoef>
-5.4800

> <Gold.Chemscore.Hbond>
0.9043

> <Gold.Chemscore.Metal>
0.0000

> <Gold.Chemscore.Lipo>
91.9095

> <Gold.Chemscore.Internal_Hbond>
0.0000

> <Gold.Chemscore.DEClash>
0.0991

> <Gold.Chemscore.DEInternal>
0.4137

> <Gold.Chemscore.Rot>
1.7200

> <Gold.Chemscore.Internal.Correction>
   9.000000E+99

> <Gold.Chemscore.Hbonds>
donor molecule, donor type, donor heavy atom, donor atom, acceptor molecule, acceptor atom, score
      P1  H  7997  8008       L1     6  0.44

> <Gold.Chemscore.Hbond.Weighted>
-3.0204

> <Gold.Chemscore.Metal.Weighted>
-0.0000

> <Gold.Chemscore.Lipo.Weighted>
-10.7534

> <Gold.Chemscore.Internal_Hbond.Weighted>
0.0000

> <Gold.Chemscore.DEClash.Weighted>
0.0991

> <Gold.Chemscore.DEInternal.Weighted>
0.4137

> <Gold.Chemscore.Rot.Weighted>
4.4031

> <Gold.Chemscore.Internal.Correction.Weighted>
   9.000000E+99

> <Gold.Protein.RotatedTorsions>
[ 6907 6896 6895 6894 ] final -120.93 input  -60.11 | X-H torsion
[ 7974 7965 7964 7962 ] final -111.46 input  175.53 | X-H torsion
[ 8008 7997 7996 7995 ] final  -91.23 input   59.86 | X-H torsion
[ 10167 10162 10161 10158 ] final   74.06 input  -65.29 | X-H torsion
[ 10718 10713 10712 10709 ] final    9.72 input   66.30 | X-H torsion
[ 10763 10752 10751 10750 ] final -148.83 input  -60.55 | X-H torsion
[ 11005 11000 10999 10996 ] final -125.49 input  -57.11 | X-H torsion

> <Gold.Protein.ActiveResidues>
 VAL166  LYS551  ARG553  GLY616  TRP617  ASP618  TYR619  PRO620  LYS621  CYS622 
 ASP623  PHE694  ASN695  SER759  ASP760  ASP761  ALA762  ILE779  LEU786  VAL792 
 PHE793  MET794  SER795  GLU796  ALA797  LYS798  CYS799  TRP800  GLU811  SER814 

> <Gold.Protein.RotatedAtoms>
  150.8438  133.7894  159.3050 H   0  0  0  0  0  0  0  0  0  0  0  0  # atno 6907 bound_to 6896
  151.5587  135.1064  159.9977 H   0  0  0  0  0  0  0  0  0  0  0  0  # atno 6908 bound_to 6896
  152.4496  133.7560  159.6777 H   0  0  0  0  0  0  0  0  0  0  0  0  # atno 6909 bound_to 6896
  145.1558  140.8853  143.3620 H   0  0  0  0  0  0  0  0  0  0  0  0  # atno 7974 bound_to 7965
  154.7082  140.0522  157.0524 H   0  0  0  0  0  0  0  0  0  0  0  0  # atno 8008 bound_to 7997
  155.0591  140.3187  155.4647 H   0  0  0  0  0  0  0  0  0  0  0  0  # atno 8009 bound_to 7997
  156.2781  140.2102  156.5717 H   0  0  0  0  0  0  0  0  0  0  0  0  # atno 8010 bound_to 7997
  140.0178  144.5564  150.7606 H   0  0  0  0  0  0  0  0  0  0  0  0  # atno 10167 bound_to 10162
  156.9704  130.5967  149.5668 H   0  0  0  0  0  0  0  0  0  0  0  0  # atno 10718 bound_to 10713
  154.8211  135.3324  154.7034 H   0  0  0  0  0  0  0  0  0  0  0  0  # atno 10763 bound_to 10752
  153.7667  135.6928  153.4919 H   0  0  0  0  0  0  0  0  0  0  0  0  # atno 10764 bound_to 10752
  153.2073  135.4495  155.0286 H   0  0  0  0  0  0  0  0  0  0  0  0  # atno 10765 bound_to 10752
  140.9758  134.0742  157.3820 H   0  0  0  0  0  0  0  0  0  0  0  0  # atno 11005 bound_to 11000
  145.0383  139.3282  143.5990 LP  0  0  0  0  0  0  0  0  0  0  0  0  # atno 17320 bound_to 7965
  146.3489  139.9746  142.8702 LP  0  0  0  0  0  0  0  0  0  0  0  0  # atno 17321 bound_to 7965
  140.7355  143.2742  151.3794 LP  0  0  0  0  0  0  0  0  0  0  0  0  # atno 17342 bound_to 10162
  139.6161  144.1001  152.2346 LP  0  0  0  0  0  0  0  0  0  0  0  0  # atno 17343 bound_to 10162
  156.0285  130.5378  150.8471 LP  0  0  0  0  0  0  0  0  0  0  0  0  # atno 17370 bound_to 10713
  157.5596  131.0945  150.9578 LP  0  0  0  0  0  0  0  0  0  0  0  0  # atno 17371 bound_to 10713
  139.8930  135.0128  156.6875 LP  0  0  0  0  0  0  0  0  0  0  0  0  # atno 17394 bound_to 11000
  140.7261  133.9099  155.8179 LP  0  0  0  0  0  0  0  0  0  0  0  0  # atno 17395 bound_to 11000

$$$$
