AV-unprocessed.smi:715|AV-procd|sdf|3485|dock5
  -GOLD-   22720 0483D 1   1.00000     0.00000
 Structure written by MMmdl.
 39 40  0  0  0  0  0  0  0  0  1 V2000
  152.6429  138.3609  154.6369 C   0  0  0  0  0  0  0  0  0  0  0  0
  151.2920  138.8629  154.5054 N   0  0  0  0  0  0  0  0  0  0  0  0
  150.1656  138.1994  154.0689 C   0  0  0  0  0  0  0  0  0  0  0  0
  149.1228  139.0827  154.1178 C   0  0  0  0  0  0  0  0  0  0  0  0
  147.6758  138.8687  153.7595 C   0  0  1  0  0  0  0  0  0  0  0  0
  147.5303  138.6036  152.3786 O   0  0  0  0  0  0  0  0  0  0  0  0
  147.0943  137.6793  154.5435 C   0  0  0  0  0  0  0  0  0  0  0  0
  147.2882  136.4294  153.8196 N   0  0  0  0  0  0  0  0  0  0  0  0
  146.6487  135.2848  154.0980 C   0  0  0  0  0  0  0  0  0  0  0  0
  145.8155  135.1812  154.9985 O   0  0  0  0  0  0  0  0  0  0  0  0
  147.0008  134.0781  153.2208 C   0  0  0  0  0  0  0  0  0  0  0  0
  145.7991  133.5129  152.4350 C   0  0  0  0  0  0  0  0  0  0  0  0
  146.0914  132.2317  151.6445 C   0  0  0  0  0  0  0  0  0  0  0  0
  144.9989  132.1607  150.5710 C   0  0  0  0  0  0  0  0  0  0  0  0
  144.4429  133.5853  150.4232 C   0  0  0  0  0  0  0  0  0  0  0  0
  145.2733  134.4673  151.3607 C   0  0  0  0  0  0  0  0  0  0  0  0
  149.7268  140.2754  154.6092 C   0  0  0  0  0  0  0  0  0  0  0  0
  151.0232  140.1419  154.8372 N   0  0  0  0  0  0  0  0  0  0  0  0
  152.6755  137.3018  154.3792 H   0  0  0  0  0  0  0  0  0  0  0  0
  152.9853  138.4862  155.6646 H   0  0  0  0  0  0  0  0  0  0  0  0
  153.3067  138.9096  153.9679 H   0  0  0  0  0  0  0  0  0  0  0  0
  150.1961  137.1638  153.7636 H   0  0  0  0  0  0  0  0  0  0  0  0
  147.1004  139.7672  153.9873 H   0  0  0  0  0  0  0  0  0  0  0  0
  148.2461  139.0141  151.9177 H   0  0  0  0  0  0  0  0  0  0  0  0
  147.5274  137.6166  155.5435 H   0  0  0  0  0  0  0  0  0  0  0  0
  146.0200  137.8231  154.6719 H   0  0  0  0  0  0  0  0  0  0  0  0
  147.9620  136.4339  153.0678 H   0  0  0  0  0  0  0  0  0  0  0  0
  147.7790  134.3884  152.5229 H   0  0  0  0  0  0  0  0  0  0  0  0
  147.4379  133.2928  153.8396 H   0  0  0  0  0  0  0  0  0  0  0  0
  144.9789  133.3094  153.1261 H   0  0  0  0  0  0  0  0  0  0  0  0
  147.0670  132.3090  151.1621 H   0  0  0  0  0  0  0  0  0  0  0  0
  146.1073  131.3430  152.2765 H   0  0  0  0  0  0  0  0  0  0  0  0
  145.3977  131.7809  149.6298 H   0  0  0  0  0  0  0  0  0  0  0  0
  144.2030  131.4835  150.8841 H   0  0  0  0  0  0  0  0  0  0  0  0
  144.4893  133.9396  149.3931 H   0  0  0  0  0  0  0  0  0  0  0  0
  143.3956  133.6029  150.7274 H   0  0  0  0  0  0  0  0  0  0  0  0
  144.6936  135.2904  151.7796 H   0  0  0  0  0  0  0  0  0  0  0  0
  146.1074  134.8999  150.8061 H   0  0  0  0  0  0  0  0  0  0  0  0
  149.2617  141.2299  154.8062 H   0  0  0  0  0  0  0  0  0  0  0  0
  1  2  1  0  0  0  0
  1 19  1  0  0  0  0
  1 20  1  0  0  0  0
  1 21  1  0  0  0  0
  2 18  1  0  0  0  0
  2  3  1  0  0  0  0
  3  4  2  0  0  0  0
  3 22  1  0  0  0  0
  4  5  1  0  0  0  0
  4 17  1  0  0  0  0
  5  6  1  0  0  0  0
  5  7  1  0  0  0  0
  5 23  1  0  0  0  0
  6 24  1  0  0  0  0
  7  8  1  0  0  0  0
  7 25  1  0  0  0  0
  7 26  1  0  0  0  0
  8  9  1  0  0  0  0
  8 27  1  0  0  0  0
  9 10  2  0  0  0  0
  9 11  1  0  0  0  0
 11 12  1  0  0  0  0
 11 28  1  0  0  0  0
 11 29  1  0  0  0  0
 12 16  1  0  0  0  0
 12 13  1  0  0  0  0
 12 30  1  0  0  0  0
 13 14  1  0  0  0  0
 13 31  1  0  0  0  0
 13 32  1  0  0  0  0
 14 15  1  0  0  0  0
 14 33  1  0  0  0  0
 14 34  1  0  0  0  0
 15 16  1  0  0  0  0
 15 35  1  0  0  0  0
 15 36  1  0  0  0  0
 16 37  1  0  0  0  0
 16 38  1  0  0  0  0
 17 18  2  0  0  0  0
 17 39  1  0  0  0  0
M  END
> <s_m_source_file>
AV-unprocessed.smi

> <i_m_source_file_index>
715

> <i_lp_mmshare_version>
43012

> <i_f3d_flags>
0

> <s_epik_input>
W0NIM11uMVtjSF1jKFtjSF1uMSlbQ0BIXShbT0hdKVtDSDJdW05IXUMoPU8pW0NIMl1bQ0hdMltDSDJdW0NIMl1bQ0gyXVtDSDJdMg==

> <s_epik_cmdline>
J2VwaWtfcHl0aG9uJywgJy1waCcsICc3LjAnLCAnLXRuJywgJzgnLCAnLW1hJywgJzIwMCcsICctbWV0YWxfYmluZGluZycsICctaW1hZScsICc8aW5maWxlLm1hZT4nLCAnLW9tYWUnLCAnPG91dGZpbGUubWFlPic=

> <r_lp_tautomer_probability>
1

> <r_epik_Ionization_Penalty>
4.45533e-05

> <r_epik_Ionization_Penalty_Charging>
0

> <r_epik_Ionization_Penalty_Neutral>
4.45533e-05

> <r_epik_State_Penalty>
-0

> <r_epik_Charging_Adjusted_Penalty>
0

> <i_epik_Tot_Q>
0

> <i_epik_Tot_abs_Q>
0

> <r_epik_Metal_State_Penalty>
-0

> <b_epik_Metal_Only>
0

> <s_lp_Force_Field>
OPLS_2005

> <r_lp_Energy>
19.2831

> <b_lp_Chiralities_Consistent>
1

> <s_lp_Variant>
AV-unprocessed.smi:715-2

> <Gold.Version>
5.8.1

> <Gold.Id.Protein>
6NUR|6NUR_protein|mol2

> <Gold.PLP.Fitness>
43.5213

> <Gold.PLP.PLP>
-32.8994

> <Gold.PLP.part.hbond>
-4.0000

> <Gold.PLP.part.metal>
0.0000

> <Gold.PLP.part.buried>
-2.1445

> <Gold.PLP.part.nonpolar>
-26.5061

> <Gold.PLP.part.repulsive>
0.1003

> <Gold.PLP.ligand.clash>
0.0000

> <Gold.PLP.ligand.torsion>
0.4962

> <Gold.PLP.Chemscore.Hbond>
2.8500

> <Gold.PLP.Chemscore.CHOScore>
1.0082

> <Gold.PLP.Chemscore.Metal>
0.0000

> <Gold.Chemscore.Hbonds>
donor molecule, donor type, donor heavy atom, donor atom, acceptor molecule, acceptor atom, score
      L1  H     6    24       P1  7957  1.00
      L1  H     8    27       P1  7948  1.00
      P1  H  7989  7998       L1    18  0.95
      L1  C     3    22       P1  7948  0.90
      L1  C     3    22       P1  7949  0.12

> <Gold.PLP.Chemscore.Internal.Correction>
0.0398

> <Gold.Rescore>
     Score         DG    S(hbond)    S(metal)    S(lipo)     H(rot)  DE(clash)    DE(int)     intcor
     14.73     -15.29       2.05        0.00      75.38       2.29       0.16       0.39       ----

> <Gold.Chemscore.Fitness>
14.7332

> <Gold.Chemscore.DG>
-15.2851

> <Gold.Chemscore.ZeroCoef>
-5.4800

> <Gold.Chemscore.Hbond>
2.0476

> <Gold.Chemscore.Metal>
0.0000

> <Gold.Chemscore.Lipo>
75.3826

> <Gold.Chemscore.Internal_Hbond>
0.0000

> <Gold.Chemscore.DEClash>
0.1573

> <Gold.Chemscore.DEInternal>
0.3946

> <Gold.Chemscore.Rot>
2.2866

> <Gold.Chemscore.Internal.Correction>
   9.000000E+99

> <Gold.Chemscore.Hbonds>
donor molecule, donor type, donor heavy atom, donor atom, acceptor molecule, acceptor atom, score
      L1  H     6    24       P1  7957  0.97
      L1  H     8    27       P1  7948  0.97
      P1  H  7989  7998       L1    18  0.05

> <Gold.Chemscore.Hbond.Weighted>
-6.8391

> <Gold.Chemscore.Metal.Weighted>
-0.0000

> <Gold.Chemscore.Lipo.Weighted>
-8.8198

> <Gold.Chemscore.Internal_Hbond.Weighted>
0.0000

> <Gold.Chemscore.DEClash.Weighted>
0.1573

> <Gold.Chemscore.DEInternal.Weighted>
0.3946

> <Gold.Chemscore.Rot.Weighted>
5.8538

> <Gold.Chemscore.Internal.Correction.Weighted>
   9.000000E+99

> <Gold.Protein.RotatedTorsions>
[ 6907 6896 6895 6894 ] final -132.21 input  -60.11 | X-H torsion
[ 7974 7965 7964 7962 ] final  123.99 input  175.53 | X-H torsion
[ 8008 7997 7996 7995 ] final  104.65 input   59.86 | X-H torsion
[ 10167 10162 10161 10158 ] final  -31.07 input  -65.29 | X-H torsion
[ 10718 10713 10712 10709 ] final  132.38 input   66.30 | X-H torsion
[ 10763 10752 10751 10750 ] final   41.94 input  -60.55 | X-H torsion
[ 11005 11000 10999 10996 ] final  -34.93 input  -57.11 | X-H torsion

> <Gold.Protein.ActiveResidues>
 VAL166  LYS551  ARG553  GLY616  TRP617  ASP618  TYR619  PRO620  LYS621  CYS622 
 ASP623  PHE694  ASN695  SER759  ASP760  ASP761  ALA762  ILE779  LEU786  VAL792 
 PHE793  MET794  SER795  GLU796  ALA797  LYS798  CYS799  TRP800  GLU811  SER814 

> <Gold.Protein.RotatedAtoms>
  150.9598  133.6458  159.2756 H   0  0  0  0  0  0  0  0  0  0  0  0  # atno 6907 bound_to 6896
  151.3784  135.0934  159.9498 H   0  0  0  0  0  0  0  0  0  0  0  0  # atno 6908 bound_to 6896
  152.5143  133.9138  159.7555 H   0  0  0  0  0  0  0  0  0  0  0  0  # atno 6909 bound_to 6896
  145.0895  139.3597  143.4868 H   0  0  0  0  0  0  0  0  0  0  0  0  # atno 7974 bound_to 7965
  156.1591  140.3144  155.8776 H   0  0  0  0  0  0  0  0  0  0  0  0  # atno 8008 bound_to 7997
  155.3818  140.0488  157.3060 H   0  0  0  0  0  0  0  0  0  0  0  0  # atno 8009 bound_to 7997
  154.5129  140.2171  155.9132 H   0  0  0  0  0  0  0  0  0  0  0  0  # atno 8010 bound_to 7997
  140.7241  143.3799  151.1620 H   0  0  0  0  0  0  0  0  0  0  0  0  # atno 10167 bound_to 10162
  157.4876  131.1089  150.9599 H   0  0  0  0  0  0  0  0  0  0  0  0  # atno 10718 bound_to 10713
  152.9895  135.6147  154.2868 H   0  0  0  0  0  0  0  0  0  0  0  0  # atno 10763 bound_to 10752
  154.2595  135.2783  155.2785 H   0  0  0  0  0  0  0  0  0  0  0  0  # atno 10764 bound_to 10752
  154.5218  135.5812  153.6744 H   0  0  0  0  0  0  0  0  0  0  0  0  # atno 10765 bound_to 10752
  140.9755  133.7085  156.1596 H   0  0  0  0  0  0  0  0  0  0  0  0  # atno 11005 bound_to 11000
  146.3531  140.0723  142.8622 LP  0  0  0  0  0  0  0  0  0  0  0  0  # atno 17320 bound_to 7965
  145.1083  140.9389  143.4672 LP  0  0  0  0  0  0  0  0  0  0  0  0  # atno 17321 bound_to 7965
  139.7386  143.8960  152.3043 LP  0  0  0  0  0  0  0  0  0  0  0  0  # atno 17342 bound_to 10162
  139.8773  144.7036  150.8918 LP  0  0  0  0  0  0  0  0  0  0  0  0  # atno 17343 bound_to 10162
  157.0311  130.5712  149.5343 LP  0  0  0  0  0  0  0  0  0  0  0  0  # atno 17370 bound_to 10713
  156.0155  130.5249  150.8122 LP  0  0  0  0  0  0  0  0  0  0  0  0  # atno 17371 bound_to 10713
  140.7265  134.4302  157.5570 LP  0  0  0  0  0  0  0  0  0  0  0  0  # atno 17394 bound_to 11000
  139.8929  134.8744  156.2249 LP  0  0  0  0  0  0  0  0  0  0  0  0  # atno 17395 bound_to 11000

$$$$
