AV-unprocessed.smi:112|AV-procd|sdf|1089|dock5
  -GOLD-   2262018193D 1   1.00000     0.00000
 Structure written by MMmdl.
 54 57  0  0  0  0  0  0  0  0  3 V2000
  150.2218  138.6745  158.9542 C   0  0  0  0  0  0  0  0  0  0  0  0
  151.5823  139.3534  158.9966 C   0  0  0  0  0  0  0  0  0  0  0  0
  151.7140  140.6990  159.0527 C   0  0  0  0  0  0  0  0  0  0  0  0
  152.9367  141.3474  159.0976 N   0  0  0  0  0  0  0  0  0  0  0  0
  153.0567  142.8570  159.1699 C   0  0  2  0  0  0  0  0  0  0  0  0
  152.9751  143.3527  160.6200 C   0  0  0  0  0  0  0  0  0  0  0  0
  152.1929  144.6365  160.4523 C   0  0  2  0  0  0  0  0  0  0  0  0
  151.5940  145.0600  161.6609 O   0  0  0  0  0  0  0  0  0  0  0  0
  151.2036  144.2783  159.3359 C   0  0  2  0  0  0  0  0  0  0  0  0
  149.9657  143.4767  159.7970 C   0  0  0  0  0  0  0  0  0  0  0  0
  149.1662  144.2743  160.6441 O   0  0  0  0  0  0  0  0  0  0  0  0
  151.9994  143.4603  158.4744 O   0  0  0  0  0  0  0  0  0  0  0  0
  154.1248  140.5907  159.0420 C   0  0  0  0  0  0  0  0  0  0  0  0
  155.2257  141.1467  159.0548 O   0  0  0  0  0  0  0  0  0  0  0  0
  154.0219  139.1831  158.9780 N   0  0  0  0  0  0  0  0  0  0  0  0
  155.2682  138.3845  158.9481 C   0  0  0  0  0  0  0  0  0  0  0  0
  155.4302  137.4396  160.1594 C   0  0  0  0  0  0  0  0  0  0  0  0
  155.3958  137.9164  161.2943 O   0  0  0  0  0  0  0  0  0  0  0  0
  155.5999  136.1166  159.9130 N   0  0  0  0  0  0  0  0  0  0  0  0
  155.6417  135.5411  158.5574 C   0  0  0  0  0  0  0  0  0  0  0  0
  155.8288  134.0189  158.7374 C   0  0  0  0  0  0  0  0  0  0  0  0
  155.8895  133.8586  160.2276 C   0  0  0  0  0  0  0  0  0  0  0  0
  156.0570  132.6565  160.9360 C   0  0  0  0  0  0  0  0  0  0  0  0
  156.0891  132.6953  162.3522 C   0  0  0  0  0  0  0  0  0  0  0  0
  156.2608  131.4520  163.1297 N   0  3  0  0  0  0  0  0  0  0  0  0
  155.2555  130.8506  163.4943 O   0  0  0  0  0  0  0  0  0  0  0  0
  157.4015  131.0742  163.3770 O   0  5  0  0  0  0  0  0  0  0  0  0
  155.9528  133.9459  163.0117 C   0  0  0  0  0  0  0  0  0  0  0  0
  155.7860  135.1444  162.2837 C   0  0  0  0  0  0  0  0  0  0  0  0
  155.7553  135.0820  160.8737 C   0  0  0  0  0  0  0  0  0  0  0  0
  152.7774  138.5075  158.9702 C   0  0  0  0  0  0  0  0  0  0  0  0
  152.7315  137.2760  158.9460 O   0  0  0  0  0  0  0  0  0  0  0  0
  149.4054  139.3974  158.9693 H   0  0  0  0  0  0  0  0  0  0  0  0
  150.0975  138.0150  159.8139 H   0  0  0  0  0  0  0  0  0  0  0  0
  150.1214  138.0778  158.0469 H   0  0  0  0  0  0  0  0  0  0  0  0
  150.8047  141.2798  159.0608 H   0  0  0  0  0  0  0  0  0  0  0  0
  153.9972  143.1027  158.6736 H   0  0  0  0  0  0  0  0  0  0  0  0
  152.4222  142.6331  161.2268 H   0  0  0  0  0  0  0  0  0  0  0  0
  153.9667  143.4965  161.0499 H   0  0  0  0  0  0  0  0  0  0  0  0
  152.8637  145.4217  160.1001 H   0  0  0  0  0  0  0  0  0  0  0  0
  150.7240  144.6942  161.7113 H   0  0  0  0  0  0  0  0  0  0  0  0
  150.8854  145.1822  158.8146 H   0  0  0  0  0  0  0  0  0  0  0  0
  149.3765  143.1078  158.9579 H   0  0  0  0  0  0  0  0  0  0  0  0
  150.2652  142.6061  160.3801 H   0  0  0  0  0  0  0  0  0  0  0  0
  148.8399  145.0080  160.1462 H   0  0  0  0  0  0  0  0  0  0  0  0
  155.3250  137.7919  158.0340 H   0  0  0  0  0  0  0  0  0  0  0  0
  156.1325  139.0470  158.8896 H   0  0  0  0  0  0  0  0  0  0  0  0
  154.7173  135.7498  158.0172 H   0  0  0  0  0  0  0  0  0  0  0  0
  156.4739  135.9566  157.9879 H   0  0  0  0  0  0  0  0  0  0  0  0
  154.9903  133.4554  158.3273 H   0  0  0  0  0  0  0  0  0  0  0  0
  156.7518  133.6657  158.2767 H   0  0  0  0  0  0  0  0  0  0  0  0
  156.1571  131.7265  160.3962 H   0  0  0  0  0  0  0  0  0  0  0  0
  155.9747  133.9992  164.0902 H   0  0  0  0  0  0  0  0  0  0  0  0
  155.6864  136.0723  162.8240 H   0  0  0  0  0  0  0  0  0  0  0  0
  1  2  1  0  0  0  0
  1 33  1  0  0  0  0
  1 34  1  0  0  0  0
  1 35  1  0  0  0  0
  2 31  1  0  0  0  0
  2  3  2  0  0  0  0
  3  4  1  0  0  0  0
  3 36  1  0  0  0  0
  4  5  1  0  0  0  0
  4 13  1  0  0  0  0
  5 12  1  0  0  0  0
  5  6  1  0  0  0  0
  5 37  1  0  0  0  0
  6  7  1  0  0  0  0
  6 38  1  0  0  0  0
  6 39  1  0  0  0  0
  7  8  1  0  0  0  0
  7  9  1  0  0  0  0
  7 40  1  0  0  0  0
  8 41  1  0  0  0  0
  9 10  1  0  0  0  0
  9 12  1  0  0  0  0
  9 42  1  0  0  0  0
 10 11  1  0  0  0  0
 10 43  1  0  0  0  0
 10 44  1  0  0  0  0
 11 45  1  0  0  0  0
 13 14  2  0  0  0  0
 13 15  1  0  0  0  0
 15 16  1  0  0  0  0
 15 31  1  0  0  0  0
 16 17  1  0  0  0  0
 16 46  1  0  0  0  0
 16 47  1  0  0  0  0
 17 18  2  0  0  0  0
 17 19  1  0  0  0  0
 19 30  1  0  0  0  0
 19 20  1  0  0  0  0
 20 21  1  0  0  0  0
 20 48  1  0  0  0  0
 20 49  1  0  0  0  0
 21 22  1  0  0  0  0
 21 50  1  0  0  0  0
 21 51  1  0  0  0  0
 22 30  2  0  0  0  0
 22 23  1  0  0  0  0
 23 24  2  0  0  0  0
 23 52  1  0  0  0  0
 24 25  1  0  0  0  0
 24 28  1  0  0  0  0
 25 26  2  0  0  0  0
 25 27  1  0  0  0  0
 28 29  2  0  0  0  0
 28 53  1  0  0  0  0
 29 30  1  0  0  0  0
 29 54  1  0  0  0  0
 31 32  2  0  0  0  0
M  CHG  1  25   1
M  CHG  1  27  -1
M  END
> <s_m_source_file>
AV-unprocessed.smi

> <i_m_source_file_index>
112

> <i_lp_mmshare_version>
43012

> <i_f3d_flags>
0

> <s_epik_input>
W09IXVtDSDJdW0NAQEhdKE8xKVtDQEhdKFtPSF0pW0NIMl1bQ0BIXTFuKFtjSF1jMltDSDNdKWMoPU8pbihjMj1PKVtDSDJdQyg9TylOKFtDSDJdW0NIMl0zKWMoYzM0KVtjSF1bY0hdYyhbY0hdNClbTitdKD1PKVtPLV0=

> <s_epik_cmdline>
J2VwaWtfcHl0aG9uJywgJy1waCcsICc3LjAnLCAnLXRuJywgJzgnLCAnLW1hJywgJzIwMCcsICctbWV0YWxfYmluZGluZycsICctaW1hZScsICc8aW5maWxlLm1hZT4nLCAnLW9tYWUnLCAnPG91dGZpbGUubWFlPic=

> <r_lp_tautomer_probability>
1

> <r_epik_Ionization_Penalty>
2.5696e-07

> <r_epik_Ionization_Penalty_Charging>
1.04886e-08

> <r_epik_Ionization_Penalty_Neutral>
2.46472e-07

> <r_epik_State_Penalty>
-0

> <r_epik_Charging_Adjusted_Penalty>
1.04886e-08

> <i_epik_Tot_Q>
0

> <i_epik_Tot_abs_Q>
2

> <r_epik_Metal_State_Penalty>
-0

> <b_epik_Metal_Only>
0

> <s_epik_Chemistry_Notes>
This compound contains an acetal/aminal-like group ( X-CH(R)-Y where X, Y are N, S, or O) that may be acid/base labile, releasing an aldehyde.

> <s_lp_Force_Field>
OPLS_2005

> <r_lp_Energy>
59.9345

> <b_lp_Chiralities_Consistent>
1

> <s_lp_Variant>
AV-unprocessed.smi:112-7

> <Gold.Version>
5.8.1

> <Gold.Id.Protein>
6NUR|6NUR_protein|mol2

> <Gold.PLP.Fitness>
53.4677

> <Gold.PLP.PLP>
-53.3954

> <Gold.PLP.part.hbond>
-2.4433

> <Gold.PLP.part.metal>
0.0000

> <Gold.PLP.part.buried>
-9.3584

> <Gold.PLP.part.nonpolar>
-42.4654

> <Gold.PLP.part.repulsive>
0.0967

> <Gold.PLP.ligand.clash>
0.0000

> <Gold.PLP.ligand.torsion>
2.2338

> <Gold.PLP.Chemscore.Hbond>
1.5038

> <Gold.PLP.Chemscore.CHOScore>
0.0000

> <Gold.PLP.Chemscore.Metal>
0.0000

> <Gold.Chemscore.Hbonds>
donor molecule, donor type, donor heavy atom, donor atom, acceptor molecule, acceptor atom, score
      P1  H  6933  6944       L1    11  0.06

> <Gold.PLP.Chemscore.Internal.Correction>
0.0285

> <Gold.Rescore>
     Score         DG    S(hbond)    S(metal)    S(lipo)     H(rot)  DE(clash)    DE(int)     intcor
      7.90     -12.27       1.12        0.00      98.14       3.29       0.10       4.27       ----

> <Gold.Chemscore.Fitness>
7.8990

> <Gold.Chemscore.DG>
-12.2726

> <Gold.Chemscore.ZeroCoef>
-5.4800

> <Gold.Chemscore.Hbond>
1.1189

> <Gold.Chemscore.Metal>
0.0000

> <Gold.Chemscore.Lipo>
98.1362

> <Gold.Chemscore.Internal_Hbond>
0.0000

> <Gold.Chemscore.DEClash>
0.1011

> <Gold.Chemscore.DEInternal>
4.2725

> <Gold.Chemscore.Rot>
3.2916

> <Gold.Chemscore.Internal.Correction>
   9.000000E+99

> <Gold.Chemscore.Hbond.Weighted>
-3.7372

> <Gold.Chemscore.Metal.Weighted>
-0.0000

> <Gold.Chemscore.Lipo.Weighted>
-11.4819

> <Gold.Chemscore.Internal_Hbond.Weighted>
0.0000

> <Gold.Chemscore.DEClash.Weighted>
0.1011

> <Gold.Chemscore.DEInternal.Weighted>
4.2725

> <Gold.Chemscore.Rot.Weighted>
8.4265

> <Gold.Chemscore.Internal.Correction.Weighted>
   9.000000E+99

> <Gold.Protein.RotatedTorsions>
[ 6907 6896 6895 6894 ] final  126.56 input  -60.11 | X-H torsion
[ 7974 7965 7964 7962 ] final  142.21 input  175.53 | X-H torsion
[ 8008 7997 7996 7995 ] final  111.97 input   59.86 | X-H torsion
[ 10167 10162 10161 10158 ] final   18.24 input  -65.29 | X-H torsion
[ 10718 10713 10712 10709 ] final  -67.11 input   66.30 | X-H torsion
[ 10763 10752 10751 10750 ] final   65.34 input  -60.55 | X-H torsion
[ 11005 11000 10999 10996 ] final    6.24 input  -57.11 | X-H torsion

> <Gold.Protein.ActiveResidues>
 VAL166  LYS551  ARG553  GLY616  TRP617  ASP618  TYR619  PRO620  LYS621  CYS622 
 ASP623  PHE694  ASN695  SER759  ASP760  ASP761  ALA762  ILE779  LEU786  VAL792 
 PHE793  MET794  SER795  GLU796  ALA797  LYS798  CYS799  TRP800  GLU811  SER814 

> <Gold.Protein.RotatedAtoms>
  152.3892  133.6655  159.6223 H   0  0  0  0  0  0  0  0  0  0  0  0  # atno 6907 bound_to 6896
  150.7804  133.8983  159.3342 H   0  0  0  0  0  0  0  0  0  0  0  0  # atno 6908 bound_to 6896
  151.6773  135.0968  160.0261 H   0  0  0  0  0  0  0  0  0  0  0  0  # atno 6909 bound_to 6896
  144.9028  139.5400  143.5746 H   0  0  0  0  0  0  0  0  0  0  0  0  # atno 7974 bound_to 7965
  156.2160  140.3009  155.9842 H   0  0  0  0  0  0  0  0  0  0  0  0  # atno 8008 bound_to 7997
  155.2603  140.0429  157.3013 H   0  0  0  0  0  0  0  0  0  0  0  0  # atno 8009 bound_to 7997
  154.5769  140.2364  155.8118 H   0  0  0  0  0  0  0  0  0  0  0  0  # atno 8010 bound_to 7997
  140.5668  143.9236  150.6682 H   0  0  0  0  0  0  0  0  0  0  0  0  # atno 10167 bound_to 10162
  156.0575  130.4272  150.1806 H   0  0  0  0  0  0  0  0  0  0  0  0  # atno 10718 bound_to 10713
  153.0092  135.5360  154.6652 H   0  0  0  0  0  0  0  0  0  0  0  0  # atno 10763 bound_to 10752
  154.5851  135.2853  155.0696 H   0  0  0  0  0  0  0  0  0  0  0  0  # atno 10764 bound_to 10752
  154.1810  135.6516  153.5086 H   0  0  0  0  0  0  0  0  0  0  0  0  # atno 10765 bound_to 10752
  140.5617  134.0186  155.7974 H   0  0  0  0  0  0  0  0  0  0  0  0  # atno 11005 bound_to 11000
  146.3117  139.7771  142.9014 LP  0  0  0  0  0  0  0  0  0  0  0  0  # atno 17320 bound_to 7965
  145.3587  141.0322  143.3297 LP  0  0  0  0  0  0  0  0  0  0  0  0  # atno 17321 bound_to 7965
  140.2701  143.3462  152.1245 LP  0  0  0  0  0  0  0  0  0  0  0  0  # atno 17342 bound_to 10162
  139.5097  144.6871  151.5858 LP  0  0  0  0  0  0  0  0  0  0  0  0  # atno 17343 bound_to 10162
  156.9880  130.9884  151.3421 LP  0  0  0  0  0  0  0  0  0  0  0  0  # atno 17370 bound_to 10713
  157.5558  130.8212  149.8202 LP  0  0  0  0  0  0  0  0  0  0  0  0  # atno 17371 bound_to 10713
  141.1110  133.9616  157.2909 LP  0  0  0  0  0  0  0  0  0  0  0  0  # atno 17394 bound_to 11000
  139.9404  135.0191  156.8691 LP  0  0  0  0  0  0  0  0  0  0  0  0  # atno 17395 bound_to 11000

$$$$
