AV-unprocessed.smi:3165|AV-procd|sdf|12087|dock5
  -GOLD-   2272017513D 1   1.00000     0.00000
 Structure written by MMmdl.
 38 39  0  0  0  0  0  0  0  0  2 V2000
  152.0012  144.6712  157.9280 C   0  0  0  0  0  0  0  0  0  0  0  0
  151.3085  143.4000  158.4369 C   0  0  2  0  0  0  0  0  0  0  0  0
  152.3497  142.3309  158.8301 C   0  0  0  0  0  0  0  0  0  0  0  0
  152.6877  142.3628  160.2416 N   0  0  0  0  0  0  0  0  0  0  0  0
  152.2406  143.2355  161.2112 C   0  0  0  0  0  0  0  0  0  0  0  0
  152.8239  142.8660  162.3892 C   0  0  0  0  0  0  0  0  0  0  0  0
  153.6235  141.7437  162.0342 C   0  0  0  0  0  0  0  0  0  0  0  0
  153.5395  141.4444  160.7480 N   0  0  0  0  0  0  0  0  0  0  0  0
  150.3870  142.8929  157.3948 N   0  3  0  0  0  0  0  0  0  0  0  0
  151.0471  142.2970  156.2139 C   0  0  0  0  0  0  0  0  0  0  0  0
  150.1508  141.2380  155.5592 C   0  0  1  0  0  0  0  0  0  0  0  0
  149.1056  141.8721  154.6206 C   0  0  0  0  0  0  0  0  0  0  0  0
  148.2916  140.7866  153.9073 C   0  0  0  0  0  0  0  0  0  0  0  0
  149.2393  139.8000  153.2172 C   0  0  0  0  0  0  0  0  0  0  0  0
  150.2803  139.2724  154.2170 C   0  0  0  0  0  0  0  0  0  0  0  0
  150.9853  140.3629  154.8027 O   0  0  0  0  0  0  0  0  0  0  0  0
  152.6604  145.0909  158.6885 H   0  0  0  0  0  0  0  0  0  0  0  0
  151.2719  145.4391  157.6679 H   0  0  0  0  0  0  0  0  0  0  0  0
  152.6033  144.4692  157.0411 H   0  0  0  0  0  0  0  0  0  0  0  0
  150.7332  143.6771  159.3220 H   0  0  0  0  0  0  0  0  0  0  0  0
  151.9923  141.3322  158.5728 H   0  0  0  0  0  0  0  0  0  0  0  0
  153.2701  142.4835  158.2650 H   0  0  0  0  0  0  0  0  0  0  0  0
  151.5517  144.0362  160.9854 H   0  0  0  0  0  0  0  0  0  0  0  0
  152.7001  143.3283  163.3575 H   0  0  0  0  0  0  0  0  0  0  0  0
  154.2573  141.1416  162.6686 H   0  0  0  0  0  0  0  0  0  0  0  0
  149.8050  142.1781  157.8078 H   0  0  0  0  0  0  0  0  0  0  0  0
  151.2687  143.0828  155.4917 H   0  0  0  0  0  0  0  0  0  0  0  0
  152.0010  141.8581  156.5097 H   0  0  0  0  0  0  0  0  0  0  0  0
  149.6394  140.6715  156.3397 H   0  0  0  0  0  0  0  0  0  0  0  0
  148.4388  142.5269  155.1825 H   0  0  0  0  0  0  0  0  0  0  0  0
  149.6062  142.4971  153.8797 H   0  0  0  0  0  0  0  0  0  0  0  0
  147.6719  140.2562  154.6314 H   0  0  0  0  0  0  0  0  0  0  0  0
  147.6128  141.2341  153.1809 H   0  0  0  0  0  0  0  0  0  0  0  0
  148.6749  138.9729  152.7855 H   0  0  0  0  0  0  0  0  0  0  0  0
  149.7481  140.2971  152.3903 H   0  0  0  0  0  0  0  0  0  0  0  0
  149.8051  138.6730  154.9951 H   0  0  0  0  0  0  0  0  0  0  0  0
  150.9940  138.6244  153.7081 H   0  0  0  0  0  0  0  0  0  0  0  0
  149.7939  143.6536  157.0941 H   0  0  0  0  0  0  0  0  0  0  0  0
  1  2  1  0  0  0  0
  1 17  1  0  0  0  0
  1 18  1  0  0  0  0
  1 19  1  0  0  0  0
  2  3  1  0  0  0  0
  2  9  1  0  0  0  0
  2 20  1  0  0  0  0
  3  4  1  0  0  0  0
  3 21  1  0  0  0  0
  3 22  1  0  0  0  0
  4  8  1  0  0  0  0
  4  5  1  0  0  0  0
  5  6  2  0  0  0  0
  5 23  1  0  0  0  0
  6  7  1  0  0  0  0
  6 24  1  0  0  0  0
  7  8  2  0  0  0  0
  7 25  1  0  0  0  0
  9 10  1  0  0  0  0
  9 26  1  0  0  0  0
  9 38  1  0  0  0  0
 10 11  1  0  0  0  0
 10 27  1  0  0  0  0
 10 28  1  0  0  0  0
 11 16  1  0  0  0  0
 11 12  1  0  0  0  0
 11 29  1  0  0  0  0
 12 13  1  0  0  0  0
 12 30  1  0  0  0  0
 12 31  1  0  0  0  0
 13 14  1  0  0  0  0
 13 32  1  0  0  0  0
 13 33  1  0  0  0  0
 14 15  1  0  0  0  0
 14 34  1  0  0  0  0
 14 35  1  0  0  0  0
 15 16  1  0  0  0  0
 15 36  1  0  0  0  0
 15 37  1  0  0  0  0
M  CHG  1   9   1
M  END
> <s_m_source_file>
AV-unprocessed.smi

> <i_m_source_file_index>
3165

> <i_lp_mmshare_version>
43012

> <i_f3d_flags>
0

> <s_epik_input>
bjFbY0hdW2NIXVtjSF1uMVtDSDJdW0NAQEhdKFtDSDNdKVtOSF1bQ0gyXVtDQEBIXTJbQ0gyXVtDSDJdW0NIMl1bQ0gyXU8y

> <s_epik_cmdline>
J2VwaWtfcHl0aG9uJywgJy1waCcsICc3LjAnLCAnLXRuJywgJzgnLCAnLW1hJywgJzIwMCcsICctbWV0YWxfYmluZGluZycsICctaW1hZScsICc8aW5maWxlLm1hZT4nLCAnLW9tYWUnLCAnPG91dGZpbGUubWFlPic=

> <r_lp_tautomer_probability>
1

> <r_epik_Ionization_Penalty>
0.00849196

> <r_epik_Ionization_Penalty_Charging>
0.00848754

> <r_epik_Ionization_Penalty_Neutral>
4.42049e-06

> <r_epik_State_Penalty>
0.00639836

> <r_epik_Charging_Adjusted_Penalty>
0.0148859

> <i_epik_Tot_Q>
1

> <i_epik_Tot_abs_Q>
1

> <r_epik_Metal_State_Penalty>
0.00639878

> <b_epik_Metal_Only>
0

> <s_lp_Force_Field>
OPLS_2005

> <r_lp_Energy>
13.1527

> <b_lp_Chiralities_Consistent>
1

> <s_lp_Variant>
AV-unprocessed.smi:3165-3

> <Gold.Version>
5.8.1

> <Gold.Id.Protein>
6NUR|6NUR_protein|mol2

> <Gold.PLP.Fitness>
48.9175

> <Gold.PLP.PLP>
-41.7392

> <Gold.PLP.part.hbond>
-2.0000

> <Gold.PLP.part.metal>
0.0000

> <Gold.PLP.part.buried>
-0.1168

> <Gold.PLP.part.nonpolar>
-38.8667

> <Gold.PLP.part.repulsive>
0.0610

> <Gold.PLP.ligand.clash>
0.0000

> <Gold.PLP.ligand.torsion>
0.9254

> <Gold.PLP.Chemscore.Hbond>
3.0000

> <Gold.PLP.Chemscore.CHOScore>
0.0000

> <Gold.PLP.Chemscore.Metal>
0.0000

> <Gold.Chemscore.Hbonds>
donor molecule, donor type, donor heavy atom, donor atom, acceptor molecule, acceptor atom, score
      L1  H     9    38       P1  8028  2.00
      P1  H  7989  7998       L1    16  0.85

> <Gold.PLP.Chemscore.Internal.Correction>
0.0290

> <Gold.Rescore>
     Score         DG    S(hbond)    S(metal)    S(lipo)     H(rot)  DE(clash)    DE(int)     intcor
     19.25     -20.50       1.85        0.00     111.60       1.64       0.37       0.88       ----

> <Gold.Chemscore.Fitness>
19.2481

> <Gold.Chemscore.DG>
-20.4997

> <Gold.Chemscore.ZeroCoef>
-5.4800

> <Gold.Chemscore.Hbond>
1.8480

> <Gold.Chemscore.Metal>
0.0000

> <Gold.Chemscore.Lipo>
111.5982

> <Gold.Chemscore.Internal_Hbond>
0.0000

> <Gold.Chemscore.DEClash>
0.3735

> <Gold.Chemscore.DEInternal>
0.8781

> <Gold.Chemscore.Rot>
1.6444

> <Gold.Chemscore.Internal.Correction>
   9.000000E+99

> <Gold.Chemscore.Hbonds>
donor molecule, donor type, donor heavy atom, donor atom, acceptor molecule, acceptor atom, score
      L1  H     9    38       P1  8028  0.88
      P1  H  7989  7998       L1    16  0.13

> <Gold.Chemscore.Hbond.Weighted>
-6.1724

> <Gold.Chemscore.Metal.Weighted>
-0.0000

> <Gold.Chemscore.Lipo.Weighted>
-13.0570

> <Gold.Chemscore.Internal_Hbond.Weighted>
0.0000

> <Gold.Chemscore.DEClash.Weighted>
0.3735

> <Gold.Chemscore.DEInternal.Weighted>
0.8781

> <Gold.Chemscore.Rot.Weighted>
4.2097

> <Gold.Chemscore.Internal.Correction.Weighted>
   9.000000E+99

> <Gold.Protein.RotatedTorsions>
[ 6907 6896 6895 6894 ] final -159.59 input  -60.11 | X-H torsion
[ 7974 7965 7964 7962 ] final  154.77 input  175.53 | X-H torsion
[ 8008 7997 7996 7995 ] final   -2.58 input   59.86 | X-H torsion
[ 10167 10162 10161 10158 ] final  152.22 input  -65.29 | X-H torsion
[ 10718 10713 10712 10709 ] final  108.99 input   66.30 | X-H torsion
[ 10763 10752 10751 10750 ] final  147.25 input  -60.55 | X-H torsion
[ 11005 11000 10999 10996 ] final  -50.82 input  -57.11 | X-H torsion

> <Gold.Protein.ActiveResidues>
 VAL166  LYS551  ARG553  GLY616  TRP617  ASP618  TYR619  PRO620  LYS621  CYS622 
 ASP623  PHE694  ASN695  SER759  ASP760  ASP761  ALA762  ILE779  LEU786  VAL792 
 PHE793  MET794  SER795  GLU796  ALA797  LYS798  CYS799  TRP800  GLU811  SER814 

> <Gold.Protein.RotatedAtoms>
  151.3360  133.3981  159.2666 H   0  0  0  0  0  0  0  0  0  0  0  0  # atno 6907 bound_to 6896
  150.9917  134.9251  159.7913 H   0  0  0  0  0  0  0  0  0  0  0  0  # atno 6908 bound_to 6896
  152.5249  134.3325  159.9240 H   0  0  0  0  0  0  0  0  0  0  0  0  # atno 6909 bound_to 6896
  144.8067  139.6978  143.6159 H   0  0  0  0  0  0  0  0  0  0  0  0  # atno 7974 bound_to 7965
  154.6342  140.2531  155.7398 H   0  0  0  0  0  0  0  0  0  0  0  0  # atno 8008 bound_to 7997
  156.2495  140.2901  156.0627 H   0  0  0  0  0  0  0  0  0  0  0  0  # atno 8009 bound_to 7997
  155.1697  140.0386  157.2850 H   0  0  0  0  0  0  0  0  0  0  0  0  # atno 8010 bound_to 7997
  139.4834  144.5376  151.7619 H   0  0  0  0  0  0  0  0  0  0  0  0  # atno 10167 bound_to 10162
  157.6561  131.0905  150.6388 H   0  0  0  0  0  0  0  0  0  0  0  0  # atno 10718 bound_to 10713
  154.0352  135.2894  155.3363 H   0  0  0  0  0  0  0  0  0  0  0  0  # atno 10763 bound_to 10752
  154.6963  135.5206  153.8467 H   0  0  0  0  0  0  0  0  0  0  0  0  # atno 10764 bound_to 10752
  153.0623  135.6618  154.0561 H   0  0  0  0  0  0  0  0  0  0  0  0  # atno 10765 bound_to 10752
  141.0837  133.6647  156.3786 H   0  0  0  0  0  0  0  0  0  0  0  0  # atno 11005 bound_to 11000
  146.2359  139.5905  142.9524 LP  0  0  0  0  0  0  0  0  0  0  0  0  # atno 17320 bound_to 7965
  145.5421  141.0420  143.2325 LP  0  0  0  0  0  0  0  0  0  0  0  0  # atno 17321 bound_to 7965
  140.4911  144.1309  150.5950 LP  0  0  0  0  0  0  0  0  0  0  0  0  # atno 17342 bound_to 10162
  140.4170  143.2629  151.9762 LP  0  0  0  0  0  0  0  0  0  0  0  0  # atno 17343 bound_to 10162
  156.6694  130.4535  149.5662 LP  0  0  0  0  0  0  0  0  0  0  0  0  # atno 17370 bound_to 10713
  156.2009  130.6619  151.1166 LP  0  0  0  0  0  0  0  0  0  0  0  0  # atno 17371 bound_to 10713
  140.5412  134.6119  157.5380 LP  0  0  0  0  0  0  0  0  0  0  0  0  # atno 17394 bound_to 11000
  139.9653  134.7384  156.0152 LP  0  0  0  0  0  0  0  0  0  0  0  0  # atno 17395 bound_to 11000

$$$$
