AV-unprocessed.smi:565|AV-procd|sdf|2954|dock10
  -GOLD-   2262023453D 1   1.00000     0.00000
 Structure written by MMmdl.
 50 51  0  0  0  0  0  0  0  0  2 V2000
  152.7786  138.5466  154.9925 C   0  0  0  0  0  0  0  0  0  0  0  0
  151.7185  139.5479  155.3532 C   0  0  0  0  0  0  0  0  0  0  0  0
  152.0497  140.6164  156.0588 N   0  0  0  0  0  0  0  0  0  0  0  0
  150.8977  141.2988  156.2128 N   0  0  0  0  0  0  0  0  0  0  0  0
  150.9035  142.5439  156.9559 C   0  0  0  0  0  0  0  0  0  0  0  0
  149.8363  140.6625  155.5990 C   0  0  0  0  0  0  0  0  0  0  0  0
  148.4491  141.2189  155.6302 C   0  0  0  0  0  0  0  0  0  0  0  0
  150.3295  139.5167  155.0325 C   0  0  0  0  0  0  0  0  0  0  0  0
  149.5948  138.4525  154.2564 C   0  0  0  0  0  0  0  0  0  0  0  0
  149.6753  137.1272  155.0132 C   0  0  0  0  0  0  0  0  0  0  0  0
  150.0587  137.1053  156.1826 O   0  0  0  0  0  0  0  0  0  0  0  0
  149.2918  136.0300  154.3417 N   0  0  0  0  0  0  0  0  0  0  0  0
  149.2217  134.6888  154.9067 C   0  0  0  0  0  0  0  0  0  0  0  0
  148.8876  133.6462  153.8225 C   0  0  0  0  0  0  0  0  0  0  0  0
  147.7999  134.0960  152.9183 N   0  3  2  0  0  0  0  0  0  0  0  0
  146.6718  134.7122  153.6630 C   0  0  0  0  0  0  0  0  0  0  0  0
  145.6250  135.2941  152.7000 C   0  0  0  0  0  0  0  0  0  0  0  0
  145.1140  134.2202  151.7316 C   0  0  0  0  0  0  0  0  0  0  0  0
  146.2925  133.5680  150.9889 C   0  0  2  0  0  0  0  0  0  0  0  0
  145.8114  132.4678  150.0323 C   0  0  0  0  0  0  0  0  0  0  0  0
  147.3261  133.0272  151.9976 C   0  0  0  0  0  0  0  0  0  0  0  0
  152.4062  137.5273  155.0946 H   0  0  0  0  0  0  0  0  0  0  0  0
  153.6569  138.6406  155.6323 H   0  0  0  0  0  0  0  0  0  0  0  0
  153.1031  138.6797  153.9605 H   0  0  0  0  0  0  0  0  0  0  0  0
  150.1056  142.5336  157.6987 H   0  0  0  0  0  0  0  0  0  0  0  0
  150.7438  143.3780  156.2720 H   0  0  0  0  0  0  0  0  0  0  0  0
  151.8570  142.6825  157.4676 H   0  0  0  0  0  0  0  0  0  0  0  0
  147.7995  140.7044  154.9225 H   0  0  0  0  0  0  0  0  0  0  0  0
  148.4467  142.2782  155.3721 H   0  0  0  0  0  0  0  0  0  0  0  0
  148.0141  141.1113  156.6238 H   0  0  0  0  0  0  0  0  0  0  0  0
  148.5486  138.7157  154.0990 H   0  0  0  0  0  0  0  0  0  0  0  0
  150.0232  138.3210  153.2621 H   0  0  0  0  0  0  0  0  0  0  0  0
  148.9972  136.1409  153.3821 H   0  0  0  0  0  0  0  0  0  0  0  0
  150.1881  134.4603  155.3568 H   0  0  0  0  0  0  0  0  0  0  0  0
  148.4915  134.6782  155.7162 H   0  0  0  0  0  0  0  0  0  0  0  0
  149.7697  133.3925  153.2325 H   0  0  0  0  0  0  0  0  0  0  0  0
  148.5831  132.7271  154.3255 H   0  0  0  0  0  0  0  0  0  0  0  0
  146.2131  133.9665  154.3144 H   0  0  0  0  0  0  0  0  0  0  0  0
  147.0446  135.5101  154.3066 H   0  0  0  0  0  0  0  0  0  0  0  0
  144.7916  135.7136  153.2646 H   0  0  0  0  0  0  0  0  0  0  0  0
  146.0629  136.1188  152.1360 H   0  0  0  0  0  0  0  0  0  0  0  0
  144.5564  133.4631  152.2849 H   0  0  0  0  0  0  0  0  0  0  0  0
  144.4162  134.6638  151.0205 H   0  0  0  0  0  0  0  0  0  0  0  0
  146.7798  134.3363  150.3861 H   0  0  0  0  0  0  0  0  0  0  0  0
  145.3127  131.6623  150.5725 H   0  0  0  0  0  0  0  0  0  0  0  0
  146.6457  132.0327  149.4813 H   0  0  0  0  0  0  0  0  0  0  0  0
  145.1062  132.8640  149.3010 H   0  0  0  0  0  0  0  0  0  0  0  0
  148.1679  132.6060  151.4491 H   0  0  0  0  0  0  0  0  0  0  0  0
  146.8932  132.2122  152.5805 H   0  0  0  0  0  0  0  0  0  0  0  0
  148.1902  134.8295  152.3442 H   0  0  0  0  0  0  0  0  0  0  0  0
  1  2  1  0  0  0  0
  1 22  1  0  0  0  0
  1 23  1  0  0  0  0
  1 24  1  0  0  0  0
  2  8  1  0  0  0  0
  2  3  2  0  0  0  0
  3  4  1  0  0  0  0
  4  5  1  0  0  0  0
  4  6  1  0  0  0  0
  5 25  1  0  0  0  0
  5 26  1  0  0  0  0
  5 27  1  0  0  0  0
  6  7  1  0  0  0  0
  6  8  2  0  0  0  0
  7 28  1  0  0  0  0
  7 29  1  0  0  0  0
  7 30  1  0  0  0  0
  8  9  1  0  0  0  0
  9 10  1  0  0  0  0
  9 31  1  0  0  0  0
  9 32  1  0  0  0  0
 10 11  2  0  0  0  0
 10 12  1  0  0  0  0
 12 13  1  0  0  0  0
 12 33  1  0  0  0  0
 13 14  1  0  0  0  0
 13 34  1  0  0  0  0
 13 35  1  0  0  0  0
 14 15  1  0  0  0  0
 14 36  1  0  0  0  0
 14 37  1  0  0  0  0
 15 21  1  0  0  0  0
 15 16  1  0  0  0  0
 15 50  1  0  0  0  0
 16 17  1  0  0  0  0
 16 38  1  0  0  0  0
 16 39  1  0  0  0  0
 17 18  1  0  0  0  0
 17 40  1  0  0  0  0
 17 41  1  0  0  0  0
 18 19  1  0  0  0  0
 18 42  1  0  0  0  0
 18 43  1  0  0  0  0
 19 20  1  0  0  0  0
 19 21  1  0  0  0  0
 19 44  1  0  0  0  0
 20 45  1  0  0  0  0
 20 46  1  0  0  0  0
 20 47  1  0  0  0  0
 21 48  1  0  0  0  0
 21 49  1  0  0  0  0
M  CHG  1  15   1
M  END
> <s_m_source_file>
AV-unprocessed.smi

> <i_m_source_file_index>
565

> <i_lp_mmshare_version>
43012

> <i_f3d_flags>
0

> <s_epik_input>
W0NIM11jMW5uKFtDSDNdKWMoW0NIM10pYzFbQ0gyXUMoPU8pW05IXVtDSDJdW0NIMl1OMltDSDJdW0NIMl1bQ0gyXVtDQEBIXShbQ0gzXSlbQ0gyXTI=

> <s_epik_cmdline>
J2VwaWtfcHl0aG9uJywgJy1waCcsICc3LjAnLCAnLXRuJywgJzgnLCAnLW1hJywgJzIwMCcsICctbWV0YWxfYmluZGluZycsICctaW1hZScsICc8aW5maWxlLm1hZT4nLCAnLW9tYWUnLCAnPG91dGZpbGUubWFlPic=

> <r_lp_tautomer_probability>
1

> <r_epik_Ionization_Penalty>
0.00411138

> <r_epik_Ionization_Penalty_Charging>
0.0019503

> <r_epik_Ionization_Penalty_Neutral>
0.00216107

> <r_epik_State_Penalty>
-0

> <r_epik_Charging_Adjusted_Penalty>
0.0019503

> <i_epik_Tot_Q>
1

> <i_epik_Tot_abs_Q>
1

> <r_epik_Metal_State_Penalty>
-0

> <b_epik_Metal_Only>
0

> <s_lp_Force_Field>
OPLS_2005

> <r_lp_Energy>
10.1844

> <b_lp_Chiralities_Consistent>
1

> <s_lp_Variant>
AV-unprocessed.smi:565-4

> <Gold.Version>
5.8.1

> <Gold.Id.Protein>
6NUR|6NUR_protein|mol2

> <Gold.PLP.Fitness>
46.1915

> <Gold.PLP.PLP>
-37.7725

> <Gold.PLP.part.hbond>
-2.5051

> <Gold.PLP.part.metal>
0.0000

> <Gold.PLP.part.buried>
-0.3227

> <Gold.PLP.part.nonpolar>
-34.7369

> <Gold.PLP.part.repulsive>
0.0341

> <Gold.PLP.ligand.clash>
0.0000

> <Gold.PLP.ligand.torsion>
0.3062

> <Gold.PLP.Chemscore.Hbond>
3.0000

> <Gold.PLP.Chemscore.CHOScore>
0.0000

> <Gold.PLP.Chemscore.Metal>
0.0000

> <Gold.Chemscore.Hbonds>
donor molecule, donor type, donor heavy atom, donor atom, acceptor molecule, acceptor atom, score
      L1  H    12    33       P1  7948  0.94
      L1  H    15    50       P1  7948  2.00

> <Gold.PLP.Chemscore.Internal.Correction>
0.0313

> <Gold.Rescore>
     Score         DG    S(hbond)    S(metal)    S(lipo)     H(rot)  DE(clash)    DE(int)     intcor
     19.22     -19.72       2.56        0.00      84.09       1.61       0.23       0.27       ----

> <Gold.Chemscore.Fitness>
19.2235

> <Gold.Chemscore.DG>
-19.7204

> <Gold.Chemscore.ZeroCoef>
-5.4800

> <Gold.Chemscore.Hbond>
2.5553

> <Gold.Chemscore.Metal>
0.0000

> <Gold.Chemscore.Lipo>
84.0852

> <Gold.Chemscore.Internal_Hbond>
0.0000

> <Gold.Chemscore.DEClash>
0.2300

> <Gold.Chemscore.DEInternal>
0.2669

> <Gold.Chemscore.Rot>
1.6142

> <Gold.Chemscore.Internal.Correction>
   9.000000E+99

> <Gold.Chemscore.Hbonds>
donor molecule, donor type, donor heavy atom, donor atom, acceptor molecule, acceptor atom, score
      L1  H    12    33       P1  7948  0.88
      L1  H    15    50       P1  7948  0.44

> <Gold.Chemscore.Hbond.Weighted>
-8.5348

> <Gold.Chemscore.Metal.Weighted>
-0.0000

> <Gold.Chemscore.Lipo.Weighted>
-9.8380

> <Gold.Chemscore.Internal_Hbond.Weighted>
0.0000

> <Gold.Chemscore.DEClash.Weighted>
0.2300

> <Gold.Chemscore.DEInternal.Weighted>
0.2669

> <Gold.Chemscore.Rot.Weighted>
4.1324

> <Gold.Chemscore.Internal.Correction.Weighted>
   9.000000E+99

> <Gold.Protein.RotatedTorsions>
[ 6907 6896 6895 6894 ] final  -84.25 input  -60.11 | X-H torsion
[ 7974 7965 7964 7962 ] final   48.22 input  175.53 | X-H torsion
[ 8008 7997 7996 7995 ] final  161.99 input   59.86 | X-H torsion
[ 10167 10162 10161 10158 ] final -128.30 input  -65.29 | X-H torsion
[ 10718 10713 10712 10709 ] final  167.57 input   66.30 | X-H torsion
[ 10763 10752 10751 10750 ] final   49.48 input  -60.55 | X-H torsion
[ 11005 11000 10999 10996 ] final  -61.48 input  -57.11 | X-H torsion

> <Gold.Protein.ActiveResidues>
 VAL166  LYS551  ARG553  GLY616  TRP617  ASP618  TYR619  PRO620  LYS621  CYS622 
 ASP623  PHE694  ASN695  SER759  ASP760  ASP761  ALA762  ILE779  LEU786  VAL792 
 PHE793  MET794  SER795  GLU796  ALA797  LYS798  CYS799  TRP800  GLU811  SER814 

> <Gold.Protein.RotatedAtoms>
  150.6878  134.3388  159.4858 H   0  0  0  0  0  0  0  0  0  0  0  0  # atno 6907 bound_to 6896
  152.1243  134.9179  160.0571 H   0  0  0  0  0  0  0  0  0  0  0  0  # atno 6908 bound_to 6896
  152.0373  133.3928  159.4359 H   0  0  0  0  0  0  0  0  0  0  0  0  # atno 6909 bound_to 6896
  146.0225  139.4668  142.9888 H   0  0  0  0  0  0  0  0  0  0  0  0  # atno 7974 bound_to 7965
  156.2064  140.1762  156.7791 H   0  0  0  0  0  0  0  0  0  0  0  0  # atno 8008 bound_to 7997
  154.5661  140.0691  156.8923 H   0  0  0  0  0  0  0  0  0  0  0  0  # atno 8009 bound_to 7997
  155.2759  140.3345  155.4264 H   0  0  0  0  0  0  0  0  0  0  0  0  # atno 8010 bound_to 7997
  139.9517  143.6048  152.2473 H   0  0  0  0  0  0  0  0  0  0  0  0  # atno 10167 bound_to 10162
  157.0496  131.0309  151.2685 H   0  0  0  0  0  0  0  0  0  0  0  0  # atno 10718 bound_to 10713
  152.9787  135.5910  154.4096 H   0  0  0  0  0  0  0  0  0  0  0  0  # atno 10763 bound_to 10752
  154.3733  135.2767  155.2256 H   0  0  0  0  0  0  0  0  0  0  0  0  # atno 10764 bound_to 10752
  154.4201  135.6061  153.6059 H   0  0  0  0  0  0  0  0  0  0  0  0  # atno 10765 bound_to 10752
  141.1326  133.6630  156.5381 H   0  0  0  0  0  0  0  0  0  0  0  0  # atno 11005 bound_to 11000
  145.7171  141.0087  143.1422 LP  0  0  0  0  0  0  0  0  0  0  0  0  # atno 17320 bound_to 7965
  144.6996  139.8826  143.7448 LP  0  0  0  0  0  0  0  0  0  0  0  0  # atno 17321 bound_to 7965
  139.6623  144.7662  151.1939 LP  0  0  0  0  0  0  0  0  0  0  0  0  # atno 17342 bound_to 10162
  140.7581  143.5991  150.8718 LP  0  0  0  0  0  0  0  0  0  0  0  0  # atno 17343 bound_to 10162
  157.5041  130.7898  149.7635 LP  0  0  0  0  0  0  0  0  0  0  0  0  # atno 17370 bound_to 10713
  156.0012  130.3879  150.2599 LP  0  0  0  0  0  0  0  0  0  0  0  0  # atno 17371 bound_to 10713
  140.4161  134.7229  157.4864 LP  0  0  0  0  0  0  0  0  0  0  0  0  # atno 17394 bound_to 11000
  140.0392  134.6291  155.9002 LP  0  0  0  0  0  0  0  0  0  0  0  0  # atno 17395 bound_to 11000

$$$$
