AV-unprocessed.smi:2319|AV-procd|sdf|9277|dock9
  -GOLD-   2272012503D 1   1.00000     0.00000
 Structure written by MMmdl.
 46 47  0  0  0  0  0  0  0  0  1 V2000
  147.3763  140.8947  154.1046 C   0  0  0  0  0  0  0  0  0  0  0  0
  147.9509  139.5684  154.6134 C   0  0  0  0  0  0  0  0  0  0  0  0
  149.4437  139.5444  154.6288 C   0  0  0  0  0  0  0  0  0  0  0  0
  150.0806  140.7180  154.8809 O   0  0  0  0  0  0  0  0  0  0  0  0
  151.4663  140.5020  154.8328 N   0  0  0  0  0  0  0  0  0  0  0  0
  151.6427  139.2193  154.5511 C   0  0  0  0  0  0  0  0  0  0  0  0
  153.0410  138.6990  154.3668 C   0  0  0  0  0  0  0  0  0  0  0  0
  150.3782  138.5693  154.4425 C   0  0  0  0  0  0  0  0  0  0  0  0
  150.0798  137.2204  154.1269 N   0  0  0  0  0  0  0  0  0  0  0  0
  150.2231  136.1551  154.9293 C   0  0  0  0  0  0  0  0  0  0  0  0
  150.6400  136.1957  156.0862 O   0  0  0  0  0  0  0  0  0  0  0  0
  149.8263  135.0302  154.3198 N   0  0  0  0  0  0  0  0  0  0  0  0
  149.8186  133.7017  154.9288 C   0  0  2  0  0  0  0  0  0  0  0  0
  151.1733  133.0303  154.8196 C   0  0  0  0  0  0  0  0  0  0  0  0
  150.8331  131.5383  154.9258 C   0  0  0  0  0  0  0  0  0  0  0  0
  151.7222  130.6718  154.0208 C   0  0  0  0  0  0  0  0  0  0  0  0
  150.8773  131.0414  156.3807 C   0  0  0  0  0  0  0  0  0  0  0  0
  149.4824  131.4214  154.4795 O   0  0  0  0  0  0  0  0  0  0  0  0
  148.8908  132.6930  154.2182 C   0  0  0  0  0  0  0  0  0  0  0  0
  147.4727  132.6836  154.8101 C   0  0  0  0  0  0  0  0  0  0  0  0
  148.8382  132.8480  152.6834 C   0  0  0  0  0  0  0  0  0  0  0  0
  146.2864  140.8730  154.1073 H   0  0  0  0  0  0  0  0  0  0  0  0
  147.7036  141.0983  153.0846 H   0  0  0  0  0  0  0  0  0  0  0  0
  147.6942  141.7284  154.7316 H   0  0  0  0  0  0  0  0  0  0  0  0
  147.5788  139.3762  155.6202 H   0  0  0  0  0  0  0  0  0  0  0  0
  147.5790  138.7525  153.9931 H   0  0  0  0  0  0  0  0  0  0  0  0
  153.0736  137.9124  153.6130 H   0  0  0  0  0  0  0  0  0  0  0  0
  153.4324  138.2903  155.2984 H   0  0  0  0  0  0  0  0  0  0  0  0
  153.7208  139.4872  154.0415 H   0  0  0  0  0  0  0  0  0  0  0  0
  149.6149  137.0644  153.2445 H   0  0  0  0  0  0  0  0  0  0  0  0
  149.4918  135.0957  153.3697 H   0  0  0  0  0  0  0  0  0  0  0  0
  149.5596  133.7693  155.9875 H   0  0  0  0  0  0  0  0  0  0  0  0
  151.6204  133.2487  153.8484 H   0  0  0  0  0  0  0  0  0  0  0  0
  151.8754  133.3664  155.5838 H   0  0  0  0  0  0  0  0  0  0  0  0
  152.7705  130.7443  154.3118 H   0  0  0  0  0  0  0  0  0  0  0  0
  151.6441  130.9794  152.9774 H   0  0  0  0  0  0  0  0  0  0  0  0
  151.4331  129.6219  154.0745 H   0  0  0  0  0  0  0  0  0  0  0  0
  151.8844  131.1150  156.7922 H   0  0  0  0  0  0  0  0  0  0  0  0
  150.5673  129.9982  156.4491 H   0  0  0  0  0  0  0  0  0  0  0  0
  150.2140  131.6222  157.0219 H   0  0  0  0  0  0  0  0  0  0  0  0
  146.9635  133.6313  154.6345 H   0  0  0  0  0  0  0  0  0  0  0  0
  147.4942  132.5117  155.8866 H   0  0  0  0  0  0  0  0  0  0  0  0
  146.8656  131.8952  154.3646 H   0  0  0  0  0  0  0  0  0  0  0  0
  148.3566  133.7811  152.3902 H   0  0  0  0  0  0  0  0  0  0  0  0
  148.2710  132.0344  152.2303 H   0  0  0  0  0  0  0  0  0  0  0  0
  149.8346  132.8336  152.2417 H   0  0  0  0  0  0  0  0  0  0  0  0
  1  2  1  0  0  0  0
  1 22  1  0  0  0  0
  1 23  1  0  0  0  0
  1 24  1  0  0  0  0
  2  3  1  0  0  0  0
  2 25  1  0  0  0  0
  2 26  1  0  0  0  0
  3  8  2  0  0  0  0
  3  4  1  0  0  0  0
  4  5  1  0  0  0  0
  5  6  2  0  0  0  0
  6  7  1  0  0  0  0
  6  8  1  0  0  0  0
  7 27  1  0  0  0  0
  7 28  1  0  0  0  0
  7 29  1  0  0  0  0
  8  9  1  0  0  0  0
  9 10  1  0  0  0  0
  9 30  1  0  0  0  0
 10 11  2  0  0  0  0
 10 12  1  0  0  0  0
 12 13  1  0  0  0  0
 12 31  1  0  0  0  0
 13 19  1  0  0  0  0
 13 14  1  0  0  0  0
 13 32  1  0  0  0  0
 14 15  1  0  0  0  0
 14 33  1  0  0  0  0
 14 34  1  0  0  0  0
 15 16  1  0  0  0  0
 15 17  1  0  0  0  0
 15 18  1  0  0  0  0
 16 35  1  0  0  0  0
 16 36  1  0  0  0  0
 16 37  1  0  0  0  0
 17 38  1  0  0  0  0
 17 39  1  0  0  0  0
 17 40  1  0  0  0  0
 18 19  1  0  0  0  0
 19 20  1  0  0  0  0
 19 21  1  0  0  0  0
 20 41  1  0  0  0  0
 20 42  1  0  0  0  0
 20 43  1  0  0  0  0
 21 44  1  0  0  0  0
 21 45  1  0  0  0  0
 21 46  1  0  0  0  0
M  END
> <s_m_source_file>
AV-unprocessed.smi

> <i_m_source_file_index>
2319

> <i_lp_mmshare_version>
43012

> <i_f3d_flags>
0

> <s_epik_input>
W0NIM11bQ0gyXWMxb25jKFtDSDNdKWMxW05IXUMoPU8pW05IXVtDQEBIXShDKE8yKShbQ0gzXSlbQ0gzXSlbQ0gyXUMyKFtDSDNdKVtDSDNd

> <s_epik_cmdline>
J2VwaWtfcHl0aG9uJywgJy1waCcsICc3LjAnLCAnLXRuJywgJzgnLCAnLW1hJywgJzIwMCcsICctbWV0YWxfYmluZGluZycsICctaW1hZScsICc8aW5maWxlLm1hZT4nLCAnLW9tYWUnLCAnPG91dGZpbGUubWFlPic=

> <r_lp_tautomer_probability>
1

> <r_epik_Ionization_Penalty>
3.17207e-05

> <r_epik_Ionization_Penalty_Charging>
0

> <r_epik_Ionization_Penalty_Neutral>
3.17207e-05

> <r_epik_State_Penalty>
-0

> <r_epik_Charging_Adjusted_Penalty>
0

> <i_epik_Tot_Q>
0

> <i_epik_Tot_abs_Q>
0

> <r_epik_Metal_State_Penalty>
-0

> <b_epik_Metal_Only>
0

> <s_lp_Force_Field>
OPLS_2005

> <r_lp_Energy>
19.5027

> <b_lp_Chiralities_Consistent>
1

> <s_lp_Variant>
AV-unprocessed.smi:2319-1

> <Gold.Version>
5.8.1

> <Gold.Id.Protein>
6NUR|6NUR_protein|mol2

> <Gold.PLP.Fitness>
39.2413

> <Gold.PLP.PLP>
-34.6201

> <Gold.PLP.part.hbond>
-3.9727

> <Gold.PLP.part.metal>
0.0000

> <Gold.PLP.part.buried>
-3.7250

> <Gold.PLP.part.nonpolar>
-27.1866

> <Gold.PLP.part.repulsive>
0.2593

> <Gold.PLP.ligand.clash>
0.0000

> <Gold.PLP.ligand.torsion>
1.3648

> <Gold.PLP.Chemscore.Hbond>
2.3568

> <Gold.PLP.Chemscore.CHOScore>
0.0000

> <Gold.PLP.Chemscore.Metal>
0.0000

> <Gold.Chemscore.Hbonds>
donor molecule, donor type, donor heavy atom, donor atom, acceptor molecule, acceptor atom, score
      L1  H     9    30       P1  7948  1.00
      L1  H    12    31       P1  7948  0.55
      P1  H  7989  7998       L1     5  0.33

> <Gold.PLP.Chemscore.Internal.Correction>
0.2804

> <Gold.Rescore>
     Score         DG    S(hbond)    S(metal)    S(lipo)     H(rot)  DE(clash)    DE(int)     intcor
     15.99     -17.26       1.70        0.00      77.55       1.16       0.12       1.15       ----

> <Gold.Chemscore.Fitness>
15.9877

> <Gold.Chemscore.DG>
-17.2636

> <Gold.Chemscore.ZeroCoef>
-5.4800

> <Gold.Chemscore.Hbond>
1.6996

> <Gold.Chemscore.Metal>
0.0000

> <Gold.Chemscore.Lipo>
77.5549

> <Gold.Chemscore.Internal_Hbond>
0.0000

> <Gold.Chemscore.DEClash>
0.1234

> <Gold.Chemscore.DEInternal>
1.1524

> <Gold.Chemscore.Rot>
1.1590

> <Gold.Chemscore.Internal.Correction>
   9.000000E+99

> <Gold.Chemscore.Hbonds>
donor molecule, donor type, donor heavy atom, donor atom, acceptor molecule, acceptor atom, score
      L1  H     9    30       P1  7948  0.70
      L1  H    12    31       P1  7948  0.03

> <Gold.Chemscore.Hbond.Weighted>
-5.6767

> <Gold.Chemscore.Metal.Weighted>
-0.0000

> <Gold.Chemscore.Lipo.Weighted>
-9.0739

> <Gold.Chemscore.Internal_Hbond.Weighted>
0.0000

> <Gold.Chemscore.DEClash.Weighted>
0.1234

> <Gold.Chemscore.DEInternal.Weighted>
1.1524

> <Gold.Chemscore.Rot.Weighted>
2.9671

> <Gold.Chemscore.Internal.Correction.Weighted>
   9.000000E+99

> <Gold.Protein.RotatedTorsions>
[ 6907 6896 6895 6894 ] final  174.40 input  -60.11 | X-H torsion
[ 7974 7965 7964 7962 ] final    7.90 input  175.53 | X-H torsion
[ 8008 7997 7996 7995 ] final   78.34 input   59.86 | X-H torsion
[ 10167 10162 10161 10158 ] final   86.16 input  -65.29 | X-H torsion
[ 10718 10713 10712 10709 ] final  -15.70 input   66.30 | X-H torsion
[ 10763 10752 10751 10750 ] final   88.72 input  -60.55 | X-H torsion
[ 11005 11000 10999 10996 ] final  164.80 input  -57.11 | X-H torsion

> <Gold.Protein.ActiveResidues>
 VAL166  LYS551  ARG553  GLY616  TRP617  ASP618  TYR619  PRO620  LYS621  CYS622 
 ASP623  PHE694  ASN695  SER759  ASP760  ASP761  ALA762  ILE779  LEU786  VAL792 
 PHE793  MET794  SER795  GLU796  ALA797  LYS798  CYS799  TRP800  GLU811  SER814 

> <Gold.Protein.RotatedAtoms>
  151.7529  133.3328  159.3396 H   0  0  0  0  0  0  0  0  0  0  0  0  # atno 6907 bound_to 6896
  150.7528  134.6176  159.6128 H   0  0  0  0  0  0  0  0  0  0  0  0  # atno 6908 bound_to 6896
  152.3457  134.7077  160.0302 H   0  0  0  0  0  0  0  0  0  0  0  0  # atno 6909 bound_to 6896
  146.2422  140.0013  142.8415 H   0  0  0  0  0  0  0  0  0  0  0  0  # atno 7974 bound_to 7965
  155.8543  140.3456  155.5714 H   0  0  0  0  0  0  0  0  0  0  0  0  # atno 8008 bound_to 7997
  155.8003  140.0884  157.1980 H   0  0  0  0  0  0  0  0  0  0  0  0  # atno 8009 bound_to 7997
  154.4009  140.1466  156.3254 H   0  0  0  0  0  0  0  0  0  0  0  0  # atno 8010 bound_to 7997
  139.8904  144.6389  150.8745 H   0  0  0  0  0  0  0  0  0  0  0  0  # atno 10167 bound_to 10162
  156.5980  130.4816  149.6251 H   0  0  0  0  0  0  0  0  0  0  0  0  # atno 10718 bound_to 10713
  153.1798  135.4496  155.0012 H   0  0  0  0  0  0  0  0  0  0  0  0  # atno 10763 bound_to 10752
  154.8022  135.3260  154.7524 H   0  0  0  0  0  0  0  0  0  0  0  0  # atno 10764 bound_to 10752
  153.7990  135.6964  153.4914 H   0  0  0  0  0  0  0  0  0  0  0  0  # atno 10765 bound_to 10752
  140.2496  134.7987  157.3489 H   0  0  0  0  0  0  0  0  0  0  0  0  # atno 11005 bound_to 11000
  145.1412  140.9572  143.4487 LP  0  0  0  0  0  0  0  0  0  0  0  0  # atno 17320 bound_to 7965
  145.0294  139.3354  143.6032 LP  0  0  0  0  0  0  0  0  0  0  0  0  # atno 17321 bound_to 7965
  140.7728  143.3515  151.2005 LP  0  0  0  0  0  0  0  0  0  0  0  0  # atno 17342 bound_to 10162
  139.7115  143.9369  152.2949 LP  0  0  0  0  0  0  0  0  0  0  0  0  # atno 17343 bound_to 10162
  156.2493  130.6898  151.1630 LP  0  0  0  0  0  0  0  0  0  0  0  0  # atno 17370 bound_to 10713
  157.7287  131.0630  150.5809 LP  0  0  0  0  0  0  0  0  0  0  0  0  # atno 17371 bound_to 10713
  140.1571  134.4776  155.7920 LP  0  0  0  0  0  0  0  0  0  0  0  0  # atno 17394 bound_to 11000
  141.2202  133.6886  156.7479 LP  0  0  0  0  0  0  0  0  0  0  0  0  # atno 17395 bound_to 11000

$$$$
