AV-unprocessed.smi:45|AV-procd|sdf|417|dock10
  -GOLD-   2262016293D 1   1.00000     0.00000
 Structure written by MMmdl.
 60 63  0  0  0  0  0  0  0  0  3 V2000
  152.3081  143.6627  158.9920 C   0  0  0  0  0  0  0  0  0  0  0  0
  153.0537  142.4548  159.0262 O   0  0  0  0  0  0  0  0  0  0  0  0
  152.4001  141.2767  158.7292 C   0  0  0  0  0  0  0  0  0  0  0  0
  151.2655  141.1957  157.8825 C   0  0  0  0  0  0  0  0  0  0  0  0
  150.6449  139.9566  157.6343 C   0  0  0  0  0  0  0  0  0  0  0  0
  151.1432  138.7793  158.2276 C   0  0  0  0  0  0  0  0  0  0  0  0
  150.4604  137.4467  157.9873 C   0  0  0  0  0  0  0  0  0  0  0  0
  149.0342  137.4928  158.2682 N   0  0  0  0  0  0  0  0  0  0  0  0
  148.3105  136.2960  158.1666 C   0  0  0  0  0  0  0  0  0  0  0  0
  148.2247  135.6929  156.9516 N   0  3  0  0  0  0  0  0  0  0  0  0
  147.5708  134.5269  156.8116 C   0  0  0  0  0  0  0  0  0  0  0  0
  147.5040  133.9508  155.5440 N   0  0  0  0  0  0  0  0  0  0  0  0
  148.1297  132.6649  155.2568 C   0  0  0  0  0  0  0  0  0  0  0  0
  148.5668  132.7284  153.7945 C   0  0  0  0  0  0  0  0  0  0  0  0
  147.5506  133.6800  153.1768 C   0  0  0  0  0  0  0  0  0  0  0  0
  147.2722  134.6891  154.3011 C   0  0  1  0  0  0  0  0  0  0  0  0
  145.8575  135.2993  154.2107 C   0  0  0  0  0  0  0  0  0  0  0  0
  145.7069  135.9993  152.9939 O   0  0  0  0  0  0  0  0  0  0  0  0
  146.9778  133.9137  157.8455 N   0  0  0  0  0  0  0  0  0  0  0  0
  147.0394  134.4717  159.0705 C   0  0  0  0  0  0  0  0  0  0  0  0
  147.7041  135.6912  159.2932 C   0  0  0  0  0  0  0  0  0  0  0  0
  147.7700  136.3037  160.6628 C   0  0  0  0  0  0  0  0  0  0  0  0
  148.6916  137.0891  160.9092 O   0  0  0  0  0  0  0  0  0  0  0  0
  146.7844  135.8242  161.4691 N   0  5  0  0  0  0  0  0  0  0  0  0
  146.0977  136.6388  162.4739 C   0  0  0  0  0  0  0  0  0  0  0  0
  144.7952  135.9959  162.9467 C   0  0  0  0  0  0  0  0  0  0  0  0
  143.7416  136.8078  163.1054 N   0  0  0  0  0  0  0  0  0  0  0  0
  142.5793  136.2378  163.4911 C   0  0  0  0  0  0  0  0  0  0  0  0
  142.4731  134.8514  163.7189 C   0  0  0  0  0  0  0  0  0  0  0  0
  143.6446  134.0950  163.5177 C   0  0  0  0  0  0  0  0  0  0  0  0
  144.8048  134.6699  163.1333 N   0  0  0  0  0  0  0  0  0  0  0  0
  152.2729  138.8519  159.0654 C   0  0  0  0  0  0  0  0  0  0  0  0
  152.8959  140.0902  159.3145 C   0  0  0  0  0  0  0  0  0  0  0  0
  154.2681  140.1447  160.3619 Cl  0  0  0  0  0  0  0  0  0  0  0  0
  148.0175  135.4845  154.2536 H   0  0  0  0  0  0  0  0  0  0  0  0
  152.9581  144.4938  159.2656 H   0  0  0  0  0  0  0  0  0  0  0  0
  151.4826  143.6414  159.7052 H   0  0  0  0  0  0  0  0  0  0  0  0
  151.9193  143.8635  157.9928 H   0  0  0  0  0  0  0  0  0  0  0  0
  150.8474  142.0725  157.4122 H   0  0  0  0  0  0  0  0  0  0  0  0
  149.7776  139.9145  156.9916 H   0  0  0  0  0  0  0  0  0  0  0  0
  150.6090  137.1570  156.9466 H   0  0  0  0  0  0  0  0  0  0  0  0
  150.9375  136.6837  158.6044 H   0  0  0  0  0  0  0  0  0  0  0  0
  148.7735  138.0853  159.0446 H   0  0  0  0  0  0  0  0  0  0  0  0
  148.9802  132.4614  155.9089 H   0  0  0  0  0  0  0  0  0  0  0  0
  147.3909  131.8767  155.4052 H   0  0  0  0  0  0  0  0  0  0  0  0
  149.5664  133.1598  153.7244 H   0  0  0  0  0  0  0  0  0  0  0  0
  148.5855  131.7500  153.3135 H   0  0  0  0  0  0  0  0  0  0  0  0
  147.9127  134.1538  152.2640 H   0  0  0  0  0  0  0  0  0  0  0  0
  146.6444  133.1256  152.9277 H   0  0  0  0  0  0  0  0  0  0  0  0
  145.0946  134.5225  154.2746 H   0  0  0  0  0  0  0  0  0  0  0  0
  145.6655  135.9998  155.0222 H   0  0  0  0  0  0  0  0  0  0  0  0
  146.5331  136.4015  152.7723 H   0  0  0  0  0  0  0  0  0  0  0  0
  146.5496  133.9400  159.8733 H   0  0  0  0  0  0  0  0  0  0  0  0
  146.7348  136.8363  163.3381 H   0  0  0  0  0  0  0  0  0  0  0  0
  145.8567  137.6250  162.0754 H   0  0  0  0  0  0  0  0  0  0  0  0
  141.7279  136.8905  163.6152 H   0  0  0  0  0  0  0  0  0  0  0  0
  141.5440  134.3936  164.0245 H   0  0  0  0  0  0  0  0  0  0  0  0
  143.6504  133.0254  163.6651 H   0  0  0  0  0  0  0  0  0  0  0  0
  152.6605  137.9573  159.5306 H   0  0  0  0  0  0  0  0  0  0  0  0
  148.6686  136.1357  156.1479 H   0  0  0  0  0  0  0  0  0  0  0  0
  1  2  1  0  0  0  0
  1 36  1  0  0  0  0
  1 37  1  0  0  0  0
  1 38  1  0  0  0  0
  2  3  1  0  0  0  0
  3 33  1  0  0  0  0
  3  4  2  0  0  0  0
  4  5  1  0  0  0  0
  4 39  1  0  0  0  0
  5  6  2  0  0  0  0
  5 40  1  0  0  0  0
  6  7  1  0  0  0  0
  6 32  1  0  0  0  0
  7  8  1  0  0  0  0
  7 41  1  0  0  0  0
  7 42  1  0  0  0  0
  8  9  1  0  0  0  0
  8 43  1  0  0  0  0
  9 21  1  0  0  0  0
  9 10  2  0  0  0  0
 10 11  1  0  0  0  0
 10 60  1  0  0  0  0
 11 12  1  0  0  0  0
 11 19  2  0  0  0  0
 12 16  1  0  0  0  0
 12 13  1  0  0  0  0
 13 14  1  0  0  0  0
 13 44  1  0  0  0  0
 13 45  1  0  0  0  0
 14 15  1  0  0  0  0
 14 46  1  0  0  0  0
 14 47  1  0  0  0  0
 15 16  1  0  0  0  0
 15 48  1  0  0  0  0
 15 49  1  0  0  0  0
 16 35  1  0  0  0  0
 16 17  1  0  0  0  0
 17 18  1  0  0  0  0
 17 50  1  0  0  0  0
 17 51  1  0  0  0  0
 18 52  1  0  0  0  0
 19 20  1  0  0  0  0
 20 21  2  0  0  0  0
 20 53  1  0  0  0  0
 21 22  1  0  0  0  0
 22 23  2  0  0  0  0
 22 24  1  0  0  0  0
 24 25  1  0  0  0  0
 25 26  1  0  0  0  0
 25 54  1  0  0  0  0
 25 55  1  0  0  0  0
 26 31  1  0  0  0  0
 26 27  2  0  0  0  0
 27 28  1  0  0  0  0
 28 29  2  0  0  0  0
 28 56  1  0  0  0  0
 29 30  1  0  0  0  0
 29 57  1  0  0  0  0
 30 31  2  0  0  0  0
 30 58  1  0  0  0  0
 32 33  2  0  0  0  0
 32 59  1  0  0  0  0
 33 34  1  0  0  0  0
M  CHG  1  10   1
M  CHG  1  24  -1
M  END
> <s_m_source_file>
AV-unprocessed.smi

> <i_m_source_file_index>
45

> <i_lp_mmshare_version>
43012

> <i_f3d_flags>
0

> <s_epik_input>
W0NIM11PYzFbY0hdW2NIXWMoW2NIXWMxQ2wpW0NIMl1bTkhdYzJuYyhOM1tDSDJdW0NIMl1bQ0gyXVtDQEhdM1tDSDJdW09IXSluW2NIXWMyQyg9TylbTkhdW0NIMl1jNG5bY0hdW2NIXVtjSF1uNA==

> <s_epik_cmdline>
J2VwaWtfcHl0aG9uJywgJy1waCcsICc3LjAnLCAnLXRuJywgJzgnLCAnLW1hJywgJzIwMCcsICctbWV0YWxfYmluZGluZycsICctaW1hZScsICc8aW5maWxlLm1hZT4nLCAnLW9tYWUnLCAnPG91dGZpbGUubWFlPic=

> <r_lp_tautomer_probability>
0.424989

> <r_epik_Ionization_Penalty>
7.51351

> <r_epik_Ionization_Penalty_Charging>
7.51312

> <r_epik_Ionization_Penalty_Neutral>
0.00038389

> <r_epik_State_Penalty>
8.64696

> <r_epik_Charging_Adjusted_Penalty>
16.1601

> <i_epik_Tot_Q>
0

> <i_epik_Tot_abs_Q>
2

> <r_epik_Metal_State_Penalty>
4.61083

> <b_epik_Metal_Only>
1

> <s_epik_Chemistry_Notes>
This compound contains an electron-poor aromatic ring that is susceptible to covalent hydrolysis at low pH, typically resulting in measured values for nitrogen ring protonation that are around two units higher than predicted values.

> <s_lp_Force_Field>
OPLS_2005

> <r_lp_Energy>
39.4565

> <b_lp_Chiralities_Consistent>
1

> <s_lp_Variant>
AV-unprocessed.smi:45-11

> <Gold.Version>
5.8.1

> <Gold.Id.Protein>
6NUR|6NUR_protein|mol2

> <Gold.PLP.Fitness>
50.3336

> <Gold.PLP.PLP>
-47.6965

> <Gold.PLP.part.hbond>
-2.6407

> <Gold.PLP.part.metal>
0.0000

> <Gold.PLP.part.buried>
-8.3145

> <Gold.PLP.part.nonpolar>
-37.4846

> <Gold.PLP.part.repulsive>
0.1479

> <Gold.PLP.ligand.clash>
0.0000

> <Gold.PLP.ligand.torsion>
2.2476

> <Gold.PLP.Chemscore.Hbond>
2.0701

> <Gold.PLP.Chemscore.CHOScore>
0.0000

> <Gold.PLP.Chemscore.Metal>
0.0000

> <Gold.Chemscore.Hbonds>
donor molecule, donor type, donor heavy atom, donor atom, acceptor molecule, acceptor atom, score
      P1  H  6931  6943       L1    23  0.93

> <Gold.PLP.Chemscore.Internal.Correction>
0.9219

> <Gold.Rescore>
     Score         DG    S(hbond)    S(metal)    S(lipo)     H(rot)  DE(clash)    DE(int)     intcor
     13.67     -17.26       2.28        0.00     104.73       3.16       0.04       3.55       ----

> <Gold.Chemscore.Fitness>
13.6681

> <Gold.Chemscore.DG>
-17.2596

> <Gold.Chemscore.ZeroCoef>
-5.4800

> <Gold.Chemscore.Hbond>
2.2781

> <Gold.Chemscore.Metal>
0.0000

> <Gold.Chemscore.Lipo>
104.7258

> <Gold.Chemscore.Internal_Hbond>
0.0000

> <Gold.Chemscore.DEClash>
0.0446

> <Gold.Chemscore.DEInternal>
3.5468

> <Gold.Chemscore.Rot>
3.1571

> <Gold.Chemscore.Internal.Correction>
   9.000000E+99

> <Gold.Chemscore.Hbonds>
donor molecule, donor type, donor heavy atom, donor atom, acceptor molecule, acceptor atom, score
      P1  H  6931  6943       L1    23  0.86

> <Gold.Chemscore.Hbond.Weighted>
-7.6088

> <Gold.Chemscore.Metal.Weighted>
-0.0000

> <Gold.Chemscore.Lipo.Weighted>
-12.2529

> <Gold.Chemscore.Internal_Hbond.Weighted>
0.0000

> <Gold.Chemscore.DEClash.Weighted>
0.0446

> <Gold.Chemscore.DEInternal.Weighted>
3.5468

> <Gold.Chemscore.Rot.Weighted>
8.0822

> <Gold.Chemscore.Internal.Correction.Weighted>
   9.000000E+99

> <Gold.Protein.RotatedTorsions>
[ 6907 6896 6895 6894 ] final -106.85 input  -60.11 | X-H torsion
[ 7974 7965 7964 7962 ] final  161.15 input  175.53 | X-H torsion
[ 8008 7997 7996 7995 ] final   30.77 input   59.86 | X-H torsion
[ 10167 10162 10161 10158 ] final   13.53 input  -65.29 | X-H torsion
[ 10718 10713 10712 10709 ] final -160.13 input   66.30 | X-H torsion
[ 10763 10752 10751 10750 ] final  141.07 input  -60.55 | X-H torsion
[ 11005 11000 10999 10996 ] final  115.60 input  -57.11 | X-H torsion

> <Gold.Protein.ActiveResidues>
 VAL166  LYS551  ARG553  GLY616  TRP617  ASP618  TYR619  PRO620  LYS621  CYS622 
 ASP623  PHE694  ASN695  SER759  ASP760  ASP761  ALA762  ILE779  LEU786  VAL792 
 PHE793  MET794  SER795  GLU796  ALA797  LYS798  CYS799  TRP800  GLU811  SER814 

> <Gold.Protein.RotatedAtoms>
  150.7412  133.9914  159.3607 H   0  0  0  0  0  0  0  0  0  0  0  0  # atno 6907 bound_to 6896
  151.7862  135.0746  160.0390 H   0  0  0  0  0  0  0  0  0  0  0  0  # atno 6908 bound_to 6896
  152.3240  133.5848  159.5800 H   0  0  0  0  0  0  0  0  0  0  0  0  # atno 6909 bound_to 6896
  144.7700  139.7858  143.6300 H   0  0  0  0  0  0  0  0  0  0  0  0  # atno 7974 bound_to 7965
  155.0958  140.3224  155.4561 H   0  0  0  0  0  0  0  0  0  0  0  0  # atno 8008 bound_to 7997
  156.2730  140.2070  156.6031 H   0  0  0  0  0  0  0  0  0  0  0  0  # atno 8009 bound_to 7997
  154.6868  140.0520  157.0309 H   0  0  0  0  0  0  0  0  0  0  0  0  # atno 8010 bound_to 7997
  140.5996  143.8631  150.6952 H   0  0  0  0  0  0  0  0  0  0  0  0  # atno 10167 bound_to 10162
  156.5778  130.8716  151.2856 H   0  0  0  0  0  0  0  0  0  0  0  0  # atno 10718 bound_to 10713
  153.9332  135.2988  155.3445 H   0  0  0  0  0  0  0  0  0  0  0  0  # atno 10763 bound_to 10752
  154.7516  135.4977  153.9302 H   0  0  0  0  0  0  0  0  0  0  0  0  # atno 10764 bound_to 10752
  153.1081  135.6752  153.9655 H   0  0  0  0  0  0  0  0  0  0  0  0  # atno 10765 bound_to 10752
  139.9015  134.9586  156.7070 H   0  0  0  0  0  0  0  0  0  0  0  0  # atno 11005 bound_to 11000
  146.1839  139.5044  142.9849 LP  0  0  0  0  0  0  0  0  0  0  0  0  # atno 17320 bound_to 7965
  145.6353  141.0296  143.1841 LP  0  0  0  0  0  0  0  0  0  0  0  0  # atno 17321 bound_to 7965
  140.2173  143.3836  152.1670 LP  0  0  0  0  0  0  0  0  0  0  0  0  # atno 17342 bound_to 10162
  139.5282  144.7128  151.5151 LP  0  0  0  0  0  0  0  0  0  0  0  0  # atno 17343 bound_to 10162
  157.7333  130.9729  150.1974 LP  0  0  0  0  0  0  0  0  0  0  0  0  # atno 17370 bound_to 10713
  156.2658  130.3716  149.8082 LP  0  0  0  0  0  0  0  0  0  0  0  0  # atno 17371 bound_to 10713
  140.7106  133.9227  155.8082 LP  0  0  0  0  0  0  0  0  0  0  0  0  # atno 17394 bound_to 11000
  141.0303  134.0765  157.4021 LP  0  0  0  0  0  0  0  0  0  0  0  0  # atno 17395 bound_to 11000

$$$$
