AV-unprocessed.smi:3061|AV-procd|sdf|11679|dock4
  -GOLD-   2272017 83D 1   1.00000     0.00000
 Structure written by MMmdl.
 35 36  0  0  0  0  0  0  0  0  1 V2000
  150.0580  139.0959  156.7110 C   0  0  0  0  0  0  0  0  0  0  0  0
  149.9325  140.6101  156.4833 C   0  0  2  0  0  0  0  0  0  0  0  0
  149.8686  140.9528  154.9824 C   0  0  0  0  0  0  0  0  0  0  0  0
  148.5048  141.0150  154.4882 N   0  0  0  0  0  0  0  0  0  0  0  0
  147.7894  142.0483  154.0412 C   0  0  0  0  0  0  0  0  0  0  0  0
  146.5554  141.7278  153.6781 N   0  0  0  0  0  0  0  0  0  0  0  0
  146.5809  140.3874  153.9426 C   0  0  0  0  0  0  0  0  0  0  0  0
  147.7257  139.9098  154.4308 N   0  0  0  0  0  0  0  0  0  0  0  0
  151.0603  141.3012  157.1051 N   0  0  0  0  0  0  0  0  0  0  0  0
  151.5088  141.0962  158.3528 C   0  0  0  0  0  0  0  0  0  0  0  0
  151.0215  140.2649  159.1195 O   0  0  0  0  0  0  0  0  0  0  0  0
  152.6883  141.9706  158.8055 C   0  0  2  0  0  0  0  0  0  0  0  0
  153.0193  141.7487  160.2955 C   0  0  0  0  0  0  0  0  0  0  0  0
  152.6753  143.0751  160.9523 C   0  0  0  0  0  0  0  0  0  0  0  0
  152.7356  143.2545  162.1678 O   0  0  0  0  0  0  0  0  0  0  0  0
  152.3055  143.9786  160.0406 N   0  0  0  0  0  0  0  0  0  0  0  0
  151.9083  145.3525  160.3162 C   0  0  0  0  0  0  0  0  0  0  0  0
  152.3834  143.4797  158.6783 C   0  0  0  0  0  0  0  0  0  0  0  0
  149.2176  138.5625  156.2660 H   0  0  0  0  0  0  0  0  0  0  0  0
  150.0711  138.8561  157.7749 H   0  0  0  0  0  0  0  0  0  0  0  0
  150.9737  138.7018  156.2690 H   0  0  0  0  0  0  0  0  0  0  0  0
  149.0019  140.9450  156.9457 H   0  0  0  0  0  0  0  0  0  0  0  0
  150.3563  141.9084  154.7842 H   0  0  0  0  0  0  0  0  0  0  0  0
  150.4063  140.2025  154.4007 H   0  0  0  0  0  0  0  0  0  0  0  0
  148.1767  143.0552  153.9866 H   0  0  0  0  0  0  0  0  0  0  0  0
  145.7301  139.7447  153.7709 H   0  0  0  0  0  0  0  0  0  0  0  0
  151.5271  142.0008  156.5467 H   0  0  0  0  0  0  0  0  0  0  0  0
  153.5626  141.7290  158.1983 H   0  0  0  0  0  0  0  0  0  0  0  0
  152.4509  140.9389  160.7563 H   0  0  0  0  0  0  0  0  0  0  0  0
  154.0797  141.5370  160.4355 H   0  0  0  0  0  0  0  0  0  0  0  0
  152.7500  145.9199  160.7147 H   0  0  0  0  0  0  0  0  0  0  0  0
  151.0981  145.3800  161.0461 H   0  0  0  0  0  0  0  0  0  0  0  0
  151.5623  145.8504  159.4099 H   0  0  0  0  0  0  0  0  0  0  0  0
  153.1871  143.9942  158.1498 H   0  0  0  0  0  0  0  0  0  0  0  0
  151.4544  143.6853  158.1430 H   0  0  0  0  0  0  0  0  0  0  0  0
  1  2  1  0  0  0  0
  1 19  1  0  0  0  0
  1 20  1  0  0  0  0
  1 21  1  0  0  0  0
  2  3  1  0  0  0  0
  2  9  1  0  0  0  0
  2 22  1  0  0  0  0
  3  4  1  0  0  0  0
  3 23  1  0  0  0  0
  3 24  1  0  0  0  0
  4  8  1  0  0  0  0
  4  5  1  0  0  0  0
  5  6  2  0  0  0  0
  5 25  1  0  0  0  0
  6  7  1  0  0  0  0
  7  8  2  0  0  0  0
  7 26  1  0  0  0  0
  9 10  1  0  0  0  0
  9 27  1  0  0  0  0
 10 11  2  0  0  0  0
 10 12  1  0  0  0  0
 12 18  1  0  0  0  0
 12 13  1  0  0  0  0
 12 28  1  0  0  0  0
 13 14  1  0  0  0  0
 13 29  1  0  0  0  0
 13 30  1  0  0  0  0
 14 15  2  0  0  0  0
 14 16  1  0  0  0  0
 16 17  1  0  0  0  0
 16 18  1  0  0  0  0
 17 31  1  0  0  0  0
 17 32  1  0  0  0  0
 17 33  1  0  0  0  0
 18 34  1  0  0  0  0
 18 35  1  0  0  0  0
M  END
> <s_m_source_file>
AV-unprocessed.smi

> <i_m_source_file_index>
3061

> <i_lp_mmshare_version>
43012

> <i_f3d_flags>
0

> <s_epik_input>
bjFbY0hdbltjSF1uMVtDSDJdW0NAQEhdKFtDSDNdKVtOSF1DKD1PKVtDQEBIXTJbQ0gyXUMoPU8pTihbQ0gzXSlbQ0gyXTI=

> <s_epik_cmdline>
J2VwaWtfcHl0aG9uJywgJy1waCcsICc3LjAnLCAnLXRuJywgJzgnLCAnLW1hJywgJzIwMCcsICctbWV0YWxfYmluZGluZycsICctaW1hZScsICc8aW5maWxlLm1hZT4nLCAnLW9tYWUnLCAnPG91dGZpbGUubWFlPic=

> <r_lp_tautomer_probability>
1

> <r_epik_Ionization_Penalty>
4.97611e-05

> <r_epik_Ionization_Penalty_Charging>
0

> <r_epik_Ionization_Penalty_Neutral>
4.97611e-05

> <r_epik_State_Penalty>
-0

> <r_epik_Charging_Adjusted_Penalty>
0

> <i_epik_Tot_Q>
0

> <i_epik_Tot_abs_Q>
0

> <r_epik_Metal_State_Penalty>
-0

> <b_epik_Metal_Only>
0

> <s_lp_Force_Field>
OPLS_2005

> <r_lp_Energy>
14.0738

> <b_lp_Chiralities_Consistent>
1

> <s_lp_Variant>
AV-unprocessed.smi:3061-1

> <Gold.Version>
5.8.1

> <Gold.Id.Protein>
6NUR|6NUR_protein|mol2

> <Gold.PLP.Fitness>
40.2196

> <Gold.PLP.PLP>
-35.9026

> <Gold.PLP.part.hbond>
0.0000

> <Gold.PLP.part.metal>
0.0000

> <Gold.PLP.part.buried>
-4.0410

> <Gold.PLP.part.nonpolar>
-31.7924

> <Gold.PLP.part.repulsive>
0.4942

> <Gold.PLP.ligand.clash>
0.0000

> <Gold.PLP.ligand.torsion>
0.6334

> <Gold.PLP.Chemscore.Hbond>
0.0000

> <Gold.PLP.Chemscore.CHOScore>
1.8545

> <Gold.PLP.Chemscore.Metal>
0.0000

> <Gold.Chemscore.Hbonds>
donor molecule, donor type, donor heavy atom, donor atom, acceptor molecule, acceptor atom, score
      L1  C     5    25       P1  8028  1.00
      L1  C     7    26       P1 10175  0.86

> <Gold.PLP.Chemscore.Internal.Correction>
0.0204

> <Gold.Rescore>
     Score         DG    S(hbond)    S(metal)    S(lipo)     H(rot)  DE(clash)    DE(int)     intcor
      6.20      -6.88       0.00        0.00      64.94       2.42       0.12       0.56       ----

> <Gold.Chemscore.Fitness>
6.1969

> <Gold.Chemscore.DG>
-6.8832

> <Gold.Chemscore.ZeroCoef>
-5.4800

> <Gold.Chemscore.Hbond>
0.0000

> <Gold.Chemscore.Metal>
0.0000

> <Gold.Chemscore.Lipo>
64.9374

> <Gold.Chemscore.Internal_Hbond>
0.0000

> <Gold.Chemscore.DEClash>
0.1214

> <Gold.Chemscore.DEInternal>
0.5649

> <Gold.Chemscore.Rot>
2.4197

> <Gold.Chemscore.Internal.Correction>
   9.000000E+99

> <Gold.Chemscore.Hbond.Weighted>
-0.0000

> <Gold.Chemscore.Metal.Weighted>
-0.0000

> <Gold.Chemscore.Lipo.Weighted>
-7.5977

> <Gold.Chemscore.Internal_Hbond.Weighted>
0.0000

> <Gold.Chemscore.DEClash.Weighted>
0.1214

> <Gold.Chemscore.DEInternal.Weighted>
0.5649

> <Gold.Chemscore.Rot.Weighted>
6.1945

> <Gold.Chemscore.Internal.Correction.Weighted>
   9.000000E+99

> <Gold.Protein.RotatedTorsions>
[ 6907 6896 6895 6894 ] final   75.69 input  -60.11 | X-H torsion
[ 7974 7965 7964 7962 ] final   48.03 input  175.53 | X-H torsion
[ 8008 7997 7996 7995 ] final   96.13 input   59.86 | X-H torsion
[ 10167 10162 10161 10158 ] final  115.66 input  -65.29 | X-H torsion
[ 10718 10713 10712 10709 ] final  -12.68 input   66.30 | X-H torsion
[ 10763 10752 10751 10750 ] final  -91.68 input  -60.55 | X-H torsion
[ 11005 11000 10999 10996 ] final  112.98 input  -57.11 | X-H torsion

> <Gold.Protein.ActiveResidues>
 VAL166  LYS551  ARG553  GLY616  TRP617  ASP618  TYR619  PRO620  LYS621  CYS622 
 ASP623  PHE694  ASN695  SER759  ASP760  ASP761  ALA762  ILE779  LEU786  VAL792 
 PHE793  MET794  SER795  GLU796  ALA797  LYS798  CYS799  TRP800  GLU811  SER814 

> <Gold.Protein.RotatedAtoms>
  152.5038  134.4082  159.9439 H   0  0  0  0  0  0  0  0  0  0  0  0  # atno 6907 bound_to 6896
  151.4049  133.3739  159.2744 H   0  0  0  0  0  0  0  0  0  0  0  0  # atno 6908 bound_to 6896
  150.9334  134.8769  159.7625 H   0  0  0  0  0  0  0  0  0  0  0  0  # atno 6909 bound_to 6896
  146.0243  139.4687  142.9878 H   0  0  0  0  0  0  0  0  0  0  0  0  # atno 7974 bound_to 7965
  156.0764  140.3277  155.7639 H   0  0  0  0  0  0  0  0  0  0  0  0  # atno 8008 bound_to 7997
  155.5224  140.0586  157.2921 H   0  0  0  0  0  0  0  0  0  0  0  0  # atno 8009 bound_to 7997
  154.4558  140.1941  156.0402 H   0  0  0  0  0  0  0  0  0  0  0  0  # atno 8010 bound_to 7997
  139.6301  144.7114  151.2450 H   0  0  0  0  0  0  0  0  0  0  0  0  # atno 10167 bound_to 10162
  156.6411  130.4928  149.6094 H   0  0  0  0  0  0  0  0  0  0  0  0  # atno 10718 bound_to 10713
  154.6785  135.5259  153.8231 H   0  0  0  0  0  0  0  0  0  0  0  0  # atno 10763 bound_to 10752
  153.0548  135.6546  154.0613 H   0  0  0  0  0  0  0  0  0  0  0  0  # atno 10764 bound_to 10752
  154.0503  135.2970  155.3321 H   0  0  0  0  0  0  0  0  0  0  0  0  # atno 10765 bound_to 10752
  139.8941  134.9541  156.6669 H   0  0  0  0  0  0  0  0  0  0  0  0  # atno 11005 bound_to 11000
  145.7144  141.0096  143.1436 LP  0  0  0  0  0  0  0  0  0  0  0  0  # atno 17320 bound_to 7965
  144.7003  139.8795  143.7446 LP  0  0  0  0  0  0  0  0  0  0  0  0  # atno 17321 bound_to 7965
  140.7434  143.6495  150.8261 LP  0  0  0  0  0  0  0  0  0  0  0  0  # atno 17342 bound_to 10162
  140.0119  143.5633  152.2835 LP  0  0  0  0  0  0  0  0  0  0  0  0  # atno 17343 bound_to 10162
  156.2158  130.6707  151.1317 LP  0  0  0  0  0  0  0  0  0  0  0  0  # atno 17370 bound_to 10713
  157.7170  131.0704  150.6286 LP  0  0  0  0  0  0  0  0  0  0  0  0  # atno 17371 bound_to 10713
  140.7404  133.8983  155.8274 LP  0  0  0  0  0  0  0  0  0  0  0  0  # atno 17394 bound_to 11000
  141.0082  134.1056  157.4248 LP  0  0  0  0  0  0  0  0  0  0  0  0  # atno 17395 bound_to 11000

$$$$
