AV-unprocessed.smi:1046|AV-procd|sdf|4555|dock10
  -GOLD-   22720 2593D 1   1.00000     0.00000
 Structure written by MMmdl.
 54 56  0  0  0  0  0  0  0  0  3 V2000
  153.3415  141.8805  160.2881 C   0  0  0  0  0  0  0  0  0  0  0  0
  152.5474  141.5363  159.0404 C   0  0  0  0  0  0  0  0  0  0  0  0
  152.6034  140.2189  158.5324 C   0  0  0  0  0  0  0  0  0  0  0  0
  151.8848  139.8591  157.3716 C   0  0  0  0  0  0  0  0  0  0  0  0
  151.7972  138.6476  156.7076 N   0  0  0  0  0  0  0  0  0  0  0  0
  150.9827  138.9505  155.7016 C   0  0  0  0  0  0  0  0  0  0  0  0
  150.5172  140.2135  155.6445 N   0  0  0  0  0  0  0  0  0  0  0  0
  149.6129  140.7702  154.6550 C   0  0  0  0  0  0  0  0  0  0  0  0
  148.1500  140.8005  155.1409 C   0  0  1  0  0  0  0  0  0  0  0  0
  148.0380  141.8199  156.1127 O   0  0  0  0  0  0  0  0  0  0  0  0
  147.1330  141.0766  154.0109 C   0  0  0  0  0  0  0  0  0  0  0  0
  146.4908  139.8382  153.5001 N   0  3  2  0  0  0  0  0  0  0  0  0
  146.6211  138.6787  154.4195 C   0  0  0  0  0  0  0  0  0  0  0  0
  145.8690  137.4518  153.8743 C   0  0  0  0  0  0  0  0  0  0  0  0
  146.3314  137.0988  152.5095 N   0  3  1  0  0  0  0  0  0  0  0  0
  145.6891  135.8603  151.9986 C   0  0  0  0  0  0  0  0  0  0  0  0
  145.9468  135.6327  150.4989 C   0  0  0  0  0  0  0  0  0  0  0  0
  144.9149  136.2223  149.7365 O   0  0  0  0  0  0  0  0  0  0  0  0
  146.2042  138.2579  151.5897 C   0  0  0  0  0  0  0  0  0  0  0  0
  146.9549  139.4856  152.1359 C   0  0  0  0  0  0  0  0  0  0  0  0
  151.0987  140.8602  156.7298 C   0  0  0  0  0  0  0  0  0  0  0  0
  151.0342  142.1743  157.2258 C   0  0  0  0  0  0  0  0  0  0  0  0
  151.7604  142.5175  158.3855 C   0  0  0  0  0  0  0  0  0  0  0  0
  151.6885  143.9403  158.9110 C   0  0  0  0  0  0  0  0  0  0  0  0
  153.9197  141.0261  160.6409 H   0  0  0  0  0  0  0  0  0  0  0  0
  152.6734  142.1880  161.0929 H   0  0  0  0  0  0  0  0  0  0  0  0
  154.0388  142.6939  160.0858 H   0  0  0  0  0  0  0  0  0  0  0  0
  153.2041  139.4720  159.0305 H   0  0  0  0  0  0  0  0  0  0  0  0
  150.7000  138.2082  154.9694 H   0  0  0  0  0  0  0  0  0  0  0  0
  149.9547  141.7770  154.4110 H   0  0  0  0  0  0  0  0  0  0  0  0
  149.6967  140.1813  153.7401 H   0  0  0  0  0  0  0  0  0  0  0  0
  147.9311  139.8504  155.6261 H   0  0  0  0  0  0  0  0  0  0  0  0
  148.5055  142.5827  155.8057 H   0  0  0  0  0  0  0  0  0  0  0  0
  146.3695  141.7539  154.3969 H   0  0  0  0  0  0  0  0  0  0  0  0
  147.6032  141.5956  153.1747 H   0  0  0  0  0  0  0  0  0  0  0  0
  147.6767  138.4381  154.5557 H   0  0  0  0  0  0  0  0  0  0  0  0
  146.2257  138.9249  155.4042 H   0  0  0  0  0  0  0  0  0  0  0  0
  146.0258  136.6071  154.5464 H   0  0  0  0  0  0  0  0  0  0  0  0
  144.7955  137.6476  153.8558 H   0  0  0  0  0  0  0  0  0  0  0  0
  146.0707  134.9958  152.5446 H   0  0  0  0  0  0  0  0  0  0  0  0
  144.6170  135.8962  152.1978 H   0  0  0  0  0  0  0  0  0  0  0  0
  146.8904  136.0985  150.2135 H   0  0  0  0  0  0  0  0  0  0  0  0
  146.0318  134.5755  150.2499 H   0  0  0  0  0  0  0  0  0  0  0  0
  145.1080  136.0975  148.8187 H   0  0  0  0  0  0  0  0  0  0  0  0
  146.6022  138.0089  150.6066 H   0  0  0  0  0  0  0  0  0  0  0  0
  145.1489  138.4992  151.4511 H   0  0  0  0  0  0  0  0  0  0  0  0
  146.7986  140.3300  151.4634 H   0  0  0  0  0  0  0  0  0  0  0  0
  148.0285  139.2905  152.1566 H   0  0  0  0  0  0  0  0  0  0  0  0
  150.4350  142.9139  156.7158 H   0  0  0  0  0  0  0  0  0  0  0  0
  151.0097  144.5510  158.3151 H   0  0  0  0  0  0  0  0  0  0  0  0
  152.6729  144.4080  158.8807 H   0  0  0  0  0  0  0  0  0  0  0  0
  151.3313  143.9514  159.9409 H   0  0  0  0  0  0  0  0  0  0  0  0
  145.5055  140.0485  153.4201 H   0  0  0  0  0  0  0  0  0  0  0  0
  147.3165  136.8876  152.5895 H   0  0  0  0  0  0  0  0  0  0  0  0
  1  2  1  0  0  0  0
  1 25  1  0  0  0  0
  1 26  1  0  0  0  0
  1 27  1  0  0  0  0
  2 23  1  0  0  0  0
  2  3  2  0  0  0  0
  3  4  1  0  0  0  0
  3 28  1  0  0  0  0
  4 21  2  0  0  0  0
  4  5  1  0  0  0  0
  5  6  2  0  0  0  0
  6  7  1  0  0  0  0
  6 29  1  0  0  0  0
  7  8  1  0  0  0  0
  7 21  1  0  0  0  0
  8  9  1  0  0  0  0
  8 30  1  0  0  0  0
  8 31  1  0  0  0  0
  9 10  1  0  0  0  0
  9 11  1  0  0  0  0
  9 32  1  0  0  0  0
 10 33  1  0  0  0  0
 11 12  1  0  0  0  0
 11 34  1  0  0  0  0
 11 35  1  0  0  0  0
 12 20  1  0  0  0  0
 12 13  1  0  0  0  0
 12 53  1  0  0  0  0
 13 14  1  0  0  0  0
 13 36  1  0  0  0  0
 13 37  1  0  0  0  0
 14 15  1  0  0  0  0
 14 38  1  0  0  0  0
 14 39  1  0  0  0  0
 15 16  1  0  0  0  0
 15 19  1  0  0  0  0
 15 54  1  0  0  0  0
 16 17  1  0  0  0  0
 16 40  1  0  0  0  0
 16 41  1  0  0  0  0
 17 18  1  0  0  0  0
 17 42  1  0  0  0  0
 17 43  1  0  0  0  0
 18 44  1  0  0  0  0
 19 20  1  0  0  0  0
 19 45  1  0  0  0  0
 19 46  1  0  0  0  0
 20 47  1  0  0  0  0
 20 48  1  0  0  0  0
 21 22  1  0  0  0  0
 22 23  2  0  0  0  0
 22 49  1  0  0  0  0
 23 24  1  0  0  0  0
 24 50  1  0  0  0  0
 24 51  1  0  0  0  0
 24 52  1  0  0  0  0
M  CHG  1  12   1
M  CHG  1  15   1
M  END
> <s_m_source_file>
AV-unprocessed.smi

> <i_m_source_file_index>
1046

> <i_lp_mmshare_version>
43012

> <i_f3d_flags>
0

> <s_epik_input>
W0NIM11jKFtjSF0xKWMoW0NIM10pW2NIXWMoYzEyKW4oW2NIXW4yKVtDSDJdW0NASF0oW09IXSlbQ0gyXU4zW0NIMl1bQ0gyXU4oW0NIMl1bQ0gyXTMpW0NIMl1bQ0gyXVtPSF0=

> <s_epik_cmdline>
J2VwaWtfcHl0aG9uJywgJy1waCcsICc3LjAnLCAnLXRuJywgJzgnLCAnLW1hJywgJzIwMCcsICctbWV0YWxfYmluZGluZycsICctaW1hZScsICc8aW5maWxlLm1hZT4nLCAnLW9tYWUnLCAnPG91dGZpbGUubWFlPic=

> <r_epik_Ionization_Penalty>
3.17398

> <r_epik_Ionization_Penalty_Charging>
3.09061

> <r_epik_Ionization_Penalty_Neutral>
0.0833726

> <r_epik_State_Penalty>
2.17606

> <r_epik_Charging_Adjusted_Penalty>
5.26667

> <i_epik_Tot_Q>
2

> <i_epik_Tot_abs_Q>
2

> <r_epik_Metal_State_Penalty>
2.08587

> <b_epik_Metal_Only>
0

> <s_lp_Force_Field>
OPLS_2005

> <r_lp_Energy>
27.7872

> <b_lp_Chiralities_Consistent>
1

> <s_lp_Variant>
AV-unprocessed.smi:1046-8

> <Gold.Version>
5.8.1

> <Gold.Id.Protein>
6NUR|6NUR_protein|mol2

> <Gold.PLP.Fitness>
59.8338

> <Gold.PLP.PLP>
-47.5954

> <Gold.PLP.part.hbond>
-5.0000

> <Gold.PLP.part.metal>
0.0000

> <Gold.PLP.part.buried>
0.6878

> <Gold.PLP.part.nonpolar>
-43.4063

> <Gold.PLP.part.repulsive>
0.0290

> <Gold.PLP.ligand.clash>
1.3384

> <Gold.PLP.ligand.torsion>
1.8996

> <Gold.PLP.Chemscore.Hbond>
5.7518

> <Gold.PLP.Chemscore.CHOScore>
0.0000

> <Gold.PLP.Chemscore.Metal>
0.0000

> <Gold.Chemscore.Hbonds>
donor molecule, donor type, donor heavy atom, donor atom, acceptor molecule, acceptor atom, score
      L1  H    10    33       P1  8028  0.67
      L1  H    12    53       P1 10175  1.66
      L1  H    15    54       P1  7948  2.00
      L1  H    18    44       P1  7921  0.80

> <Gold.PLP.Chemscore.Internal.Correction>
0.1207

> <Gold.Rescore>
     Score         DG    S(hbond)    S(metal)    S(lipo)     H(rot)  DE(clash)    DE(int)     intcor
     20.94     -24.34       3.67        0.00     128.19       3.28       1.46       1.94       ----

> <Gold.Chemscore.Fitness>
20.9409

> <Gold.Chemscore.DG>
-24.3437

> <Gold.Chemscore.ZeroCoef>
-5.4800

> <Gold.Chemscore.Hbond>
3.6734

> <Gold.Chemscore.Metal>
0.0000

> <Gold.Chemscore.Lipo>
128.1926

> <Gold.Chemscore.Internal_Hbond>
0.0000

> <Gold.Chemscore.DEClash>
1.4644

> <Gold.Chemscore.DEInternal>
1.9384

> <Gold.Chemscore.Rot>
3.2828

> <Gold.Chemscore.Internal.Correction>
   9.000000E+99

> <Gold.Chemscore.Hbonds>
donor molecule, donor type, donor heavy atom, donor atom, acceptor molecule, acceptor atom, score
      L1  H    10    33       P1  8028  0.65
      L1  H    12    53       P1 10175  0.82
      L1  H    15    54       P1  7948  0.95
      L1  H    18    44       P1  7921  0.76

> <Gold.Chemscore.Hbond.Weighted>
-12.2691

> <Gold.Chemscore.Metal.Weighted>
-0.0000

> <Gold.Chemscore.Lipo.Weighted>
-14.9985

> <Gold.Chemscore.Internal_Hbond.Weighted>
0.0000

> <Gold.Chemscore.DEClash.Weighted>
1.4644

> <Gold.Chemscore.DEInternal.Weighted>
1.9384

> <Gold.Chemscore.Rot.Weighted>
8.4039

> <Gold.Chemscore.Internal.Correction.Weighted>
   9.000000E+99

> <Gold.Protein.RotatedTorsions>
[ 6907 6896 6895 6894 ] final   43.12 input  -60.11 | X-H torsion
[ 7974 7965 7964 7962 ] final -117.81 input  175.53 | X-H torsion
[ 8008 7997 7996 7995 ] final  -11.52 input   59.86 | X-H torsion
[ 10167 10162 10161 10158 ] final   51.48 input  -65.29 | X-H torsion
[ 10718 10713 10712 10709 ] final  -74.01 input   66.30 | X-H torsion
[ 10763 10752 10751 10750 ] final  -98.66 input  -60.55 | X-H torsion
[ 11005 11000 10999 10996 ] final   41.08 input  -57.11 | X-H torsion

> <Gold.Protein.ActiveResidues>
 VAL166  LYS551  ARG553  GLY616  TRP617  ASP618  TYR619  PRO620  LYS621  CYS622 
 ASP623  PHE694  ASN695  SER759  ASP760  ASP761  ALA762  ILE779  LEU786  VAL792 
 PHE793  MET794  SER795  GLU796  ALA797  LYS798  CYS799  TRP800  GLU811  SER814 

> <Gold.Protein.RotatedAtoms>
  152.2163  134.8454  160.0491 H   0  0  0  0  0  0  0  0  0  0  0  0  # atno 6907 bound_to 6896
  151.9254  133.3591  159.3920 H   0  0  0  0  0  0  0  0  0  0  0  0  # atno 6908 bound_to 6896
  150.6988  134.4517  159.5383 H   0  0  0  0  0  0  0  0  0  0  0  0  # atno 6909 bound_to 6896
  145.0809  140.8425  143.4039 H   0  0  0  0  0  0  0  0  0  0  0  0  # atno 7974 bound_to 7965
  154.5457  140.2300  155.8567 H   0  0  0  0  0  0  0  0  0  0  0  0  # atno 8008 bound_to 7997
  156.1900  140.3079  155.9276 H   0  0  0  0  0  0  0  0  0  0  0  0  # atno 8009 bound_to 7997
  155.3169  140.0438  157.3028 H   0  0  0  0  0  0  0  0  0  0  0  0  # atno 8010 bound_to 7997
  140.2615  144.3367  150.6316 H   0  0  0  0  0  0  0  0  0  0  0  0  # atno 10167 bound_to 10162
  156.0258  130.4407  150.2828 H   0  0  0  0  0  0  0  0  0  0  0  0  # atno 10718 bound_to 10713
  154.7433  135.5001  153.9160 H   0  0  0  0  0  0  0  0  0  0  0  0  # atno 10763 bound_to 10752
  153.1066  135.6698  153.9584 H   0  0  0  0  0  0  0  0  0  0  0  0  # atno 10764 bound_to 10752
  153.9355  135.3073  155.3423 H   0  0  0  0  0  0  0  0  0  0  0  0  # atno 10765 bound_to 10752
  140.1869  134.4035  155.8168 H   0  0  0  0  0  0  0  0  0  0  0  0  # atno 11005 bound_to 11000
  145.1179  139.2713  143.5603 LP  0  0  0  0  0  0  0  0  0  0  0  0  # atno 17320 bound_to 7965
  146.3531  140.0794  142.8618 LP  0  0  0  0  0  0  0  0  0  0  0  0  # atno 17321 bound_to 7965
  140.5962  143.2167  151.7160 LP  0  0  0  0  0  0  0  0  0  0  0  0  # atno 17342 bound_to 10162
  139.5015  144.3864  152.0324 LP  0  0  0  0  0  0  0  0  0  0  0  0  # atno 17343 bound_to 10162
  157.0931  131.0175  151.3114 LP  0  0  0  0  0  0  0  0  0  0  0  0  # atno 17370 bound_to 10713
  157.4838  130.7781  149.7440 LP  0  0  0  0  0  0  0  0  0  0  0  0  # atno 17371 bound_to 10713
  141.2225  133.7027  156.8028 LP  0  0  0  0  0  0  0  0  0  0  0  0  # atno 17394 bound_to 11000
  140.2204  134.8761  157.3370 LP  0  0  0  0  0  0  0  0  0  0  0  0  # atno 17395 bound_to 11000

$$$$
