AV-unprocessed.smi:524|AV-procd|sdf|2805|dock8
  -GOLD-   2262023283D 1   1.00000     0.00000
 Structure written by MMmdl.
 43 45  0  0  0  0  0  0  0  0  1 V2000
  147.3752  141.1009  153.5218 C   0  0  0  0  0  0  0  0  0  0  0  0
  148.6119  141.6867  153.8867 O   0  0  0  0  0  0  0  0  0  0  0  0
  148.9730  141.4018  155.2284 C   0  0  0  0  0  0  0  0  0  0  0  0
  150.3229  142.0556  155.5544 C   0  0  0  0  0  0  0  0  0  0  0  0
  151.1083  141.2465  156.4846 N   0  0  0  0  0  0  0  0  0  0  0  0
  151.5861  141.5911  157.7129 C   0  0  0  0  0  0  0  0  0  0  0  0
  151.3978  142.8621  158.2595 N   0  0  0  0  0  0  0  0  0  0  0  0
  150.7384  143.1703  159.5295 C   0  0  0  0  0  0  0  0  0  0  0  0
  151.5915  144.1108  160.4000 C   0  0  0  0  0  0  0  0  0  0  0  0
  151.8958  145.4117  159.6444 C   0  0  0  0  0  0  0  0  0  0  0  0
  152.4849  145.0916  158.2634 C   0  0  0  0  0  0  0  0  0  0  0  0
  151.5864  144.0995  157.5033 C   0  0  0  0  0  0  0  0  0  0  0  0
  152.2008  140.6025  158.3685 N   0  0  0  0  0  0  0  0  0  0  0  0
  152.1305  139.5446  157.4770 C   0  0  0  0  0  0  0  0  0  0  0  0
  151.4724  139.9043  156.3462 C   0  0  0  0  0  0  0  0  0  0  0  0
  151.2142  138.9528  155.2553 C   0  0  0  0  0  0  0  0  0  0  0  0
  150.6109  139.2431  154.2250 O   0  0  0  0  0  0  0  0  0  0  0  0
  151.7028  137.7134  155.5040 N   0  0  0  0  0  0  0  0  0  0  0  0
  152.3754  137.2904  156.6174 C   0  0  0  0  0  0  0  0  0  0  0  0
  152.7472  136.1199  156.6975 O   0  0  0  0  0  0  0  0  0  0  0  0
  152.6029  138.2096  157.6106 N   0  0  0  0  0  0  0  0  0  0  0  0
  153.3106  137.8543  158.8425 C   0  0  0  0  0  0  0  0  0  0  0  0
  151.5471  137.0202  154.7868 H   0  0  0  0  0  0  0  0  0  0  0  0
  147.1412  141.3548  152.4880 H   0  0  0  0  0  0  0  0  0  0  0  0
  146.5636  141.4685  154.1511 H   0  0  0  0  0  0  0  0  0  0  0  0
  147.4160  140.0137  153.6005 H   0  0  0  0  0  0  0  0  0  0  0  0
  148.2070  141.7752  155.9094 H   0  0  0  0  0  0  0  0  0  0  0  0
  149.0385  140.3225  155.3736 H   0  0  0  0  0  0  0  0  0  0  0  0
  150.8903  142.2230  154.6417 H   0  0  0  0  0  0  0  0  0  0  0  0
  150.1668  143.0492  155.9638 H   0  0  0  0  0  0  0  0  0  0  0  0
  149.7775  143.6408  159.3167 H   0  0  0  0  0  0  0  0  0  0  0  0
  150.4994  142.2539  160.0675 H   0  0  0  0  0  0  0  0  0  0  0  0
  151.0711  144.3337  161.3318 H   0  0  0  0  0  0  0  0  0  0  0  0
  152.5248  143.6192  160.6759 H   0  0  0  0  0  0  0  0  0  0  0  0
  150.9769  145.9865  159.5234 H   0  0  0  0  0  0  0  0  0  0  0  0
  152.5830  146.0344  160.2177 H   0  0  0  0  0  0  0  0  0  0  0  0
  152.6028  146.0087  157.6857 H   0  0  0  0  0  0  0  0  0  0  0  0
  153.4828  144.6663  158.3787 H   0  0  0  0  0  0  0  0  0  0  0  0
  152.0367  143.8713  156.5364 H   0  0  0  0  0  0  0  0  0  0  0  0
  150.6143  144.5482  157.2947 H   0  0  0  0  0  0  0  0  0  0  0  0
  153.8277  136.8953  158.7917 H   0  0  0  0  0  0  0  0  0  0  0  0
  152.6074  137.8111  159.6747 H   0  0  0  0  0  0  0  0  0  0  0  0
  154.0627  138.6086  159.0770 H   0  0  0  0  0  0  0  0  0  0  0  0
  1  2  1  0  0  0  0
  1 24  1  0  0  0  0
  1 25  1  0  0  0  0
  1 26  1  0  0  0  0
  2  3  1  0  0  0  0
  3  4  1  0  0  0  0
  3 27  1  0  0  0  0
  3 28  1  0  0  0  0
  4  5  1  0  0  0  0
  4 29  1  0  0  0  0
  4 30  1  0  0  0  0
  5 15  1  0  0  0  0
  5  6  1  0  0  0  0
  6  7  1  0  0  0  0
  6 13  2  0  0  0  0
  7 12  1  0  0  0  0
  7  8  1  0  0  0  0
  8  9  1  0  0  0  0
  8 31  1  0  0  0  0
  8 32  1  0  0  0  0
  9 10  1  0  0  0  0
  9 33  1  0  0  0  0
  9 34  1  0  0  0  0
 10 11  1  0  0  0  0
 10 35  1  0  0  0  0
 10 36  1  0  0  0  0
 11 12  1  0  0  0  0
 11 37  1  0  0  0  0
 11 38  1  0  0  0  0
 12 39  1  0  0  0  0
 12 40  1  0  0  0  0
 13 14  1  0  0  0  0
 14 21  1  0  0  0  0
 14 15  2  0  0  0  0
 15 16  1  0  0  0  0
 16 17  2  0  0  0  0
 16 18  1  0  0  0  0
 18 23  1  0  0  0  0
 18 19  1  0  0  0  0
 19 20  2  0  0  0  0
 19 21  1  0  0  0  0
 21 22  1  0  0  0  0
 22 41  1  0  0  0  0
 22 42  1  0  0  0  0
 22 43  1  0  0  0  0
M  END
> <s_m_source_file>
AV-unprocessed.smi

> <i_m_source_file_index>
524

> <i_lp_mmshare_version>
43012

> <i_f3d_flags>
0

> <s_epik_input>
W0NIM11uMWMoPU8pW25IXWMoPU8pYyhjMTIpbihbQ0gyXVtDSDJdT1tDSDNdKWMobjIpTjNbQ0gyXVtDSDJdW0NIMl1bQ0gyXVtDSDJdMw==

> <s_epik_cmdline>
J2VwaWtfcHl0aG9uJywgJy1waCcsICc3LjAnLCAnLXRuJywgJzgnLCAnLW1hJywgJzIwMCcsICctbWV0YWxfYmluZGluZycsICctaW1hZScsICc8aW5maWxlLm1hZT4nLCAnLW9tYWUnLCAnPG91dGZpbGUubWFlPic=

> <r_lp_tautomer_probability>
1

> <r_epik_Ionization_Penalty>
0.000298119

> <r_epik_Ionization_Penalty_Charging>
0.000125384

> <r_epik_Ionization_Penalty_Neutral>
0.000172735

> <r_epik_State_Penalty>
-0

> <r_epik_Charging_Adjusted_Penalty>
0.000125384

> <i_epik_Tot_Q>
0

> <i_epik_Tot_abs_Q>
0

> <r_epik_Metal_State_Penalty>
0.0954001

> <b_epik_Metal_Only>
0

> <s_lp_Force_Field>
OPLS_2005

> <r_lp_Energy>
37.2528

> <b_lp_Chiralities_Consistent>
1

> <s_lp_Variant>
AV-unprocessed.smi:524-1

> <Gold.Version>
5.8.1

> <Gold.Id.Protein>
6NUR|6NUR_protein|mol2

> <Gold.PLP.Fitness>
46.0641

> <Gold.PLP.PLP>
-39.9811

> <Gold.PLP.part.hbond>
-3.0000

> <Gold.PLP.part.metal>
0.0000

> <Gold.PLP.part.buried>
-4.3389

> <Gold.PLP.part.nonpolar>
-33.2454

> <Gold.PLP.part.repulsive>
0.4768

> <Gold.PLP.ligand.clash>
0.0000

> <Gold.PLP.ligand.torsion>
1.1196

> <Gold.PLP.Chemscore.Hbond>
2.6080

> <Gold.PLP.Chemscore.CHOScore>
0.0000

> <Gold.PLP.Chemscore.Metal>
0.0000

> <Gold.Chemscore.Hbonds>
donor molecule, donor type, donor heavy atom, donor atom, acceptor molecule, acceptor atom, score
      P1  H  7989  7998       L1    17  0.96
      P1  H  8011  8017       L1     2  0.52
      P1  H 10752 10763       L1    20  1.00

> <Gold.PLP.Chemscore.Internal.Correction>
0.4983

> <Gold.Rescore>
     Score         DG    S(hbond)    S(metal)    S(lipo)     H(rot)  DE(clash)    DE(int)     intcor
     16.64     -19.80       2.13        0.00      94.18       1.48       0.95       2.21       ----

> <Gold.Chemscore.Fitness>
16.6363

> <Gold.Chemscore.DG>
-19.8005

> <Gold.Chemscore.ZeroCoef>
-5.4800

> <Gold.Chemscore.Hbond>
2.1251

> <Gold.Chemscore.Metal>
0.0000

> <Gold.Chemscore.Lipo>
94.1843

> <Gold.Chemscore.Internal_Hbond>
0.0000

> <Gold.Chemscore.DEClash>
0.9543

> <Gold.Chemscore.DEInternal>
2.2099

> <Gold.Chemscore.Rot>
1.4832

> <Gold.Chemscore.Internal.Correction>
   9.000000E+99

> <Gold.Chemscore.Hbonds>
donor molecule, donor type, donor heavy atom, donor atom, acceptor molecule, acceptor atom, score
      P1  H  7989  7998       L1    17  0.41
      P1  H  8011  8017       L1     2  0.47
      P1  H 10752 10763       L1    20  0.97

> <Gold.Chemscore.Hbond.Weighted>
-7.0979

> <Gold.Chemscore.Metal.Weighted>
-0.0000

> <Gold.Chemscore.Lipo.Weighted>
-11.0196

> <Gold.Chemscore.Internal_Hbond.Weighted>
0.0000

> <Gold.Chemscore.DEClash.Weighted>
0.9543

> <Gold.Chemscore.DEInternal.Weighted>
2.2099

> <Gold.Chemscore.Rot.Weighted>
3.7970

> <Gold.Chemscore.Internal.Correction.Weighted>
   9.000000E+99

> <Gold.Protein.RotatedTorsions>
[ 6907 6896 6895 6894 ] final -131.91 input  -60.11 | X-H torsion
[ 7974 7965 7964 7962 ] final -147.79 input  175.53 | X-H torsion
[ 8008 7997 7996 7995 ] final -144.17 input   59.86 | X-H torsion
[ 10167 10162 10161 10158 ] final  -93.13 input  -65.29 | X-H torsion
[ 10718 10713 10712 10709 ] final  152.24 input   66.30 | X-H torsion
[ 10763 10752 10751 10750 ] final  121.37 input  -60.55 | X-H torsion
[ 11005 11000 10999 10996 ] final    4.44 input  -57.11 | X-H torsion

> <Gold.Protein.ActiveResidues>
 VAL166  LYS551  ARG553  GLY616  TRP617  ASP618  TYR619  PRO620  LYS621  CYS622 
 ASP623  PHE694  ASN695  SER759  ASP760  ASP761  ALA762  ILE779  LEU786  VAL792 
 PHE793  MET794  SER795  GLU796  ALA797  LYS798  CYS799  TRP800  GLU811  SER814 

> <Gold.Protein.RotatedAtoms>
  150.9563  133.6493  159.2762 H   0  0  0  0  0  0  0  0  0  0  0  0  # atno 6907 bound_to 6896
  151.3832  135.0942  159.9512 H   0  0  0  0  0  0  0  0  0  0  0  0  # atno 6908 bound_to 6896
  152.5130  133.9093  159.7535 H   0  0  0  0  0  0  0  0  0  0  0  0  # atno 6909 bound_to 6896
  144.8070  140.5281  143.5668 H   0  0  0  0  0  0  0  0  0  0  0  0  # atno 7974 bound_to 7965
  155.5225  140.0592  157.2904 H   0  0  0  0  0  0  0  0  0  0  0  0  # atno 8008 bound_to 7997
  154.4512  140.1950  156.0459 H   0  0  0  0  0  0  0  0  0  0  0  0  # atno 8009 bound_to 7997
  156.0708  140.3260  155.7578 H   0  0  0  0  0  0  0  0  0  0  0  0  # atno 8010 bound_to 7997
  140.3278  143.3012  151.9976 H   0  0  0  0  0  0  0  0  0  0  0  0  # atno 10167 bound_to 10162
  157.2604  131.0797  151.1670 H   0  0  0  0  0  0  0  0  0  0  0  0  # atno 10718 bound_to 10713
  153.6131  135.3427  155.2985 H   0  0  0  0  0  0  0  0  0  0  0  0  # atno 10763 bound_to 10752
  154.8615  135.4255  154.2288 H   0  0  0  0  0  0  0  0  0  0  0  0  # atno 10764 bound_to 10752
  153.3143  135.7034  153.7159 H   0  0  0  0  0  0  0  0  0  0  0  0  # atno 10765 bound_to 10752
  140.5819  134.0005  155.8051 H   0  0  0  0  0  0  0  0  0  0  0  0  # atno 11005 bound_to 11000
  145.5413  139.1475  143.3445 LP  0  0  0  0  0  0  0  0  0  0  0  0  # atno 17320 bound_to 7965
  146.2363  140.5553  142.8953 LP  0  0  0  0  0  0  0  0  0  0  0  0  # atno 17321 bound_to 7965
  139.4862  144.6260  151.7164 LP  0  0  0  0  0  0  0  0  0  0  0  0  # atno 17342 bound_to 10162
  140.5425  144.0556  150.6094 LP  0  0  0  0  0  0  0  0  0  0  0  0  # atno 17343 bound_to 10162
  157.3182  130.6924  149.6254 LP  0  0  0  0  0  0  0  0  0  0  0  0  # atno 17370 bound_to 10713
  155.9664  130.4343  150.5044 LP  0  0  0  0  0  0  0  0  0  0  0  0  # atno 17371 bound_to 10713
  141.0990  133.9797  157.3110 LP  0  0  0  0  0  0  0  0  0  0  0  0  # atno 17394 bound_to 11000
  139.9313  135.0199  156.8410 LP  0  0  0  0  0  0  0  0  0  0  0  0  # atno 17395 bound_to 11000

$$$$
