AV-unprocessed.smi:1207|AV-procd|sdf|5053|dock5
  -GOLD-   22720 4 83D 1   1.00000     0.00000
 Structure written by MMmdl.
 52 54  0  0  0  0  0  0  0  0  2 V2000
  153.4122  142.4537  160.4817 C   0  0  0  0  0  0  0  0  0  0  0  0
  152.3655  142.1807  159.4158 C   0  0  0  0  0  0  0  0  0  0  0  0
  151.8335  140.8773  159.2936 C   0  0  0  0  0  0  0  0  0  0  0  0
  150.8582  140.5817  158.3169 C   0  0  0  0  0  0  0  0  0  0  0  0
  150.2046  139.3959  158.0297 N   0  0  0  0  0  0  0  0  0  0  0  0
  149.4170  139.7602  157.0226 C   0  0  0  0  0  0  0  0  0  0  0  0
  149.4771  141.0462  156.6270 N   0  0  0  0  0  0  0  0  0  0  0  0
  148.7062  141.6659  155.5650 C   0  0  0  0  0  0  0  0  0  0  0  0
  148.5013  140.7223  154.3646 C   0  0  2  0  0  0  0  0  0  0  0  0
  149.5980  140.8890  153.4893 O   0  0  0  0  0  0  0  0  0  0  0  0
  147.1965  140.9904  153.5819 C   0  0  0  0  0  0  0  0  0  0  0  0
  145.9958  140.5552  154.3384 N   0  3  2  0  0  0  0  0  0  0  0  0
  145.5915  141.5462  155.3634 C   0  0  0  0  0  0  0  0  0  0  0  0
  146.1259  139.1806  154.8879 C   0  0  0  0  0  0  0  0  0  0  0  0
  145.4856  138.1650  153.9787 C   0  0  0  0  0  0  0  0  0  0  0  0
  145.7169  137.9520  152.5886 C   0  0  0  0  0  0  0  0  0  0  0  0
  146.6532  138.6806  151.6674 C   0  0  0  0  0  0  0  0  0  0  0  0
  144.9719  136.9700  152.1110 N   0  0  0  0  0  0  0  0  0  0  0  0
  144.2138  136.5026  153.1885 O   0  0  0  0  0  0  0  0  0  0  0  0
  144.5352  137.2305  154.2870 C   0  0  0  0  0  0  0  0  0  0  0  0
  143.8229  136.8790  155.5494 C   0  0  0  0  0  0  0  0  0  0  0  0
  150.4270  141.6336  157.4566 C   0  0  0  0  0  0  0  0  0  0  0  0
  150.9496  142.9346  157.5673 C   0  0  0  0  0  0  0  0  0  0  0  0
  151.9226  143.2129  158.5501 C   0  0  0  0  0  0  0  0  0  0  0  0
  152.4814  144.6203  158.6626 C   0  0  0  0  0  0  0  0  0  0  0  0
  153.6155  141.5632  161.0771 H   0  0  0  0  0  0  0  0  0  0  0  0
  153.0745  143.2376  161.1598 H   0  0  0  0  0  0  0  0  0  0  0  0
  154.3490  142.7709  160.0236 H   0  0  0  0  0  0  0  0  0  0  0  0
  152.1710  140.0909  159.9528 H   0  0  0  0  0  0  0  0  0  0  0  0
  148.7521  139.0532  156.5480 H   0  0  0  0  0  0  0  0  0  0  0  0
  147.7466  141.9897  155.9698 H   0  0  0  0  0  0  0  0  0  0  0  0
  149.2317  142.5687  155.2496 H   0  0  0  0  0  0  0  0  0  0  0  0
  148.5241  139.6952  154.7281 H   0  0  0  0  0  0  0  0  0  0  0  0
  149.5061  140.2839  152.7688 H   0  0  0  0  0  0  0  0  0  0  0  0
  147.0858  142.0479  153.3400 H   0  0  0  0  0  0  0  0  0  0  0  0
  147.2538  140.4692  152.6248 H   0  0  0  0  0  0  0  0  0  0  0  0
  146.3531  141.6397  156.1388 H   0  0  0  0  0  0  0  0  0  0  0  0
  144.6522  141.2626  155.8378 H   0  0  0  0  0  0  0  0  0  0  0  0
  145.4392  142.5278  154.9133 H   0  0  0  0  0  0  0  0  0  0  0  0
  147.1786  138.9327  155.0207 H   0  0  0  0  0  0  0  0  0  0  0  0
  145.6971  139.1516  155.8905 H   0  0  0  0  0  0  0  0  0  0  0  0
  147.5428  139.0230  152.1953 H   0  0  0  0  0  0  0  0  0  0  0  0
  146.1689  139.5545  151.2316 H   0  0  0  0  0  0  0  0  0  0  0  0
  146.9857  138.0420  150.8483 H   0  0  0  0  0  0  0  0  0  0  0  0
  144.2239  137.4352  156.3964 H   0  0  0  0  0  0  0  0  0  0  0  0
  143.9253  135.8158  155.7676 H   0  0  0  0  0  0  0  0  0  0  0  0
  142.7601  137.1073  155.4687 H   0  0  0  0  0  0  0  0  0  0  0  0
  150.6044  143.7127  156.9030 H   0  0  0  0  0  0  0  0  0  0  0  0
  152.0425  145.2845  157.9177 H   0  0  0  0  0  0  0  0  0  0  0  0
  153.5610  144.6155  158.5118 H   0  0  0  0  0  0  0  0  0  0  0  0
  152.2710  145.0370  159.6477 H   0  0  0  0  0  0  0  0  0  0  0  0
  145.2454  140.5291  153.6623 H   0  0  0  0  0  0  0  0  0  0  0  0
  1  2  1  0  0  0  0
  1 26  1  0  0  0  0
  1 27  1  0  0  0  0
  1 28  1  0  0  0  0
  2 24  1  0  0  0  0
  2  3  2  0  0  0  0
  3  4  1  0  0  0  0
  3 29  1  0  0  0  0
  4 22  2  0  0  0  0
  4  5  1  0  0  0  0
  5  6  2  0  0  0  0
  6  7  1  0  0  0  0
  6 30  1  0  0  0  0
  7  8  1  0  0  0  0
  7 22  1  0  0  0  0
  8  9  1  0  0  0  0
  8 31  1  0  0  0  0
  8 32  1  0  0  0  0
  9 10  1  0  0  0  0
  9 11  1  0  0  0  0
  9 33  1  0  0  0  0
 10 34  1  0  0  0  0
 11 12  1  0  0  0  0
 11 35  1  0  0  0  0
 11 36  1  0  0  0  0
 12 13  1  0  0  0  0
 12 14  1  0  0  0  0
 12 52  1  0  0  0  0
 13 37  1  0  0  0  0
 13 38  1  0  0  0  0
 13 39  1  0  0  0  0
 14 15  1  0  0  0  0
 14 40  1  0  0  0  0
 14 41  1  0  0  0  0
 15 20  2  0  0  0  0
 15 16  1  0  0  0  0
 16 17  1  0  0  0  0
 16 18  2  0  0  0  0
 17 42  1  0  0  0  0
 17 43  1  0  0  0  0
 17 44  1  0  0  0  0
 18 19  1  0  0  0  0
 19 20  1  0  0  0  0
 20 21  1  0  0  0  0
 21 45  1  0  0  0  0
 21 46  1  0  0  0  0
 21 47  1  0  0  0  0
 22 23  1  0  0  0  0
 23 24  2  0  0  0  0
 23 48  1  0  0  0  0
 24 25  1  0  0  0  0
 25 49  1  0  0  0  0
 25 50  1  0  0  0  0
 25 51  1  0  0  0  0
M  CHG  1  12   1
M  END
> <s_m_source_file>
AV-unprocessed.smi

> <i_m_source_file_index>
1207

> <i_lp_mmshare_version>
43012

> <i_f3d_flags>
0

> <s_epik_input>
W0NIM11jKFtjSF0xKWMoW0NIM10pW2NIXWMoYzEyKW4oW2NIXW4yKVtDSDJdW0NASF0oW09IXSlbQ0gyXU4oW0NIM10pW0NIMl1jM2MoW0NIM10pbm9jM1tDSDNd

> <s_epik_cmdline>
J2VwaWtfcHl0aG9uJywgJy1waCcsICc3LjAnLCAnLXRuJywgJzgnLCAnLW1hJywgJzIwMCcsICctbWV0YWxfYmluZGluZycsICctaW1hZScsICc8aW5maWxlLm1hZT4nLCAnLW9tYWUnLCAnPG91dGZpbGUubWFlPic=

> <r_epik_Ionization_Penalty>
0.646518

> <r_epik_Ionization_Penalty_Charging>
0.559419

> <r_epik_Ionization_Penalty_Neutral>
0.0870981

> <r_epik_State_Penalty>
0.661677

> <r_epik_Charging_Adjusted_Penalty>
1.2211

> <i_epik_Tot_Q>
1

> <i_epik_Tot_abs_Q>
1

> <r_epik_Metal_State_Penalty>
0.649158

> <b_epik_Metal_Only>
0

> <s_lp_Force_Field>
OPLS_2005

> <r_lp_Energy>
8.09653

> <b_lp_Chiralities_Consistent>
1

> <s_lp_Variant>
AV-unprocessed.smi:1207-5

> <Gold.Version>
5.8.1

> <Gold.Id.Protein>
6NUR|6NUR_protein|mol2

> <Gold.PLP.Fitness>
53.2749

> <Gold.PLP.PLP>
-43.3043

> <Gold.PLP.part.hbond>
-3.3903

> <Gold.PLP.part.metal>
0.0000

> <Gold.PLP.part.buried>
-4.5296

> <Gold.PLP.part.nonpolar>
-37.4879

> <Gold.PLP.part.repulsive>
0.2949

> <Gold.PLP.ligand.clash>
0.0000

> <Gold.PLP.ligand.torsion>
1.4786

> <Gold.PLP.Chemscore.Hbond>
4.1020

> <Gold.PLP.Chemscore.CHOScore>
0.0000

> <Gold.PLP.Chemscore.Metal>
0.0000

> <Gold.Chemscore.Hbonds>
donor molecule, donor type, donor heavy atom, donor atom, acceptor molecule, acceptor atom, score
      L1  H    10    34       P1  7957  0.94
      L1  H    12    52       P1 10175  2.00
      P1  H  7989  7998       L1    10  0.23
      P1  H  8011  8017       L1    10  0.65

> <Gold.PLP.Chemscore.Internal.Correction>
0.6217

> <Gold.Rescore>
     Score         DG    S(hbond)    S(metal)    S(lipo)     H(rot)  DE(clash)    DE(int)     intcor
     18.95     -21.16       2.27        0.00     123.01       2.46       0.48       1.74       ----

> <Gold.Chemscore.Fitness>
18.9465

> <Gold.Chemscore.DG>
-21.1593

> <Gold.Chemscore.ZeroCoef>
-5.4800

> <Gold.Chemscore.Hbond>
2.2683

> <Gold.Chemscore.Metal>
0.0000

> <Gold.Chemscore.Lipo>
123.0074

> <Gold.Chemscore.Internal_Hbond>
0.0000

> <Gold.Chemscore.DEClash>
0.4755

> <Gold.Chemscore.DEInternal>
1.7373

> <Gold.Chemscore.Rot>
2.4565

> <Gold.Chemscore.Internal.Correction>
   9.000000E+99

> <Gold.Chemscore.Hbonds>
donor molecule, donor type, donor heavy atom, donor atom, acceptor molecule, acceptor atom, score
      L1  H    10    34       P1  7957  0.90
      L1  H    12    52       P1 10175  0.98
      P1  H  7989  7998       L1    10  0.03
      P1  H  8011  8017       L1    10  0.05

> <Gold.Chemscore.Hbond.Weighted>
-7.5761

> <Gold.Chemscore.Metal.Weighted>
-0.0000

> <Gold.Chemscore.Lipo.Weighted>
-14.3919

> <Gold.Chemscore.Internal_Hbond.Weighted>
0.0000

> <Gold.Chemscore.DEClash.Weighted>
0.4755

> <Gold.Chemscore.DEInternal.Weighted>
1.7373

> <Gold.Chemscore.Rot.Weighted>
6.2887

> <Gold.Chemscore.Internal.Correction.Weighted>
   9.000000E+99

> <Gold.Protein.RotatedTorsions>
[ 6907 6896 6895 6894 ] final -140.65 input  -60.11 | X-H torsion
[ 7974 7965 7964 7962 ] final -151.70 input  175.53 | X-H torsion
[ 8008 7997 7996 7995 ] final  -45.46 input   59.86 | X-H torsion
[ 10167 10162 10161 10158 ] final  -97.86 input  -65.29 | X-H torsion
[ 10718 10713 10712 10709 ] final  -65.21 input   66.30 | X-H torsion
[ 10763 10752 10751 10750 ] final  146.12 input  -60.55 | X-H torsion
[ 11005 11000 10999 10996 ] final   31.61 input  -57.11 | X-H torsion

> <Gold.Protein.ActiveResidues>
 VAL166  LYS551  ARG553  GLY616  TRP617  ASP618  TYR619  PRO620  LYS621  CYS622 
 ASP623  PHE694  ASN695  SER759  ASP760  ASP761  ALA762  ILE779  LEU786  VAL792 
 PHE793  MET794  SER795  GLU796  ALA797  LYS798  CYS799  TRP800  GLU811  SER814 

> <Gold.Protein.RotatedAtoms>
  151.0635  133.5524  159.2632 H   0  0  0  0  0  0  0  0  0  0  0  0  # atno 6907 bound_to 6896
  151.2491  135.0615  159.9064 H   0  0  0  0  0  0  0  0  0  0  0  0  # atno 6908 bound_to 6896
  152.5401  134.0398  159.8116 H   0  0  0  0  0  0  0  0  0  0  0  0  # atno 6909 bound_to 6896
  144.7835  140.4763  143.5822 H   0  0  0  0  0  0  0  0  0  0  0  0  # atno 7974 bound_to 7965
  154.4001  140.1396  156.3851 H   0  0  0  0  0  0  0  0  0  0  0  0  # atno 8008 bound_to 7997
  155.7967  140.3477  155.5359 H   0  0  0  0  0  0  0  0  0  0  0  0  # atno 8009 bound_to 7997
  155.8525  140.0943  157.1656 H   0  0  0  0  0  0  0  0  0  0  0  0  # atno 8010 bound_to 7997
  140.2790  143.3294  152.0460 H   0  0  0  0  0  0  0  0  0  0  0  0  # atno 10167 bound_to 10162
  156.0683  130.4244  150.1531 H   0  0  0  0  0  0  0  0  0  0  0  0  # atno 10718 bound_to 10713
  154.0166  135.2910  155.3386 H   0  0  0  0  0  0  0  0  0  0  0  0  # atno 10763 bound_to 10752
  154.7071  135.5164  153.8615 H   0  0  0  0  0  0  0  0  0  0  0  0  # atno 10764 bound_to 10752
  153.0700  135.6644  154.0392 H   0  0  0  0  0  0  0  0  0  0  0  0  # atno 10765 bound_to 10752
  140.2821  134.2961  155.7798 H   0  0  0  0  0  0  0  0  0  0  0  0  # atno 11005 bound_to 11000
  145.5984  139.1501  143.3143 LP  0  0  0  0  0  0  0  0  0  0  0  0  # atno 17320 bound_to 7965
  146.2056  140.6107  142.9083 LP  0  0  0  0  0  0  0  0  0  0  0  0  # atno 17321 bound_to 7965
  139.4968  144.6605  151.6476 LP  0  0  0  0  0  0  0  0  0  0  0  0  # atno 17342 bound_to 10162
  140.5828  143.9917  150.6278 LP  0  0  0  0  0  0  0  0  0  0  0  0  # atno 17343 bound_to 10162
  156.9587  130.9798  151.3483 LP  0  0  0  0  0  0  0  0  0  0  0  0  # atno 17370 bound_to 10713
  157.5738  130.8329  149.8428 LP  0  0  0  0  0  0  0  0  0  0  0  0  # atno 17371 bound_to 10713
  141.2161  133.7531  156.9496 LP  0  0  0  0  0  0  0  0  0  0  0  0  # atno 17394 bound_to 11000
  140.1274  134.9378  157.2289 LP  0  0  0  0  0  0  0  0  0  0  0  0  # atno 17395 bound_to 11000

$$$$
