AV-unprocessed.smi:1552|AV-procd|sdf|6235|dock5
  -GOLD-   22720 6413D 1   1.00000     0.00000
 Structure written by MMmdl.
 50 51  0  0  0  0  0  0  0  0  2 V2000
  146.1222  137.3053  149.9425 C   0  0  0  0  0  0  0  0  0  0  0  0
  146.4543  137.1037  151.3751 N   0  3  0  0  0  0  0  0  0  0  0  0
  146.9529  138.3545  151.9922 C   0  0  0  0  0  0  0  0  0  0  0  0
  145.4138  136.4204  152.2076 C   0  0  1  0  0  0  0  0  0  0  0  0
  144.1182  137.2535  152.3883 C   0  0  0  0  0  0  0  0  0  0  0  0
  144.2924  138.3092  153.3792 N   0  0  0  0  0  0  0  0  0  0  0  0
  144.8775  138.2179  154.5852 C   0  0  0  0  0  0  0  0  0  0  0  0
  145.3688  137.1540  154.9559 O   0  0  0  0  0  0  0  0  0  0  0  0
  144.9706  139.4507  155.5049 C   0  0  0  0  0  0  0  0  0  0  0  0
  146.3478  139.9553  155.5869 N   0  0  0  0  0  0  0  0  0  0  0  0
  146.9624  140.4589  154.4491 C   0  0  0  0  0  0  0  0  0  0  0  0
  148.2217  140.9560  154.4377 C   0  0  0  0  0  0  0  0  0  0  0  0
  149.0144  140.9858  155.6619 C   0  0  0  0  0  0  0  0  0  0  0  0
  150.1628  141.4137  155.7527 O   0  0  0  0  0  0  0  0  0  0  0  0
  148.3613  140.4739  156.7862 N   0  0  0  0  0  0  0  0  0  0  0  0
  147.0629  139.9620  156.8053 C   0  0  0  0  0  0  0  0  0  0  0  0
  146.5823  139.5407  157.8565 O   0  0  0  0  0  0  0  0  0  0  0  0
  145.1733  134.9544  151.7411 C   0  0  0  0  0  0  0  0  0  0  0  0
  146.4568  134.0968  151.8088 C   0  0  0  0  0  0  0  0  0  0  0  0
  146.1692  132.6239  151.4726 C   0  0  0  0  0  0  0  0  0  0  0  0
  145.4882  132.4837  150.1022 C   0  0  0  0  0  0  0  0  0  0  0  0
  144.2128  133.3369  150.0264 C   0  0  0  0  0  0  0  0  0  0  0  0
  144.5091  134.8092  150.3531 C   0  0  0  0  0  0  0  0  0  0  0  0
  148.8696  140.4767  157.6585 H   0  0  0  0  0  0  0  0  0  0  0  0
  145.3589  138.0737  149.8143 H   0  0  0  0  0  0  0  0  0  0  0  0
  145.7656  136.3914  149.4708 H   0  0  0  0  0  0  0  0  0  0  0  0
  147.0085  137.6270  149.3948 H   0  0  0  0  0  0  0  0  0  0  0  0
  146.1570  139.0962  152.0704 H   0  0  0  0  0  0  0  0  0  0  0  0
  147.7620  138.7826  151.3996 H   0  0  0  0  0  0  0  0  0  0  0  0
  147.3465  138.1648  152.9915 H   0  0  0  0  0  0  0  0  0  0  0  0
  145.8311  136.3201  153.2114 H   0  0  0  0  0  0  0  0  0  0  0  0
  143.8296  137.7117  151.4413 H   0  0  0  0  0  0  0  0  0  0  0  0
  143.2979  136.6086  152.7023 H   0  0  0  0  0  0  0  0  0  0  0  0
  143.9655  139.2260  153.1092 H   0  0  0  0  0  0  0  0  0  0  0  0
  144.2959  140.2122  155.1107 H   0  0  0  0  0  0  0  0  0  0  0  0
  144.5971  139.2669  156.5111 H   0  0  0  0  0  0  0  0  0  0  0  0
  146.4096  140.4594  153.5203 H   0  0  0  0  0  0  0  0  0  0  0  0
  148.6446  141.3346  153.5183 H   0  0  0  0  0  0  0  0  0  0  0  0
  144.4851  134.5065  152.4591 H   0  0  0  0  0  0  0  0  0  0  0  0
  147.2048  134.4819  151.1149 H   0  0  0  0  0  0  0  0  0  0  0  0
  146.8983  134.1592  152.8040 H   0  0  0  0  0  0  0  0  0  0  0  0
  147.0969  132.0513  151.4862 H   0  0  0  0  0  0  0  0  0  0  0  0
  145.5295  132.1915  152.2432 H   0  0  0  0  0  0  0  0  0  0  0  0
  146.1801  132.7893  149.3163 H   0  0  0  0  0  0  0  0  0  0  0  0
  145.2476  131.4373  149.9118 H   0  0  0  0  0  0  0  0  0  0  0  0
  143.7726  133.2584  149.0318 H   0  0  0  0  0  0  0  0  0  0  0  0
  143.4695  132.9487  150.7240 H   0  0  0  0  0  0  0  0  0  0  0  0
  143.5796  135.3765  150.3086 H   0  0  0  0  0  0  0  0  0  0  0  0
  145.1629  135.2099  149.5791 H   0  0  0  0  0  0  0  0  0  0  0  0
  147.2467  136.4771  151.3857 H   0  0  0  0  0  0  0  0  0  0  0  0
  1  2  1  0  0  0  0
  1 25  1  0  0  0  0
  1 26  1  0  0  0  0
  1 27  1  0  0  0  0
  2  3  1  0  0  0  0
  2  4  1  0  0  0  0
  2 50  1  0  0  0  0
  3 28  1  0  0  0  0
  3 29  1  0  0  0  0
  3 30  1  0  0  0  0
  4  5  1  0  0  0  0
  4 18  1  0  0  0  0
  4 31  1  0  0  0  0
  5  6  1  0  0  0  0
  5 32  1  0  0  0  0
  5 33  1  0  0  0  0
  6  7  1  0  0  0  0
  6 34  1  0  0  0  0
  7  8  2  0  0  0  0
  7  9  1  0  0  0  0
  9 10  1  0  0  0  0
  9 35  1  0  0  0  0
  9 36  1  0  0  0  0
 10 16  1  0  0  0  0
 10 11  1  0  0  0  0
 11 12  2  0  0  0  0
 11 37  1  0  0  0  0
 12 13  1  0  0  0  0
 12 38  1  0  0  0  0
 13 14  2  0  0  0  0
 13 15  1  0  0  0  0
 15 24  1  0  0  0  0
 15 16  1  0  0  0  0
 16 17  2  0  0  0  0
 18 23  1  0  0  0  0
 18 19  1  0  0  0  0
 18 39  1  0  0  0  0
 19 20  1  0  0  0  0
 19 40  1  0  0  0  0
 19 41  1  0  0  0  0
 20 21  1  0  0  0  0
 20 42  1  0  0  0  0
 20 43  1  0  0  0  0
 21 22  1  0  0  0  0
 21 44  1  0  0  0  0
 21 45  1  0  0  0  0
 22 23  1  0  0  0  0
 22 46  1  0  0  0  0
 22 47  1  0  0  0  0
 23 48  1  0  0  0  0
 23 49  1  0  0  0  0
M  CHG  1   2   1
M  END
> <s_m_source_file>
AV-unprocessed.smi

> <i_m_source_file_index>
1552

> <i_lp_mmshare_version>
43012

> <i_f3d_flags>
0

> <s_epik_input>
W0NIMl0xW0NIMl1bQ0gyXVtDSDJdW0NIMl1bQ0hdMVtDQEhdKE4oW0NIM10pW0NIM10pW0NIMl1bTkhdQyg9TylbQ0gyXW4yW2NIXVtjSF1jKD1PKVtuSF1jMj1P

> <s_epik_cmdline>
J2VwaWtfcHl0aG9uJywgJy1waCcsICc3LjAnLCAnLXRuJywgJzgnLCAnLW1hJywgJzIwMCcsICctbWV0YWxfYmluZGluZycsICctaW1hZScsICc8aW5maWxlLm1hZT4nLCAnLW9tYWUnLCAnPG91dGZpbGUubWFlPic=

> <r_lp_tautomer_probability>
1

> <r_epik_Ionization_Penalty>
0.00705217

> <r_epik_Ionization_Penalty_Charging>
0.00705209

> <r_epik_Ionization_Penalty_Neutral>
7.66101e-08

> <r_epik_State_Penalty>
-0

> <r_epik_Charging_Adjusted_Penalty>
0.00705209

> <i_epik_Tot_Q>
1

> <i_epik_Tot_abs_Q>
1

> <r_epik_Metal_State_Penalty>
0.375122

> <b_epik_Metal_Only>
0

> <s_lp_Force_Field>
OPLS_2005

> <r_lp_Energy>
31.5593

> <b_lp_Chiralities_Consistent>
1

> <s_lp_Variant>
AV-unprocessed.smi:1552-2

> <Gold.Version>
5.8.1

> <Gold.Id.Protein>
6NUR|6NUR_protein|mol2

> <Gold.PLP.Fitness>
41.2815

> <Gold.PLP.PLP>
-30.0096

> <Gold.PLP.part.hbond>
-2.5449

> <Gold.PLP.part.metal>
0.0000

> <Gold.PLP.part.buried>
2.0922

> <Gold.PLP.part.nonpolar>
-31.2133

> <Gold.PLP.part.repulsive>
0.2935

> <Gold.PLP.ligand.clash>
0.0000

> <Gold.PLP.ligand.torsion>
0.5749

> <Gold.PLP.Chemscore.Hbond>
3.0000

> <Gold.PLP.Chemscore.CHOScore>
1.0000

> <Gold.PLP.Chemscore.Metal>
0.0000

> <Gold.Chemscore.Hbonds>
donor molecule, donor type, donor heavy atom, donor atom, acceptor molecule, acceptor atom, score
      L1  H     2    50       P1  7948  1.92
      L1  H     6    34       P1 10175  0.70
      L1  C    11    37       P1 10175  0.03

> <Gold.PLP.Chemscore.Internal.Correction>
0.4216

> <Gold.Rescore>
     Score         DG    S(hbond)    S(metal)    S(lipo)     H(rot)  DE(clash)    DE(int)     intcor
     11.64     -15.06       1.95        0.00      80.82       2.50       2.46       0.96       ----

> <Gold.Chemscore.Fitness>
11.6388

> <Gold.Chemscore.DG>
-15.0624

> <Gold.Chemscore.ZeroCoef>
-5.4800

> <Gold.Chemscore.Hbond>
1.9517

> <Gold.Chemscore.Metal>
0.0000

> <Gold.Chemscore.Lipo>
80.8153

> <Gold.Chemscore.Internal_Hbond>
0.0000

> <Gold.Chemscore.DEClash>
2.4636

> <Gold.Chemscore.DEInternal>
0.9599

> <Gold.Chemscore.Rot>
2.4968

> <Gold.Chemscore.Internal.Correction>
   9.000000E+99

> <Gold.Chemscore.Hbonds>
donor molecule, donor type, donor heavy atom, donor atom, acceptor molecule, acceptor atom, score
      L1  H     2    50       P1  7948  0.92
      L1  H     6    34       P1 10175  0.69

> <Gold.Chemscore.Hbond.Weighted>
-6.5187

> <Gold.Chemscore.Metal.Weighted>
-0.0000

> <Gold.Chemscore.Lipo.Weighted>
-9.4554

> <Gold.Chemscore.Internal_Hbond.Weighted>
0.0000

> <Gold.Chemscore.DEClash.Weighted>
2.4636

> <Gold.Chemscore.DEInternal.Weighted>
0.9599

> <Gold.Chemscore.Rot.Weighted>
6.3917

> <Gold.Chemscore.Internal.Correction.Weighted>
   9.000000E+99

> <Gold.Protein.RotatedTorsions>
[ 6907 6896 6895 6894 ] final  108.24 input  -60.11 | X-H torsion
[ 7974 7965 7964 7962 ] final  -74.60 input  175.53 | X-H torsion
[ 8008 7997 7996 7995 ] final   81.57 input   59.86 | X-H torsion
[ 10167 10162 10161 10158 ] final -121.98 input  -65.29 | X-H torsion
[ 10718 10713 10712 10709 ] final -137.16 input   66.30 | X-H torsion
[ 10763 10752 10751 10750 ] final  -71.08 input  -60.55 | X-H torsion
[ 11005 11000 10999 10996 ] final   33.25 input  -57.11 | X-H torsion

> <Gold.Protein.ActiveResidues>
 VAL166  LYS551  ARG553  GLY616  TRP617  ASP618  TYR619  PRO620  LYS621  CYS622 
 ASP623  PHE694  ASN695  SER759  ASP760  ASP761  ALA762  ILE779  LEU786  VAL792 
 PHE793  MET794  SER795  GLU796  ALA797  LYS798  CYS799  TRP800  GLU811  SER814 

> <Gold.Protein.RotatedAtoms>
  152.5121  133.9118  159.7491 H   0  0  0  0  0  0  0  0  0  0  0  0  # atno 6907 bound_to 6896
  150.9510  133.6541  159.2779 H   0  0  0  0  0  0  0  0  0  0  0  0  # atno 6908 bound_to 6896
  151.3820  135.0946  159.9551 H   0  0  0  0  0  0  0  0  0  0  0  0  # atno 6909 bound_to 6896
  145.6369  140.9322  143.1056 H   0  0  0  0  0  0  0  0  0  0  0  0  # atno 7974 bound_to 7965
  155.8989  140.3434  155.6012 H   0  0  0  0  0  0  0  0  0  0  0  0  # atno 8008 bound_to 7997
  155.7523  140.0821  157.2214 H   0  0  0  0  0  0  0  0  0  0  0  0  # atno 8009 bound_to 7997
  154.4041  140.1551  156.2725 H   0  0  0  0  0  0  0  0  0  0  0  0  # atno 8010 bound_to 7997
  140.0191  143.5362  152.2228 H   0  0  0  0  0  0  0  0  0  0  0  0  # atno 10167 bound_to 10162
  156.2850  130.7342  151.1351 H   0  0  0  0  0  0  0  0  0  0  0  0  # atno 10718 bound_to 10713
  154.4267  135.5973  153.6043 H   0  0  0  0  0  0  0  0  0  0  0  0  # atno 10763 bound_to 10752
  152.9796  135.5965  154.3889 H   0  0  0  0  0  0  0  0  0  0  0  0  # atno 10764 bound_to 10752
  154.3722  135.2841  155.2238 H   0  0  0  0  0  0  0  0  0  0  0  0  # atno 10765 bound_to 10752
  140.2651  134.3147  155.7845 H   0  0  0  0  0  0  0  0  0  0  0  0  # atno 11005 bound_to 11000
  144.7172  139.8155  143.7394 LP  0  0  0  0  0  0  0  0  0  0  0  0  # atno 17320 bound_to 7965
  146.1312  139.4347  143.0168 LP  0  0  0  0  0  0  0  0  0  0  0  0  # atno 17321 bound_to 7965
  139.6152  144.7618  151.2863 LP  0  0  0  0  0  0  0  0  0  0  0  0  # atno 17342 bound_to 10162
  140.7350  143.6750  150.8049 LP  0  0  0  0  0  0  0  0  0  0  0  0  # atno 17343 bound_to 10162
  157.7326  131.0598  150.5620 LP  0  0  0  0  0  0  0  0  0  0  0  0  # atno 17370 bound_to 10713
  156.5730  130.4285  149.6011 LP  0  0  0  0  0  0  0  0  0  0  0  0  # atno 17371 bound_to 10713
  141.2185  133.7432  156.9247 LP  0  0  0  0  0  0  0  0  0  0  0  0  # atno 17394 bound_to 11000
  140.1427  134.9283  157.2489 LP  0  0  0  0  0  0  0  0  0  0  0  0  # atno 17395 bound_to 11000

$$$$
