AV-unprocessed.smi:276|AV-procd|sdf|2080|dock8
  -GOLD-   2262021353D 1   1.00000     0.00000
 Structure written by MMmdl.
 57 61  0  0  0  0  0  0  0  0  1 V2000
  152.5715  144.2545  158.6895 C   0  0  0  0  0  0  0  0  0  0  0  0
  152.0319  142.9733  158.4173 O   0  0  0  0  0  0  0  0  0  0  0  0
  150.9257  143.0236  157.5307 C   0  0  2  0  0  0  0  0  0  0  0  0
  149.5871  143.3427  158.2062 C   0  0  0  0  0  0  0  0  0  0  0  0
  148.9523  142.3309  157.2429 C   0  0  2  0  0  0  0  0  0  0  0  0
  147.8618  141.5654  157.8520 N   0  0  0  0  0  0  0  0  0  0  0  0
  146.7827  142.3469  158.4428 C   0  0  0  0  0  0  0  0  0  0  0  0
  147.3513  140.5579  157.1081 C   0  0  0  0  0  0  0  0  0  0  0  0
  146.6894  139.5788  157.7742 N   0  0  0  0  0  0  0  0  0  0  0  0
  146.1670  138.5474  157.1043 C   0  0  0  0  0  0  0  0  0  0  0  0
  146.1839  138.3099  155.7910 N   0  0  0  0  0  0  0  0  0  0  0  0
  146.8285  139.3046  155.1161 C   0  0  0  0  0  0  0  0  0  0  0  0
  147.4327  140.4595  155.6889 C   0  0  0  0  0  0  0  0  0  0  0  0
  147.9758  141.2536  154.6849 N   0  0  0  0  0  0  0  0  0  0  0  0
  147.7191  140.5998  153.5851 C   0  0  0  0  0  0  0  0  0  0  0  0
  147.0330  139.4194  153.7528 N   0  0  0  0  0  0  0  0  0  0  0  0
  146.6142  138.5044  152.7055 C   0  0  0  0  0  0  0  0  0  0  0  0
  145.8815  137.2675  153.2624 C   0  0  2  0  0  0  0  0  0  0  0  0
  146.8343  136.3059  153.6753 O   0  0  0  0  0  0  0  0  0  0  0  0
  144.9445  136.6269  152.2214 C   0  0  1  0  0  0  0  0  0  0  0  0
  145.6631  135.9771  151.0379 C   0  0  0  0  0  0  0  0  0  0  0  0
  144.6250  134.9911  150.5544 C   0  0  0  0  0  0  0  0  0  0  0  0
  144.0196  134.5022  151.8670 C   0  0  0  0  0  0  0  0  0  0  0  0
  144.2048  135.5579  152.8074 O   0  0  0  0  0  0  0  0  0  0  0  0
  150.3417  141.6404  157.1824 C   0  0  0  0  0  0  0  0  0  0  0  0
  150.8180  140.8877  155.9332 C   0  0  0  0  0  0  0  0  0  0  0  0
  150.7589  139.5785  156.7267 C   0  0  0  0  0  0  0  0  0  0  0  0
  150.7050  140.3975  158.0208 C   0  0  0  0  0  0  0  0  0  0  0  0
  153.4181  144.1577  159.3691 H   0  0  0  0  0  0  0  0  0  0  0  0
  151.8342  144.9043  159.1623 H   0  0  0  0  0  0  0  0  0  0  0  0
  152.9261  144.7338  157.7761 H   0  0  0  0  0  0  0  0  0  0  0  0
  151.1074  143.6271  156.6384 H   0  0  0  0  0  0  0  0  0  0  0  0
  149.5552  143.0295  159.2518 H   0  0  0  0  0  0  0  0  0  0  0  0
  149.2458  144.3702  158.0800 H   0  0  0  0  0  0  0  0  0  0  0  0
  148.6899  142.8132  156.3004 H   0  0  0  0  0  0  0  0  0  0  0  0
  146.2355  142.8935  157.6738 H   0  0  0  0  0  0  0  0  0  0  0  0
  147.1745  143.0694  159.1588 H   0  0  0  0  0  0  0  0  0  0  0  0
  146.0791  141.7058  158.9755 H   0  0  0  0  0  0  0  0  0  0  0  0
  145.6646  137.8055  157.7072 H   0  0  0  0  0  0  0  0  0  0  0  0
  148.0208  140.9652  152.6143 H   0  0  0  0  0  0  0  0  0  0  0  0
  145.9665  139.0511  152.0195 H   0  0  0  0  0  0  0  0  0  0  0  0
  147.4908  138.2039  152.1301 H   0  0  0  0  0  0  0  0  0  0  0  0
  145.2998  137.5589  154.1380 H   0  0  0  0  0  0  0  0  0  0  0  0
  147.4787  136.2083  152.9907 H   0  0  0  0  0  0  0  0  0  0  0  0
  144.2301  137.3627  151.8479 H   0  0  0  0  0  0  0  0  0  0  0  0
  145.9578  136.6945  150.2717 H   0  0  0  0  0  0  0  0  0  0  0  0
  146.5557  135.4460  151.3719 H   0  0  0  0  0  0  0  0  0  0  0  0
  143.8691  135.5066  149.9603 H   0  0  0  0  0  0  0  0  0  0  0  0
  145.0447  134.1858  149.9510 H   0  0  0  0  0  0  0  0  0  0  0  0
  142.9656  134.2436  151.7630 H   0  0  0  0  0  0  0  0  0  0  0  0
  144.5503  133.6207  152.2284 H   0  0  0  0  0  0  0  0  0  0  0  0
  150.1362  140.9313  155.0841 H   0  0  0  0  0  0  0  0  0  0  0  0
  151.8351  141.1563  155.6449 H   0  0  0  0  0  0  0  0  0  0  0  0
  149.8479  139.0098  156.5406 H   0  0  0  0  0  0  0  0  0  0  0  0
  151.6462  138.9528  156.6270 H   0  0  0  0  0  0  0  0  0  0  0  0
  151.6842  140.4667  158.4952 H   0  0  0  0  0  0  0  0  0  0  0  0
  149.9492  140.0707  158.7342 H   0  0  0  0  0  0  0  0  0  0  0  0
  1  2  1  0  0  0  0
  1 29  1  0  0  0  0
  1 30  1  0  0  0  0
  1 31  1  0  0  0  0
  2  3  1  0  0  0  0
  3 25  1  0  0  0  0
  3  4  1  0  0  0  0
  3 32  1  0  0  0  0
  4  5  1  0  0  0  0
  4 33  1  0  0  0  0
  4 34  1  0  0  0  0
  5  6  1  0  0  0  0
  5 25  1  0  0  0  0
  5 35  1  0  0  0  0
  6  7  1  0  0  0  0
  6  8  1  0  0  0  0
  7 36  1  0  0  0  0
  7 37  1  0  0  0  0
  7 38  1  0  0  0  0
  8 13  1  0  0  0  0
  8  9  2  0  0  0  0
  9 10  1  0  0  0  0
 10 11  2  0  0  0  0
 10 39  1  0  0  0  0
 11 12  1  0  0  0  0
 12 16  1  0  0  0  0
 12 13  2  0  0  0  0
 13 14  1  0  0  0  0
 14 15  2  0  0  0  0
 15 16  1  0  0  0  0
 15 40  1  0  0  0  0
 16 17  1  0  0  0  0
 17 18  1  0  0  0  0
 17 41  1  0  0  0  0
 17 42  1  0  0  0  0
 18 19  1  0  0  0  0
 18 20  1  0  0  0  0
 18 43  1  0  0  0  0
 19 44  1  0  0  0  0
 20 24  1  0  0  0  0
 20 21  1  0  0  0  0
 20 45  1  0  0  0  0
 21 22  1  0  0  0  0
 21 46  1  0  0  0  0
 21 47  1  0  0  0  0
 22 23  1  0  0  0  0
 22 48  1  0  0  0  0
 22 49  1  0  0  0  0
 23 24  1  0  0  0  0
 23 50  1  0  0  0  0
 23 51  1  0  0  0  0
 25 28  1  0  0  0  0
 25 26  1  0  0  0  0
 26 27  1  0  0  0  0
 26 52  1  0  0  0  0
 26 53  1  0  0  0  0
 27 28  1  0  0  0  0
 27 54  1  0  0  0  0
 27 55  1  0  0  0  0
 28 56  1  0  0  0  0
 28 57  1  0  0  0  0
M  END
> <s_m_source_file>
AV-unprocessed.smi

> <i_m_source_file_index>
276

> <i_lp_mmshare_version>
43012

> <i_f3d_flags>
0

> <s_epik_input>
W0NIMl0xW0NIMl1bQ0gyXUMxMltDQEhdKE9bQ0gzXSlbQ0gyXVtDQEhdMk4oW0NIM10pYyhuW2NIXW4zKWMoYzM0KW5bY0hdbjRbQ0gyXVtDQEhdKFtPSF0pW0NAQEhdNVtDSDJdW0NIMl1bQ0gyXU81

> <s_epik_cmdline>
J2VwaWtfcHl0aG9uJywgJy1waCcsICc3LjAnLCAnLXRuJywgJzgnLCAnLW1hJywgJzIwMCcsICctbWV0YWxfYmluZGluZycsICctaW1hZScsICc8aW5maWxlLm1hZT4nLCAnLW9tYWUnLCAnPG91dGZpbGUubWFlPic=

> <r_lp_tautomer_probability>
1

> <r_epik_Ionization_Penalty>
0.00204117

> <r_epik_Ionization_Penalty_Charging>
0

> <r_epik_Ionization_Penalty_Neutral>
0.00204117

> <r_epik_State_Penalty>
0.00127401

> <r_epik_Charging_Adjusted_Penalty>
0.00127401

> <i_epik_Tot_Q>
0

> <i_epik_Tot_abs_Q>
0

> <r_epik_Metal_State_Penalty>
-0

> <b_epik_Metal_Only>
0

> <s_lp_Force_Field>
OPLS_2005

> <r_lp_Energy>
54.5778

> <b_lp_Chiralities_Consistent>
1

> <s_lp_Variant>
AV-unprocessed.smi:276-11

> <Gold.Version>
5.8.1

> <Gold.Id.Protein>
6NUR|6NUR_protein|mol2

> <Gold.PLP.Fitness>
40.1325

> <Gold.PLP.PLP>
-35.4875

> <Gold.PLP.part.hbond>
-1.2304

> <Gold.PLP.part.metal>
0.0000

> <Gold.PLP.part.buried>
-3.6104

> <Gold.PLP.part.nonpolar>
-32.1260

> <Gold.PLP.part.repulsive>
0.2717

> <Gold.PLP.ligand.clash>
0.0000

> <Gold.PLP.ligand.torsion>
1.0030

> <Gold.PLP.Chemscore.Hbond>
1.0000

> <Gold.PLP.Chemscore.CHOScore>
0.9569

> <Gold.PLP.Chemscore.Metal>
0.0000

> <Gold.Chemscore.Hbonds>
donor molecule, donor type, donor heavy atom, donor atom, acceptor molecule, acceptor atom, score
      L1  H    19    44       P1  7948  1.00
      L1  C    15    40       P1  7957  0.98

> <Gold.PLP.Chemscore.Internal.Correction>
0.7805

> <Gold.Rescore>
     Score         DG    S(hbond)    S(metal)    S(lipo)     H(rot)  DE(clash)    DE(int)     intcor
      8.32     -12.42       1.00        0.00      90.24       2.72       0.11       3.99       ----

> <Gold.Chemscore.Fitness>
8.3205

> <Gold.Chemscore.DG>
-12.4216

> <Gold.Chemscore.ZeroCoef>
-5.4800

> <Gold.Chemscore.Hbond>
1.0000

> <Gold.Chemscore.Metal>
0.0000

> <Gold.Chemscore.Lipo>
90.2357

> <Gold.Chemscore.Internal_Hbond>
0.0000

> <Gold.Chemscore.DEClash>
0.1132

> <Gold.Chemscore.DEInternal>
3.9879

> <Gold.Chemscore.Rot>
2.7172

> <Gold.Chemscore.Internal.Correction>
   9.000000E+99

> <Gold.Chemscore.Hbonds>
donor molecule, donor type, donor heavy atom, donor atom, acceptor molecule, acceptor atom, score
      L1  H    19    44       P1  7948  1.00

> <Gold.Chemscore.Hbond.Weighted>
-3.3400

> <Gold.Chemscore.Metal.Weighted>
-0.0000

> <Gold.Chemscore.Lipo.Weighted>
-10.5576

> <Gold.Chemscore.Internal_Hbond.Weighted>
0.0000

> <Gold.Chemscore.DEClash.Weighted>
0.1132

> <Gold.Chemscore.DEInternal.Weighted>
3.9879

> <Gold.Chemscore.Rot.Weighted>
6.9560

> <Gold.Chemscore.Internal.Correction.Weighted>
   9.000000E+99

> <Gold.Protein.RotatedTorsions>
[ 6907 6896 6895 6894 ] final   33.21 input  -60.11 | X-H torsion
[ 7974 7965 7964 7962 ] final  133.73 input  175.53 | X-H torsion
[ 8008 7997 7996 7995 ] final -144.67 input   59.86 | X-H torsion
[ 10167 10162 10161 10158 ] final -164.50 input  -65.29 | X-H torsion
[ 10718 10713 10712 10709 ] final -150.94 input   66.30 | X-H torsion
[ 10763 10752 10751 10750 ] final  161.86 input  -60.55 | X-H torsion
[ 11005 11000 10999 10996 ] final   -4.81 input  -57.11 | X-H torsion

> <Gold.Protein.ActiveResidues>
 VAL166  LYS551  ARG553  GLY616  TRP617  ASP618  TYR619  PRO620  LYS621  CYS622 
 ASP623  PHE694  ASN695  SER759  ASP760  ASP761  ALA762  ILE779  LEU786  VAL792 
 PHE793  MET794  SER795  GLU796  ALA797  LYS798  CYS799  TRP800  GLU811  SER814 

> <Gold.Protein.RotatedAtoms>
  152.0853  134.9444  160.0572 H   0  0  0  0  0  0  0  0  0  0  0  0  # atno 6907 bound_to 6896
  152.0716  133.4105  159.4470 H   0  0  0  0  0  0  0  0  0  0  0  0  # atno 6908 bound_to 6896
  150.6836  134.3005  159.4747 H   0  0  0  0  0  0  0  0  0  0  0  0  # atno 6909 bound_to 6896
  144.9836  139.4479  143.5374 H   0  0  0  0  0  0  0  0  0  0  0  0  # atno 7974 bound_to 7965
  155.5307  140.0599  157.2889 H   0  0  0  0  0  0  0  0  0  0  0  0  # atno 8008 bound_to 7997
  154.4485  140.1936  156.0536 H   0  0  0  0  0  0  0  0  0  0  0  0  # atno 8009 bound_to 7997
  156.0654  140.3267  155.7515 H   0  0  0  0  0  0  0  0  0  0  0  0  # atno 8010 bound_to 7997
  139.6246  144.0557  152.1963 H   0  0  0  0  0  0  0  0  0  0  0  0  # atno 10167 bound_to 10162
  156.4527  130.8175  151.2406 H   0  0  0  0  0  0  0  0  0  0  0  0  # atno 10718 bound_to 10713
  154.2695  135.2766  155.2744 H   0  0  0  0  0  0  0  0  0  0  0  0  # atno 10763 bound_to 10752
  154.5314  135.5728  153.6765 H   0  0  0  0  0  0  0  0  0  0  0  0  # atno 10764 bound_to 10752
  152.9947  135.6228  154.2849 H   0  0  0  0  0  0  0  0  0  0  0  0  # atno 10765 bound_to 10752
  140.6843  133.9126  155.8576 H   0  0  0  0  0  0  0  0  0  0  0  0  # atno 11005 bound_to 11000
  146.3414  139.9124  142.8778 LP  0  0  0  0  0  0  0  0  0  0  0  0  # atno 17320 bound_to 7965
  145.2386  141.0000  143.3949 LP  0  0  0  0  0  0  0  0  0  0  0  0  # atno 17321 bound_to 7965
  140.0207  144.6155  150.7569 LP  0  0  0  0  0  0  0  0  0  0  0  0  # atno 17342 bound_to 10162
  140.7403  143.2803  151.3619 LP  0  0  0  0  0  0  0  0  0  0  0  0  # atno 17343 bound_to 10162
  157.7502  131.0133  150.3418 LP  0  0  0  0  0  0  0  0  0  0  0  0  # atno 17370 bound_to 10713
  156.3800  130.3878  149.7109 LP  0  0  0  0  0  0  0  0  0  0  0  0  # atno 17371 bound_to 10713
  141.0292  134.0780  157.4033 LP  0  0  0  0  0  0  0  0  0  0  0  0  # atno 17394 bound_to 11000
  139.8942  135.0134  156.6939 LP  0  0  0  0  0  0  0  0  0  0  0  0  # atno 17395 bound_to 11000

$$$$
