AV-unprocessed.smi:55|AV-procd|sdf|561|dock9
  -GOLD-   2262016463D 1   1.00000     0.00000
 Structure written by MMmdl.
 31 32  0  0  0  0  0  0  0  0  1 V2000
  148.1249  137.4456  158.8791 C   0  0  0  0  0  0  0  0  0  0  0  0
  149.3722  137.9876  158.2011 C   0  0  0  0  0  0  0  0  0  0  0  0
  149.3210  138.7064  157.0509 C   0  0  0  0  0  0  0  0  0  0  0  0
  150.4399  139.2134  156.4059 N   0  0  0  0  0  0  0  0  0  0  0  0
  150.2926  139.9835  155.1130 C   0  0  2  0  0  0  0  0  0  0  0  0
  149.7140  141.3814  155.3599 C   0  0  0  0  0  0  0  0  0  0  0  0
  148.3199  141.2698  154.7690 C   0  0  1  0  0  0  0  0  0  0  0  0
  147.8940  142.5077  154.2370 O   0  0  0  0  0  0  0  0  0  0  0  0
  148.4968  140.1996  153.6883 C   0  0  2  0  0  0  0  0  0  0  0  0
  147.1928  139.4725  153.3263 C   0  0  0  0  0  0  0  0  0  0  0  0
  147.4075  138.6102  152.2296 O   0  0  0  0  0  0  0  0  0  0  0  0
  149.4082  139.2862  154.2899 O   0  0  0  0  0  0  0  0  0  0  0  0
  151.7194  138.9711  156.9504 C   0  0  0  0  0  0  0  0  0  0  0  0
  152.7605  139.3847  156.4413 O   0  0  0  0  0  0  0  0  0  0  0  0
  151.7729  138.2331  158.1319 N   0  0  0  0  0  0  0  0  0  0  0  0
  150.6727  137.7121  158.8176 C   0  0  0  0  0  0  0  0  0  0  0  0
  150.8491  137.0775  159.8562 O   0  0  0  0  0  0  0  0  0  0  0  0
  151.2649  140.0184  154.6208 H   0  0  0  0  0  0  0  0  0  0  0  0
  147.6154  140.9356  155.5315 H   0  0  0  0  0  0  0  0  0  0  0  0
  148.9653  140.6413  152.8063 H   0  0  0  0  0  0  0  0  0  0  0  0
  152.6860  138.0599  158.5261 H   0  0  0  0  0  0  0  0  0  0  0  0
  147.2189  137.7196  158.3382 H   0  0  0  0  0  0  0  0  0  0  0  0
  148.0401  137.8386  159.8928 H   0  0  0  0  0  0  0  0  0  0  0  0
  148.1649  136.3572  158.9352 H   0  0  0  0  0  0  0  0  0  0  0  0
  148.3527  138.8900  156.6097 H   0  0  0  0  0  0  0  0  0  0  0  0
  149.7199  141.6528  156.4164 H   0  0  0  0  0  0  0  0  0  0  0  0
  150.3228  142.1016  154.8109 H   0  0  0  0  0  0  0  0  0  0  0  0
  148.3151  143.2040  154.7176 H   0  0  0  0  0  0  0  0  0  0  0  0
  146.7991  138.9163  154.1777 H   0  0  0  0  0  0  0  0  0  0  0  0
  146.4306  140.1935  153.0295 H   0  0  0  0  0  0  0  0  0  0  0  0
  148.0943  138.9736  151.6915 H   0  0  0  0  0  0  0  0  0  0  0  0
  1  2  1  0  0  0  0
  1 22  1  0  0  0  0
  1 23  1  0  0  0  0
  1 24  1  0  0  0  0
  2 16  1  0  0  0  0
  2  3  2  0  0  0  0
  3  4  1  0  0  0  0
  3 25  1  0  0  0  0
  4  5  1  0  0  0  0
  4 13  1  0  0  0  0
  5 18  1  0  0  0  0
  5 12  1  0  0  0  0
  5  6  1  0  0  0  0
  6  7  1  0  0  0  0
  6 26  1  0  0  0  0
  6 27  1  0  0  0  0
  7 19  1  0  0  0  0
  7  8  1  0  0  0  0
  7  9  1  0  0  0  0
  8 28  1  0  0  0  0
  9 20  1  0  0  0  0
  9 10  1  0  0  0  0
  9 12  1  0  0  0  0
 10 11  1  0  0  0  0
 10 29  1  0  0  0  0
 10 30  1  0  0  0  0
 11 31  1  0  0  0  0
 13 14  2  0  0  0  0
 13 15  1  0  0  0  0
 15 21  1  0  0  0  0
 15 16  1  0  0  0  0
 16 17  2  0  0  0  0
M  END
> <s_m_source_file>
AV-unprocessed.smi

> <i_m_source_file_index>
55

> <i_lp_mmshare_version>
43012

> <i_f3d_flags>
0

> <s_epik_input>
Tz1jMVtuSF1jKD1PKW4oW2NIXWMxW0NIM10pW0NAQEhdMltDSDJdW0NAQEhdKFtPSF0pW0NAQEhdKE8yKVtDSDJdW09IXQ==

> <s_epik_cmdline>
J2VwaWtfcHl0aG9uJywgJy1waCcsICc3LjAnLCAnLXRuJywgJzgnLCAnLW1hJywgJzIwMCcsICctbWV0YWxfYmluZGluZycsICctaW1hZScsICc8aW5maWxlLm1hZT4nLCAnLW9tYWUnLCAnPG91dGZpbGUubWFlPic=

> <r_lp_tautomer_probability>
0.999537

> <r_epik_Ionization_Penalty>
0.00121888

> <r_epik_Ionization_Penalty_Charging>
0.00121876

> <r_epik_Ionization_Penalty_Neutral>
1.19946e-07

> <r_epik_State_Penalty>
0.000805124

> <r_epik_Charging_Adjusted_Penalty>
0.00202389

> <i_epik_Tot_Q>
0

> <i_epik_Tot_abs_Q>
0

> <r_epik_Metal_State_Penalty>
0.662472

> <b_epik_Metal_Only>
0

> <s_epik_Chemistry_Notes>
This compound contains an acetal/aminal-like group ( X-CH(R)-Y where X, Y are N, S, or O) that may be acid/base labile, releasing an aldehyde.

> <s_lp_Force_Field>
OPLS_2005

> <r_lp_Energy>
24.9707

> <b_lp_Chiralities_Consistent>
1

> <s_lp_Variant>
AV-unprocessed.smi:55-1

> <Gold.Version>
5.8.1

> <Gold.Id.Protein>
6NUR|6NUR_protein|mol2

> <Gold.PLP.Fitness>
35.6134

> <Gold.PLP.PLP>
-24.3016

> <Gold.PLP.part.hbond>
-5.9621

> <Gold.PLP.part.metal>
0.0000

> <Gold.PLP.part.buried>
-1.6103

> <Gold.PLP.part.nonpolar>
-17.7762

> <Gold.PLP.part.repulsive>
0.2370

> <Gold.PLP.ligand.clash>
0.0000

> <Gold.PLP.ligand.torsion>
0.3505

> <Gold.PLP.Chemscore.Hbond>
4.0000

> <Gold.PLP.Chemscore.CHOScore>
0.0000

> <Gold.PLP.Chemscore.Metal>
0.0000

> <Gold.Chemscore.Hbonds>
donor molecule, donor type, donor heavy atom, donor atom, acceptor molecule, acceptor atom, score
      L1  H     8    28       P1  8028  1.00
      L1  H    11    31       P1  7957  1.00
      P1  H  6896  6908       L1    17  1.00
      P1  H  7997  8008       L1    14  1.00

> <Gold.PLP.Chemscore.Internal.Correction>
0.0127

> <Gold.Rescore>
     Score         DG    S(hbond)    S(metal)    S(lipo)     H(rot)  DE(clash)    DE(int)     intcor
     15.14     -15.56       3.92        0.00      33.80       2.73       0.13       0.29       ----

> <Gold.Chemscore.Fitness>
15.1368

> <Gold.Chemscore.DG>
-15.5629

> <Gold.Chemscore.ZeroCoef>
-5.4800

> <Gold.Chemscore.Hbond>
3.9236

> <Gold.Chemscore.Metal>
0.0000

> <Gold.Chemscore.Lipo>
33.8025

> <Gold.Chemscore.Internal_Hbond>
0.0000

> <Gold.Chemscore.DEClash>
0.1334

> <Gold.Chemscore.DEInternal>
0.2927

> <Gold.Chemscore.Rot>
2.7253

> <Gold.Chemscore.Internal.Correction>
   9.000000E+99

> <Gold.Chemscore.Hbonds>
donor molecule, donor type, donor heavy atom, donor atom, acceptor molecule, acceptor atom, score
      L1  H     8    28       P1  8028  0.99
      L1  H    11    31       P1  7957  0.88
      P1  H  6896  6908       L1    17  0.97
      P1  H  7997  8008       L1    14  0.99

> <Gold.Chemscore.Hbond.Weighted>
-13.1049

> <Gold.Chemscore.Metal.Weighted>
-0.0000

> <Gold.Chemscore.Lipo.Weighted>
-3.9549

> <Gold.Chemscore.Internal_Hbond.Weighted>
0.0000

> <Gold.Chemscore.DEClash.Weighted>
0.1334

> <Gold.Chemscore.DEInternal.Weighted>
0.2927

> <Gold.Chemscore.Rot.Weighted>
6.9769

> <Gold.Chemscore.Internal.Correction.Weighted>
   9.000000E+99

> <Gold.Protein.RotatedTorsions>
[ 6907 6896 6895 6894 ] final -135.56 input  -60.11 | X-H torsion
[ 7974 7965 7964 7962 ] final -149.60 input  175.53 | X-H torsion
[ 8008 7997 7996 7995 ] final  -63.49 input   59.86 | X-H torsion
[ 10167 10162 10161 10158 ] final  -65.91 input  -65.29 | X-H torsion
[ 10718 10713 10712 10709 ] final -164.85 input   66.30 | X-H torsion
[ 10763 10752 10751 10750 ] final   32.04 input  -60.55 | X-H torsion
[ 11005 11000 10999 10996 ] final  -74.88 input  -57.11 | X-H torsion

> <Gold.Protein.ActiveResidues>
 VAL166  LYS551  ARG553  GLY616  TRP617  ASP618  TYR619  PRO620  LYS621  CYS622 
 ASP623  PHE694  ASN695  SER759  ASP760  ASP761  ALA762  ILE779  LEU786  VAL792 
 PHE793  MET794  SER795  GLU796  ALA797  LYS798  CYS799  TRP800  GLU811  SER814 

> <Gold.Protein.RotatedAtoms>
  150.9994  133.6071  159.2696 H   0  0  0  0  0  0  0  0  0  0  0  0  # atno 6907 bound_to 6896
  151.3263  135.0830  159.9333 H   0  0  0  0  0  0  0  0  0  0  0  0  # atno 6908 bound_to 6896
  152.5269  133.9632  159.7781 H   0  0  0  0  0  0  0  0  0  0  0  0  # atno 6909 bound_to 6896
  144.7958  140.5044  143.5741 H   0  0  0  0  0  0  0  0  0  0  0  0  # atno 7974 bound_to 7965
  154.4557  140.0974  156.6750 H   0  0  0  0  0  0  0  0  0  0  0  0  # atno 8008 bound_to 7997
  155.5145  140.3477  155.4376 H   0  0  0  0  0  0  0  0  0  0  0  0  # atno 8009 bound_to 7997
  156.0773  140.1364  156.9745 H   0  0  0  0  0  0  0  0  0  0  0  0  # atno 8010 bound_to 7997
  140.5695  143.2317  151.6566 H   0  0  0  0  0  0  0  0  0  0  0  0  # atno 10167 bound_to 10162
  156.6449  130.8984  151.3003 H   0  0  0  0  0  0  0  0  0  0  0  0  # atno 10718 bound_to 10713
  153.0283  135.6423  154.1293 H   0  0  0  0  0  0  0  0  0  0  0  0  # atno 10763 bound_to 10752
  154.1019  135.2859  155.3251 H   0  0  0  0  0  0  0  0  0  0  0  0  # atno 10764 bound_to 10752
  154.6393  135.5465  153.7833 H   0  0  0  0  0  0  0  0  0  0  0  0  # atno 10765 bound_to 10752
  141.1640  133.6927  156.7432 H   0  0  0  0  0  0  0  0  0  0  0  0  # atno 11005 bound_to 11000
  145.5678  139.1482  143.3305 LP  0  0  0  0  0  0  0  0  0  0  0  0  # atno 17320 bound_to 7965
  146.2225  140.5812  142.9011 LP  0  0  0  0  0  0  0  0  0  0  0  0  # atno 17321 bound_to 7965
  139.5110  144.3523  152.0641 LP  0  0  0  0  0  0  0  0  0  0  0  0  # atno 17342 bound_to 10162
  140.2659  144.4017  150.6169 LP  0  0  0  0  0  0  0  0  0  0  0  0  # atno 17343 bound_to 10162
  157.7159  130.9497  150.1254 LP  0  0  0  0  0  0  0  0  0  0  0  0  # atno 17370 bound_to 10713
  156.2129  130.3668  149.8648 LP  0  0  0  0  0  0  0  0  0  0  0  0  # atno 17371 bound_to 10713
  140.2659  134.8430  157.3802 LP  0  0  0  0  0  0  0  0  0  0  0  0  # atno 17394 bound_to 11000
  140.1567  134.4781  155.7923 LP  0  0  0  0  0  0  0  0  0  0  0  0  # atno 17395 bound_to 11000

$$$$
