AV-unprocessed.smi:1763|AV-procd|sdf|7129|dock2
  -GOLD-   22720 8363D 1   1.00000     0.00000
 Structure written by MMmdl.
 43 44  0  0  0  0  0  0  0  0  2 V2000
  141.2905  140.1917  155.2561 C   0  0  0  0  0  0  0  0  0  0  0  0
  142.3834  141.0527  154.8302 N   0  0  0  0  0  0  0  0  0  0  0  0
  142.9184  142.0208  155.5869 C   0  0  0  0  0  0  0  0  0  0  0  0
  142.5282  142.2810  156.7257 O   0  0  0  0  0  0  0  0  0  0  0  0
  144.0552  142.8271  154.9506 C   0  0  0  0  0  0  0  0  0  0  0  0
  145.2305  141.9926  154.5909 N   0  3  2  0  0  0  0  0  0  0  0  0
  145.8708  141.3756  155.7804 C   0  0  0  0  0  0  0  0  0  0  0  0
  146.9982  140.4091  155.3720 C   0  0  0  0  0  0  0  0  0  0  0  0
  148.0489  141.0911  154.4790 C   0  0  2  0  0  0  0  0  0  0  0  0
  148.8468  142.0354  155.2611 N   0  0  0  0  0  0  0  0  0  0  0  0
  149.7472  141.7012  156.1976 C   0  0  0  0  0  0  0  0  0  0  0  0
  150.0161  140.5367  156.4925 O   0  0  0  0  0  0  0  0  0  0  0  0
  150.2998  142.7940  156.7531 N   0  0  0  0  0  0  0  0  0  0  0  0
  151.2910  142.8559  157.7687 C   0  0  0  0  0  0  0  0  0  0  0  0
  151.7880  144.1503  158.0416 C   0  0  0  0  0  0  0  0  0  0  0  0
  152.7737  144.3191  159.0333 C   0  0  0  0  0  0  0  0  0  0  0  0
  153.2386  143.1875  159.7264 C   0  0  0  0  0  0  0  0  0  0  0  0
  152.6922  141.9346  159.3923 C   0  0  0  0  0  0  0  0  0  0  0  0
  151.7472  141.7706  158.4425 N   0  0  0  0  0  0  0  0  0  0  0  0
  147.3471  141.7734  153.2874 C   0  0  0  0  0  0  0  0  0  0  0  0
  146.2200  142.7143  153.7468 C   0  0  0  0  0  0  0  0  0  0  0  0
  141.0219  139.5063  154.4520 H   0  0  0  0  0  0  0  0  0  0  0  0
  140.4078  140.7798  155.5109 H   0  0  0  0  0  0  0  0  0  0  0  0
  141.5782  139.6002  156.1260 H   0  0  0  0  0  0  0  0  0  0  0  0
  142.7527  140.9029  153.9021 H   0  0  0  0  0  0  0  0  0  0  0  0
  143.6974  143.3684  154.0729 H   0  0  0  0  0  0  0  0  0  0  0  0
  144.3493  143.5795  155.6837 H   0  0  0  0  0  0  0  0  0  0  0  0
  146.2575  142.1591  156.4339 H   0  0  0  0  0  0  0  0  0  0  0  0
  145.1244  140.8263  156.3554 H   0  0  0  0  0  0  0  0  0  0  0  0
  147.4715  139.9878  156.2600 H   0  0  0  0  0  0  0  0  0  0  0  0
  146.5644  139.5662  154.8323 H   0  0  0  0  0  0  0  0  0  0  0  0
  148.7221  140.3209  154.0981 H   0  0  0  0  0  0  0  0  0  0  0  0
  148.6860  143.0177  155.0917 H   0  0  0  0  0  0  0  0  0  0  0  0
  149.9721  143.6861  156.4138 H   0  0  0  0  0  0  0  0  0  0  0  0
  151.4200  145.0098  157.4999 H   0  0  0  0  0  0  0  0  0  0  0  0
  153.1652  145.3004  159.2576 H   0  0  0  0  0  0  0  0  0  0  0  0
  153.9937  143.2768  160.4933 H   0  0  0  0  0  0  0  0  0  0  0  0
  153.0220  141.0406  159.9002 H   0  0  0  0  0  0  0  0  0  0  0  0
  148.0653  142.3211  152.6763 H   0  0  0  0  0  0  0  0  0  0  0  0
  146.9252  141.0069  152.6361 H   0  0  0  0  0  0  0  0  0  0  0  0
  145.7287  143.1339  152.8685 H   0  0  0  0  0  0  0  0  0  0  0  0
  146.6340  143.5556  154.3046 H   0  0  0  0  0  0  0  0  0  0  0  0
  144.8713  141.2295  154.0343 H   0  0  0  0  0  0  0  0  0  0  0  0
  1  2  1  0  0  0  0
  1 22  1  0  0  0  0
  1 23  1  0  0  0  0
  1 24  1  0  0  0  0
  2  3  1  0  0  0  0
  2 25  1  0  0  0  0
  3  4  2  0  0  0  0
  3  5  1  0  0  0  0
  5  6  1  0  0  0  0
  5 26  1  0  0  0  0
  5 27  1  0  0  0  0
  6 21  1  0  0  0  0
  6  7  1  0  0  0  0
  6 43  1  0  0  0  0
  7  8  1  0  0  0  0
  7 28  1  0  0  0  0
  7 29  1  0  0  0  0
  8  9  1  0  0  0  0
  8 30  1  0  0  0  0
  8 31  1  0  0  0  0
  9 10  1  0  0  0  0
  9 20  1  0  0  0  0
  9 32  1  0  0  0  0
 10 11  1  0  0  0  0
 10 33  1  0  0  0  0
 11 12  2  0  0  0  0
 11 13  1  0  0  0  0
 13 14  1  0  0  0  0
 13 34  1  0  0  0  0
 14 19  1  0  0  0  0
 14 15  2  0  0  0  0
 15 16  1  0  0  0  0
 15 35  1  0  0  0  0
 16 17  2  0  0  0  0
 16 36  1  0  0  0  0
 17 18  1  0  0  0  0
 17 37  1  0  0  0  0
 18 19  2  0  0  0  0
 18 38  1  0  0  0  0
 20 21  1  0  0  0  0
 20 39  1  0  0  0  0
 20 40  1  0  0  0  0
 21 41  1  0  0  0  0
 21 42  1  0  0  0  0
M  CHG  1   6   1
M  END
> <s_m_source_file>
AV-unprocessed.smi

> <i_m_source_file_index>
1763

> <i_lp_mmshare_version>
43012

> <i_f3d_flags>
0

> <s_epik_input>
W0NIM11bTkhdQyg9TylbQ0gyXU4xW0NIMl1bQ0gyXVtDSF0oW0NIMl1bQ0gyXTEpW05IXUMoPU8pW05IXWMyW2NIXVtjSF1bY0hdW2NIXW4y

> <s_epik_cmdline>
J2VwaWtfcHl0aG9uJywgJy1waCcsICc3LjAnLCAnLXRuJywgJzgnLCAnLW1hJywgJzIwMCcsICctbWV0YWxfYmluZGluZycsICctaW1hZScsICc8aW5maWxlLm1hZT4nLCAnLW9tYWUnLCAnPG91dGZpbGUubWFlPic=

> <r_epik_Ionization_Penalty>
0.838902

> <r_epik_Ionization_Penalty_Charging>
0.838844

> <r_epik_Ionization_Penalty_Neutral>
5.81242e-05

> <r_epik_State_Penalty>
0.8734

> <r_epik_Charging_Adjusted_Penalty>
1.71224

> <i_epik_Tot_Q>
1

> <i_epik_Tot_abs_Q>
1

> <r_epik_Metal_State_Penalty>
0.877921

> <b_epik_Metal_Only>
0

> <s_lp_Force_Field>
OPLS_2005

> <r_lp_Energy>
15.7472

> <b_lp_Chiralities_Consistent>
1

> <s_lp_Variant>
AV-unprocessed.smi:1763-3

> <Gold.Version>
5.8.1

> <Gold.Id.Protein>
6NUR|6NUR_protein|mol2

> <Gold.PLP.Fitness>
49.3397

> <Gold.PLP.PLP>
-35.4915

> <Gold.PLP.part.hbond>
-4.7612

> <Gold.PLP.part.metal>
0.0000

> <Gold.PLP.part.buried>
-4.8291

> <Gold.PLP.part.nonpolar>
-26.5652

> <Gold.PLP.part.repulsive>
0.2661

> <Gold.PLP.ligand.clash>
0.0000

> <Gold.PLP.ligand.torsion>
0.1630

> <Gold.PLP.Chemscore.Hbond>
4.7145

> <Gold.PLP.Chemscore.CHOScore>
0.0000

> <Gold.PLP.Chemscore.Metal>
0.0000

> <Gold.Chemscore.Hbonds>
donor molecule, donor type, donor heavy atom, donor atom, acceptor molecule, acceptor atom, score
      L1  H     2    25       P1 10175  1.00
      L1  H     6    43       P1 10175  1.76
      L1  H    10    33       P1  8028  0.99
      L1  H    13    34       P1  8028  1.00

> <Gold.PLP.Chemscore.Internal.Correction>
0.0308

> <Gold.Rescore>
     Score         DG    S(hbond)    S(metal)    S(lipo)     H(rot)  DE(clash)    DE(int)     intcor
     19.71     -22.63       3.53        0.00      83.59       1.73       1.42       1.50       ----

> <Gold.Chemscore.Fitness>
19.7142

> <Gold.Chemscore.DG>
-22.6335

> <Gold.Chemscore.ZeroCoef>
-5.4800

> <Gold.Chemscore.Hbond>
3.5321

> <Gold.Chemscore.Metal>
0.0000

> <Gold.Chemscore.Lipo>
83.5890

> <Gold.Chemscore.Internal_Hbond>
0.0000

> <Gold.Chemscore.DEClash>
1.4158

> <Gold.Chemscore.DEInternal>
1.5035

> <Gold.Chemscore.Rot>
1.7280

> <Gold.Chemscore.Internal.Correction>
   9.000000E+99

> <Gold.Chemscore.Hbonds>
donor molecule, donor type, donor heavy atom, donor atom, acceptor molecule, acceptor atom, score
      L1  H     2    25       P1 10175  0.30
      L1  H     6    43       P1 10175  0.53
      L1  H    10    33       P1  8028  0.93
      L1  H    13    34       P1  8028  0.98

> <Gold.Chemscore.Hbond.Weighted>
-11.7974

> <Gold.Chemscore.Metal.Weighted>
-0.0000

> <Gold.Chemscore.Lipo.Weighted>
-9.7799

> <Gold.Chemscore.Internal_Hbond.Weighted>
0.0000

> <Gold.Chemscore.DEClash.Weighted>
1.4158

> <Gold.Chemscore.DEInternal.Weighted>
1.5035

> <Gold.Chemscore.Rot.Weighted>
4.4237

> <Gold.Chemscore.Internal.Correction.Weighted>
   9.000000E+99

> <Gold.Protein.RotatedTorsions>
[ 6907 6896 6895 6894 ] final  179.03 input  -60.11 | X-H torsion
[ 7974 7965 7964 7962 ] final   -7.43 input  175.53 | X-H torsion
[ 8008 7997 7996 7995 ] final  175.17 input   59.86 | X-H torsion
[ 10167 10162 10161 10158 ] final  -23.15 input  -65.29 | X-H torsion
[ 10718 10713 10712 10709 ] final   84.60 input   66.30 | X-H torsion
[ 10763 10752 10751 10750 ] final  178.72 input  -60.55 | X-H torsion
[ 11005 11000 10999 10996 ] final  -39.72 input  -57.11 | X-H torsion

> <Gold.Protein.ActiveResidues>
 VAL166  LYS551  ARG553  GLY616  TRP617  ASP618  TYR619  PRO620  LYS621  CYS622 
 ASP623  PHE694  ASN695  SER759  ASP760  ASP761  ALA762  ILE779  LEU786  VAL792 
 PHE793  MET794  SER795  GLU796  ALA797  LYS798  CYS799  TRP800  GLU811  SER814 

> <Gold.Protein.RotatedAtoms>
  151.6782  133.3312  159.3212 H   0  0  0  0  0  0  0  0  0  0  0  0  # atno 6907 bound_to 6896
  150.7835  134.6804  159.6450 H   0  0  0  0  0  0  0  0  0  0  0  0  # atno 6908 bound_to 6896
  152.3899  134.6461  160.0163 H   0  0  0  0  0  0  0  0  0  0  0  0  # atno 6909 bound_to 6896
  146.2307  140.2318  142.8340 H   0  0  0  0  0  0  0  0  0  0  0  0  # atno 7974 bound_to 7965
  156.0899  140.1416  156.9606 H   0  0  0  0  0  0  0  0  0  0  0  0  # atno 8008 bound_to 7997
  154.4635  140.0934  156.7005 H   0  0  0  0  0  0  0  0  0  0  0  0  # atno 8009 bound_to 7997
  155.4937  140.3449  155.4361 H   0  0  0  0  0  0  0  0  0  0  0  0  # atno 8010 bound_to 7997
  140.7287  143.4470  151.0573 H   0  0  0  0  0  0  0  0  0  0  0  0  # atno 10167 bound_to 10162
  157.6901  131.0140  150.2697 H   0  0  0  0  0  0  0  0  0  0  0  0  # atno 10718 bound_to 10713
  154.5114  135.2789  155.1340 H   0  0  0  0  0  0  0  0  0  0  0  0  # atno 10763 bound_to 10752
  154.2934  135.6262  153.5398 H   0  0  0  0  0  0  0  0  0  0  0  0  # atno 10764 bound_to 10752
  152.9919  135.5679  154.5580 H   0  0  0  0  0  0  0  0  0  0  0  0  # atno 10765 bound_to 10752
  141.0123  133.6902  156.2225 H   0  0  0  0  0  0  0  0  0  0  0  0  # atno 11005 bound_to 11000
  144.9552  140.8219  143.5547 LP  0  0  0  0  0  0  0  0  0  0  0  0  # atno 17320 bound_to 7965
  145.2283  139.2127  143.5056 LP  0  0  0  0  0  0  0  0  0  0  0  0  # atno 17321 bound_to 7965
  139.8142  143.7909  152.3173 LP  0  0  0  0  0  0  0  0  0  0  0  0  # atno 17342 bound_to 10162
  139.7969  144.7389  150.9878 LP  0  0  0  0  0  0  0  0  0  0  0  0  # atno 17343 bound_to 10162
  156.3262  130.3793  149.7531 LP  0  0  0  0  0  0  0  0  0  0  0  0  # atno 17370 bound_to 10713
  156.5085  130.8161  151.3160 LP  0  0  0  0  0  0  0  0  0  0  0  0  # atno 17371 bound_to 10713
  140.6713  134.4864  157.5587 LP  0  0  0  0  0  0  0  0  0  0  0  0  # atno 17394 bound_to 11000
  139.9097  134.8372  156.1575 LP  0  0  0  0  0  0  0  0  0  0  0  0  # atno 17395 bound_to 11000

$$$$
