AV-unprocessed.smi:2738|AV-procd|sdf|10548|dock4
  -GOLD-   2272014593D 1   1.00000     0.00000
 Structure written by MMmdl.
 32 33  0  0  0  0  0  0  0  0  1 V2000
  155.1779  140.5855  159.9793 C   0  0  0  0  0  0  0  0  0  0  0  0
  153.7695  140.8901  160.5050 C   0  0  0  0  0  0  0  0  0  0  0  0
  152.9241  141.4568  159.4572 N   0  0  0  0  0  0  0  0  0  0  0  0
  152.5844  140.8663  158.2871 C   0  0  0  0  0  0  0  0  0  0  0  0
  152.9356  139.7476  157.9128 O   0  0  0  0  0  0  0  0  0  0  0  0
  151.8061  141.7282  157.5917 N   0  0  0  0  0  0  0  0  0  0  0  0
  151.2269  141.5030  156.2690 C   0  0  0  0  0  0  0  0  0  0  0  0
  149.7506  141.0708  156.3611 C   0  0  2  0  0  0  0  0  0  0  0  0
  149.1110  140.9209  154.9744 C   0  0  0  0  0  0  0  0  0  0  0  0
  149.0202  142.0658  157.0489 O   0  0  0  0  0  0  0  0  0  0  0  0
  151.6669  142.9153  158.3251 C   0  0  0  0  0  0  0  0  0  0  0  0
  150.9878  144.1106  158.0308 C   0  0  0  0  0  0  0  0  0  0  0  0
  151.0484  145.1427  158.9962 C   0  0  0  0  0  0  0  0  0  0  0  0
  151.7701  144.9661  160.2054 C   0  0  0  0  0  0  0  0  0  0  0  0
  152.4475  143.7536  160.4747 C   0  0  0  0  0  0  0  0  0  0  0  0
  152.3693  142.7439  159.4996 C   0  0  0  0  0  0  0  0  0  0  0  0
  155.8017  140.1619  160.7665 H   0  0  0  0  0  0  0  0  0  0  0  0
  155.6681  141.4895  159.6172 H   0  0  0  0  0  0  0  0  0  0  0  0
  155.1462  139.8685  159.1583 H   0  0  0  0  0  0  0  0  0  0  0  0
  153.3151  139.9786  160.8962 H   0  0  0  0  0  0  0  0  0  0  0  0
  153.8255  141.5832  161.3449 H   0  0  0  0  0  0  0  0  0  0  0  0
  151.3408  142.3846  155.6355 H   0  0  0  0  0  0  0  0  0  0  0  0
  151.8108  140.7197  155.7845 H   0  0  0  0  0  0  0  0  0  0  0  0
  149.6593  140.1248  156.8965 H   0  0  0  0  0  0  0  0  0  0  0  0
  149.6140  140.1473  154.3938 H   0  0  0  0  0  0  0  0  0  0  0  0
  149.1663  141.8512  154.4076 H   0  0  0  0  0  0  0  0  0  0  0  0
  148.0603  140.6398  155.0533 H   0  0  0  0  0  0  0  0  0  0  0  0
  149.1173  142.8848  156.5870 H   0  0  0  0  0  0  0  0  0  0  0  0
  150.4442  144.2414  157.1068 H   0  0  0  0  0  0  0  0  0  0  0  0
  150.5405  146.0775  158.8095 H   0  0  0  0  0  0  0  0  0  0  0  0
  151.8048  145.7677  160.9284 H   0  0  0  0  0  0  0  0  0  0  0  0
  153.0022  143.6151  161.3908 H   0  0  0  0  0  0  0  0  0  0  0  0
  1  2  1  0  0  0  0
  1 17  1  0  0  0  0
  1 18  1  0  0  0  0
  1 19  1  0  0  0  0
  2  3  1  0  0  0  0
  2 20  1  0  0  0  0
  2 21  1  0  0  0  0
  3 16  1  0  0  0  0
  3  4  1  0  0  0  0
  4  5  2  0  0  0  0
  4  6  1  0  0  0  0
  6  7  1  0  0  0  0
  6 11  1  0  0  0  0
  7  8  1  0  0  0  0
  7 22  1  0  0  0  0
  7 23  1  0  0  0  0
  8  9  1  0  0  0  0
  8 10  1  0  0  0  0
  8 24  1  0  0  0  0
  9 25  1  0  0  0  0
  9 26  1  0  0  0  0
  9 27  1  0  0  0  0
 10 28  1  0  0  0  0
 11 16  2  0  0  0  0
 11 12  1  0  0  0  0
 12 13  2  0  0  0  0
 12 29  1  0  0  0  0
 13 14  1  0  0  0  0
 13 30  1  0  0  0  0
 14 15  2  0  0  0  0
 14 31  1  0  0  0  0
 15 16  1  0  0  0  0
 15 32  1  0  0  0  0
M  END
> <s_m_source_file>
AV-unprocessed.smi

> <i_m_source_file_index>
2738

> <i_lp_mmshare_version>
43012

> <i_f3d_flags>
0

> <s_epik_input>
W2NIXTFbY0hdW2NIXVtjSF1jKGMxMiluKFtDSDJdW0NIM10pYyg9TyluMltDSDJdW0NASF0oW0NIM10pW09IXQ==

> <s_epik_cmdline>
J2VwaWtfcHl0aG9uJywgJy1waCcsICc3LjAnLCAnLXRuJywgJzgnLCAnLW1hJywgJzIwMCcsICctbWV0YWxfYmluZGluZycsICctaW1hZScsICc8aW5maWxlLm1hZT4nLCAnLW9tYWUnLCAnPG91dGZpbGUubWFlPic=

> <r_lp_tautomer_probability>
1

> <r_epik_Ionization_Penalty>
5.28302e-08

> <r_epik_Ionization_Penalty_Charging>
2.52071e-09

> <r_epik_Ionization_Penalty_Neutral>
5.03095e-08

> <r_epik_State_Penalty>
-0

> <r_epik_Charging_Adjusted_Penalty>
2.52071e-09

> <i_epik_Tot_Q>
0

> <i_epik_Tot_abs_Q>
0

> <r_epik_Metal_State_Penalty>
-0

> <b_epik_Metal_Only>
0

> <s_lp_Force_Field>
OPLS_2005

> <r_lp_Energy>
38.1008

> <b_lp_Chiralities_Consistent>
1

> <s_lp_Variant>
AV-unprocessed.smi:2738-1

> <Gold.Version>
5.8.1

> <Gold.Id.Protein>
6NUR|6NUR_protein|mol2

> <Gold.PLP.Fitness>
45.8475

> <Gold.PLP.PLP>
-40.4704

> <Gold.PLP.part.hbond>
-2.0000

> <Gold.PLP.part.metal>
0.0000

> <Gold.PLP.part.buried>
-5.5199

> <Gold.PLP.part.nonpolar>
-32.7032

> <Gold.PLP.part.repulsive>
0.0000

> <Gold.PLP.ligand.clash>
0.0000

> <Gold.PLP.ligand.torsion>
0.3161

> <Gold.PLP.Chemscore.Hbond>
2.0000

> <Gold.PLP.Chemscore.CHOScore>
0.0000

> <Gold.PLP.Chemscore.Metal>
0.0000

> <Gold.Chemscore.Hbonds>
donor molecule, donor type, donor heavy atom, donor atom, acceptor molecule, acceptor atom, score
      L1  H    10    28       P1  8028  0.91
      P1  H  7997  8010       L1     5  1.00

> <Gold.PLP.Chemscore.Internal.Correction>
0.0092

> <Gold.Rescore>
     Score         DG    S(hbond)    S(metal)    S(lipo)     H(rot)  DE(clash)    DE(int)     intcor
     18.98     -19.63       1.82        0.00     108.50       1.81       0.18       0.47       ----

> <Gold.Chemscore.Fitness>
18.9757

> <Gold.Chemscore.DG>
-19.6258

> <Gold.Chemscore.ZeroCoef>
-5.4800

> <Gold.Chemscore.Hbond>
1.8225

> <Gold.Chemscore.Metal>
0.0000

> <Gold.Chemscore.Lipo>
108.5012

> <Gold.Chemscore.Internal_Hbond>
0.0000

> <Gold.Chemscore.DEClash>
0.1837

> <Gold.Chemscore.DEInternal>
0.4664

> <Gold.Chemscore.Rot>
1.8109

> <Gold.Chemscore.Internal.Correction>
   9.000000E+99

> <Gold.Chemscore.Hbonds>
donor molecule, donor type, donor heavy atom, donor atom, acceptor molecule, acceptor atom, score
      L1  H    10    28       P1  8028  0.87
      P1  H  7997  8010       L1     5  0.45

> <Gold.Chemscore.Hbond.Weighted>
-6.0870

> <Gold.Chemscore.Metal.Weighted>
-0.0000

> <Gold.Chemscore.Lipo.Weighted>
-12.6946

> <Gold.Chemscore.Internal_Hbond.Weighted>
0.0000

> <Gold.Chemscore.DEClash.Weighted>
0.1837

> <Gold.Chemscore.DEInternal.Weighted>
0.4664

> <Gold.Chemscore.Rot.Weighted>
4.6358

> <Gold.Chemscore.Internal.Correction.Weighted>
   9.000000E+99

> <Gold.Protein.RotatedTorsions>
[ 6907 6896 6895 6894 ] final -147.96 input  -60.11 | X-H torsion
[ 7974 7965 7964 7962 ] final  -81.01 input  175.53 | X-H torsion
[ 8008 7997 7996 7995 ] final   45.08 input   59.86 | X-H torsion
[ 10167 10162 10161 10158 ] final   18.60 input  -65.29 | X-H torsion
[ 10718 10713 10712 10709 ] final  109.78 input   66.30 | X-H torsion
[ 10763 10752 10751 10750 ] final   87.36 input  -60.55 | X-H torsion
[ 11005 11000 10999 10996 ] final -160.20 input  -57.11 | X-H torsion

> <Gold.Protein.ActiveResidues>
 VAL166  LYS551  ARG553  GLY616  TRP617  ASP618  TYR619  PRO620  LYS621  CYS622 
 ASP623  PHE694  ASN695  SER759  ASP760  ASP761  ALA762  ILE779  LEU786  VAL792 
 PHE793  MET794  SER795  GLU796  ALA797  LYS798  CYS799  TRP800  GLU811  SER814 

> <Gold.Protein.RotatedAtoms>
  151.1630  133.4833  159.2593 H   0  0  0  0  0  0  0  0  0  0  0  0  # atno 6907 bound_to 6896
  151.1435  135.0191  159.8646 H   0  0  0  0  0  0  0  0  0  0  0  0  # atno 6908 bound_to 6896
  152.5463  134.1521  159.8576 H   0  0  0  0  0  0  0  0  0  0  0  0  # atno 6909 bound_to 6896
  145.5523  140.9495  143.1492 H   0  0  0  0  0  0  0  0  0  0  0  0  # atno 7974 bound_to 7965
  155.3300  140.3402  155.4239 H   0  0  0  0  0  0  0  0  0  0  0  0  # atno 8008 bound_to 7997
  156.1866  140.1683  156.8209 H   0  0  0  0  0  0  0  0  0  0  0  0  # atno 8009 bound_to 7997
  154.5394  140.0728  156.8466 H   0  0  0  0  0  0  0  0  0  0  0  0  # atno 8010 bound_to 7997
  140.5641  143.9283  150.6664 H   0  0  0  0  0  0  0  0  0  0  0  0  # atno 10167 bound_to 10162
  157.6526  131.0920  150.6504 H   0  0  0  0  0  0  0  0  0  0  0  0  # atno 10718 bound_to 10713
  153.1661  135.4546  154.9838 H   0  0  0  0  0  0  0  0  0  0  0  0  # atno 10763 bound_to 10752
  154.7932  135.3228  154.7730 H   0  0  0  0  0  0  0  0  0  0  0  0  # atno 10764 bound_to 10752
  153.8213  135.6946  153.4881 H   0  0  0  0  0  0  0  0  0  0  0  0  # atno 10765 bound_to 10752
  140.6341  134.4620  157.5231 H   0  0  0  0  0  0  0  0  0  0  0  0  # atno 11005 bound_to 11000
  144.7523  139.7162  143.7268 LP  0  0  0  0  0  0  0  0  0  0  0  0  # atno 17320 bound_to 7965
  146.1908  139.5147  142.9806 LP  0  0  0  0  0  0  0  0  0  0  0  0  # atno 17321 bound_to 7965
  140.2741  143.3435  152.1211 LP  0  0  0  0  0  0  0  0  0  0  0  0  # atno 17342 bound_to 10162
  139.5084  144.6850  151.5912 LP  0  0  0  0  0  0  0  0  0  0  0  0  # atno 17343 bound_to 10162
  156.6813  130.4568  149.5627 LP  0  0  0  0  0  0  0  0  0  0  0  0  # atno 17370 bound_to 10713
  156.1927  130.6570  151.1079 LP  0  0  0  0  0  0  0  0  0  0  0  0  # atno 17371 bound_to 10713
  139.9105  134.8356  156.1547 LP  0  0  0  0  0  0  0  0  0  0  0  0  # atno 17394 bound_to 11000
  141.0654  133.6822  156.2034 LP  0  0  0  0  0  0  0  0  0  0  0  0  # atno 17395 bound_to 11000

$$$$
