AV-unprocessed.smi:1060|AV-procd|sdf|4656|dock10
  -GOLD-   22720 3163D 1   1.00000     0.00000
 Structure written by MMmdl.
 37 38  0  0  0  0  0  0  0  0  1 V2000
  151.8198  140.0566  155.0220 O   0  0  0  0  0  0  0  0  0  0  0  0
  150.6604  140.1222  155.4300 C   0  0  0  0  0  0  0  0  0  0  0  0
  149.5127  139.6203  154.5515 C   0  0  0  0  0  0  0  0  0  0  0  0
  148.5234  140.6310  154.4329 O   0  0  0  0  0  0  0  0  0  0  0  0
  147.2477  140.1135  154.0964 C   0  0  0  0  0  0  0  0  0  0  0  0
  146.1833  141.1666  154.4273 C   0  0  2  0  0  0  0  0  0  0  0  0
  146.4697  142.5418  153.8310 C   0  0  0  0  0  0  0  0  0  0  0  0
  145.6688  143.4746  154.7229 C   0  0  0  0  0  0  0  0  0  0  0  0
  145.4694  142.6715  156.0123 C   0  0  0  0  0  0  0  0  0  0  0  0
  146.1731  141.4509  155.8172 O   0  0  0  0  0  0  0  0  0  0  0  0
  150.2831  140.6021  156.6313 N   0  0  0  0  0  0  0  0  0  0  0  0
  151.0601  141.1522  157.6658 C   0  0  0  0  0  0  0  0  0  0  0  0
  150.9172  142.4062  158.1703 C   0  0  0  0  0  0  0  0  0  0  0  0
  151.7530  142.9040  159.2500 C   0  0  0  0  0  0  0  0  0  0  0  0
  151.6383  144.3366  159.7483 C   0  0  0  0  0  0  0  0  0  0  0  0
  150.3549  144.6713  159.8721 F   0  0  0  0  0  0  0  0  0  0  0  0
  152.2230  144.4850  160.9376 F   0  0  0  0  0  0  0  0  0  0  0  0
  152.2075  145.1862  158.8936 F   0  0  0  0  0  0  0  0  0  0  0  0
  152.6867  142.0594  159.7248 C   0  0  0  0  0  0  0  0  0  0  0  0
  152.8267  140.7622  159.2270 N   0  0  0  0  0  0  0  0  0  0  0  0
  152.0769  140.2469  158.2273 C   0  0  0  0  0  0  0  0  0  0  0  0
  152.2642  139.0929  157.8429 O   0  0  0  0  0  0  0  0  0  0  0  0
  153.5404  140.1843  159.6468 H   0  0  0  0  0  0  0  0  0  0  0  0
  149.8997  139.3553  153.5661 H   0  0  0  0  0  0  0  0  0  0  0  0
  149.0862  138.7218  154.9998 H   0  0  0  0  0  0  0  0  0  0  0  0
  147.2021  139.8385  153.0414 H   0  0  0  0  0  0  0  0  0  0  0  0
  147.0657  139.2103  154.6807 H   0  0  0  0  0  0  0  0  0  0  0  0
  145.1941  140.8272  154.1139 H   0  0  0  0  0  0  0  0  0  0  0  0
  147.5319  142.7752  153.9171 H   0  0  0  0  0  0  0  0  0  0  0  0
  146.1919  142.6149  152.7792 H   0  0  0  0  0  0  0  0  0  0  0  0
  146.1958  144.4130  154.8972 H   0  0  0  0  0  0  0  0  0  0  0  0
  144.7034  143.7094  154.2731 H   0  0  0  0  0  0  0  0  0  0  0  0
  145.8477  143.1946  156.8907 H   0  0  0  0  0  0  0  0  0  0  0  0
  144.4117  142.4594  156.1725 H   0  0  0  0  0  0  0  0  0  0  0  0
  149.2973  140.5378  156.8417 H   0  0  0  0  0  0  0  0  0  0  0  0
  150.1607  143.0760  157.7974 H   0  0  0  0  0  0  0  0  0  0  0  0
  153.3922  142.3078  160.5041 H   0  0  0  0  0  0  0  0  0  0  0  0
  1  2  2  0  0  0  0
  2  3  1  0  0  0  0
  2 11  1  0  0  0  0
  3  4  1  0  0  0  0
  3 24  1  0  0  0  0
  3 25  1  0  0  0  0
  4  5  1  0  0  0  0
  5  6  1  0  0  0  0
  5 26  1  0  0  0  0
  5 27  1  0  0  0  0
  6 10  1  0  0  0  0
  6  7  1  0  0  0  0
  6 28  1  0  0  0  0
  7  8  1  0  0  0  0
  7 29  1  0  0  0  0
  7 30  1  0  0  0  0
  8  9  1  0  0  0  0
  8 31  1  0  0  0  0
  8 32  1  0  0  0  0
  9 10  1  0  0  0  0
  9 33  1  0  0  0  0
  9 34  1  0  0  0  0
 11 12  1  0  0  0  0
 11 35  1  0  0  0  0
 12 21  1  0  0  0  0
 12 13  2  0  0  0  0
 13 14  1  0  0  0  0
 13 36  1  0  0  0  0
 14 15  1  0  0  0  0
 14 19  2  0  0  0  0
 15 16  1  0  0  0  0
 15 17  1  0  0  0  0
 15 18  1  0  0  0  0
 19 20  1  0  0  0  0
 19 37  1  0  0  0  0
 20 23  1  0  0  0  0
 20 21  1  0  0  0  0
 21 22  2  0  0  0  0
M  END
> <s_m_source_file>
AV-unprocessed.smi

> <i_m_source_file_index>
1060

> <i_lp_mmshare_version>
43012

> <i_f3d_flags>
0

> <s_epik_input>
Tz1jMVtuSF1bY0hdYyhDKEYpKEYpRilbY0hdYzFbTkhdQyg9TylbQ0gyXU9bQ0gyXVtDQEBIXTJbQ0gyXVtDSDJdW0NIMl1PMg==

> <s_epik_cmdline>
J2VwaWtfcHl0aG9uJywgJy1waCcsICc3LjAnLCAnLXRuJywgJzgnLCAnLW1hJywgJzIwMCcsICctbWV0YWxfYmluZGluZycsICctaW1hZScsICc8aW5maWxlLm1hZT4nLCAnLW9tYWUnLCAnPG91dGZpbGUubWFlPic=

> <r_lp_tautomer_probability>
0.999

> <r_epik_Ionization_Penalty>
0.00950091

> <r_epik_Ionization_Penalty_Charging>
0.00950081

> <r_epik_Ionization_Penalty_Neutral>
1.00143e-07

> <r_epik_State_Penalty>
0.00721819

> <r_epik_Charging_Adjusted_Penalty>
0.016719

> <i_epik_Tot_Q>
0

> <i_epik_Tot_abs_Q>
0

> <r_epik_Metal_State_Penalty>
0.323303

> <b_epik_Metal_Only>
0

> <s_lp_Force_Field>
OPLS_2005

> <r_lp_Energy>
32.1997

> <b_lp_Chiralities_Consistent>
1

> <s_lp_Variant>
AV-unprocessed.smi:1060-1

> <Gold.Version>
5.8.1

> <Gold.Id.Protein>
6NUR|6NUR_protein|mol2

> <Gold.PLP.Fitness>
44.0605

> <Gold.PLP.PLP>
-44.2988

> <Gold.PLP.part.hbond>
-1.0000

> <Gold.PLP.part.metal>
0.0000

> <Gold.PLP.part.buried>
-8.5348

> <Gold.PLP.part.nonpolar>
-35.2073

> <Gold.PLP.part.repulsive>
0.3866

> <Gold.PLP.ligand.clash>
0.0000

> <Gold.PLP.ligand.torsion>
1.5621

> <Gold.PLP.Chemscore.Hbond>
0.9280

> <Gold.PLP.Chemscore.CHOScore>
0.0000

> <Gold.PLP.Chemscore.Metal>
0.0000

> <Gold.Chemscore.Hbonds>
donor molecule, donor type, donor heavy atom, donor atom, acceptor molecule, acceptor atom, score
      P1  H  7989  7998       L1     1  0.93

> <Gold.PLP.Chemscore.Internal.Correction>
0.1018

> <Gold.Rescore>
     Score         DG    S(hbond)    S(metal)    S(lipo)     H(rot)  DE(clash)    DE(int)     intcor
     10.54     -11.83       0.95        0.00      69.79       1.95       0.10       1.19       ----

> <Gold.Chemscore.Fitness>
10.5380

> <Gold.Chemscore.DG>
-11.8332

> <Gold.Chemscore.ZeroCoef>
-5.4800

> <Gold.Chemscore.Hbond>
0.9540

> <Gold.Chemscore.Metal>
0.0000

> <Gold.Chemscore.Lipo>
69.7937

> <Gold.Chemscore.Internal_Hbond>
0.0000

> <Gold.Chemscore.DEClash>
0.1045

> <Gold.Chemscore.DEInternal>
1.1908

> <Gold.Chemscore.Rot>
1.9527

> <Gold.Chemscore.Internal.Correction>
   9.000000E+99

> <Gold.Chemscore.Hbonds>
donor molecule, donor type, donor heavy atom, donor atom, acceptor molecule, acceptor atom, score
      P1  H  7989  7998       L1     1  0.27

> <Gold.Chemscore.Hbond.Weighted>
-3.1864

> <Gold.Chemscore.Metal.Weighted>
-0.0000

> <Gold.Chemscore.Lipo.Weighted>
-8.1659

> <Gold.Chemscore.Internal_Hbond.Weighted>
0.0000

> <Gold.Chemscore.DEClash.Weighted>
0.1045

> <Gold.Chemscore.DEInternal.Weighted>
1.1908

> <Gold.Chemscore.Rot.Weighted>
4.9990

> <Gold.Chemscore.Internal.Correction.Weighted>
   9.000000E+99

> <Gold.Protein.RotatedTorsions>
[ 6907 6896 6895 6894 ] final  -86.48 input  -60.11 | X-H torsion
[ 7974 7965 7964 7962 ] final -137.67 input  175.53 | X-H torsion
[ 8008 7997 7996 7995 ] final   36.88 input   59.86 | X-H torsion
[ 10167 10162 10161 10158 ] final   43.71 input  -65.29 | X-H torsion
[ 10718 10713 10712 10709 ] final  167.03 input   66.30 | X-H torsion
[ 10763 10752 10751 10750 ] final  -62.00 input  -60.55 | X-H torsion
[ 11005 11000 10999 10996 ] final  127.75 input  -57.11 | X-H torsion

> <Gold.Protein.ActiveResidues>
 VAL166  LYS551  ARG553  GLY616  TRP617  ASP618  TYR619  PRO620  LYS621  CYS622 
 ASP623  PHE694  ASN695  SER759  ASP760  ASP761  ALA762  ILE779  LEU786  VAL792 
 PHE793  MET794  SER795  GLU796  ALA797  LYS798  CYS799  TRP800  GLU811  SER814 

> <Gold.Protein.RotatedAtoms>
  150.6867  134.3044  159.4719 H   0  0  0  0  0  0  0  0  0  0  0  0  # atno 6907 bound_to 6896
  152.0936  134.9387  160.0580 H   0  0  0  0  0  0  0  0  0  0  0  0  # atno 6908 bound_to 6896
  152.0694  133.4064  159.4489 H   0  0  0  0  0  0  0  0  0  0  0  0  # atno 6909 bound_to 6896
  144.8822  140.6524  143.5198 H   0  0  0  0  0  0  0  0  0  0  0  0  # atno 7974 bound_to 7965
  155.1947  140.3311  155.4353 H   0  0  0  0  0  0  0  0  0  0  0  0  # atno 8008 bound_to 7997
  156.2429  140.1904  156.6988 H   0  0  0  0  0  0  0  0  0  0  0  0  # atno 8009 bound_to 7997
  154.6182  140.0599  156.9567 H   0  0  0  0  0  0  0  0  0  0  0  0  # atno 8010 bound_to 7997
  140.3416  144.2463  150.6155 H   0  0  0  0  0  0  0  0  0  0  0  0  # atno 10167 bound_to 10162
  157.0574  131.0330  151.2659 H   0  0  0  0  0  0  0  0  0  0  0  0  # atno 10718 bound_to 10713
  154.2931  135.6249  153.5393 H   0  0  0  0  0  0  0  0  0  0  0  0  # atno 10763 bound_to 10752
  152.9850  135.5660  154.5367 H   0  0  0  0  0  0  0  0  0  0  0  0  # atno 10764 bound_to 10752
  154.4982  135.2870  155.1418 H   0  0  0  0  0  0  0  0  0  0  0  0  # atno 10765 bound_to 10752
  139.9524  134.9619  156.8900 H   0  0  0  0  0  0  0  0  0  0  0  0  # atno 11005 bound_to 11000
  145.3933  139.1612  143.4217 LP  0  0  0  0  0  0  0  0  0  0  0  0  # atno 17320 bound_to 7965
  146.3002  140.4024  142.8707 LP  0  0  0  0  0  0  0  0  0  0  0  0  # atno 17321 bound_to 7965
  140.5303  143.2245  151.8249 LP  0  0  0  0  0  0  0  0  0  0  0  0  # atno 17342 bound_to 10162
  139.4839  144.4728  151.9404 LP  0  0  0  0  0  0  0  0  0  0  0  0  # atno 17343 bound_to 10162
  157.4982  130.7864  149.7577 LP  0  0  0  0  0  0  0  0  0  0  0  0  # atno 17370 bound_to 10713
  155.9989  130.3892  150.2685 LP  0  0  0  0  0  0  0  0  0  0  0  0  # atno 17371 bound_to 10713
  140.5688  134.0463  155.7423 LP  0  0  0  0  0  0  0  0  0  0  0  0  # atno 17394 bound_to 11000
  141.1189  133.9494  157.2768 LP  0  0  0  0  0  0  0  0  0  0  0  0  # atno 17395 bound_to 11000

$$$$
