AV-unprocessed.smi:3173|AV-procd|sdf|12117|dock8
  -GOLD-   2272017553D 1   1.00000     0.00000
 Structure written by MMmdl.
 35 36  0  0  0  0  0  0  0  0  1 V2000
  152.8247  139.6578  154.9284 O   0  0  0  0  0  0  0  0  0  0  0  0
  151.7766  139.1590  155.3392 C   0  0  0  0  0  0  0  0  0  0  0  0
  150.9533  138.2335  154.4367 C   0  0  0  0  0  0  0  0  0  0  0  0
  149.4751  138.6597  154.3157 C   0  0  2  0  0  0  0  0  0  0  0  0
  149.2990  140.1534  154.4101 C   0  0  0  0  0  0  0  0  0  0  0  0
  148.3719  140.5075  155.2975 C   0  0  0  0  0  0  0  0  0  0  0  0
  147.7435  139.3224  155.9765 C   0  0  0  0  0  0  0  0  0  0  0  0
  148.5555  138.1210  155.4448 C   0  0  0  0  0  0  0  0  0  0  0  0
  151.2924  139.3760  156.5715 N   0  0  0  0  0  0  0  0  0  0  0  0
  151.9421  140.1871  157.5944 C   0  0  0  0  0  0  0  0  0  0  0  0
  150.9165  140.7770  158.5769 C   0  0  0  0  0  0  0  0  0  0  0  0
  151.2467  142.2054  158.9661 C   0  0  0  0  0  0  0  0  0  0  0  0
  152.4052  142.4970  159.7171 C   0  0  0  0  0  0  0  0  0  0  0  0
  152.6683  143.8396  160.0509 C   0  0  0  0  0  0  0  0  0  0  0  0
  151.7682  144.8340  159.6219 C   0  0  0  0  0  0  0  0  0  0  0  0
  150.6411  144.4396  158.8735 C   0  0  0  0  0  0  0  0  0  0  0  0
  150.3797  143.1552  158.5476 N   0  0  0  0  0  0  0  0  0  0  0  0
  151.4058  138.1898  153.4445 H   0  0  0  0  0  0  0  0  0  0  0  0
  151.0136  137.2248  154.8470 H   0  0  0  0  0  0  0  0  0  0  0  0
  149.0806  138.3575  153.3445 H   0  0  0  0  0  0  0  0  0  0  0  0
  149.8650  140.8395  153.7973 H   0  0  0  0  0  0  0  0  0  0  0  0
  148.0722  141.5222  155.5143 H   0  0  0  0  0  0  0  0  0  0  0  0
  147.8135  139.4133  157.0608 H   0  0  0  0  0  0  0  0  0  0  0  0
  146.6915  139.2533  155.6978 H   0  0  0  0  0  0  0  0  0  0  0  0
  147.9054  137.3232  155.0843 H   0  0  0  0  0  0  0  0  0  0  0  0
  149.1493  137.7040  156.2594 H   0  0  0  0  0  0  0  0  0  0  0  0
  150.4226  138.9309  156.8262 H   0  0  0  0  0  0  0  0  0  0  0  0
  152.6860  139.5938  158.1290 H   0  0  0  0  0  0  0  0  0  0  0  0
  152.4855  140.9896  157.0950 H   0  0  0  0  0  0  0  0  0  0  0  0
  149.9193  140.7524  158.1350 H   0  0  0  0  0  0  0  0  0  0  0  0
  150.8648  140.1672  159.4799 H   0  0  0  0  0  0  0  0  0  0  0  0
  153.0778  141.7119  160.0301 H   0  0  0  0  0  0  0  0  0  0  0  0
  153.5446  144.1015  160.6252 H   0  0  0  0  0  0  0  0  0  0  0  0
  151.9378  145.8736  159.8598 H   0  0  0  0  0  0  0  0  0  0  0  0
  149.9305  145.1755  158.5272 H   0  0  0  0  0  0  0  0  0  0  0  0
  1  2  2  0  0  0  0
  2  3  1  0  0  0  0
  2  9  1  0  0  0  0
  3  4  1  0  0  0  0
  3 18  1  0  0  0  0
  3 19  1  0  0  0  0
  4  8  1  0  0  0  0
  4  5  1  0  0  0  0
  4 20  1  0  0  0  0
  5  6  2  0  0  0  0
  5 21  1  0  0  0  0
  6  7  1  0  0  0  0
  6 22  1  0  0  0  0
  7  8  1  0  0  0  0
  7 23  1  0  0  0  0
  7 24  1  0  0  0  0
  8 25  1  0  0  0  0
  8 26  1  0  0  0  0
  9 10  1  0  0  0  0
  9 27  1  0  0  0  0
 10 11  1  0  0  0  0
 10 28  1  0  0  0  0
 10 29  1  0  0  0  0
 11 12  1  0  0  0  0
 11 30  1  0  0  0  0
 11 31  1  0  0  0  0
 12 17  1  0  0  0  0
 12 13  2  0  0  0  0
 13 14  1  0  0  0  0
 13 32  1  0  0  0  0
 14 15  2  0  0  0  0
 14 33  1  0  0  0  0
 15 16  1  0  0  0  0
 15 34  1  0  0  0  0
 16 17  2  0  0  0  0
 16 35  1  0  0  0  0
M  END
> <s_m_source_file>
AV-unprocessed.smi

> <i_m_source_file_index>
3173

> <i_lp_mmshare_version>
43012

> <i_f3d_flags>
0

> <s_epik_input>
W0NIMl0xW0NIMl1bQ0hdPVtDSF1bQ0BIXTFbQ0gyXUMoPU8pW05IXVtDSDJdW0NIMl1jMltjSF1bY0hdW2NIXVtjSF1uMg==

> <s_epik_cmdline>
J2VwaWtfcHl0aG9uJywgJy1waCcsICc3LjAnLCAnLXRuJywgJzgnLCAnLW1hJywgJzIwMCcsICctbWV0YWxfYmluZGluZycsICctaW1hZScsICc8aW5maWxlLm1hZT4nLCAnLW9tYWUnLCAnPG91dGZpbGUubWFlPic=

> <r_epik_Ionization_Penalty>
0.0258754

> <r_epik_Ionization_Penalty_Charging>
0

> <r_epik_Ionization_Penalty_Neutral>
0.0258754

> <r_epik_State_Penalty>
0.0210899

> <r_epik_Charging_Adjusted_Penalty>
0.0210899

> <i_epik_Tot_Q>
0

> <i_epik_Tot_abs_Q>
0

> <r_epik_Metal_State_Penalty>
0.0202045

> <b_epik_Metal_Only>
0

> <s_lp_Force_Field>
OPLS_2005

> <r_lp_Energy>
13.7226

> <b_lp_Chiralities_Consistent>
1

> <s_lp_Variant>
AV-unprocessed.smi:3173-1

> <Gold.Version>
5.8.1

> <Gold.Id.Protein>
6NUR|6NUR_protein|mol2

> <Gold.PLP.Fitness>
39.5987

> <Gold.PLP.PLP>
-34.8908

> <Gold.PLP.part.hbond>
-2.0000

> <Gold.PLP.part.metal>
0.0000

> <Gold.PLP.part.buried>
-4.9183

> <Gold.PLP.part.nonpolar>
-29.4981

> <Gold.PLP.part.repulsive>
0.2537

> <Gold.PLP.ligand.clash>
0.0000

> <Gold.PLP.ligand.torsion>
0.8655

> <Gold.PLP.Chemscore.Hbond>
1.1248

> <Gold.PLP.Chemscore.CHOScore>
1.0138

> <Gold.PLP.Chemscore.Metal>
0.0000

> <Gold.Chemscore.Hbonds>
donor molecule, donor type, donor heavy atom, donor atom, acceptor molecule, acceptor atom, score
      P1  H  7989  7998       L1     1  0.15
      P1  H  7997  8009       L1     1  1.00
      L1  C    16    35       P1  8029  1.00

> <Gold.PLP.Chemscore.Internal.Correction>
0.0230

> <Gold.Rescore>
     Score         DG    S(hbond)    S(metal)    S(lipo)     H(rot)  DE(clash)    DE(int)     intcor
     15.62     -16.74       1.00        0.00     100.70       1.50       0.38       0.74       ----

> <Gold.Chemscore.Fitness>
15.6243

> <Gold.Chemscore.DG>
-16.7407

> <Gold.Chemscore.ZeroCoef>
-5.4800

> <Gold.Chemscore.Hbond>
0.9965

> <Gold.Chemscore.Metal>
0.0000

> <Gold.Chemscore.Lipo>
100.6992

> <Gold.Chemscore.Internal_Hbond>
0.0000

> <Gold.Chemscore.DEClash>
0.3788

> <Gold.Chemscore.DEInternal>
0.7376

> <Gold.Chemscore.Rot>
1.5037

> <Gold.Chemscore.Internal.Correction>
   9.000000E+99

> <Gold.Chemscore.Hbonds>
donor molecule, donor type, donor heavy atom, donor atom, acceptor molecule, acceptor atom, score
      P1  H  7989  7998       L1     1  0.01
      P1  H  7997  8009       L1     1  0.99

> <Gold.Chemscore.Hbond.Weighted>
-3.3282

> <Gold.Chemscore.Metal.Weighted>
-0.0000

> <Gold.Chemscore.Lipo.Weighted>
-11.7818

> <Gold.Chemscore.Internal_Hbond.Weighted>
0.0000

> <Gold.Chemscore.DEClash.Weighted>
0.3788

> <Gold.Chemscore.DEInternal.Weighted>
0.7376

> <Gold.Chemscore.Rot.Weighted>
3.8494

> <Gold.Chemscore.Internal.Correction.Weighted>
   9.000000E+99

> <Gold.Protein.RotatedTorsions>
[ 6907 6896 6895 6894 ] final   50.55 input  -60.11 | X-H torsion
[ 7974 7965 7964 7962 ] final  163.30 input  175.53 | X-H torsion
[ 8008 7997 7996 7995 ] final -133.44 input   59.86 | X-H torsion
[ 10167 10162 10161 10158 ] final   13.07 input  -65.29 | X-H torsion
[ 10718 10713 10712 10709 ] final  -33.48 input   66.30 | X-H torsion
[ 10763 10752 10751 10750 ] final  179.14 input  -60.55 | X-H torsion
[ 11005 11000 10999 10996 ] final  160.98 input  -57.11 | X-H torsion

> <Gold.Protein.ActiveResidues>
 VAL166  LYS551  ARG553  GLY616  TRP617  ASP618  TYR619  PRO620  LYS621  CYS622 
 ASP623  PHE694  ASN695  SER759  ASP760  ASP761  ALA762  ILE779  LEU786  VAL792 
 PHE793  MET794  SER795  GLU796  ALA797  LYS798  CYS799  TRP800  GLU811  SER814 

> <Gold.Protein.RotatedAtoms>
  152.3030  134.7588  160.0353 H   0  0  0  0  0  0  0  0  0  0  0  0  # atno 6907 bound_to 6896
  151.8095  133.3374  159.3559 H   0  0  0  0  0  0  0  0  0  0  0  0  # atno 6908 bound_to 6896
  150.7283  134.5607  159.5885 H   0  0  0  0  0  0  0  0  0  0  0  0  # atno 6909 bound_to 6896
  144.7596  139.8163  143.6337 H   0  0  0  0  0  0  0  0  0  0  0  0  # atno 7974 bound_to 7965
  155.3456  140.0474  157.3045 H   0  0  0  0  0  0  0  0  0  0  0  0  # atno 8008 bound_to 7997
  154.5254  140.2239  155.8864 H   0  0  0  0  0  0  0  0  0  0  0  0  # atno 8009 bound_to 7997
  156.1734  140.3090  155.9021 H   0  0  0  0  0  0  0  0  0  0  0  0  # atno 8010 bound_to 7997
  140.6026  143.8572  150.6981 H   0  0  0  0  0  0  0  0  0  0  0  0  # atno 10167 bound_to 10162
  156.3621  130.4325  149.7615 H   0  0  0  0  0  0  0  0  0  0  0  0  # atno 10718 bound_to 10713
  154.5168  135.2791  155.1296 H   0  0  0  0  0  0  0  0  0  0  0  0  # atno 10763 bound_to 10752
  154.2870  135.6274  153.5373 H   0  0  0  0  0  0  0  0  0  0  0  0  # atno 10764 bound_to 10752
  152.9929  135.5665  154.5647 H   0  0  0  0  0  0  0  0  0  0  0  0  # atno 10765 bound_to 10752
  140.2112  134.8266  157.3123 H   0  0  0  0  0  0  0  0  0  0  0  0  # atno 11005 bound_to 11000
  146.1644  139.4771  142.9967 LP  0  0  0  0  0  0  0  0  0  0  0  0  # atno 17320 bound_to 7965
  145.6664  141.0228  143.1681 LP  0  0  0  0  0  0  0  0  0  0  0  0  # atno 17321 bound_to 7965
  140.2122  143.3874  152.1709 LP  0  0  0  0  0  0  0  0  0  0  0  0  # atno 17342 bound_to 10162
  139.5302  144.7150  151.5083 LP  0  0  0  0  0  0  0  0  0  0  0  0  # atno 17343 bound_to 10162
  156.4775  130.8025  151.3041 LP  0  0  0  0  0  0  0  0  0  0  0  0  # atno 17370 bound_to 10713
  157.7474  131.0016  150.2970 LP  0  0  0  0  0  0  0  0  0  0  0  0  # atno 17371 bound_to 10713
  140.1949  134.4326  155.7695 LP  0  0  0  0  0  0  0  0  0  0  0  0  # atno 17394 bound_to 11000
  141.2226  133.7044  156.8087 LP  0  0  0  0  0  0  0  0  0  0  0  0  # atno 17395 bound_to 11000

$$$$
