AV-unprocessed.smi:2090|AV-procd|sdf|8536|dock4
  -GOLD-   2272011253D 1   1.00000     0.00000
 Structure written by MMmdl.
 41 42  0  0  0  0  0  0  0  0  3 V2000
  150.9912  142.2033  157.5333 C   0  0  0  0  0  0  0  0  0  0  0  0
  150.5198  141.4910  156.3120 C   0  0  0  0  0  0  0  0  0  0  0  0
  149.3432  141.5157  155.6178 C   0  0  0  0  0  0  0  0  0  0  0  0
  149.5751  140.5968  154.5596 C   0  0  0  0  0  0  0  0  0  0  0  0
  148.5682  140.3378  153.5921 N   0  0  0  0  0  0  0  0  0  0  0  0
  147.2546  140.6238  153.6464 C   0  0  0  0  0  0  0  0  0  0  0  0
  146.7785  141.1893  154.6383 O   0  0  0  0  0  0  0  0  0  0  0  0
  146.5907  140.2173  152.5287 N   0  5  0  0  0  0  0  0  0  0  0  0
  146.6841  138.8798  151.9452 C   0  0  0  0  0  0  0  0  0  0  0  0
  146.2171  137.8199  152.9636 C   0  0  0  0  0  0  0  0  0  0  0  0
  146.2974  136.4444  152.4054 N   0  3  2  0  0  0  0  0  0  0  0  0
  145.2421  136.1525  151.3955 C   0  0  0  0  0  0  0  0  0  0  0  0
  145.4627  134.7772  150.7445 C   0  0  0  0  0  0  0  0  0  0  0  0
  145.5119  133.6621  151.8024 C   0  0  1  0  0  0  0  0  0  0  0  0
  145.7576  132.2860  151.1680 C   0  0  0  0  0  0  0  0  0  0  0  0
  146.5829  134.0062  152.8508 C   0  0  0  0  0  0  0  0  0  0  0  0
  146.3433  135.3980  153.4597 C   0  0  0  0  0  0  0  0  0  0  0  0
  150.7852  140.0591  154.6060 N   0  0  0  0  0  0  0  0  0  0  0  0
  151.3961  140.6285  155.7294 O   0  0  0  0  0  0  0  0  0  0  0  0
  150.4353  143.1292  157.6817 H   0  0  0  0  0  0  0  0  0  0  0  0
  152.0490  142.4544  157.4532 H   0  0  0  0  0  0  0  0  0  0  0  0
  150.8562  141.5813  158.4183 H   0  0  0  0  0  0  0  0  0  0  0  0
  148.4599  142.0985  155.8327 H   0  0  0  0  0  0  0  0  0  0  0  0
  148.8809  139.8764  152.7506 H   0  0  0  0  0  0  0  0  0  0  0  0
  146.0934  138.7889  151.0329 H   0  0  0  0  0  0  0  0  0  0  0  0
  147.7081  138.6516  151.6489 H   0  0  0  0  0  0  0  0  0  0  0  0
  146.8515  137.9013  153.8476 H   0  0  0  0  0  0  0  0  0  0  0  0
  145.2009  138.0210  153.3071 H   0  0  0  0  0  0  0  0  0  0  0  0
  144.2610  136.1877  151.8720 H   0  0  0  0  0  0  0  0  0  0  0  0
  145.2409  136.9192  150.6197 H   0  0  0  0  0  0  0  0  0  0  0  0
  144.6639  134.5788  150.0293 H   0  0  0  0  0  0  0  0  0  0  0  0
  146.3924  134.7902  150.1737 H   0  0  0  0  0  0  0  0  0  0  0  0
  144.5441  133.6270  152.3049 H   0  0  0  0  0  0  0  0  0  0  0  0
  146.7117  132.2552  150.6408 H   0  0  0  0  0  0  0  0  0  0  0  0
  144.9736  132.0393  150.4515 H   0  0  0  0  0  0  0  0  0  0  0  0
  145.7698  131.5016  151.9252 H   0  0  0  0  0  0  0  0  0  0  0  0
  146.5862  133.2561  153.6426 H   0  0  0  0  0  0  0  0  0  0  0  0
  147.5728  133.9760  152.3927 H   0  0  0  0  0  0  0  0  0  0  0  0
  147.1464  135.6203  154.1637 H   0  0  0  0  0  0  0  0  0  0  0  0
  145.4105  135.4091  154.0262 H   0  0  0  0  0  0  0  0  0  0  0  0
  147.1852  136.3966  151.9260 H   0  0  0  0  0  0  0  0  0  0  0  0
  1  2  1  0  0  0  0
  1 20  1  0  0  0  0
  1 21  1  0  0  0  0
  1 22  1  0  0  0  0
  2 19  1  0  0  0  0
  2  3  2  0  0  0  0
  3  4  1  0  0  0  0
  3 23  1  0  0  0  0
  4  5  1  0  0  0  0
  4 18  2  0  0  0  0
  5  6  1  0  0  0  0
  5 24  1  0  0  0  0
  6  7  2  0  0  0  0
  6  8  1  0  0  0  0
  8  9  1  0  0  0  0
  9 10  1  0  0  0  0
  9 25  1  0  0  0  0
  9 26  1  0  0  0  0
 10 11  1  0  0  0  0
 10 27  1  0  0  0  0
 10 28  1  0  0  0  0
 11 17  1  0  0  0  0
 11 12  1  0  0  0  0
 11 41  1  0  0  0  0
 12 13  1  0  0  0  0
 12 29  1  0  0  0  0
 12 30  1  0  0  0  0
 13 14  1  0  0  0  0
 13 31  1  0  0  0  0
 13 32  1  0  0  0  0
 14 15  1  0  0  0  0
 14 16  1  0  0  0  0
 14 33  1  0  0  0  0
 15 34  1  0  0  0  0
 15 35  1  0  0  0  0
 15 36  1  0  0  0  0
 16 17  1  0  0  0  0
 16 37  1  0  0  0  0
 16 38  1  0  0  0  0
 17 39  1  0  0  0  0
 17 40  1  0  0  0  0
 18 19  1  0  0  0  0
M  CHG  1   8  -1
M  CHG  1  11   1
M  END
> <s_m_source_file>
AV-unprocessed.smi

> <i_m_source_file_index>
2090

> <i_lp_mmshare_version>
43012

> <i_f3d_flags>
0

> <s_epik_input>
W0NIM11jMVtjSF1jKG5vMSlbTkhdQyg9TylbTkhdW0NIMl1bQ0gyXU4yW0NIMl1bQ0gyXVtDSF0oW0NIM10pW0NIMl1bQ0gyXTI=

> <s_epik_cmdline>
J2VwaWtfcHl0aG9uJywgJy1waCcsICc3LjAnLCAnLXRuJywgJzgnLCAnLW1hJywgJzIwMCcsICctbWV0YWxfYmluZGluZycsICctaW1hZScsICc8aW5maWxlLm1hZT4nLCAnLW9tYWUnLCAnPG91dGZpbGUubWFlPic=

> <r_epik_Ionization_Penalty>
6.7721

> <r_epik_Ionization_Penalty_Charging>
6.7721

> <r_epik_Ionization_Penalty_Neutral>
5.78572e-06

> <r_epik_State_Penalty>
6.79704

> <r_epik_Charging_Adjusted_Penalty>
13.5691

> <i_epik_Tot_Q>
0

> <i_epik_Tot_abs_Q>
2

> <r_epik_Metal_State_Penalty>
2.73105

> <b_epik_Metal_Only>
1

> <s_lp_Force_Field>
OPLS_2005

> <r_lp_Energy>
11.0836

> <b_lp_Chiralities_Consistent>
1

> <s_lp_Variant>
AV-unprocessed.smi:2090-5

> <Gold.Version>
5.8.1

> <Gold.Id.Protein>
6NUR|6NUR_protein|mol2

> <Gold.PLP.Fitness>
43.6221

> <Gold.PLP.PLP>
-33.4729

> <Gold.PLP.part.hbond>
-4.0000

> <Gold.PLP.part.metal>
0.0000

> <Gold.PLP.part.buried>
-1.4988

> <Gold.PLP.part.nonpolar>
-29.5890

> <Gold.PLP.part.repulsive>
1.3898

> <Gold.PLP.ligand.clash>
0.0000

> <Gold.PLP.ligand.torsion>
0.6423

> <Gold.PLP.Chemscore.Hbond>
3.7960

> <Gold.PLP.Chemscore.CHOScore>
0.0000

> <Gold.PLP.Chemscore.Metal>
0.0000

> <Gold.Chemscore.Hbonds>
donor molecule, donor type, donor heavy atom, donor atom, acceptor molecule, acceptor atom, score
      L1  H     5    24       P1  7957  0.94
      L1  H    11    41       P1  7948  2.00
      P1  H  7989  7998       L1    18  0.85

> <Gold.PLP.Chemscore.Internal.Correction>
0.0459

> <Gold.Rescore>
     Score         DG    S(hbond)    S(metal)    S(lipo)     H(rot)  DE(clash)    DE(int)     intcor
     15.69     -17.87       2.77        0.00      60.60       1.54       0.13       2.05       ----

> <Gold.Chemscore.Fitness>
15.6908

> <Gold.Chemscore.DG>
-17.8693

> <Gold.Chemscore.ZeroCoef>
-5.4800

> <Gold.Chemscore.Hbond>
2.7675

> <Gold.Chemscore.Metal>
0.0000

> <Gold.Chemscore.Lipo>
60.6027

> <Gold.Chemscore.Internal_Hbond>
0.0000

> <Gold.Chemscore.DEClash>
0.1295

> <Gold.Chemscore.DEInternal>
2.0491

> <Gold.Chemscore.Rot>
1.5409

> <Gold.Chemscore.Internal.Correction>
   9.000000E+99

> <Gold.Chemscore.Hbonds>
donor molecule, donor type, donor heavy atom, donor atom, acceptor molecule, acceptor atom, score
      L1  H     5    24       P1  7957  0.91
      L1  H    11    41       P1  7948  0.98
      P1  H  7989  7998       L1    18  0.06

> <Gold.Chemscore.Hbond.Weighted>
-9.2435

> <Gold.Chemscore.Metal.Weighted>
-0.0000

> <Gold.Chemscore.Lipo.Weighted>
-7.0905

> <Gold.Chemscore.Internal_Hbond.Weighted>
0.0000

> <Gold.Chemscore.DEClash.Weighted>
0.1295

> <Gold.Chemscore.DEInternal.Weighted>
2.0491

> <Gold.Chemscore.Rot.Weighted>
3.9446

> <Gold.Chemscore.Internal.Correction.Weighted>
   9.000000E+99

> <Gold.Protein.RotatedTorsions>
[ 6907 6896 6895 6894 ] final  113.66 input  -60.11 | X-H torsion
[ 7974 7965 7964 7962 ] final   16.25 input  175.53 | X-H torsion
[ 8008 7997 7996 7995 ] final -120.98 input   59.86 | X-H torsion
[ 10167 10162 10161 10158 ] final   19.92 input  -65.29 | X-H torsion
[ 10718 10713 10712 10709 ] final   71.26 input   66.30 | X-H torsion
[ 10763 10752 10751 10750 ] final   90.54 input  -60.55 | X-H torsion
[ 11005 11000 10999 10996 ] final   66.67 input  -57.11 | X-H torsion

> <Gold.Protein.ActiveResidues>
 VAL166  LYS551  ARG553  GLY616  TRP617  ASP618  TYR619  PRO620  LYS621  CYS622 
 ASP623  PHE694  ASN695  SER759  ASP760  ASP761  ALA762  ILE779  LEU786  VAL792 
 PHE793  MET794  SER795  GLU796  ALA797  LYS798  CYS799  TRP800  GLU811  SER814 

> <Gold.Protein.RotatedAtoms>
  152.4848  133.8344  159.7119 H   0  0  0  0  0  0  0  0  0  0  0  0  # atno 6907 bound_to 6896
  150.8925  133.7215  159.2907 H   0  0  0  0  0  0  0  0  0  0  0  0  # atno 6908 bound_to 6896
  151.4683  135.1047  159.9796 H   0  0  0  0  0  0  0  0  0  0  0  0  # atno 6909 bound_to 6896
  146.2255  139.8775  142.8576 H   0  0  0  0  0  0  0  0  0  0  0  0  # atno 7974 bound_to 7965
  155.1405  140.0402  157.2797 H   0  0  0  0  0  0  0  0  0  0  0  0  # atno 8008 bound_to 7997
  154.6476  140.2561  155.7224 H   0  0  0  0  0  0  0  0  0  0  0  0  # atno 8009 bound_to 7997
  156.2562  140.2843  156.0896 H   0  0  0  0  0  0  0  0  0  0  0  0  # atno 8010 bound_to 7997
  140.5543  143.9453  150.6598 H   0  0  0  0  0  0  0  0  0  0  0  0  # atno 10167 bound_to 10162
  157.6442  130.9519  150.0764 H   0  0  0  0  0  0  0  0  0  0  0  0  # atno 10718 bound_to 10713
  153.1987  135.4430  155.0240 H   0  0  0  0  0  0  0  0  0  0  0  0  # atno 10763 bound_to 10752
  154.8134  135.3304  154.7246 H   0  0  0  0  0  0  0  0  0  0  0  0  # atno 10764 bound_to 10752
  153.7693  135.6986  153.4965 H   0  0  0  0  0  0  0  0  0  0  0  0  # atno 10765 bound_to 10752
  139.9817  134.6733  156.0250 H   0  0  0  0  0  0  0  0  0  0  0  0  # atno 11005 bound_to 11000
  145.2545  141.0056  143.3862 LP  0  0  0  0  0  0  0  0  0  0  0  0  # atno 17320 bound_to 7965
  144.9347  139.4257  143.6478 LP  0  0  0  0  0  0  0  0  0  0  0  0  # atno 17321 bound_to 7965
  140.2887  143.3339  152.1083 LP  0  0  0  0  0  0  0  0  0  0  0  0  # atno 17342 bound_to 10162
  139.5041  144.6768  151.6108 LP  0  0  0  0  0  0  0  0  0  0  0  0  # atno 17343 bound_to 10162
  156.1753  130.3648  149.9109 LP  0  0  0  0  0  0  0  0  0  0  0  0  # atno 17370 bound_to 10713
  156.7074  130.8957  151.3606 LP  0  0  0  0  0  0  0  0  0  0  0  0  # atno 17371 bound_to 10713
  141.1488  133.6551  156.3950 LP  0  0  0  0  0  0  0  0  0  0  0  0  # atno 17394 bound_to 11000
  140.5083  134.6420  157.5274 LP  0  0  0  0  0  0  0  0  0  0  0  0  # atno 17395 bound_to 11000

$$$$
