AV-unprocessed.smi:767|AV-procd|sdf|3664|dock3
  -GOLD-   22720 1 73D 1   1.00000     0.00000
 Structure written by MMmdl.
 47 49  0  0  0  0  0  0  0  0  1 V2000
  145.5604  130.0824  151.8224 C   0  0  0  0  0  0  0  0  0  0  0  0
  145.3646  131.5510  151.5103 C   0  0  0  0  0  0  0  0  0  0  0  0
  144.1411  132.0186  150.9875 C   0  0  0  0  0  0  0  0  0  0  0  0
  144.0036  133.3965  150.7327 C   0  0  0  0  0  0  0  0  0  0  0  0
  145.0924  134.2509  151.0032 C   0  0  0  0  0  0  0  0  0  0  0  0
  144.9843  135.7500  150.7774 C   0  0  0  0  0  0  0  0  0  0  0  0
  145.0209  136.5827  152.0744 C   0  0  0  0  0  0  0  0  0  0  0  0
  146.3809  136.7714  152.5762 N   0  0  0  0  0  0  0  0  0  0  0  0
  146.7097  137.4634  153.6772 C   0  0  0  0  0  0  0  0  0  0  0  0
  145.8927  137.9951  154.4295 O   0  0  0  0  0  0  0  0  0  0  0  0
  148.0357  137.5302  153.8513 N   0  0  0  0  0  0  0  0  0  0  0  0
  148.6721  138.2938  154.9179 C   0  0  1  0  0  0  0  0  0  0  0  0
  150.1580  138.5472  154.6684 C   0  0  2  0  0  0  0  0  0  0  0  0
  151.4170  138.1089  155.3273 C   0  0  0  0  0  0  0  0  0  0  0  0
  152.1151  139.4935  155.3979 C   0  0  0  0  0  0  0  0  0  0  0  0
  151.1039  140.4677  155.0416 O   0  0  0  0  0  0  0  0  0  0  0  0
  149.8920  139.8436  155.4123 C   0  0  1  0  0  0  0  0  0  0  0  0
  148.4944  139.8515  154.7612 C   0  0  0  0  0  0  0  0  0  0  0  0
  148.3643  140.4699  153.3545 C   0  0  0  0  0  0  0  0  0  0  0  0
  147.3711  140.4617  155.6004 C   0  0  0  0  0  0  0  0  0  0  0  0
  146.2791  133.6782  151.5091 C   0  0  0  0  0  0  0  0  0  0  0  0
  146.4178  132.3591  151.7621 N   0  0  0  0  0  0  0  0  0  0  0  0
  144.6026  129.5899  151.9932 H   0  0  0  0  0  0  0  0  0  0  0  0
  146.1693  129.9527  152.7180 H   0  0  0  0  0  0  0  0  0  0  0  0
  146.0592  129.5846  150.9906 H   0  0  0  0  0  0  0  0  0  0  0  0
  143.3215  131.3414  150.7973 H   0  0  0  0  0  0  0  0  0  0  0  0
  143.0738  133.7878  150.3468 H   0  0  0  0  0  0  0  0  0  0  0  0
  145.7958  136.0620  150.1193 H   0  0  0  0  0  0  0  0  0  0  0  0
  144.0601  135.9618  150.2384 H   0  0  0  0  0  0  0  0  0  0  0  0
  144.5366  137.5466  151.9099 H   0  0  0  0  0  0  0  0  0  0  0  0
  144.4361  136.0821  152.8462 H   0  0  0  0  0  0  0  0  0  0  0  0
  147.1272  136.3717  152.0263 H   0  0  0  0  0  0  0  0  0  0  0  0
  148.6386  137.0653  153.1887 H   0  0  0  0  0  0  0  0  0  0  0  0
  148.4668  137.9165  155.9242 H   0  0  0  0  0  0  0  0  0  0  0  0
  150.3447  138.6917  153.6019 H   0  0  0  0  0  0  0  0  0  0  0  0
  151.2353  137.6906  156.3183 H   0  0  0  0  0  0  0  0  0  0  0  0
  151.9774  137.3873  154.7326 H   0  0  0  0  0  0  0  0  0  0  0  0
  152.4927  139.6863  156.4028 H   0  0  0  0  0  0  0  0  0  0  0  0
  152.9515  139.5649  154.7021 H   0  0  0  0  0  0  0  0  0  0  0  0
  149.8354  139.7274  156.5009 H   0  0  0  0  0  0  0  0  0  0  0  0
  148.3920  141.5589  153.3990 H   0  0  0  0  0  0  0  0  0  0  0  0
  147.4203  140.1906  152.8888 H   0  0  0  0  0  0  0  0  0  0  0  0
  149.1536  140.1714  152.6671 H   0  0  0  0  0  0  0  0  0  0  0  0
  147.4709  141.5446  155.6797 H   0  0  0  0  0  0  0  0  0  0  0  0
  147.3672  140.0629  156.6149 H   0  0  0  0  0  0  0  0  0  0  0  0
  146.3914  140.2510  155.1701 H   0  0  0  0  0  0  0  0  0  0  0  0
  147.1348  134.2977  151.7337 H   0  0  0  0  0  0  0  0  0  0  0  0
  1  2  1  0  0  0  0
  1 23  1  0  0  0  0
  1 24  1  0  0  0  0
  1 25  1  0  0  0  0
  2 22  1  0  0  0  0
  2  3  2  0  0  0  0
  3  4  1  0  0  0  0
  3 26  1  0  0  0  0
  4  5  2  0  0  0  0
  4 27  1  0  0  0  0
  5  6  1  0  0  0  0
  5 21  1  0  0  0  0
  6  7  1  0  0  0  0
  6 28  1  0  0  0  0
  6 29  1  0  0  0  0
  7  8  1  0  0  0  0
  7 30  1  0  0  0  0
  7 31  1  0  0  0  0
  8  9  1  0  0  0  0
  8 32  1  0  0  0  0
  9 10  2  0  0  0  0
  9 11  1  0  0  0  0
 11 12  1  0  0  0  0
 11 33  1  0  0  0  0
 12 18  1  0  0  0  0
 12 13  1  0  0  0  0
 12 34  1  0  0  0  0
 13 17  1  0  0  0  0
 13 14  1  0  0  0  0
 13 35  1  0  0  0  0
 14 15  1  0  0  0  0
 14 36  1  0  0  0  0
 14 37  1  0  0  0  0
 15 16  1  0  0  0  0
 15 38  1  0  0  0  0
 15 39  1  0  0  0  0
 16 17  1  0  0  0  0
 17 18  1  0  0  0  0
 17 40  1  0  0  0  0
 18 19  1  0  0  0  0
 18 20  1  0  0  0  0
 19 41  1  0  0  0  0
 19 42  1  0  0  0  0
 19 43  1  0  0  0  0
 20 44  1  0  0  0  0
 20 45  1  0  0  0  0
 20 46  1  0  0  0  0
 21 22  2  0  0  0  0
 21 47  1  0  0  0  0
M  END
> <s_m_source_file>
AV-unprocessed.smi

> <i_m_source_file_index>
767

> <i_lp_mmshare_version>
43012

> <i_f3d_flags>
0

> <s_epik_input>
W0NIM11jMVtjSF1bY0hdYyhbY0hdbjEpW0NIMl1bQ0gyXVtOSF1DKD1PKVtOSF1bQ0BIXTJDKFtDSDNdKShbQ0gzXSlbQ0BIXShbQ0BASF0yMylPW0NIMl1bQ0gyXTM=

> <s_epik_cmdline>
J2VwaWtfcHl0aG9uJywgJy1waCcsICc3LjAnLCAnLXRuJywgJzgnLCAnLW1hJywgJzIwMCcsICctbWV0YWxfYmluZGluZycsICctaW1hZScsICc8aW5maWxlLm1hZT4nLCAnLW9tYWUnLCAnPG91dGZpbGUubWFlPic=

> <r_epik_Ionization_Penalty>
0.0567523

> <r_epik_Ionization_Penalty_Charging>
0

> <r_epik_Ionization_Penalty_Neutral>
0.0567523

> <r_epik_State_Penalty>
0.0489186

> <r_epik_Charging_Adjusted_Penalty>
0.0489186

> <i_epik_Tot_Q>
0

> <i_epik_Tot_abs_Q>
0

> <r_epik_Metal_State_Penalty>
0.044622

> <b_epik_Metal_Only>
0

> <s_lp_Force_Field>
OPLS_2005

> <r_lp_Energy>
55.1366

> <b_lp_Chiralities_Consistent>
1

> <s_lp_Variant>
AV-unprocessed.smi:767-8

> <Gold.Version>
5.8.1

> <Gold.Id.Protein>
6NUR|6NUR_protein|mol2

> <Gold.PLP.Fitness>
47.0421

> <Gold.PLP.PLP>
-35.5878

> <Gold.PLP.part.hbond>
-2.8537

> <Gold.PLP.part.metal>
0.0000

> <Gold.PLP.part.buried>
-0.6036

> <Gold.PLP.part.nonpolar>
-32.4020

> <Gold.PLP.part.repulsive>
0.3133

> <Gold.PLP.ligand.clash>
0.0000

> <Gold.PLP.ligand.torsion>
0.2837

> <Gold.PLP.Chemscore.Hbond>
2.9120

> <Gold.PLP.Chemscore.CHOScore>
1.0000

> <Gold.PLP.Chemscore.Metal>
0.0000

> <Gold.Chemscore.Hbonds>
donor molecule, donor type, donor heavy atom, donor atom, acceptor molecule, acceptor atom, score
      L1  H     8    32       P1  7948  0.91
      L1  H    11    33       P1  7948  1.00
      P1  H  7989  7998       L1    16  1.00
      L1  C    21    47       P1  7948  0.82

> <Gold.PLP.Chemscore.Internal.Correction>
0.2857

> <Gold.Rescore>
     Score         DG    S(hbond)    S(metal)    S(lipo)     H(rot)  DE(clash)    DE(int)     intcor
     20.83     -23.36       2.72        0.00     107.03       1.45       2.28       0.25       ----

> <Gold.Chemscore.Fitness>
20.8259

> <Gold.Chemscore.DG>
-23.3619

> <Gold.Chemscore.ZeroCoef>
-5.4800

> <Gold.Chemscore.Hbond>
2.7157

> <Gold.Chemscore.Metal>
0.0000

> <Gold.Chemscore.Lipo>
107.0317

> <Gold.Chemscore.Internal_Hbond>
0.0000

> <Gold.Chemscore.DEClash>
2.2844

> <Gold.Chemscore.DEInternal>
0.2516

> <Gold.Chemscore.Rot>
1.4497

> <Gold.Chemscore.Internal.Correction>
   9.000000E+99

> <Gold.Chemscore.Hbonds>
donor molecule, donor type, donor heavy atom, donor atom, acceptor molecule, acceptor atom, score
      L1  H     8    32       P1  7948  0.90
      L1  H    11    33       P1  7948  0.97
      P1  H  7989  7998       L1    16  0.24

> <Gold.Chemscore.Hbond.Weighted>
-9.0705

> <Gold.Chemscore.Metal.Weighted>
-0.0000

> <Gold.Chemscore.Lipo.Weighted>
-12.5227

> <Gold.Chemscore.Internal_Hbond.Weighted>
0.0000

> <Gold.Chemscore.DEClash.Weighted>
2.2844

> <Gold.Chemscore.DEInternal.Weighted>
0.2516

> <Gold.Chemscore.Rot.Weighted>
3.7112

> <Gold.Chemscore.Internal.Correction.Weighted>
   9.000000E+99

> <Gold.Protein.RotatedTorsions>
[ 6907 6896 6895 6894 ] final  -82.82 input  -60.11 | X-H torsion
[ 7974 7965 7964 7962 ] final  158.10 input  175.53 | X-H torsion
[ 8008 7997 7996 7995 ] final  111.61 input   59.86 | X-H torsion
[ 10167 10162 10161 10158 ] final  -15.77 input  -65.29 | X-H torsion
[ 10718 10713 10712 10709 ] final   43.11 input   66.30 | X-H torsion
[ 10763 10752 10751 10750 ] final  -96.24 input  -60.55 | X-H torsion
[ 11005 11000 10999 10996 ] final -132.59 input  -57.11 | X-H torsion

> <Gold.Protein.ActiveResidues>
 VAL166  LYS551  ARG553  GLY616  TRP617  ASP618  TYR619  PRO620  LYS621  CYS622 
 ASP623  PHE694  ASN695  SER759  ASP760  ASP761  ALA762  ILE779  LEU786  VAL792 
 PHE793  MET794  SER795  GLU796  ALA797  LYS798  CYS799  TRP800  GLU811  SER814 

> <Gold.Protein.RotatedAtoms>
  150.6892  134.3607  159.4948 H   0  0  0  0  0  0  0  0  0  0  0  0  # atno 6907 bound_to 6896
  152.1436  134.9040  160.0561 H   0  0  0  0  0  0  0  0  0  0  0  0  # atno 6908 bound_to 6896
  152.0165  133.3847  159.4277 H   0  0  0  0  0  0  0  0  0  0  0  0  # atno 6909 bound_to 6896
  144.7865  139.7432  143.6239 H   0  0  0  0  0  0  0  0  0  0  0  0  # atno 7974 bound_to 7965
  156.2135  140.3016  155.9787 H   0  0  0  0  0  0  0  0  0  0  0  0  # atno 8008 bound_to 7997
  155.2663  140.0432  157.3019 H   0  0  0  0  0  0  0  0  0  0  0  0  # atno 8009 bound_to 7997
  154.5734  140.2355  155.8166 H   0  0  0  0  0  0  0  0  0  0  0  0  # atno 8010 bound_to 7997
  140.7223  143.5185  150.9663 H   0  0  0  0  0  0  0  0  0  0  0  0  # atno 10167 bound_to 10162
  157.4122  130.7921  149.7441 H   0  0  0  0  0  0  0  0  0  0  0  0  # atno 10718 bound_to 10713
  154.7221  135.5091  153.8828 H   0  0  0  0  0  0  0  0  0  0  0  0  # atno 10763 bound_to 10752
  153.0872  135.6649  153.9935 H   0  0  0  0  0  0  0  0  0  0  0  0  # atno 10764 bound_to 10752
  153.9755  135.3034  155.3403 H   0  0  0  0  0  0  0  0  0  0  0  0  # atno 10765 bound_to 10752
  140.9156  134.1511  157.4355 H   0  0  0  0  0  0  0  0  0  0  0  0  # atno 11005 bound_to 11000
  146.2099  139.5448  142.9688 LP  0  0  0  0  0  0  0  0  0  0  0  0  # atno 17320 bound_to 7965
  145.5908  141.0370  143.2071 LP  0  0  0  0  0  0  0  0  0  0  0  0  # atno 17321 bound_to 7965
  139.8901  143.6964  152.3146 LP  0  0  0  0  0  0  0  0  0  0  0  0  # atno 17342 bound_to 10162
  139.7277  144.7589  151.0853 LP  0  0  0  0  0  0  0  0  0  0  0  0  # atno 17343 bound_to 10162
  155.9854  130.3983  150.3263 LP  0  0  0  0  0  0  0  0  0  0  0  0  # atno 17370 bound_to 10713
  157.1402  131.0294  151.2931 LP  0  0  0  0  0  0  0  0  0  0  0  0  # atno 17371 bound_to 10713
  139.8765  134.9952  156.5733 LP  0  0  0  0  0  0  0  0  0  0  0  0  # atno 17394 bound_to 11000
  140.8054  133.8472  155.8763 LP  0  0  0  0  0  0  0  0  0  0  0  0  # atno 17395 bound_to 11000

$$$$
