AV-unprocessed.smi:1958|AV-procd|sdf|7910|dock1
  -GOLD-   2272010 73D 1   1.00000     0.00000
 Structure written by MMmdl.
 47 48  0  0  0  0  0  0  0  0  3 V2000
  153.1893  131.0075  159.3873 C   0  0  0  0  0  0  0  0  0  0  0  0
  153.0904  132.1172  158.5123 O   0  0  0  0  0  0  0  0  0  0  0  0
  153.2851  131.7579  157.1547 C   0  0  0  0  0  0  0  0  0  0  0  0
  152.1206  130.8609  156.7094 C   0  0  0  0  0  0  0  0  0  0  0  0
  151.1988  131.5706  155.8168 N   0  0  0  0  0  0  0  0  0  0  0  0
  151.1464  132.9371  156.0313 N   0  0  0  0  0  0  0  0  0  0  0  0
  150.3542  133.6803  155.3273 C   0  0  0  0  0  0  0  0  0  0  0  0
  150.2555  135.1538  155.5670 C   0  0  0  0  0  0  0  0  0  0  0  0
  149.1663  135.6784  155.3028 O   0  0  0  0  0  0  0  0  0  0  0  0
  151.3529  135.7941  156.0723 N   0  5  0  0  0  0  0  0  0  0  0  0
  151.3927  137.1855  156.5316 C   0  0  0  0  0  0  0  0  0  0  0  0
  151.1435  138.1629  155.3514 C   0  0  2  0  0  0  0  0  0  0  0  0
  152.4175  138.5308  154.5510 C   0  0  0  0  0  0  0  0  0  0  0  0
  150.3305  139.3428  155.7907 N   0  3  0  0  0  0  0  0  0  0  0  0
  151.0206  140.3559  156.6360 C   0  0  0  0  0  0  0  0  0  0  0  0
  150.0036  141.3802  157.1592 C   0  0  0  0  0  0  0  0  0  0  0  0
  149.3553  142.0036  156.0568 O   0  0  0  0  0  0  0  0  0  0  0  0
  148.6329  141.0690  155.2638 C   0  0  0  0  0  0  0  0  0  0  0  0
  149.5930  140.0114  154.6912 C   0  0  0  0  0  0  0  0  0  0  0  0
  149.5174  133.0932  154.2903 C   0  0  0  0  0  0  0  0  0  0  0  0
  149.5875  131.7597  154.0856 C   0  0  0  0  0  0  0  0  0  0  0  0
  150.4705  130.9001  154.8745 C   0  0  0  0  0  0  0  0  0  0  0  0
  150.5504  129.6833  154.7073 O   0  0  0  0  0  0  0  0  0  0  0  0
  153.0375  131.3365  160.4153 H   0  0  0  0  0  0  0  0  0  0  0  0
  154.1733  130.5415  159.3242 H   0  0  0  0  0  0  0  0  0  0  0  0
  152.4311  130.2572  159.1593 H   0  0  0  0  0  0  0  0  0  0  0  0
  153.3279  132.6541  156.5338 H   0  0  0  0  0  0  0  0  0  0  0  0
  154.2352  131.2330  157.0430 H   0  0  0  0  0  0  0  0  0  0  0  0
  152.5054  129.9647  156.2199 H   0  0  0  0  0  0  0  0  0  0  0  0
  151.5840  130.5022  157.5899 H   0  0  0  0  0  0  0  0  0  0  0  0
  150.6480  137.3666  157.3066 H   0  0  0  0  0  0  0  0  0  0  0  0
  152.3482  137.4443  156.9904 H   0  0  0  0  0  0  0  0  0  0  0  0
  150.5289  137.5924  154.6537 H   0  0  0  0  0  0  0  0  0  0  0  0
  152.9052  137.6446  154.1409 H   0  0  0  0  0  0  0  0  0  0  0  0
  153.1596  139.0583  155.1528 H   0  0  0  0  0  0  0  0  0  0  0  0
  152.1692  139.1676  153.7015 H   0  0  0  0  0  0  0  0  0  0  0  0
  151.5171  139.8806  157.4817 H   0  0  0  0  0  0  0  0  0  0  0  0
  151.7889  140.8715  156.0587 H   0  0  0  0  0  0  0  0  0  0  0  0
  149.2704  140.9037  157.8121 H   0  0  0  0  0  0  0  0  0  0  0  0
  150.5093  142.1435  157.7504 H   0  0  0  0  0  0  0  0  0  0  0  0
  147.8508  140.5984  155.8617 H   0  0  0  0  0  0  0  0  0  0  0  0
  148.1360  141.6029  154.4537 H   0  0  0  0  0  0  0  0  0  0  0  0
  150.3022  140.4736  154.0028 H   0  0  0  0  0  0  0  0  0  0  0  0
  149.0204  139.2775  154.1230 H   0  0  0  0  0  0  0  0  0  0  0  0
  148.8575  133.6987  153.6865 H   0  0  0  0  0  0  0  0  0  0  0  0
  148.9745  131.3131  153.3165 H   0  0  0  0  0  0  0  0  0  0  0  0
  149.6186  138.9376  156.3825 H   0  0  0  0  0  0  0  0  0  0  0  0
  1  2  1  0  0  0  0
  1 24  1  0  0  0  0
  1 25  1  0  0  0  0
  1 26  1  0  0  0  0
  2  3  1  0  0  0  0
  3  4  1  0  0  0  0
  3 27  1  0  0  0  0
  3 28  1  0  0  0  0
  4  5  1  0  0  0  0
  4 29  1  0  0  0  0
  4 30  1  0  0  0  0
  5 22  1  0  0  0  0
  5  6  1  0  0  0  0
  6  7  2  0  0  0  0
  7  8  1  0  0  0  0
  7 20  1  0  0  0  0
  8  9  2  0  0  0  0
  8 10  1  0  0  0  0
 10 11  1  0  0  0  0
 11 12  1  0  0  0  0
 11 31  1  0  0  0  0
 11 32  1  0  0  0  0
 12 13  1  0  0  0  0
 12 14  1  0  0  0  0
 12 33  1  0  0  0  0
 13 34  1  0  0  0  0
 13 35  1  0  0  0  0
 13 36  1  0  0  0  0
 14 19  1  0  0  0  0
 14 15  1  0  0  0  0
 14 47  1  0  0  0  0
 15 16  1  0  0  0  0
 15 37  1  0  0  0  0
 15 38  1  0  0  0  0
 16 17  1  0  0  0  0
 16 39  1  0  0  0  0
 16 40  1  0  0  0  0
 17 18  1  0  0  0  0
 18 19  1  0  0  0  0
 18 41  1  0  0  0  0
 18 42  1  0  0  0  0
 19 43  1  0  0  0  0
 19 44  1  0  0  0  0
 20 21  2  0  0  0  0
 20 45  1  0  0  0  0
 21 22  1  0  0  0  0
 21 46  1  0  0  0  0
 22 23  2  0  0  0  0
M  CHG  1  10  -1
M  CHG  1  14   1
M  END
> <s_m_source_file>
AV-unprocessed.smi

> <i_m_source_file_index>
1958

> <i_lp_mmshare_version>
43012

> <i_f3d_flags>
0

> <s_epik_input>
W0NIM11PW0NIMl1bQ0gyXW4xbmMoW2NIXVtjSF1jMT1PKUMoPU8pW05IXVtDSDJdW0NASF0oW0NIM10pTjJbQ0gyXVtDSDJdT1tDSDJdW0NIMl0y

> <s_epik_cmdline>
J2VwaWtfcHl0aG9uJywgJy1waCcsICc3LjAnLCAnLXRuJywgJzgnLCAnLW1hJywgJzIwMCcsICctbWV0YWxfYmluZGluZycsICctaW1hZScsICc8aW5maWxlLm1hZT4nLCAnLW9tYWUnLCAnPG91dGZpbGUubWFlPic=

> <r_lp_tautomer_probability>
1

> <r_epik_Ionization_Penalty>
6.89388

> <r_epik_Ionization_Penalty_Charging>
6.89388

> <r_epik_Ionization_Penalty_Neutral>
1.08445e-11

> <r_epik_State_Penalty>
7.53214

> <r_epik_Charging_Adjusted_Penalty>
14.426

> <i_epik_Tot_Q>
0

> <i_epik_Tot_abs_Q>
2

> <r_epik_Metal_State_Penalty>
3.44743

> <b_epik_Metal_Only>
1

> <s_lp_Force_Field>
OPLS_2005

> <r_lp_Energy>
42.3217

> <b_lp_Chiralities_Consistent>
1

> <s_lp_Variant>
AV-unprocessed.smi:1958-5

> <Gold.Version>
5.8.1

> <Gold.Id.Protein>
6NUR|6NUR_protein|mol2

> <Gold.PLP.Fitness>
39.9810

> <Gold.PLP.PLP>
-33.8763

> <Gold.PLP.part.hbond>
-2.0000

> <Gold.PLP.part.metal>
0.0000

> <Gold.PLP.part.buried>
-4.5699

> <Gold.PLP.part.nonpolar>
-29.0675

> <Gold.PLP.part.repulsive>
2.1448

> <Gold.PLP.ligand.clash>
0.0000

> <Gold.PLP.ligand.torsion>
1.6950

> <Gold.PLP.Chemscore.Hbond>
3.0000

> <Gold.PLP.Chemscore.CHOScore>
0.0000

> <Gold.PLP.Chemscore.Metal>
0.0000

> <Gold.Chemscore.Hbonds>
donor molecule, donor type, donor heavy atom, donor atom, acceptor molecule, acceptor atom, score
      P1  H  6896  6907       L1     2  1.00
      P1  H 10752 10765       L1    10  1.82

> <Gold.PLP.Chemscore.Internal.Correction>
0.4948

> <Gold.Rescore>
     Score         DG    S(hbond)    S(metal)    S(lipo)     H(rot)  DE(clash)    DE(int)     intcor
     11.53     -13.23       1.35        0.00      72.98       2.07       0.05       1.65       ----

> <Gold.Chemscore.Fitness>
11.5268

> <Gold.Chemscore.DG>
-13.2277

> <Gold.Chemscore.ZeroCoef>
-5.4800

> <Gold.Chemscore.Hbond>
1.3478

> <Gold.Chemscore.Metal>
0.0000

> <Gold.Chemscore.Lipo>
72.9785

> <Gold.Chemscore.Internal_Hbond>
0.0000

> <Gold.Chemscore.DEClash>
0.0504

> <Gold.Chemscore.DEInternal>
1.6504

> <Gold.Chemscore.Rot>
2.0673

> <Gold.Chemscore.Internal.Correction>
   9.000000E+99

> <Gold.Chemscore.Hbonds>
donor molecule, donor type, donor heavy atom, donor atom, acceptor molecule, acceptor atom, score
      P1  H  6896  6907       L1     2  0.53
      P1  H 10752 10765       L1    10  0.46

> <Gold.Chemscore.Hbond.Weighted>
-4.5016

> <Gold.Chemscore.Metal.Weighted>
-0.0000

> <Gold.Chemscore.Lipo.Weighted>
-8.5385

> <Gold.Chemscore.Internal_Hbond.Weighted>
0.0000

> <Gold.Chemscore.DEClash.Weighted>
0.0504

> <Gold.Chemscore.DEInternal.Weighted>
1.6504

> <Gold.Chemscore.Rot.Weighted>
5.2923

> <Gold.Chemscore.Internal.Correction.Weighted>
   9.000000E+99

> <Gold.Protein.RotatedTorsions>
[ 6907 6896 6895 6894 ] final  133.16 input  -60.11 | X-H torsion
[ 7974 7965 7964 7962 ] final   97.93 input  175.53 | X-H torsion
[ 8008 7997 7996 7995 ] final  -16.75 input   59.86 | X-H torsion
[ 10167 10162 10161 10158 ] final -151.16 input  -65.29 | X-H torsion
[ 10718 10713 10712 10709 ] final   69.00 input   66.30 | X-H torsion
[ 10763 10752 10751 10750 ] final -155.89 input  -60.55 | X-H torsion
[ 11005 11000 10999 10996 ] final  113.62 input  -57.11 | X-H torsion

> <Gold.Protein.ActiveResidues>
 VAL166  LYS551  ARG553  GLY616  TRP617  ASP618  TYR619  PRO620  LYS621  CYS622 
 ASP623  PHE694  ASN695  SER759  ASP760  ASP761  ALA762  ILE779  LEU786  VAL792 
 PHE793  MET794  SER795  GLU796  ALA797  LYS798  CYS799  TRP800  GLU811  SER814 

> <Gold.Protein.RotatedAtoms>
  152.3248  133.5893  159.5769 H   0  0  0  0  0  0  0  0  0  0  0  0  # atno 6907 bound_to 6896
  150.7391  133.9956  159.3630 H   0  0  0  0  0  0  0  0  0  0  0  0  # atno 6908 bound_to 6896
  151.7837  135.0755  160.0428 H   0  0  0  0  0  0  0  0  0  0  0  0  # atno 6909 bound_to 6896
  145.4190  139.2324  143.3207 H   0  0  0  0  0  0  0  0  0  0  0  0  # atno 7974 bound_to 7965
  154.5030  140.2161  155.9308 H   0  0  0  0  0  0  0  0  0  0  0  0  # atno 8008 bound_to 7997
  156.1458  140.3171  155.8534 H   0  0  0  0  0  0  0  0  0  0  0  0  # atno 8009 bound_to 7997
  155.4034  140.0486  157.3026 H   0  0  0  0  0  0  0  0  0  0  0  0  # atno 8010 bound_to 7997
  139.7292  143.8835  152.2529 H   0  0  0  0  0  0  0  0  0  0  0  0  # atno 10167 bound_to 10162
  157.6321  130.9403  150.0454 H   0  0  0  0  0  0  0  0  0  0  0  0  # atno 10718 bound_to 10713
  154.7753  135.3157  154.8104 H   0  0  0  0  0  0  0  0  0  0  0  0  # atno 10763 bound_to 10752
  153.8829  135.6833  153.4770 H   0  0  0  0  0  0  0  0  0  0  0  0  # atno 10764 bound_to 10752
  153.1376  135.4753  154.9381 H   0  0  0  0  0  0  0  0  0  0  0  0  # atno 10765 bound_to 10752
  139.8958  134.9553  156.6766 H   0  0  0  0  0  0  0  0  0  0  0  0  # atno 11005 bound_to 11000
  146.2666  140.4911  142.8831 LP  0  0  0  0  0  0  0  0  0  0  0  0  # atno 17320 bound_to 7965
  144.8258  140.6626  143.6323 LP  0  0  0  0  0  0  0  0  0  0  0  0  # atno 17321 bound_to 7965
  139.8753  144.7046  150.8940 LP  0  0  0  0  0  0  0  0  0  0  0  0  # atno 17342 bound_to 10162
  140.7768  143.3704  151.1659 LP  0  0  0  0  0  0  0  0  0  0  0  0  # atno 17343 bound_to 10162
  156.1533  130.3643  149.9406 LP  0  0  0  0  0  0  0  0  0  0  0  0  # atno 17370 bound_to 10713
  156.7421  130.9083  151.3633 LP  0  0  0  0  0  0  0  0  0  0  0  0  # atno 17371 bound_to 10713
  140.7332  133.9041  155.8225 LP  0  0  0  0  0  0  0  0  0  0  0  0  # atno 17394 bound_to 11000
  141.0137  134.0985  157.4195 LP  0  0  0  0  0  0  0  0  0  0  0  0  # atno 17395 bound_to 11000

$$$$
