AV-unprocessed.smi:492|AV-procd|sdf|2708|dock2
  -GOLD-   2262023153D 1   1.00000     0.00000
 Structure written by MMmdl.
 46 48  0  0  0  0  0  0  0  0  1 V2000
  144.9232  143.5713  157.9823 C   0  0  0  0  0  0  0  0  0  0  0  0
  144.9401  143.5525  156.5623 O   0  0  0  0  0  0  0  0  0  0  0  0
  145.8996  142.7869  155.9350 C   0  0  0  0  0  0  0  0  0  0  0  0
  146.8298  141.9602  156.6142 C   0  0  0  0  0  0  0  0  0  0  0  0
  147.7786  141.2099  155.8923 C   0  0  0  0  0  0  0  0  0  0  0  0
  147.8105  141.2672  154.4844 C   0  0  0  0  0  0  0  0  0  0  0  0
  148.8458  140.4715  153.7122 C   0  0  0  0  0  0  0  0  0  0  0  0
  150.1492  140.6487  154.2409 O   0  0  0  0  0  0  0  0  0  0  0  0
  150.5592  139.5846  155.0846 C   0  0  0  0  0  0  0  0  0  0  0  0
  151.6623  140.0739  156.0366 C   0  0  2  0  0  0  0  0  0  0  0  0
  152.9121  139.6123  155.5632 O   0  0  0  0  0  0  0  0  0  0  0  0
  151.4230  139.6812  157.5100 C   0  0  0  0  0  0  0  0  0  0  0  0
  152.1259  140.5468  158.4459 N   0  0  0  0  0  0  0  0  0  0  0  0
  153.0207  140.1955  159.4016 C   0  0  0  0  0  0  0  0  0  0  0  0
  153.4266  138.7722  159.6184 C   0  0  0  0  0  0  0  0  0  0  0  0
  153.5162  141.1957  160.1305 N   0  0  0  0  0  0  0  0  0  0  0  0
  152.8845  142.3020  159.5951 C   0  0  0  0  0  0  0  0  0  0  0  0
  152.9837  143.6705  159.9341 C   0  0  0  0  0  0  0  0  0  0  0  0
  152.2309  144.6359  159.2336 C   0  0  0  0  0  0  0  0  0  0  0  0
  151.3689  144.2483  158.1875 C   0  0  0  0  0  0  0  0  0  0  0  0
  151.2540  142.8903  157.8345 C   0  0  0  0  0  0  0  0  0  0  0  0
  152.0084  141.9304  158.5361 C   0  0  0  0  0  0  0  0  0  0  0  0
  146.8941  142.0952  153.8047 C   0  0  0  0  0  0  0  0  0  0  0  0
  145.9461  142.8448  154.5270 C   0  0  0  0  0  0  0  0  0  0  0  0
  144.1146  144.2176  158.3233 H   0  0  0  0  0  0  0  0  0  0  0  0
  145.8550  143.9682  158.3875 H   0  0  0  0  0  0  0  0  0  0  0  0
  144.7450  142.5763  158.3922 H   0  0  0  0  0  0  0  0  0  0  0  0
  146.8375  141.8851  157.6908 H   0  0  0  0  0  0  0  0  0  0  0  0
  148.4825  140.5882  156.4261 H   0  0  0  0  0  0  0  0  0  0  0  0
  148.5676  139.4173  153.7508 H   0  0  0  0  0  0  0  0  0  0  0  0
  148.8321  140.7756  152.6644 H   0  0  0  0  0  0  0  0  0  0  0  0
  149.7133  139.1858  155.6472 H   0  0  0  0  0  0  0  0  0  0  0  0
  150.9480  138.7730  154.4676 H   0  0  0  0  0  0  0  0  0  0  0  0
  151.7019  141.1609  155.9674 H   0  0  0  0  0  0  0  0  0  0  0  0
  152.7787  138.7844  155.1276 H   0  0  0  0  0  0  0  0  0  0  0  0
  150.3573  139.7007  157.7387 H   0  0  0  0  0  0  0  0  0  0  0  0
  151.7492  138.6565  157.6905 H   0  0  0  0  0  0  0  0  0  0  0  0
  154.1472  138.7010  160.4337 H   0  0  0  0  0  0  0  0  0  0  0  0
  153.8891  138.3692  158.7174 H   0  0  0  0  0  0  0  0  0  0  0  0
  152.5597  138.1639  159.8753 H   0  0  0  0  0  0  0  0  0  0  0  0
  153.6405  143.9778  160.7342 H   0  0  0  0  0  0  0  0  0  0  0  0
  152.3146  145.6790  159.5009 H   0  0  0  0  0  0  0  0  0  0  0  0
  150.7952  144.9940  157.6567 H   0  0  0  0  0  0  0  0  0  0  0  0
  150.5929  142.5903  157.0351 H   0  0  0  0  0  0  0  0  0  0  0  0
  146.9133  142.1600  152.7265 H   0  0  0  0  0  0  0  0  0  0  0  0
  145.2474  143.4730  153.9939 H   0  0  0  0  0  0  0  0  0  0  0  0
  1  2  1  0  0  0  0
  1 25  1  0  0  0  0
  1 26  1  0  0  0  0
  1 27  1  0  0  0  0
  2  3  1  0  0  0  0
  3 24  1  0  0  0  0
  3  4  2  0  0  0  0
  4  5  1  0  0  0  0
  4 28  1  0  0  0  0
  5  6  2  0  0  0  0
  5 29  1  0  0  0  0
  6  7  1  0  0  0  0
  6 23  1  0  0  0  0
  7  8  1  0  0  0  0
  7 30  1  0  0  0  0
  7 31  1  0  0  0  0
  8  9  1  0  0  0  0
  9 10  1  0  0  0  0
  9 32  1  0  0  0  0
  9 33  1  0  0  0  0
 10 11  1  0  0  0  0
 10 12  1  0  0  0  0
 10 34  1  0  0  0  0
 11 35  1  0  0  0  0
 12 13  1  0  0  0  0
 12 36  1  0  0  0  0
 12 37  1  0  0  0  0
 13 22  1  0  0  0  0
 13 14  1  0  0  0  0
 14 15  1  0  0  0  0
 14 16  2  0  0  0  0
 15 38  1  0  0  0  0
 15 39  1  0  0  0  0
 15 40  1  0  0  0  0
 16 17  1  0  0  0  0
 17 22  2  0  0  0  0
 17 18  1  0  0  0  0
 18 19  2  0  0  0  0
 18 41  1  0  0  0  0
 19 20  1  0  0  0  0
 19 42  1  0  0  0  0
 20 21  2  0  0  0  0
 20 43  1  0  0  0  0
 21 22  1  0  0  0  0
 21 44  1  0  0  0  0
 23 24  2  0  0  0  0
 23 45  1  0  0  0  0
 24 46  1  0  0  0  0
M  END
> <s_m_source_file>
AV-unprocessed.smi

> <i_m_source_file_index>
492

> <i_lp_mmshare_version>
43012

> <i_f3d_flags>
0

> <s_epik_input>
W0NIM11PYzFbY0hdW2NIXWMoW2NIXVtjSF0xKVtDSDJdT1tDSDJdW0NASF0oW09IXSlbQ0gyXW4oYyhuMilbQ0gzXSljKGMyMylbY0hdW2NIXVtjSF1bY0hdMw==

> <s_epik_cmdline>
J2VwaWtfcHl0aG9uJywgJy1waCcsICc3LjAnLCAnLXRuJywgJzgnLCAnLW1hJywgJzIwMCcsICctbWV0YWxfYmluZGluZycsICctaW1hZScsICc8aW5maWxlLm1hZT4nLCAnLW9tYWUnLCAnPG91dGZpbGUubWFlPic=

> <r_lp_tautomer_probability>
1

> <r_epik_Ionization_Penalty>
0.132603

> <r_epik_Ionization_Penalty_Charging>
0

> <r_epik_Ionization_Penalty_Neutral>
0.132603

> <r_epik_State_Penalty>
0.121982

> <r_epik_Charging_Adjusted_Penalty>
0.121982

> <i_epik_Tot_Q>
0

> <i_epik_Tot_abs_Q>
0

> <r_epik_Metal_State_Penalty>
0.000135431

> <b_epik_Metal_Only>
0

> <s_lp_Force_Field>
OPLS_2005

> <r_lp_Energy>
19.0412

> <b_lp_Chiralities_Consistent>
1

> <s_lp_Variant>
AV-unprocessed.smi:492-1

> <Gold.Version>
5.8.1

> <Gold.Id.Protein>
6NUR|6NUR_protein|mol2

> <Gold.PLP.Fitness>
52.8518

> <Gold.PLP.PLP>
-49.9629

> <Gold.PLP.part.hbond>
-2.0000

> <Gold.PLP.part.metal>
0.0000

> <Gold.PLP.part.buried>
-5.6259

> <Gold.PLP.part.nonpolar>
-43.1917

> <Gold.PLP.part.repulsive>
0.2533

> <Gold.PLP.ligand.clash>
0.0000

> <Gold.PLP.ligand.torsion>
1.3730

> <Gold.PLP.Chemscore.Hbond>
1.8160

> <Gold.PLP.Chemscore.CHOScore>
0.0000

> <Gold.PLP.Chemscore.Metal>
0.0000

> <Gold.Chemscore.Hbonds>
donor molecule, donor type, donor heavy atom, donor atom, acceptor molecule, acceptor atom, score
      P1  H  7989  7998       L1     8  0.69
      P1  H  7997  8010       L1    11  1.00

> <Gold.PLP.Chemscore.Internal.Correction>
0.1869

> <Gold.Rescore>
     Score         DG    S(hbond)    S(metal)    S(lipo)     H(rot)  DE(clash)    DE(int)     intcor
     19.03     -21.03       1.88        0.00     131.77       2.40       0.72       1.28       ----

> <Gold.Chemscore.Fitness>
19.0307

> <Gold.Chemscore.DG>
-21.0289

> <Gold.Chemscore.ZeroCoef>
-5.4800

> <Gold.Chemscore.Hbond>
1.8784

> <Gold.Chemscore.Metal>
0.0000

> <Gold.Chemscore.Lipo>
131.7673

> <Gold.Chemscore.Internal_Hbond>
0.0000

> <Gold.Chemscore.DEClash>
0.7190

> <Gold.Chemscore.DEInternal>
1.2792

> <Gold.Chemscore.Rot>
2.3991

> <Gold.Chemscore.Internal.Correction>
   9.000000E+99

> <Gold.Chemscore.Hbonds>
donor molecule, donor type, donor heavy atom, donor atom, acceptor molecule, acceptor atom, score
      P1  H  7989  7998       L1     8  0.14
      P1  H  7997  8010       L1    11  0.98

> <Gold.Chemscore.Hbond.Weighted>
-6.2739

> <Gold.Chemscore.Metal.Weighted>
-0.0000

> <Gold.Chemscore.Lipo.Weighted>
-15.4168

> <Gold.Chemscore.Internal_Hbond.Weighted>
0.0000

> <Gold.Chemscore.DEClash.Weighted>
0.7190

> <Gold.Chemscore.DEInternal.Weighted>
1.2792

> <Gold.Chemscore.Rot.Weighted>
6.1417

> <Gold.Chemscore.Internal.Correction.Weighted>
   9.000000E+99

> <Gold.Protein.RotatedTorsions>
[ 6907 6896 6895 6894 ] final   25.21 input  -60.11 | X-H torsion
[ 7974 7965 7964 7962 ] final  -91.11 input  175.53 | X-H torsion
[ 8008 7997 7996 7995 ] final  106.76 input   59.86 | X-H torsion
[ 10167 10162 10161 10158 ] final -154.45 input  -65.29 | X-H torsion
[ 10718 10713 10712 10709 ] final  129.22 input   66.30 | X-H torsion
[ 10763 10752 10751 10750 ] final  173.84 input  -60.55 | X-H torsion
[ 11005 11000 10999 10996 ] final  -39.45 input  -57.11 | X-H torsion

> <Gold.Protein.ActiveResidues>
 VAL166  LYS551  ARG553  GLY616  TRP617  ASP618  TYR619  PRO620  LYS621  CYS622 
 ASP623  PHE694  ASN695  SER759  ASP760  ASP761  ALA762  ILE779  LEU786  VAL792 
 PHE793  MET794  SER795  GLU796  ALA797  LYS798  CYS799  TRP800  GLU811  SER814 

> <Gold.Protein.RotatedAtoms>
  151.9691  135.0085  160.0551 H   0  0  0  0  0  0  0  0  0  0  0  0  # atno 6907 bound_to 6896
  152.1799  133.4695  159.4961 H   0  0  0  0  0  0  0  0  0  0  0  0  # atno 6908 bound_to 6896
  150.6915  134.1764  159.4275 H   0  0  0  0  0  0  0  0  0  0  0  0  # atno 6909 bound_to 6896
  145.4175  140.9549  143.2200 H   0  0  0  0  0  0  0  0  0  0  0  0  # atno 7974 bound_to 7965
  156.1769  140.3107  155.9076 H   0  0  0  0  0  0  0  0  0  0  0  0  # atno 8008 bound_to 7997
  155.3468  140.0469  157.3062 H   0  0  0  0  0  0  0  0  0  0  0  0  # atno 8009 bound_to 7997
  154.5300  140.2227  155.8832 H   0  0  0  0  0  0  0  0  0  0  0  0  # atno 8010 bound_to 7997
  139.7012  143.9260  152.2429 H   0  0  0  0  0  0  0  0  0  0  0  0  # atno 10167 bound_to 10162
  157.5174  131.1098  150.9204 H   0  0  0  0  0  0  0  0  0  0  0  0  # atno 10718 bound_to 10713
  154.4457  135.2763  155.1817 H   0  0  0  0  0  0  0  0  0  0  0  0  # atno 10763 bound_to 10752
  154.3665  135.6118  153.5721 H   0  0  0  0  0  0  0  0  0  0  0  0  # atno 10764 bound_to 10752
  152.9843  135.5847  154.4792 H   0  0  0  0  0  0  0  0  0  0  0  0  # atno 10765 bound_to 10752
  141.0103  133.6911  156.2188 H   0  0  0  0  0  0  0  0  0  0  0  0  # atno 11005 bound_to 11000
  144.8268  139.5697  143.6962 LP  0  0  0  0  0  0  0  0  0  0  0  0  # atno 17320 bound_to 7965
  146.2674  139.6552  142.9320 LP  0  0  0  0  0  0  0  0  0  0  0  0  # atno 17321 bound_to 7965
  139.9103  144.6860  150.8570 LP  0  0  0  0  0  0  0  0  0  0  0  0  # atno 17342 bound_to 10162
  140.7710  143.3448  151.2133 LP  0  0  0  0  0  0  0  0  0  0  0  0  # atno 17343 bound_to 10162
  156.9825  130.5532  149.5297 LP  0  0  0  0  0  0  0  0  0  0  0  0  # atno 17370 bound_to 10713
  156.0330  130.5420  150.8582 LP  0  0  0  0  0  0  0  0  0  0  0  0  # atno 17371 bound_to 10713
  140.6745  134.4832  157.5588 LP  0  0  0  0  0  0  0  0  0  0  0  0  # atno 17394 bound_to 11000
  139.9086  134.8394  156.1612 LP  0  0  0  0  0  0  0  0  0  0  0  0  # atno 17395 bound_to 11000

$$$$
