AV-unprocessed.smi:2114|AV-procd|sdf|8622|dock7
  -GOLD-   2272011363D 1   1.00000     0.00000
 Structure written by MMmdl.
 47 48  0  0  0  0  0  0  0  0  1 V2000
  154.7639  144.2987  168.3210 C   0  0  0  0  0  0  0  0  0  0  0  0
  155.3898  143.4890  167.3415 O   0  0  0  0  0  0  0  0  0  0  0  0
  155.3780  142.1123  167.6831 C   0  0  0  0  0  0  0  0  0  0  0  0
  156.0303  141.3034  166.5514 C   0  0  1  0  0  0  0  0  0  0  0  0
  155.9878  139.7946  166.8322 C   0  0  0  0  0  0  0  0  0  0  0  0
  155.3442  141.5818  165.2925 N   0  0  0  0  0  0  0  0  0  0  0  0
  155.5463  140.9432  164.1283 C   0  0  0  0  0  0  0  0  0  0  0  0
  156.3656  140.0373  163.9749 O   0  0  0  0  0  0  0  0  0  0  0  0
  154.7406  141.4535  162.9699 C   0  0  0  0  0  0  0  0  0  0  0  0
  153.7694  142.4668  163.1324 C   0  0  0  0  0  0  0  0  0  0  0  0
  153.0317  142.8923  162.0113 C   0  0  0  0  0  0  0  0  0  0  0  0
  153.2867  142.2900  160.7624 C   0  0  0  0  0  0  0  0  0  0  0  0
  152.5603  142.7165  159.6423 N   0  0  0  0  0  0  0  0  0  0  0  0
  151.6528  141.7114  159.1067 C   0  0  0  0  0  0  0  0  0  0  0  0
  151.0470  142.2047  157.7807 C   0  0  1  0  0  0  0  0  0  0  0  0
  150.0054  141.2264  157.2274 C   0  0  0  0  0  0  0  0  0  0  0  0
  150.4062  143.4632  157.9938 O   0  0  0  0  0  0  0  0  0  0  0  0
  151.2511  144.4862  158.5289 C   0  0  2  0  0  0  0  0  0  0  0  0
  152.2629  145.0013  157.4902 C   0  0  0  0  0  0  0  0  0  0  0  0
  151.9074  144.0040  159.8382 C   0  0  0  0  0  0  0  0  0  0  0  0
  154.2050  141.3078  160.6004 N   0  0  0  0  0  0  0  0  0  0  0  0
  154.9050  140.9005  161.6809 C   0  0  0  0  0  0  0  0  0  0  0  0
  154.7971  145.3426  168.0091 H   0  0  0  0  0  0  0  0  0  0  0  0
  155.2717  144.2189  169.2831 H   0  0  0  0  0  0  0  0  0  0  0  0
  153.7177  144.0201  168.4528 H   0  0  0  0  0  0  0  0  0  0  0  0
  155.9330  141.9659  168.6111 H   0  0  0  0  0  0  0  0  0  0  0  0
  154.3555  141.7719  167.8564 H   0  0  0  0  0  0  0  0  0  0  0  0
  157.0780  141.6029  166.4885 H   0  0  0  0  0  0  0  0  0  0  0  0
  156.5118  139.5534  167.7574 H   0  0  0  0  0  0  0  0  0  0  0  0
  156.4650  139.2322  166.0290 H   0  0  0  0  0  0  0  0  0  0  0  0
  154.9621  139.4361  166.9273 H   0  0  0  0  0  0  0  0  0  0  0  0
  154.6689  142.3322  165.3042 H   0  0  0  0  0  0  0  0  0  0  0  0
  153.5829  142.9158  164.0972 H   0  0  0  0  0  0  0  0  0  0  0  0
  152.2869  143.6685  162.1100 H   0  0  0  0  0  0  0  0  0  0  0  0
  152.1914  140.7758  158.9498 H   0  0  0  0  0  0  0  0  0  0  0  0
  150.8588  141.5104  159.8277 H   0  0  0  0  0  0  0  0  0  0  0  0
  151.8353  142.3151  157.0356 H   0  0  0  0  0  0  0  0  0  0  0  0
  150.4478  140.2481  157.0376 H   0  0  0  0  0  0  0  0  0  0  0  0
  149.5904  141.5906  156.2873 H   0  0  0  0  0  0  0  0  0  0  0  0
  149.1793  141.0914  157.9263 H   0  0  0  0  0  0  0  0  0  0  0  0
  150.5971  145.3233  158.7740 H   0  0  0  0  0  0  0  0  0  0  0  0
  152.7996  145.8700  157.8723 H   0  0  0  0  0  0  0  0  0  0  0  0
  151.7571  145.3038  156.5730 H   0  0  0  0  0  0  0  0  0  0  0  0
  153.0080  144.2497  157.2302 H   0  0  0  0  0  0  0  0  0  0  0  0
  151.1445  143.9023  160.6117 H   0  0  0  0  0  0  0  0  0  0  0  0
  152.6272  144.7412  160.1966 H   0  0  0  0  0  0  0  0  0  0  0  0
  155.6246  140.1145  161.5026 H   0  0  0  0  0  0  0  0  0  0  0  0
  1  2  1  0  0  0  0
  1 23  1  0  0  0  0
  1 24  1  0  0  0  0
  1 25  1  0  0  0  0
  2  3  1  0  0  0  0
  3  4  1  0  0  0  0
  3 26  1  0  0  0  0
  3 27  1  0  0  0  0
  4  5  1  0  0  0  0
  4  6  1  0  0  0  0
  4 28  1  0  0  0  0
  5 29  1  0  0  0  0
  5 30  1  0  0  0  0
  5 31  1  0  0  0  0
  6  7  1  0  0  0  0
  6 32  1  0  0  0  0
  7  8  2  0  0  0  0
  7  9  1  0  0  0  0
  9 22  1  0  0  0  0
  9 10  2  0  0  0  0
 10 11  1  0  0  0  0
 10 33  1  0  0  0  0
 11 12  2  0  0  0  0
 11 34  1  0  0  0  0
 12 13  1  0  0  0  0
 12 21  1  0  0  0  0
 13 20  1  0  0  0  0
 13 14  1  0  0  0  0
 14 15  1  0  0  0  0
 14 35  1  0  0  0  0
 14 36  1  0  0  0  0
 15 16  1  0  0  0  0
 15 17  1  0  0  0  0
 15 37  1  0  0  0  0
 16 38  1  0  0  0  0
 16 39  1  0  0  0  0
 16 40  1  0  0  0  0
 17 18  1  0  0  0  0
 18 19  1  0  0  0  0
 18 20  1  0  0  0  0
 18 41  1  0  0  0  0
 19 42  1  0  0  0  0
 19 43  1  0  0  0  0
 19 44  1  0  0  0  0
 20 45  1  0  0  0  0
 20 46  1  0  0  0  0
 21 22  2  0  0  0  0
 22 47  1  0  0  0  0
M  END
> <s_m_source_file>
AV-unprocessed.smi

> <i_m_source_file_index>
2114

> <i_lp_mmshare_version>
43012

> <i_f3d_flags>
0

> <s_epik_input>
W0NIM11PW0NIMl1bQ0BIXShbQ0gzXSlbTkhdQyg9TyljMVtjSF1bY0hdYyhuW2NIXTEpTjJbQ0gyXVtDQEBIXShbQ0gzXSlPW0NAQEhdKFtDSDNdKVtDSDJdMg==

> <s_epik_cmdline>
J2VwaWtfcHl0aG9uJywgJy1waCcsICc3LjAnLCAnLXRuJywgJzgnLCAnLW1hJywgJzIwMCcsICctbWV0YWxfYmluZGluZycsICctaW1hZScsICc8aW5maWxlLm1hZT4nLCAnLW9tYWUnLCAnPG91dGZpbGUubWFlPic=

> <r_lp_tautomer_probability>
1

> <r_epik_Ionization_Penalty>
1.92915e-05

> <r_epik_Ionization_Penalty_Charging>
0

> <r_epik_Ionization_Penalty_Neutral>
1.92915e-05

> <r_epik_State_Penalty>
-0

> <r_epik_Charging_Adjusted_Penalty>
0

> <i_epik_Tot_Q>
0

> <i_epik_Tot_abs_Q>
0

> <r_epik_Metal_State_Penalty>
-0

> <b_epik_Metal_Only>
0

> <s_lp_Force_Field>
OPLS_2005

> <r_lp_Energy>
24.377

> <b_lp_Chiralities_Consistent>
1

> <s_lp_Variant>
AV-unprocessed.smi:2114-6

> <Gold.Version>
5.8.1

> <Gold.Id.Protein>
6NUR|6NUR_protein|mol2

> <Gold.PLP.Fitness>
40.3531

> <Gold.PLP.PLP>
-43.2119

> <Gold.PLP.part.hbond>
0.0000

> <Gold.PLP.part.metal>
0.0000

> <Gold.PLP.part.buried>
-4.2782

> <Gold.PLP.part.nonpolar>
-39.8330

> <Gold.PLP.part.repulsive>
0.9578

> <Gold.PLP.ligand.clash>
2.2487

> <Gold.PLP.ligand.torsion>
0.3662

> <Gold.PLP.Chemscore.Hbond>
0.0000

> <Gold.PLP.Chemscore.CHOScore>
0.0000

> <Gold.PLP.Chemscore.Metal>
0.0000

> <Gold.PLP.Chemscore.Internal.Correction>
0.1223

> <Gold.Rescore>
     Score         DG    S(hbond)    S(metal)    S(lipo)     H(rot)  DE(clash)    DE(int)     intcor
     13.92     -16.48       0.00        0.00     127.34       1.52       1.04       1.53       ----

> <Gold.Chemscore.Fitness>
13.9173

> <Gold.Chemscore.DG>
-16.4807

> <Gold.Chemscore.ZeroCoef>
-5.4800

> <Gold.Chemscore.Hbond>
0.0000

> <Gold.Chemscore.Metal>
0.0000

> <Gold.Chemscore.Lipo>
127.3394

> <Gold.Chemscore.Internal_Hbond>
0.0000

> <Gold.Chemscore.DEClash>
1.0357

> <Gold.Chemscore.DEInternal>
1.5277

> <Gold.Chemscore.Rot>
1.5226

> <Gold.Chemscore.Internal.Correction>
   9.000000E+99

> <Gold.Chemscore.Hbond.Weighted>
-0.0000

> <Gold.Chemscore.Metal.Weighted>
-0.0000

> <Gold.Chemscore.Lipo.Weighted>
-14.8987

> <Gold.Chemscore.Internal_Hbond.Weighted>
0.0000

> <Gold.Chemscore.DEClash.Weighted>
1.0357

> <Gold.Chemscore.DEInternal.Weighted>
1.5277

> <Gold.Chemscore.Rot.Weighted>
3.8980

> <Gold.Chemscore.Internal.Correction.Weighted>
   9.000000E+99

> <Gold.Protein.RotatedTorsions>
[ 6907 6896 6895 6894 ] final -154.47 input  -60.11 | X-H torsion
[ 7974 7965 7964 7962 ] final   27.25 input  175.53 | X-H torsion
[ 8008 7997 7996 7995 ] final   20.18 input   59.86 | X-H torsion
[ 10167 10162 10161 10158 ] final   72.74 input  -65.29 | X-H torsion
[ 10718 10713 10712 10709 ] final  162.55 input   66.30 | X-H torsion
[ 10763 10752 10751 10750 ] final  -65.33 input  -60.55 | X-H torsion
[ 11005 11000 10999 10996 ] final  131.95 input  -57.11 | X-H torsion

> <Gold.Protein.ActiveResidues>
 VAL166  LYS551  ARG553  GLY616  TRP617  ASP618  TYR619  PRO620  LYS621  CYS622 
 ASP623  PHE694  ASN695  SER759  ASP760  ASP761  ALA762  ILE779  LEU786  VAL792 
 PHE793  MET794  SER795  GLU796  ALA797  LYS798  CYS799  TRP800  GLU811  SER814 

> <Gold.Protein.RotatedAtoms>
  151.2580  133.4316  159.2614 H   0  0  0  0  0  0  0  0  0  0  0  0  # atno 6907 bound_to 6896
  151.0556  134.9703  159.8244 H   0  0  0  0  0  0  0  0  0  0  0  0  # atno 6908 bound_to 6896
  152.5390  134.2533  159.8960 H   0  0  0  0  0  0  0  0  0  0  0  0  # atno 6909 bound_to 6896
  146.1794  139.7217  142.8911 H   0  0  0  0  0  0  0  0  0  0  0  0  # atno 7974 bound_to 7965
  154.9318  140.3041  155.5164 H   0  0  0  0  0  0  0  0  0  0  0  0  # atno 8008 bound_to 7997
  156.3003  140.2352  156.4315 H   0  0  0  0  0  0  0  0  0  0  0  0  # atno 8009 bound_to 7997
  154.8230  140.0422  157.1413 H   0  0  0  0  0  0  0  0  0  0  0  0  # atno 8010 bound_to 7997
  140.0320  144.5458  150.7499 H   0  0  0  0  0  0  0  0  0  0  0  0  # atno 10167 bound_to 10162
  157.1210  131.0492  151.2415 H   0  0  0  0  0  0  0  0  0  0  0  0  # atno 10718 bound_to 10713
  154.3435  135.6151  153.5608 H   0  0  0  0  0  0  0  0  0  0  0  0  # atno 10763 bound_to 10752
  152.9802  135.5775  154.4826 H   0  0  0  0  0  0  0  0  0  0  0  0  # atno 10764 bound_to 10752
  154.4534  135.2853  155.1742 H   0  0  0  0  0  0  0  0  0  0  0  0  # atno 10765 bound_to 10752
  139.9761  134.9563  156.9512 H   0  0  0  0  0  0  0  0  0  0  0  0  # atno 11005 bound_to 11000
  145.4119  141.0397  143.3012 LP  0  0  0  0  0  0  0  0  0  0  0  0  # atno 17320 bound_to 7965
  144.8290  139.5661  143.6952 LP  0  0  0  0  0  0  0  0  0  0  0  0  # atno 17321 bound_to 7965
  140.7298  143.2676  151.3993 LP  0  0  0  0  0  0  0  0  0  0  0  0  # atno 17342 bound_to 10162
  139.6069  144.1178  152.2259 LP  0  0  0  0  0  0  0  0  0  0  0  0  # atno 17343 bound_to 10162
  157.4476  130.7580  149.7123 LP  0  0  0  0  0  0  0  0  0  0  0  0  # atno 17370 bound_to 10713
  155.9828  130.4006  150.3395 LP  0  0  0  0  0  0  0  0  0  0  0  0  # atno 17371 bound_to 10713
  140.5192  134.0924  155.7288 LP  0  0  0  0  0  0  0  0  0  0  0  0  # atno 17394 bound_to 11000
  141.1438  133.9092  157.2265 LP  0  0  0  0  0  0  0  0  0  0  0  0  # atno 17395 bound_to 11000

$$$$
