AV-unprocessed.smi:219|AV-procd|sdf|1681|dock1
  -GOLD-   2262020113D 1   1.00000     0.00000
 Structure written by MMmdl.
 50 53  0  0  0  0  0  0  0  0  1 V2000
  143.3430  133.7474  151.3372 N   0  0  0  0  0  0  0  0  0  0  0  0
  144.1287  132.7686  150.8820 C   0  0  0  0  0  0  0  0  0  0  0  0
  143.6946  131.8475  150.1931 O   0  0  0  0  0  0  0  0  0  0  0  0
  145.6073  132.8139  151.2877 C   0  0  0  0  0  0  0  0  0  0  0  0
  146.0767  131.6515  152.2125 C   0  0  1  0  0  0  0  0  0  0  0  0
  146.1462  130.3495  151.3802 C   0  0  0  0  0  0  0  0  0  0  0  0
  146.6272  129.1532  152.2117 C   0  0  0  0  0  0  0  0  0  0  0  0
  147.9760  129.4806  152.8590 C   0  0  0  0  0  0  0  0  0  0  0  0
  147.8622  130.7621  153.6932 C   0  0  0  0  0  0  0  0  0  0  0  0
  147.3698  131.8813  152.8873 N   0  0  0  0  0  0  0  0  0  0  0  0
  147.4967  133.0506  153.5533 C   0  0  0  0  0  0  0  0  0  0  0  0
  146.4135  133.8525  153.7335 N   0  0  0  0  0  0  0  0  0  0  0  0
  146.5504  135.0223  154.3649 C   0  0  0  0  0  0  0  0  0  0  0  0
  147.6551  135.5721  154.8743 N   0  0  0  0  0  0  0  0  0  0  0  0
  148.7413  134.7666  154.6912 C   0  0  0  0  0  0  0  0  0  0  0  0
  148.7463  133.4933  154.0581 C   0  0  0  0  0  0  0  0  0  0  0  0
  150.0281  132.9603  154.0600 N   0  0  0  0  0  0  0  0  0  0  0  0
  150.7468  133.8766  154.6495 C   0  0  0  0  0  0  0  0  0  0  0  0
  150.0580  135.0021  155.0453 N   0  0  0  0  0  0  0  0  0  0  0  0
  150.6118  136.1781  155.6981 C   0  0  0  0  0  0  0  0  0  0  0  0
  151.4058  137.0954  154.7377 C   0  0  2  0  0  0  0  0  0  0  0  0
  151.6828  136.3811  153.5450 O   0  0  0  0  0  0  0  0  0  0  0  0
  152.7272  137.5711  155.3265 C   0  0  0  0  0  0  0  0  0  0  0  0
  152.9469  138.9031  154.6221 C   0  0  0  0  0  0  0  0  0  0  0  0
  151.6439  139.4598  154.5785 O   0  0  0  0  0  0  0  0  0  0  0  0
  150.6986  138.4154  154.3633 C   0  0  0  0  0  0  0  0  0  0  0  0
  142.3640  133.7582  151.0900 H   0  0  0  0  0  0  0  0  0  0  0  0
  143.7290  134.4746  151.9216 H   0  0  0  0  0  0  0  0  0  0  0  0
  146.1747  132.7941  150.3561 H   0  0  0  0  0  0  0  0  0  0  0  0
  145.8370  133.7774  151.7448 H   0  0  0  0  0  0  0  0  0  0  0  0
  145.3285  131.5008  152.9925 H   0  0  0  0  0  0  0  0  0  0  0  0
  145.1673  130.1208  150.9571 H   0  0  0  0  0  0  0  0  0  0  0  0
  146.8213  130.4926  150.5350 H   0  0  0  0  0  0  0  0  0  0  0  0
  145.8924  128.9192  152.9832 H   0  0  0  0  0  0  0  0  0  0  0  0
  146.7161  128.2672  151.5828 H   0  0  0  0  0  0  0  0  0  0  0  0
  148.3042  128.6524  153.4871 H   0  0  0  0  0  0  0  0  0  0  0  0
  148.7360  129.6096  152.0873 H   0  0  0  0  0  0  0  0  0  0  0  0
  147.1860  130.5897  154.5319 H   0  0  0  0  0  0  0  0  0  0  0  0
  148.8378  131.0093  154.1150 H   0  0  0  0  0  0  0  0  0  0  0  0
  145.6470  135.6047  154.4697 H   0  0  0  0  0  0  0  0  0  0  0  0
  151.8101  133.7617  154.8009 H   0  0  0  0  0  0  0  0  0  0  0  0
  149.7908  136.7333  156.1537 H   0  0  0  0  0  0  0  0  0  0  0  0
  151.2490  135.8468  156.5189 H   0  0  0  0  0  0  0  0  0  0  0  0
  151.1825  136.7676  152.8425 H   0  0  0  0  0  0  0  0  0  0  0  0
  152.6226  137.7494  156.3976 H   0  0  0  0  0  0  0  0  0  0  0  0
  153.5502  136.8688  155.1859 H   0  0  0  0  0  0  0  0  0  0  0  0
  153.6446  139.5520  155.1516 H   0  0  0  0  0  0  0  0  0  0  0  0
  153.3153  138.7540  153.6060 H   0  0  0  0  0  0  0  0  0  0  0  0
  150.3537  138.4229  153.3283 H   0  0  0  0  0  0  0  0  0  0  0  0
  149.8342  138.6159  154.9946 H   0  0  0  0  0  0  0  0  0  0  0  0
  1  2  1  0  0  0  0
  1 27  1  0  0  0  0
  1 28  1  0  0  0  0
  2  3  2  0  0  0  0
  2  4  1  0  0  0  0
  4  5  1  0  0  0  0
  4 29  1  0  0  0  0
  4 30  1  0  0  0  0
  5 10  1  0  0  0  0
  5  6  1  0  0  0  0
  5 31  1  0  0  0  0
  6  7  1  0  0  0  0
  6 32  1  0  0  0  0
  6 33  1  0  0  0  0
  7  8  1  0  0  0  0
  7 34  1  0  0  0  0
  7 35  1  0  0  0  0
  8  9  1  0  0  0  0
  8 36  1  0  0  0  0
  8 37  1  0  0  0  0
  9 10  1  0  0  0  0
  9 38  1  0  0  0  0
  9 39  1  0  0  0  0
 10 11  1  0  0  0  0
 11 16  1  0  0  0  0
 11 12  2  0  0  0  0
 12 13  1  0  0  0  0
 13 14  2  0  0  0  0
 13 40  1  0  0  0  0
 14 15  1  0  0  0  0
 15 19  1  0  0  0  0
 15 16  2  0  0  0  0
 16 17  1  0  0  0  0
 17 18  2  0  0  0  0
 18 19  1  0  0  0  0
 18 41  1  0  0  0  0
 19 20  1  0  0  0  0
 20 21  1  0  0  0  0
 20 42  1  0  0  0  0
 20 43  1  0  0  0  0
 21 26  1  0  0  0  0
 21 22  1  0  0  0  0
 21 23  1  0  0  0  0
 22 44  1  0  0  0  0
 23 24  1  0  0  0  0
 23 45  1  0  0  0  0
 23 46  1  0  0  0  0
 24 25  1  0  0  0  0
 24 47  1  0  0  0  0
 24 48  1  0  0  0  0
 25 26  1  0  0  0  0
 26 49  1  0  0  0  0
 26 50  1  0  0  0  0
M  END
> <s_m_source_file>
AV-unprocessed.smi

> <i_m_source_file_index>
219

> <i_lp_mmshare_version>
43012

> <i_f3d_flags>
0

> <s_epik_input>
W05IMl1DKD1PKVtDSDJdW0NAQEhdMVtDSDJdW0NIMl1bQ0gyXVtDSDJdTjFjKG5bY0hdbjIpYyhjMjMpbltjSF1uM1tDSDJdW0NAQF00KFtPSF0pW0NIMl1bQ0gyXU9bQ0gyXTQ=

> <s_epik_cmdline>
J2VwaWtfcHl0aG9uJywgJy1waCcsICc3LjAnLCAnLXRuJywgJzgnLCAnLW1hJywgJzIwMCcsICctbWV0YWxfYmluZGluZycsICctaW1hZScsICc8aW5maWxlLm1hZT4nLCAnLW9tYWUnLCAnPG91dGZpbGUubWFlPic=

> <r_lp_tautomer_probability>
1

> <r_epik_Ionization_Penalty>
0.00228532

> <r_epik_Ionization_Penalty_Charging>
0

> <r_epik_Ionization_Penalty_Neutral>
0.00228532

> <r_epik_State_Penalty>
0.00140978

> <r_epik_Charging_Adjusted_Penalty>
0.00140978

> <i_epik_Tot_Q>
0

> <i_epik_Tot_abs_Q>
0

> <r_epik_Metal_State_Penalty>
-0

> <b_epik_Metal_Only>
0

> <s_lp_Force_Field>
OPLS_2005

> <r_lp_Energy>
35.4504

> <b_lp_Chiralities_Consistent>
1

> <s_lp_Variant>
AV-unprocessed.smi:219-4

> <Gold.Version>
5.8.1

> <Gold.Id.Protein>
6NUR|6NUR_protein|mol2

> <Gold.PLP.Fitness>
46.7042

> <Gold.PLP.PLP>
-40.1021

> <Gold.PLP.part.hbond>
-5.3419

> <Gold.PLP.part.metal>
0.0000

> <Gold.PLP.part.buried>
-5.1149

> <Gold.PLP.part.nonpolar>
-29.8648

> <Gold.PLP.part.repulsive>
0.6198

> <Gold.PLP.ligand.clash>
3.5072

> <Gold.PLP.ligand.torsion>
1.3923

> <Gold.PLP.Chemscore.Hbond>
4.1977

> <Gold.PLP.Chemscore.CHOScore>
0.0000

> <Gold.PLP.Chemscore.Metal>
0.0000

> <Gold.Chemscore.Hbonds>
donor molecule, donor type, donor heavy atom, donor atom, acceptor molecule, acceptor atom, score
      L1  H     1    27       P1 10186  0.61
      L1  H    22    44       P1  7949  0.34
      P1  H  7989  7998       L1    25  1.00
      P1  H 10752 10764       L1    22  0.85
      P1  H 10785 10796       L1     3  0.33

> <Gold.PLP.Chemscore.Internal.Correction>
0.3008

> <Gold.Rescore>
     Score         DG    S(hbond)    S(metal)    S(lipo)     H(rot)  DE(clash)    DE(int)     intcor
     15.38     -19.49       4.06        0.00      77.46       3.37       0.01       4.10       ----

> <Gold.Chemscore.Fitness>
15.3846

> <Gold.Chemscore.DG>
-19.4875

> <Gold.Chemscore.ZeroCoef>
-5.4800

> <Gold.Chemscore.Hbond>
4.0632

> <Gold.Chemscore.Metal>
0.0000

> <Gold.Chemscore.Lipo>
77.4595

> <Gold.Chemscore.Internal_Hbond>
0.0000

> <Gold.Chemscore.DEClash>
0.0076

> <Gold.Chemscore.DEInternal>
4.0954

> <Gold.Chemscore.Rot>
3.3697

> <Gold.Chemscore.Internal.Correction>
   9.000000E+99

> <Gold.Chemscore.Hbonds>
donor molecule, donor type, donor heavy atom, donor atom, acceptor molecule, acceptor atom, score
      L1  H     1    27       P1 10186  0.30
      L1  H    22    44       P1  7949  0.17
      P1  H  7989  7998       L1    25  0.67
      P1  H 10752 10764       L1    22  0.14
      P1  H 10785 10796       L1     3  0.31

> <Gold.Chemscore.Hbond.Weighted>
-13.5711

> <Gold.Chemscore.Metal.Weighted>
-0.0000

> <Gold.Chemscore.Lipo.Weighted>
-9.0628

> <Gold.Chemscore.Internal_Hbond.Weighted>
0.0000

> <Gold.Chemscore.DEClash.Weighted>
0.0076

> <Gold.Chemscore.DEInternal.Weighted>
4.0954

> <Gold.Chemscore.Rot.Weighted>
8.6264

> <Gold.Chemscore.Internal.Correction.Weighted>
   9.000000E+99

> <Gold.Protein.RotatedTorsions>
[ 6907 6896 6895 6894 ] final   14.12 input  -60.11 | X-H torsion
[ 7974 7965 7964 7962 ] final   48.49 input  175.53 | X-H torsion
[ 8008 7997 7996 7995 ] final  -40.58 input   59.86 | X-H torsion
[ 10167 10162 10161 10158 ] final  -34.97 input  -65.29 | X-H torsion
[ 10718 10713 10712 10709 ] final  105.85 input   66.30 | X-H torsion
[ 10763 10752 10751 10750 ] final  -92.50 input  -60.55 | X-H torsion
[ 11005 11000 10999 10996 ] final   93.27 input  -57.11 | X-H torsion

> <Gold.Protein.ActiveResidues>
 VAL166  LYS551  ARG553  GLY616  TRP617  ASP618  TYR619  PRO620  LYS621  CYS622 
 ASP623  PHE694  ASN695  SER759  ASP760  ASP761  ALA762  ILE779  LEU786  VAL792 
 PHE793  MET794  SER795  GLU796  ALA797  LYS798  CYS799  TRP800  GLU811  SER814 

> <Gold.Protein.RotatedAtoms>
  151.7972  135.0719  160.0395 H   0  0  0  0  0  0  0  0  0  0  0  0  # atno 6907 bound_to 6896
  152.3115  133.5753  159.5692 H   0  0  0  0  0  0  0  0  0  0  0  0  # atno 6908 bound_to 6896
  150.7322  134.0061  159.3696 H   0  0  0  0  0  0  0  0  0  0  0  0  # atno 6909 bound_to 6896
  146.0199  139.4639  142.9904 H   0  0  0  0  0  0  0  0  0  0  0  0  # atno 7974 bound_to 7965
  154.4011  140.1521  156.3051 H   0  0  0  0  0  0  0  0  0  0  0  0  # atno 8008 bound_to 7997
  155.8666  140.3451  155.5771 H   0  0  0  0  0  0  0  0  0  0  0  0  # atno 8009 bound_to 7997
  155.7821  140.0845  157.2044 H   0  0  0  0  0  0  0  0  0  0  0  0  # atno 8010 bound_to 7997
  140.7175  143.3510  151.2155 H   0  0  0  0  0  0  0  0  0  0  0  0  # atno 10167 bound_to 10162
  157.6690  131.0837  150.5919 H   0  0  0  0  0  0  0  0  0  0  0  0  # atno 10718 bound_to 10713
  154.6867  135.5229  153.8336 H   0  0  0  0  0  0  0  0  0  0  0  0  # atno 10763 bound_to 10752
  153.0602  135.6565  154.0490 H   0  0  0  0  0  0  0  0  0  0  0  0  # atno 10764 bound_to 10752
  154.0370  135.2980  155.3340 H   0  0  0  0  0  0  0  0  0  0  0  0  # atno 10765 bound_to 10752
  139.8812  134.8780  156.3693 H   0  0  0  0  0  0  0  0  0  0  0  0  # atno 11005 bound_to 11000
  145.7210  141.0075  143.1402 LP  0  0  0  0  0  0  0  0  0  0  0  0  # atno 17320 bound_to 7965
  144.6985  139.8870  143.7451 LP  0  0  0  0  0  0  0  0  0  0  0  0  # atno 17321 bound_to 7965
  139.7041  143.9484  152.2919 LP  0  0  0  0  0  0  0  0  0  0  0  0  # atno 17342 bound_to 10162
  139.9187  144.6813  150.8484 LP  0  0  0  0  0  0  0  0  0  0  0  0  # atno 17343 bound_to 10162
  156.6219  130.4408  149.5819 LP  0  0  0  0  0  0  0  0  0  0  0  0  # atno 17370 bound_to 10713
  156.2349  130.6816  151.1500 LP  0  0  0  0  0  0  0  0  0  0  0  0  # atno 17371 bound_to 10713
  140.9475  133.7473  156.0228 LP  0  0  0  0  0  0  0  0  0  0  0  0  # atno 17394 bound_to 11000
  140.8145  134.3361  157.5401 LP  0  0  0  0  0  0  0  0  0  0  0  0  # atno 17395 bound_to 11000

$$$$
