AV-unprocessed.smi:1239|AV-procd|sdf|5190|dock2
  -GOLD-   22720 4273D 1   1.00000     0.00000
 Structure written by MMmdl.
 49 50  0  0  0  0  0  0  0  0  3 V2000
  145.2772  137.7186  153.7916 C   0  0  0  0  0  0  0  0  0  0  0  0
  145.6080  137.3486  152.3281 C   0  0  1  0  0  0  0  0  0  0  0  0
  146.5234  138.4382  151.7112 C   0  0  0  0  0  0  0  0  0  0  0  0
  147.7602  138.6484  152.4635 N   0  0  0  0  0  0  0  0  0  0  0  0
  147.9953  139.6508  153.3221 C   0  0  0  0  0  0  0  0  0  0  0  0
  147.1869  140.5496  153.5523 O   0  0  0  0  0  0  0  0  0  0  0  0
  149.2224  139.5528  153.8616 N   0  0  0  0  0  0  0  0  0  0  0  0
  149.8356  140.3973  154.8269 C   0  0  0  0  0  0  0  0  0  0  0  0
  150.8711  139.8533  155.6150 C   0  0  0  0  0  0  0  0  0  0  0  0
  151.4999  140.6481  156.5954 C   0  0  0  0  0  0  0  0  0  0  0  0
  151.0819  141.9871  156.7919 C   0  0  0  0  0  0  0  0  0  0  0  0
  151.6607  142.8450  157.7519 N   0  0  0  0  0  0  0  0  0  0  0  0
  151.4495  144.2853  157.6585 C   0  0  0  0  0  0  0  0  0  0  0  0
  152.4993  142.2913  158.8067 C   0  0  0  0  0  0  0  0  0  0  0  0
  150.0734  142.4606  156.0197 N   0  3  0  0  0  0  0  0  0  0  0  0
  149.4457  141.7361  155.0686 C   0  0  0  0  0  0  0  0  0  0  0  0
  146.1908  135.9773  152.1658 N   0  3  0  0  0  0  0  0  0  0  0  0
  146.1276  135.1001  153.3660 C   0  0  0  0  0  0  0  0  0  0  0  0
  146.8066  133.7467  153.0899 C   0  0  0  0  0  0  0  0  0  0  0  0
  146.2048  133.1213  151.9656 O   0  0  0  0  0  0  0  0  0  0  0  0
  146.3458  133.9075  150.7915 C   0  0  0  0  0  0  0  0  0  0  0  0
  145.6332  135.2541  150.9920 C   0  0  0  0  0  0  0  0  0  0  0  0
  144.9287  138.7496  153.8621 H   0  0  0  0  0  0  0  0  0  0  0  0
  146.1477  137.6235  154.4414 H   0  0  0  0  0  0  0  0  0  0  0  0
  144.4792  137.0970  154.1983 H   0  0  0  0  0  0  0  0  0  0  0  0
  144.6607  137.3651  151.7868 H   0  0  0  0  0  0  0  0  0  0  0  0
  146.7493  138.2329  150.6648 H   0  0  0  0  0  0  0  0  0  0  0  0
  145.9892  139.3888  151.6998 H   0  0  0  0  0  0  0  0  0  0  0  0
  148.4860  137.9580  152.3344 H   0  0  0  0  0  0  0  0  0  0  0  0
  149.8009  138.8017  153.5143 H   0  0  0  0  0  0  0  0  0  0  0  0
  151.1899  138.8311  155.4695 H   0  0  0  0  0  0  0  0  0  0  0  0
  152.2938  140.2134  157.1841 H   0  0  0  0  0  0  0  0  0  0  0  0
  150.3873  144.5211  157.7306 H   0  0  0  0  0  0  0  0  0  0  0  0
  151.8268  144.6684  156.7100 H   0  0  0  0  0  0  0  0  0  0  0  0
  151.9636  144.8154  158.4607 H   0  0  0  0  0  0  0  0  0  0  0  0
  153.3446  141.7505  158.3800 H   0  0  0  0  0  0  0  0  0  0  0  0
  151.9263  141.6067  159.4324 H   0  0  0  0  0  0  0  0  0  0  0  0
  152.8975  143.0762  159.4498 H   0  0  0  0  0  0  0  0  0  0  0  0
  148.6526  142.2578  154.5545 H   0  0  0  0  0  0  0  0  0  0  0  0
  146.6399  135.5576  154.2116 H   0  0  0  0  0  0  0  0  0  0  0  0
  145.0869  134.9476  153.6558 H   0  0  0  0  0  0  0  0  0  0  0  0
  147.8765  133.8772  152.9182 H   0  0  0  0  0  0  0  0  0  0  0  0
  146.7021  133.0917  153.9551 H   0  0  0  0  0  0  0  0  0  0  0  0
  147.4014  134.0541  150.5561 H   0  0  0  0  0  0  0  0  0  0  0  0
  145.9037  133.3700  149.9525 H   0  0  0  0  0  0  0  0  0  0  0  0
  144.5645  135.0892  151.1372 H   0  0  0  0  0  0  0  0  0  0  0  0
  145.7407  135.8427  150.0826 H   0  0  0  0  0  0  0  0  0  0  0  0
  149.7675  143.4226  156.1672 H   0  0  0  0  0  0  0  0  0  0  0  0
  147.1740  136.1145  151.9785 H   0  0  0  0  0  0  0  0  0  0  0  0
  1  2  1  0  0  0  0
  1 23  1  0  0  0  0
  1 24  1  0  0  0  0
  1 25  1  0  0  0  0
  2  3  1  0  0  0  0
  2 17  1  0  0  0  0
  2 26  1  0  0  0  0
  3  4  1  0  0  0  0
  3 27  1  0  0  0  0
  3 28  1  0  0  0  0
  4  5  1  0  0  0  0
  4 29  1  0  0  0  0
  5  6  2  0  0  0  0
  5  7  1  0  0  0  0
  7  8  1  0  0  0  0
  7 30  1  0  0  0  0
  8 16  1  0  0  0  0
  8  9  2  0  0  0  0
  9 10  1  0  0  0  0
  9 31  1  0  0  0  0
 10 11  2  0  0  0  0
 10 32  1  0  0  0  0
 11 12  1  0  0  0  0
 11 15  1  0  0  0  0
 12 13  1  0  0  0  0
 12 14  1  0  0  0  0
 13 33  1  0  0  0  0
 13 34  1  0  0  0  0
 13 35  1  0  0  0  0
 14 36  1  0  0  0  0
 14 37  1  0  0  0  0
 14 38  1  0  0  0  0
 15 16  2  0  0  0  0
 15 48  1  0  0  0  0
 16 39  1  0  0  0  0
 17 22  1  0  0  0  0
 17 18  1  0  0  0  0
 17 49  1  0  0  0  0
 18 19  1  0  0  0  0
 18 40  1  0  0  0  0
 18 41  1  0  0  0  0
 19 20  1  0  0  0  0
 19 42  1  0  0  0  0
 19 43  1  0  0  0  0
 20 21  1  0  0  0  0
 21 22  1  0  0  0  0
 21 44  1  0  0  0  0
 21 45  1  0  0  0  0
 22 46  1  0  0  0  0
 22 47  1  0  0  0  0
M  CHG  1  15   1
M  CHG  1  17   1
M  END
> <s_m_source_file>
AV-unprocessed.smi

> <i_m_source_file_index>
1239

> <i_lp_mmshare_version>
43012

> <i_f3d_flags>
0

> <s_epik_input>
W0NIMl0xW0NIMl1PW0NIMl1bQ0gyXU4xW0NASF0oW0NIM10pW0NIMl1bTkhdQyg9TylbTkhdYzJbY0hdW2NIXWMoTihbQ0gzXSlbQ0gzXSluW2NIXTI=

> <s_epik_cmdline>
J2VwaWtfcHl0aG9uJywgJy1waCcsICc3LjAnLCAnLXRuJywgJzgnLCAnLW1hJywgJzIwMCcsICctbWV0YWxfYmluZGluZycsICctaW1hZScsICc8aW5maWxlLm1hZT4nLCAnLW9tYWUnLCAnPG91dGZpbGUubWFlPic=

> <r_lp_tautomer_probability>
0.999994

> <r_epik_Ionization_Penalty>
0.907597

> <r_epik_Ionization_Penalty_Charging>
0.907577

> <r_epik_Ionization_Penalty_Neutral>
2.023e-05

> <r_epik_State_Penalty>
0.909151

> <r_epik_Charging_Adjusted_Penalty>
1.81673

> <i_epik_Tot_Q>
2

> <i_epik_Tot_abs_Q>
2

> <r_epik_Metal_State_Penalty>
1.19543

> <b_epik_Metal_Only>
0

> <s_lp_Force_Field>
OPLS_2005

> <r_lp_Energy>
38.8579

> <b_lp_Chiralities_Consistent>
1

> <s_lp_Variant>
AV-unprocessed.smi:1239-6

> <Gold.Version>
5.8.1

> <Gold.Id.Protein>
6NUR|6NUR_protein|mol2

> <Gold.PLP.Fitness>
52.6872

> <Gold.PLP.PLP>
-40.8033

> <Gold.PLP.part.hbond>
-5.0000

> <Gold.PLP.part.metal>
0.0000

> <Gold.PLP.part.buried>
-0.9706

> <Gold.PLP.part.nonpolar>
-35.6130

> <Gold.PLP.part.repulsive>
0.6194

> <Gold.PLP.ligand.clash>
0.0000

> <Gold.PLP.ligand.torsion>
1.6071

> <Gold.PLP.Chemscore.Hbond>
5.0000

> <Gold.PLP.Chemscore.CHOScore>
0.0000

> <Gold.PLP.Chemscore.Metal>
0.0000

> <Gold.Chemscore.Hbonds>
donor molecule, donor type, donor heavy atom, donor atom, acceptor molecule, acceptor atom, score
      L1  H     4    29       P1  7948  0.99
      L1  H    15    48       P1  8028  1.98
      L1  H    17    49       P1  7948  2.00

> <Gold.PLP.Chemscore.Internal.Correction>
0.0982

> <Gold.Rescore>
     Score         DG    S(hbond)    S(metal)    S(lipo)     H(rot)  DE(clash)    DE(int)     intcor
     18.19     -21.58       2.93        0.00      86.92       1.51       1.16       2.22       ----

> <Gold.Chemscore.Fitness>
18.1906

> <Gold.Chemscore.DG>
-21.5766

> <Gold.Chemscore.ZeroCoef>
-5.4800

> <Gold.Chemscore.Hbond>
2.9291

> <Gold.Chemscore.Metal>
0.0000

> <Gold.Chemscore.Lipo>
86.9204

> <Gold.Chemscore.Internal_Hbond>
0.0000

> <Gold.Chemscore.DEClash>
1.1623

> <Gold.Chemscore.DEInternal>
2.2237

> <Gold.Chemscore.Rot>
1.5064

> <Gold.Chemscore.Internal.Correction>
   9.000000E+99

> <Gold.Chemscore.Hbonds>
donor molecule, donor type, donor heavy atom, donor atom, acceptor molecule, acceptor atom, score
      L1  H     4    29       P1  7948  0.93
      L1  H    15    48       P1  8028  0.94
      L1  H    17    49       P1  7948  1.00

> <Gold.Chemscore.Hbond.Weighted>
-9.7832

> <Gold.Chemscore.Metal.Weighted>
-0.0000

> <Gold.Chemscore.Lipo.Weighted>
-10.1697

> <Gold.Chemscore.Internal_Hbond.Weighted>
0.0000

> <Gold.Chemscore.DEClash.Weighted>
1.1623

> <Gold.Chemscore.DEInternal.Weighted>
2.2237

> <Gold.Chemscore.Rot.Weighted>
3.8563

> <Gold.Chemscore.Internal.Correction.Weighted>
   9.000000E+99

> <Gold.Protein.RotatedTorsions>
[ 6907 6896 6895 6894 ] final -128.15 input  -60.11 | X-H torsion
[ 7974 7965 7964 7962 ] final  102.35 input  175.53 | X-H torsion
[ 8008 7997 7996 7995 ] final   -2.34 input   59.86 | X-H torsion
[ 10167 10162 10161 10158 ] final   53.64 input  -65.29 | X-H torsion
[ 10718 10713 10712 10709 ] final -127.48 input   66.30 | X-H torsion
[ 10763 10752 10751 10750 ] final   83.13 input  -60.55 | X-H torsion
[ 11005 11000 10999 10996 ] final -178.89 input  -57.11 | X-H torsion

> <Gold.Protein.ActiveResidues>
 VAL166  LYS551  ARG553  GLY616  TRP617  ASP618  TYR619  PRO620  LYS621  CYS622 
 ASP623  PHE694  ASN695  SER759  ASP760  ASP761  ALA762  ILE779  LEU786  VAL792 
 PHE793  MET794  SER795  GLU796  ALA797  LYS798  CYS799  TRP800  GLU811  SER814 

> <Gold.Protein.RotatedAtoms>
  150.9148  133.6953  159.2845 H   0  0  0  0  0  0  0  0  0  0  0  0  # atno 6907 bound_to 6896
  151.4427  135.1020  159.9684 H   0  0  0  0  0  0  0  0  0  0  0  0  # atno 6908 bound_to 6896
  152.4949  133.8552  159.7277 H   0  0  0  0  0  0  0  0  0  0  0  0  # atno 6909 bound_to 6896
  145.3603  139.2419  143.3510 H   0  0  0  0  0  0  0  0  0  0  0  0  # atno 7974 bound_to 7965
  154.6368  140.2537  155.7369 H   0  0  0  0  0  0  0  0  0  0  0  0  # atno 8008 bound_to 7997
  156.2508  140.2895  156.0664 H   0  0  0  0  0  0  0  0  0  0  0  0  # atno 8009 bound_to 7997
  155.1659  140.0385  157.2843 H   0  0  0  0  0  0  0  0  0  0  0  0  # atno 8010 bound_to 7997
  140.2386  144.3609  150.6388 H   0  0  0  0  0  0  0  0  0  0  0  0  # atno 10167 bound_to 10162
  156.1861  130.6764  151.0366 H   0  0  0  0  0  0  0  0  0  0  0  0  # atno 10718 bound_to 10713
  153.1263  135.4702  154.9278 H   0  0  0  0  0  0  0  0  0  0  0  0  # atno 10763 bound_to 10752
  154.7623  135.3135  154.8356 H   0  0  0  0  0  0  0  0  0  0  0  0  # atno 10764 bound_to 10752
  153.8908  135.6885  153.4814 H   0  0  0  0  0  0  0  0  0  0  0  0  # atno 10765 bound_to 10752
  140.4247  134.6573  157.4682 H   0  0  0  0  0  0  0  0  0  0  0  0  # atno 11005 bound_to 11000
  146.2930  140.4236  142.8732 LP  0  0  0  0  0  0  0  0  0  0  0  0  # atno 17320 bound_to 7965
  144.8651  140.7195  143.6082 LP  0  0  0  0  0  0  0  0  0  0  0  0  # atno 17321 bound_to 7965
  140.6131  143.2170  151.6846 LP  0  0  0  0  0  0  0  0  0  0  0  0  # atno 17342 bound_to 10162
  139.5085  144.3609  152.0563 LP  0  0  0  0  0  0  0  0  0  0  0  0  # atno 17343 bound_to 10162
  157.6900  131.0813  150.7135 LP  0  0  0  0  0  0  0  0  0  0  0  0  # atno 17370 bound_to 10713
  156.7192  130.4675  149.5527 LP  0  0  0  0  0  0  0  0  0  0  0  0  # atno 17371 bound_to 10713
  140.0175  134.6597  155.9288 LP  0  0  0  0  0  0  0  0  0  0  0  0  # atno 17394 bound_to 11000
  141.1770  133.6541  156.4866 LP  0  0  0  0  0  0  0  0  0  0  0  0  # atno 17395 bound_to 11000

$$$$
