AV-unprocessed.smi:2999|AV-procd|sdf|11420|dock8
  -GOLD-   2272016343D 1   1.00000     0.00000
 Structure written by MMmdl.
 38 40  0  0  0  0  0  0  0  0  2 V2000
  145.7494  137.6870  154.2626 O   0  0  0  0  0  0  0  0  0  0  0  0
  146.6811  137.3072  153.5533 C   0  0  0  0  0  0  0  0  0  0  0  0
  146.7240  136.0988  152.9746 N   0  0  0  0  0  0  0  0  0  0  0  0
  145.6952  135.0693  153.0977 C   0  0  0  0  0  0  0  0  0  0  0  0
  146.2707  133.6570  153.3303 C   0  0  1  0  0  0  0  0  0  0  0  0
  146.7786  132.9731  152.0395 C   0  0  0  0  0  0  0  0  0  0  0  0
  147.3661  131.6430  152.3258 N   0  3  2  0  0  0  0  0  0  0  0  0
  146.3530  130.5896  152.5684 C   0  0  0  0  0  0  0  0  0  0  0  0
  146.4959  129.3949  151.6552 C   0  0  0  0  0  0  0  0  0  0  0  0
  145.3899  130.3995  151.4200 C   0  0  0  0  0  0  0  0  0  0  0  0
  148.3883  131.7341  153.3952 C   0  0  0  0  0  0  0  0  0  0  0  0
  147.8343  132.4514  154.6399 C   0  0  0  0  0  0  0  0  0  0  0  0
  147.3350  133.7314  154.2736 O   0  0  0  0  0  0  0  0  0  0  0  0
  147.7776  138.0268  153.2578 N   0  0  0  0  0  0  0  0  0  0  0  0
  148.1061  139.3403  153.6848 C   0  0  0  0  0  0  0  0  0  0  0  0
  149.2192  139.6594  154.3554 N   0  0  0  0  0  0  0  0  0  0  0  0
  149.2826  141.0246  154.6457 C   0  0  0  0  0  0  0  0  0  0  0  0
  148.2026  141.7348  154.1838 C   0  0  0  0  0  0  0  0  0  0  0  0
  147.0554  140.7114  153.3617 S   0  0  0  0  0  0  0  0  0  0  0  0
  147.5255  135.8746  152.4032 H   0  0  0  0  0  0  0  0  0  0  0  0
  144.9896  135.3276  153.8891 H   0  0  0  0  0  0  0  0  0  0  0  0
  145.1222  135.0736  152.1702 H   0  0  0  0  0  0  0  0  0  0  0  0
  145.4726  133.0561  153.7686 H   0  0  0  0  0  0  0  0  0  0  0  0
  145.9750  132.8809  151.3080 H   0  0  0  0  0  0  0  0  0  0  0  0
  147.5546  133.5807  151.5725 H   0  0  0  0  0  0  0  0  0  0  0  0
  146.0148  130.4571  153.5942 H   0  0  0  0  0  0  0  0  0  0  0  0
  147.3231  129.3835  150.9475 H   0  0  0  0  0  0  0  0  0  0  0  0
  146.2100  128.4227  152.0517 H   0  0  0  0  0  0  0  0  0  0  0  0
  144.3754  130.0893  151.6622 H   0  0  0  0  0  0  0  0  0  0  0  0
  145.4817  131.0536  150.5547 H   0  0  0  0  0  0  0  0  0  0  0  0
  148.7566  130.7405  153.6527 H   0  0  0  0  0  0  0  0  0  0  0  0
  149.2423  132.2911  153.0076 H   0  0  0  0  0  0  0  0  0  0  0  0
  147.0507  131.8651  155.1214 H   0  0  0  0  0  0  0  0  0  0  0  0
  148.6260  132.5827  155.3779 H   0  0  0  0  0  0  0  0  0  0  0  0
  148.4575  137.5847  152.6573 H   0  0  0  0  0  0  0  0  0  0  0  0
  150.1355  141.4073  155.1863 H   0  0  0  0  0  0  0  0  0  0  0  0
  148.0137  142.7938  154.2771 H   0  0  0  0  0  0  0  0  0  0  0  0
  147.8528  131.3578  151.4880 H   0  0  0  0  0  0  0  0  0  0  0  0
  1  2  2  0  0  0  0
  2  3  1  0  0  0  0
  2 14  1  0  0  0  0
  3  4  1  0  0  0  0
  3 20  1  0  0  0  0
  4  5  1  0  0  0  0
  4 21  1  0  0  0  0
  4 22  1  0  0  0  0
  5 13  1  0  0  0  0
  5  6  1  0  0  0  0
  5 23  1  0  0  0  0
  6  7  1  0  0  0  0
  6 24  1  0  0  0  0
  6 25  1  0  0  0  0
  7  8  1  0  0  0  0
  7 11  1  0  0  0  0
  7 38  1  0  0  0  0
  8 10  1  0  0  0  0
  8  9  1  0  0  0  0
  8 26  1  0  0  0  0
  9 10  1  0  0  0  0
  9 27  1  0  0  0  0
  9 28  1  0  0  0  0
 10 29  1  0  0  0  0
 10 30  1  0  0  0  0
 11 12  1  0  0  0  0
 11 31  1  0  0  0  0
 11 32  1  0  0  0  0
 12 13  1  0  0  0  0
 12 33  1  0  0  0  0
 12 34  1  0  0  0  0
 14 15  1  0  0  0  0
 14 35  1  0  0  0  0
 15 19  1  0  0  0  0
 15 16  2  0  0  0  0
 16 17  1  0  0  0  0
 17 18  2  0  0  0  0
 17 36  1  0  0  0  0
 18 19  1  0  0  0  0
 18 37  1  0  0  0  0
M  CHG  1   7   1
M  END
> <s_m_source_file>
AV-unprocessed.smi

> <i_m_source_file_index>
2999

> <i_lp_mmshare_version>
43012

> <i_f3d_flags>
0

> <s_epik_input>
czFbY0hdW2NIXW5jMVtOSF1DKD1PKVtOSF1bQ0gyXVtDQEBIXTJbQ0gyXU4oW0NIMl1bQ0gyXU8yKVtDSF0zW0NIMl1bQ0gyXTM=

> <s_epik_cmdline>
J2VwaWtfcHl0aG9uJywgJy1waCcsICc3LjAnLCAnLXRuJywgJzgnLCAnLW1hJywgJzIwMCcsICctbWV0YWxfYmluZGluZycsICctaW1hZScsICc8aW5maWxlLm1hZT4nLCAnLW9tYWUnLCAnPG91dGZpbGUubWFlPic=

> <r_lp_tautomer_probability>
0.999

> <r_epik_Ionization_Penalty>
1.55235

> <r_epik_Ionization_Penalty_Charging>
1.55221

> <r_epik_Ionization_Penalty_Neutral>
0.000139685

> <r_epik_State_Penalty>
1.64652

> <r_epik_Charging_Adjusted_Penalty>
3.19873

> <i_epik_Tot_Q>
1

> <i_epik_Tot_abs_Q>
1

> <r_epik_Metal_State_Penalty>
1.68612

> <b_epik_Metal_Only>
0

> <s_lp_Force_Field>
OPLS_2005

> <r_lp_Energy>
24.3861

> <b_lp_Chiralities_Consistent>
1

> <s_lp_Variant>
AV-unprocessed.smi:2999-4

> <Gold.Version>
5.8.1

> <Gold.Id.Protein>
6NUR|6NUR_protein|mol2

> <Gold.PLP.Fitness>
39.0949

> <Gold.PLP.PLP>
-28.8975

> <Gold.PLP.part.hbond>
-2.8900

> <Gold.PLP.part.metal>
0.0000

> <Gold.PLP.part.buried>
-1.1326

> <Gold.PLP.part.nonpolar>
-24.6729

> <Gold.PLP.part.repulsive>
0.3538

> <Gold.PLP.ligand.clash>
0.0000

> <Gold.PLP.ligand.torsion>
1.5277

> <Gold.PLP.Chemscore.Hbond>
2.9920

> <Gold.PLP.Chemscore.CHOScore>
1.0000

> <Gold.PLP.Chemscore.Metal>
0.0000

> <Gold.Chemscore.Hbonds>
donor molecule, donor type, donor heavy atom, donor atom, acceptor molecule, acceptor atom, score
      L1  H     3    20       P1  7948  1.00
      L1  H     7    38       P1 10747  1.00
      L1  H    14    35       P1  7948  0.99
      L1  C    18    37       P1  8028  1.00

> <Gold.PLP.Chemscore.Internal.Correction>
1.2768

> <Gold.Rescore>
     Score         DG    S(hbond)    S(metal)    S(lipo)     H(rot)  DE(clash)    DE(int)     intcor
     17.83     -19.43       2.92        0.00      70.56       1.58       0.11       1.48       ----

> <Gold.Chemscore.Fitness>
17.8349

> <Gold.Chemscore.DG>
-19.4303

> <Gold.Chemscore.ZeroCoef>
-5.4800

> <Gold.Chemscore.Hbond>
2.9155

> <Gold.Chemscore.Metal>
0.0000

> <Gold.Chemscore.Lipo>
70.5628

> <Gold.Chemscore.Internal_Hbond>
0.0000

> <Gold.Chemscore.DEClash>
0.1139

> <Gold.Chemscore.DEInternal>
1.4815

> <Gold.Chemscore.Rot>
1.5795

> <Gold.Chemscore.Internal.Correction>
   9.000000E+99

> <Gold.Chemscore.Hbonds>
donor molecule, donor type, donor heavy atom, donor atom, acceptor molecule, acceptor atom, score
      L1  H     3    20       P1  7948  0.92
      L1  H     7    38       P1 10747  1.00
      L1  H    14    35       P1  7948  0.94

> <Gold.Chemscore.Hbond.Weighted>
-9.7379

> <Gold.Chemscore.Metal.Weighted>
-0.0000

> <Gold.Chemscore.Lipo.Weighted>
-8.2558

> <Gold.Chemscore.Internal_Hbond.Weighted>
0.0000

> <Gold.Chemscore.DEClash.Weighted>
0.1139

> <Gold.Chemscore.DEInternal.Weighted>
1.4815

> <Gold.Chemscore.Rot.Weighted>
4.0434

> <Gold.Chemscore.Internal.Correction.Weighted>
   9.000000E+99

> <Gold.Protein.RotatedTorsions>
[ 6907 6896 6895 6894 ] final   64.71 input  -60.11 | X-H torsion
[ 7974 7965 7964 7962 ] final  124.28 input  175.53 | X-H torsion
[ 8008 7997 7996 7995 ] final -158.06 input   59.86 | X-H torsion
[ 10167 10162 10161 10158 ] final  108.17 input  -65.29 | X-H torsion
[ 10718 10713 10712 10709 ] final  154.31 input   66.30 | X-H torsion
[ 10763 10752 10751 10750 ] final    8.49 input  -60.55 | X-H torsion
[ 11005 11000 10999 10996 ] final -145.81 input  -57.11 | X-H torsion

> <Gold.Protein.ActiveResidues>
 VAL166  LYS551  ARG553  GLY616  TRP617  ASP618  TYR619  PRO620  LYS621  CYS622 
 ASP623  PHE694  ASN695  SER759  ASP760  ASP761  ALA762  ILE779  LEU786  VAL792 
 PHE793  MET794  SER795  GLU796  ALA797  LYS798  CYS799  TRP800  GLU811  SER814 

> <Gold.Protein.RotatedAtoms>
  152.4352  134.5700  159.9918 H   0  0  0  0  0  0  0  0  0  0  0  0  # atno 6907 bound_to 6896
  151.5812  133.3372  159.3017 H   0  0  0  0  0  0  0  0  0  0  0  0  # atno 6908 bound_to 6896
  150.8249  134.7511  159.6869 H   0  0  0  0  0  0  0  0  0  0  0  0  # atno 6909 bound_to 6896
  145.0862  139.3620  143.4884 H   0  0  0  0  0  0  0  0  0  0  0  0  # atno 7974 bound_to 7965
  155.7418  140.0815  157.2242 H   0  0  0  0  0  0  0  0  0  0  0  0  # atno 8008 bound_to 7997
  154.4021  140.1576  156.2680 H   0  0  0  0  0  0  0  0  0  0  0  0  # atno 8009 bound_to 7997
  155.9013  140.3409  155.6031 H   0  0  0  0  0  0  0  0  0  0  0  0  # atno 8010 bound_to 7997
  139.6868  144.7112  151.1418 H   0  0  0  0  0  0  0  0  0  0  0  0  # atno 10167 bound_to 10162
  157.2332  131.0743  151.1840 H   0  0  0  0  0  0  0  0  0  0  0  0  # atno 10718 bound_to 10713
  153.2245  135.6885  153.7961 H   0  0  0  0  0  0  0  0  0  0  0  0  # atno 10763 bound_to 10752
  153.7148  135.3276  155.3255 H   0  0  0  0  0  0  0  0  0  0  0  0  # atno 10764 bound_to 10752
  154.8285  135.4599  154.1106 H   0  0  0  0  0  0  0  0  0  0  0  0  # atno 10765 bound_to 10752
  140.7885  134.2996  157.5022 H   0  0  0  0  0  0  0  0  0  0  0  0  # atno 11005 bound_to 11000
  146.3531  140.0675  142.8625 LP  0  0  0  0  0  0  0  0  0  0  0  0  # atno 17320 bound_to 7965
  145.1120  140.9410  143.4651 LP  0  0  0  0  0  0  0  0  0  0  0  0  # atno 17321 bound_to 7965
  140.7670  143.5618  150.9091 LP  0  0  0  0  0  0  0  0  0  0  0  0  # atno 17342 bound_to 10162
  139.9293  143.6513  152.3080 LP  0  0  0  0  0  0  0  0  0  0  0  0  # atno 17343 bound_to 10162
  157.3456  130.7055  149.6408 LP  0  0  0  0  0  0  0  0  0  0  0  0  # atno 17370 bound_to 10713
  155.9674  130.4267  150.4712 LP  0  0  0  0  0  0  0  0  0  0  0  0  # atno 17371 bound_to 10713
  139.8734  134.9360  156.3649 LP  0  0  0  0  0  0  0  0  0  0  0  0  # atno 17394 bound_to 11000
  140.9413  133.7512  156.0150 LP  0  0  0  0  0  0  0  0  0  0  0  0  # atno 17395 bound_to 11000

$$$$
