AV-unprocessed.smi:2280|AV-procd|sdf|9191|dock3
  -GOLD-   2272012403D 1   1.00000     0.00000
 Structure written by MMmdl.
 41 42  0  0  0  0  0  0  0  0  1 V2000
  153.5566  130.9821  163.7166 C   0  0  0  0  0  0  0  0  0  0  0  0
  153.8526  132.4227  163.3389 C   0  0  0  0  0  0  0  0  0  0  0  0
  154.3497  132.6189  162.0471 N   0  0  0  0  0  0  0  0  0  0  0  0
  154.6391  133.8122  161.6420 C   0  0  0  0  0  0  0  0  0  0  0  0
  154.4712  134.9334  162.4706 N   0  0  0  0  0  0  0  0  0  0  0  0
  154.8458  136.2334  161.8908 C   0  0  0  0  0  0  0  0  0  0  0  0
  153.6274  136.9825  161.3058 C   0  0  2  0  0  0  0  0  0  0  0  0
  153.1924  136.3585  160.1147 O   0  0  0  0  0  0  0  0  0  0  0  0
  153.9255  138.4548  160.9769 C   0  0  0  0  0  0  0  0  0  0  0  0
  153.0942  138.8796  159.9042 O   0  0  0  0  0  0  0  0  0  0  0  0
  152.8171  140.2239  159.7695 C   0  0  0  0  0  0  0  0  0  0  0  0
  153.3649  141.2242  160.6127 C   0  0  0  0  0  0  0  0  0  0  0  0
  153.0391  142.5794  160.4204 C   0  0  0  0  0  0  0  0  0  0  0  0
  152.1640  142.9530  159.3862 C   0  0  0  0  0  0  0  0  0  0  0  0
  151.6142  141.9697  158.5441 C   0  0  0  0  0  0  0  0  0  0  0  0
  151.9347  140.6056  158.7288 C   0  0  0  0  0  0  0  0  0  0  0  0
  151.3370  139.5430  157.8116 C   0  0  0  0  0  0  0  0  0  0  0  0
  150.5643  140.0774  156.8652 F   0  0  0  0  0  0  0  0  0  0  0  0
  152.3139  138.8604  157.2138 F   0  0  0  0  0  0  0  0  0  0  0  0
  150.5943  138.6963  158.5254 F   0  0  0  0  0  0  0  0  0  0  0  0
  153.9716  134.8339  163.7365 C   0  0  0  0  0  0  0  0  0  0  0  0
  153.8014  135.8282  164.4449 O   0  0  0  0  0  0  0  0  0  0  0  0
  153.6541  133.4690  164.1867 C   0  0  0  0  0  0  0  0  0  0  0  0
  153.1175  133.3156  165.6046 C   0  0  0  0  0  0  0  0  0  0  0  0
  154.1582  130.6807  164.5745 H   0  0  0  0  0  0  0  0  0  0  0  0
  153.7817  130.3014  162.8948 H   0  0  0  0  0  0  0  0  0  0  0  0
  152.5031  130.8625  163.9697 H   0  0  0  0  0  0  0  0  0  0  0  0
  155.0239  134.0203  160.6421 H   0  0  0  0  0  0  0  0  0  0  0  0
  155.3011  136.8417  162.6748 H   0  0  0  0  0  0  0  0  0  0  0  0
  155.6339  136.1355  161.1407 H   0  0  0  0  0  0  0  0  0  0  0  0
  152.7941  136.9601  162.0092 H   0  0  0  0  0  0  0  0  0  0  0  0
  153.8589  136.4771  159.4549 H   0  0  0  0  0  0  0  0  0  0  0  0
  153.7842  139.0807  161.8599 H   0  0  0  0  0  0  0  0  0  0  0  0
  154.9702  138.5395  160.6730 H   0  0  0  0  0  0  0  0  0  0  0  0
  154.0394  140.9779  161.4182 H   0  0  0  0  0  0  0  0  0  0  0  0
  153.4616  143.3332  161.0685 H   0  0  0  0  0  0  0  0  0  0  0  0
  151.9141  143.9933  159.2384 H   0  0  0  0  0  0  0  0  0  0  0  0
  150.9440  142.2762  157.7548 H   0  0  0  0  0  0  0  0  0  0  0  0
  152.2055  133.9008  165.7276 H   0  0  0  0  0  0  0  0  0  0  0  0
  153.8518  133.6776  166.3249 H   0  0  0  0  0  0  0  0  0  0  0  0
  152.8820  132.2853  165.8660 H   0  0  0  0  0  0  0  0  0  0  0  0
  1  2  1  0  0  0  0
  1 25  1  0  0  0  0
  1 26  1  0  0  0  0
  1 27  1  0  0  0  0
  2 23  2  0  0  0  0
  2  3  1  0  0  0  0
  3  4  2  0  0  0  0
  4  5  1  0  0  0  0
  4 28  1  0  0  0  0
  5  6  1  0  0  0  0
  5 21  1  0  0  0  0
  6  7  1  0  0  0  0
  6 29  1  0  0  0  0
  6 30  1  0  0  0  0
  7  8  1  0  0  0  0
  7  9  1  0  0  0  0
  7 31  1  0  0  0  0
  8 32  1  0  0  0  0
  9 10  1  0  0  0  0
  9 33  1  0  0  0  0
  9 34  1  0  0  0  0
 10 11  1  0  0  0  0
 11 16  1  0  0  0  0
 11 12  2  0  0  0  0
 12 13  1  0  0  0  0
 12 35  1  0  0  0  0
 13 14  2  0  0  0  0
 13 36  1  0  0  0  0
 14 15  1  0  0  0  0
 14 37  1  0  0  0  0
 15 16  2  0  0  0  0
 15 38  1  0  0  0  0
 16 17  1  0  0  0  0
 17 18  1  0  0  0  0
 17 19  1  0  0  0  0
 17 20  1  0  0  0  0
 21 22  2  0  0  0  0
 21 23  1  0  0  0  0
 23 24  1  0  0  0  0
 24 39  1  0  0  0  0
 24 40  1  0  0  0  0
 24 41  1  0  0  0  0
M  END
> <s_m_source_file>
AV-unprocessed.smi

> <i_m_source_file_index>
2280

> <i_lp_mmshare_version>
43012

> <i_f3d_flags>
0

> <s_epik_input>
W0NIM11jMW5bY0hdbihjKD1PKWMxW0NIM10pW0NIMl1bQ0BIXShbT0hdKVtDSDJdT2MyW2NIXVtjSF1bY0hdW2NIXWMyQyhGKShGKUY=

> <s_epik_cmdline>
J2VwaWtfcHl0aG9uJywgJy1waCcsICc3LjAnLCAnLXRuJywgJzgnLCAnLW1hJywgJzIwMCcsICctbWV0YWxfYmluZGluZycsICctaW1hZScsICc8aW5maWxlLm1hZT4nLCAnLW9tYWUnLCAnPG91dGZpbGUubWFlPic=

> <r_lp_tautomer_probability>
1

> <r_epik_Ionization_Penalty>
3.7476e-05

> <r_epik_Ionization_Penalty_Charging>
8.44705e-08

> <r_epik_Ionization_Penalty_Neutral>
3.73915e-05

> <r_epik_State_Penalty>
-0

> <r_epik_Charging_Adjusted_Penalty>
8.44705e-08

> <i_epik_Tot_Q>
0

> <i_epik_Tot_abs_Q>
0

> <r_epik_Metal_State_Penalty>
-0

> <b_epik_Metal_Only>
0

> <s_lp_Force_Field>
OPLS_2005

> <r_lp_Energy>
25.7706

> <b_lp_Chiralities_Consistent>
1

> <s_lp_Variant>
AV-unprocessed.smi:2280-1

> <Gold.Version>
5.8.1

> <Gold.Id.Protein>
6NUR|6NUR_protein|mol2

> <Gold.PLP.Fitness>
44.1523

> <Gold.PLP.PLP>
-42.8881

> <Gold.PLP.part.hbond>
-1.0000

> <Gold.PLP.part.metal>
0.0000

> <Gold.PLP.part.buried>
-5.7994

> <Gold.PLP.part.nonpolar>
-36.0735

> <Gold.PLP.part.repulsive>
0.0869

> <Gold.PLP.ligand.clash>
0.4014

> <Gold.PLP.ligand.torsion>
0.9247

> <Gold.PLP.Chemscore.Hbond>
1.0000

> <Gold.PLP.Chemscore.CHOScore>
0.0000

> <Gold.PLP.Chemscore.Metal>
0.0000

> <Gold.Chemscore.Hbonds>
donor molecule, donor type, donor heavy atom, donor atom, acceptor molecule, acceptor atom, score
      P1  H  6896  6908       L1     8  1.00

> <Gold.PLP.Chemscore.Internal.Correction>
0.5150

> <Gold.Rescore>
     Score         DG    S(hbond)    S(metal)    S(lipo)     H(rot)  DE(clash)    DE(int)     intcor
     11.08     -14.95       0.97        0.00     113.12       2.73       0.15       3.72       ----

> <Gold.Chemscore.Fitness>
11.0810

> <Gold.Chemscore.DG>
-14.9509

> <Gold.Chemscore.ZeroCoef>
-5.4800

> <Gold.Chemscore.Hbond>
0.9655

> <Gold.Chemscore.Metal>
0.0000

> <Gold.Chemscore.Lipo>
113.1182

> <Gold.Chemscore.Internal_Hbond>
0.0000

> <Gold.Chemscore.DEClash>
0.1501

> <Gold.Chemscore.DEInternal>
3.7197

> <Gold.Chemscore.Rot>
2.7300

> <Gold.Chemscore.Internal.Correction>
   9.000000E+99

> <Gold.Chemscore.Hbonds>
donor molecule, donor type, donor heavy atom, donor atom, acceptor molecule, acceptor atom, score
      P1  H  6896  6908       L1     8  0.98

> <Gold.Chemscore.Hbond.Weighted>
-3.2248

> <Gold.Chemscore.Metal.Weighted>
-0.0000

> <Gold.Chemscore.Lipo.Weighted>
-13.2348

> <Gold.Chemscore.Internal_Hbond.Weighted>
0.0000

> <Gold.Chemscore.DEClash.Weighted>
0.1501

> <Gold.Chemscore.DEInternal.Weighted>
3.7197

> <Gold.Chemscore.Rot.Weighted>
6.9888

> <Gold.Chemscore.Internal.Correction.Weighted>
   9.000000E+99

> <Gold.Protein.RotatedTorsions>
[ 6907 6896 6895 6894 ] final  -89.68 input  -60.11 | X-H torsion
[ 7974 7965 7964 7962 ] final -141.57 input  175.53 | X-H torsion
[ 8008 7997 7996 7995 ] final  -65.08 input   59.86 | X-H torsion
[ 10167 10162 10161 10158 ] final  -59.41 input  -65.29 | X-H torsion
[ 10718 10713 10712 10709 ] final   21.29 input   66.30 | X-H torsion
[ 10763 10752 10751 10750 ] final   72.75 input  -60.55 | X-H torsion
[ 11005 11000 10999 10996 ] final -171.66 input  -57.11 | X-H torsion

> <Gold.Protein.ActiveResidues>
 VAL166  LYS551  ARG553  GLY616  TRP617  ASP618  TYR619  PRO620  LYS621  CYS622 
 ASP623  PHE694  ASN695  SER759  ASP760  ASP761  ALA762  ILE779  LEU786  VAL792 
 PHE793  MET794  SER795  GLU796  ALA797  LYS798  CYS799  TRP800  GLU811  SER814 

> <Gold.Protein.RotatedAtoms>
  150.6875  134.2549  159.4525 H   0  0  0  0  0  0  0  0  0  0  0  0  # atno 6907 bound_to 6896
  152.0483  134.9666  160.0584 H   0  0  0  0  0  0  0  0  0  0  0  0  # atno 6908 bound_to 6896
  152.1141  133.4282  159.4681 H   0  0  0  0  0  0  0  0  0  0  0  0  # atno 6909 bound_to 6896
  144.8509  140.6064  143.5390 H   0  0  0  0  0  0  0  0  0  0  0  0  # atno 7974 bound_to 7965
  154.4650  140.0940  156.6995 H   0  0  0  0  0  0  0  0  0  0  0  0  # atno 8008 bound_to 7997
  155.4884  140.3470  155.4332 H   0  0  0  0  0  0  0  0  0  0  0  0  # atno 8009 bound_to 7997
  156.0940  140.1404  156.9544 H   0  0  0  0  0  0  0  0  0  0  0  0  # atno 8010 bound_to 7997
  140.6137  143.2395  151.5649 H   0  0  0  0  0  0  0  0  0  0  0  0  # atno 10167 bound_to 10162
  157.1364  130.6613  149.5967 H   0  0  0  0  0  0  0  0  0  0  0  0  # atno 10718 bound_to 10713
  153.0478  135.5088  154.7791 H   0  0  0  0  0  0  0  0  0  0  0  0  # atno 10763 bound_to 10752
  154.6677  135.2948  154.9785 H   0  0  0  0  0  0  0  0  0  0  0  0  # atno 10764 bound_to 10752
  154.0614  135.6690  153.4865 H   0  0  0  0  0  0  0  0  0  0  0  0  # atno 10765 bound_to 10752
  140.5058  134.5850  157.5003 H   0  0  0  0  0  0  0  0  0  0  0  0  # atno 11005 bound_to 11000
  145.4501  139.1524  143.3923 LP  0  0  0  0  0  0  0  0  0  0  0  0  # atno 17320 bound_to 7965
  146.2784  140.4627  142.8786 LP  0  0  0  0  0  0  0  0  0  0  0  0  # atno 17321 bound_to 7965
  139.5381  144.2724  152.1294 LP  0  0  0  0  0  0  0  0  0  0  0  0  # atno 17342 bound_to 10162
  140.1928  144.4735  150.6470 LP  0  0  0  0  0  0  0  0  0  0  0  0  # atno 17343 bound_to 10162
  155.9797  130.4793  150.6732 LP  0  0  0  0  0  0  0  0  0  0  0  0  # atno 17370 bound_to 10713
  157.4346  131.0853  151.1004 LP  0  0  0  0  0  0  0  0  0  0  0  0  # atno 17371 bound_to 10713
  139.9687  134.7329  156.0085 LP  0  0  0  0  0  0  0  0  0  0  0  0  # atno 17394 bound_to 11000
  141.1412  133.6564  156.3734 LP  0  0  0  0  0  0  0  0  0  0  0  0  # atno 17395 bound_to 11000

$$$$
