AV-unprocessed.smi:1219|AV-procd|sdf|5112|dock8
  -GOLD-   22720 4173D 1   1.00000     0.00000
 Structure written by MMmdl.
 43 44  0  0  0  0  0  0  0  0  2 V2000
  146.6665  139.3416  153.9783 O   0  0  0  0  0  0  0  0  0  0  0  0
  147.4440  138.6491  153.3212 C   0  0  0  0  0  0  0  0  0  0  0  0
  147.0406  137.7518  152.4104 N   0  0  0  0  0  0  0  0  0  0  0  0
  145.6493  137.4438  152.0958 C   0  0  0  0  0  0  0  0  0  0  0  0
  145.4866  136.0361  151.4841 C   0  0  2  0  0  0  0  0  0  0  0  0
  145.2639  136.1743  150.0943 O   0  0  0  0  0  0  0  0  0  0  0  0
  144.2573  135.3085  152.0669 C   0  0  0  0  0  0  0  0  0  0  0  0
  144.3313  133.8331  151.9062 N   0  3  0  0  0  0  0  0  0  0  0  0
  145.6105  133.2762  152.4187 C   0  0  0  0  0  0  0  0  0  0  0  0
  145.6052  131.7389  152.3774 C   0  0  0  0  0  0  0  0  0  0  0  0
  145.3199  131.2277  150.9597 C   0  0  0  0  0  0  0  0  0  0  0  0
  144.0143  131.8400  150.4361 C   0  0  0  0  0  0  0  0  0  0  0  0
  144.0526  133.3754  150.5182 C   0  0  0  0  0  0  0  0  0  0  0  0
  148.7851  138.6833  153.4116 N   0  0  0  0  0  0  0  0  0  0  0  0
  149.5864  139.4804  154.2720 C   0  0  0  0  0  0  0  0  0  0  0  0
  150.8372  138.9189  154.6152 C   0  0  0  0  0  0  0  0  0  0  0  0
  151.7045  139.6286  155.4682 C   0  0  0  0  0  0  0  0  0  0  0  0
  151.2990  140.8837  155.9554 C   0  0  0  0  0  0  0  0  0  0  0  0
  150.0390  141.3715  155.5633 C   0  0  0  0  0  0  0  0  0  0  0  0
  149.2058  140.6929  154.7464 N   0  0  0  0  0  0  0  0  0  0  0  0
  147.7465  137.2256  151.9162 H   0  0  0  0  0  0  0  0  0  0  0  0
  145.1162  137.4900  153.0457 H   0  0  0  0  0  0  0  0  0  0  0  0
  145.2023  138.2145  151.4647 H   0  0  0  0  0  0  0  0  0  0  0  0
  146.3929  135.4548  151.6524 H   0  0  0  0  0  0  0  0  0  0  0  0
  144.7057  136.9255  149.9525 H   0  0  0  0  0  0  0  0  0  0  0  0
  144.1342  135.5457  153.1247 H   0  0  0  0  0  0  0  0  0  0  0  0
  143.3651  135.6894  151.5668 H   0  0  0  0  0  0  0  0  0  0  0  0
  146.4409  133.6674  151.8287 H   0  0  0  0  0  0  0  0  0  0  0  0
  145.7699  133.6030  153.4470 H   0  0  0  0  0  0  0  0  0  0  0  0
  146.5635  131.3532  152.7264 H   0  0  0  0  0  0  0  0  0  0  0  0
  144.8491  131.3571  153.0648 H   0  0  0  0  0  0  0  0  0  0  0  0
  146.1448  131.4938  150.2975 H   0  0  0  0  0  0  0  0  0  0  0  0
  145.2548  130.1392  150.9567 H   0  0  0  0  0  0  0  0  0  0  0  0
  143.8436  131.5256  149.4061 H   0  0  0  0  0  0  0  0  0  0  0  0
  143.1724  131.4629  151.0183 H   0  0  0  0  0  0  0  0  0  0  0  0
  143.0983  133.7695  150.1711 H   0  0  0  0  0  0  0  0  0  0  0  0
  144.8176  133.7661  149.8451 H   0  0  0  0  0  0  0  0  0  0  0  0
  149.2926  138.0549  152.8067 H   0  0  0  0  0  0  0  0  0  0  0  0
  151.1329  137.9528  154.2326 H   0  0  0  0  0  0  0  0  0  0  0  0
  152.6636  139.2159  155.7441 H   0  0  0  0  0  0  0  0  0  0  0  0
  151.9364  141.4574  156.6120 H   0  0  0  0  0  0  0  0  0  0  0  0
  149.6894  142.3308  155.9155 H   0  0  0  0  0  0  0  0  0  0  0  0
  143.6039  133.4530  152.4959 H   0  0  0  0  0  0  0  0  0  0  0  0
  1  2  2  0  0  0  0
  2  3  1  0  0  0  0
  2 14  1  0  0  0  0
  3  4  1  0  0  0  0
  3 21  1  0  0  0  0
  4  5  1  0  0  0  0
  4 22  1  0  0  0  0
  4 23  1  0  0  0  0
  5  6  1  0  0  0  0
  5  7  1  0  0  0  0
  5 24  1  0  0  0  0
  6 25  1  0  0  0  0
  7  8  1  0  0  0  0
  7 26  1  0  0  0  0
  7 27  1  0  0  0  0
  8 13  1  0  0  0  0
  8  9  1  0  0  0  0
  8 43  1  0  0  0  0
  9 10  1  0  0  0  0
  9 28  1  0  0  0  0
  9 29  1  0  0  0  0
 10 11  1  0  0  0  0
 10 30  1  0  0  0  0
 10 31  1  0  0  0  0
 11 12  1  0  0  0  0
 11 32  1  0  0  0  0
 11 33  1  0  0  0  0
 12 13  1  0  0  0  0
 12 34  1  0  0  0  0
 12 35  1  0  0  0  0
 13 36  1  0  0  0  0
 13 37  1  0  0  0  0
 14 15  1  0  0  0  0
 14 38  1  0  0  0  0
 15 20  1  0  0  0  0
 15 16  2  0  0  0  0
 16 17  1  0  0  0  0
 16 39  1  0  0  0  0
 17 18  2  0  0  0  0
 17 40  1  0  0  0  0
 18 19  1  0  0  0  0
 18 41  1  0  0  0  0
 19 20  2  0  0  0  0
 19 42  1  0  0  0  0
M  CHG  1   8   1
M  END
> <s_m_source_file>
AV-unprocessed.smi

> <i_m_source_file_index>
1219

> <i_lp_mmshare_version>
43012

> <i_f3d_flags>
0

> <s_epik_input>
bjFbY0hdW2NIXVtjSF1bY0hdYzFbTkhdQyg9TylbTkhdW0NIMl1bQ0BIXShbT0hdKVtDSDJdTjJbQ0gyXVtDSDJdW0NIMl1bQ0gyXVtDSDJdMg==

> <s_epik_cmdline>
J2VwaWtfcHl0aG9uJywgJy1waCcsICc3LjAnLCAnLXRuJywgJzgnLCAnLW1hJywgJzIwMCcsICctbWV0YWxfYmluZGluZycsICctaW1hZScsICc8aW5maWxlLm1hZT4nLCAnLW9tYWUnLCAnPG91dGZpbGUubWFlPic=

> <r_epik_Ionization_Penalty>
0.00510026

> <r_epik_Ionization_Penalty_Charging>
0.00506051

> <r_epik_Ionization_Penalty_Neutral>
3.97538e-05

> <r_epik_State_Penalty>
0.00368188

> <r_epik_Charging_Adjusted_Penalty>
0.0087424

> <i_epik_Tot_Q>
1

> <i_epik_Tot_abs_Q>
1

> <r_epik_Metal_State_Penalty>
-0

> <b_epik_Metal_Only>
0

> <s_lp_Force_Field>
OPLS_2005

> <r_lp_Energy>
20.5821

> <b_lp_Chiralities_Consistent>
1

> <s_lp_Variant>
AV-unprocessed.smi:1219-1

> <Gold.Version>
5.8.1

> <Gold.Id.Protein>
6NUR|6NUR_protein|mol2

> <Gold.PLP.Fitness>
49.0643

> <Gold.PLP.PLP>
-40.3654

> <Gold.PLP.part.hbond>
-4.8339

> <Gold.PLP.part.metal>
0.0000

> <Gold.PLP.part.buried>
-5.3079

> <Gold.PLP.part.nonpolar>
-31.4182

> <Gold.PLP.part.repulsive>
0.3943

> <Gold.PLP.ligand.clash>
0.0000

> <Gold.PLP.ligand.torsion>
1.2432

> <Gold.PLP.Chemscore.Hbond>
2.7174

> <Gold.PLP.Chemscore.CHOScore>
1.0000

> <Gold.PLP.Chemscore.Metal>
0.0000

> <Gold.Chemscore.Hbonds>
donor molecule, donor type, donor heavy atom, donor atom, acceptor molecule, acceptor atom, score
      L1  H     3    21       P1  7948  1.00
      L1  H     6    25       P1 10171  1.00
      L1  H    14    38       P1  7948  0.76
      L1  C    19    42       P1  8028  0.99

> <Gold.PLP.Chemscore.Internal.Correction>
0.0330

> <Gold.Rescore>
     Score         DG    S(hbond)    S(metal)    S(lipo)     H(rot)  DE(clash)    DE(int)     intcor
     15.99     -18.37       2.81        0.00      82.59       2.41       0.02       2.36       ----

> <Gold.Chemscore.Fitness>
15.9948

> <Gold.Chemscore.DG>
-18.3701

> <Gold.Chemscore.ZeroCoef>
-5.4800

> <Gold.Chemscore.Hbond>
2.8109

> <Gold.Chemscore.Metal>
0.0000

> <Gold.Chemscore.Lipo>
82.5887

> <Gold.Chemscore.Internal_Hbond>
0.0000

> <Gold.Chemscore.DEClash>
0.0187

> <Gold.Chemscore.DEInternal>
2.3566

> <Gold.Chemscore.Rot>
2.4067

> <Gold.Chemscore.Internal.Correction>
   9.000000E+99

> <Gold.Chemscore.Hbonds>
donor molecule, donor type, donor heavy atom, donor atom, acceptor molecule, acceptor atom, score
      L1  H     3    21       P1  7948  0.92
      L1  H     6    25       P1 10171  1.00
      L1  H    14    38       P1  7948  0.67

> <Gold.Chemscore.Hbond.Weighted>
-9.3885

> <Gold.Chemscore.Metal.Weighted>
-0.0000

> <Gold.Chemscore.Lipo.Weighted>
-9.6629

> <Gold.Chemscore.Internal_Hbond.Weighted>
0.0000

> <Gold.Chemscore.DEClash.Weighted>
0.0187

> <Gold.Chemscore.DEInternal.Weighted>
2.3566

> <Gold.Chemscore.Rot.Weighted>
6.1612

> <Gold.Chemscore.Internal.Correction.Weighted>
   9.000000E+99

> <Gold.Protein.RotatedTorsions>
[ 6907 6896 6895 6894 ] final   -7.07 input  -60.11 | X-H torsion
[ 7974 7965 7964 7962 ] final   -1.54 input  175.53 | X-H torsion
[ 8008 7997 7996 7995 ] final   18.73 input   59.86 | X-H torsion
[ 10167 10162 10161 10158 ] final  -70.06 input  -65.29 | X-H torsion
[ 10718 10713 10712 10709 ] final -157.09 input   66.30 | X-H torsion
[ 10763 10752 10751 10750 ] final -142.03 input  -60.55 | X-H torsion
[ 11005 11000 10999 10996 ] final  -51.03 input  -57.11 | X-H torsion

> <Gold.Protein.ActiveResidues>
 VAL166  LYS551  ARG553  GLY616  TRP617  ASP618  TYR619  PRO620  LYS621  CYS622 
 ASP623  PHE694  ASN695  SER759  ASP760  ASP761  ALA762  ILE779  LEU786  VAL792 
 PHE793  MET794  SER795  GLU796  ALA797  LYS798  CYS799  TRP800  GLU811  SER814 

> <Gold.Protein.RotatedAtoms>
  151.4554  135.1034  159.9709 H   0  0  0  0  0  0  0  0  0  0  0  0  # atno 6907 bound_to 6896
  152.4872  133.8401  159.7158 H   0  0  0  0  0  0  0  0  0  0  0  0  # atno 6908 bound_to 6896
  150.8993  133.7080  159.2910 H   0  0  0  0  0  0  0  0  0  0  0  0  # atno 6909 bound_to 6896
  146.2416  140.1436  142.8335 H   0  0  0  0  0  0  0  0  0  0  0  0  # atno 7974 bound_to 7965
  154.9103  140.3013  155.5270 H   0  0  0  0  0  0  0  0  0  0  0  0  # atno 8008 bound_to 7997
  156.3015  140.2390  156.4077 H   0  0  0  0  0  0  0  0  0  0  0  0  # atno 8009 bound_to 7997
  154.8432  140.0413  157.1544 H   0  0  0  0  0  0  0  0  0  0  0  0  # atno 8010 bound_to 7997
  140.5382  143.2316  151.7138 H   0  0  0  0  0  0  0  0  0  0  0  0  # atno 10167 bound_to 10162
  156.5355  130.8540  151.2731 H   0  0  0  0  0  0  0  0  0  0  0  0  # atno 10718 bound_to 10713
  154.8524  135.3507  154.5963 H   0  0  0  0  0  0  0  0  0  0  0  0  # atno 10763 bound_to 10752
  153.6572  135.6991  153.5194 H   0  0  0  0  0  0  0  0  0  0  0  0  # atno 10764 bound_to 10752
  153.2846  135.4253  155.1068 H   0  0  0  0  0  0  0  0  0  0  0  0  # atno 10765 bound_to 10752
  141.0849  133.6645  156.3818 H   0  0  0  0  0  0  0  0  0  0  0  0  # atno 11005 bound_to 11000
  145.0226  140.8806  143.5158 LP  0  0  0  0  0  0  0  0  0  0  0  0  # atno 17320 bound_to 7965
  145.1487  139.2527  143.5452 LP  0  0  0  0  0  0  0  0  0  0  0  0  # atno 17321 bound_to 7965
  139.4979  144.4010  152.0181 LP  0  0  0  0  0  0  0  0  0  0  0  0  # atno 17342 bound_to 10162
  140.3117  144.3530  150.6032 LP  0  0  0  0  0  0  0  0  0  0  0  0  # atno 17343 bound_to 10162
  157.7414  130.9870  150.2446 LP  0  0  0  0  0  0  0  0  0  0  0  0  # atno 17370 bound_to 10713
  156.3020  130.3760  149.7741 LP  0  0  0  0  0  0  0  0  0  0  0  0  # atno 17371 bound_to 10713
  140.5386  134.6143  157.5372 LP  0  0  0  0  0  0  0  0  0  0  0  0  # atno 17394 bound_to 11000
  139.9666  134.7362  156.0126 LP  0  0  0  0  0  0  0  0  0  0  0  0  # atno 17395 bound_to 11000

$$$$
