AV-unprocessed.smi:218|AV-procd|sdf|1666|dock9
  -GOLD-   2262020 73D 1   1.00000     0.00000
 Structure written by MMmdl.
 54 57  0  0  0  0  0  0  0  0  1 V2000
  154.7667  140.1215  161.3513 C   0  0  0  0  0  0  0  0  0  0  0  0
  154.1331  141.5052  161.1650 C   0  0  0  0  0  0  0  0  0  0  0  0
  152.8204  141.6274  161.9578 C   0  0  0  0  0  0  0  0  0  0  0  0
  153.8856  141.6641  159.7663 O   0  0  0  0  0  0  0  0  0  0  0  0
  152.8768  142.5015  159.3298 C   0  0  0  0  0  0  0  0  0  0  0  0
  151.7576  141.9245  158.6951 C   0  0  0  0  0  0  0  0  0  0  0  0
  150.7270  142.7670  158.2292 C   0  0  0  0  0  0  0  0  0  0  0  0
  149.5116  142.1950  157.5205 C   0  0  0  0  0  0  0  0  0  0  0  0
  149.4437  142.4734  156.0899 N   0  0  0  0  0  0  0  0  0  0  0  0
  149.4869  141.4706  155.1849 C   0  0  0  0  0  0  0  0  0  0  0  0
  150.0846  141.6388  153.9764 N   0  0  0  0  0  0  0  0  0  0  0  0
  150.1272  140.6266  153.1054 C   0  0  0  0  0  0  0  0  0  0  0  0
  149.6517  139.3874  153.2432 N   0  0  0  0  0  0  0  0  0  0  0  0
  149.0523  139.2109  154.4561 C   0  0  0  0  0  0  0  0  0  0  0  0
  148.9280  140.1983  155.4732 C   0  0  0  0  0  0  0  0  0  0  0  0
  148.2636  139.6638  156.5693 N   0  0  0  0  0  0  0  0  0  0  0  0
  148.0174  138.4300  156.2186 C   0  0  0  0  0  0  0  0  0  0  0  0
  148.4585  138.0725  154.9637 N   0  0  0  0  0  0  0  0  0  0  0  0
  148.3274  136.7410  154.2984 C   0  0  2  0  0  0  0  0  0  0  0  0
  147.9701  135.8047  155.2642 O   0  0  0  0  0  0  0  0  0  0  0  0
  148.5729  134.5600  154.9432 C   0  0  2  0  0  0  0  0  0  0  0  0
  148.6060  133.6315  156.1696 C   0  0  0  0  0  0  0  0  0  0  0  0
  149.4129  132.5052  155.9008 O   0  0  0  0  0  0  0  0  0  0  0  0
  149.9431  134.9668  154.3779 C   0  0  2  0  0  0  0  0  0  0  0  0
  150.9019  135.1413  155.4043 O   0  0  0  0  0  0  0  0  0  0  0  0
  149.6636  136.2952  153.6779 C   0  0  1  0  0  0  0  0  0  0  0  0
  149.5281  136.0737  152.2880 O   0  0  0  0  0  0  0  0  0  0  0  0
  150.8564  144.1573  158.4184 C   0  0  0  0  0  0  0  0  0  0  0  0
  152.0083  144.6409  159.0679 C   0  0  0  0  0  0  0  0  0  0  0  0
  153.0003  143.8400  159.5118 N   0  0  0  0  0  0  0  0  0  0  0  0
  147.5234  136.8640  153.5710 H   0  0  0  0  0  0  0  0  0  0  0  0
  147.9982  134.0982  154.1375 H   0  0  0  0  0  0  0  0  0  0  0  0
  150.3311  134.2073  153.6973 H   0  0  0  0  0  0  0  0  0  0  0  0
  150.4500  137.0326  153.8496 H   0  0  0  0  0  0  0  0  0  0  0  0
  154.9920  139.9304  162.4009 H   0  0  0  0  0  0  0  0  0  0  0  0
  155.6997  140.0421  160.7930 H   0  0  0  0  0  0  0  0  0  0  0  0
  154.1016  139.3309  161.0024 H   0  0  0  0  0  0  0  0  0  0  0  0
  154.8553  142.2402  161.5236 H   0  0  0  0  0  0  0  0  0  0  0  0
  152.9933  141.4729  163.0231 H   0  0  0  0  0  0  0  0  0  0  0  0
  152.0919  140.8864  161.6271 H   0  0  0  0  0  0  0  0  0  0  0  0
  152.3665  142.6109  161.8407 H   0  0  0  0  0  0  0  0  0  0  0  0
  151.6966  140.8541  158.5644 H   0  0  0  0  0  0  0  0  0  0  0  0
  149.4578  141.1176  157.6836 H   0  0  0  0  0  0  0  0  0  0  0  0
  148.6211  142.6166  157.9867 H   0  0  0  0  0  0  0  0  0  0  0  0
  149.3925  143.4482  155.8310 H   0  0  0  0  0  0  0  0  0  0  0  0
  150.6149  140.8388  152.1653 H   0  0  0  0  0  0  0  0  0  0  0  0
  147.5040  137.7402  156.8725 H   0  0  0  0  0  0  0  0  0  0  0  0
  149.0457  134.1502  157.0221 H   0  0  0  0  0  0  0  0  0  0  0  0
  147.6026  133.3171  156.4593 H   0  0  0  0  0  0  0  0  0  0  0  0
  148.9519  131.9467  155.2932 H   0  0  0  0  0  0  0  0  0  0  0  0
  151.6553  135.5817  155.0423 H   0  0  0  0  0  0  0  0  0  0  0  0
  149.5171  136.9112  151.8506 H   0  0  0  0  0  0  0  0  0  0  0  0
  150.0918  144.8396  158.0772 H   0  0  0  0  0  0  0  0  0  0  0  0
  152.1391  145.7005  159.2311 H   0  0  0  0  0  0  0  0  0  0  0  0
  1  2  1  0  0  0  0
  1 35  1  0  0  0  0
  1 36  1  0  0  0  0
  1 37  1  0  0  0  0
  2  3  1  0  0  0  0
  2  4  1  0  0  0  0
  2 38  1  0  0  0  0
  3 39  1  0  0  0  0
  3 40  1  0  0  0  0
  3 41  1  0  0  0  0
  4  5  1  0  0  0  0
  5 30  1  0  0  0  0
  5  6  2  0  0  0  0
  6  7  1  0  0  0  0
  6 42  1  0  0  0  0
  7  8  1  0  0  0  0
  7 28  2  0  0  0  0
  8  9  1  0  0  0  0
  8 43  1  0  0  0  0
  8 44  1  0  0  0  0
  9 10  1  0  0  0  0
  9 45  1  0  0  0  0
 10 15  1  0  0  0  0
 10 11  2  0  0  0  0
 11 12  1  0  0  0  0
 12 13  2  0  0  0  0
 12 46  1  0  0  0  0
 13 14  1  0  0  0  0
 14 18  1  0  0  0  0
 14 15  2  0  0  0  0
 15 16  1  0  0  0  0
 16 17  2  0  0  0  0
 17 18  1  0  0  0  0
 17 47  1  0  0  0  0
 18 19  1  0  0  0  0
 19 31  1  0  0  0  0
 19 26  1  0  0  0  0
 19 20  1  0  0  0  0
 20 21  1  0  0  0  0
 21 32  1  0  0  0  0
 21 22  1  0  0  0  0
 21 24  1  0  0  0  0
 22 23  1  0  0  0  0
 22 48  1  0  0  0  0
 22 49  1  0  0  0  0
 23 50  1  0  0  0  0
 24 33  1  0  0  0  0
 24 25  1  0  0  0  0
 24 26  1  0  0  0  0
 25 51  1  0  0  0  0
 26 34  1  0  0  0  0
 26 27  1  0  0  0  0
 27 52  1  0  0  0  0
 28 29  1  0  0  0  0
 28 53  1  0  0  0  0
 29 30  2  0  0  0  0
 29 54  1  0  0  0  0
M  END
> <s_m_source_file>
AV-unprocessed.smi

> <i_m_source_file_index>
218

> <i_lp_mmshare_version>
43012

> <i_f3d_flags>
0

> <s_epik_input>
W0NIM11bQ0hdKFtDSDNdKU9jMVtjSF1jKFtjSF1bY0hdbjEpW0NIMl1bTkhdYyhuW2NIXW4yKWMoYzIzKW5bY0hdbjNbQ0BASF00T1tDQEhdKFtDSDJdW09IXSlbQ0BASF0oW09IXSlbQ0BIXTRbT0hd

> <s_epik_cmdline>
J2VwaWtfcHl0aG9uJywgJy1waCcsICc3LjAnLCAnLXRuJywgJzgnLCAnLW1hJywgJzIwMCcsICctbWV0YWxfYmluZGluZycsICctaW1hZScsICc8aW5maWxlLm1hZT4nLCAnLW9tYWUnLCAnPG91dGZpbGUubWFlPic=

> <r_lp_tautomer_probability>
1

> <r_epik_Ionization_Penalty>
0.00457014

> <r_epik_Ionization_Penalty_Charging>
0

> <r_epik_Ionization_Penalty_Neutral>
0.00457014

> <r_epik_State_Penalty>
-0

> <r_epik_Charging_Adjusted_Penalty>
0

> <i_epik_Tot_Q>
0

> <i_epik_Tot_abs_Q>
0

> <r_epik_Metal_State_Penalty>
-0

> <b_epik_Metal_Only>
0

> <s_epik_Chemistry_Notes>
This compound contains an acetal/aminal-like group ( X-CH(R)-Y where X, Y are N, S, or O) that may be acid/base labile, releasing an aldehyde.

> <s_lp_Force_Field>
OPLS_2005

> <r_lp_Energy>
40.0122

> <b_lp_Chiralities_Consistent>
1

> <s_lp_Variant>
AV-unprocessed.smi:218-5

> <Gold.Version>
5.8.1

> <Gold.Id.Protein>
6NUR|6NUR_protein|mol2

> <Gold.PLP.Fitness>
47.5482

> <Gold.PLP.PLP>
-36.9491

> <Gold.PLP.part.hbond>
-4.0000

> <Gold.PLP.part.metal>
0.0000

> <Gold.PLP.part.buried>
-4.1353

> <Gold.PLP.part.nonpolar>
-29.9599

> <Gold.PLP.part.repulsive>
0.3645

> <Gold.PLP.ligand.clash>
0.0000

> <Gold.PLP.ligand.torsion>
1.0647

> <Gold.PLP.Chemscore.Hbond>
3.2573

> <Gold.PLP.Chemscore.CHOScore>
0.9637

> <Gold.PLP.Chemscore.Metal>
0.0000

> <Gold.Chemscore.Hbonds>
donor molecule, donor type, donor heavy atom, donor atom, acceptor molecule, acceptor atom, score
      L1  H     9    45       P1  8028  0.62

> <Gold.PLP.Chemscore.Internal.Correction>
0.0654

> <Gold.Rescore>
     Score         DG    S(hbond)    S(metal)    S(lipo)     H(rot)  DE(clash)    DE(int)     intcor
      7.56     -10.62       2.46        0.00      80.82       4.90       0.39       2.67       ----

> <Gold.Chemscore.Fitness>
7.5573

> <Gold.Chemscore.DG>
-10.6171

> <Gold.Chemscore.ZeroCoef>
-5.4800

> <Gold.Chemscore.Hbond>
2.4649

> <Gold.Chemscore.Metal>
0.0000

> <Gold.Chemscore.Lipo>
80.8195

> <Gold.Chemscore.Internal_Hbond>
0.0000

> <Gold.Chemscore.DEClash>
0.3855

> <Gold.Chemscore.DEInternal>
2.6743

> <Gold.Chemscore.Rot>
4.9029

> <Gold.Chemscore.Internal.Correction>
   9.000000E+99

> <Gold.Chemscore.Hbonds>
donor molecule, donor type, donor heavy atom, donor atom, acceptor molecule, acceptor atom, score
      L1  H     9    45       P1  8028  0.62

> <Gold.Chemscore.Hbond.Weighted>
-8.2328

> <Gold.Chemscore.Metal.Weighted>
-0.0000

> <Gold.Chemscore.Lipo.Weighted>
-9.4559

> <Gold.Chemscore.Internal_Hbond.Weighted>
0.0000

> <Gold.Chemscore.DEClash.Weighted>
0.3855

> <Gold.Chemscore.DEInternal.Weighted>
2.6743

> <Gold.Chemscore.Rot.Weighted>
12.5515

> <Gold.Chemscore.Internal.Correction.Weighted>
   9.000000E+99

> <Gold.Protein.RotatedTorsions>
[ 6907 6896 6895 6894 ] final  137.34 input  -60.11 | X-H torsion
[ 7974 7965 7964 7962 ] final -111.94 input  175.53 | X-H torsion
[ 8008 7997 7996 7995 ] final -106.55 input   59.86 | X-H torsion
[ 10167 10162 10161 10158 ] final -139.19 input  -65.29 | X-H torsion
[ 10718 10713 10712 10709 ] final   63.95 input   66.30 | X-H torsion
[ 10763 10752 10751 10750 ] final   58.67 input  -60.55 | X-H torsion
[ 11005 11000 10999 10996 ] final -158.12 input  -57.11 | X-H torsion

> <Gold.Protein.ActiveResidues>
 VAL166  LYS551  ARG553  GLY616  TRP617  ASP618  TYR619  PRO620  LYS621  CYS622 
 ASP623  PHE694  ASN695  SER759  ASP760  ASP761  ALA762  ILE779  LEU786  VAL792 
 PHE793  MET794  SER795  GLU796  ALA797  LYS798  CYS799  TRP800  GLU811  SER814 

> <Gold.Protein.RotatedAtoms>
  152.2791  133.5454  159.5486 H   0  0  0  0  0  0  0  0  0  0  0  0  # atno 6907 bound_to 6896
  150.7189  134.0589  159.3833 H   0  0  0  0  0  0  0  0  0  0  0  0  # atno 6908 bound_to 6896
  151.8500  135.0561  160.0508 H   0  0  0  0  0  0  0  0  0  0  0  0  # atno 6909 bound_to 6896
  145.1500  140.8824  143.3652 H   0  0  0  0  0  0  0  0  0  0  0  0  # atno 7974 bound_to 7965
  154.9162  140.0408  157.1973 H   0  0  0  0  0  0  0  0  0  0  0  0  # atno 8008 bound_to 7997
  154.8299  140.2897  155.5708 H   0  0  0  0  0  0  0  0  0  0  0  0  # atno 8009 bound_to 7997
  156.2986  140.2503  156.3222 H   0  0  0  0  0  0  0  0  0  0  0  0  # atno 8010 bound_to 7997
  139.8403  143.7330  152.2663 H   0  0  0  0  0  0  0  0  0  0  0  0  # atno 10167 bound_to 10162
  157.6006  130.9133  149.9782 H   0  0  0  0  0  0  0  0  0  0  0  0  # atno 10718 bound_to 10713
  152.9876  135.5598  154.5590 H   0  0  0  0  0  0  0  0  0  0  0  0  # atno 10763 bound_to 10752
  154.5012  135.2797  155.1421 H   0  0  0  0  0  0  0  0  0  0  0  0  # atno 10764 bound_to 10752
  154.2850  135.6337  153.5415 H   0  0  0  0  0  0  0  0  0  0  0  0  # atno 10765 bound_to 10752
  140.6571  134.4388  157.5235 H   0  0  0  0  0  0  0  0  0  0  0  0  # atno 11005 bound_to 11000
  145.0440  139.3236  143.5962 LP  0  0  0  0  0  0  0  0  0  0  0  0  # atno 17320 bound_to 7965
  146.3495  139.9825  142.8694 LP  0  0  0  0  0  0  0  0  0  0  0  0  # atno 17321 bound_to 7965
  139.7565  144.7519  151.0427 LP  0  0  0  0  0  0  0  0  0  0  0  0  # atno 17342 bound_to 10162
  140.7798  143.4799  151.0032 LP  0  0  0  0  0  0  0  0  0  0  0  0  # atno 17343 bound_to 10162
  156.1079  130.3651  150.0101 LP  0  0  0  0  0  0  0  0  0  0  0  0  # atno 17370 bound_to 10713
  156.8205  130.9357  151.3641 LP  0  0  0  0  0  0  0  0  0  0  0  0  # atno 17371 bound_to 10713
  139.9025  134.8522  156.1835 LP  0  0  0  0  0  0  0  0  0  0  0  0  # atno 17394 bound_to 11000
  141.0493  133.6897  156.1742 LP  0  0  0  0  0  0  0  0  0  0  0  0  # atno 17395 bound_to 11000

$$$$
