AV-unprocessed.smi:1830|AV-procd|sdf|7449|dock9
  -GOLD-   22720 9143D 1   1.00000     0.00000
 Structure written by MMmdl.
 54 57  0  0  0  0  0  0  0  0  3 V2000
  151.4571  135.6763  155.5850 O   0  0  0  0  0  0  0  0  0  0  0  0
  150.6938  135.9236  154.6522 C   0  0  0  0  0  0  0  0  0  0  0  0
  150.6390  137.1117  154.0350 N   0  0  0  0  0  0  0  0  0  0  0  0
  151.4405  138.2813  154.3839 C   0  0  0  0  0  0  0  0  0  0  0  0
  150.6429  139.3608  155.1429 C   0  0  1  0  0  0  0  0  0  0  0  0
  150.3039  138.9621  156.5951 C   0  0  0  0  0  0  0  0  0  0  0  0
  149.6687  140.0745  157.3389 N   0  3  2  0  0  0  0  0  0  0  0  0
  148.2235  140.2860  157.1015 C   0  0  0  0  0  0  0  0  0  0  0  0
  147.9697  141.7889  157.2994 C   0  0  0  0  0  0  0  0  0  0  0  0
  149.3215  142.3817  157.7117 C   0  0  0  0  0  0  0  0  0  0  0  0
  150.3485  141.3770  157.1873 C   0  0  2  0  0  0  0  0  0  0  0  0
  150.7292  141.6462  155.7140 C   0  0  0  0  0  0  0  0  0  0  0  0
  151.4389  140.5389  155.1762 O   0  0  0  0  0  0  0  0  0  0  0  0
  149.8320  135.0505  154.1051 N   0  0  0  0  0  0  0  0  0  0  0  0
  149.6506  133.6767  154.4323 C   0  0  0  0  0  0  0  0  0  0  0  0
  150.5247  132.9945  155.3171 C   0  0  0  0  0  0  0  0  0  0  0  0
  150.2809  131.6460  155.6408 C   0  0  0  0  0  0  0  0  0  0  0  0
  149.1608  131.0029  155.0850 C   0  0  0  0  0  0  0  0  0  0  0  0
  148.3399  131.6842  154.2590 N   0  3  0  0  0  0  0  0  0  0  0  0
  148.5236  132.9822  153.9123 C   0  0  0  0  0  0  0  0  0  0  0  0
  147.6104  133.5857  153.0210 N   0  0  0  0  0  0  0  0  0  0  0  0
  147.6394  133.0390  151.6666 C   0  0  0  0  0  0  0  0  0  0  0  0
  146.1956  133.0574  151.1598 C   0  0  0  0  0  0  0  0  0  0  0  0
  145.3768  132.9730  152.4421 C   0  0  0  0  0  0  0  0  0  0  0  0
  146.2189  133.7842  153.4248 C   0  0  0  0  0  0  0  0  0  0  0  0
  149.9804  137.2253  153.2780 H   0  0  0  0  0  0  0  0  0  0  0  0
  152.2753  137.9410  154.9973 H   0  0  0  0  0  0  0  0  0  0  0  0
  151.8779  138.7048  153.4785 H   0  0  0  0  0  0  0  0  0  0  0  0
  149.7258  139.5714  154.5909 H   0  0  0  0  0  0  0  0  0  0  0  0
  149.6554  138.0857  156.6276 H   0  0  0  0  0  0  0  0  0  0  0  0
  151.2221  138.6920  157.1179 H   0  0  0  0  0  0  0  0  0  0  0  0
  147.9427  139.9912  156.0896 H   0  0  0  0  0  0  0  0  0  0  0  0
  147.6419  139.6795  157.7961 H   0  0  0  0  0  0  0  0  0  0  0  0
  147.6346  142.2338  156.3616 H   0  0  0  0  0  0  0  0  0  0  0  0
  147.1994  141.9822  158.0466 H   0  0  0  0  0  0  0  0  0  0  0  0
  149.4756  143.3929  157.3332 H   0  0  0  0  0  0  0  0  0  0  0  0
  149.3798  142.4260  158.8002 H   0  0  0  0  0  0  0  0  0  0  0  0
  151.2526  141.3851  157.7976 H   0  0  0  0  0  0  0  0  0  0  0  0
  149.8478  141.8461  155.1022 H   0  0  0  0  0  0  0  0  0  0  0  0
  151.3591  142.5335  155.6489 H   0  0  0  0  0  0  0  0  0  0  0  0
  149.3262  135.3740  153.2933 H   0  0  0  0  0  0  0  0  0  0  0  0
  151.3718  133.4887  155.7681 H   0  0  0  0  0  0  0  0  0  0  0  0
  150.9406  131.1155  156.3122 H   0  0  0  0  0  0  0  0  0  0  0  0
  148.8953  129.9733  155.2770 H   0  0  0  0  0  0  0  0  0  0  0  0
  148.2914  133.6240  151.0171 H   0  0  0  0  0  0  0  0  0  0  0  0
  148.0161  132.0145  151.6837 H   0  0  0  0  0  0  0  0  0  0  0  0
  145.9916  134.0030  150.6553 H   0  0  0  0  0  0  0  0  0  0  0  0
  145.9807  132.2489  150.4606 H   0  0  0  0  0  0  0  0  0  0  0  0
  144.3636  133.3605  152.3300 H   0  0  0  0  0  0  0  0  0  0  0  0
  145.3104  131.9359  152.7742 H   0  0  0  0  0  0  0  0  0  0  0  0
  145.9997  133.5182  154.4584 H   0  0  0  0  0  0  0  0  0  0  0  0
  145.9917  134.8455  153.3186 H   0  0  0  0  0  0  0  0  0  0  0  0
  149.7373  139.8429  158.3198 H   0  0  0  0  0  0  0  0  0  0  0  0
  147.5350  131.1916  153.8711 H   0  0  0  0  0  0  0  0  0  0  0  0
  1  2  2  0  0  0  0
  2  3  1  0  0  0  0
  2 14  1  0  0  0  0
  3  4  1  0  0  0  0
  3 26  1  0  0  0  0
  4  5  1  0  0  0  0
  4 27  1  0  0  0  0
  4 28  1  0  0  0  0
  5 13  1  0  0  0  0
  5  6  1  0  0  0  0
  5 29  1  0  0  0  0
  6  7  1  0  0  0  0
  6 30  1  0  0  0  0
  6 31  1  0  0  0  0
  7 11  1  0  0  0  0
  7  8  1  0  0  0  0
  7 53  1  0  0  0  0
  8  9  1  0  0  0  0
  8 32  1  0  0  0  0
  8 33  1  0  0  0  0
  9 10  1  0  0  0  0
  9 34  1  0  0  0  0
  9 35  1  0  0  0  0
 10 11  1  0  0  0  0
 10 36  1  0  0  0  0
 10 37  1  0  0  0  0
 11 12  1  0  0  0  0
 11 38  1  0  0  0  0
 12 13  1  0  0  0  0
 12 39  1  0  0  0  0
 12 40  1  0  0  0  0
 14 15  1  0  0  0  0
 14 41  1  0  0  0  0
 15 20  1  0  0  0  0
 15 16  2  0  0  0  0
 16 17  1  0  0  0  0
 16 42  1  0  0  0  0
 17 18  2  0  0  0  0
 17 43  1  0  0  0  0
 18 19  1  0  0  0  0
 18 44  1  0  0  0  0
 19 20  2  0  0  0  0
 19 54  1  0  0  0  0
 20 21  1  0  0  0  0
 21 25  1  0  0  0  0
 21 22  1  0  0  0  0
 22 23  1  0  0  0  0
 22 45  1  0  0  0  0
 22 46  1  0  0  0  0
 23 24  1  0  0  0  0
 23 47  1  0  0  0  0
 23 48  1  0  0  0  0
 24 25  1  0  0  0  0
 24 49  1  0  0  0  0
 24 50  1  0  0  0  0
 25 51  1  0  0  0  0
 25 52  1  0  0  0  0
M  CHG  1   7   1
M  CHG  1  19   1
M  END
> <s_m_source_file>
AV-unprocessed.smi

> <i_m_source_file_index>
1830

> <i_lp_mmshare_version>
43012

> <i_f3d_flags>
0

> <s_epik_input>
W0NIMl0xW0NIMl1bQ0gyXVtDQEhdKE4xMilbQ0gyXU9bQ0BASF0oW0NIMl0yKVtDSDJdW05IXUMoPU8pW05IXWMzW2NIXVtjSF1bY0hdbmMzTjRbQ0gyXVtDSDJdW0NIMl1bQ0gyXTQ=

> <s_epik_cmdline>
J2VwaWtfcHl0aG9uJywgJy1waCcsICc3LjAnLCAnLXRuJywgJzgnLCAnLW1hJywgJzIwMCcsICctbWV0YWxfYmluZGluZycsICctaW1hZScsICc8aW5maWxlLm1hZT4nLCAnLW9tYWUnLCAnPG91dGZpbGUubWFlPic=

> <r_lp_tautomer_probability>
0.999994

> <r_epik_Ionization_Penalty>
1.29113

> <r_epik_Ionization_Penalty_Charging>
1.29111

> <r_epik_Ionization_Penalty_Neutral>
1.88144e-05

> <r_epik_State_Penalty>
1.32676

> <r_epik_Charging_Adjusted_Penalty>
2.61787

> <i_epik_Tot_Q>
2

> <i_epik_Tot_abs_Q>
2

> <r_epik_Metal_State_Penalty>
1.40425

> <b_epik_Metal_Only>
0

> <s_lp_Force_Field>
OPLS_2005

> <r_lp_Energy>
74.6229

> <b_lp_Chiralities_Consistent>
1

> <s_lp_Variant>
AV-unprocessed.smi:1830-18

> <Gold.Version>
5.8.1

> <Gold.Id.Protein>
6NUR|6NUR_protein|mol2

> <Gold.PLP.Fitness>
47.3303

> <Gold.PLP.PLP>
-36.6284

> <Gold.PLP.part.hbond>
-5.6947

> <Gold.PLP.part.metal>
0.0000

> <Gold.PLP.part.buried>
-1.6418

> <Gold.PLP.part.nonpolar>
-27.0571

> <Gold.PLP.part.repulsive>
0.4611

> <Gold.PLP.ligand.clash>
0.0000

> <Gold.PLP.ligand.torsion>
0.2720

> <Gold.PLP.Chemscore.Hbond>
3.6960

> <Gold.PLP.Chemscore.CHOScore>
0.0000

> <Gold.PLP.Chemscore.Metal>
0.0000

> <Gold.Chemscore.Hbonds>
donor molecule, donor type, donor heavy atom, donor atom, acceptor molecule, acceptor atom, score
      L1  H     3    26       P1  7948  0.86
      L1  H    14    41       P1  7948  0.85
      P1  H  7989  7998       L1    13  0.86
      P1  H 10752 10765       L1     1  1.00

> <Gold.PLP.Chemscore.Internal.Correction>
0.1579

> <Gold.Rescore>
     Score         DG    S(hbond)    S(metal)    S(lipo)     H(rot)  DE(clash)    DE(int)     intcor
     18.11     -20.26       2.84        0.00      76.37       1.43       0.38       1.77       ----

> <Gold.Chemscore.Fitness>
18.1057

> <Gold.Chemscore.DG>
-20.2566

> <Gold.Chemscore.ZeroCoef>
-5.4800

> <Gold.Chemscore.Hbond>
2.8434

> <Gold.Chemscore.Metal>
0.0000

> <Gold.Chemscore.Lipo>
76.3651

> <Gold.Chemscore.Internal_Hbond>
0.0000

> <Gold.Chemscore.DEClash>
0.3795

> <Gold.Chemscore.DEInternal>
1.7714

> <Gold.Chemscore.Rot>
1.4278

> <Gold.Chemscore.Internal.Correction>
   9.000000E+99

> <Gold.Chemscore.Hbonds>
donor molecule, donor type, donor heavy atom, donor atom, acceptor molecule, acceptor atom, score
      L1  H     3    26       P1  7948  0.21
      L1  H    14    41       P1  7948  0.15
      P1  H  7989  7998       L1    13  0.19
      P1  H 10752 10765       L1     1  0.60

> <Gold.Chemscore.Hbond.Weighted>
-9.4970

> <Gold.Chemscore.Metal.Weighted>
-0.0000

> <Gold.Chemscore.Lipo.Weighted>
-8.9347

> <Gold.Chemscore.Internal_Hbond.Weighted>
0.0000

> <Gold.Chemscore.DEClash.Weighted>
0.3795

> <Gold.Chemscore.DEInternal.Weighted>
1.7714

> <Gold.Chemscore.Rot.Weighted>
3.6551

> <Gold.Chemscore.Internal.Correction.Weighted>
   9.000000E+99

> <Gold.Protein.RotatedTorsions>
[ 6907 6896 6895 6894 ] final   73.66 input  -60.11 | X-H torsion
[ 7974 7965 7964 7962 ] final -178.95 input  175.53 | X-H torsion
[ 8008 7997 7996 7995 ] final -161.11 input   59.86 | X-H torsion
[ 10167 10162 10161 10158 ] final -146.35 input  -65.29 | X-H torsion
[ 10718 10713 10712 10709 ] final  120.64 input   66.30 | X-H torsion
[ 10763 10752 10751 10750 ] final -159.87 input  -60.55 | X-H torsion
[ 11005 11000 10999 10996 ] final   83.51 input  -57.11 | X-H torsion

> <Gold.Protein.ActiveResidues>
 VAL166  LYS551  ARG553  GLY616  TRP617  ASP618  TYR619  PRO620  LYS621  CYS622 
 ASP623  PHE694  ASN695  SER759  ASP760  ASP761  ALA762  ILE779  LEU786  VAL792 
 PHE793  MET794  SER795  GLU796  ALA797  LYS798  CYS799  TRP800  GLU811  SER814 

> <Gold.Protein.RotatedAtoms>
  152.4935  134.4388  159.9536 H   0  0  0  0  0  0  0  0  0  0  0  0  # atno 6907 bound_to 6896
  151.4371  133.3648  159.2784 H   0  0  0  0  0  0  0  0  0  0  0  0  # atno 6908 bound_to 6896
  150.9114  134.8554  159.7487 H   0  0  0  0  0  0  0  0  0  0  0  0  # atno 6909 bound_to 6896
  144.7133  140.0792  143.6426 H   0  0  0  0  0  0  0  0  0  0  0  0  # atno 7974 bound_to 7965
  155.7874  140.0873  157.2027 H   0  0  0  0  0  0  0  0  0  0  0  0  # atno 8008 bound_to 7997
  154.3987  140.1496  156.3181 H   0  0  0  0  0  0  0  0  0  0  0  0  # atno 8009 bound_to 7997
  155.8593  140.3431  155.5748 H   0  0  0  0  0  0  0  0  0  0  0  0  # atno 8010 bound_to 7997
  139.7722  143.8222  152.2626 H   0  0  0  0  0  0  0  0  0  0  0  0  # atno 10167 bound_to 10162
  157.5876  131.1068  150.8063 H   0  0  0  0  0  0  0  0  0  0  0  0  # atno 10718 bound_to 10713
  154.7438  135.3075  154.8681 H   0  0  0  0  0  0  0  0  0  0  0  0  # atno 10763 bound_to 10752
  153.9488  135.6766  153.4748 H   0  0  0  0  0  0  0  0  0  0  0  0  # atno 10764 bound_to 10752
  153.1035  135.4900  154.8836 H   0  0  0  0  0  0  0  0  0  0  0  0  # atno 10765 bound_to 10752
  139.9029  134.8150  156.2319 H   0  0  0  0  0  0  0  0  0  0  0  0  # atno 11005 bound_to 11000
  145.9717  139.2875  143.1095 LP  0  0  0  0  0  0  0  0  0  0  0  0  # atno 17320 bound_to 7965
  145.9109  140.9180  143.0454 LP  0  0  0  0  0  0  0  0  0  0  0  0  # atno 17321 bound_to 7965
  139.8259  144.7275  150.9512 LP  0  0  0  0  0  0  0  0  0  0  0  0  # atno 17342 bound_to 10162
  140.7814  143.4115  151.0985 LP  0  0  0  0  0  0  0  0  0  0  0  0  # atno 17343 bound_to 10162
  156.8493  130.5075  149.5313 LP  0  0  0  0  0  0  0  0  0  0  0  0  # atno 17370 bound_to 10713
  156.0927  130.5908  150.9761 LP  0  0  0  0  0  0  0  0  0  0  0  0  # atno 17371 bound_to 10713
  141.0340  133.6973  156.1479 LP  0  0  0  0  0  0  0  0  0  0  0  0  # atno 17394 bound_to 11000
  140.7055  134.4518  157.5584 LP  0  0  0  0  0  0  0  0  0  0  0  0  # atno 17395 bound_to 11000

$$$$
