AV-unprocessed.smi:2059|AV-procd|sdf|8348|dock3
  -GOLD-   2272011 13D 1   1.00000     0.00000
 Structure written by MMmdl.
 30 31  0  0  0  0  0  0  0  0  1 V2000
  144.5244  144.2987  162.3499 C   0  0  0  0  0  0  0  0  0  0  0  0
  145.2962  143.6773  161.2367 C   0  0  0  0  0  0  0  0  0  0  0  0
  146.2173  144.1692  160.3554 C   0  0  0  0  0  0  0  0  0  0  0  0
  146.5475  143.0361  159.5649 C   0  0  0  0  0  0  0  0  0  0  0  0
  147.4969  143.1488  158.5093 N   0  0  0  0  0  0  0  0  0  0  0  0
  148.1836  142.2049  157.8319 C   0  0  0  0  0  0  0  0  0  0  0  0
  148.0412  141.0102  158.0871 O   0  0  0  0  0  0  0  0  0  0  0  0
  149.0171  142.6480  156.8763 N   0  0  0  0  0  0  0  0  0  0  0  0
  149.8506  141.8051  156.0262 C   0  0  2  0  0  0  0  0  0  0  0  0
  149.0184  140.7771  155.2328 C   0  0  0  0  0  0  0  0  0  0  0  0
  149.9616  139.7045  154.6739 C   0  0  0  0  0  0  0  0  0  0  0  0
  151.3574  139.5842  155.8561 S   0  0  0  0  0  0  0  0  0  0  0  0
  151.2176  138.3634  156.6643 O   0  0  0  0  0  0  0  0  0  0  0  0
  152.6097  139.8813  155.1442 O   0  0  0  0  0  0  0  0  0  0  0  0
  150.8743  141.0326  156.8684 C   0  0  0  0  0  0  0  0  0  0  0  0
  145.8819  141.9504  159.9321 N   0  0  0  0  0  0  0  0  0  0  0  0
  145.0779  142.3550  161.0040 O   0  0  0  0  0  0  0  0  0  0  0  0
  144.9869  145.2325  162.6699 H   0  0  0  0  0  0  0  0  0  0  0  0
  144.4805  143.6325  163.2117 H   0  0  0  0  0  0  0  0  0  0  0  0
  143.5033  144.5160  162.0370 H   0  0  0  0  0  0  0  0  0  0  0  0
  146.5934  145.1797  160.2903 H   0  0  0  0  0  0  0  0  0  0  0  0
  147.6807  144.0961  158.2119 H   0  0  0  0  0  0  0  0  0  0  0  0
  149.0756  143.6460  156.7292 H   0  0  0  0  0  0  0  0  0  0  0  0
  150.3995  142.4288  155.3180 H   0  0  0  0  0  0  0  0  0  0  0  0
  148.3063  140.2974  155.9058 H   0  0  0  0  0  0  0  0  0  0  0  0
  148.4372  141.2476  154.4394 H   0  0  0  0  0  0  0  0  0  0  0  0
  149.4797  138.7336  154.5586 H   0  0  0  0  0  0  0  0  0  0  0  0
  150.3649  140.0104  153.7085 H   0  0  0  0  0  0  0  0  0  0  0  0
  151.7538  141.6243  157.1238 H   0  0  0  0  0  0  0  0  0  0  0  0
  150.4267  140.6576  157.7899 H   0  0  0  0  0  0  0  0  0  0  0  0
  1  2  1  0  0  0  0
  1 18  1  0  0  0  0
  1 19  1  0  0  0  0
  1 20  1  0  0  0  0
  2 17  1  0  0  0  0
  2  3  2  0  0  0  0
  3  4  1  0  0  0  0
  3 21  1  0  0  0  0
  4  5  1  0  0  0  0
  4 16  2  0  0  0  0
  5  6  1  0  0  0  0
  5 22  1  0  0  0  0
  6  7  2  0  0  0  0
  6  8  1  0  0  0  0
  8  9  1  0  0  0  0
  8 23  1  0  0  0  0
  9 15  1  0  0  0  0
  9 10  1  0  0  0  0
  9 24  1  0  0  0  0
 10 11  1  0  0  0  0
 10 25  1  0  0  0  0
 10 26  1  0  0  0  0
 11 12  1  0  0  0  0
 11 27  1  0  0  0  0
 11 28  1  0  0  0  0
 12 13  2  0  0  0  0
 12 14  2  0  0  0  0
 12 15  1  0  0  0  0
 15 29  1  0  0  0  0
 15 30  1  0  0  0  0
 16 17  1  0  0  0  0
M  END
> <s_m_source_file>
AV-unprocessed.smi

> <i_m_source_file_index>
2059

> <i_lp_mmshare_version>
43012

> <i_f3d_flags>
0

> <s_epik_input>
W0NIM11jMVtjSF1jKG5vMSlbTkhdQyg9TylbTkhdW0NAQEhdKFtDSDJdMilbQ0gyXVtDSDJdUzIoPU8pPU8=

> <s_epik_cmdline>
J2VwaWtfcHl0aG9uJywgJy1waCcsICc3LjAnLCAnLXRuJywgJzgnLCAnLW1hJywgJzIwMCcsICctbWV0YWxfYmluZGluZycsICctaW1hZScsICc8aW5maWxlLm1hZT4nLCAnLW9tYWUnLCAnPG91dGZpbGUubWFlPic=

> <r_lp_tautomer_probability>
1

> <r_epik_Ionization_Penalty>
3.88767e-05

> <r_epik_Ionization_Penalty_Charging>
0

> <r_epik_Ionization_Penalty_Neutral>
3.88767e-05

> <r_epik_State_Penalty>
-0

> <r_epik_Charging_Adjusted_Penalty>
0

> <i_epik_Tot_Q>
0

> <i_epik_Tot_abs_Q>
0

> <r_epik_Metal_State_Penalty>
0.0251347

> <b_epik_Metal_Only>
0

> <s_lp_Force_Field>
OPLS_2005

> <r_lp_Energy>
4.38419

> <b_lp_Chiralities_Consistent>
1

> <s_lp_Variant>
AV-unprocessed.smi:2059-1

> <Gold.Version>
5.8.1

> <Gold.Id.Protein>
6NUR|6NUR_protein|mol2

> <Gold.PLP.Fitness>
36.5281

> <Gold.PLP.PLP>
-24.3091

> <Gold.PLP.part.hbond>
-5.3025

> <Gold.PLP.part.metal>
0.0000

> <Gold.PLP.part.buried>
0.4149

> <Gold.PLP.part.nonpolar>
-19.3280

> <Gold.PLP.part.repulsive>
0.1530

> <Gold.PLP.ligand.clash>
0.0000

> <Gold.PLP.ligand.torsion>
0.0704

> <Gold.PLP.Chemscore.Hbond>
4.1199

> <Gold.PLP.Chemscore.CHOScore>
0.0000

> <Gold.PLP.Chemscore.Metal>
0.0000

> <Gold.Chemscore.Hbonds>
donor molecule, donor type, donor heavy atom, donor atom, acceptor molecule, acceptor atom, score
      L1  H     5    22       P1  8029  0.89
      L1  H     8    23       P1  8028  0.84
      P1  H  6934  6946       L1    16  1.00
      P1  H  7989  7998       L1    14  0.34
      P1  H  7997  8009       L1    14  1.00

> <Gold.PLP.Chemscore.Internal.Correction>
0.0002

> <Gold.Rescore>
     Score         DG    S(hbond)    S(metal)    S(lipo)     H(rot)  DE(clash)    DE(int)     intcor
     14.50     -18.48       3.19        0.00      42.02       1.00       1.79       2.19       ----

> <Gold.Chemscore.Fitness>
14.4972

> <Gold.Chemscore.DG>
-18.4773

> <Gold.Chemscore.ZeroCoef>
-5.4800

> <Gold.Chemscore.Hbond>
3.1859

> <Gold.Chemscore.Metal>
0.0000

> <Gold.Chemscore.Lipo>
42.0203

> <Gold.Chemscore.Internal_Hbond>
0.0000

> <Gold.Chemscore.DEClash>
1.7867

> <Gold.Chemscore.DEInternal>
2.1935

> <Gold.Chemscore.Rot>
1.0000

> <Gold.Chemscore.Internal.Correction>
   9.000000E+99

> <Gold.Chemscore.Hbonds>
donor molecule, donor type, donor heavy atom, donor atom, acceptor molecule, acceptor atom, score
      L1  H     5    22       P1  8029  0.35
      L1  H     8    23       P1  8028  0.64
      P1  H  6934  6946       L1    16  0.20
      P1  H  7989  7998       L1    14  0.05
      P1  H  7997  8009       L1    14  0.93

> <Gold.Chemscore.Hbond.Weighted>
-10.6410

> <Gold.Chemscore.Metal.Weighted>
-0.0000

> <Gold.Chemscore.Lipo.Weighted>
-4.9164

> <Gold.Chemscore.Internal_Hbond.Weighted>
0.0000

> <Gold.Chemscore.DEClash.Weighted>
1.7867

> <Gold.Chemscore.DEInternal.Weighted>
2.1935

> <Gold.Chemscore.Rot.Weighted>
2.5600

> <Gold.Chemscore.Internal.Correction.Weighted>
   9.000000E+99

> <Gold.Protein.RotatedTorsions>
[ 6907 6896 6895 6894 ] final  -25.77 input  -60.11 | X-H torsion
[ 7974 7965 7964 7962 ] final   91.76 input  175.53 | X-H torsion
[ 8008 7997 7996 7995 ] final -130.62 input   59.86 | X-H torsion
[ 10167 10162 10161 10158 ] final  141.29 input  -65.29 | X-H torsion
[ 10718 10713 10712 10709 ] final  -89.90 input   66.30 | X-H torsion
[ 10763 10752 10751 10750 ] final  -22.01 input  -60.55 | X-H torsion
[ 11005 11000 10999 10996 ] final  101.17 input  -57.11 | X-H torsion

> <Gold.Protein.ActiveResidues>
 VAL166  LYS551  ARG553  GLY616  TRP617  ASP618  TYR619  PRO620  LYS621  CYS622 
 ASP623  PHE694  ASN695  SER759  ASP760  ASP761  ALA762  ILE779  LEU786  VAL792 
 PHE793  MET794  SER795  GLU796  ALA797  LYS798  CYS799  TRP800  GLU811  SER814 

> <Gold.Protein.RotatedAtoms>
  151.1704  135.0315  159.8748 H   0  0  0  0  0  0  0  0  0  0  0  0  # atno 6907 bound_to 6896
  152.5449  134.1177  159.8395 H   0  0  0  0  0  0  0  0  0  0  0  0  # atno 6908 bound_to 6896
  151.1282  133.5009  159.2632 H   0  0  0  0  0  0  0  0  0  0  0  0  # atno 6909 bound_to 6896
  145.5014  139.2276  143.2775 H   0  0  0  0  0  0  0  0  0  0  0  0  # atno 7974 bound_to 7965
  155.2987  140.0452  157.3028 H   0  0  0  0  0  0  0  0  0  0  0  0  # atno 8008 bound_to 7997
  154.5499  140.2314  155.8469 H   0  0  0  0  0  0  0  0  0  0  0  0  # atno 8009 bound_to 7997
  156.1957  140.3039  155.9430 H   0  0  0  0  0  0  0  0  0  0  0  0  # atno 8010 bound_to 7997
  139.5025  144.6181  151.6117 H   0  0  0  0  0  0  0  0  0  0  0  0  # atno 10167 bound_to 10162
  155.9986  130.4889  150.5242 H   0  0  0  0  0  0  0  0  0  0  0  0  # atno 10718 bound_to 10713
  153.6451  135.6983  153.5228 H   0  0  0  0  0  0  0  0  0  0  0  0  # atno 10763 bound_to 10752
  153.2751  135.4203  155.1024 H   0  0  0  0  0  0  0  0  0  0  0  0  # atno 10764 bound_to 10752
  154.8490  135.3588  154.5996 H   0  0  0  0  0  0  0  0  0  0  0  0  # atno 10765 bound_to 10752
  139.8772  134.9172  156.4867 H   0  0  0  0  0  0  0  0  0  0  0  0  # atno 11005 bound_to 11000
  146.2224  140.5815  142.9011 LP  0  0  0  0  0  0  0  0  0  0  0  0  # atno 17320 bound_to 7965
  144.7778  140.5776  143.6626 LP  0  0  0  0  0  0  0  0  0  0  0  0  # atno 17321 bound_to 7965
  140.5875  143.9839  150.6304 LP  0  0  0  0  0  0  0  0  0  0  0  0  # atno 17342 bound_to 10162
  140.3008  143.3262  152.0973 LP  0  0  0  0  0  0  0  0  0  0  0  0  # atno 17343 bound_to 10162
  157.3199  131.0680  151.1939 LP  0  0  0  0  0  0  0  0  0  0  0  0  # atno 17370 bound_to 10713
  157.2856  130.6771  149.6088 LP  0  0  0  0  0  0  0  0  0  0  0  0  # atno 17371 bound_to 10713
  140.8688  133.8004  155.9342 LP  0  0  0  0  0  0  0  0  0  0  0  0  # atno 17394 bound_to 11000
  140.8974  134.2421  157.5061 LP  0  0  0  0  0  0  0  0  0  0  0  0  # atno 17395 bound_to 11000

$$$$
