AV-unprocessed.smi:3266|AV-procd|sdf|12502|dock7
  -GOLD-   2272018403D 1   1.00000     0.00000
 Structure written by MMmdl.
 39 40  0  0  0  0  0  0  0  0  2 V2000
  153.1094  136.7895  159.7426 O   0  0  0  0  0  0  0  0  0  0  0  0
  154.1831  137.0615  160.2810 C   0  0  0  0  0  0  0  0  0  0  0  0
  155.1884  135.9568  160.6193 C   0  0  0  0  0  0  0  0  0  0  0  0
  154.5975  134.8637  161.5288 C   0  0  0  0  0  0  0  0  0  0  0  0
  154.5238  135.2947  163.0010 C   0  0  2  0  0  0  0  0  0  0  0  0
  153.6908  136.5554  163.2327 C   0  0  0  0  0  0  0  0  0  0  0  0
  154.3026  137.0982  164.5032 C   0  0  0  0  0  0  0  0  0  0  0  0
  155.7813  136.7985  164.2820 C   0  0  0  0  0  0  0  0  0  0  0  0
  155.8228  135.6072  163.5008 O   0  0  0  0  0  0  0  0  0  0  0  0
  154.5419  138.3129  160.6071 N   0  0  0  0  0  0  0  0  0  0  0  0
  153.7271  139.5004  160.3781 C   0  0  0  0  0  0  0  0  0  0  0  0
  154.5133  140.7921  160.6601 C   0  0  0  0  0  0  0  0  0  0  0  0
  153.6291  142.0230  160.6187 C   0  0  0  0  0  0  0  0  0  0  0  0
  152.9979  142.5368  161.7724 C   0  0  0  0  0  0  0  0  0  0  0  0
  152.1868  143.6853  161.6593 C   0  0  0  0  0  0  0  0  0  0  0  0
  152.0240  144.2946  160.3977 C   0  0  0  0  0  0  0  0  0  0  0  0
  152.6765  143.7384  159.2785 C   0  0  0  0  0  0  0  0  0  0  0  0
  153.4448  142.6369  159.4271 N   0  3  0  0  0  0  0  0  0  0  0  0
  155.5529  135.5049  159.6953 H   0  0  0  0  0  0  0  0  0  0  0  0
  156.0502  136.4183  161.1026 H   0  0  0  0  0  0  0  0  0  0  0  0
  153.5985  134.5898  161.1860 H   0  0  0  0  0  0  0  0  0  0  0  0
  155.2082  133.9627  161.4531 H   0  0  0  0  0  0  0  0  0  0  0  0
  154.1182  134.4859  163.6109 H   0  0  0  0  0  0  0  0  0  0  0  0
  153.8332  137.2686  162.4194 H   0  0  0  0  0  0  0  0  0  0  0  0
  152.6240  136.3502  163.3245 H   0  0  0  0  0  0  0  0  0  0  0  0
  154.0997  138.1578  164.6607 H   0  0  0  0  0  0  0  0  0  0  0  0
  153.9300  136.5440  165.3659 H   0  0  0  0  0  0  0  0  0  0  0  0
  156.2505  137.6014  163.7120 H   0  0  0  0  0  0  0  0  0  0  0  0
  156.3283  136.6830  165.2179 H   0  0  0  0  0  0  0  0  0  0  0  0
  155.4386  138.4499  161.0513 H   0  0  0  0  0  0  0  0  0  0  0  0
  153.3488  139.4956  159.3544 H   0  0  0  0  0  0  0  0  0  0  0  0
  152.8558  139.4460  161.0315 H   0  0  0  0  0  0  0  0  0  0  0  0
  154.9956  140.7292  161.6366 H   0  0  0  0  0  0  0  0  0  0  0  0
  155.3141  140.9182  159.9301 H   0  0  0  0  0  0  0  0  0  0  0  0
  153.1321  142.0589  162.7320 H   0  0  0  0  0  0  0  0  0  0  0  0
  151.6955  144.0942  162.5303 H   0  0  0  0  0  0  0  0  0  0  0  0
  151.4074  145.1751  160.2901 H   0  0  0  0  0  0  0  0  0  0  0  0
  152.6077  144.1377  158.2771 H   0  0  0  0  0  0  0  0  0  0  0  0
  153.9072  142.2502  158.6036 H   0  0  0  0  0  0  0  0  0  0  0  0
  1  2  2  0  0  0  0
  2  3  1  0  0  0  0
  2 10  1  0  0  0  0
  3  4  1  0  0  0  0
  3 19  1  0  0  0  0
  3 20  1  0  0  0  0
  4  5  1  0  0  0  0
  4 21  1  0  0  0  0
  4 22  1  0  0  0  0
  5  9  1  0  0  0  0
  5  6  1  0  0  0  0
  5 23  1  0  0  0  0
  6  7  1  0  0  0  0
  6 24  1  0  0  0  0
  6 25  1  0  0  0  0
  7  8  1  0  0  0  0
  7 26  1  0  0  0  0
  7 27  1  0  0  0  0
  8  9  1  0  0  0  0
  8 28  1  0  0  0  0
  8 29  1  0  0  0  0
 10 11  1  0  0  0  0
 10 30  1  0  0  0  0
 11 12  1  0  0  0  0
 11 31  1  0  0  0  0
 11 32  1  0  0  0  0
 12 13  1  0  0  0  0
 12 33  1  0  0  0  0
 12 34  1  0  0  0  0
 13 18  1  0  0  0  0
 13 14  2  0  0  0  0
 14 15  1  0  0  0  0
 14 35  1  0  0  0  0
 15 16  2  0  0  0  0
 15 36  1  0  0  0  0
 16 17  1  0  0  0  0
 16 37  1  0  0  0  0
 17 18  2  0  0  0  0
 17 38  1  0  0  0  0
 18 39  1  0  0  0  0
M  CHG  1  18   1
M  END
> <s_m_source_file>
AV-unprocessed.smi

> <i_m_source_file_index>
3266

> <i_lp_mmshare_version>
43012

> <i_f3d_flags>
0

> <s_epik_input>
TzFbQ0gyXVtDSDJdW0NIMl1bQ0BIXTFbQ0gyXVtDSDJdQyg9TylbTkhdW0NIMl1bQ0gyXWMyW2NIXVtjSF1bY0hdW2NIXW4y

> <s_epik_cmdline>
J2VwaWtfcHl0aG9uJywgJy1waCcsICc3LjAnLCAnLXRuJywgJzgnLCAnLW1hJywgJzIwMCcsICctbWV0YWxfYmluZGluZycsICctaW1hZScsICc8aW5maWxlLm1hZT4nLCAnLW9tYWUnLCAnPG91dGZpbGUubWFlPic=

> <r_epik_Ionization_Penalty>
1.8495

> <r_epik_Ionization_Penalty_Charging>
1.8495

> <r_epik_Ionization_Penalty_Neutral>
1.53068e-08

> <r_epik_State_Penalty>
1.96688

> <r_epik_Charging_Adjusted_Penalty>
3.81638

> <i_epik_Tot_Q>
1

> <i_epik_Tot_abs_Q>
1

> <r_epik_Metal_State_Penalty>
1.99263

> <b_epik_Metal_Only>
0

> <s_lp_Force_Field>
OPLS_2005

> <r_lp_Energy>
20.4442

> <b_lp_Chiralities_Consistent>
1

> <s_lp_Variant>
AV-unprocessed.smi:3266-3

> <Gold.Version>
5.8.1

> <Gold.Id.Protein>
6NUR|6NUR_protein|mol2

> <Gold.PLP.Fitness>
42.8970

> <Gold.PLP.PLP>
-40.8993

> <Gold.PLP.part.hbond>
-1.0000

> <Gold.PLP.part.metal>
0.0000

> <Gold.PLP.part.buried>
-4.9244

> <Gold.PLP.part.nonpolar>
-35.4078

> <Gold.PLP.part.repulsive>
0.0921

> <Gold.PLP.ligand.clash>
0.0000

> <Gold.PLP.ligand.torsion>
0.5155

> <Gold.PLP.Chemscore.Hbond>
1.0000

> <Gold.PLP.Chemscore.CHOScore>
0.0000

> <Gold.PLP.Chemscore.Metal>
0.0000

> <Gold.Chemscore.Hbonds>
donor molecule, donor type, donor heavy atom, donor atom, acceptor molecule, acceptor atom, score
      P1  H  6896  6909       L1     1  0.91

> <Gold.PLP.Chemscore.Internal.Correction>
0.0287

> <Gold.Rescore>
     Score         DG    S(hbond)    S(metal)    S(lipo)     H(rot)  DE(clash)    DE(int)     intcor
     17.34     -17.98       0.99        0.00     118.80       1.84       0.02       0.63       ----

> <Gold.Chemscore.Fitness>
17.3401

> <Gold.Chemscore.DG>
-17.9837

> <Gold.Chemscore.ZeroCoef>
-5.4800

> <Gold.Chemscore.Hbond>
0.9910

> <Gold.Chemscore.Metal>
0.0000

> <Gold.Chemscore.Lipo>
118.7992

> <Gold.Chemscore.Internal_Hbond>
0.0000

> <Gold.Chemscore.DEClash>
0.0163

> <Gold.Chemscore.DEInternal>
0.6272

> <Gold.Chemscore.Rot>
1.8382

> <Gold.Chemscore.Internal.Correction>
   9.000000E+99

> <Gold.Chemscore.Hbonds>
donor molecule, donor type, donor heavy atom, donor atom, acceptor molecule, acceptor atom, score
      P1  H  6896  6909       L1     1  0.88

> <Gold.Chemscore.Hbond.Weighted>
-3.3099

> <Gold.Chemscore.Metal.Weighted>
-0.0000

> <Gold.Chemscore.Lipo.Weighted>
-13.8995

> <Gold.Chemscore.Internal_Hbond.Weighted>
0.0000

> <Gold.Chemscore.DEClash.Weighted>
0.0163

> <Gold.Chemscore.DEInternal.Weighted>
0.6272

> <Gold.Chemscore.Rot.Weighted>
4.7058

> <Gold.Chemscore.Internal.Correction.Weighted>
   9.000000E+99

> <Gold.Protein.RotatedTorsions>
[ 6907 6896 6895 6894 ] final  151.18 input  -60.11 | X-H torsion
[ 7974 7965 7964 7962 ] final -114.85 input  175.53 | X-H torsion
[ 8008 7997 7996 7995 ] final   48.95 input   59.86 | X-H torsion
[ 10167 10162 10161 10158 ] final   47.86 input  -65.29 | X-H torsion
[ 10718 10713 10712 10709 ] final  141.90 input   66.30 | X-H torsion
[ 10763 10752 10751 10750 ] final   60.90 input  -60.55 | X-H torsion
[ 11005 11000 10999 10996 ] final   93.00 input  -57.11 | X-H torsion

> <Gold.Protein.ActiveResidues>
 VAL166  LYS551  ARG553  GLY616  TRP617  ASP618  TYR619  PRO620  LYS621  CYS622 
 ASP623  PHE694  ASN695  SER759  ASP760  ASP761  ALA762  ILE779  LEU786  VAL792 
 PHE793  MET794  SER795  GLU796  ALA797  LYS798  CYS799  TRP800  GLU811  SER814 

> <Gold.Protein.RotatedAtoms>
  152.1042  133.4266  159.4600 H   0  0  0  0  0  0  0  0  0  0  0  0  # atno 6907 bound_to 6896
  150.6865  134.2725  159.4603 H   0  0  0  0  0  0  0  0  0  0  0  0  # atno 6908 bound_to 6896
  152.0588  134.9607  160.0625 H   0  0  0  0  0  0  0  0  0  0  0  0  # atno 6909 bound_to 6896
  145.1153  140.8636  143.3846 H   0  0  0  0  0  0  0  0  0  0  0  0  # atno 7974 bound_to 7965
  155.3942  140.3435  155.4253 H   0  0  0  0  0  0  0  0  0  0  0  0  # atno 8008 bound_to 7997
  156.1540  140.1580  156.8755 H   0  0  0  0  0  0  0  0  0  0  0  0  # atno 8009 bound_to 7997
  154.5078  140.0798  156.7911 H   0  0  0  0  0  0  0  0  0  0  0  0  # atno 8010 bound_to 7997
  140.2993  144.2953  150.6222 H   0  0  0  0  0  0  0  0  0  0  0  0  # atno 10167 bound_to 10162
  157.3867  131.0999  151.0687 H   0  0  0  0  0  0  0  0  0  0  0  0  # atno 10718 bound_to 10713
  152.9934  135.5520  154.5947 H   0  0  0  0  0  0  0  0  0  0  0  0  # atno 10763 bound_to 10752
  154.5301  135.2813  155.1189 H   0  0  0  0  0  0  0  0  0  0  0  0  # atno 10764 bound_to 10752
  154.2508  135.6399  153.5292 H   0  0  0  0  0  0  0  0  0  0  0  0  # atno 10765 bound_to 10752
  139.8816  134.8765  156.3654 H   0  0  0  0  0  0  0  0  0  0  0  0  # atno 11005 bound_to 11000
  145.0801  139.2966  143.5788 LP  0  0  0  0  0  0  0  0  0  0  0  0  # atno 17320 bound_to 7965
  146.3524  140.0305  142.8651 LP  0  0  0  0  0  0  0  0  0  0  0  0  # atno 17321 bound_to 7965
  140.5665  143.2185  151.7675 LP  0  0  0  0  0  0  0  0  0  0  0  0  # atno 17342 bound_to 10162
  139.4919  144.4277  151.9907 LP  0  0  0  0  0  0  0  0  0  0  0  0  # atno 17343 bound_to 10162
  157.1735  130.6278  149.5648 LP  0  0  0  0  0  0  0  0  0  0  0  0  # atno 17370 bound_to 10713
  155.9788  130.4777  150.6679 LP  0  0  0  0  0  0  0  0  0  0  0  0  # atno 17371 bound_to 10713
  140.9501  133.7457  156.0260 LP  0  0  0  0  0  0  0  0  0  0  0  0  # atno 17394 bound_to 11000
  140.8116  134.3392  157.5410 LP  0  0  0  0  0  0  0  0  0  0  0  0  # atno 17395 bound_to 11000

$$$$
