AV-unprocessed.smi:3303|AV-procd|sdf|12668|dock2
  -GOLD-   2272019 03D 1   1.00000     0.00000
 Structure written by MMmdl.
 45 46  0  0  0  0  0  0  0  0  3 V2000
  150.9446  139.1800  155.2345 C   0  0  0  0  0  0  0  0  0  0  0  0
  149.8687  139.9507  154.4485 C   0  0  1  0  0  0  0  0  0  0  0  0
  148.7653  138.9798  153.9753 C   0  0  0  0  0  0  0  0  0  0  0  0
  147.7022  139.6843  153.2158 N   0  3  1  0  0  0  0  0  0  0  0  0
  146.7422  138.7560  152.5755 C   0  0  0  0  0  0  0  0  0  0  0  0
  147.0633  140.7897  153.9845 C   0  0  1  0  0  0  0  0  0  0  0  0
  146.1635  140.3035  155.1415 C   0  0  0  0  0  0  0  0  0  0  0  0
  148.1369  141.7894  154.4586 C   0  0  0  0  0  0  0  0  0  0  0  0
  149.2638  141.1135  155.2702 C   0  0  2  0  0  0  0  0  0  0  0  0
  150.3132  142.0964  155.6295 N   0  3  0  0  0  0  0  0  0  0  0  0
  150.6857  142.1272  157.0592 C   0  0  0  0  0  0  0  0  0  0  0  0
  151.6480  143.2863  157.3517 C   0  0  0  0  0  0  0  0  0  0  0  0
  151.9331  143.4293  158.8343 C   0  0  0  0  0  0  0  0  0  0  0  0
  151.6877  144.6476  159.5028 C   0  0  0  0  0  0  0  0  0  0  0  0
  151.9808  144.7281  160.8782 C   0  0  0  0  0  0  0  0  0  0  0  0
  152.5061  143.5942  161.5270 C   0  0  0  0  0  0  0  0  0  0  0  0
  152.7164  142.4251  160.7693 C   0  0  0  0  0  0  0  0  0  0  0  0
  152.4400  142.3376  159.4499 N   0  0  0  0  0  0  0  0  0  0  0  0
  150.5368  138.7519  156.1510 H   0  0  0  0  0  0  0  0  0  0  0  0
  151.7817  139.8214  155.5108 H   0  0  0  0  0  0  0  0  0  0  0  0
  151.3517  138.3612  154.6405 H   0  0  0  0  0  0  0  0  0  0  0  0
  150.3440  140.3704  153.5601 H   0  0  0  0  0  0  0  0  0  0  0  0
  149.2094  138.2182  153.3326 H   0  0  0  0  0  0  0  0  0  0  0  0
  148.3295  138.4496  154.8230 H   0  0  0  0  0  0  0  0  0  0  0  0
  146.2326  138.1336  153.3117 H   0  0  0  0  0  0  0  0  0  0  0  0
  147.2615  138.0939  151.8820 H   0  0  0  0  0  0  0  0  0  0  0  0
  145.9908  139.3052  152.0071 H   0  0  0  0  0  0  0  0  0  0  0  0
  146.4179  141.3261  153.2871 H   0  0  0  0  0  0  0  0  0  0  0  0
  145.7314  141.1515  155.6734 H   0  0  0  0  0  0  0  0  0  0  0  0
  146.7083  139.7081  155.8733 H   0  0  0  0  0  0  0  0  0  0  0  0
  145.3291  139.7030  154.7801 H   0  0  0  0  0  0  0  0  0  0  0  0
  148.5702  142.2812  153.5860 H   0  0  0  0  0  0  0  0  0  0  0  0
  147.6600  142.5786  155.0400 H   0  0  0  0  0  0  0  0  0  0  0  0
  148.8522  140.7031  156.1937 H   0  0  0  0  0  0  0  0  0  0  0  0
  151.1468  141.8556  155.1121 H   0  0  0  0  0  0  0  0  0  0  0  0
  149.7901  142.2303  157.6718 H   0  0  0  0  0  0  0  0  0  0  0  0
  151.1560  141.1810  157.3305 H   0  0  0  0  0  0  0  0  0  0  0  0
  152.5877  143.1368  156.8180 H   0  0  0  0  0  0  0  0  0  0  0  0
  151.2301  144.2238  156.9812 H   0  0  0  0  0  0  0  0  0  0  0  0
  151.2852  145.5020  158.9784 H   0  0  0  0  0  0  0  0  0  0  0  0
  151.8062  145.6429  161.4252 H   0  0  0  0  0  0  0  0  0  0  0  0
  152.7425  143.6196  162.5806 H   0  0  0  0  0  0  0  0  0  0  0  0
  153.1186  141.5371  161.2347 H   0  0  0  0  0  0  0  0  0  0  0  0
  150.0163  143.0186  155.3430 H   0  0  0  0  0  0  0  0  0  0  0  0
  148.1770  140.1373  152.4479 H   0  0  0  0  0  0  0  0  0  0  0  0
  1  2  1  0  0  0  0
  1 19  1  0  0  0  0
  1 20  1  0  0  0  0
  1 21  1  0  0  0  0
  2  9  1  0  0  0  0
  2  3  1  0  0  0  0
  2 22  1  0  0  0  0
  3  4  1  0  0  0  0
  3 23  1  0  0  0  0
  3 24  1  0  0  0  0
  4  5  1  0  0  0  0
  4  6  1  0  0  0  0
  4 45  1  0  0  0  0
  5 25  1  0  0  0  0
  5 26  1  0  0  0  0
  5 27  1  0  0  0  0
  6  7  1  0  0  0  0
  6  8  1  0  0  0  0
  6 28  1  0  0  0  0
  7 29  1  0  0  0  0
  7 30  1  0  0  0  0
  7 31  1  0  0  0  0
  8  9  1  0  0  0  0
  8 32  1  0  0  0  0
  8 33  1  0  0  0  0
  9 10  1  0  0  0  0
  9 34  1  0  0  0  0
 10 11  1  0  0  0  0
 10 35  1  0  0  0  0
 10 44  1  0  0  0  0
 11 12  1  0  0  0  0
 11 36  1  0  0  0  0
 11 37  1  0  0  0  0
 12 13  1  0  0  0  0
 12 38  1  0  0  0  0
 12 39  1  0  0  0  0
 13 18  1  0  0  0  0
 13 14  2  0  0  0  0
 14 15  1  0  0  0  0
 14 40  1  0  0  0  0
 15 16  2  0  0  0  0
 15 41  1  0  0  0  0
 16 17  1  0  0  0  0
 16 42  1  0  0  0  0
 17 18  2  0  0  0  0
 17 43  1  0  0  0  0
M  CHG  1   4   1
M  CHG  1  10   1
M  END
> <s_m_source_file>
AV-unprocessed.smi

> <i_m_source_file_index>
3303

> <i_lp_mmshare_version>
43012

> <i_f3d_flags>
0

> <s_epik_input>
W0NIM11bQ0BASF0xW0NIMl1OKFtDSDNdKVtDQEBIXShbQ0gzXSlbQ0gyXVtDQEhdMVtOSF1bQ0gyXVtDSDJdYzJbY0hdW2NIXVtjSF1bY0hdbjI=

> <s_epik_cmdline>
J2VwaWtfcHl0aG9uJywgJy1waCcsICc3LjAnLCAnLXRuJywgJzgnLCAnLW1hJywgJzIwMCcsICctbWV0YWxfYmluZGluZycsICctaW1hZScsICc8aW5maWxlLm1hZT4nLCAnLW9tYWUnLCAnPG91dGZpbGUubWFlPic=

> <r_epik_Ionization_Penalty>
0.0769462

> <r_epik_Ionization_Penalty_Charging>
0.0759813

> <r_epik_Ionization_Penalty_Neutral>
0.000964829

> <r_epik_State_Penalty>
0.0654373

> <r_epik_Charging_Adjusted_Penalty>
0.141419

> <i_epik_Tot_Q>
2

> <i_epik_Tot_abs_Q>
2

> <r_epik_Metal_State_Penalty>
0.0656439

> <b_epik_Metal_Only>
0

> <s_lp_Force_Field>
OPLS_2005

> <r_lp_Energy>
28.3662

> <b_lp_Chiralities_Consistent>
1

> <s_lp_Variant>
AV-unprocessed.smi:3303-12

> <Gold.Version>
5.8.1

> <Gold.Id.Protein>
6NUR|6NUR_protein|mol2

> <Gold.PLP.Fitness>
50.4022

> <Gold.PLP.PLP>
-43.2566

> <Gold.PLP.part.hbond>
-2.0000

> <Gold.PLP.part.metal>
0.0000

> <Gold.PLP.part.buried>
-1.8394

> <Gold.PLP.part.nonpolar>
-39.3245

> <Gold.PLP.part.repulsive>
0.2276

> <Gold.PLP.ligand.clash>
0.0000

> <Gold.PLP.ligand.torsion>
0.7344

> <Gold.PLP.Chemscore.Hbond>
2.8640

> <Gold.PLP.Chemscore.CHOScore>
0.0000

> <Gold.PLP.Chemscore.Metal>
0.0000

> <Gold.Chemscore.Hbonds>
donor molecule, donor type, donor heavy atom, donor atom, acceptor molecule, acceptor atom, score
      L1  H     4    45       P1  7957  0.94
      L1  H    10    44       P1  8028  1.85

> <Gold.PLP.Chemscore.Internal.Correction>
0.0224

> <Gold.Rescore>
     Score         DG    S(hbond)    S(metal)    S(lipo)     H(rot)  DE(clash)    DE(int)     intcor
     22.35     -23.60       1.93        0.00     129.78       1.37       0.45       0.79       ----

> <Gold.Chemscore.Fitness>
22.3538

> <Gold.Chemscore.DG>
-23.5952

> <Gold.Chemscore.ZeroCoef>
-5.4800

> <Gold.Chemscore.Hbond>
1.9309

> <Gold.Chemscore.Metal>
0.0000

> <Gold.Chemscore.Lipo>
129.7819

> <Gold.Chemscore.Internal_Hbond>
0.0000

> <Gold.Chemscore.DEClash>
0.4484

> <Gold.Chemscore.DEInternal>
0.7931

> <Gold.Chemscore.Rot>
1.3744

> <Gold.Chemscore.Internal.Correction>
   9.000000E+99

> <Gold.Chemscore.Hbonds>
donor molecule, donor type, donor heavy atom, donor atom, acceptor molecule, acceptor atom, score
      L1  H     4    45       P1  7957  0.91
      L1  H    10    44       P1  8028  0.84

> <Gold.Chemscore.Hbond.Weighted>
-6.4492

> <Gold.Chemscore.Metal.Weighted>
-0.0000

> <Gold.Chemscore.Lipo.Weighted>
-15.1845

> <Gold.Chemscore.Internal_Hbond.Weighted>
0.0000

> <Gold.Chemscore.DEClash.Weighted>
0.4484

> <Gold.Chemscore.DEInternal.Weighted>
0.7931

> <Gold.Chemscore.Rot.Weighted>
3.5185

> <Gold.Chemscore.Internal.Correction.Weighted>
   9.000000E+99

> <Gold.Protein.RotatedTorsions>
[ 6907 6896 6895 6894 ] final  -32.64 input  -60.11 | X-H torsion
[ 7974 7965 7964 7962 ] final  171.11 input  175.53 | X-H torsion
[ 8008 7997 7996 7995 ] final   34.46 input   59.86 | X-H torsion
[ 10167 10162 10161 10158 ] final   56.04 input  -65.29 | X-H torsion
[ 10718 10713 10712 10709 ] final   40.84 input   66.30 | X-H torsion
[ 10763 10752 10751 10750 ] final   -9.16 input  -60.55 | X-H torsion
[ 11005 11000 10999 10996 ] final  103.67 input  -57.11 | X-H torsion

> <Gold.Protein.ActiveResidues>
 VAL166  LYS551  ARG553  GLY616  TRP617  ASP618  TYR619  PRO620  LYS621  CYS622 
 ASP623  PHE694  ASN695  SER759  ASP760  ASP761  ALA762  ILE779  LEU786  VAL792 
 PHE793  MET794  SER795  GLU796  ALA797  LYS798  CYS799  TRP800  GLU811  SER814 

> <Gold.Protein.RotatedAtoms>
  151.0761  134.9829  159.8332 H   0  0  0  0  0  0  0  0  0  0  0  0  # atno 6907 bound_to 6896
  152.5414  134.2240  159.8809 H   0  0  0  0  0  0  0  0  0  0  0  0  # atno 6908 bound_to 6896
  151.2267  133.4429  159.2636 H   0  0  0  0  0  0  0  0  0  0  0  0  # atno 6909 bound_to 6896
  144.7304  139.9301  143.6424 H   0  0  0  0  0  0  0  0  0  0  0  0  # atno 7974 bound_to 7965
  155.1552  140.3278  155.4423 H   0  0  0  0  0  0  0  0  0  0  0  0  # atno 8008 bound_to 7997
  156.2561  140.1970  156.6612 H   0  0  0  0  0  0  0  0  0  0  0  0  # atno 8009 bound_to 7997
  154.6444  140.0566  156.9870 H   0  0  0  0  0  0  0  0  0  0  0  0  # atno 8010 bound_to 7997
  140.2130  144.3869  150.6481 H   0  0  0  0  0  0  0  0  0  0  0  0  # atno 10167 bound_to 10162
  157.3867  130.7784  149.7236 H   0  0  0  0  0  0  0  0  0  0  0  0  # atno 10718 bound_to 10713
  153.4507  135.7015  153.6110 H   0  0  0  0  0  0  0  0  0  0  0  0  # atno 10763 bound_to 10752
  153.4446  135.3772  155.2248 H   0  0  0  0  0  0  0  0  0  0  0  0  # atno 10764 bound_to 10752
  154.8728  135.3982  154.3919 H   0  0  0  0  0  0  0  0  0  0  0  0  # atno 10765 bound_to 10752
  139.8785  134.9272  156.5244 H   0  0  0  0  0  0  0  0  0  0  0  0  # atno 11005 bound_to 11000
  146.0864  139.3852  143.0433 LP  0  0  0  0  0  0  0  0  0  0  0  0  # atno 17320 bound_to 7965
  145.7771  140.9872  143.1119 LP  0  0  0  0  0  0  0  0  0  0  0  0  # atno 17321 bound_to 7965
  140.6310  143.2187  151.6496 LP  0  0  0  0  0  0  0  0  0  0  0  0  # atno 17342 bound_to 10162
  139.5172  144.3321  152.0817 LP  0  0  0  0  0  0  0  0  0  0  0  0  # atno 17343 bound_to 10162
  155.9788  130.4047  150.3623 LP  0  0  0  0  0  0  0  0  0  0  0  0  # atno 17370 bound_to 10713
  157.1734  131.0374  151.2784 LP  0  0  0  0  0  0  0  0  0  0  0  0  # atno 17371 bound_to 10713
  140.8426  133.8193  155.9090 LP  0  0  0  0  0  0  0  0  0  0  0  0  # atno 17394 bound_to 11000
  140.9222  134.2127  157.4919 LP  0  0  0  0  0  0  0  0  0  0  0  0  # atno 17395 bound_to 11000

$$$$
