AV-unprocessed.smi:1612|AV-procd|sdf|6476|dock4
  -GOLD-   22720 7133D 1   1.00000     0.00000
 Structure written by MMmdl.
 37 38  0  0  0  0  0  0  0  0  1 V2000
  152.0892  145.5895  159.3429 C   0  0  0  0  0  0  0  0  0  0  0  0
  151.5924  144.5024  158.3748 C   0  0  2  0  0  0  0  0  0  0  0  0
  150.1296  144.5166  158.3975 N   0  0  0  0  0  0  0  0  0  0  0  0
  149.3723  144.2689  159.4771 C   0  0  0  0  0  0  0  0  0  0  0  0
  149.8387  143.9743  160.5783 O   0  0  0  0  0  0  0  0  0  0  0  0
  148.0639  144.3901  159.1918 N   0  0  0  0  0  0  0  0  0  0  0  0
  146.9553  144.2048  160.0602 C   0  0  0  0  0  0  0  0  0  0  0  0
  145.7333  144.7397  159.5929 C   0  0  0  0  0  0  0  0  0  0  0  0
  144.5729  144.6073  160.3797 C   0  0  0  0  0  0  0  0  0  0  0  0
  144.6641  143.9427  161.6157 C   0  0  0  0  0  0  0  0  0  0  0  0
  145.9186  143.4398  162.0069 C   0  0  0  0  0  0  0  0  0  0  0  0
  147.0319  143.5648  161.2539 N   0  0  0  0  0  0  0  0  0  0  0  0
  152.1297  143.1408  158.8692 C   0  0  0  0  0  0  0  0  0  0  0  0
  152.8315  143.1030  159.8821 O   0  0  0  0  0  0  0  0  0  0  0  0
  151.8329  142.0246  158.1694 N   0  0  0  0  0  0  0  0  0  0  0  0
  151.0315  142.0355  156.9466 C   0  0  0  0  0  0  0  0  0  0  0  0
  151.1632  140.6343  156.3505 C   0  0  0  0  0  0  0  0  0  0  0  0
  151.4674  139.7489  157.5504 C   0  0  0  0  0  0  0  0  0  0  0  0
  152.2463  140.6607  158.4989 C   0  0  0  0  0  0  0  0  0  0  0  0
  153.1786  145.6368  159.3629 H   0  0  0  0  0  0  0  0  0  0  0  0
  151.7456  145.4137  160.3637 H   0  0  0  0  0  0  0  0  0  0  0  0
  151.7296  146.5734  159.0398 H   0  0  0  0  0  0  0  0  0  0  0  0
  151.9295  144.7302  157.3633 H   0  0  0  0  0  0  0  0  0  0  0  0
  149.6656  144.7576  157.5342 H   0  0  0  0  0  0  0  0  0  0  0  0
  147.8338  144.6462  158.2431 H   0  0  0  0  0  0  0  0  0  0  0  0
  145.6809  145.2480  158.6408 H   0  0  0  0  0  0  0  0  0  0  0  0
  143.6297  145.0092  160.0404 H   0  0  0  0  0  0  0  0  0  0  0  0
  143.7964  143.8210  162.2471 H   0  0  0  0  0  0  0  0  0  0  0  0
  146.0312  142.9229  162.9484 H   0  0  0  0  0  0  0  0  0  0  0  0
  149.9928  142.2461  157.2054 H   0  0  0  0  0  0  0  0  0  0  0  0
  151.3669  142.7980  156.2415 H   0  0  0  0  0  0  0  0  0  0  0  0
  150.2722  140.3205  155.8059 H   0  0  0  0  0  0  0  0  0  0  0  0
  152.0050  140.6100  155.6571 H   0  0  0  0  0  0  0  0  0  0  0  0
  150.5332  139.4418  158.0225 H   0  0  0  0  0  0  0  0  0  0  0  0
  152.0186  138.8469  157.2829 H   0  0  0  0  0  0  0  0  0  0  0  0
  153.3188  140.5621  158.3236 H   0  0  0  0  0  0  0  0  0  0  0  0
  152.0434  140.4055  159.5398 H   0  0  0  0  0  0  0  0  0  0  0  0
  1  2  1  0  0  0  0
  1 20  1  0  0  0  0
  1 21  1  0  0  0  0
  1 22  1  0  0  0  0
  2  3  1  0  0  0  0
  2 13  1  0  0  0  0
  2 23  1  0  0  0  0
  3  4  1  0  0  0  0
  3 24  1  0  0  0  0
  4  5  2  0  0  0  0
  4  6  1  0  0  0  0
  6  7  1  0  0  0  0
  6 25  1  0  0  0  0
  7 12  1  0  0  0  0
  7  8  2  0  0  0  0
  8  9  1  0  0  0  0
  8 26  1  0  0  0  0
  9 10  2  0  0  0  0
  9 27  1  0  0  0  0
 10 11  1  0  0  0  0
 10 28  1  0  0  0  0
 11 12  2  0  0  0  0
 11 29  1  0  0  0  0
 13 14  2  0  0  0  0
 13 15  1  0  0  0  0
 15 19  1  0  0  0  0
 15 16  1  0  0  0  0
 16 17  1  0  0  0  0
 16 30  1  0  0  0  0
 16 31  1  0  0  0  0
 17 18  1  0  0  0  0
 17 32  1  0  0  0  0
 17 33  1  0  0  0  0
 18 19  1  0  0  0  0
 18 34  1  0  0  0  0
 18 35  1  0  0  0  0
 19 36  1  0  0  0  0
 19 37  1  0  0  0  0
M  END
> <s_m_source_file>
AV-unprocessed.smi

> <i_m_source_file_index>
1612

> <i_lp_mmshare_version>
43012

> <i_f3d_flags>
0

> <s_epik_input>
W0NIMl0xW0NIMl1bQ0gyXVtDSDJdTjFDKD1PKVtDQEhdKFtDSDNdKVtOSF1DKD1PKVtOSF1jMltjSF1bY0hdW2NIXVtjSF1uMg==

> <s_epik_cmdline>
J2VwaWtfcHl0aG9uJywgJy1waCcsICc3LjAnLCAnLXRuJywgJzgnLCAnLW1hJywgJzIwMCcsICctbWV0YWxfYmluZGluZycsICctaW1hZScsICc8aW5maWxlLm1hZT4nLCAnLW9tYWUnLCAnPG91dGZpbGUubWFlPic=

> <r_lp_tautomer_probability>
1

> <r_epik_Ionization_Penalty>
3.95281e-05

> <r_epik_Ionization_Penalty_Charging>
0

> <r_epik_Ionization_Penalty_Neutral>
3.95281e-05

> <r_epik_State_Penalty>
-0

> <r_epik_Charging_Adjusted_Penalty>
0

> <i_epik_Tot_Q>
0

> <i_epik_Tot_abs_Q>
0

> <r_epik_Metal_State_Penalty>
-0

> <b_epik_Metal_Only>
0

> <s_lp_Force_Field>
OPLS_2005

> <r_lp_Energy>
30.1614

> <b_lp_Chiralities_Consistent>
1

> <s_lp_Variant>
AV-unprocessed.smi:1612-1

> <Gold.Version>
5.8.1

> <Gold.Id.Protein>
6NUR|6NUR_protein|mol2

> <Gold.PLP.Fitness>
45.6903

> <Gold.PLP.PLP>
-38.9607

> <Gold.PLP.part.hbond>
-4.8570

> <Gold.PLP.part.metal>
0.0000

> <Gold.PLP.part.buried>
-6.3697

> <Gold.PLP.part.nonpolar>
-28.3388

> <Gold.PLP.part.repulsive>
0.4471

> <Gold.PLP.ligand.clash>
0.0000

> <Gold.PLP.ligand.torsion>
0.0745

> <Gold.PLP.Chemscore.Hbond>
2.2894

> <Gold.PLP.Chemscore.CHOScore>
0.0000

> <Gold.PLP.Chemscore.Metal>
0.0000

> <Gold.Chemscore.Hbonds>
donor molecule, donor type, donor heavy atom, donor atom, acceptor molecule, acceptor atom, score
      L1  H     3    24       P1  8028  0.45
      L1  H     6    25       P1  8029  0.80
      P1  H  6933  6944       L1    12  1.00

> <Gold.PLP.Chemscore.Internal.Correction>
0.0105

> <Gold.Rescore>
     Score         DG    S(hbond)    S(metal)    S(lipo)     H(rot)  DE(clash)    DE(int)     intcor
     14.12     -17.68       1.88        0.00      79.19       1.30       0.16       3.40       ----

> <Gold.Chemscore.Fitness>
14.1182

> <Gold.Chemscore.DG>
-17.6837

> <Gold.Chemscore.ZeroCoef>
-5.4800

> <Gold.Chemscore.Hbond>
1.8775

> <Gold.Chemscore.Metal>
0.0000

> <Gold.Chemscore.Lipo>
79.1872

> <Gold.Chemscore.Internal_Hbond>
0.0000

> <Gold.Chemscore.DEClash>
0.1627

> <Gold.Chemscore.DEInternal>
3.4028

> <Gold.Chemscore.Rot>
1.3016

> <Gold.Chemscore.Internal.Correction>
   9.000000E+99

> <Gold.Chemscore.Hbonds>
donor molecule, donor type, donor heavy atom, donor atom, acceptor molecule, acceptor atom, score
      L1  H     3    24       P1  8028  0.02
      L1  H     6    25       P1  8029  0.65
      P1  H  6933  6944       L1    12  0.91

> <Gold.Chemscore.Hbond.Weighted>
-6.2710

> <Gold.Chemscore.Metal.Weighted>
-0.0000

> <Gold.Chemscore.Lipo.Weighted>
-9.2649

> <Gold.Chemscore.Internal_Hbond.Weighted>
0.0000

> <Gold.Chemscore.DEClash.Weighted>
0.1627

> <Gold.Chemscore.DEInternal.Weighted>
3.4028

> <Gold.Chemscore.Rot.Weighted>
3.3322

> <Gold.Chemscore.Internal.Correction.Weighted>
   9.000000E+99

> <Gold.Protein.RotatedTorsions>
[ 6907 6896 6895 6894 ] final -165.18 input  -60.11 | X-H torsion
[ 7974 7965 7964 7962 ] final   52.09 input  175.53 | X-H torsion
[ 8008 7997 7996 7995 ] final -152.12 input   59.86 | X-H torsion
[ 10167 10162 10161 10158 ] final   95.41 input  -65.29 | X-H torsion
[ 10718 10713 10712 10709 ] final  126.33 input   66.30 | X-H torsion
[ 10763 10752 10751 10750 ] final   70.68 input  -60.55 | X-H torsion
[ 11005 11000 10999 10996 ] final -136.57 input  -57.11 | X-H torsion

> <Gold.Protein.ActiveResidues>
 VAL166  LYS551  ARG553  GLY616  TRP617  ASP618  TYR619  PRO620  LYS621  CYS622 
 ASP623  PHE694  ASN695  SER759  ASP760  ASP761  ALA762  ILE779  LEU786  VAL792 
 PHE793  MET794  SER795  GLU796  ALA797  LYS798  CYS799  TRP800  GLU811  SER814 

> <Gold.Protein.RotatedAtoms>
  151.4236  133.3691  159.2759 H   0  0  0  0  0  0  0  0  0  0  0  0  # atno 6907 bound_to 6896
  150.9275  134.8693  159.7540 H   0  0  0  0  0  0  0  0  0  0  0  0  # atno 6908 bound_to 6896
  152.5012  134.4178  159.9522 H   0  0  0  0  0  0  0  0  0  0  0  0  # atno 6909 bound_to 6896
  145.9848  139.4279  143.0110 H   0  0  0  0  0  0  0  0  0  0  0  0  # atno 7974 bound_to 7965
  155.6502  140.0711  157.2589 H   0  0  0  0  0  0  0  0  0  0  0  0  # atno 8008 bound_to 7997
  154.4164  140.1735  156.1716 H   0  0  0  0  0  0  0  0  0  0  0  0  # atno 8009 bound_to 7997
  155.9783  140.3356  155.6643 H   0  0  0  0  0  0  0  0  0  0  0  0  # atno 8010 bound_to 7997
  139.7991  144.6821  150.9788 H   0  0  0  0  0  0  0  0  0  0  0  0  # atno 10167 bound_to 10162
  157.5428  131.1096  150.8830 H   0  0  0  0  0  0  0  0  0  0  0  0  # atno 10718 bound_to 10713
  153.0355  135.5165  154.7478 H   0  0  0  0  0  0  0  0  0  0  0  0  # atno 10763 bound_to 10752
  154.6457  135.2918  155.0051 H   0  0  0  0  0  0  0  0  0  0  0  0  # atno 10764 bound_to 10752
  154.0952  135.6644  153.4911 H   0  0  0  0  0  0  0  0  0  0  0  0  # atno 10765 bound_to 10752
  140.8793  134.1952  157.4602 H   0  0  0  0  0  0  0  0  0  0  0  0  # atno 11005 bound_to 11000
  145.7716  140.9894  143.1146 LP  0  0  0  0  0  0  0  0  0  0  0  0  # atno 17320 bound_to 7965
  144.6871  139.9454  143.7476 LP  0  0  0  0  0  0  0  0  0  0  0  0  # atno 17321 bound_to 7965
  140.7820  143.4300  151.0709 LP  0  0  0  0  0  0  0  0  0  0  0  0  # atno 17342 bound_to 10162
  139.7973  143.8134  152.3159 LP  0  0  0  0  0  0  0  0  0  0  0  0  # atno 17343 bound_to 10162
  156.9378  130.5373  149.5280 LP  0  0  0  0  0  0  0  0  0  0  0  0  # atno 17370 bound_to 10713
  156.0511  130.5580  150.8991 LP  0  0  0  0  0  0  0  0  0  0  0  0  # atno 17371 bound_to 10713
  139.8718  134.9810  156.5097 LP  0  0  0  0  0  0  0  0  0  0  0  0  # atno 17394 bound_to 11000
  140.8481  133.8153  155.9141 LP  0  0  0  0  0  0  0  0  0  0  0  0  # atno 17395 bound_to 11000

$$$$
