AV-unprocessed.smi:3068|AV-procd|sdf|11701|dock6
  -GOLD-   2272017103D 1   1.00000     0.00000
 Structure written by MMmdl.
 40 42  0  0  0  0  0  0  0  0  2 V2000
  150.1818  133.9010  157.3389 N   0  0  0  0  0  0  0  0  0  0  0  0
  150.1089  134.8236  156.6441 C   0  0  0  0  0  0  0  0  0  0  0  0
  150.0170  135.9863  155.7702 C   0  0  0  0  0  0  0  0  0  0  0  0
  151.1772  136.4452  155.2464 N   0  0  0  0  0  0  0  0  0  0  0  0
  151.1065  137.5211  154.4341 C   0  0  0  0  0  0  0  0  0  0  0  0
  149.8782  138.1447  154.1413 C   0  0  0  0  0  0  0  0  0  0  0  0
  148.7160  137.6949  154.6605 N   0  0  0  0  0  0  0  0  0  0  0  0
  148.7726  136.6141  155.4789 C   0  0  0  0  0  0  0  0  0  0  0  0
  147.5693  136.1331  156.0284 N   0  0  0  0  0  0  0  0  0  0  0  0
  146.2963  136.2542  155.3274 C   0  0  0  0  0  0  0  0  0  0  0  0
  146.4398  136.0550  153.8090 C   0  0  1  0  0  0  0  0  0  0  0  0
  146.7218  134.5842  153.4541 C   0  0  0  0  0  0  0  0  0  0  0  0
  146.7653  134.4015  151.9820 N   0  3  1  0  0  0  0  0  0  0  0  0
  147.0886  133.0144  151.5572 C   0  0  0  0  0  0  0  0  0  0  0  0
  145.8959  132.0558  151.7389 C   0  0  0  0  0  0  0  0  0  0  0  0
  144.6449  132.5897  151.0281 C   0  0  0  0  0  0  0  0  0  0  0  0
  144.3335  134.0193  151.4933 C   0  0  0  0  0  0  0  0  0  0  0  0
  145.5557  134.9447  151.3045 C   0  0  1  0  0  0  0  0  0  0  0  0
  145.2869  136.3880  151.7738 C   0  0  0  0  0  0  0  0  0  0  0  0
  145.2147  136.4380  153.1931 O   0  0  0  0  0  0  0  0  0  0  0  0
  152.0334  137.8862  154.0173 H   0  0  0  0  0  0  0  0  0  0  0  0
  149.8279  139.0052  153.4909 H   0  0  0  0  0  0  0  0  0  0  0  0
  147.5631  135.7841  156.9766 H   0  0  0  0  0  0  0  0  0  0  0  0
  145.5854  135.5374  155.7397 H   0  0  0  0  0  0  0  0  0  0  0  0
  145.8825  137.2416  155.5340 H   0  0  0  0  0  0  0  0  0  0  0  0
  147.2524  136.6778  153.4310 H   0  0  0  0  0  0  0  0  0  0  0  0
  147.6767  134.2778  153.8827 H   0  0  0  0  0  0  0  0  0  0  0  0
  145.9578  133.9439  153.8955 H   0  0  0  0  0  0  0  0  0  0  0  0
  147.3753  133.0383  150.5050 H   0  0  0  0  0  0  0  0  0  0  0  0
  147.9595  132.6504  152.1038 H   0  0  0  0  0  0  0  0  0  0  0  0
  146.1511  131.0708  151.3473 H   0  0  0  0  0  0  0  0  0  0  0  0
  145.6844  131.9144  152.7991 H   0  0  0  0  0  0  0  0  0  0  0  0
  144.8040  132.5802  149.9490 H   0  0  0  0  0  0  0  0  0  0  0  0
  143.7939  131.9365  151.2232 H   0  0  0  0  0  0  0  0  0  0  0  0
  143.4831  134.4073  150.9315 H   0  0  0  0  0  0  0  0  0  0  0  0
  144.0241  134.0051  152.5390 H   0  0  0  0  0  0  0  0  0  0  0  0
  145.7756  134.9833  150.2365 H   0  0  0  0  0  0  0  0  0  0  0  0
  146.0711  137.0604  151.4218 H   0  0  0  0  0  0  0  0  0  0  0  0
  144.3501  136.7572  151.3557 H   0  0  0  0  0  0  0  0  0  0  0  0
  147.5372  134.9730  151.6694 H   0  0  0  0  0  0  0  0  0  0  0  0
  1  2  3  0  0  0  0
  2  3  1  0  0  0  0
  3  8  1  0  0  0  0
  3  4  2  0  0  0  0
  4  5  1  0  0  0  0
  5  6  2  0  0  0  0
  5 21  1  0  0  0  0
  6  7  1  0  0  0  0
  6 22  1  0  0  0  0
  7  8  2  0  0  0  0
  8  9  1  0  0  0  0
  9 10  1  0  0  0  0
  9 23  1  0  0  0  0
 10 11  1  0  0  0  0
 10 24  1  0  0  0  0
 10 25  1  0  0  0  0
 11 20  1  0  0  0  0
 11 12  1  0  0  0  0
 11 26  1  0  0  0  0
 12 13  1  0  0  0  0
 12 27  1  0  0  0  0
 12 28  1  0  0  0  0
 13 18  1  0  0  0  0
 13 14  1  0  0  0  0
 13 40  1  0  0  0  0
 14 15  1  0  0  0  0
 14 29  1  0  0  0  0
 14 30  1  0  0  0  0
 15 16  1  0  0  0  0
 15 31  1  0  0  0  0
 15 32  1  0  0  0  0
 16 17  1  0  0  0  0
 16 33  1  0  0  0  0
 16 34  1  0  0  0  0
 17 18  1  0  0  0  0
 17 35  1  0  0  0  0
 17 36  1  0  0  0  0
 18 19  1  0  0  0  0
 18 37  1  0  0  0  0
 19 20  1  0  0  0  0
 19 38  1  0  0  0  0
 19 39  1  0  0  0  0
M  CHG  1  13   1
M  END
> <s_m_source_file>
AV-unprocessed.smi

> <i_m_source_file_index>
3068

> <i_lp_mmshare_version>
43012

> <i_f3d_flags>
0

> <s_epik_input>
TiNDYzFuW2NIXVtjSF1uYzFbTkhdW0NIMl1bQ0BIXShbQ0gyXTIpT1tDSDJdW0NAQEhdKE4yMylbQ0gyXVtDSDJdW0NIMl1bQ0gyXTM=

> <s_epik_cmdline>
J2VwaWtfcHl0aG9uJywgJy1waCcsICc3LjAnLCAnLXRuJywgJzgnLCAnLW1hJywgJzIwMCcsICctbWV0YWxfYmluZGluZycsICctaW1hZScsICc8aW5maWxlLm1hZT4nLCAnLW9tYWUnLCAnPG91dGZpbGUubWFlPic=

> <r_epik_Ionization_Penalty>
0.0804321

> <r_epik_Ionization_Penalty_Charging>
0.0803403

> <r_epik_Ionization_Penalty_Neutral>
9.17277e-05

> <r_epik_State_Penalty>
0.0711481

> <r_epik_Charging_Adjusted_Penalty>
0.151488

> <i_epik_Tot_Q>
1

> <i_epik_Tot_abs_Q>
1

> <r_epik_Metal_State_Penalty>
0.0711481

> <b_epik_Metal_Only>
0

> <s_lp_Force_Field>
OPLS_2005

> <r_lp_Energy>
39.2156

> <b_lp_Chiralities_Consistent>
1

> <s_lp_Variant>
AV-unprocessed.smi:3068-4

> <Gold.Version>
5.8.1

> <Gold.Id.Protein>
6NUR|6NUR_protein|mol2

> <Gold.PLP.Fitness>
37.9405

> <Gold.PLP.PLP>
-24.1230

> <Gold.PLP.part.hbond>
-2.9979

> <Gold.PLP.part.metal>
0.0000

> <Gold.PLP.part.buried>
-0.5260

> <Gold.PLP.part.nonpolar>
-21.3583

> <Gold.PLP.part.repulsive>
0.4456

> <Gold.PLP.ligand.clash>
0.0000

> <Gold.PLP.ligand.torsion>
0.4223

> <Gold.PLP.Chemscore.Hbond>
3.8960

> <Gold.PLP.Chemscore.CHOScore>
0.9908

> <Gold.PLP.Chemscore.Metal>
0.0000

> <Gold.Chemscore.Hbonds>
donor molecule, donor type, donor heavy atom, donor atom, acceptor molecule, acceptor atom, score
      L1  H    13    40       P1  7948  2.00
      P1  H  6896  6909       L1     1  0.90
      P1  H 10752 10763       L1     4  0.93
      L1  C     6    22       P1  7957  0.95

> <Gold.PLP.Chemscore.Internal.Correction>
0.0016

> <Gold.Rescore>
     Score         DG    S(hbond)    S(metal)    S(lipo)     H(rot)  DE(clash)    DE(int)     intcor
     14.99     -16.67       2.35        0.00      57.56       1.32       0.02       1.65       ----

> <Gold.Chemscore.Fitness>
14.9938

> <Gold.Chemscore.DG>
-16.6698

> <Gold.Chemscore.ZeroCoef>
-5.4800

> <Gold.Chemscore.Hbond>
2.3452

> <Gold.Chemscore.Metal>
0.0000

> <Gold.Chemscore.Lipo>
57.5580

> <Gold.Chemscore.Internal_Hbond>
0.0000

> <Gold.Chemscore.DEClash>
0.0222

> <Gold.Chemscore.DEInternal>
1.6539

> <Gold.Chemscore.Rot>
1.3193

> <Gold.Chemscore.Internal.Correction>
   9.000000E+99

> <Gold.Chemscore.Hbonds>
donor molecule, donor type, donor heavy atom, donor atom, acceptor molecule, acceptor atom, score
      L1  H    13    40       P1  7948  0.65
      P1  H  6896  6909       L1     1  0.84
      P1  H 10752 10763       L1     4  0.23

> <Gold.Chemscore.Hbond.Weighted>
-7.8329

> <Gold.Chemscore.Metal.Weighted>
-0.0000

> <Gold.Chemscore.Lipo.Weighted>
-6.7343

> <Gold.Chemscore.Internal_Hbond.Weighted>
0.0000

> <Gold.Chemscore.DEClash.Weighted>
0.0222

> <Gold.Chemscore.DEInternal.Weighted>
1.6539

> <Gold.Chemscore.Rot.Weighted>
3.3774

> <Gold.Chemscore.Internal.Correction.Weighted>
   9.000000E+99

> <Gold.Protein.RotatedTorsions>
[ 6907 6896 6895 6894 ] final    0.19 input  -60.11 | X-H torsion
[ 7974 7965 7964 7962 ] final  -34.64 input  175.53 | X-H torsion
[ 8008 7997 7996 7995 ] final -148.68 input   59.86 | X-H torsion
[ 10167 10162 10161 10158 ] final  127.27 input  -65.29 | X-H torsion
[ 10718 10713 10712 10709 ] final -149.07 input   66.30 | X-H torsion
[ 10763 10752 10751 10750 ] final   57.52 input  -60.55 | X-H torsion
[ 11005 11000 10999 10996 ] final   85.09 input  -57.11 | X-H torsion

> <Gold.Protein.ActiveResidues>
 VAL166  LYS551  ARG553  GLY616  TRP617  ASP618  TYR619  PRO620  LYS621  CYS622 
 ASP623  PHE694  ASN695  SER759  ASP760  ASP761  ALA762  ILE779  LEU786  VAL792 
 PHE793  MET794  SER795  GLU796  ALA797  LYS798  CYS799  TRP800  GLU811  SER814 

> <Gold.Protein.RotatedAtoms>
  151.5723  135.1062  159.9997 H   0  0  0  0  0  0  0  0  0  0  0  0  # atno 6907 bound_to 6896
  152.4394  133.7417  159.6655 H   0  0  0  0  0  0  0  0  0  0  0  0  # atno 6908 bound_to 6896
  150.8297  133.8042  159.3127 H   0  0  0  0  0  0  0  0  0  0  0  0  # atno 6909 bound_to 6896
  146.0812  140.6063  142.8907 H   0  0  0  0  0  0  0  0  0  0  0  0  # atno 7974 bound_to 7965
  155.5955  140.0657  157.2747 H   0  0  0  0  0  0  0  0  0  0  0  0  # atno 8008 bound_to 7997
  154.4293  140.1827  156.1166 H   0  0  0  0  0  0  0  0  0  0  0  0  # atno 8009 bound_to 7997
  156.0199  140.3318  155.7032 H   0  0  0  0  0  0  0  0  0  0  0  0  # atno 8010 bound_to 7997
  139.5587  144.6867  151.4106 H   0  0  0  0  0  0  0  0  0  0  0  0  # atno 10167 bound_to 10162
  156.4284  130.8063  151.2289 H   0  0  0  0  0  0  0  0  0  0  0  0  # atno 10718 bound_to 10713
  152.9851  135.5639  154.5403 H   0  0  0  0  0  0  0  0  0  0  0  0  # atno 10763 bound_to 10752
  154.4859  135.2790  155.1537 H   0  0  0  0  0  0  0  0  0  0  0  0  # atno 10764 bound_to 10752
  154.3026  135.6304  153.5484 H   0  0  0  0  0  0  0  0  0  0  0  0  # atno 10765 bound_to 10752
  139.8981  134.8262  156.2534 H   0  0  0  0  0  0  0  0  0  0  0  0  # atno 11005 bound_to 11000
  144.7295  140.4628  143.6948 LP  0  0  0  0  0  0  0  0  0  0  0  0  # atno 17320 bound_to 7965
  145.6213  139.1524  143.3021 LP  0  0  0  0  0  0  0  0  0  0  0  0  # atno 17321 bound_to 7965
  140.6864  143.7964  150.7192 LP  0  0  0  0  0  0  0  0  0  0  0  0  # atno 17342 bound_to 10162
  140.1433  143.4422  152.2179 LP  0  0  0  0  0  0  0  0  0  0  0  0  # atno 17343 bound_to 10162
  157.7508  131.0206  150.3715 LP  0  0  0  0  0  0  0  0  0  0  0  0  # atno 17370 bound_to 10713
  156.4047  130.3922  149.6934 LP  0  0  0  0  0  0  0  0  0  0  0  0  # atno 17371 bound_to 10713
  141.0209  133.7042  156.1266 LP  0  0  0  0  0  0  0  0  0  0  0  0  # atno 17394 bound_to 11000
  140.7235  134.4332  157.5573 LP  0  0  0  0  0  0  0  0  0  0  0  0  # atno 17395 bound_to 11000

$$$$
