AV-unprocessed.smi:3046|AV-procd|sdf|11614|dock7
  -GOLD-   2272016593D 1   1.00000     0.00000
 Structure written by MMmdl.
 38 38  0  0  0  0  0  0  0  0  2 V2000
  152.0727  138.5540  154.6734 C   0  0  0  0  0  0  0  0  0  0  0  0
  150.7421  138.4168  154.7735 C   0  0  0  0  0  0  0  0  0  0  0  0
  149.7333  139.3667  154.1585 C   0  0  0  0  0  0  0  0  0  0  0  0
  148.6543  138.6441  153.4959 N   0  0  0  0  0  0  0  0  0  0  0  0
  147.3879  139.0753  153.3864 C   0  0  0  0  0  0  0  0  0  0  0  0
  146.9977  140.1499  153.8446 O   0  0  0  0  0  0  0  0  0  0  0  0
  146.4089  138.1422  152.6593 C   0  0  1  0  0  0  0  0  0  0  0  0
  146.4946  138.3765  151.1434 C   0  0  0  0  0  0  0  0  0  0  0  0
  146.6825  136.7153  152.9584 N   0  3  0  0  0  0  0  0  0  0  0  0
  145.5950  135.7588  152.6435 C   0  0  2  0  0  0  0  0  0  0  0  0
  145.8454  134.4412  153.3955 C   0  0  0  0  0  0  0  0  0  0  0  0
  145.4703  135.5473  151.1173 C   0  0  0  0  0  0  0  0  0  0  0  0
  145.2334  134.1607  150.7588 N   0  0  0  0  0  0  0  0  0  0  0  0
  144.0299  133.5139  150.5689 C   0  0  0  0  0  0  0  0  0  0  0  0
  144.3128  132.2164  150.2514 C   0  0  0  0  0  0  0  0  0  0  0  0
  145.7345  132.1629  150.2794 C   0  0  0  0  0  0  0  0  0  0  0  0
  146.2823  133.3277  150.5869 N   0  0  0  0  0  0  0  0  0  0  0  0
  152.5137  139.3752  154.1273 H   0  0  0  0  0  0  0  0  0  0  0  0
  152.7402  137.8436  155.1390 H   0  0  0  0  0  0  0  0  0  0  0  0
  150.3404  137.5844  155.3332 H   0  0  0  0  0  0  0  0  0  0  0  0
  149.3342  140.0200  154.9361 H   0  0  0  0  0  0  0  0  0  0  0  0
  150.2240  140.0102  153.4273 H   0  0  0  0  0  0  0  0  0  0  0  0
  148.8890  137.7463  153.0969 H   0  0  0  0  0  0  0  0  0  0  0  0
  145.3944  138.3834  152.9773 H   0  0  0  0  0  0  0  0  0  0  0  0
  146.2856  139.4166  150.8888 H   0  0  0  0  0  0  0  0  0  0  0  0
  145.7689  137.7604  150.6115 H   0  0  0  0  0  0  0  0  0  0  0  0
  147.4845  138.1321  150.7548 H   0  0  0  0  0  0  0  0  0  0  0  0
  147.5070  136.4271  152.4520 H   0  0  0  0  0  0  0  0  0  0  0  0
  144.6567  136.1673  153.0208 H   0  0  0  0  0  0  0  0  0  0  0  0
  145.0249  133.7369  153.2562 H   0  0  0  0  0  0  0  0  0  0  0  0
  145.9400  134.6155  154.4679 H   0  0  0  0  0  0  0  0  0  0  0  0
  146.7613  133.9573  153.0548 H   0  0  0  0  0  0  0  0  0  0  0  0
  144.6540  136.1393  150.7033 H   0  0  0  0  0  0  0  0  0  0  0  0
  146.3797  135.8819  150.6160 H   0  0  0  0  0  0  0  0  0  0  0  0
  143.0835  134.0242  150.6710 H   0  0  0  0  0  0  0  0  0  0  0  0
  143.6112  131.4247  150.0342 H   0  0  0  0  0  0  0  0  0  0  0  0
  146.3799  131.3183  150.0879 H   0  0  0  0  0  0  0  0  0  0  0  0
  146.8785  136.6550  153.9478 H   0  0  0  0  0  0  0  0  0  0  0  0
  1  2  2  0  0  0  0
  1 18  1  0  0  0  0
  1 19  1  0  0  0  0
  2  3  1  0  0  0  0
  2 20  1  0  0  0  0
  3  4  1  0  0  0  0
  3 21  1  0  0  0  0
  3 22  1  0  0  0  0
  4  5  1  0  0  0  0
  4 23  1  0  0  0  0
  5  6  2  0  0  0  0
  5  7  1  0  0  0  0
  7  8  1  0  0  0  0
  7  9  1  0  0  0  0
  7 24  1  0  0  0  0
  8 25  1  0  0  0  0
  8 26  1  0  0  0  0
  8 27  1  0  0  0  0
  9 10  1  0  0  0  0
  9 28  1  0  0  0  0
  9 38  1  0  0  0  0
 10 11  1  0  0  0  0
 10 12  1  0  0  0  0
 10 29  1  0  0  0  0
 11 30  1  0  0  0  0
 11 31  1  0  0  0  0
 11 32  1  0  0  0  0
 12 13  1  0  0  0  0
 12 33  1  0  0  0  0
 12 34  1  0  0  0  0
 13 17  1  0  0  0  0
 13 14  1  0  0  0  0
 14 15  2  0  0  0  0
 14 35  1  0  0  0  0
 15 16  1  0  0  0  0
 15 36  1  0  0  0  0
 16 17  2  0  0  0  0
 16 37  1  0  0  0  0
M  CHG  1   9   1
M  END
> <s_m_source_file>
AV-unprocessed.smi

> <i_m_source_file_index>
3046

> <i_lp_mmshare_version>
43012

> <i_f3d_flags>
0

> <s_epik_input>
W0NIMl09W0NIXVtDSDJdW05IXUMoPU8pW0NASF0oW0NIM10pW05IXVtDQEhdKFtDSDNdKVtDSDJdbjFbY0hdW2NIXVtjSF1uMQ==

> <s_epik_cmdline>
J2VwaWtfcHl0aG9uJywgJy1waCcsICc3LjAnLCAnLXRuJywgJzgnLCAnLW1hJywgJzIwMCcsICctbWV0YWxfYmluZGluZycsICctaW1hZScsICc8aW5maWxlLm1hZT4nLCAnLW9tYWUnLCAnPG91dGZpbGUubWFlPic=

> <r_lp_tautomer_probability>
1

> <r_epik_Ionization_Penalty>
0.132961

> <r_epik_Ionization_Penalty_Charging>
0.132956

> <r_epik_Ionization_Penalty_Neutral>
5.00268e-06

> <r_epik_State_Penalty>
0.122332

> <r_epik_Charging_Adjusted_Penalty>
0.255288

> <i_epik_Tot_Q>
1

> <i_epik_Tot_abs_Q>
1

> <r_epik_Metal_State_Penalty>
0.122338

> <b_epik_Metal_Only>
0

> <s_lp_Force_Field>
OPLS_2005

> <r_lp_Energy>
6.33671

> <b_lp_Chiralities_Consistent>
1

> <s_lp_Variant>
AV-unprocessed.smi:3046-2

> <Gold.Version>
5.8.1

> <Gold.Id.Protein>
6NUR|6NUR_protein|mol2

> <Gold.PLP.Fitness>
45.2114

> <Gold.PLP.PLP>
-34.4888

> <Gold.PLP.part.hbond>
-3.0000

> <Gold.PLP.part.metal>
0.0000

> <Gold.PLP.part.buried>
-0.9921

> <Gold.PLP.part.nonpolar>
-31.7552

> <Gold.PLP.part.repulsive>
0.4385

> <Gold.PLP.ligand.clash>
0.0000

> <Gold.PLP.ligand.torsion>
2.1585

> <Gold.PLP.Chemscore.Hbond>
3.0000

> <Gold.PLP.Chemscore.CHOScore>
2.0000

> <Gold.PLP.Chemscore.Metal>
0.0000

> <Gold.Chemscore.Hbonds>
donor molecule, donor type, donor heavy atom, donor atom, acceptor molecule, acceptor atom, score
      L1  H     4    23       P1  7948  1.00
      L1  H     9    28       P1  7948  2.00
      L1  C    14    35       P1 10186  1.00
      L1  C    16    37       P1 10747  0.75

> <Gold.PLP.Chemscore.Internal.Correction>
0.0397

> <Gold.Rescore>
     Score         DG    S(hbond)    S(metal)    S(lipo)     H(rot)  DE(clash)    DE(int)     intcor
     12.26     -15.56       1.96        0.00      79.58       2.26       0.08       3.22       ----

> <Gold.Chemscore.Fitness>
12.2622

> <Gold.Chemscore.DG>
-15.5589

> <Gold.Chemscore.ZeroCoef>
-5.4800

> <Gold.Chemscore.Hbond>
1.9640

> <Gold.Chemscore.Metal>
0.0000

> <Gold.Chemscore.Lipo>
79.5845

> <Gold.Chemscore.Internal_Hbond>
0.0000

> <Gold.Chemscore.DEClash>
0.0771

> <Gold.Chemscore.DEInternal>
3.2196

> <Gold.Chemscore.Rot>
2.2626

> <Gold.Chemscore.Internal.Correction>
   9.000000E+99

> <Gold.Chemscore.Hbonds>
donor molecule, donor type, donor heavy atom, donor atom, acceptor molecule, acceptor atom, score
      L1  H     4    23       P1  7948  0.99
      L1  H     9    28       P1  7948  0.97

> <Gold.Chemscore.Hbond.Weighted>
-6.5597

> <Gold.Chemscore.Metal.Weighted>
-0.0000

> <Gold.Chemscore.Lipo.Weighted>
-9.3114

> <Gold.Chemscore.Internal_Hbond.Weighted>
0.0000

> <Gold.Chemscore.DEClash.Weighted>
0.0771

> <Gold.Chemscore.DEInternal.Weighted>
3.2196

> <Gold.Chemscore.Rot.Weighted>
5.7922

> <Gold.Chemscore.Internal.Correction.Weighted>
   9.000000E+99

> <Gold.Protein.RotatedTorsions>
[ 6907 6896 6895 6894 ] final  151.07 input  -60.11 | X-H torsion
[ 7974 7965 7964 7962 ] final   -6.34 input  175.53 | X-H torsion
[ 8008 7997 7996 7995 ] final   33.36 input   59.86 | X-H torsion
[ 10167 10162 10161 10158 ] final   -7.74 input  -65.29 | X-H torsion
[ 10718 10713 10712 10709 ] final  123.53 input   66.30 | X-H torsion
[ 10763 10752 10751 10750 ] final  117.31 input  -60.55 | X-H torsion
[ 11005 11000 10999 10996 ] final  -64.31 input  -57.11 | X-H torsion

> <Gold.Protein.ActiveResidues>
 VAL166  LYS551  ARG553  GLY616  TRP617  ASP618  TYR619  PRO620  LYS621  CYS622 
 ASP623  PHE694  ASN695  SER759  ASP760  ASP761  ALA762  ILE779  LEU786  VAL792 
 PHE793  MET794  SER795  GLU796  ALA797  LYS798  CYS799  TRP800  GLU811  SER814 

> <Gold.Protein.RotatedAtoms>
  152.1058  133.4274  159.4607 H   0  0  0  0  0  0  0  0  0  0  0  0  # atno 6907 bound_to 6896
  150.6865  134.2707  159.4596 H   0  0  0  0  0  0  0  0  0  0  0  0  # atno 6908 bound_to 6896
  152.0571  134.9617  160.0625 H   0  0  0  0  0  0  0  0  0  0  0  0  # atno 6909 bound_to 6896
  146.2333  140.2156  142.8336 H   0  0  0  0  0  0  0  0  0  0  0  0  # atno 7974 bound_to 7965
  155.1373  140.3263  155.4460 H   0  0  0  0  0  0  0  0  0  0  0  0  # atno 8008 bound_to 7997
  156.2615  140.2000  156.6440 H   0  0  0  0  0  0  0  0  0  0  0  0  # atno 8009 bound_to 7997
  154.6568  140.0552  157.0004 H   0  0  0  0  0  0  0  0  0  0  0  0  # atno 8010 bound_to 7997
  140.7038  143.6046  150.8763 H   0  0  0  0  0  0  0  0  0  0  0  0  # atno 10167 bound_to 10162
  157.5657  131.1087  150.8459 H   0  0  0  0  0  0  0  0  0  0  0  0  # atno 10718 bound_to 10713
  153.5505  135.3540  155.2757 H   0  0  0  0  0  0  0  0  0  0  0  0  # atno 10763 bound_to 10752
  154.8707  135.4112  154.2943 H   0  0  0  0  0  0  0  0  0  0  0  0  # atno 10764 bound_to 10752
  153.3668  135.7062  153.6737 H   0  0  0  0  0  0  0  0  0  0  0  0  # atno 10765 bound_to 10752
  141.1420  133.6664  156.5813 H   0  0  0  0  0  0  0  0  0  0  0  0  # atno 11005 bound_to 11000
  144.9672  140.8333  143.5477 LP  0  0  0  0  0  0  0  0  0  0  0  0  # atno 17320 bound_to 7965
  145.2133  139.2194  143.5131 LP  0  0  0  0  0  0  0  0  0  0  0  0  # atno 17321 bound_to 7965
  139.9770  143.5993  152.2955 LP  0  0  0  0  0  0  0  0  0  0  0  0  # atno 17342 bound_to 10162
  139.6600  144.7662  151.1980 LP  0  0  0  0  0  0  0  0  0  0  0  0  # atno 17343 bound_to 10162
  156.8944  130.5224  149.5285 LP  0  0  0  0  0  0  0  0  0  0  0  0  # atno 17370 bound_to 10713
  156.0705  130.5739  150.9375 LP  0  0  0  0  0  0  0  0  0  0  0  0  # atno 17371 bound_to 10713
  140.3836  134.7502  157.4677 LP  0  0  0  0  0  0  0  0  0  0  0  0  # atno 17394 bound_to 11000
  140.0619  134.5983  155.8739 LP  0  0  0  0  0  0  0  0  0  0  0  0  # atno 17395 bound_to 11000

$$$$
