AV-unprocessed.smi:3351|AV-procd|sdf|12950|dock6
  -GOLD-   2272019383D 1   1.00000     0.00000
 Structure written by MMmdl.
 34 35  0  0  0  0  0  0  0  0  1 V2000
  145.7887  135.1514  153.0416 C   0  0  0  0  0  0  0  0  0  0  0  0
  146.7270  133.9732  152.7326 C   0  0  1  0  0  0  0  0  0  0  0  0
  146.8005  133.6336  151.2281 C   0  0  0  0  0  0  0  0  0  0  0  0
  145.6191  132.9397  150.7510 N   0  0  0  0  0  0  0  0  0  0  0  0
  144.3081  133.3948  150.7948 C   0  0  0  0  0  0  0  0  0  0  0  0
  143.5299  132.4063  150.2356 C   0  0  0  0  0  0  0  0  0  0  0  0
  144.3358  131.3381  149.8483 N   0  0  0  0  0  0  0  0  0  0  0  0
  145.5586  131.7250  150.1880 C   0  0  0  0  0  0  0  0  0  0  0  0
  148.0599  134.2769  153.2459 N   0  0  0  0  0  0  0  0  0  0  0  0
  148.6934  133.5976  154.2143 C   0  0  0  0  0  0  0  0  0  0  0  0
  148.2145  132.6077  154.7694 O   0  0  0  0  0  0  0  0  0  0  0  0
  150.0924  134.1036  154.5877 C   0  0  0  0  0  0  0  0  0  0  0  0
  150.0625  135.2034  155.5535 N   0  0  0  0  0  0  0  0  0  0  0  0
  149.2325  135.0841  156.7459 C   0  0  0  0  0  0  0  0  0  0  0  0
  149.6540  136.1824  157.7241 C   0  0  0  0  0  0  0  0  0  0  0  0
  150.4387  137.4952  156.7682 S   0  0  0  0  0  0  0  0  0  0  0  0
  150.7232  136.4105  155.3658 C   0  0  0  0  0  0  0  0  0  0  0  0
  151.4126  136.7465  154.4046 O   0  0  0  0  0  0  0  0  0  0  0  0
  144.7587  134.9260  152.7644 H   0  0  0  0  0  0  0  0  0  0  0  0
  146.0899  136.0500  152.5025 H   0  0  0  0  0  0  0  0  0  0  0  0
  145.7916  135.3850  154.1068 H   0  0  0  0  0  0  0  0  0  0  0  0
  146.3409  133.1034  153.2676 H   0  0  0  0  0  0  0  0  0  0  0  0
  146.9295  134.5441  150.6408 H   0  0  0  0  0  0  0  0  0  0  0  0
  147.6659  133.0029  151.0200 H   0  0  0  0  0  0  0  0  0  0  0  0
  144.0454  134.3583  151.2068 H   0  0  0  0  0  0  0  0  0  0  0  0
  142.4609  132.3809  150.0851 H   0  0  0  0  0  0  0  0  0  0  0  0
  146.4315  131.1115  150.0189 H   0  0  0  0  0  0  0  0  0  0  0  0
  148.5308  135.0744  152.8432 H   0  0  0  0  0  0  0  0  0  0  0  0
  150.6626  133.2674  154.9941 H   0  0  0  0  0  0  0  0  0  0  0  0
  150.6209  134.4284  153.6897 H   0  0  0  0  0  0  0  0  0  0  0  0
  148.1904  135.2189  156.4537 H   0  0  0  0  0  0  0  0  0  0  0  0
  149.3229  134.0975  157.2019 H   0  0  0  0  0  0  0  0  0  0  0  0
  148.8128  136.5642  158.3028 H   0  0  0  0  0  0  0  0  0  0  0  0
  150.3916  135.7921  158.4260 H   0  0  0  0  0  0  0  0  0  0  0  0
  1  2  1  0  0  0  0
  1 19  1  0  0  0  0
  1 20  1  0  0  0  0
  1 21  1  0  0  0  0
  2  3  1  0  0  0  0
  2  9  1  0  0  0  0
  2 22  1  0  0  0  0
  3  4  1  0  0  0  0
  3 23  1  0  0  0  0
  3 24  1  0  0  0  0
  4  8  1  0  0  0  0
  4  5  1  0  0  0  0
  5  6  2  0  0  0  0
  5 25  1  0  0  0  0
  6  7  1  0  0  0  0
  6 26  1  0  0  0  0
  7  8  2  0  0  0  0
  8 27  1  0  0  0  0
  9 10  1  0  0  0  0
  9 28  1  0  0  0  0
 10 11  2  0  0  0  0
 10 12  1  0  0  0  0
 12 13  1  0  0  0  0
 12 29  1  0  0  0  0
 12 30  1  0  0  0  0
 13 17  1  0  0  0  0
 13 14  1  0  0  0  0
 14 15  1  0  0  0  0
 14 31  1  0  0  0  0
 14 32  1  0  0  0  0
 15 16  1  0  0  0  0
 15 33  1  0  0  0  0
 15 34  1  0  0  0  0
 16 17  1  0  0  0  0
 17 18  2  0  0  0  0
M  END
> <s_m_source_file>
AV-unprocessed.smi

> <i_m_source_file_index>
3351

> <i_lp_mmshare_version>
43012

> <i_f3d_flags>
0

> <s_epik_input>
W2NIXTFuW2NIXVtjSF1uMVtDSDJdW0NAQEhdKFtDSDNdKVtOSF1DKD1PKVtDSDJdTjJbQ0gyXVtDSDJdU0MyPU8=

> <s_epik_cmdline>
J2VwaWtfcHl0aG9uJywgJy1waCcsICc3LjAnLCAnLXRuJywgJzgnLCAnLW1hJywgJzIwMCcsICctbWV0YWxfYmluZGluZycsICctaW1hZScsICc8aW5maWxlLm1hZT4nLCAnLW9tYWUnLCAnPG91dGZpbGUubWFlPic=

> <r_lp_tautomer_probability>
1

> <r_epik_Ionization_Penalty>
0.618163

> <r_epik_Ionization_Penalty_Charging>
0.618163

> <r_epik_Ionization_Penalty_Neutral>
6.6929e-08

> <r_epik_State_Penalty>
0.633954

> <r_epik_Charging_Adjusted_Penalty>
1.25212

> <i_epik_Tot_Q>
0

> <i_epik_Tot_abs_Q>
0

> <r_epik_Metal_State_Penalty>
0.305924

> <b_epik_Metal_Only>
0

> <s_lp_Force_Field>
OPLS_2005

> <r_lp_Energy>
4.61171

> <b_lp_Chiralities_Consistent>
1

> <s_lp_Variant>
AV-unprocessed.smi:3351-4

> <Gold.Version>
5.8.1

> <Gold.Id.Protein>
6NUR|6NUR_protein|mol2

> <Gold.PLP.Fitness>
40.1755

> <Gold.PLP.PLP>
-26.2421

> <Gold.PLP.part.hbond>
-2.9650

> <Gold.PLP.part.metal>
0.0000

> <Gold.PLP.part.buried>
-2.6906

> <Gold.PLP.part.nonpolar>
-20.6570

> <Gold.PLP.part.repulsive>
0.7593

> <Gold.PLP.ligand.clash>
0.0000

> <Gold.PLP.ligand.torsion>
0.5670

> <Gold.PLP.Chemscore.Hbond>
2.4960

> <Gold.PLP.Chemscore.CHOScore>
2.5128

> <Gold.PLP.Chemscore.Metal>
0.0000

> <Gold.Chemscore.Hbonds>
donor molecule, donor type, donor heavy atom, donor atom, acceptor molecule, acceptor atom, score
      L1  H     9    28       P1  7948  1.00
      P1  H 10752 10765       L1    18  1.00
      P1  H 10785 10796       L1     7  0.48
      L1  C     6    26       P1 10186  0.86
      L1  C     6    26       P1 10952  0.69
      L1  C     8    27       P1 10747  0.94

> <Gold.PLP.Chemscore.Internal.Correction>
0.0408

> <Gold.Rescore>
     Score         DG    S(hbond)    S(metal)    S(lipo)     H(rot)  DE(clash)    DE(int)     intcor
     11.80     -12.54       2.43        0.00      41.93       2.33       0.09       0.65       ----

> <Gold.Chemscore.Fitness>
11.7995

> <Gold.Chemscore.DG>
-12.5431

> <Gold.Chemscore.ZeroCoef>
-5.4800

> <Gold.Chemscore.Hbond>
2.4330

> <Gold.Chemscore.Metal>
0.0000

> <Gold.Chemscore.Lipo>
41.9312

> <Gold.Chemscore.Internal_Hbond>
0.0000

> <Gold.Chemscore.DEClash>
0.0916

> <Gold.Chemscore.DEInternal>
0.6521

> <Gold.Chemscore.Rot>
2.3317

> <Gold.Chemscore.Internal.Correction>
   9.000000E+99

> <Gold.Chemscore.Hbonds>
donor molecule, donor type, donor heavy atom, donor atom, acceptor molecule, acceptor atom, score
      L1  H     9    28       P1  7948  0.57
      P1  H 10752 10765       L1    18  0.91
      P1  H 10785 10796       L1     7  0.31

> <Gold.Chemscore.Hbond.Weighted>
-8.1264

> <Gold.Chemscore.Metal.Weighted>
-0.0000

> <Gold.Chemscore.Lipo.Weighted>
-4.9059

> <Gold.Chemscore.Internal_Hbond.Weighted>
0.0000

> <Gold.Chemscore.DEClash.Weighted>
0.0916

> <Gold.Chemscore.DEInternal.Weighted>
0.6521

> <Gold.Chemscore.Rot.Weighted>
5.9692

> <Gold.Chemscore.Internal.Correction.Weighted>
   9.000000E+99

> <Gold.Protein.RotatedTorsions>
[ 6907 6896 6895 6894 ] final -179.69 input  -60.11 | X-H torsion
[ 7974 7965 7964 7962 ] final  -58.24 input  175.53 | X-H torsion
[ 8008 7997 7996 7995 ] final -161.68 input   59.86 | X-H torsion
[ 10167 10162 10161 10158 ] final -129.71 input  -65.29 | X-H torsion
[ 10718 10713 10712 10709 ] final  101.97 input   66.30 | X-H torsion
[ 10763 10752 10751 10750 ] final  147.29 input  -60.55 | X-H torsion
[ 11005 11000 10999 10996 ] final -179.30 input  -57.11 | X-H torsion

> <Gold.Protein.ActiveResidues>
 VAL166  LYS551  ARG553  GLY616  TRP617  ASP618  TYR619  PRO620  LYS621  CYS622 
 ASP623  PHE694  ASN695  SER759  ASP760  ASP761  ALA762  ILE779  LEU786  VAL792 
 PHE793  MET794  SER795  GLU796  ALA797  LYS798  CYS799  TRP800  GLU811  SER814 

> <Gold.Protein.RotatedAtoms>
  151.6575  133.3318  159.3165 H   0  0  0  0  0  0  0  0  0  0  0  0  # atno 6907 bound_to 6896
  150.7930  134.6972  159.6539 H   0  0  0  0  0  0  0  0  0  0  0  0  # atno 6908 bound_to 6896
  152.4012  134.6286  160.0121 H   0  0  0  0  0  0  0  0  0  0  0  0  # atno 6909 bound_to 6896
  145.8416  140.8413  143.0031 H   0  0  0  0  0  0  0  0  0  0  0  0  # atno 7974 bound_to 7965
  155.7957  140.0884  157.1985 H   0  0  0  0  0  0  0  0  0  0  0  0  # atno 8008 bound_to 7997
  154.3983  140.1482  156.3274 H   0  0  0  0  0  0  0  0  0  0  0  0  # atno 8009 bound_to 7997
  155.8514  140.3434  155.5698 H   0  0  0  0  0  0  0  0  0  0  0  0  # atno 8010 bound_to 7997
  139.9370  143.6207  152.2514 H   0  0  0  0  0  0  0  0  0  0  0  0  # atno 10167 bound_to 10162
  157.6815  131.0740  150.5334 H   0  0  0  0  0  0  0  0  0  0  0  0  # atno 10718 bound_to 10713
  154.0359  135.2893  155.3362 H   0  0  0  0  0  0  0  0  0  0  0  0  # atno 10763 bound_to 10752
  154.6959  135.5208  153.8461 H   0  0  0  0  0  0  0  0  0  0  0  0  # atno 10764 bound_to 10752
  153.0620  135.6617  154.0568 H   0  0  0  0  0  0  0  0  0  0  0  0  # atno 10765 bound_to 10752
  140.4202  134.6613  157.4660 H   0  0  0  0  0  0  0  0  0  0  0  0  # atno 11005 bound_to 11000
  144.6733  140.0820  143.7469 LP  0  0  0  0  0  0  0  0  0  0  0  0  # atno 17320 bound_to 7965
  145.9459  139.2700  143.1241 LP  0  0  0  0  0  0  0  0  0  0  0  0  # atno 17321 bound_to 7965
  139.6736  144.7660  151.1738 LP  0  0  0  0  0  0  0  0  0  0  0  0  # atno 17342 bound_to 10162
  140.7622  143.5829  150.8876 LP  0  0  0  0  0  0  0  0  0  0  0  0  # atno 17343 bound_to 10162
  156.5643  130.4263  149.6048 LP  0  0  0  0  0  0  0  0  0  0  0  0  # atno 17370 bound_to 10713
  156.2794  130.7062  151.1882 LP  0  0  0  0  0  0  0  0  0  0  0  0  # atno 17371 bound_to 10713
  140.0206  134.6553  155.9246 LP  0  0  0  0  0  0  0  0  0  0  0  0  # atno 17394 bound_to 11000
  141.1787  133.6543  156.4932 LP  0  0  0  0  0  0  0  0  0  0  0  0  # atno 17395 bound_to 11000

$$$$
