AV-unprocessed.smi:3251|AV-procd|sdf|12435|dock6
  -GOLD-   2272018323D 1   1.00000     0.00000
 Structure written by MMmdl.
 41 42  0  0  0  0  0  0  0  0  2 V2000
  144.1292  145.0209  153.6581 C   0  0  0  0  0  0  0  0  0  0  0  0
  144.7688  143.7622  154.1692 C   0  0  0  0  0  0  0  0  0  0  0  0
  144.4294  143.0195  155.3358 C   0  0  0  0  0  0  0  0  0  0  0  0
  145.1959  141.9549  155.5085 N   0  0  0  0  0  0  0  0  0  0  0  0
  146.0472  141.9790  154.4610 N   0  0  0  0  0  0  0  0  0  0  0  0
  147.0667  140.9531  154.3347 C   0  0  0  0  0  0  0  0  0  0  0  0
  148.4719  141.5152  154.5979 C   0  0  0  0  0  0  0  0  0  0  0  0
  148.5400  142.1988  155.9083 N   0  3  0  0  0  0  0  0  0  0  0  0
  149.7155  141.8566  156.7400 C   0  0  2  0  0  0  0  0  0  0  0  0
  149.7079  140.3476  157.0322 C   0  0  0  0  0  0  0  0  0  0  0  0
  149.7135  142.6494  158.0632 C   0  0  0  0  0  0  0  0  0  0  0  0
  148.8680  142.3774  158.9176 O   0  0  0  0  0  0  0  0  0  0  0  0
  150.6406  143.6115  158.2598 N   0  0  0  0  0  0  0  0  0  0  0  0
  151.6908  144.0102  157.3224 C   0  0  0  0  0  0  0  0  0  0  0  0
  152.6194  144.9349  158.1095 C   0  0  0  0  0  0  0  0  0  0  0  0
  151.7296  145.5178  159.1976 C   0  0  0  0  0  0  0  0  0  0  0  0
  150.7157  144.4099  159.4826 C   0  0  0  0  0  0  0  0  0  0  0  0
  145.8116  143.0584  153.6365 C   0  0  0  0  0  0  0  0  0  0  0  0
  143.1361  145.1719  154.0821 H   0  0  0  0  0  0  0  0  0  0  0  0
  144.0155  145.0045  152.5741 H   0  0  0  0  0  0  0  0  0  0  0  0
  144.7223  145.9011  153.9065 H   0  0  0  0  0  0  0  0  0  0  0  0
  143.6536  143.2234  156.0593 H   0  0  0  0  0  0  0  0  0  0  0  0
  146.8392  140.1325  155.0172 H   0  0  0  0  0  0  0  0  0  0  0  0
  147.0136  140.5443  153.3250 H   0  0  0  0  0  0  0  0  0  0  0  0
  149.2065  140.7095  154.5852 H   0  0  0  0  0  0  0  0  0  0  0  0
  148.7421  142.2023  153.7949 H   0  0  0  0  0  0  0  0  0  0  0  0
  148.5534  143.1972  155.7494 H   0  0  0  0  0  0  0  0  0  0  0  0
  150.6043  142.0912  156.1540 H   0  0  0  0  0  0  0  0  0  0  0  0
  150.5692  140.0479  157.6296 H   0  0  0  0  0  0  0  0  0  0  0  0
  149.7390  139.7710  156.1072 H   0  0  0  0  0  0  0  0  0  0  0  0
  148.8103  140.0497  157.5762 H   0  0  0  0  0  0  0  0  0  0  0  0
  152.2412  143.1594  156.9200 H   0  0  0  0  0  0  0  0  0  0  0  0
  151.2378  144.5494  156.4892 H   0  0  0  0  0  0  0  0  0  0  0  0
  153.4170  144.3482  158.5676 H   0  0  0  0  0  0  0  0  0  0  0  0
  153.0836  145.7000  157.4864 H   0  0  0  0  0  0  0  0  0  0  0  0
  152.2874  145.8192  160.0849 H   0  0  0  0  0  0  0  0  0  0  0  0
  151.2120  146.3980  158.8136 H   0  0  0  0  0  0  0  0  0  0  0  0
  149.7461  144.8246  159.7632 H   0  0  0  0  0  0  0  0  0  0  0  0
  151.0624  143.7757  160.3002 H   0  0  0  0  0  0  0  0  0  0  0  0
  146.4025  143.2384  152.7502 H   0  0  0  0  0  0  0  0  0  0  0  0
  147.7019  141.9679  156.4217 H   0  0  0  0  0  0  0  0  0  0  0  0
  1  2  1  0  0  0  0
  1 19  1  0  0  0  0
  1 20  1  0  0  0  0
  1 21  1  0  0  0  0
  2 18  2  0  0  0  0
  2  3  1  0  0  0  0
  3  4  2  0  0  0  0
  3 22  1  0  0  0  0
  4  5  1  0  0  0  0
  5  6  1  0  0  0  0
  5 18  1  0  0  0  0
  6  7  1  0  0  0  0
  6 23  1  0  0  0  0
  6 24  1  0  0  0  0
  7  8  1  0  0  0  0
  7 25  1  0  0  0  0
  7 26  1  0  0  0  0
  8  9  1  0  0  0  0
  8 27  1  0  0  0  0
  8 41  1  0  0  0  0
  9 10  1  0  0  0  0
  9 11  1  0  0  0  0
  9 28  1  0  0  0  0
 10 29  1  0  0  0  0
 10 30  1  0  0  0  0
 10 31  1  0  0  0  0
 11 12  2  0  0  0  0
 11 13  1  0  0  0  0
 13 17  1  0  0  0  0
 13 14  1  0  0  0  0
 14 15  1  0  0  0  0
 14 32  1  0  0  0  0
 14 33  1  0  0  0  0
 15 16  1  0  0  0  0
 15 34  1  0  0  0  0
 15 35  1  0  0  0  0
 16 17  1  0  0  0  0
 16 36  1  0  0  0  0
 16 37  1  0  0  0  0
 17 38  1  0  0  0  0
 17 39  1  0  0  0  0
 18 40  1  0  0  0  0
M  CHG  1   8   1
M  END
> <s_m_source_file>
AV-unprocessed.smi

> <i_m_source_file_index>
3251

> <i_lp_mmshare_version>
43012

> <i_f3d_flags>
0

> <s_epik_input>
W0NIM11jMVtjSF1ubihbY0hdMSlbQ0gyXVtDSDJdW05IXVtDQEhdKFtDSDNdKUMoPU8pTjJbQ0gyXVtDSDJdW0NIMl1bQ0gyXTI=

> <s_epik_cmdline>
J2VwaWtfcHl0aG9uJywgJy1waCcsICc3LjAnLCAnLXRuJywgJzgnLCAnLW1hJywgJzIwMCcsICctbWV0YWxfYmluZGluZycsICctaW1hZScsICc8aW5maWxlLm1hZT4nLCAnLW9tYWUnLCAnPG91dGZpbGUubWFlPic=

> <r_lp_tautomer_probability>
1

> <r_epik_Ionization_Penalty>
0.203173

> <r_epik_Ionization_Penalty_Charging>
0.203168

> <r_epik_Ionization_Penalty_Neutral>
5.06494e-06

> <r_epik_State_Penalty>
0.193072

> <r_epik_Charging_Adjusted_Penalty>
0.39624

> <i_epik_Tot_Q>
1

> <i_epik_Tot_abs_Q>
1

> <r_epik_Metal_State_Penalty>
0.193587

> <b_epik_Metal_Only>
0

> <s_lp_Force_Field>
OPLS_2005

> <r_lp_Energy>
29.5605

> <b_lp_Chiralities_Consistent>
1

> <s_lp_Variant>
AV-unprocessed.smi:3251-1

> <Gold.Version>
5.8.1

> <Gold.Id.Protein>
6NUR|6NUR_protein|mol2

> <Gold.PLP.Fitness>
47.4541

> <Gold.PLP.PLP>
-42.6585

> <Gold.PLP.part.hbond>
-2.0000

> <Gold.PLP.part.metal>
0.0000

> <Gold.PLP.part.buried>
-7.2514

> <Gold.PLP.part.nonpolar>
-35.1382

> <Gold.PLP.part.repulsive>
0.3317

> <Gold.PLP.ligand.clash>
0.0000

> <Gold.PLP.ligand.torsion>
0.5907

> <Gold.PLP.Chemscore.Hbond>
1.9825

> <Gold.PLP.Chemscore.CHOScore>
0.0000

> <Gold.PLP.Chemscore.Metal>
0.0000

> <Gold.Chemscore.Hbonds>
donor molecule, donor type, donor heavy atom, donor atom, acceptor molecule, acceptor atom, score
      L1  H     8    27       P1  8028  2.00

> <Gold.PLP.Chemscore.Internal.Correction>
0.0296

> <Gold.Rescore>
     Score         DG    S(hbond)    S(metal)    S(lipo)     H(rot)  DE(clash)    DE(int)     intcor
     15.10     -15.84       0.99        0.00      98.67       1.76       0.03       0.72       ----

> <Gold.Chemscore.Fitness>
15.0956

> <Gold.Chemscore.DG>
-15.8406

> <Gold.Chemscore.ZeroCoef>
-5.4800

> <Gold.Chemscore.Hbond>
0.9945

> <Gold.Chemscore.Metal>
0.0000

> <Gold.Chemscore.Lipo>
98.6705

> <Gold.Chemscore.Internal_Hbond>
0.0000

> <Gold.Chemscore.DEClash>
0.0272

> <Gold.Chemscore.DEInternal>
0.7178

> <Gold.Chemscore.Rot>
1.7599

> <Gold.Chemscore.Internal.Correction>
   9.000000E+99

> <Gold.Chemscore.Hbonds>
donor molecule, donor type, donor heavy atom, donor atom, acceptor molecule, acceptor atom, score
      L1  H     8    27       P1  8028  0.95

> <Gold.Chemscore.Hbond.Weighted>
-3.3215

> <Gold.Chemscore.Metal.Weighted>
-0.0000

> <Gold.Chemscore.Lipo.Weighted>
-11.5445

> <Gold.Chemscore.Internal_Hbond.Weighted>
0.0000

> <Gold.Chemscore.DEClash.Weighted>
0.0272

> <Gold.Chemscore.DEInternal.Weighted>
0.7178

> <Gold.Chemscore.Rot.Weighted>
4.5053

> <Gold.Chemscore.Internal.Correction.Weighted>
   9.000000E+99

> <Gold.Protein.RotatedTorsions>
[ 6907 6896 6895 6894 ] final   67.12 input  -60.11 | X-H torsion
[ 7974 7965 7964 7962 ] final  118.96 input  175.53 | X-H torsion
[ 8008 7997 7996 7995 ] final   78.86 input   59.86 | X-H torsion
[ 10167 10162 10161 10158 ] final  166.61 input  -65.29 | X-H torsion
[ 10718 10713 10712 10709 ] final  160.55 input   66.30 | X-H torsion
[ 10763 10752 10751 10750 ] final   50.91 input  -60.55 | X-H torsion
[ 11005 11000 10999 10996 ] final -117.20 input  -57.11 | X-H torsion

> <Gold.Protein.ActiveResidues>
 VAL166  LYS551  ARG553  GLY616  TRP617  ASP618  TYR619  PRO620  LYS621  CYS622 
 ASP623  PHE694  ASN695  SER759  ASP760  ASP761  ALA762  ILE779  LEU786  VAL792 
 PHE793  MET794  SER795  GLU796  ALA797  LYS798  CYS799  TRP800  GLU811  SER814 

> <Gold.Protein.RotatedAtoms>
  152.4529  134.5354  159.9823 H   0  0  0  0  0  0  0  0  0  0  0  0  # atno 6907 bound_to 6896
  151.5422  133.3425  159.2945 H   0  0  0  0  0  0  0  0  0  0  0  0  # atno 6908 bound_to 6896
  150.8464  134.7805  159.7036 H   0  0  0  0  0  0  0  0  0  0  0  0  # atno 6909 bound_to 6896
  145.1489  139.3222  143.4577 H   0  0  0  0  0  0  0  0  0  0  0  0  # atno 7974 bound_to 7965
  155.8616  140.3453  155.5760 H   0  0  0  0  0  0  0  0  0  0  0  0  # atno 8008 bound_to 7997
  155.7927  140.0874  157.2020 H   0  0  0  0  0  0  0  0  0  0  0  0  # atno 8009 bound_to 7997
  154.4012  140.1480  156.3169 H   0  0  0  0  0  0  0  0  0  0  0  0  # atno 8010 bound_to 7997
  139.4928  144.4009  151.9410 H   0  0  0  0  0  0  0  0  0  0  0  0  # atno 10167 bound_to 10162
  157.1488  131.0559  151.2290 H   0  0  0  0  0  0  0  0  0  0  0  0  # atno 10718 bound_to 10713
  152.9784  135.5863  154.4329 H   0  0  0  0  0  0  0  0  0  0  0  0  # atno 10763 bound_to 10752
  154.3940  135.2768  155.2139 H   0  0  0  0  0  0  0  0  0  0  0  0  # atno 10764 bound_to 10752
  154.3999  135.6106  153.5945 H   0  0  0  0  0  0  0  0  0  0  0  0  # atno 10765 bound_to 10752
  141.0371  133.9893  157.3053 H   0  0  0  0  0  0  0  0  0  0  0  0  # atno 11005 bound_to 11000
  146.3497  140.1556  142.8591 LP  0  0  0  0  0  0  0  0  0  0  0  0  # atno 17320 bound_to 7965
  145.0452  140.8976  143.5029 LP  0  0  0  0  0  0  0  0  0  0  0  0  # atno 17321 bound_to 7965
  140.3449  144.3159  150.5960 LP  0  0  0  0  0  0  0  0  0  0  0  0  # atno 17342 bound_to 10162
  140.5535  143.2202  151.7887 LP  0  0  0  0  0  0  0  0  0  0  0  0  # atno 17343 bound_to 10162
  157.4239  130.7453  149.6935 LP  0  0  0  0  0  0  0  0  0  0  0  0  # atno 17370 bound_to 10713
  155.9774  130.4063  150.3713 LP  0  0  0  0  0  0  0  0  0  0  0  0  # atno 17371 bound_to 10713
  139.9248  135.0201  156.8196 LP  0  0  0  0  0  0  0  0  0  0  0  0  # atno 17394 bound_to 11000
  140.6302  133.9912  155.7658 LP  0  0  0  0  0  0  0  0  0  0  0  0  # atno 17395 bound_to 11000

$$$$
