AV-unprocessed.smi:1121|AV-procd|sdf|4826|dock10
  -GOLD-   22720 3383D 1   1.00000     0.00000
 Structure written by MMmdl.
 46 48  0  0  0  0  0  0  0  0  1 V2000
  151.4691  141.2689  156.9361 O   0  0  0  0  0  0  0  0  0  0  0  0
  150.6701  142.1607  156.6502 C   0  0  0  0  0  0  0  0  0  0  0  0
  149.6426  142.0361  155.7942 N   0  0  0  0  0  0  0  0  0  0  0  0
  149.2235  140.8731  155.0877 C   0  0  0  0  0  0  0  0  0  0  0  0
  150.1097  139.8107  154.7862 C   0  0  0  0  0  0  0  0  0  0  0  0
  149.6384  138.7136  154.0434 C   0  0  0  0  0  0  0  0  0  0  0  0
  148.2990  138.7223  153.6167 C   0  0  0  0  0  0  0  0  0  0  0  0
  147.4464  139.7324  153.8831 N   0  0  0  0  0  0  0  0  0  0  0  0
  147.8903  140.7924  154.6020 C   0  0  0  0  0  0  0  0  0  0  0  0
  146.9666  141.8204  154.8791 N   0  0  0  0  0  0  0  0  0  0  0  0
  146.2921  142.4386  153.7420 C   0  0  0  0  0  0  0  0  0  0  0  0
  145.5087  143.6774  154.2089 C   0  0  0  0  0  0  0  0  0  0  0  0
  144.6015  143.3067  155.2432 O   0  0  0  0  0  0  0  0  0  0  0  0
  145.2737  142.7716  156.3801 C   0  0  0  0  0  0  0  0  0  0  0  0
  146.0550  141.5104  155.9744 C   0  0  0  0  0  0  0  0  0  0  0  0
  150.7080  143.3904  157.1824 N   0  0  0  0  0  0  0  0  0  0  0  0
  151.6811  143.8552  158.1665 C   0  0  0  0  0  0  0  0  0  0  0  0
  151.9862  142.7471  159.1967 C   0  0  0  0  0  0  0  0  0  0  0  0
  152.9451  143.2429  160.2910 C   0  0  0  0  0  0  0  0  0  0  0  0
  152.4015  144.5036  160.9809 C   0  0  0  0  0  0  0  0  0  0  0  0
  152.1064  145.6111  159.9575 C   0  0  0  0  0  0  0  0  0  0  0  0
  151.1429  145.1180  158.8659 C   0  0  0  0  0  0  0  0  0  0  0  0
  149.0208  142.8287  155.7273 H   0  0  0  0  0  0  0  0  0  0  0  0
  151.1438  139.8275  155.0943 H   0  0  0  0  0  0  0  0  0  0  0  0
  150.2918  137.8891  153.7993 H   0  0  0  0  0  0  0  0  0  0  0  0
  147.9026  137.8987  153.0414 H   0  0  0  0  0  0  0  0  0  0  0  0
  147.0238  142.7219  152.9845 H   0  0  0  0  0  0  0  0  0  0  0  0
  145.6083  141.7223  153.2843 H   0  0  0  0  0  0  0  0  0  0  0  0
  146.1862  144.4545  154.5667 H   0  0  0  0  0  0  0  0  0  0  0  0
  144.9462  144.1024  153.3777 H   0  0  0  0  0  0  0  0  0  0  0  0
  145.9424  143.5210  156.8065 H   0  0  0  0  0  0  0  0  0  0  0  0
  144.5382  142.5282  157.1467 H   0  0  0  0  0  0  0  0  0  0  0  0
  145.3638  140.7306  155.6525 H   0  0  0  0  0  0  0  0  0  0  0  0
  146.5965  141.1179  156.8353 H   0  0  0  0  0  0  0  0  0  0  0  0
  150.0082  144.0559  156.8885 H   0  0  0  0  0  0  0  0  0  0  0  0
  152.6057  144.1220  157.6505 H   0  0  0  0  0  0  0  0  0  0  0  0
  151.0583  142.4054  159.6574 H   0  0  0  0  0  0  0  0  0  0  0  0
  152.4209  141.8788  158.7003 H   0  0  0  0  0  0  0  0  0  0  0  0
  153.1065  142.4560  161.0284 H   0  0  0  0  0  0  0  0  0  0  0  0
  153.9196  143.4589  159.8514 H   0  0  0  0  0  0  0  0  0  0  0  0
  151.4900  144.2579  161.5274 H   0  0  0  0  0  0  0  0  0  0  0  0
  153.1190  144.8613  161.7201 H   0  0  0  0  0  0  0  0  0  0  0  0
  151.6830  146.4802  160.4618 H   0  0  0  0  0  0  0  0  0  0  0  0
  153.0387  145.9432  159.4989 H   0  0  0  0  0  0  0  0  0  0  0  0
  150.9809  145.9111  158.1349 H   0  0  0  0  0  0  0  0  0  0  0  0
  150.1704  144.9074  159.3134 H   0  0  0  0  0  0  0  0  0  0  0  0
  1  2  2  0  0  0  0
  2  3  1  0  0  0  0
  2 16  1  0  0  0  0
  3  4  1  0  0  0  0
  3 23  1  0  0  0  0
  4  9  1  0  0  0  0
  4  5  2  0  0  0  0
  5  6  1  0  0  0  0
  5 24  1  0  0  0  0
  6  7  2  0  0  0  0
  6 25  1  0  0  0  0
  7  8  1  0  0  0  0
  7 26  1  0  0  0  0
  8  9  2  0  0  0  0
  9 10  1  0  0  0  0
 10 15  1  0  0  0  0
 10 11  1  0  0  0  0
 11 12  1  0  0  0  0
 11 27  1  0  0  0  0
 11 28  1  0  0  0  0
 12 13  1  0  0  0  0
 12 29  1  0  0  0  0
 12 30  1  0  0  0  0
 13 14  1  0  0  0  0
 14 15  1  0  0  0  0
 14 31  1  0  0  0  0
 14 32  1  0  0  0  0
 15 33  1  0  0  0  0
 15 34  1  0  0  0  0
 16 17  1  0  0  0  0
 16 35  1  0  0  0  0
 17 22  1  0  0  0  0
 17 18  1  0  0  0  0
 17 36  1  0  0  0  0
 18 19  1  0  0  0  0
 18 37  1  0  0  0  0
 18 38  1  0  0  0  0
 19 20  1  0  0  0  0
 19 39  1  0  0  0  0
 19 40  1  0  0  0  0
 20 21  1  0  0  0  0
 20 41  1  0  0  0  0
 20 42  1  0  0  0  0
 21 22  1  0  0  0  0
 21 43  1  0  0  0  0
 21 44  1  0  0  0  0
 22 45  1  0  0  0  0
 22 46  1  0  0  0  0
M  END
> <s_m_source_file>
AV-unprocessed.smi

> <i_m_source_file_index>
1121

> <i_lp_mmshare_version>
43012

> <i_f3d_flags>
0

> <s_epik_input>
W0NIMl0xW0NIMl1bQ0gyXVtDSDJdW0NIMl1bQ0hdMVtOSF1DKD1PKVtOSF1jMltjSF1bY0hdW2NIXW5jMk4zW0NIMl1bQ0gyXU9bQ0gyXVtDSDJdMw==

> <s_epik_cmdline>
J2VwaWtfcHl0aG9uJywgJy1waCcsICc3LjAnLCAnLXRuJywgJzgnLCAnLW1hJywgJzIwMCcsICctbWV0YWxfYmluZGluZycsICctaW1hZScsICc8aW5maWxlLm1hZT4nLCAnLW9tYWUnLCAnPG91dGZpbGUubWFlPic=

> <r_lp_tautomer_probability>
1

> <r_epik_Ionization_Penalty>
0.00218153

> <r_epik_Ionization_Penalty_Charging>
0

> <r_epik_Ionization_Penalty_Neutral>
0.00218153

> <r_epik_State_Penalty>
0.00146907

> <r_epik_Charging_Adjusted_Penalty>
0.00146907

> <i_epik_Tot_Q>
0

> <i_epik_Tot_abs_Q>
0

> <r_epik_Metal_State_Penalty>
-0

> <b_epik_Metal_Only>
0

> <s_lp_Force_Field>
OPLS_2005

> <r_lp_Energy>
26.2081

> <b_lp_Chiralities_Consistent>
1

> <s_lp_Variant>
AV-unprocessed.smi:1121-1

> <Gold.Version>
5.8.1

> <Gold.Id.Protein>
6NUR|6NUR_protein|mol2

> <Gold.PLP.Fitness>
52.0563

> <Gold.PLP.PLP>
-44.2797

> <Gold.PLP.part.hbond>
-2.0000

> <Gold.PLP.part.metal>
0.0000

> <Gold.PLP.part.buried>
-5.9642

> <Gold.PLP.part.nonpolar>
-36.9464

> <Gold.PLP.part.repulsive>
0.6309

> <Gold.PLP.ligand.clash>
0.0000

> <Gold.PLP.ligand.torsion>
0.6823

> <Gold.PLP.Chemscore.Hbond>
1.9760

> <Gold.PLP.Chemscore.CHOScore>
1.0000

> <Gold.PLP.Chemscore.Metal>
0.0000

> <Gold.Chemscore.Hbonds>
donor molecule, donor type, donor heavy atom, donor atom, acceptor molecule, acceptor atom, score
      L1  H     3    23       P1  8028  0.93
      L1  H    16    35       P1  8028  1.00
      L1  C     7    26       P1  7948  1.00

> <Gold.PLP.Chemscore.Internal.Correction>
0.2133

> <Gold.Rescore>
     Score         DG    S(hbond)    S(metal)    S(lipo)     H(rot)  DE(clash)    DE(int)     intcor
     17.60     -21.02       1.66        0.00     111.39       1.18       0.39       3.03       ----

> <Gold.Chemscore.Fitness>
17.6040

> <Gold.Chemscore.DG>
-21.0241

> <Gold.Chemscore.ZeroCoef>
-5.4800

> <Gold.Chemscore.Hbond>
1.6596

> <Gold.Chemscore.Metal>
0.0000

> <Gold.Chemscore.Lipo>
111.3935

> <Gold.Chemscore.Internal_Hbond>
0.0000

> <Gold.Chemscore.DEClash>
0.3880

> <Gold.Chemscore.DEInternal>
3.0321

> <Gold.Chemscore.Rot>
1.1844

> <Gold.Chemscore.Internal.Correction>
   9.000000E+99

> <Gold.Chemscore.Hbonds>
donor molecule, donor type, donor heavy atom, donor atom, acceptor molecule, acceptor atom, score
      L1  H     3    23       P1  8028  0.91
      L1  H    16    35       P1  8028  0.93

> <Gold.Chemscore.Hbond.Weighted>
-5.5432

> <Gold.Chemscore.Metal.Weighted>
-0.0000

> <Gold.Chemscore.Lipo.Weighted>
-13.0330

> <Gold.Chemscore.Internal_Hbond.Weighted>
0.0000

> <Gold.Chemscore.DEClash.Weighted>
0.3880

> <Gold.Chemscore.DEInternal.Weighted>
3.0321

> <Gold.Chemscore.Rot.Weighted>
3.0321

> <Gold.Chemscore.Internal.Correction.Weighted>
   9.000000E+99

> <Gold.Protein.RotatedTorsions>
[ 6907 6896 6895 6894 ] final   23.10 input  -60.11 | X-H torsion
[ 7974 7965 7964 7962 ] final -115.41 input  175.53 | X-H torsion
[ 8008 7997 7996 7995 ] final -160.94 input   59.86 | X-H torsion
[ 10167 10162 10161 10158 ] final    9.74 input  -65.29 | X-H torsion
[ 10718 10713 10712 10709 ] final -137.60 input   66.30 | X-H torsion
[ 10763 10752 10751 10750 ] final  168.88 input  -60.55 | X-H torsion
[ 11005 11000 10999 10996 ] final  113.59 input  -57.11 | X-H torsion

> <Gold.Protein.ActiveResidues>
 VAL166  LYS551  ARG553  GLY616  TRP617  ASP618  TYR619  PRO620  LYS621  CYS622 
 ASP623  PHE694  ASN695  SER759  ASP760  ASP761  ALA762  ILE779  LEU786  VAL792 
 PHE793  MET794  SER795  GLU796  ALA797  LYS798  CYS799  TRP800  GLU811  SER814 

> <Gold.Protein.RotatedAtoms>
  151.9372  135.0230  160.0533 H   0  0  0  0  0  0  0  0  0  0  0  0  # atno 6907 bound_to 6896
  152.2067  133.4876  159.5096 H   0  0  0  0  0  0  0  0  0  0  0  0  # atno 6908 bound_to 6896
  150.6967  134.1437  159.4157 H   0  0  0  0  0  0  0  0  0  0  0  0  # atno 6909 bound_to 6896
  145.1088  140.8598  143.3882 H   0  0  0  0  0  0  0  0  0  0  0  0  # atno 7974 bound_to 7965
  155.7848  140.0870  157.2040 H   0  0  0  0  0  0  0  0  0  0  0  0  # atno 8008 bound_to 7997
  154.3988  140.1501  156.3152 H   0  0  0  0  0  0  0  0  0  0  0  0  # atno 8009 bound_to 7997
  155.8617  140.3430  155.5763 H   0  0  0  0  0  0  0  0  0  0  0  0  # atno 8010 bound_to 7997
  140.6237  143.8148  150.7206 H   0  0  0  0  0  0  0  0  0  0  0  0  # atno 10167 bound_to 10162
  156.2899  130.7369  151.1391 H   0  0  0  0  0  0  0  0  0  0  0  0  # atno 10718 bound_to 10713
  154.3750  135.2753  155.2244 H   0  0  0  0  0  0  0  0  0  0  0  0  # atno 10763 bound_to 10752
  154.4375  135.5962  153.6112 H   0  0  0  0  0  0  0  0  0  0  0  0  # atno 10764 bound_to 10752
  152.9836  135.6010  154.3986 H   0  0  0  0  0  0  0  0  0  0  0  0  # atno 10765 bound_to 10752
  139.8957  134.9552  156.6762 H   0  0  0  0  0  0  0  0  0  0  0  0  # atno 11005 bound_to 11000
  145.0871  139.2917  143.5754 LP  0  0  0  0  0  0  0  0  0  0  0  0  # atno 17320 bound_to 7965
  146.3527  140.0396  142.8644 LP  0  0  0  0  0  0  0  0  0  0  0  0  # atno 17321 bound_to 7965
  140.1744  143.4167  152.1978 LP  0  0  0  0  0  0  0  0  0  0  0  0  # atno 17342 bound_to 10162
  139.5461  144.7299  151.4580 LP  0  0  0  0  0  0  0  0  0  0  0  0  # atno 17343 bound_to 10162
  157.7339  131.0586  150.5551 LP  0  0  0  0  0  0  0  0  0  0  0  0  # atno 17370 bound_to 10713
  156.5666  130.4269  149.6038 LP  0  0  0  0  0  0  0  0  0  0  0  0  # atno 17371 bound_to 10713
  140.7335  133.9039  155.8228 LP  0  0  0  0  0  0  0  0  0  0  0  0  # atno 17394 bound_to 11000
  141.0134  134.0988  157.4197 LP  0  0  0  0  0  0  0  0  0  0  0  0  # atno 17395 bound_to 11000

$$$$
