AV-unprocessed.smi:835|AV-procd|sdf|3886|dock2
  -GOLD-   22720 1343D 1   1.00000     0.00000
 Structure written by MMmdl.
 41 43  0  0  0  0  0  0  0  0  2 V2000
  143.5506  132.7304  149.2809 C   0  0  0  0  0  0  0  0  0  0  0  0
  144.5678  133.2503  150.2535 C   0  0  0  0  0  0  0  0  0  0  0  0
  144.9331  134.6055  150.5011 C   0  0  0  0  0  0  0  0  0  0  0  0
  145.8911  134.4863  151.4706 C   0  0  0  0  0  0  0  0  0  0  0  0
  146.5898  135.4655  152.1041 N   0  0  0  0  0  0  0  0  0  0  0  0
  146.1183  136.5558  152.7334 C   0  0  0  0  0  0  0  0  0  0  0  0
  144.9311  136.8658  152.8340 O   0  0  0  0  0  0  0  0  0  0  0  0
  147.1152  137.2935  153.2427 N   0  0  0  0  0  0  0  0  0  0  0  0
  146.9304  138.5496  153.9613 C   0  0  2  0  0  0  0  0  0  0  0  0
  145.7446  138.5621  154.9212 C   0  0  0  0  0  0  0  0  0  0  0  0
  145.4808  140.0605  155.1048 C   0  0  0  0  0  0  0  0  0  0  0  0
  145.9405  140.7307  153.8627 N   0  3  1  0  0  0  0  0  0  0  0  0
  146.7830  141.9208  154.1107 C   0  0  0  0  0  0  0  0  0  0  0  0
  146.2269  142.8428  155.1694 C   0  0  0  0  0  0  0  0  0  0  0  0
  146.1275  143.2200  153.7071 C   0  0  0  0  0  0  0  0  0  0  0  0
  146.5949  139.7054  153.0198 C   0  0  0  0  0  0  0  0  0  0  0  0
  146.0619  133.1525  151.7669 N   0  0  0  0  0  0  0  0  0  0  0  0
  146.9536  132.5281  152.7246 C   0  0  0  0  0  0  0  0  0  0  0  0
  145.2427  132.3914  151.0093 N   0  0  0  0  0  0  0  0  0  0  0  0
  143.1031  133.5424  148.7074 H   0  0  0  0  0  0  0  0  0  0  0  0
  142.7459  132.2067  149.7970 H   0  0  0  0  0  0  0  0  0  0  0  0
  144.0027  132.0349  148.5735 H   0  0  0  0  0  0  0  0  0  0  0  0
  144.5422  135.4987  150.0377 H   0  0  0  0  0  0  0  0  0  0  0  0
  147.5936  135.3649  152.0730 H   0  0  0  0  0  0  0  0  0  0  0  0
  148.0628  136.9676  153.1191 H   0  0  0  0  0  0  0  0  0  0  0  0
  147.8426  138.7969  154.5089 H   0  0  0  0  0  0  0  0  0  0  0  0
  144.8776  138.0848  154.4611 H   0  0  0  0  0  0  0  0  0  0  0  0
  145.9520  138.0516  155.8624 H   0  0  0  0  0  0  0  0  0  0  0  0
  144.4283  140.2702  155.2969 H   0  0  0  0  0  0  0  0  0  0  0  0
  146.0494  140.4252  155.9620 H   0  0  0  0  0  0  0  0  0  0  0  0
  147.8581  141.7863  154.0023 H   0  0  0  0  0  0  0  0  0  0  0  0
  145.3092  142.5504  155.6767 H   0  0  0  0  0  0  0  0  0  0  0  0
  146.9385  143.3960  155.7790 H   0  0  0  0  0  0  0  0  0  0  0  0
  146.7744  144.0209  153.3548 H   0  0  0  0  0  0  0  0  0  0  0  0
  145.1441  143.1778  153.2417 H   0  0  0  0  0  0  0  0  0  0  0  0
  147.4737  140.0847  152.4956 H   0  0  0  0  0  0  0  0  0  0  0  0
  145.8750  139.3851  152.2648 H   0  0  0  0  0  0  0  0  0  0  0  0
  147.9754  132.8655  152.5491 H   0  0  0  0  0  0  0  0  0  0  0  0
  146.9204  131.4418  152.6285 H   0  0  0  0  0  0  0  0  0  0  0  0
  146.6548  132.8042  153.7360 H   0  0  0  0  0  0  0  0  0  0  0  0
  145.1224  141.0460  153.3611 H   0  0  0  0  0  0  0  0  0  0  0  0
  1  2  1  0  0  0  0
  1 20  1  0  0  0  0
  1 21  1  0  0  0  0
  1 22  1  0  0  0  0
  2 19  2  0  0  0  0
  2  3  1  0  0  0  0
  3  4  2  0  0  0  0
  3 23  1  0  0  0  0
  4  5  1  0  0  0  0
  4 17  1  0  0  0  0
  5  6  1  0  0  0  0
  5 24  1  0  0  0  0
  6  7  2  0  0  0  0
  6  8  1  0  0  0  0
  8  9  1  0  0  0  0
  8 25  1  0  0  0  0
  9 16  1  0  0  0  0
  9 10  1  0  0  0  0
  9 26  1  0  0  0  0
 10 11  1  0  0  0  0
 10 27  1  0  0  0  0
 10 28  1  0  0  0  0
 11 12  1  0  0  0  0
 11 29  1  0  0  0  0
 11 30  1  0  0  0  0
 12 13  1  0  0  0  0
 12 16  1  0  0  0  0
 12 41  1  0  0  0  0
 13 15  1  0  0  0  0
 13 14  1  0  0  0  0
 13 31  1  0  0  0  0
 14 15  1  0  0  0  0
 14 32  1  0  0  0  0
 14 33  1  0  0  0  0
 15 34  1  0  0  0  0
 15 35  1  0  0  0  0
 16 36  1  0  0  0  0
 16 37  1  0  0  0  0
 17 18  1  0  0  0  0
 17 19  1  0  0  0  0
 18 38  1  0  0  0  0
 18 39  1  0  0  0  0
 18 40  1  0  0  0  0
M  CHG  1  12   1
M  END
> <s_m_source_file>
AV-unprocessed.smi

> <i_m_source_file_index>
835

> <i_lp_mmshare_version>
43012

> <i_f3d_flags>
0

> <s_epik_input>
W0NIM11jMVtjSF1jKG4objEpW0NIM10pW05IXUMoPU8pW05IXVtDQEBIXTJbQ0gyXVtDSDJdTihbQ0gyXTIpW0NIXTNbQ0gyXVtDSDJdMw==

> <s_epik_cmdline>
J2VwaWtfcHl0aG9uJywgJy1waCcsICc3LjAnLCAnLXRuJywgJzgnLCAnLW1hJywgJzIwMCcsICctbWV0YWxfYmluZGluZycsICctaW1hZScsICc8aW5maWxlLm1hZT4nLCAnLW9tYWUnLCAnPG91dGZpbGUubWFlPic=

> <r_lp_tautomer_probability>
1

> <r_epik_Ionization_Penalty>
0.000700689

> <r_epik_Ionization_Penalty_Charging>
0.000627528

> <r_epik_Ionization_Penalty_Neutral>
7.31611e-05

> <r_epik_State_Penalty>
0.00039643

> <r_epik_Charging_Adjusted_Penalty>
0.00102396

> <i_epik_Tot_Q>
1

> <i_epik_Tot_abs_Q>
1

> <r_epik_Metal_State_Penalty>
-0

> <b_epik_Metal_Only>
0

> <s_lp_Force_Field>
OPLS_2005

> <r_lp_Energy>
38.9836

> <b_lp_Chiralities_Consistent>
1

> <s_lp_Variant>
AV-unprocessed.smi:835-1

> <Gold.Version>
5.8.1

> <Gold.Id.Protein>
6NUR|6NUR_protein|mol2

> <Gold.PLP.Fitness>
37.7901

> <Gold.PLP.PLP>
-28.7524

> <Gold.PLP.part.hbond>
-2.5029

> <Gold.PLP.part.metal>
0.0000

> <Gold.PLP.part.buried>
0.2552

> <Gold.PLP.part.nonpolar>
-26.8802

> <Gold.PLP.part.repulsive>
0.3557

> <Gold.PLP.ligand.clash>
0.0000

> <Gold.PLP.ligand.torsion>
1.5146

> <Gold.PLP.Chemscore.Hbond>
3.6000

> <Gold.PLP.Chemscore.CHOScore>
0.0000

> <Gold.PLP.Chemscore.Metal>
0.0000

> <Gold.Chemscore.Hbonds>
donor molecule, donor type, donor heavy atom, donor atom, acceptor molecule, acceptor atom, score
      L1  H     5    24       P1  7948  0.85
      L1  H     8    25       P1  7948  0.72
      L1  H    12    41       P1 10175  1.79

> <Gold.PLP.Chemscore.Internal.Correction>
1.2668

> <Gold.Rescore>
     Score         DG    S(hbond)    S(metal)    S(lipo)     H(rot)  DE(clash)    DE(int)     intcor
     13.25     -17.18       2.40        0.00      58.11       1.22       0.95       2.98       ----

> <Gold.Chemscore.Fitness>
13.2462

> <Gold.Chemscore.DG>
-17.1772

> <Gold.Chemscore.ZeroCoef>
-5.4800

> <Gold.Chemscore.Hbond>
2.4015

> <Gold.Chemscore.Metal>
0.0000

> <Gold.Chemscore.Lipo>
58.1053

> <Gold.Chemscore.Internal_Hbond>
0.0000

> <Gold.Chemscore.DEClash>
0.9520

> <Gold.Chemscore.DEInternal>
2.9790

> <Gold.Chemscore.Rot>
1.2196

> <Gold.Chemscore.Internal.Correction>
   9.000000E+99

> <Gold.Chemscore.Hbonds>
donor molecule, donor type, donor heavy atom, donor atom, acceptor molecule, acceptor atom, score
      L1  H     5    24       P1  7948  0.81
      L1  H     8    25       P1  7948  0.72
      L1  H    12    41       P1 10175  0.44

> <Gold.Chemscore.Hbond.Weighted>
-8.0212

> <Gold.Chemscore.Metal.Weighted>
-0.0000

> <Gold.Chemscore.Lipo.Weighted>
-6.7983

> <Gold.Chemscore.Internal_Hbond.Weighted>
0.0000

> <Gold.Chemscore.DEClash.Weighted>
0.9520

> <Gold.Chemscore.DEInternal.Weighted>
2.9790

> <Gold.Chemscore.Rot.Weighted>
3.1223

> <Gold.Chemscore.Internal.Correction.Weighted>
   9.000000E+99

> <Gold.Protein.RotatedTorsions>
[ 6907 6896 6895 6894 ] final   64.29 input  -60.11 | X-H torsion
[ 7974 7965 7964 7962 ] final  115.99 input  175.53 | X-H torsion
[ 8008 7997 7996 7995 ] final  158.03 input   59.86 | X-H torsion
[ 10167 10162 10161 10158 ] final  123.43 input  -65.29 | X-H torsion
[ 10718 10713 10712 10709 ] final -111.15 input   66.30 | X-H torsion
[ 10763 10752 10751 10750 ] final  -28.23 input  -60.55 | X-H torsion
[ 11005 11000 10999 10996 ] final  174.21 input  -57.11 | X-H torsion

> <Gold.Protein.ActiveResidues>
 VAL166  LYS551  ARG553  GLY616  TRP617  ASP618  TYR619  PRO620  LYS621  CYS622 
 ASP623  PHE694  ASN695  SER759  ASP760  ASP761  ALA762  ILE779  LEU786  VAL792 
 PHE793  MET794  SER795  GLU796  ALA797  LYS798  CYS799  TRP800  GLU811  SER814 

> <Gold.Protein.RotatedAtoms>
  152.4320  134.5760  159.9934 H   0  0  0  0  0  0  0  0  0  0  0  0  # atno 6907 bound_to 6896
  151.5880  133.3364  159.3030 H   0  0  0  0  0  0  0  0  0  0  0  0  # atno 6908 bound_to 6896
  150.8214  134.7459  159.6840 H   0  0  0  0  0  0  0  0  0  0  0  0  # atno 6909 bound_to 6896
  145.1851  139.3029  143.4397 H   0  0  0  0  0  0  0  0  0  0  0  0  # atno 7974 bound_to 7965
  156.2328  140.1869  156.7199 H   0  0  0  0  0  0  0  0  0  0  0  0  # atno 8008 bound_to 7997
  154.6052  140.0630  156.9449 H   0  0  0  0  0  0  0  0  0  0  0  0  # atno 8009 bound_to 7997
  155.2108  140.3300  155.4332 H   0  0  0  0  0  0  0  0  0  0  0  0  # atno 8010 bound_to 7997
  139.5800  144.6981  151.3553 H   0  0  0  0  0  0  0  0  0  0  0  0  # atno 10167 bound_to 10162
  156.0631  130.5852  150.8334 H   0  0  0  0  0  0  0  0  0  0  0  0  # atno 10718 bound_to 10713
  153.7449  135.6930  153.4958 H   0  0  0  0  0  0  0  0  0  0  0  0  # atno 10763 bound_to 10752
  153.2043  135.4425  155.0303 H   0  0  0  0  0  0  0  0  0  0  0  0  # atno 10764 bound_to 10752
  154.8208  135.3421  154.6973 H   0  0  0  0  0  0  0  0  0  0  0  0  # atno 10765 bound_to 10752
  140.3489  134.7212  157.4254 H   0  0  0  0  0  0  0  0  0  0  0  0  # atno 11005 bound_to 11000
  146.3446  140.2044  142.8589 LP  0  0  0  0  0  0  0  0  0  0  0  0  # atno 17320 bound_to 7965
  145.0097  140.8703  143.5231 LP  0  0  0  0  0  0  0  0  0  0  0  0  # atno 17321 bound_to 7965
  140.7079  143.7466  150.7514 LP  0  0  0  0  0  0  0  0  0  0  0  0  # atno 17342 bound_to 10162
  140.0996  143.4800  152.2433 LP  0  0  0  0  0  0  0  0  0  0  0  0  # atno 17343 bound_to 10162
  157.5653  131.0946  150.9498 LP  0  0  0  0  0  0  0  0  0  0  0  0  # atno 17370 bound_to 10713
  156.9727  130.5497  149.5291 LP  0  0  0  0  0  0  0  0  0  0  0  0  # atno 17371 bound_to 10713
  140.0719  134.5850  155.8632 LP  0  0  0  0  0  0  0  0  0  0  0  0  # atno 17394 bound_to 11000
  141.2018  133.6620  156.5969 LP  0  0  0  0  0  0  0  0  0  0  0  0  # atno 17395 bound_to 11000

$$$$
