AV-unprocessed.smi:334|AV-procd|sdf|2369|dock9
  -GOLD-   2262022283D 1   1.00000     0.00000
 Structure written by MMmdl.
 44 46  0  0  0  0  0  0  0  0  3 V2000
  147.6964  135.2059  155.1938 C   0  0  0  0  0  0  0  0  0  0  0  0
  146.7589  135.9264  154.2111 C   0  0  1  0  0  0  0  0  0  0  0  0
  147.4052  137.1656  153.7819 N   0  0  0  0  0  0  0  0  0  0  0  0
  146.9653  138.4103  154.0242 C   0  0  0  0  0  0  0  0  0  0  0  0
  145.9585  138.6591  154.6885 O   0  0  0  0  0  0  0  0  0  0  0  0
  147.8035  139.5475  153.4244 C   0  0  0  0  0  0  0  0  0  0  0  0
  148.9693  139.9000  154.2527 N   0  0  0  0  0  0  0  0  0  0  0  0
  150.1385  139.1330  154.0784 C   0  0  0  0  0  0  0  0  0  0  0  0
  151.2606  139.3672  154.7870 C   0  0  0  0  0  0  0  0  0  0  0  0
  152.4517  138.5685  154.5970 N   0  3  0  0  0  0  0  0  0  0  0  0
  153.5210  138.9973  155.0189 O   0  0  0  0  0  0  0  0  0  0  0  0
  152.3593  137.4888  154.0203 O   0  5  0  0  0  0  0  0  0  0  0  0
  151.2347  140.4484  155.7529 C   0  0  0  0  0  0  0  0  0  0  0  0
  150.1192  141.1841  155.9260 C   0  0  0  0  0  0  0  0  0  0  0  0
  148.8994  140.9283  155.1534 C   0  0  0  0  0  0  0  0  0  0  0  0
  147.8773  141.5975  155.3065 O   0  0  0  0  0  0  0  0  0  0  0  0
  146.4118  135.0506  152.9809 C   0  0  1  0  0  0  0  0  0  0  0  0
  145.6425  133.7565  153.3442 C   0  0  0  0  0  0  0  0  0  0  0  0
  144.3920  133.8227  152.4499 C   0  0  2  0  0  0  0  0  0  0  0  0
  144.7983  133.6064  150.9811 C   0  0  0  0  0  0  0  0  0  0  0  0
  145.5123  134.9253  150.6323 C   0  0  0  0  0  0  0  0  0  0  0  0
  145.4484  135.7086  151.9577 C   0  0  1  0  0  0  0  0  0  0  0  0
  144.0717  135.3113  152.4782 C   0  0  0  0  0  0  0  0  0  0  0  0
  147.2417  134.2993  155.5924 H   0  0  0  0  0  0  0  0  0  0  0  0
  147.9388  135.8458  156.0429 H   0  0  0  0  0  0  0  0  0  0  0  0
  148.6335  134.9226  154.7131 H   0  0  0  0  0  0  0  0  0  0  0  0
  145.8359  136.1547  154.7462 H   0  0  0  0  0  0  0  0  0  0  0  0
  148.2444  137.0658  153.2293 H   0  0  0  0  0  0  0  0  0  0  0  0
  148.1136  139.2463  152.4228 H   0  0  0  0  0  0  0  0  0  0  0  0
  147.1767  140.4291  153.2759 H   0  0  0  0  0  0  0  0  0  0  0  0
  150.0547  138.3477  153.3410 H   0  0  0  0  0  0  0  0  0  0  0  0
  152.1087  140.6751  156.3457 H   0  0  0  0  0  0  0  0  0  0  0  0
  150.1214  141.9833  156.6529 H   0  0  0  0  0  0  0  0  0  0  0  0
  147.3457  134.7941  152.4778 H   0  0  0  0  0  0  0  0  0  0  0  0
  146.2343  132.8585  153.1648 H   0  0  0  0  0  0  0  0  0  0  0  0
  145.3428  133.7487  154.3929 H   0  0  0  0  0  0  0  0  0  0  0  0
  143.5829  133.1709  152.7808 H   0  0  0  0  0  0  0  0  0  0  0  0
  145.4442  132.7366  150.8557 H   0  0  0  0  0  0  0  0  0  0  0  0
  143.9199  133.4668  150.3495 H   0  0  0  0  0  0  0  0  0  0  0  0
  146.5349  134.7685  150.2870 H   0  0  0  0  0  0  0  0  0  0  0  0
  144.9737  135.4542  149.8449 H   0  0  0  0  0  0  0  0  0  0  0  0
  145.5892  136.7798  151.8160 H   0  0  0  0  0  0  0  0  0  0  0  0
  143.2580  135.5915  151.8068 H   0  0  0  0  0  0  0  0  0  0  0  0
  143.8559  135.6915  153.4778 H   0  0  0  0  0  0  0  0  0  0  0  0
  1  2  1  0  0  0  0
  1 24  1  0  0  0  0
  1 25  1  0  0  0  0
  1 26  1  0  0  0  0
  2  3  1  0  0  0  0
  2 17  1  0  0  0  0
  2 27  1  0  0  0  0
  3  4  1  0  0  0  0
  3 28  1  0  0  0  0
  4  5  2  0  0  0  0
  4  6  1  0  0  0  0
  6  7  1  0  0  0  0
  6 29  1  0  0  0  0
  6 30  1  0  0  0  0
  7 15  1  0  0  0  0
  7  8  1  0  0  0  0
  8  9  2  0  0  0  0
  8 31  1  0  0  0  0
  9 10  1  0  0  0  0
  9 13  1  0  0  0  0
 10 11  2  0  0  0  0
 10 12  1  0  0  0  0
 13 14  2  0  0  0  0
 13 32  1  0  0  0  0
 14 15  1  0  0  0  0
 14 33  1  0  0  0  0
 15 16  2  0  0  0  0
 17 22  1  0  0  0  0
 17 18  1  0  0  0  0
 17 34  1  0  0  0  0
 18 19  1  0  0  0  0
 18 35  1  0  0  0  0
 18 36  1  0  0  0  0
 19 23  1  0  0  0  0
 19 20  1  0  0  0  0
 19 37  1  0  0  0  0
 20 21  1  0  0  0  0
 20 38  1  0  0  0  0
 20 39  1  0  0  0  0
 21 22  1  0  0  0  0
 21 40  1  0  0  0  0
 21 41  1  0  0  0  0
 22 23  1  0  0  0  0
 22 42  1  0  0  0  0
 23 43  1  0  0  0  0
 23 44  1  0  0  0  0
M  CHG  1  10   1
M  CHG  1  12  -1
M  END
> <s_m_source_file>
AV-unprocessed.smi

> <i_m_source_file_index>
334

> <i_lp_mmshare_version>
43012

> <i_f3d_flags>
0

> <s_epik_input>
W0NIMl0xW0NIMl1bQ0BIXShbQ0gyXTIpW0NAQEhdKFtDSDJdW0NAQEhdMTIpW0NASF0oW0NIM10pW05IXUMoPU8pW0NIMl1uM1tjSF1jKFtOK10oPU8pW08tXSlbY0hdW2NIXWMzPU8=

> <s_epik_cmdline>
J2VwaWtfcHl0aG9uJywgJy1waCcsICc3LjAnLCAnLXRuJywgJzgnLCAnLW1hJywgJzIwMCcsICctbWV0YWxfYmluZGluZycsICctaW1hZScsICc8aW5maWxlLm1hZT4nLCAnLW9tYWUnLCAnPG91dGZpbGUubWFlPic=

> <r_lp_tautomer_probability>
1

> <r_epik_Ionization_Penalty>
2.17081e-08

> <r_epik_Ionization_Penalty_Charging>
8.1195e-11

> <r_epik_Ionization_Penalty_Neutral>
2.16269e-08

> <r_epik_State_Penalty>
-0

> <r_epik_Charging_Adjusted_Penalty>
8.1195e-11

> <i_epik_Tot_Q>
0

> <i_epik_Tot_abs_Q>
2

> <r_epik_Metal_State_Penalty>
-0

> <b_epik_Metal_Only>
0

> <s_lp_Force_Field>
OPLS_2005

> <r_lp_Energy>
62.1709

> <b_lp_Chiralities_Consistent>
1

> <s_lp_Variant>
AV-unprocessed.smi:334-8

> <Gold.Version>
5.8.1

> <Gold.Id.Protein>
6NUR|6NUR_protein|mol2

> <Gold.PLP.Fitness>
46.0926

> <Gold.PLP.PLP>
-36.8739

> <Gold.PLP.part.hbond>
-3.0000

> <Gold.PLP.part.metal>
0.0000

> <Gold.PLP.part.buried>
-1.5954

> <Gold.PLP.part.nonpolar>
-33.9906

> <Gold.PLP.part.repulsive>
1.5892

> <Gold.PLP.ligand.clash>
0.0000

> <Gold.PLP.ligand.torsion>
0.8109

> <Gold.PLP.Chemscore.Hbond>
2.9280

> <Gold.PLP.Chemscore.CHOScore>
0.6721

> <Gold.PLP.Chemscore.Metal>
0.0000

> <Gold.Chemscore.Hbonds>
donor molecule, donor type, donor heavy atom, donor atom, acceptor molecule, acceptor atom, score
      L1  H     3    28       P1  7948  0.90
      P1  H  7997  8009       L1    11  1.00
      P1  H 10752 10764       L1    12  0.77
      L1  C     8    31       P1  7948  0.42
      L1  C     8    31       P1  7957  0.13

> <Gold.PLP.Chemscore.Internal.Correction>
0.0401

> <Gold.Rescore>
     Score         DG    S(hbond)    S(metal)    S(lipo)     H(rot)  DE(clash)    DE(int)     intcor
     16.54     -17.70       2.68        0.00      66.21       1.75       0.22       0.93       ----

> <Gold.Chemscore.Fitness>
16.5413

> <Gold.Chemscore.DG>
-17.6965

> <Gold.Chemscore.ZeroCoef>
-5.4800

> <Gold.Chemscore.Hbond>
2.6777

> <Gold.Chemscore.Metal>
0.0000

> <Gold.Chemscore.Lipo>
66.2079

> <Gold.Chemscore.Internal_Hbond>
0.0000

> <Gold.Chemscore.DEClash>
0.2246

> <Gold.Chemscore.DEInternal>
0.9305

> <Gold.Chemscore.Rot>
1.7474

> <Gold.Chemscore.Internal.Correction>
   9.000000E+99

> <Gold.Chemscore.Hbonds>
donor molecule, donor type, donor heavy atom, donor atom, acceptor molecule, acceptor atom, score
      L1  H     3    28       P1  7948  0.88
      P1  H  7997  8009       L1    11  0.98
      P1  H 10752 10764       L1    12  0.78

> <Gold.Chemscore.Hbond.Weighted>
-8.9435

> <Gold.Chemscore.Metal.Weighted>
-0.0000

> <Gold.Chemscore.Lipo.Weighted>
-7.7463

> <Gold.Chemscore.Internal_Hbond.Weighted>
0.0000

> <Gold.Chemscore.DEClash.Weighted>
0.2246

> <Gold.Chemscore.DEInternal.Weighted>
0.9305

> <Gold.Chemscore.Rot.Weighted>
4.4733

> <Gold.Chemscore.Internal.Correction.Weighted>
   9.000000E+99

> <Gold.Protein.RotatedTorsions>
[ 6907 6896 6895 6894 ] final  139.76 input  -60.11 | X-H torsion
[ 7974 7965 7964 7962 ] final  -73.04 input  175.53 | X-H torsion
[ 8008 7997 7996 7995 ] final -133.20 input   59.86 | X-H torsion
[ 10167 10162 10161 10158 ] final   17.07 input  -65.29 | X-H torsion
[ 10718 10713 10712 10709 ] final   37.33 input   66.30 | X-H torsion
[ 10763 10752 10751 10750 ] final  -95.28 input  -60.55 | X-H torsion
[ 11005 11000 10999 10996 ] final  176.81 input  -57.11 | X-H torsion

> <Gold.Protein.ActiveResidues>
 VAL166  LYS551  ARG553  GLY616  TRP617  ASP618  TYR619  PRO620  LYS621  CYS622 
 ASP623  PHE694  ASN695  SER759  ASP760  ASP761  ALA762  ILE779  LEU786  VAL792 
 PHE793  MET794  SER795  GLU796  ALA797  LYS798  CYS799  TRP800  GLU811  SER814 

> <Gold.Protein.RotatedAtoms>
  152.2510  133.5215  159.5325 H   0  0  0  0  0  0  0  0  0  0  0  0  # atno 6907 bound_to 6896
  150.7094  134.0959  159.3957 H   0  0  0  0  0  0  0  0  0  0  0  0  # atno 6908 bound_to 6896
  151.8879  135.0428  160.0546 H   0  0  0  0  0  0  0  0  0  0  0  0  # atno 6909 bound_to 6896
  145.6574  140.9263  143.0952 H   0  0  0  0  0  0  0  0  0  0  0  0  # atno 7974 bound_to 7965
  155.3415  140.0472  157.3045 H   0  0  0  0  0  0  0  0  0  0  0  0  # atno 8008 bound_to 7997
  154.5275  140.2246  155.8829 H   0  0  0  0  0  0  0  0  0  0  0  0  # atno 8009 bound_to 7997
  156.1754  140.3086  155.9056 H   0  0  0  0  0  0  0  0  0  0  0  0  # atno 8010 bound_to 7997
  140.5752  143.9086  150.6744 H   0  0  0  0  0  0  0  0  0  0  0  0  # atno 10167 bound_to 10162
  157.3456  130.7571  149.6942 H   0  0  0  0  0  0  0  0  0  0  0  0  # atno 10718 bound_to 10713
  154.7134  135.5126  153.8701 H   0  0  0  0  0  0  0  0  0  0  0  0  # atno 10763 bound_to 10752
  153.0800  135.6628  154.0074 H   0  0  0  0  0  0  0  0  0  0  0  0  # atno 10764 bound_to 10752
  153.9912  135.3019  155.3391 H   0  0  0  0  0  0  0  0  0  0  0  0  # atno 10765 bound_to 10752
  140.3772  134.6978  157.4429 H   0  0  0  0  0  0  0  0  0  0  0  0  # atno 11005 bound_to 11000
  144.7101  139.8404  143.7417 LP  0  0  0  0  0  0  0  0  0  0  0  0  # atno 17320 bound_to 7965
  146.1154  139.4164  143.0262 LP  0  0  0  0  0  0  0  0  0  0  0  0  # atno 17321 bound_to 7965
  140.2571  143.3551  152.1355 LP  0  0  0  0  0  0  0  0  0  0  0  0  # atno 17342 bound_to 10162
  139.5139  144.6939  151.5683 LP  0  0  0  0  0  0  0  0  0  0  0  0  # atno 17343 bound_to 10162
  155.9714  130.4155  150.4185 LP  0  0  0  0  0  0  0  0  0  0  0  0  # atno 17370 bound_to 10713
  157.2240  131.0489  151.2530 LP  0  0  0  0  0  0  0  0  0  0  0  0  # atno 17371 bound_to 10713
  140.0506  134.6136  155.8866 LP  0  0  0  0  0  0  0  0  0  0  0  0  # atno 17394 bound_to 11000
  141.1935  133.6579  156.5552 LP  0  0  0  0  0  0  0  0  0  0  0  0  # atno 17395 bound_to 11000

$$$$
