AV-unprocessed.smi:3250|AV-procd|sdf|12433|dock2
  -GOLD-   2272018323D 1   1.00000     0.00000
 Structure written by MMmdl.
 40 41  0  0  0  0  0  0  0  0  3 V2000
  146.2089  137.3306  153.9286 C   0  0  0  0  0  0  0  0  0  0  0  0
  147.4249  137.9151  154.6610 C   0  0  0  0  0  0  0  0  0  0  0  0
  148.4198  138.5133  153.7310 N   0  3  1  0  0  0  0  0  0  0  0  0
  147.8415  139.5401  152.8302 C   0  0  0  0  0  0  0  0  0  0  0  0
  147.6449  140.8776  153.5660 C   0  0  0  0  0  0  0  0  0  0  0  0
  148.8868  141.3042  154.1131 O   0  0  0  0  0  0  0  0  0  0  0  0
  149.4078  140.3899  155.0734 C   0  0  2  0  0  0  0  0  0  0  0  0
  150.7090  140.9814  155.6343 C   0  0  0  0  0  0  0  0  0  0  0  0
  150.4974  142.3050  156.2013 N   0  0  0  0  0  0  0  0  0  0  0  0
  151.0398  142.7252  157.4014 C   0  0  0  0  0  0  0  0  0  0  0  0
  150.7609  143.9736  157.8046 N   0  3  0  0  0  0  0  0  0  0  0  0
  151.2677  144.4323  158.9755 C   0  0  0  0  0  0  0  0  0  0  0  0
  152.0845  143.6064  159.7681 C   0  0  0  0  0  0  0  0  0  0  0  0
  152.3394  142.3119  159.2863 C   0  0  0  0  0  0  0  0  0  0  0  0
  153.1398  141.4595  160.0185 O   0  0  0  0  0  0  0  0  0  0  0  0
  153.4831  141.8315  161.3490 C   0  0  0  0  0  0  0  0  0  0  0  0
  151.8118  141.8904  158.1120 N   0  0  0  0  0  0  0  0  0  0  0  0
  149.6527  139.0314  154.3792 C   0  0  0  0  0  0  0  0  0  0  0  0
  145.4549  137.0017  154.6442 H   0  0  0  0  0  0  0  0  0  0  0  0
  146.4717  136.4659  153.3199 H   0  0  0  0  0  0  0  0  0  0  0  0
  145.7444  138.0735  153.2792 H   0  0  0  0  0  0  0  0  0  0  0  0
  147.0599  138.6930  155.3327 H   0  0  0  0  0  0  0  0  0  0  0  0
  147.8856  137.1580  155.2955 H   0  0  0  0  0  0  0  0  0  0  0  0
  148.5258  139.6874  151.9937 H   0  0  0  0  0  0  0  0  0  0  0  0
  146.9024  139.1919  152.3986 H   0  0  0  0  0  0  0  0  0  0  0  0
  147.2892  141.6375  152.8701 H   0  0  0  0  0  0  0  0  0  0  0  0
  146.8935  140.7928  154.3522 H   0  0  0  0  0  0  0  0  0  0  0  0
  148.6957  140.2672  155.8909 H   0  0  0  0  0  0  0  0  0  0  0  0
  151.0984  140.3338  156.4207 H   0  0  0  0  0  0  0  0  0  0  0  0
  151.4696  141.0315  154.8540 H   0  0  0  0  0  0  0  0  0  0  0  0
  149.9091  142.9545  155.6997 H   0  0  0  0  0  0  0  0  0  0  0  0
  151.0029  145.4459  159.2391 H   0  0  0  0  0  0  0  0  0  0  0  0
  152.4990  143.9526  160.7039 H   0  0  0  0  0  0  0  0  0  0  0  0
  154.1028  141.0524  161.7930 H   0  0  0  0  0  0  0  0  0  0  0  0
  152.5952  141.9424  161.9733 H   0  0  0  0  0  0  0  0  0  0  0  0
  154.0541  142.7607  161.3698 H   0  0  0  0  0  0  0  0  0  0  0  0
  150.0594  138.3054  155.0819 H   0  0  0  0  0  0  0  0  0  0  0  0
  150.4109  139.1547  153.6045 H   0  0  0  0  0  0  0  0  0  0  0  0
  148.7066  137.7525  153.1311 H   0  0  0  0  0  0  0  0  0  0  0  0
  150.1707  144.5870  157.2422 H   0  0  0  0  0  0  0  0  0  0  0  0
  1  2  1  0  0  0  0
  1 19  1  0  0  0  0
  1 20  1  0  0  0  0
  1 21  1  0  0  0  0
  2  3  1  0  0  0  0
  2 22  1  0  0  0  0
  2 23  1  0  0  0  0
  3 18  1  0  0  0  0
  3  4  1  0  0  0  0
  3 39  1  0  0  0  0
  4  5  1  0  0  0  0
  4 24  1  0  0  0  0
  4 25  1  0  0  0  0
  5  6  1  0  0  0  0
  5 26  1  0  0  0  0
  5 27  1  0  0  0  0
  6  7  1  0  0  0  0
  7  8  1  0  0  0  0
  7 18  1  0  0  0  0
  7 28  1  0  0  0  0
  8  9  1  0  0  0  0
  8 29  1  0  0  0  0
  8 30  1  0  0  0  0
  9 10  1  0  0  0  0
  9 31  1  0  0  0  0
 10 17  1  0  0  0  0
 10 11  2  0  0  0  0
 11 12  1  0  0  0  0
 11 40  1  0  0  0  0
 12 13  2  0  0  0  0
 12 32  1  0  0  0  0
 13 14  1  0  0  0  0
 13 33  1  0  0  0  0
 14 15  1  0  0  0  0
 14 17  2  0  0  0  0
 15 16  1  0  0  0  0
 16 34  1  0  0  0  0
 16 35  1  0  0  0  0
 16 36  1  0  0  0  0
 18 37  1  0  0  0  0
 18 38  1  0  0  0  0
M  CHG  1   3   1
M  CHG  1  11   1
M  END
> <s_m_source_file>
AV-unprocessed.smi

> <i_m_source_file_index>
3250

> <i_lp_mmshare_version>
43012

> <i_f3d_flags>
0

> <s_epik_input>
W0NIM11bQ0gyXU4xW0NIMl1bQ0gyXU9bQ0BIXShbQ0gyXTEpW0NIMl1bTkhdYzJuW2NIXVtjSF1jKG4yKU9bQ0gzXQ==

> <s_epik_cmdline>
J2VwaWtfcHl0aG9uJywgJy1waCcsICc3LjAnLCAnLXRuJywgJzgnLCAnLW1hJywgJzIwMCcsICctbWV0YWxfYmluZGluZycsICctaW1hZScsICc8aW5maWxlLm1hZT4nLCAnLW9tYWUnLCAnPG91dGZpbGUubWFlPic=

> <r_lp_tautomer_probability>
0.999985

> <r_epik_Ionization_Penalty>
2.24691

> <r_epik_Ionization_Penalty_Charging>
2.24686

> <r_epik_Ionization_Penalty_Neutral>
4.52111e-05

> <r_epik_State_Penalty>
2.24709

> <r_epik_Charging_Adjusted_Penalty>
4.49395

> <i_epik_Tot_Q>
2

> <i_epik_Tot_abs_Q>
2

> <r_epik_Metal_State_Penalty>
2.26327

> <b_epik_Metal_Only>
0

> <s_lp_Force_Field>
OPLS_2005

> <r_lp_Energy>
20.5595

> <b_lp_Chiralities_Consistent>
1

> <s_lp_Variant>
AV-unprocessed.smi:3250-9

> <Gold.Version>
5.8.1

> <Gold.Id.Protein>
6NUR|6NUR_protein|mol2

> <Gold.PLP.Fitness>
51.2592

> <Gold.PLP.PLP>
-33.2537

> <Gold.PLP.part.hbond>
-4.1067

> <Gold.PLP.part.metal>
0.0000

> <Gold.PLP.part.buried>
-0.6319

> <Gold.PLP.part.nonpolar>
-29.1983

> <Gold.PLP.part.repulsive>
0.3210

> <Gold.PLP.ligand.clash>
0.0000

> <Gold.PLP.ligand.torsion>
0.2396

> <Gold.PLP.Chemscore.Hbond>
6.1552

> <Gold.PLP.Chemscore.CHOScore>
0.0000

> <Gold.PLP.Chemscore.Metal>
0.0000

> <Gold.Chemscore.Hbonds>
donor molecule, donor type, donor heavy atom, donor atom, acceptor molecule, acceptor atom, score
      L1  H     3    39       P1  7948  2.00
      L1  H     9    31       P1  8028  1.93
      L1  H    11    40       P1  8028  1.92
      P1  H  8011  8017       L1     6  0.26

> <Gold.PLP.Chemscore.Internal.Correction>
0.0192

> <Gold.Rescore>
     Score         DG    S(hbond)    S(metal)    S(lipo)     H(rot)  DE(clash)    DE(int)     intcor
     16.26     -18.16       2.52        0.00      74.96       1.75       1.57       0.34       ----

> <Gold.Chemscore.Fitness>
16.2617

> <Gold.Chemscore.DG>
-18.1649

> <Gold.Chemscore.ZeroCoef>
-5.4800

> <Gold.Chemscore.Hbond>
2.5158

> <Gold.Chemscore.Metal>
0.0000

> <Gold.Chemscore.Lipo>
74.9570

> <Gold.Chemscore.Internal_Hbond>
0.0000

> <Gold.Chemscore.DEClash>
1.5665

> <Gold.Chemscore.DEInternal>
0.3368

> <Gold.Chemscore.Rot>
1.7530

> <Gold.Chemscore.Internal.Correction>
   9.000000E+99

> <Gold.Chemscore.Hbonds>
donor molecule, donor type, donor heavy atom, donor atom, acceptor molecule, acceptor atom, score
      L1  H     3    39       P1  7948  0.98
      L1  H     9    31       P1  8028  0.86
      L1  H    11    40       P1  8028  0.35
      P1  H  8011  8017       L1     6  0.08

> <Gold.Chemscore.Hbond.Weighted>
-8.4026

> <Gold.Chemscore.Metal.Weighted>
-0.0000

> <Gold.Chemscore.Lipo.Weighted>
-8.7700

> <Gold.Chemscore.Internal_Hbond.Weighted>
0.0000

> <Gold.Chemscore.DEClash.Weighted>
1.5665

> <Gold.Chemscore.DEInternal.Weighted>
0.3368

> <Gold.Chemscore.Rot.Weighted>
4.4876

> <Gold.Chemscore.Internal.Correction.Weighted>
   9.000000E+99

> <Gold.Protein.RotatedTorsions>
[ 6907 6896 6895 6894 ] final   72.99 input  -60.11 | X-H torsion
[ 7974 7965 7964 7962 ] final -157.19 input  175.53 | X-H torsion
[ 8008 7997 7996 7995 ] final -108.02 input   59.86 | X-H torsion
[ 10167 10162 10161 10158 ] final  157.06 input  -65.29 | X-H torsion
[ 10718 10713 10712 10709 ] final  -95.11 input   66.30 | X-H torsion
[ 10763 10752 10751 10750 ] final  -21.07 input  -60.55 | X-H torsion
[ 11005 11000 10999 10996 ] final  -23.70 input  -57.11 | X-H torsion

> <Gold.Protein.ActiveResidues>
 VAL166  LYS551  ARG553  GLY616  TRP617  ASP618  TYR619  PRO620  LYS621  CYS622 
 ASP623  PHE694  ASN695  SER759  ASP760  ASP761  ALA762  ILE779  LEU786  VAL792 
 PHE793  MET794  SER795  GLU796  ALA797  LYS798  CYS799  TRP800  GLU811  SER814 

> <Gold.Protein.RotatedAtoms>
  152.4899  134.4488  159.9567 H   0  0  0  0  0  0  0  0  0  0  0  0  # atno 6907 bound_to 6896
  151.4477  133.3620  159.2798 H   0  0  0  0  0  0  0  0  0  0  0  0  # atno 6908 bound_to 6896
  150.9043  134.8481  159.7442 H   0  0  0  0  0  0  0  0  0  0  0  0  # atno 6909 bound_to 6896
  144.7559  140.4003  143.6013 H   0  0  0  0  0  0  0  0  0  0  0  0  # atno 7974 bound_to 7965
  154.9381  140.0403  157.2082 H   0  0  0  0  0  0  0  0  0  0  0  0  # atno 8008 bound_to 7997
  154.8096  140.2865  155.5841 H   0  0  0  0  0  0  0  0  0  0  0  0  # atno 8009 bound_to 7997
  156.2970  140.2539  156.2981 H   0  0  0  0  0  0  0  0  0  0  0  0  # atno 8010 bound_to 7997
  139.4822  144.4952  151.8250 H   0  0  0  0  0  0  0  0  0  0  0  0  # atno 10167 bound_to 10162
  156.0038  130.5095  150.6027 H   0  0  0  0  0  0  0  0  0  0  0  0  # atno 10718 bound_to 10713
  153.6304  135.6989  153.5277 H   0  0  0  0  0  0  0  0  0  0  0  0  # atno 10763 bound_to 10752
  153.2864  135.4170  155.1126 H   0  0  0  0  0  0  0  0  0  0  0  0  # atno 10764 bound_to 10752
  154.8523  135.3614  154.5846 H   0  0  0  0  0  0  0  0  0  0  0  0  # atno 10765 bound_to 10752
  140.8777  133.7676  156.0263 H   0  0  0  0  0  0  0  0  0  0  0  0  # atno 11005 bound_to 11000
  145.6781  139.1613  143.2716 LP  0  0  0  0  0  0  0  0  0  0  0  0  # atno 17320 bound_to 7965
  146.1568  140.6846  142.9296 LP  0  0  0  0  0  0  0  0  0  0  0  0  # atno 17321 bound_to 7965
  140.4440  144.1947  150.5893 LP  0  0  0  0  0  0  0  0  0  0  0  0  # atno 17342 bound_to 10162
  140.4654  143.2433  151.9162 LP  0  0  0  0  0  0  0  0  0  0  0  0  # atno 17343 bound_to 10162
  157.3873  131.0790  151.1425 LP  0  0  0  0  0  0  0  0  0  0  0  0  # atno 17370 bound_to 10713
  157.2128  130.6445  149.5780 LP  0  0  0  0  0  0  0  0  0  0  0  0  # atno 17371 bound_to 10713
  140.8499  134.2967  157.5279 LP  0  0  0  0  0  0  0  0  0  0  0  0  # atno 17394 bound_to 11000
  139.8717  134.9462  156.3931 LP  0  0  0  0  0  0  0  0  0  0  0  0  # atno 17395 bound_to 11000

$$$$
