AV-unprocessed.smi:2471|AV-procd|sdf|9738|dock9
  -GOLD-   2272013383D 1   1.00000     0.00000
 Structure written by MMmdl.
 40 41  0  0  0  0  0  0  0  0  1 V2000
  151.7386  139.7728  155.6046 C   0  0  0  0  0  0  0  0  0  0  0  0
  150.3521  140.0320  155.0536 C   0  0  0  0  0  0  0  0  0  0  0  0
  149.7302  141.2852  155.2175 C   0  0  0  0  0  0  0  0  0  0  0  0
  148.4433  141.4618  154.6784 C   0  0  0  0  0  0  0  0  0  0  0  0
  147.8361  140.3862  154.0016 C   0  0  0  0  0  0  0  0  0  0  0  0
  148.5300  139.1615  153.8787 C   0  0  0  0  0  0  0  0  0  0  0  0
  147.8348  138.1428  153.1733 N   0  0  0  0  0  0  0  0  0  0  0  0
  146.5101  137.9128  153.1388 C   0  0  0  0  0  0  0  0  0  0  0  0
  145.6537  138.5911  153.7074 O   0  0  0  0  0  0  0  0  0  0  0  0
  146.2223  136.8345  152.3956 N   0  0  0  0  0  0  0  0  0  0  0  0
  144.8780  136.3144  152.1634 C   0  0  0  0  0  0  0  0  0  0  0  0
  144.8817  135.0070  151.3387 C   0  0  1  0  0  0  0  0  0  0  0  0
  146.2507  134.2898  151.3536 C   0  0  0  0  0  0  0  0  0  0  0  0
  146.2332  133.0184  150.4900 C   0  0  0  0  0  0  0  0  0  0  0  0
  145.1160  132.0590  150.9257 C   0  0  0  0  0  0  0  0  0  0  0  0
  143.7456  132.7579  150.9163 C   0  0  0  0  0  0  0  0  0  0  0  0
  143.7446  134.0457  151.7630 C   0  0  1  0  0  0  0  0  0  0  0  0
  143.8469  133.7028  153.1327 O   0  0  0  0  0  0  0  0  0  0  0  0
  149.7706  139.0011  154.4033 N   0  0  0  0  0  0  0  0  0  0  0  0
  152.0334  140.5496  156.3105 H   0  0  0  0  0  0  0  0  0  0  0  0
  152.4675  139.7521  154.7942 H   0  0  0  0  0  0  0  0  0  0  0  0
  151.7729  138.8137  156.1227 H   0  0  0  0  0  0  0  0  0  0  0  0
  150.2241  142.0910  155.7405 H   0  0  0  0  0  0  0  0  0  0  0  0
  147.9303  142.4068  154.7803 H   0  0  0  0  0  0  0  0  0  0  0  0
  146.8486  140.5064  153.5801 H   0  0  0  0  0  0  0  0  0  0  0  0
  148.4151  137.5054  152.6488 H   0  0  0  0  0  0  0  0  0  0  0  0
  146.9848  136.3357  151.9608 H   0  0  0  0  0  0  0  0  0  0  0  0
  144.4154  136.1450  153.1359 H   0  0  0  0  0  0  0  0  0  0  0  0
  144.2732  137.0748  151.6662 H   0  0  0  0  0  0  0  0  0  0  0  0
  144.6788  135.2827  150.3024 H   0  0  0  0  0  0  0  0  0  0  0  0
  147.0323  134.9554  150.9865 H   0  0  0  0  0  0  0  0  0  0  0  0
  146.5240  134.0327  152.3778 H   0  0  0  0  0  0  0  0  0  0  0  0
  146.0931  133.2906  149.4432 H   0  0  0  0  0  0  0  0  0  0  0  0
  147.1986  132.5150  150.5515 H   0  0  0  0  0  0  0  0  0  0  0  0
  145.0938  131.1913  150.2660 H   0  0  0  0  0  0  0  0  0  0  0  0
  145.3295  131.6789  151.9254 H   0  0  0  0  0  0  0  0  0  0  0  0
  143.4834  133.0085  149.8876 H   0  0  0  0  0  0  0  0  0  0  0  0
  142.9730  132.0726  151.2670 H   0  0  0  0  0  0  0  0  0  0  0  0
  142.7854  134.5476  151.6308 H   0  0  0  0  0  0  0  0  0  0  0  0
  143.3179  132.9358  153.2898 H   0  0  0  0  0  0  0  0  0  0  0  0
  1  2  1  0  0  0  0
  1 20  1  0  0  0  0
  1 21  1  0  0  0  0
  1 22  1  0  0  0  0
  2 19  1  0  0  0  0
  2  3  2  0  0  0  0
  3  4  1  0  0  0  0
  3 23  1  0  0  0  0
  4  5  2  0  0  0  0
  4 24  1  0  0  0  0
  5  6  1  0  0  0  0
  5 25  1  0  0  0  0
  6  7  1  0  0  0  0
  6 19  2  0  0  0  0
  7  8  1  0  0  0  0
  7 26  1  0  0  0  0
  8  9  2  0  0  0  0
  8 10  1  0  0  0  0
 10 11  1  0  0  0  0
 10 27  1  0  0  0  0
 11 12  1  0  0  0  0
 11 28  1  0  0  0  0
 11 29  1  0  0  0  0
 12 17  1  0  0  0  0
 12 13  1  0  0  0  0
 12 30  1  0  0  0  0
 13 14  1  0  0  0  0
 13 31  1  0  0  0  0
 13 32  1  0  0  0  0
 14 15  1  0  0  0  0
 14 33  1  0  0  0  0
 14 34  1  0  0  0  0
 15 16  1  0  0  0  0
 15 35  1  0  0  0  0
 15 36  1  0  0  0  0
 16 17  1  0  0  0  0
 16 37  1  0  0  0  0
 16 38  1  0  0  0  0
 17 18  1  0  0  0  0
 17 39  1  0  0  0  0
 18 40  1  0  0  0  0
M  END
> <s_m_source_file>
AV-unprocessed.smi

> <i_m_source_file_index>
2471

> <i_lp_mmshare_version>
43012

> <i_f3d_flags>
0

> <s_epik_input>
W0NIM11jMVtjSF1bY0hdW2NIXWMobjEpW05IXUMoPU8pW05IXVtDSDJdW0NAQEhdMltDSDJdW0NIMl1bQ0gyXVtDSDJdW0NASF0yW09IXQ==

> <s_epik_cmdline>
J2VwaWtfcHl0aG9uJywgJy1waCcsICc3LjAnLCAnLXRuJywgJzgnLCAnLW1hJywgJzIwMCcsICctbWV0YWxfYmluZGluZycsICctaW1hZScsICc8aW5maWxlLm1hZT4nLCAnLW9tYWUnLCAnPG91dGZpbGUubWFlPic=

> <r_lp_tautomer_probability>
1

> <r_epik_Ionization_Penalty>
8.52237e-05

> <r_epik_Ionization_Penalty_Charging>
0

> <r_epik_Ionization_Penalty_Neutral>
8.52237e-05

> <r_epik_State_Penalty>
-0

> <r_epik_Charging_Adjusted_Penalty>
0

> <i_epik_Tot_Q>
0

> <i_epik_Tot_abs_Q>
0

> <r_epik_Metal_State_Penalty>
-0

> <b_epik_Metal_Only>
0

> <s_lp_Force_Field>
OPLS_2005

> <r_lp_Energy>
16.6086

> <b_lp_Chiralities_Consistent>
1

> <s_lp_Variant>
AV-unprocessed.smi:2471-2

> <Gold.Version>
5.8.1

> <Gold.Id.Protein>
6NUR|6NUR_protein|mol2

> <Gold.PLP.Fitness>
42.4849

> <Gold.PLP.PLP>
-35.7308

> <Gold.PLP.part.hbond>
-3.2975

> <Gold.PLP.part.metal>
0.0000

> <Gold.PLP.part.buried>
-3.4937

> <Gold.PLP.part.nonpolar>
-31.1110

> <Gold.PLP.part.repulsive>
1.5225

> <Gold.PLP.ligand.clash>
0.0011

> <Gold.PLP.ligand.torsion>
0.7442

> <Gold.PLP.Chemscore.Hbond>
2.7440

> <Gold.PLP.Chemscore.CHOScore>
0.0000

> <Gold.PLP.Chemscore.Metal>
0.0000

> <Gold.Chemscore.Hbonds>
donor molecule, donor type, donor heavy atom, donor atom, acceptor molecule, acceptor atom, score
      L1  H     7    26       P1  7948  1.00
      L1  H    10    27       P1  7948  0.90
      L1  H    18    40       P1 10957  0.85

> <Gold.PLP.Chemscore.Internal.Correction>
0.0115

> <Gold.Rescore>
     Score         DG    S(hbond)    S(metal)    S(lipo)     H(rot)  DE(clash)    DE(int)     intcor
     17.32     -19.42       2.89        0.00      74.61       1.73       0.00       2.09       ----

> <Gold.Chemscore.Fitness>
17.3218

> <Gold.Chemscore.DG>
-19.4185

> <Gold.Chemscore.ZeroCoef>
-5.4800

> <Gold.Chemscore.Hbond>
2.8886

> <Gold.Chemscore.Metal>
0.0000

> <Gold.Chemscore.Lipo>
74.6099

> <Gold.Chemscore.Internal_Hbond>
0.0000

> <Gold.Chemscore.DEClash>
0.0021

> <Gold.Chemscore.DEInternal>
2.0946

> <Gold.Chemscore.Rot>
1.7339

> <Gold.Chemscore.Internal.Correction>
   9.000000E+99

> <Gold.Chemscore.Hbonds>
donor molecule, donor type, donor heavy atom, donor atom, acceptor molecule, acceptor atom, score
      L1  H     7    26       P1  7948  0.97
      L1  H    10    27       P1  7948  0.86
      L1  H    18    40       P1 10957  0.56

> <Gold.Chemscore.Hbond.Weighted>
-9.6478

> <Gold.Chemscore.Metal.Weighted>
-0.0000

> <Gold.Chemscore.Lipo.Weighted>
-8.7294

> <Gold.Chemscore.Internal_Hbond.Weighted>
0.0000

> <Gold.Chemscore.DEClash.Weighted>
0.0021

> <Gold.Chemscore.DEInternal.Weighted>
2.0946

> <Gold.Chemscore.Rot.Weighted>
4.4387

> <Gold.Chemscore.Internal.Correction.Weighted>
   9.000000E+99

> <Gold.Protein.RotatedTorsions>
[ 6907 6896 6895 6894 ] final   16.97 input  -60.11 | X-H torsion
[ 7974 7965 7964 7962 ] final  -98.45 input  175.53 | X-H torsion
[ 8008 7997 7996 7995 ] final   65.49 input   59.86 | X-H torsion
[ 10167 10162 10161 10158 ] final -159.60 input  -65.29 | X-H torsion
[ 10718 10713 10712 10709 ] final  -75.95 input   66.30 | X-H torsion
[ 10763 10752 10751 10750 ] final  -71.53 input  -60.55 | X-H torsion
[ 11005 11000 10999 10996 ] final  166.05 input  -57.11 | X-H torsion

> <Gold.Protein.ActiveResidues>
 VAL166  LYS551  ARG553  GLY616  TRP617  ASP618  TYR619  PRO620  LYS621  CYS622 
 ASP623  PHE694  ASN695  SER759  ASP760  ASP761  ALA762  ILE779  LEU786  VAL792 
 PHE793  MET794  SER795  GLU796  ALA797  LYS798  CYS799  TRP800  GLU811  SER814 

> <Gold.Protein.RotatedAtoms>
  151.8423  135.0586  160.0449 H   0  0  0  0  0  0  0  0  0  0  0  0  # atno 6907 bound_to 6896
  152.2799  133.5456  159.5500 H   0  0  0  0  0  0  0  0  0  0  0  0  # atno 6908 bound_to 6896
  150.7185  134.0494  159.3835 H   0  0  0  0  0  0  0  0  0  0  0  0  # atno 6909 bound_to 6896
  145.3205  140.9420  143.2718 H   0  0  0  0  0  0  0  0  0  0  0  0  # atno 7974 bound_to 7965
  155.6625  140.3497  155.4788 H   0  0  0  0  0  0  0  0  0  0  0  0  # atno 8008 bound_to 7997
  155.9756  140.1164  157.0796 H   0  0  0  0  0  0  0  0  0  0  0  0  # atno 8009 bound_to 7997
  154.4178  140.1148  156.5352 H   0  0  0  0  0  0  0  0  0  0  0  0  # atno 8010 bound_to 7997
  139.6602  143.9925  152.2220 H   0  0  0  0  0  0  0  0  0  0  0  0  # atno 10167 bound_to 10162
  156.0190  130.4453  150.3121 H   0  0  0  0  0  0  0  0  0  0  0  0  # atno 10718 bound_to 10713
  154.4331  135.5959  153.6081 H   0  0  0  0  0  0  0  0  0  0  0  0  # atno 10763 bound_to 10752
  152.9800  135.5980  154.3815 H   0  0  0  0  0  0  0  0  0  0  0  0  # atno 10764 bound_to 10752
  154.3656  135.2841  155.2274 H   0  0  0  0  0  0  0  0  0  0  0  0  # atno 10765 bound_to 10752
  140.2625  134.7891  157.3602 H   0  0  0  0  0  0  0  0  0  0  0  0  # atno 11005 bound_to 11000
  144.8943  139.4732  143.6663 LP  0  0  0  0  0  0  0  0  0  0  0  0  # atno 17320 bound_to 7965
  146.3084  139.7660  142.9038 LP  0  0  0  0  0  0  0  0  0  0  0  0  # atno 17321 bound_to 7965
  139.9663  144.6524  150.8032 LP  0  0  0  0  0  0  0  0  0  0  0  0  # atno 17342 bound_to 10162
  140.7577  143.3091  151.2888 LP  0  0  0  0  0  0  0  0  0  0  0  0  # atno 17343 bound_to 10162
  157.1222  131.0250  151.3004 LP  0  0  0  0  0  0  0  0  0  0  0  0  # atno 17370 bound_to 10713
  157.4619  130.7658  149.7243 LP  0  0  0  0  0  0  0  0  0  0  0  0  # atno 17371 bound_to 10713
  140.1451  134.4921  155.8002 LP  0  0  0  0  0  0  0  0  0  0  0  0  # atno 17394 bound_to 11000
  141.2188  133.6840  156.7279 LP  0  0  0  0  0  0  0  0  0  0  0  0  # atno 17395 bound_to 11000

$$$$
