AV-unprocessed.smi:328|AV-procd|sdf|2347|dock4
  -GOLD-   2262022253D 1   1.00000     0.00000
 Structure written by MMmdl.
 23 24  0  0  0  0  0  0  0  0  2 V2000
  152.8393  139.9155  154.7907 O   0  0  0  0  0  0  0  0  0  0  0  0
  152.0531  139.2831  155.5298 C   0  0  0  0  0  0  0  0  0  0  0  0
  152.2821  138.1684  156.0499 O   0  5  0  0  0  0  0  0  0  0  0  0
  150.6978  139.9281  155.8298 C   0  0  0  0  0  0  0  0  0  0  0  0
  150.8845  140.9297  156.9345 C   0  0  0  0  0  0  0  0  0  0  0  0
  150.1908  142.1029  157.1124 C   0  0  0  0  0  0  0  0  0  0  0  0
  150.7213  142.9705  158.5265 S   0  0  0  0  0  0  0  0  0  0  0  0
  151.8764  141.6780  158.8442 C   0  0  0  0  0  0  0  0  0  0  0  0
  152.7664  141.6807  159.9595 N   0  0  0  0  0  0  0  0  0  0  0  0
  152.4805  142.4719  161.1501 C   0  0  0  0  0  0  0  0  0  0  0  0
  153.6703  142.2001  162.0658 C   0  0  0  0  0  0  0  0  0  0  0  0
  154.4607  141.2873  161.2740 N   0  0  0  0  0  0  0  0  0  0  0  0
  153.9280  141.0049  160.0829 C   0  0  0  0  0  0  0  0  0  0  0  0
  154.4414  140.2452  159.2630 O   0  0  0  0  0  0  0  0  0  0  0  0
  151.8349  140.6968  157.9351 N   0  0  0  0  0  0  0  0  0  0  0  0
  150.3093  140.4096  154.9316 H   0  0  0  0  0  0  0  0  0  0  0  0
  149.9815  139.1541  156.1093 H   0  0  0  0  0  0  0  0  0  0  0  0
  149.4081  142.5094  156.4893 H   0  0  0  0  0  0  0  0  0  0  0  0
  152.4034  143.5310  160.9005 H   0  0  0  0  0  0  0  0  0  0  0  0
  151.5441  142.1518  161.6094 H   0  0  0  0  0  0  0  0  0  0  0  0
  154.2356  143.1066  162.2843 H   0  0  0  0  0  0  0  0  0  0  0  0
  153.3684  141.7332  163.0040 H   0  0  0  0  0  0  0  0  0  0  0  0
  155.3342  140.9020  161.6029 H   0  0  0  0  0  0  0  0  0  0  0  0
  1  2  2  0  0  0  0
  2  3  1  0  0  0  0
  2  4  1  0  0  0  0
  4  5  1  0  0  0  0
  4 16  1  0  0  0  0
  4 17  1  0  0  0  0
  5 15  1  0  0  0  0
  5  6  2  0  0  0  0
  6  7  1  0  0  0  0
  6 18  1  0  0  0  0
  7  8  1  0  0  0  0
  8  9  1  0  0  0  0
  8 15  2  0  0  0  0
  9 13  1  0  0  0  0
  9 10  1  0  0  0  0
 10 11  1  0  0  0  0
 10 19  1  0  0  0  0
 10 20  1  0  0  0  0
 11 12  1  0  0  0  0
 11 21  1  0  0  0  0
 11 22  1  0  0  0  0
 12 13  1  0  0  0  0
 12 23  1  0  0  0  0
 13 14  2  0  0  0  0
M  CHG  1   3  -1
M  END
> <s_m_source_file>
AV-unprocessed.smi

> <i_m_source_file_index>
328

> <i_lp_mmshare_version>
43012

> <i_f3d_flags>
0

> <s_epik_input>
Tz1DKFtPSF0pW0NIMl1jMVtjSF1zYyhuMSlOMltDSDJdW0NIMl1bTkhdQzI9Tw==

> <s_epik_cmdline>
J2VwaWtfcHl0aG9uJywgJy1waCcsICc3LjAnLCAnLXRuJywgJzgnLCAnLW1hJywgJzIwMCcsICctbWV0YWxfYmluZGluZycsICctaW1hZScsICc8aW5maWxlLm1hZT4nLCAnLW9tYWUnLCAnPG91dGZpbGUubWFlPic=

> <r_lp_tautomer_probability>
1

> <r_epik_Ionization_Penalty>
0.000968476

> <r_epik_Ionization_Penalty_Charging>
0.000722293

> <r_epik_Ionization_Penalty_Neutral>
0.000246183

> <r_epik_State_Penalty>
0.000460635

> <r_epik_Charging_Adjusted_Penalty>
0.00118293

> <i_epik_Tot_Q>
-1

> <i_epik_Tot_abs_Q>
1

> <r_epik_Metal_State_Penalty>
-0

> <b_epik_Metal_Only>
0

> <s_lp_Force_Field>
OPLS_2005

> <r_lp_Energy>
33.9917

> <b_lp_Chiralities_Consistent>
1

> <s_lp_Variant>
AV-unprocessed.smi:328-1

> <Gold.Version>
5.8.1

> <Gold.Id.Protein>
6NUR|6NUR_protein|mol2

> <Gold.PLP.Fitness>
42.1434

> <Gold.PLP.PLP>
-30.8828

> <Gold.PLP.part.hbond>
-3.9266

> <Gold.PLP.part.metal>
0.0000

> <Gold.PLP.part.buried>
-1.9354

> <Gold.PLP.part.nonpolar>
-24.0907

> <Gold.PLP.part.repulsive>
0.0368

> <Gold.PLP.ligand.clash>
0.0000

> <Gold.PLP.ligand.torsion>
0.8867

> <Gold.PLP.Chemscore.Hbond>
3.3440

> <Gold.PLP.Chemscore.CHOScore>
1.0000

> <Gold.PLP.Chemscore.Metal>
0.0000

> <Gold.Chemscore.Hbonds>
donor molecule, donor type, donor heavy atom, donor atom, acceptor molecule, acceptor atom, score
      P1  H  7989  7998       L1     1  0.40
      P1  H  7997  8008       L1     1  2.00
      P1  H  7997  8010       L1    14  0.87
      L1  C     6    18       P1  8028  1.00

> <Gold.PLP.Chemscore.Internal.Correction>
0.0020

> <Gold.Rescore>
     Score         DG    S(hbond)    S(metal)    S(lipo)     H(rot)  DE(clash)    DE(int)     intcor
     12.07     -14.05       2.04        0.00      49.27       1.57       0.07       1.91       ----

> <Gold.Chemscore.Fitness>
12.0659

> <Gold.Chemscore.DG>
-14.0502

> <Gold.Chemscore.ZeroCoef>
-5.4800

> <Gold.Chemscore.Hbond>
2.0400

> <Gold.Chemscore.Metal>
0.0000

> <Gold.Chemscore.Lipo>
49.2653

> <Gold.Chemscore.Internal_Hbond>
0.0000

> <Gold.Chemscore.DEClash>
0.0728

> <Gold.Chemscore.DEInternal>
1.9114

> <Gold.Chemscore.Rot>
1.5654

> <Gold.Chemscore.Internal.Correction>
   9.000000E+99

> <Gold.Chemscore.Hbonds>
donor molecule, donor type, donor heavy atom, donor atom, acceptor molecule, acceptor atom, score
      P1  H  7989  7998       L1     1  0.22
      P1  H  7997  8008       L1     1  0.78
      P1  H  7997  8010       L1    14  0.80

> <Gold.Chemscore.Hbond.Weighted>
-6.8137

> <Gold.Chemscore.Metal.Weighted>
-0.0000

> <Gold.Chemscore.Lipo.Weighted>
-5.7640

> <Gold.Chemscore.Internal_Hbond.Weighted>
0.0000

> <Gold.Chemscore.DEClash.Weighted>
0.0728

> <Gold.Chemscore.DEInternal.Weighted>
1.9114

> <Gold.Chemscore.Rot.Weighted>
4.0075

> <Gold.Chemscore.Internal.Correction.Weighted>
   9.000000E+99

> <Gold.Protein.RotatedTorsions>
[ 6907 6896 6895 6894 ] final  -34.05 input  -60.11 | X-H torsion
[ 7974 7965 7964 7962 ] final   49.82 input  175.53 | X-H torsion
[ 8008 7997 7996 7995 ] final    0.58 input   59.86 | X-H torsion
[ 10167 10162 10161 10158 ] final  -90.41 input  -65.29 | X-H torsion
[ 10718 10713 10712 10709 ] final   99.75 input   66.30 | X-H torsion
[ 10763 10752 10751 10750 ] final  107.68 input  -60.55 | X-H torsion
[ 11005 11000 10999 10996 ] final  145.67 input  -57.11 | X-H torsion

> <Gold.Protein.ActiveResidues>
 VAL166  LYS551  ARG553  GLY616  TRP617  ASP618  TYR619  PRO620  LYS621  CYS622 
 ASP623  PHE694  ASN695  SER759  ASP760  ASP761  ALA762  ILE779  LEU786  VAL792 
 PHE793  MET794  SER795  GLU796  ALA797  LYS798  CYS799  TRP800  GLU811  SER814 

> <Gold.Protein.RotatedAtoms>
  151.0576  134.9715  159.8243 H   0  0  0  0  0  0  0  0  0  0  0  0  # atno 6907 bound_to 6896
  152.5390  134.2458  159.8889 H   0  0  0  0  0  0  0  0  0  0  0  0  # atno 6908 bound_to 6896
  151.2476  133.4324  159.2644 H   0  0  0  0  0  0  0  0  0  0  0  0  # atno 6909 bound_to 6896
  146.0071  139.4503  142.9979 H   0  0  0  0  0  0  0  0  0  0  0  0  # atno 7974 bound_to 7965
  154.6698  140.2609  155.7019 H   0  0  0  0  0  0  0  0  0  0  0  0  # atno 8008 bound_to 7997
  156.2654  140.2831  156.1124 H   0  0  0  0  0  0  0  0  0  0  0  0  # atno 8009 bound_to 7997
  155.1185  140.0376  157.2734 H   0  0  0  0  0  0  0  0  0  0  0  0  # atno 8010 bound_to 7997
  140.3552  143.2870  151.9680 H   0  0  0  0  0  0  0  0  0  0  0  0  # atno 10167 bound_to 10162
  157.6869  131.0678  150.4995 H   0  0  0  0  0  0  0  0  0  0  0  0  # atno 10718 bound_to 10713
  153.4102  135.3836  155.2045 H   0  0  0  0  0  0  0  0  0  0  0  0  # atno 10763 bound_to 10752
  154.8737  135.3792  154.4511 H   0  0  0  0  0  0  0  0  0  0  0  0  # atno 10764 bound_to 10752
  153.5018  135.7088  153.5890 H   0  0  0  0  0  0  0  0  0  0  0  0  # atno 10765 bound_to 10752
  140.0731  134.9140  157.1378 H   0  0  0  0  0  0  0  0  0  0  0  0  # atno 11005 bound_to 11000
  145.7398  141.0012  143.1307 LP  0  0  0  0  0  0  0  0  0  0  0  0  # atno 17320 bound_to 7965
  144.6940  139.9085  143.7462 LP  0  0  0  0  0  0  0  0  0  0  0  0  # atno 17321 bound_to 7965
  139.4821  144.6041  151.7552 LP  0  0  0  0  0  0  0  0  0  0  0  0  # atno 17342 bound_to 10162
  140.5181  144.0922  150.6014 LP  0  0  0  0  0  0  0  0  0  0  0  0  # atno 17343 bound_to 10162
  156.5318  130.4186  149.6198 LP  0  0  0  0  0  0  0  0  0  0  0  0  # atno 17370 bound_to 10713
  156.3063  130.7204  151.2087 LP  0  0  0  0  0  0  0  0  0  0  0  0  # atno 17371 bound_to 10713
  140.3597  134.2507  155.7188 LP  0  0  0  0  0  0  0  0  0  0  0  0  # atno 17394 bound_to 11000
  141.2019  133.7950  157.0416 LP  0  0  0  0  0  0  0  0  0  0  0  0  # atno 17395 bound_to 11000

$$$$
