AV-unprocessed.smi:157|AV-procd|sdf|1310|dock9
  -GOLD-   2262019 03D 1   1.00000     0.00000
 Structure written by MMmdl.
 36 38  0  0  0  0  0  0  0  0  2 V2000
  149.5014  139.5787  154.2338 O   0  0  0  0  0  0  0  0  0  0  0  0
  149.0213  138.3030  154.6025 C   0  0  0  0  0  0  0  0  0  0  0  0
  149.9163  137.6736  155.6901 C   0  0  2  0  0  0  0  0  0  0  0  0
  149.8864  138.5530  156.8169 O   0  0  0  0  0  0  0  0  0  0  0  0
  151.1498  139.1014  157.0456 C   0  0  2  0  0  0  0  0  0  0  0  0
  150.9963  140.5637  157.3064 N   0  0  0  0  0  0  0  0  0  0  0  0
  150.3287  141.4471  156.5348 C   0  0  0  0  0  0  0  0  0  0  0  0
  150.3495  142.6895  156.9866 N   0  3  0  0  0  0  0  0  0  0  0  0
  151.0851  142.6690  158.1526 C   0  0  0  0  0  0  0  0  0  0  0  0
  151.4889  141.3428  158.3276 C   0  0  0  0  0  0  0  0  0  0  0  0
  152.2715  140.7671  159.3402 N   0  0  0  0  0  0  0  0  0  0  0  0
  152.9883  141.4650  160.1601 C   0  0  0  0  0  0  0  0  0  0  0  0
  153.0786  142.8409  160.2906 N   0  0  0  0  0  0  0  0  0  0  0  0
  151.9201  143.7160  160.3135 C   0  0  0  0  0  0  0  0  0  0  0  0
  151.2829  143.9296  158.9343 C   0  0  1  0  0  0  0  0  0  0  0  0
  152.0410  144.8913  158.2299 O   0  0  0  0  0  0  0  0  0  0  0  0
  151.9702  138.8691  155.7830 C   0  0  0  0  0  0  0  0  0  0  0  0
  151.4102  137.5369  155.3385 C   0  0  2  0  0  0  0  0  0  0  0  0
  151.6815  137.2918  153.9734 O   0  0  0  0  0  0  0  0  0  0  0  0
  149.5027  136.7101  155.9907 H   0  0  0  0  0  0  0  0  0  0  0  0
  151.5934  138.6733  157.9453 H   0  0  0  0  0  0  0  0  0  0  0  0
  150.3012  144.3784  159.0909 H   0  0  0  0  0  0  0  0  0  0  0  0
  151.8532  136.7399  155.9376 H   0  0  0  0  0  0  0  0  0  0  0  0
  149.0796  139.8388  153.4291 H   0  0  0  0  0  0  0  0  0  0  0  0
  147.9824  138.3713  154.9261 H   0  0  0  0  0  0  0  0  0  0  0  0
  149.0352  137.6810  153.7070 H   0  0  0  0  0  0  0  0  0  0  0  0
  149.8230  141.1594  155.6306 H   0  0  0  0  0  0  0  0  0  0  0  0
  153.6258  140.9449  160.8765 H   0  0  0  0  0  0  0  0  0  0  0  0
  153.8429  143.2268  160.8267 H   0  0  0  0  0  0  0  0  0  0  0  0
  151.1824  143.2639  160.9782 H   0  0  0  0  0  0  0  0  0  0  0  0
  152.1908  144.6703  160.7667 H   0  0  0  0  0  0  0  0  0  0  0  0
  151.4688  145.3579  157.6405 H   0  0  0  0  0  0  0  0  0  0  0  0
  151.7583  139.6508  155.0512 H   0  0  0  0  0  0  0  0  0  0  0  0
  153.0389  138.8552  155.9995 H   0  0  0  0  0  0  0  0  0  0  0  0
  150.9192  136.8916  153.5828 H   0  0  0  0  0  0  0  0  0  0  0  0
  149.9054  143.4923  156.5594 H   0  0  0  0  0  0  0  0  0  0  0  0
  1  2  1  0  0  0  0
  1 24  1  0  0  0  0
  2  3  1  0  0  0  0
  2 25  1  0  0  0  0
  2 26  1  0  0  0  0
  3 20  1  0  0  0  0
  3 18  1  0  0  0  0
  3  4  1  0  0  0  0
  4  5  1  0  0  0  0
  5 21  1  0  0  0  0
  5  6  1  0  0  0  0
  5 17  1  0  0  0  0
  6 10  1  0  0  0  0
  6  7  1  0  0  0  0
  7  8  2  0  0  0  0
  7 27  1  0  0  0  0
  8  9  1  0  0  0  0
  8 36  1  0  0  0  0
  9 15  1  0  0  0  0
  9 10  2  0  0  0  0
 10 11  1  0  0  0  0
 11 12  2  0  0  0  0
 12 13  1  0  0  0  0
 12 28  1  0  0  0  0
 13 14  1  0  0  0  0
 13 29  1  0  0  0  0
 14 15  1  0  0  0  0
 14 30  1  0  0  0  0
 14 31  1  0  0  0  0
 15 22  1  0  0  0  0
 15 16  1  0  0  0  0
 16 32  1  0  0  0  0
 17 18  1  0  0  0  0
 17 33  1  0  0  0  0
 17 34  1  0  0  0  0
 18 23  1  0  0  0  0
 18 19  1  0  0  0  0
 19 35  1  0  0  0  0
M  CHG  1   8   1
M  END
> <s_m_source_file>
AV-unprocessed.smi

> <i_m_source_file_index>
157

> <i_lp_mmshare_version>
43012

> <i_f3d_flags>
0

> <s_epik_input>
W09IXVtDSDJdW0NASF0xT1tDQEhdKFtDSDJdW0NAQEhdMVtPSF0pbihbY0hdbjIpYyhjMjMpTj1bQ0hdW05IXVtDSDJdW0NASF0zW09IXQ==

> <s_epik_cmdline>
J2VwaWtfcHl0aG9uJywgJy1waCcsICc3LjAnLCAnLXRuJywgJzgnLCAnLW1hJywgJzIwMCcsICctbWV0YWxfYmluZGluZycsICctaW1hZScsICc8aW5maWxlLm1hZT4nLCAnLW9tYWUnLCAnPG91dGZpbGUubWFlPic=

> <r_epik_Ionization_Penalty>
1.68594

> <r_epik_Ionization_Penalty_Charging>
0

> <r_epik_Ionization_Penalty_Neutral>
1.68594

> <r_epik_State_Penalty>
1.79006

> <r_epik_Charging_Adjusted_Penalty>
1.79006

> <i_epik_Tot_Q>
1

> <i_epik_Tot_abs_Q>
1

> <r_epik_Metal_State_Penalty>
5.85324

> <b_epik_Metal_Only>
0

> <s_epik_Chemistry_Notes>
This compound has an imine and may undergo hydrolysis. This compound contains an acetal/aminal-like group ( X-CH(R)-Y where X, Y are N, S, or O) that may be acid/base labile, releasing an aldehyde.

> <s_lp_Force_Field>
OPLS_2005

> <r_lp_Energy>
54.8473

> <b_lp_Chiralities_Consistent>
1

> <s_lp_Variant>
AV-unprocessed.smi:157-20

> <Gold.Version>
5.8.1

> <Gold.Id.Protein>
6NUR|6NUR_protein|mol2

> <Gold.PLP.Fitness>
50.9392

> <Gold.PLP.PLP>
-36.3788

> <Gold.PLP.part.hbond>
-5.0000

> <Gold.PLP.part.metal>
0.0000

> <Gold.PLP.part.buried>
-5.8473

> <Gold.PLP.part.nonpolar>
-26.9927

> <Gold.PLP.part.repulsive>
0.0830

> <Gold.PLP.ligand.clash>
0.0096

> <Gold.PLP.ligand.torsion>
0.1157

> <Gold.PLP.Chemscore.Hbond>
4.9291

> <Gold.PLP.Chemscore.CHOScore>
0.0000

> <Gold.PLP.Chemscore.Metal>
0.0000

> <Gold.Chemscore.Hbonds>
donor molecule, donor type, donor heavy atom, donor atom, acceptor molecule, acceptor atom, score
      L1  H     1    24       P1  7957  0.17
      L1  H     8    36       P1  8028  2.00
      L1  H    19    35       P1  7949  0.11
      P1  H 10752 10763       L1    19  0.83

> <Gold.PLP.Chemscore.Internal.Correction>
0.0141

> <Gold.Rescore>
     Score         DG    S(hbond)    S(metal)    S(lipo)     H(rot)  DE(clash)    DE(int)     intcor
     10.57     -11.75       2.67        0.00      57.50       3.67       0.03       1.15       ----

> <Gold.Chemscore.Fitness>
10.5727

> <Gold.Chemscore.DG>
-11.7548

> <Gold.Chemscore.ZeroCoef>
-5.4800

> <Gold.Chemscore.Hbond>
2.6743

> <Gold.Chemscore.Metal>
0.0000

> <Gold.Chemscore.Lipo>
57.4990

> <Gold.Chemscore.Internal_Hbond>
0.0000

> <Gold.Chemscore.DEClash>
0.0327

> <Gold.Chemscore.DEInternal>
1.1494

> <Gold.Chemscore.Rot>
3.6659

> <Gold.Chemscore.Internal.Correction>
   9.000000E+99

> <Gold.Chemscore.Hbonds>
donor molecule, donor type, donor heavy atom, donor atom, acceptor molecule, acceptor atom, score
      L1  H     1    24       P1  7957  0.17
      L1  H     8    36       P1  8028  1.00
      L1  H    19    35       P1  7949  0.03
      P1  H 10752 10763       L1    19  0.15

> <Gold.Chemscore.Hbond.Weighted>
-8.9322

> <Gold.Chemscore.Metal.Weighted>
-0.0000

> <Gold.Chemscore.Lipo.Weighted>
-6.7274

> <Gold.Chemscore.Internal_Hbond.Weighted>
0.0000

> <Gold.Chemscore.DEClash.Weighted>
0.0327

> <Gold.Chemscore.DEInternal.Weighted>
1.1494

> <Gold.Chemscore.Rot.Weighted>
9.3848

> <Gold.Chemscore.Internal.Correction.Weighted>
   9.000000E+99

> <Gold.Protein.RotatedTorsions>
[ 6907 6896 6895 6894 ] final  -54.00 input  -60.11 | X-H torsion
[ 7974 7965 7964 7962 ] final  164.18 input  175.53 | X-H torsion
[ 8008 7997 7996 7995 ] final -116.29 input   59.86 | X-H torsion
[ 10167 10162 10161 10158 ] final -156.38 input  -65.29 | X-H torsion
[ 10718 10713 10712 10709 ] final -152.46 input   66.30 | X-H torsion
[ 10763 10752 10751 10750 ] final   19.25 input  -60.55 | X-H torsion
[ 11005 11000 10999 10996 ] final   83.45 input  -57.11 | X-H torsion

> <Gold.Protein.ActiveResidues>
 VAL166  LYS551  ARG553  GLY616  TRP617  ASP618  TYR619  PRO620  LYS621  CYS622 
 ASP623  PHE694  ASN695  SER759  ASP760  ASP761  ALA762  ILE779  LEU786  VAL792 
 PHE793  MET794  SER795  GLU796  ALA797  LYS798  CYS799  TRP800  GLU811  SER814 

> <Gold.Protein.RotatedAtoms>
  150.8377  134.7656  159.6905 H   0  0  0  0  0  0  0  0  0  0  0  0  # atno 6907 bound_to 6896
  152.4470  134.5470  159.9865 H   0  0  0  0  0  0  0  0  0  0  0  0  # atno 6908 bound_to 6896
  151.5617  133.3364  159.3008 H   0  0  0  0  0  0  0  0  0  0  0  0  # atno 6909 bound_to 6896
  144.7556  139.8289  143.6351 H   0  0  0  0  0  0  0  0  0  0  0  0  # atno 7974 bound_to 7965
  155.0655  140.0393  157.2591 H   0  0  0  0  0  0  0  0  0  0  0  0  # atno 8008 bound_to 7997
  154.7024  140.2676  155.6682 H   0  0  0  0  0  0  0  0  0  0  0  0  # atno 8009 bound_to 7997
  156.2764  140.2738  156.1639 H   0  0  0  0  0  0  0  0  0  0  0  0  # atno 8010 bound_to 7997
  139.6855  143.9509  152.2359 H   0  0  0  0  0  0  0  0  0  0  0  0  # atno 10167 bound_to 10162
  156.4727  130.8266  151.2495 H   0  0  0  0  0  0  0  0  0  0  0  0  # atno 10718 bound_to 10713
  153.1178  135.6712  153.9388 H   0  0  0  0  0  0  0  0  0  0  0  0  # atno 10763 bound_to 10752
  153.8912  135.3047  155.3448 H   0  0  0  0  0  0  0  0  0  0  0  0  # atno 10764 bound_to 10752
  154.7593  135.4996  153.9512 H   0  0  0  0  0  0  0  0  0  0  0  0  # atno 10765 bound_to 10752
  139.9030  134.8146  156.2311 H   0  0  0  0  0  0  0  0  0  0  0  0  # atno 11005 bound_to 11000
  146.1562  139.4661  143.0017 LP  0  0  0  0  0  0  0  0  0  0  0  0  # atno 17320 bound_to 7965
  145.6790  141.0196  143.1616 LP  0  0  0  0  0  0  0  0  0  0  0  0  # atno 17321 bound_to 7965
  139.9311  144.6741  150.8362 LP  0  0  0  0  0  0  0  0  0  0  0  0  # atno 17342 bound_to 10162
  140.7666  143.3308  151.2414 LP  0  0  0  0  0  0  0  0  0  0  0  0  # atno 17343 bound_to 10162
  157.7490  131.0071  150.3176 LP  0  0  0  0  0  0  0  0  0  0  0  0  # atno 17370 bound_to 10713
  156.3601  130.3845  149.7258 LP  0  0  0  0  0  0  0  0  0  0  0  0  # atno 17371 bound_to 10713
  141.0345  133.6971  156.1487 LP  0  0  0  0  0  0  0  0  0  0  0  0  # atno 17394 bound_to 11000
  140.7048  134.4525  157.5584 LP  0  0  0  0  0  0  0  0  0  0  0  0  # atno 17395 bound_to 11000

$$$$
