AV-unprocessed.smi:535|AV-procd|sdf|2858|dock7
  -GOLD-   2262023353D 1   1.00000     0.00000
 Structure written by MMmdl.
 46 48  0  0  0  0  0  0  0  0  1 V2000
  152.8365  138.4464  154.8164 C   0  0  0  0  0  0  0  0  0  0  0  0
  151.9380  139.5414  154.8430 O   0  0  0  0  0  0  0  0  0  0  0  0
  152.1554  140.3926  155.9549 C   0  0  0  0  0  0  0  0  0  0  0  0
  151.5073  139.7648  157.1939 C   0  0  0  0  0  0  0  0  0  0  0  0
  151.5737  140.6626  158.3434 N   0  0  0  0  0  0  0  0  0  0  0  0
  150.7587  141.7088  158.6551 C   0  0  0  0  0  0  0  0  0  0  0  0
  149.6657  142.0704  157.8648 N   0  0  0  0  0  0  0  0  0  0  0  0
  148.4541  142.7569  158.3127 C   0  0  0  0  0  0  0  0  0  0  0  0
  147.1859  142.0111  157.8633 C   0  0  0  0  0  0  0  0  0  0  0  0
  147.1645  141.8663  156.3356 C   0  0  0  0  0  0  0  0  0  0  0  0
  148.4832  141.2479  155.8386 C   0  0  1  0  0  0  0  0  0  0  0  0
  148.5308  141.1758  154.3065 C   0  0  0  0  0  0  0  0  0  0  0  0
  149.6835  142.0357  156.4031 C   0  0  0  0  0  0  0  0  0  0  0  0
  151.1248  142.3924  159.7430 N   0  0  0  0  0  0  0  0  0  0  0  0
  152.2555  141.7177  160.1745 C   0  0  0  0  0  0  0  0  0  0  0  0
  152.5518  140.6888  159.3403 C   0  0  0  0  0  0  0  0  0  0  0  0
  153.7381  139.8415  159.5304 C   0  0  0  0  0  0  0  0  0  0  0  0
  154.0450  138.9210  158.7763 O   0  0  0  0  0  0  0  0  0  0  0  0
  154.4702  140.1867  160.6174 N   0  0  0  0  0  0  0  0  0  0  0  0
  154.2226  141.2026  161.4989 C   0  0  0  0  0  0  0  0  0  0  0  0
  154.9909  141.4011  162.4400 O   0  0  0  0  0  0  0  0  0  0  0  0
  153.1077  141.9724  161.2864 N   0  0  0  0  0  0  0  0  0  0  0  0
  152.7932  143.0784  162.1931 C   0  0  0  0  0  0  0  0  0  0  0  0
  155.2977  139.6355  160.7924 H   0  0  0  0  0  0  0  0  0  0  0  0
  152.6294  137.8233  153.9464 H   0  0  0  0  0  0  0  0  0  0  0  0
  152.7294  137.8267  155.7076 H   0  0  0  0  0  0  0  0  0  0  0  0
  153.8709  138.7866  154.7484 H   0  0  0  0  0  0  0  0  0  0  0  0
  153.2250  140.5323  156.1196 H   0  0  0  0  0  0  0  0  0  0  0  0
  151.7199  141.3741  155.7607 H   0  0  0  0  0  0  0  0  0  0  0  0
  150.4753  139.5031  156.9839 H   0  0  0  0  0  0  0  0  0  0  0  0
  151.9856  138.8179  157.4367 H   0  0  0  0  0  0  0  0  0  0  0  0
  148.4664  142.8892  159.3938 H   0  0  0  0  0  0  0  0  0  0  0  0
  148.4517  143.7657  157.8975 H   0  0  0  0  0  0  0  0  0  0  0  0
  147.1477  141.0243  158.3255 H   0  0  0  0  0  0  0  0  0  0  0  0
  146.2977  142.5461  158.2002 H   0  0  0  0  0  0  0  0  0  0  0  0
  146.3157  141.2542  156.0289 H   0  0  0  0  0  0  0  0  0  0  0  0
  147.0233  142.8479  155.8812 H   0  0  0  0  0  0  0  0  0  0  0  0
  148.5422  140.2266  156.2182 H   0  0  0  0  0  0  0  0  0  0  0  0
  148.4907  142.1702  153.8609 H   0  0  0  0  0  0  0  0  0  0  0  0
  147.6917  140.6005  153.9145 H   0  0  0  0  0  0  0  0  0  0  0  0
  149.4480  140.6946  153.9656 H   0  0  0  0  0  0  0  0  0  0  0  0
  149.6883  143.0561  156.0171 H   0  0  0  0  0  0  0  0  0  0  0  0
  150.6118  141.5733  156.0652 H   0  0  0  0  0  0  0  0  0  0  0  0
  152.8514  142.7618  163.2357 H   0  0  0  0  0  0  0  0  0  0  0  0
  151.7882  143.4701  162.0365 H   0  0  0  0  0  0  0  0  0  0  0  0
  153.4965  143.8985  162.0451 H   0  0  0  0  0  0  0  0  0  0  0  0
  1  2  1  0  0  0  0
  1 25  1  0  0  0  0
  1 26  1  0  0  0  0
  1 27  1  0  0  0  0
  2  3  1  0  0  0  0
  3  4  1  0  0  0  0
  3 28  1  0  0  0  0
  3 29  1  0  0  0  0
  4  5  1  0  0  0  0
  4 30  1  0  0  0  0
  4 31  1  0  0  0  0
  5 16  1  0  0  0  0
  5  6  1  0  0  0  0
  6  7  1  0  0  0  0
  6 14  2  0  0  0  0
  7 13  1  0  0  0  0
  7  8  1  0  0  0  0
  8  9  1  0  0  0  0
  8 32  1  0  0  0  0
  8 33  1  0  0  0  0
  9 10  1  0  0  0  0
  9 34  1  0  0  0  0
  9 35  1  0  0  0  0
 10 11  1  0  0  0  0
 10 36  1  0  0  0  0
 10 37  1  0  0  0  0
 11 12  1  0  0  0  0
 11 13  1  0  0  0  0
 11 38  1  0  0  0  0
 12 39  1  0  0  0  0
 12 40  1  0  0  0  0
 12 41  1  0  0  0  0
 13 42  1  0  0  0  0
 13 43  1  0  0  0  0
 14 15  1  0  0  0  0
 15 22  1  0  0  0  0
 15 16  2  0  0  0  0
 16 17  1  0  0  0  0
 17 18  2  0  0  0  0
 17 19  1  0  0  0  0
 19 24  1  0  0  0  0
 19 20  1  0  0  0  0
 20 21  2  0  0  0  0
 20 22  1  0  0  0  0
 22 23  1  0  0  0  0
 23 44  1  0  0  0  0
 23 45  1  0  0  0  0
 23 46  1  0  0  0  0
M  END
> <s_m_source_file>
AV-unprocessed.smi

> <i_m_source_file_index>
535

> <i_lp_mmshare_version>
43012

> <i_f3d_flags>
0

> <s_epik_input>
W0NIM11uMWMoPU8pW25IXWMoPU8pYyhjMTIpbihbQ0gyXVtDSDJdT1tDSDNdKWMobjIpTjNbQ0gyXVtDSDJdW0NIMl1bQ0BASF0oW0NIM10pW0NIMl0z

> <s_epik_cmdline>
J2VwaWtfcHl0aG9uJywgJy1waCcsICc3LjAnLCAnLXRuJywgJzgnLCAnLW1hJywgJzIwMCcsICctbWV0YWxfYmluZGluZycsICctaW1hZScsICc8aW5maWxlLm1hZT4nLCAnLW9tYWUnLCAnPG91dGZpbGUubWFlPic=

> <r_lp_tautomer_probability>
1

> <r_epik_Ionization_Penalty>
0.00042181

> <r_epik_Ionization_Penalty_Charging>
0.000122112

> <r_epik_Ionization_Penalty_Neutral>
0.000299698

> <r_epik_State_Penalty>
-0

> <r_epik_Charging_Adjusted_Penalty>
0.000122112

> <i_epik_Tot_Q>
0

> <i_epik_Tot_abs_Q>
0

> <r_epik_Metal_State_Penalty>
0.0934894

> <b_epik_Metal_Only>
0

> <s_lp_Force_Field>
OPLS_2005

> <r_lp_Energy>
38.8925

> <b_lp_Chiralities_Consistent>
1

> <s_lp_Variant>
AV-unprocessed.smi:535-1

> <Gold.Version>
5.8.1

> <Gold.Id.Protein>
6NUR|6NUR_protein|mol2

> <Gold.PLP.Fitness>
45.9162

> <Gold.PLP.PLP>
-41.2777

> <Gold.PLP.part.hbond>
-3.9217

> <Gold.PLP.part.metal>
0.0000

> <Gold.PLP.part.buried>
-2.0715

> <Gold.PLP.part.nonpolar>
-33.9316

> <Gold.PLP.part.repulsive>
0.1058

> <Gold.PLP.ligand.clash>
0.0000

> <Gold.PLP.ligand.torsion>
0.9138

> <Gold.PLP.Chemscore.Hbond>
2.0000

> <Gold.PLP.Chemscore.CHOScore>
0.0000

> <Gold.PLP.Chemscore.Metal>
0.0000

> <Gold.Chemscore.Hbonds>
donor molecule, donor type, donor heavy atom, donor atom, acceptor molecule, acceptor atom, score
      P1  H  7989  7998       L1     2  0.91
      P1  H  7997  8010       L1    18  0.78

> <Gold.PLP.Chemscore.Internal.Correction>
0.4661

> <Gold.Rescore>
     Score         DG    S(hbond)    S(metal)    S(lipo)     H(rot)  DE(clash)    DE(int)     intcor
      8.41     -14.33       1.53        0.00      63.79       1.46       3.95       1.97       ----

> <Gold.Chemscore.Fitness>
8.4075

> <Gold.Chemscore.DG>
-14.3282

> <Gold.Chemscore.ZeroCoef>
-5.4800

> <Gold.Chemscore.Hbond>
1.5303

> <Gold.Chemscore.Metal>
0.0000

> <Gold.Chemscore.Lipo>
63.7922

> <Gold.Chemscore.Internal_Hbond>
0.0000

> <Gold.Chemscore.DEClash>
3.9495

> <Gold.Chemscore.DEInternal>
1.9711

> <Gold.Chemscore.Rot>
1.4557

> <Gold.Chemscore.Internal.Correction>
   9.000000E+99

> <Gold.Chemscore.Hbonds>
donor molecule, donor type, donor heavy atom, donor atom, acceptor molecule, acceptor atom, score
      P1  H  7989  7998       L1     2  0.20
      P1  H  7997  8010       L1    18  0.20

> <Gold.Chemscore.Hbond.Weighted>
-5.1112

> <Gold.Chemscore.Metal.Weighted>
-0.0000

> <Gold.Chemscore.Lipo.Weighted>
-7.4637

> <Gold.Chemscore.Internal_Hbond.Weighted>
0.0000

> <Gold.Chemscore.DEClash.Weighted>
3.9495

> <Gold.Chemscore.DEInternal.Weighted>
1.9711

> <Gold.Chemscore.Rot.Weighted>
3.7267

> <Gold.Chemscore.Internal.Correction.Weighted>
   9.000000E+99

> <Gold.Protein.RotatedTorsions>
[ 6907 6896 6895 6894 ] final   12.32 input  -60.11 | X-H torsion
[ 7974 7965 7964 7962 ] final -120.37 input  175.53 | X-H torsion
[ 8008 7997 7996 7995 ] final   32.06 input   59.86 | X-H torsion
[ 10167 10162 10161 10158 ] final  -87.20 input  -65.29 | X-H torsion
[ 10718 10713 10712 10709 ] final    2.53 input   66.30 | X-H torsion
[ 10763 10752 10751 10750 ] final -136.42 input  -60.55 | X-H torsion
[ 11005 11000 10999 10996 ] final -166.50 input  -57.11 | X-H torsion

> <Gold.Protein.ActiveResidues>
 VAL166  LYS551  ARG553  GLY616  TRP617  ASP618  TYR619  PRO620  LYS621  CYS622 
 ASP623  PHE694  ASN695  SER759  ASP760  ASP761  ALA762  ILE779  LEU786  VAL792 
 PHE793  MET794  SER795  GLU796  ALA797  LYS798  CYS799  TRP800  GLU811  SER814 

> <Gold.Protein.RotatedAtoms>
  151.7684  135.0792  160.0355 H   0  0  0  0  0  0  0  0  0  0  0  0  # atno 6907 bound_to 6896
  152.3305  133.5949  159.5815 H   0  0  0  0  0  0  0  0  0  0  0  0  # atno 6908 bound_to 6896
  150.7420  133.9791  159.3612 H   0  0  0  0  0  0  0  0  0  0  0  0  # atno 6909 bound_to 6896
  145.0521  140.8226  143.4203 H   0  0  0  0  0  0  0  0  0  0  0  0  # atno 7974 bound_to 7965
  155.1164  140.3244  155.4508 H   0  0  0  0  0  0  0  0  0  0  0  0  # atno 8008 bound_to 7997
  156.2676  140.2035  156.6235 H   0  0  0  0  0  0  0  0  0  0  0  0  # atno 8009 bound_to 7997
  154.6717  140.0536  157.0159 H   0  0  0  0  0  0  0  0  0  0  0  0  # atno 8010 bound_to 7997
  140.3867  143.2723  151.9316 H   0  0  0  0  0  0  0  0  0  0  0  0  # atno 10167 bound_to 10162
  156.8643  130.5597  149.5661 H   0  0  0  0  0  0  0  0  0  0  0  0  # atno 10718 bound_to 10713
  154.8684  135.3673  154.5058 H   0  0  0  0  0  0  0  0  0  0  0  0  # atno 10763 bound_to 10752
  153.5696  135.7021  153.5515 H   0  0  0  0  0  0  0  0  0  0  0  0  # atno 10764 bound_to 10752
  153.3554  135.4061  155.1641 H   0  0  0  0  0  0  0  0  0  0  0  0  # atno 10765 bound_to 10752
  140.5638  134.5307  157.5148 H   0  0  0  0  0  0  0  0  0  0  0  0  # atno 11005 bound_to 11000
  145.1514  139.2512  143.5439 LP  0  0  0  0  0  0  0  0  0  0  0  0  # atno 17320 bound_to 7965
  146.3518  140.1218  142.8600 LP  0  0  0  0  0  0  0  0  0  0  0  0  # atno 17321 bound_to 7965
  139.4791  144.5767  151.8000 LP  0  0  0  0  0  0  0  0  0  0  0  0  # atno 17342 bound_to 10162
  140.4882  144.1350  150.5945 LP  0  0  0  0  0  0  0  0  0  0  0  0  # atno 17343 bound_to 10162
  156.0760  130.5782  150.9474 LP  0  0  0  0  0  0  0  0  0  0  0  0  # atno 17370 bound_to 10713
  157.6232  131.0928  150.8583 LP  0  0  0  0  0  0  0  0  0  0  0  0  # atno 17371 bound_to 10713
  139.9395  134.7813  156.0715 LP  0  0  0  0  0  0  0  0  0  0  0  0  # atno 17394 bound_to 11000
  141.1098  133.6647  156.2952 LP  0  0  0  0  0  0  0  0  0  0  0  0  # atno 17395 bound_to 11000

$$$$
