AV-unprocessed.smi:332|AV-procd|sdf|2358|dock8
  -GOLD-   2262022273D 1   1.00000     0.00000
 Structure written by MMmdl.
 42 44  0  0  0  0  0  0  0  0  1 V2000
  146.0815  143.1304  157.3637 C   0  0  0  0  0  0  0  0  0  0  0  0
  147.0068  141.9452  157.0351 C   0  0  2  0  0  0  0  0  0  0  0  0
  148.3918  142.4126  157.0429 N   0  0  0  0  0  0  0  0  0  0  0  0
  149.3899  141.8897  157.7713 C   0  0  0  0  0  0  0  0  0  0  0  0
  149.2357  140.9587  158.5628 O   0  0  0  0  0  0  0  0  0  0  0  0
  150.7685  142.5379  157.5847 C   0  0  0  0  0  0  0  0  0  0  0  0
  151.7617  142.0685  158.5647 N   0  0  0  0  0  0  0  0  0  0  0  0
  152.0348  140.6862  158.5918 C   0  0  0  0  0  0  0  0  0  0  0  0
  152.9232  140.1545  159.4463 C   0  0  0  0  0  0  0  0  0  0  0  0
  153.6093  141.0408  160.3566 C   0  0  0  0  0  0  0  0  0  0  0  0
  153.3580  142.3651  160.3370 C   0  0  0  0  0  0  0  0  0  0  0  0
  152.3885  142.9507  159.4036 C   0  0  0  0  0  0  0  0  0  0  0  0
  152.1535  144.1594  159.3776 O   0  0  0  0  0  0  0  0  0  0  0  0
  146.6909  141.2943  155.6654 C   0  0  1  0  0  0  0  0  0  0  0  0
  146.8541  142.2610  154.4642 C   0  0  0  0  0  0  0  0  0  0  0  0
  147.7993  141.4988  153.5193 C   0  0  2  0  0  0  0  0  0  0  0  0
  147.0667  140.2816  152.9265 C   0  0  0  0  0  0  0  0  0  0  0  0
  146.9789  139.3229  154.1286 C   0  0  0  0  0  0  0  0  0  0  0  0
  147.6370  140.1349  155.2610 C   0  0  1  0  0  0  0  0  0  0  0  0
  148.7562  140.8475  154.5080 C   0  0  0  0  0  0  0  0  0  0  0  0
  145.0409  142.8214  157.4516 H   0  0  0  0  0  0  0  0  0  0  0  0
  146.1366  143.9018  156.5948 H   0  0  0  0  0  0  0  0  0  0  0  0
  146.3565  143.5901  158.3137 H   0  0  0  0  0  0  0  0  0  0  0  0
  146.8806  141.1877  157.8107 H   0  0  0  0  0  0  0  0  0  0  0  0
  148.6125  143.1804  156.4255 H   0  0  0  0  0  0  0  0  0  0  0  0
  151.1290  142.3504  156.5711 H   0  0  0  0  0  0  0  0  0  0  0  0
  150.6449  143.6200  157.6483 H   0  0  0  0  0  0  0  0  0  0  0  0
  151.4853  140.0934  157.8749 H   0  0  0  0  0  0  0  0  0  0  0  0
  153.1217  139.0926  159.4500 H   0  0  0  0  0  0  0  0  0  0  0  0
  154.3289  140.6400  161.0557 H   0  0  0  0  0  0  0  0  0  0  0  0
  153.8815  143.0129  161.0249 H   0  0  0  0  0  0  0  0  0  0  0  0
  145.6630  140.9291  155.6980 H   0  0  0  0  0  0  0  0  0  0  0  0
  145.9003  142.5020  153.9934 H   0  0  0  0  0  0  0  0  0  0  0  0
  147.3186  143.2013  154.7643 H   0  0  0  0  0  0  0  0  0  0  0  0
  148.2725  142.1334  152.7696 H   0  0  0  0  0  0  0  0  0  0  0  0
  146.0852  140.5445  152.5302 H   0  0  0  0  0  0  0  0  0  0  0  0
  147.6459  139.8321  152.1189 H   0  0  0  0  0  0  0  0  0  0  0  0
  145.9529  139.0344  154.3599 H   0  0  0  0  0  0  0  0  0  0  0  0
  147.5429  138.4106  153.9300 H   0  0  0  0  0  0  0  0  0  0  0  0
  147.9729  139.5084  156.0862 H   0  0  0  0  0  0  0  0  0  0  0  0
  149.4650  140.1639  154.0371 H   0  0  0  0  0  0  0  0  0  0  0  0
  149.3058  141.5665  155.1176 H   0  0  0  0  0  0  0  0  0  0  0  0
  1  2  1  0  0  0  0
  1 21  1  0  0  0  0
  1 22  1  0  0  0  0
  1 23  1  0  0  0  0
  2  3  1  0  0  0  0
  2 14  1  0  0  0  0
  2 24  1  0  0  0  0
  3  4  1  0  0  0  0
  3 25  1  0  0  0  0
  4  5  2  0  0  0  0
  4  6  1  0  0  0  0
  6  7  1  0  0  0  0
  6 26  1  0  0  0  0
  6 27  1  0  0  0  0
  7 12  1  0  0  0  0
  7  8  1  0  0  0  0
  8  9  2  0  0  0  0
  8 28  1  0  0  0  0
  9 10  1  0  0  0  0
  9 29  1  0  0  0  0
 10 11  2  0  0  0  0
 10 30  1  0  0  0  0
 11 12  1  0  0  0  0
 11 31  1  0  0  0  0
 12 13  2  0  0  0  0
 14 19  1  0  0  0  0
 14 15  1  0  0  0  0
 14 32  1  0  0  0  0
 15 16  1  0  0  0  0
 15 33  1  0  0  0  0
 15 34  1  0  0  0  0
 16 20  1  0  0  0  0
 16 17  1  0  0  0  0
 16 35  1  0  0  0  0
 17 18  1  0  0  0  0
 17 36  1  0  0  0  0
 17 37  1  0  0  0  0
 18 19  1  0  0  0  0
 18 38  1  0  0  0  0
 18 39  1  0  0  0  0
 19 20  1  0  0  0  0
 19 40  1  0  0  0  0
 20 41  1  0  0  0  0
 20 42  1  0  0  0  0
M  END
> <s_m_source_file>
AV-unprocessed.smi

> <i_m_source_file_index>
332

> <i_lp_mmshare_version>
43012

> <i_f3d_flags>
0

> <s_epik_input>
W0NIMl0xW0NIMl1bQ0BIXShbQ0gyXTIpW0NAQEhdKFtDSDJdW0NAQEhdMTIpW0NASF0oW0NIM10pW05IXUMoPU8pW0NIMl1uM1tjSF1bY0hdW2NIXVtjSF1jMz1P

> <s_epik_cmdline>
J2VwaWtfcHl0aG9uJywgJy1waCcsICc3LjAnLCAnLXRuJywgJzgnLCAnLW1hJywgJzIwMCcsICctbWV0YWxfYmluZGluZycsICctaW1hZScsICc8aW5maWxlLm1hZT4nLCAnLW9tYWUnLCAnPG91dGZpbGUubWFlPic=

> <r_lp_tautomer_probability>
1

> <r_epik_Ionization_Penalty>
4.05802e-07

> <r_epik_Ionization_Penalty_Charging>
3.84175e-07

> <r_epik_Ionization_Penalty_Neutral>
2.16269e-08

> <r_epik_State_Penalty>
-0

> <r_epik_Charging_Adjusted_Penalty>
3.84175e-07

> <i_epik_Tot_Q>
0

> <i_epik_Tot_abs_Q>
0

> <r_epik_Metal_State_Penalty>
-0

> <b_epik_Metal_Only>
0

> <s_lp_Force_Field>
OPLS_2005

> <r_lp_Energy>
59.8508

> <b_lp_Chiralities_Consistent>
1

> <s_lp_Variant>
AV-unprocessed.smi:332-7

> <Gold.Version>
5.8.1

> <Gold.Id.Protein>
6NUR|6NUR_protein|mol2

> <Gold.PLP.Fitness>
39.7385

> <Gold.PLP.PLP>
-36.9924

> <Gold.PLP.part.hbond>
-2.3461

> <Gold.PLP.part.metal>
0.0000

> <Gold.PLP.part.buried>
-2.8236

> <Gold.PLP.part.nonpolar>
-31.4525

> <Gold.PLP.part.repulsive>
0.0407

> <Gold.PLP.ligand.clash>
0.0000

> <Gold.PLP.ligand.torsion>
0.1366

> <Gold.PLP.Chemscore.Hbond>
1.0000

> <Gold.PLP.Chemscore.CHOScore>
0.0000

> <Gold.PLP.Chemscore.Metal>
0.0000

> <Gold.Chemscore.Hbonds>
donor molecule, donor type, donor heavy atom, donor atom, acceptor molecule, acceptor atom, score
      L1  H     3    25       P1  8028  1.00

> <Gold.PLP.Chemscore.Internal.Correction>
0.0193

> <Gold.Rescore>
     Score         DG    S(hbond)    S(metal)    S(lipo)     H(rot)  DE(clash)    DE(int)     intcor
     11.97     -14.62       0.92        0.00      85.53       1.54       0.10       2.56       ----

> <Gold.Chemscore.Fitness>
11.9697

> <Gold.Chemscore.DG>
-14.6233

> <Gold.Chemscore.ZeroCoef>
-5.4800

> <Gold.Chemscore.Hbond>
0.9216

> <Gold.Chemscore.Metal>
0.0000

> <Gold.Chemscore.Lipo>
85.5311

> <Gold.Chemscore.Internal_Hbond>
0.0000

> <Gold.Chemscore.DEClash>
0.0956

> <Gold.Chemscore.DEInternal>
2.5579

> <Gold.Chemscore.Rot>
1.5398

> <Gold.Chemscore.Internal.Correction>
   9.000000E+99

> <Gold.Chemscore.Hbonds>
donor molecule, donor type, donor heavy atom, donor atom, acceptor molecule, acceptor atom, score
      L1  H     3    25       P1  8028  0.88

> <Gold.Chemscore.Hbond.Weighted>
-3.0780

> <Gold.Chemscore.Metal.Weighted>
-0.0000

> <Gold.Chemscore.Lipo.Weighted>
-10.0071

> <Gold.Chemscore.Internal_Hbond.Weighted>
0.0000

> <Gold.Chemscore.DEClash.Weighted>
0.0956

> <Gold.Chemscore.DEInternal.Weighted>
2.5579

> <Gold.Chemscore.Rot.Weighted>
3.9419

> <Gold.Chemscore.Internal.Correction.Weighted>
   9.000000E+99

> <Gold.Protein.RotatedTorsions>
[ 6907 6896 6895 6894 ] final   52.01 input  -60.11 | X-H torsion
[ 7974 7965 7964 7962 ] final   41.88 input  175.53 | X-H torsion
[ 8008 7997 7996 7995 ] final  -31.10 input   59.86 | X-H torsion
[ 10167 10162 10161 10158 ] final  121.19 input  -65.29 | X-H torsion
[ 10718 10713 10712 10709 ] final  -55.58 input   66.30 | X-H torsion
[ 10763 10752 10751 10750 ] final   23.33 input  -60.55 | X-H torsion
[ 11005 11000 10999 10996 ] final  -73.96 input  -57.11 | X-H torsion

> <Gold.Protein.ActiveResidues>
 VAL166  LYS551  ARG553  GLY616  TRP617  ASP618  TYR619  PRO620  LYS621  CYS622 
 ASP623  PHE694  ASN695  SER759  ASP760  ASP761  ALA762  ILE779  LEU786  VAL792 
 PHE793  MET794  SER795  GLU796  ALA797  LYS798  CYS799  TRP800  GLU811  SER814 

> <Gold.Protein.RotatedAtoms>
  152.3187  134.7407  160.0318 H   0  0  0  0  0  0  0  0  0  0  0  0  # atno 6907 bound_to 6896
  151.7863  133.3349  159.3494 H   0  0  0  0  0  0  0  0  0  0  0  0  # atno 6908 bound_to 6896
  150.7358  134.5815  159.5985 H   0  0  0  0  0  0  0  0  0  0  0  0  # atno 6909 bound_to 6896
  146.0787  139.5364  142.9551 H   0  0  0  0  0  0  0  0  0  0  0  0  # atno 7974 bound_to 7965
  154.4226  140.1773  156.1513 H   0  0  0  0  0  0  0  0  0  0  0  0  # atno 8008 bound_to 7997
  155.9913  140.3368  155.6731 H   0  0  0  0  0  0  0  0  0  0  0  0  # atno 8009 bound_to 7997
  155.6369  140.0676  157.2622 H   0  0  0  0  0  0  0  0  0  0  0  0  # atno 8010 bound_to 7997
  139.5935  144.7033  151.3233 H   0  0  0  0  0  0  0  0  0  0  0  0  # atno 10167 bound_to 10162
  156.1357  130.4157  150.0189 H   0  0  0  0  0  0  0  0  0  0  0  0  # atno 10718 bound_to 10713
  153.0846  135.6629  153.9975 H   0  0  0  0  0  0  0  0  0  0  0  0  # atno 10763 bound_to 10752
  153.9587  135.2976  155.3436 H   0  0  0  0  0  0  0  0  0  0  0  0  # atno 10764 bound_to 10752
  154.7252  135.5147  153.8947 H   0  0  0  0  0  0  0  0  0  0  0  0  # atno 10765 bound_to 10752
  141.1629  133.6895  156.7291 H   0  0  0  0  0  0  0  0  0  0  0  0  # atno 11005 bound_to 11000
  145.6259  141.0314  143.1890 LP  0  0  0  0  0  0  0  0  0  0  0  0  # atno 17320 bound_to 7965
  144.7278  139.7819  143.7358 LP  0  0  0  0  0  0  0  0  0  0  0  0  # atno 17321 bound_to 7965
  140.7192  143.7181  150.7717 LP  0  0  0  0  0  0  0  0  0  0  0  0  # atno 17342 bound_to 10162
  140.0742  143.5031  152.2564 LP  0  0  0  0  0  0  0  0  0  0  0  0  # atno 17343 bound_to 10162
  156.8089  130.9317  151.3644 LP  0  0  0  0  0  0  0  0  0  0  0  0  # atno 17370 bound_to 10713
  157.6530  130.8900  149.9672 LP  0  0  0  0  0  0  0  0  0  0  0  0  # atno 17371 bound_to 10713
  140.2758  134.8356  157.3889 LP  0  0  0  0  0  0  0  0  0  0  0  0  # atno 17394 bound_to 11000
  140.1479  134.4888  155.7983 LP  0  0  0  0  0  0  0  0  0  0  0  0  # atno 17395 bound_to 11000

$$$$
