AV-unprocessed.smi:3348|AV-procd|sdf|12925|dock10
  -GOLD-   2272019353D 1   1.00000     0.00000
 Structure written by MMmdl.
 46 47  0  0  0  0  0  0  0  0  1 V2000
  152.3019  144.4649  159.6268 C   0  0  0  0  0  0  0  0  0  0  0  0
  150.7789  144.2859  159.5591 C   0  0  2  0  0  0  0  0  0  0  0  0
  150.1285  144.8196  160.8589 C   0  0  0  0  0  0  0  0  0  0  0  0
  148.6954  144.6060  160.9427 N   0  0  0  0  0  0  0  0  0  0  0  0
  147.7420  145.4181  161.5212 C   0  0  0  0  0  0  0  0  0  0  0  0
  146.5327  144.8072  161.3534 C   0  0  0  0  0  0  0  0  0  0  0  0
  146.8521  143.6157  160.6440 C   0  0  0  0  0  0  0  0  0  0  0  0
  148.1469  143.4996  160.3961 N   0  0  0  0  0  0  0  0  0  0  0  0
  150.4773  142.8681  159.3384 N   0  0  0  0  0  0  0  0  0  0  0  0
  150.9611  142.3131  158.0739 C   0  0  0  0  0  0  0  0  0  0  0  0
  150.6726  140.8126  157.9905 C   0  0  0  0  0  0  0  0  0  0  0  0
  149.9680  140.5811  156.7800 O   0  0  0  0  0  0  0  0  0  0  0  0
  150.6508  140.9722  155.5947 C   0  0  1  0  0  0  0  0  0  0  0  0
  151.9407  140.1448  155.4056 C   0  0  0  0  0  0  0  0  0  0  0  0
  151.6312  138.6536  155.1961 C   0  0  0  0  0  0  0  0  0  0  0  0
  150.6739  138.4474  154.0127 C   0  0  0  0  0  0  0  0  0  0  0  0
  149.3860  139.2684  154.1861 C   0  0  0  0  0  0  0  0  0  0  0  0
  149.6919  140.7651  154.4001 C   0  0  1  0  0  0  0  0  0  0  0  0
  148.4062  141.5953  154.5397 C   0  0  0  0  0  0  0  0  0  0  0  0
  152.5684  145.5146  159.7550 H   0  0  0  0  0  0  0  0  0  0  0  0
  152.7806  144.1167  158.7109 H   0  0  0  0  0  0  0  0  0  0  0  0
  152.7322  143.9085  160.4604 H   0  0  0  0  0  0  0  0  0  0  0  0
  150.4251  144.8729  158.7101 H   0  0  0  0  0  0  0  0  0  0  0  0
  150.5983  144.3624  161.7311 H   0  0  0  0  0  0  0  0  0  0  0  0
  150.3038  145.8926  160.9474 H   0  0  0  0  0  0  0  0  0  0  0  0
  148.0022  146.3472  162.0061 H   0  0  0  0  0  0  0  0  0  0  0  0
  145.5676  145.1583  161.6870 H   0  0  0  0  0  0  0  0  0  0  0  0
  146.1862  142.8364  160.3042 H   0  0  0  0  0  0  0  0  0  0  0  0
  150.8441  142.3163  160.1072 H   0  0  0  0  0  0  0  0  0  0  0  0
  150.5209  142.8084  157.2122 H   0  0  0  0  0  0  0  0  0  0  0  0
  152.0365  142.4778  158.0018 H   0  0  0  0  0  0  0  0  0  0  0  0
  151.6150  140.2639  157.9706 H   0  0  0  0  0  0  0  0  0  0  0  0
  150.1132  140.4755  158.8633 H   0  0  0  0  0  0  0  0  0  0  0  0
  150.9044  142.0321  155.6538 H   0  0  0  0  0  0  0  0  0  0  0  0
  152.4818  140.5218  154.5368 H   0  0  0  0  0  0  0  0  0  0  0  0
  152.6155  140.2707  156.2516 H   0  0  0  0  0  0  0  0  0  0  0  0
  152.5561  138.1022  155.0260 H   0  0  0  0  0  0  0  0  0  0  0  0
  151.1879  138.2402  156.1031 H   0  0  0  0  0  0  0  0  0  0  0  0
  151.1706  138.7395  153.0867 H   0  0  0  0  0  0  0  0  0  0  0  0
  150.4301  137.3893  153.9120 H   0  0  0  0  0  0  0  0  0  0  0  0
  148.7522  139.1391  153.3081 H   0  0  0  0  0  0  0  0  0  0  0  0
  148.8184  138.8811  155.0329 H   0  0  0  0  0  0  0  0  0  0  0  0
  150.2041  141.1241  153.5060 H   0  0  0  0  0  0  0  0  0  0  0  0
  147.8185  141.2807  155.4025 H   0  0  0  0  0  0  0  0  0  0  0  0
  147.7759  141.4928  153.6561 H   0  0  0  0  0  0  0  0  0  0  0  0
  148.6343  142.6544  154.6610 H   0  0  0  0  0  0  0  0  0  0  0  0
  1  2  1  0  0  0  0
  1 20  1  0  0  0  0
  1 21  1  0  0  0  0
  1 22  1  0  0  0  0
  2  3  1  0  0  0  0
  2  9  1  0  0  0  0
  2 23  1  0  0  0  0
  3  4  1  0  0  0  0
  3 24  1  0  0  0  0
  3 25  1  0  0  0  0
  4  8  1  0  0  0  0
  4  5  1  0  0  0  0
  5  6  2  0  0  0  0
  5 26  1  0  0  0  0
  6  7  1  0  0  0  0
  6 27  1  0  0  0  0
  7  8  2  0  0  0  0
  7 28  1  0  0  0  0
  9 10  1  0  0  0  0
  9 29  1  0  0  0  0
 10 11  1  0  0  0  0
 10 30  1  0  0  0  0
 10 31  1  0  0  0  0
 11 12  1  0  0  0  0
 11 32  1  0  0  0  0
 11 33  1  0  0  0  0
 12 13  1  0  0  0  0
 13 18  1  0  0  0  0
 13 14  1  0  0  0  0
 13 34  1  0  0  0  0
 14 15  1  0  0  0  0
 14 35  1  0  0  0  0
 14 36  1  0  0  0  0
 15 16  1  0  0  0  0
 15 37  1  0  0  0  0
 15 38  1  0  0  0  0
 16 17  1  0  0  0  0
 16 39  1  0  0  0  0
 16 40  1  0  0  0  0
 17 18  1  0  0  0  0
 17 41  1  0  0  0  0
 17 42  1  0  0  0  0
 18 19  1  0  0  0  0
 18 43  1  0  0  0  0
 19 44  1  0  0  0  0
 19 45  1  0  0  0  0
 19 46  1  0  0  0  0
M  END
> <s_m_source_file>
AV-unprocessed.smi

> <i_m_source_file_index>
3348

> <i_lp_mmshare_version>
43012

> <i_f3d_flags>
0

> <s_epik_input>
bjFbY0hdW2NIXVtjSF1uMVtDSDJdW0NAQEhdKFtDSDNdKVtOSF1bQ0gyXVtDSDJdT1tDQEBIXTJbQ0gyXVtDSDJdW0NIMl1bQ0gyXVtDQEhdMltDSDNd

> <s_epik_cmdline>
J2VwaWtfcHl0aG9uJywgJy1waCcsICc3LjAnLCAnLXRuJywgJzgnLCAnLW1hJywgJzIwMCcsICctbWV0YWxfYmluZGluZycsICctaW1hZScsICc8aW5maWxlLm1hZT4nLCAnLW9tYWUnLCAnPG91dGZpbGUubWFlPic=

> <r_lp_tautomer_probability>
1

> <r_epik_Ionization_Penalty>
2.46945

> <r_epik_Ionization_Penalty_Charging>
0

> <r_epik_Ionization_Penalty_Neutral>
2.46945

> <r_epik_State_Penalty>
2.6322

> <r_epik_Charging_Adjusted_Penalty>
2.6322

> <i_epik_Tot_Q>
0

> <i_epik_Tot_abs_Q>
0

> <r_epik_Metal_State_Penalty>
2.63217

> <b_epik_Metal_Only>
0

> <s_lp_Force_Field>
OPLS_2005

> <r_lp_Energy>
18.1509

> <b_lp_Chiralities_Consistent>
1

> <s_lp_Variant>
AV-unprocessed.smi:3348-11

> <Gold.Version>
5.8.1

> <Gold.Id.Protein>
6NUR|6NUR_protein|mol2

> <Gold.PLP.Fitness>
45.6705

> <Gold.PLP.PLP>
-44.0149

> <Gold.PLP.part.hbond>
-1.4772

> <Gold.PLP.part.metal>
0.0000

> <Gold.PLP.part.buried>
-3.7775

> <Gold.PLP.part.nonpolar>
-38.4707

> <Gold.PLP.part.repulsive>
0.1194

> <Gold.PLP.ligand.clash>
0.0000

> <Gold.PLP.ligand.torsion>
0.7576

> <Gold.PLP.Chemscore.Hbond>
1.0000

> <Gold.PLP.Chemscore.CHOScore>
0.0000

> <Gold.PLP.Chemscore.Metal>
0.0000

> <Gold.Chemscore.Hbonds>
donor molecule, donor type, donor heavy atom, donor atom, acceptor molecule, acceptor atom, score
      P1  H  6933  6944       L1     8  1.00

> <Gold.PLP.Chemscore.Internal.Correction>
0.1708

> <Gold.Rescore>
     Score         DG    S(hbond)    S(metal)    S(lipo)     H(rot)  DE(clash)    DE(int)     intcor
     13.39     -14.20       0.00        0.00     112.27       1.72       0.08       0.73       ----

> <Gold.Chemscore.Fitness>
13.3895

> <Gold.Chemscore.DG>
-14.2027

> <Gold.Chemscore.ZeroCoef>
-5.4800

> <Gold.Chemscore.Hbond>
0.0000

> <Gold.Chemscore.Metal>
0.0000

> <Gold.Chemscore.Lipo>
112.2674

> <Gold.Chemscore.Internal_Hbond>
0.0000

> <Gold.Chemscore.DEClash>
0.0795

> <Gold.Chemscore.DEInternal>
0.7338

> <Gold.Chemscore.Rot>
1.7237

> <Gold.Chemscore.Internal.Correction>
   9.000000E+99

> <Gold.Chemscore.Hbonds>
donor molecule, donor type, donor heavy atom, donor atom, acceptor molecule, acceptor atom, score
      P1  H  6933  6944       L1     8  0.10

> <Gold.Chemscore.Hbond.Weighted>
-0.0000

> <Gold.Chemscore.Metal.Weighted>
-0.0000

> <Gold.Chemscore.Lipo.Weighted>
-13.1353

> <Gold.Chemscore.Internal_Hbond.Weighted>
0.0000

> <Gold.Chemscore.DEClash.Weighted>
0.0795

> <Gold.Chemscore.DEInternal.Weighted>
0.7338

> <Gold.Chemscore.Rot.Weighted>
4.4126

> <Gold.Chemscore.Internal.Correction.Weighted>
   9.000000E+99

> <Gold.Protein.RotatedTorsions>
[ 6907 6896 6895 6894 ] final -159.44 input  -60.11 | X-H torsion
[ 7974 7965 7964 7962 ] final   59.54 input  175.53 | X-H torsion
[ 8008 7997 7996 7995 ] final  124.86 input   59.86 | X-H torsion
[ 10167 10162 10161 10158 ] final   96.71 input  -65.29 | X-H torsion
[ 10718 10713 10712 10709 ] final -110.23 input   66.30 | X-H torsion
[ 10763 10752 10751 10750 ] final  -49.64 input  -60.55 | X-H torsion
[ 11005 11000 10999 10996 ] final -160.00 input  -57.11 | X-H torsion

> <Gold.Protein.ActiveResidues>
 VAL166  LYS551  ARG553  GLY616  TRP617  ASP618  TYR619  PRO620  LYS621  CYS622 
 ASP623  PHE694  ASN695  SER759  ASP760  ASP761  ALA762  ILE779  LEU786  VAL792 
 PHE793  MET794  SER795  GLU796  ALA797  LYS798  CYS799  TRP800  GLU811  SER814 

> <Gold.Protein.RotatedAtoms>
  151.3337  133.3990  159.2664 H   0  0  0  0  0  0  0  0  0  0  0  0  # atno 6907 bound_to 6896
  150.9935  134.9265  159.7923 H   0  0  0  0  0  0  0  0  0  0  0  0  # atno 6908 bound_to 6896
  152.5254  134.3302  159.9232 H   0  0  0  0  0  0  0  0  0  0  0  0  # atno 6909 bound_to 6896
  145.9060  139.3617  143.0564 H   0  0  0  0  0  0  0  0  0  0  0  0  # atno 7974 bound_to 7965
  156.2815  140.2730  156.1856 H   0  0  0  0  0  0  0  0  0  0  0  0  # atno 8008 bound_to 7997
  155.0511  140.0386  157.2562 H   0  0  0  0  0  0  0  0  0  0  0  0  # atno 8009 bound_to 7997
  154.7194  140.2685  155.6561 H   0  0  0  0  0  0  0  0  0  0  0  0  # atno 8010 bound_to 7997
  139.7869  144.6867  150.9945 H   0  0  0  0  0  0  0  0  0  0  0  0  # atno 10167 bound_to 10162
  156.0579  130.5804  150.8208 H   0  0  0  0  0  0  0  0  0  0  0  0  # atno 10718 bound_to 10713
  154.0973  135.6568  153.4862 H   0  0  0  0  0  0  0  0  0  0  0  0  # atno 10763 bound_to 10752
  153.0301  135.5217  154.7321 H   0  0  0  0  0  0  0  0  0  0  0  0  # atno 10764 bound_to 10752
  154.6463  135.2995  155.0011 H   0  0  0  0  0  0  0  0  0  0  0  0  # atno 10765 bound_to 10752
  140.6364  134.4598  157.5232 H   0  0  0  0  0  0  0  0  0  0  0  0  # atno 11005 bound_to 11000
  145.8732  140.9407  143.0640 LP  0  0  0  0  0  0  0  0  0  0  0  0  # atno 17320 bound_to 7965
  144.6739  140.0682  143.7474 LP  0  0  0  0  0  0  0  0  0  0  0  0  # atno 17321 bound_to 7965
  140.7820  143.4422  151.0534 LP  0  0  0  0  0  0  0  0  0  0  0  0  # atno 17342 bound_to 10162
  139.8101  143.7963  152.3170 LP  0  0  0  0  0  0  0  0  0  0  0  0  # atno 17343 bound_to 10162
  157.5565  131.0945  150.9621 LP  0  0  0  0  0  0  0  0  0  0  0  0  # atno 17370 bound_to 10713
  156.9869  130.5548  149.5300 LP  0  0  0  0  0  0  0  0  0  0  0  0  # atno 17371 bound_to 10713
  139.9097  134.8372  156.1575 LP  0  0  0  0  0  0  0  0  0  0  0  0  # atno 17394 bound_to 11000
  141.0639  133.6828  156.2006 LP  0  0  0  0  0  0  0  0  0  0  0  0  # atno 17395 bound_to 11000

$$$$
