AV-unprocessed.smi:72|AV-procd|sdf|749|dock4
  -GOLD-   2262017 83D 1   1.00000     0.00000
 Structure written by MMmdl.
 29 30  0  0  0  0  0  0  0  0  1 V2000
  152.6320  141.1352  159.0381 N   0  0  0  0  0  0  0  0  0  0  0  0
  151.8654  141.0949  157.8928 C   0  0  0  0  0  0  0  0  0  0  0  0
  150.7274  141.9118  157.8763 N   0  0  0  0  0  0  0  0  0  0  0  0
  149.9953  141.8658  156.8088 C   0  0  0  0  0  0  0  0  0  0  0  0
  150.3285  140.9866  155.6982 N   0  0  0  0  0  0  0  0  0  0  0  0
  149.5060  140.9258  154.4192 C   0  0  2  0  0  0  0  0  0  0  0  0
  148.6065  141.9927  154.3683 O   0  0  0  0  0  0  0  0  0  0  0  0
  147.3482  141.5819  154.8880 C   0  0  1  0  0  0  0  0  0  0  0  0
  146.2469  142.5391  154.4092 C   0  0  0  0  0  0  0  0  0  0  0  0
  144.9767  141.9973  154.7019 O   0  0  0  0  0  0  0  0  0  0  0  0
  147.2201  140.1658  154.3247 C   0  0  2  0  0  0  0  0  0  0  0  0
  146.3807  139.3819  155.1487 O   0  0  0  0  0  0  0  0  0  0  0  0
  148.6532  139.6381  154.3571 C   0  0  1  0  0  0  0  0  0  0  0  0
  148.9223  138.8911  153.1883 O   0  0  0  0  0  0  0  0  0  0  0  0
  151.5289  140.2246  155.7661 C   0  0  0  0  0  0  0  0  0  0  0  0
  151.8728  139.5268  154.8117 O   0  0  0  0  0  0  0  0  0  0  0  0
  152.2795  140.3051  156.9446 N   0  0  0  0  0  0  0  0  0  0  0  0
  150.2388  141.0237  153.6162 H   0  0  0  0  0  0  0  0  0  0  0  0
  147.3865  141.5429  155.9784 H   0  0  0  0  0  0  0  0  0  0  0  0
  146.8344  140.1990  153.3042 H   0  0  0  0  0  0  0  0  0  0  0  0
  148.8310  139.0243  155.2420 H   0  0  0  0  0  0  0  0  0  0  0  0
  153.4739  140.5921  159.1619 H   0  0  0  0  0  0  0  0  0  0  0  0
  152.4105  141.7132  159.8355 H   0  0  0  0  0  0  0  0  0  0  0  0
  149.1020  142.4781  156.6854 H   0  0  0  0  0  0  0  0  0  0  0  0
  146.3539  143.5260  154.8601 H   0  0  0  0  0  0  0  0  0  0  0  0
  146.3063  142.6675  153.3282 H   0  0  0  0  0  0  0  0  0  0  0  0
  144.6804  141.5040  153.9524 H   0  0  0  0  0  0  0  0  0  0  0  0
  145.4858  139.6457  154.9981 H   0  0  0  0  0  0  0  0  0  0  0  0
  149.3810  139.4474  152.5772 H   0  0  0  0  0  0  0  0  0  0  0  0
  1  2  1  0  0  0  0
  1 22  1  0  0  0  0
  1 23  1  0  0  0  0
  2 17  2  0  0  0  0
  2  3  1  0  0  0  0
  3  4  2  0  0  0  0
  4  5  1  0  0  0  0
  4 24  1  0  0  0  0
  5  6  1  0  0  0  0
  5 15  1  0  0  0  0
  6 18  1  0  0  0  0
  6 13  1  0  0  0  0
  6  7  1  0  0  0  0
  7  8  1  0  0  0  0
  8 19  1  0  0  0  0
  8  9  1  0  0  0  0
  8 11  1  0  0  0  0
  9 10  1  0  0  0  0
  9 25  1  0  0  0  0
  9 26  1  0  0  0  0
 10 27  1  0  0  0  0
 11 20  1  0  0  0  0
 11 12  1  0  0  0  0
 11 13  1  0  0  0  0
 12 28  1  0  0  0  0
 13 21  1  0  0  0  0
 13 14  1  0  0  0  0
 14 29  1  0  0  0  0
 15 16  2  0  0  0  0
 15 17  1  0  0  0  0
M  END
> <s_m_source_file>
AV-unprocessed.smi

> <i_m_source_file_index>
72

> <i_lp_mmshare_version>
43012

> <i_f3d_flags>
0

> <s_epik_input>
W05IMl1jMW5bY0hdbihjKD1PKW4xKVtDQEBIXTJPW0NASF0oW0NIMl1bT0hdKVtDQEBIXShbT0hdKVtDQEhdMltPSF0=

> <s_epik_cmdline>
J2VwaWtfcHl0aG9uJywgJy1waCcsICc3LjAnLCAnLXRuJywgJzgnLCAnLW1hJywgJzIwMCcsICctbWV0YWxfYmluZGluZycsICctaW1hZScsICc8aW5maWxlLm1hZT4nLCAnLW9tYWUnLCAnPG91dGZpbGUubWFlPic=

> <r_lp_tautomer_probability>
4.77166e-05

> <r_epik_Ionization_Penalty>
1.3546

> <r_epik_Ionization_Penalty_Charging>
1.46833e-10

> <r_epik_Ionization_Penalty_Neutral>
1.3546

> <r_epik_State_Penalty>
3.51908

> <r_epik_Charging_Adjusted_Penalty>
3.51908

> <i_epik_Tot_Q>
0

> <i_epik_Tot_abs_Q>
0

> <r_epik_Metal_State_Penalty>
3.44088

> <b_epik_Metal_Only>
1

> <s_epik_Chemistry_Notes>
This compound contains an acetal/aminal-like group ( X-CH(R)-Y where X, Y are N, S, or O) that may be acid/base labile, releasing an aldehyde.

> <s_lp_Force_Field>
OPLS_2005

> <r_lp_Energy>
23.1621

> <b_lp_Chiralities_Consistent>
1

> <s_lp_Variant>
AV-unprocessed.smi:72-87

> <Gold.Version>
5.8.1

> <Gold.Id.Protein>
6NUR|6NUR_protein|mol2

> <Gold.PLP.Fitness>
40.3566

> <Gold.PLP.PLP>
-27.3226

> <Gold.PLP.part.hbond>
-5.6148

> <Gold.PLP.part.metal>
0.0000

> <Gold.PLP.part.buried>
-3.5540

> <Gold.PLP.part.nonpolar>
-19.9557

> <Gold.PLP.part.repulsive>
1.1347

> <Gold.PLP.ligand.clash>
0.0000

> <Gold.PLP.ligand.torsion>
0.4451

> <Gold.PLP.Chemscore.Hbond>
3.6438

> <Gold.PLP.Chemscore.CHOScore>
0.9843

> <Gold.PLP.Chemscore.Metal>
0.0000

> <Gold.Chemscore.Hbonds>
donor molecule, donor type, donor heavy atom, donor atom, acceptor molecule, acceptor atom, score
      L1  H    10    27       P1 10175  1.00
      L1  H    14    29       P1  7957  1.00
      P1  H  7989  7998       L1    16  0.79
      P1  H  7997  8008       L1    17  0.78
      L1  C     4    24       P1  8028  0.99

> <Gold.PLP.Chemscore.Internal.Correction>
0.0398

> <Gold.Rescore>
     Score         DG    S(hbond)    S(metal)    S(lipo)     H(rot)  DE(clash)    DE(int)     intcor
      6.19      -6.66       2.81        0.00      18.63       4.06       0.01       0.46       ----

> <Gold.Chemscore.Fitness>
6.1857

> <Gold.Chemscore.DG>
-6.6626

> <Gold.Chemscore.ZeroCoef>
-5.4800

> <Gold.Chemscore.Hbond>
2.8133

> <Gold.Chemscore.Metal>
0.0000

> <Gold.Chemscore.Lipo>
18.6301

> <Gold.Chemscore.Internal_Hbond>
0.0000

> <Gold.Chemscore.DEClash>
0.0127

> <Gold.Chemscore.DEInternal>
0.4642

> <Gold.Chemscore.Rot>
4.0600

> <Gold.Chemscore.Internal.Correction>
   9.000000E+99

> <Gold.Chemscore.Hbonds>
donor molecule, donor type, donor heavy atom, donor atom, acceptor molecule, acceptor atom, score
      L1  H    10    27       P1 10175  0.24
      L1  H    14    29       P1  7957  0.92
      P1  H  7989  7998       L1    16  0.11
      P1  H  7997  8008       L1    17  0.55

> <Gold.Chemscore.Hbond.Weighted>
-9.3965

> <Gold.Chemscore.Metal.Weighted>
-0.0000

> <Gold.Chemscore.Lipo.Weighted>
-2.1797

> <Gold.Chemscore.Internal_Hbond.Weighted>
0.0000

> <Gold.Chemscore.DEClash.Weighted>
0.0127

> <Gold.Chemscore.DEInternal.Weighted>
0.4642

> <Gold.Chemscore.Rot.Weighted>
10.3936

> <Gold.Chemscore.Internal.Correction.Weighted>
   9.000000E+99

> <Gold.Protein.RotatedTorsions>
[ 6907 6896 6895 6894 ] final   71.39 input  -60.11 | X-H torsion
[ 7974 7965 7964 7962 ] final  137.89 input  175.53 | X-H torsion
[ 8008 7997 7996 7995 ] final  -52.27 input   59.86 | X-H torsion
[ 10167 10162 10161 10158 ] final -176.61 input  -65.29 | X-H torsion
[ 10718 10713 10712 10709 ] final  -64.04 input   66.30 | X-H torsion
[ 10763 10752 10751 10750 ] final  131.27 input  -60.55 | X-H torsion
[ 11005 11000 10999 10996 ] final  -20.31 input  -57.11 | X-H torsion

> <Gold.Protein.ActiveResidues>
 VAL166  LYS551  ARG553  GLY616  TRP617  ASP618  TYR619  PRO620  LYS621  CYS622 
 ASP623  PHE694  ASN695  SER759  ASP760  ASP761  ALA762  ILE779  LEU786  VAL792 
 PHE793  MET794  SER795  GLU796  ALA797  LYS798  CYS799  TRP800  GLU811  SER814 

> <Gold.Protein.RotatedAtoms>
  152.4807  134.4728  159.9640 H   0  0  0  0  0  0  0  0  0  0  0  0  # atno 6907 bound_to 6896
  151.4734  133.3557  159.2835 H   0  0  0  0  0  0  0  0  0  0  0  0  # atno 6908 bound_to 6896
  150.8877  134.8303  159.7332 H   0  0  0  0  0  0  0  0  0  0  0  0  # atno 6909 bound_to 6896
  144.9425  139.4914  143.5565 H   0  0  0  0  0  0  0  0  0  0  0  0  # atno 7974 bound_to 7965
  154.4102  140.1228  156.4964 H   0  0  0  0  0  0  0  0  0  0  0  0  # atno 8008 bound_to 7997
  155.6939  140.3495  155.4885 H   0  0  0  0  0  0  0  0  0  0  0  0  # atno 8009 bound_to 7997
  155.9445  140.1093  157.1018 H   0  0  0  0  0  0  0  0  0  0  0  0  # atno 8010 bound_to 7997
  139.5521  144.2083  152.1095 H   0  0  0  0  0  0  0  0  0  0  0  0  # atno 10167 bound_to 10162
  156.0754  130.4228  150.1362 H   0  0  0  0  0  0  0  0  0  0  0  0  # atno 10718 bound_to 10713
  153.7717  135.3181  155.3353 H   0  0  0  0  0  0  0  0  0  0  0  0  # atno 10763 bound_to 10752
  154.8194  135.4614  154.0738 H   0  0  0  0  0  0  0  0  0  0  0  0  # atno 10764 bound_to 10752
  153.1999  135.6921  153.8328 H   0  0  0  0  0  0  0  0  0  0  0  0  # atno 10765 bound_to 10752
  140.8452  133.7897  155.9905 H   0  0  0  0  0  0  0  0  0  0  0  0  # atno 11005 bound_to 11000
  146.3291  139.8453  142.8883 LP  0  0  0  0  0  0  0  0  0  0  0  0  # atno 17320 bound_to 7965
  145.2969  141.0183  143.3631 LP  0  0  0  0  0  0  0  0  0  0  0  0  # atno 17321 bound_to 7965
  140.1580  144.5053  150.6649 LP  0  0  0  0  0  0  0  0  0  0  0  0  # atno 17342 bound_to 10162
  140.6786  143.2316  151.5443 LP  0  0  0  0  0  0  0  0  0  0  0  0  # atno 17343 bound_to 10162
  156.9405  130.9743  151.3517 LP  0  0  0  0  0  0  0  0  0  0  0  0  # atno 17370 bound_to 10713
  157.5846  130.8400  149.8571 LP  0  0  0  0  0  0  0  0  0  0  0  0  # atno 17371 bound_to 10713
  140.8851  134.2564  157.5124 LP  0  0  0  0  0  0  0  0  0  0  0  0  # atno 17394 bound_to 11000
  139.8703  134.9634  156.4461 LP  0  0  0  0  0  0  0  0  0  0  0  0  # atno 17395 bound_to 11000

$$$$
