AV-unprocessed.smi:169|AV-procd|sdf|1399|dock8
  -GOLD-   2262019143D 1   1.00000     0.00000
 Structure written by MMmdl.
 56 60  0  0  0  0  0  0  0  0  2 V2000
  142.2819  134.5257  163.5493 C   0  0  0  0  0  0  0  0  0  0  0  0
  142.6773  134.8273  162.0924 C   0  0  0  0  0  0  0  0  0  0  0  0
  144.0891  135.2624  161.9236 N   0  3  1  0  0  0  0  0  0  0  0  0
  144.4042  136.5443  162.6029 C   0  0  0  0  0  0  0  0  0  0  0  0
  145.3407  137.4172  161.7465 C   0  0  0  0  0  0  0  0  0  0  0  0
  146.7480  136.8422  161.4805 C   0  0  1  0  0  0  0  0  0  0  0  0
  147.5519  136.5844  162.7600 C   0  0  0  0  0  0  0  0  0  0  0  0
  147.3135  135.1035  163.0766 C   0  0  0  0  0  0  0  0  0  0  0  0
  146.5481  134.5353  161.8636 C   0  0  1  0  0  0  0  0  0  0  0  0
  145.0737  134.1741  162.1751 C   0  0  0  0  0  0  0  0  0  0  0  0
  146.6802  135.5433  160.8134 N   0  0  0  0  0  0  0  0  0  0  0  0
  147.5517  135.2287  159.8190 C   0  0  0  0  0  0  0  0  0  0  0  0
  147.6109  133.9649  159.3218 N   0  0  0  0  0  0  0  0  0  0  0  0
  148.4556  133.6680  158.3300 C   0  0  0  0  0  0  0  0  0  0  0  0
  149.3167  134.4694  157.7006 N   0  0  0  0  0  0  0  0  0  0  0  0
  149.2710  135.7369  158.2000 C   0  0  0  0  0  0  0  0  0  0  0  0
  148.4239  136.1970  159.2475 C   0  0  0  0  0  0  0  0  0  0  0  0
  148.6526  137.5470  159.4851 N   0  0  0  0  0  0  0  0  0  0  0  0
  149.5746  137.8692  158.6194 C   0  0  0  0  0  0  0  0  0  0  0  0
  150.0117  136.8409  157.8138 N   0  0  0  0  0  0  0  0  0  0  0  0
  151.0237  136.9270  156.7708 C   0  0  0  0  0  0  0  0  0  0  0  0
  150.6716  137.8863  155.6165 C   0  0  0  0  0  0  0  0  0  0  0  0
  149.3107  137.4748  155.0169 C   0  0  0  0  0  0  0  0  0  0  0  0
  148.9783  138.2212  153.8631 O   0  0  0  0  0  0  0  0  0  0  0  0
  150.8542  139.3851  155.8971 C   0  0  0  0  0  0  0  0  0  0  0  0
  151.6930  139.5591  154.7338 O   0  0  0  0  0  0  0  0  0  0  0  0
  151.8100  138.1248  154.6131 C   0  0  0  0  0  0  0  0  0  0  0  0
  141.2257  134.2617  163.6082 H   0  0  0  0  0  0  0  0  0  0  0  0
  142.4369  135.3861  164.2002 H   0  0  0  0  0  0  0  0  0  0  0  0
  142.8439  133.6872  163.9594 H   0  0  0  0  0  0  0  0  0  0  0  0
  142.4993  133.9459  161.4750 H   0  0  0  0  0  0  0  0  0  0  0  0
  142.0243  135.6048  161.6941 H   0  0  0  0  0  0  0  0  0  0  0  0
  143.4846  137.1122  162.7507 H   0  0  0  0  0  0  0  0  0  0  0  0
  144.8066  136.3676  163.6006 H   0  0  0  0  0  0  0  0  0  0  0  0
  144.8572  137.6216  160.7903 H   0  0  0  0  0  0  0  0  0  0  0  0
  145.4495  138.3880  162.2312 H   0  0  0  0  0  0  0  0  0  0  0  0
  147.2718  137.5801  160.8720 H   0  0  0  0  0  0  0  0  0  0  0  0
  148.6128  136.7456  162.5645 H   0  0  0  0  0  0  0  0  0  0  0  0
  147.2689  137.2438  163.5810 H   0  0  0  0  0  0  0  0  0  0  0  0
  148.2700  134.5935  163.1982 H   0  0  0  0  0  0  0  0  0  0  0  0
  146.7656  134.9777  164.0107 H   0  0  0  0  0  0  0  0  0  0  0  0
  147.0526  133.6097  161.5817 H   0  0  0  0  0  0  0  0  0  0  0  0
  144.9872  133.7939  163.1928 H   0  0  0  0  0  0  0  0  0  0  0  0
  144.7950  133.3442  161.5245 H   0  0  0  0  0  0  0  0  0  0  0  0
  148.4374  132.6425  157.9913 H   0  0  0  0  0  0  0  0  0  0  0  0
  149.9701  138.8722  158.5483 H   0  0  0  0  0  0  0  0  0  0  0  0
  151.9623  137.2218  157.2421 H   0  0  0  0  0  0  0  0  0  0  0  0
  151.1951  135.9218  156.3838 H   0  0  0  0  0  0  0  0  0  0  0  0
  149.3078  136.4178  154.7493 H   0  0  0  0  0  0  0  0  0  0  0  0
  148.5041  137.6237  155.7351 H   0  0  0  0  0  0  0  0  0  0  0  0
  148.6811  137.6252  153.1925 H   0  0  0  0  0  0  0  0  0  0  0  0
  149.9331  139.9660  155.8436 H   0  0  0  0  0  0  0  0  0  0  0  0
  151.3999  139.6062  156.8149 H   0  0  0  0  0  0  0  0  0  0  0  0
  152.7836  137.7711  154.9560 H   0  0  0  0  0  0  0  0  0  0  0  0
  151.6061  137.7684  153.6029 H   0  0  0  0  0  0  0  0  0  0  0  0
  144.1715  135.4687  160.9381 H   0  0  0  0  0  0  0  0  0  0  0  0
  1  2  1  0  0  0  0
  1 28  1  0  0  0  0
  1 29  1  0  0  0  0
  1 30  1  0  0  0  0
  2  3  1  0  0  0  0
  2 31  1  0  0  0  0
  2 32  1  0  0  0  0
  3 10  1  0  0  0  0
  3  4  1  0  0  0  0
  3 56  1  0  0  0  0
  4  5  1  0  0  0  0
  4 33  1  0  0  0  0
  4 34  1  0  0  0  0
  5  6  1  0  0  0  0
  5 35  1  0  0  0  0
  5 36  1  0  0  0  0
  6 11  1  0  0  0  0
  6  7  1  0  0  0  0
  6 37  1  0  0  0  0
  7  8  1  0  0  0  0
  7 38  1  0  0  0  0
  7 39  1  0  0  0  0
  8  9  1  0  0  0  0
  8 40  1  0  0  0  0
  8 41  1  0  0  0  0
  9 10  1  0  0  0  0
  9 11  1  0  0  0  0
  9 42  1  0  0  0  0
 10 43  1  0  0  0  0
 10 44  1  0  0  0  0
 11 12  1  0  0  0  0
 12 17  1  0  0  0  0
 12 13  2  0  0  0  0
 13 14  1  0  0  0  0
 14 15  2  0  0  0  0
 14 45  1  0  0  0  0
 15 16  1  0  0  0  0
 16 20  1  0  0  0  0
 16 17  2  0  0  0  0
 17 18  1  0  0  0  0
 18 19  2  0  0  0  0
 19 20  1  0  0  0  0
 19 46  1  0  0  0  0
 20 21  1  0  0  0  0
 21 22  1  0  0  0  0
 21 47  1  0  0  0  0
 21 48  1  0  0  0  0
 22 27  1  0  0  0  0
 22 23  1  0  0  0  0
 22 25  1  0  0  0  0
 23 24  1  0  0  0  0
 23 49  1  0  0  0  0
 23 50  1  0  0  0  0
 24 51  1  0  0  0  0
 25 26  1  0  0  0  0
 25 52  1  0  0  0  0
 25 53  1  0  0  0  0
 26 27  1  0  0  0  0
 27 54  1  0  0  0  0
 27 55  1  0  0  0  0
M  CHG  1   3   1
M  END
> <s_m_source_file>
AV-unprocessed.smi

> <i_m_source_file_index>
169

> <i_lp_mmshare_version>
43012

> <i_f3d_flags>
0

> <s_epik_input>
W0NASF0xMltDSDJdW0NIMl1OKFtDSDJdW0NIM10pW0NIMl1bQ0BIXShbQ0gyXVtDSDJdMSlOMmMobltjSF1uMyljKGMzNCluW2NIXW40W0NIMl1DNShbQ0gyXVtPSF0pW0NIMl1PW0NIMl01

> <s_epik_cmdline>
J2VwaWtfcHl0aG9uJywgJy1waCcsICc3LjAnLCAnLXRuJywgJzgnLCAnLW1hJywgJzIwMCcsICctbWV0YWxfYmluZGluZycsICctaW1hZScsICc8aW5maWxlLm1hZT4nLCAnLW9tYWUnLCAnPG91dGZpbGUubWFlPic=

> <r_lp_tautomer_probability>
1

> <r_epik_Ionization_Penalty>
0.00274162

> <r_epik_Ionization_Penalty_Charging>
0.00243722

> <r_epik_Ionization_Penalty_Neutral>
0.000304399

> <r_epik_State_Penalty>
-0

> <r_epik_Charging_Adjusted_Penalty>
0.00243722

> <i_epik_Tot_Q>
1

> <i_epik_Tot_abs_Q>
1

> <r_epik_Metal_State_Penalty>
-0

> <b_epik_Metal_Only>
0

> <s_lp_Force_Field>
OPLS_2005

> <r_lp_Energy>
78.3459

> <b_lp_Chiralities_Consistent>
1

> <s_lp_Variant>
AV-unprocessed.smi:169-2

> <Gold.Version>
5.8.1

> <Gold.Id.Protein>
6NUR|6NUR_protein|mol2

> <Gold.PLP.Fitness>
48.9403

> <Gold.PLP.PLP>
-43.2682

> <Gold.PLP.part.hbond>
-4.9743

> <Gold.PLP.part.metal>
0.0000

> <Gold.PLP.part.buried>
-6.3040

> <Gold.PLP.part.nonpolar>
-33.2665

> <Gold.PLP.part.repulsive>
0.0562

> <Gold.PLP.ligand.clash>
0.0000

> <Gold.PLP.ligand.torsion>
0.5794

> <Gold.PLP.Chemscore.Hbond>
2.1033

> <Gold.PLP.Chemscore.CHOScore>
0.0000

> <Gold.PLP.Chemscore.Metal>
0.0000

> <Gold.Chemscore.Hbonds>
donor molecule, donor type, donor heavy atom, donor atom, acceptor molecule, acceptor atom, score
      L1  H    24    51       P1  7948  1.00
      P1  H  6896  6907       L1    15  0.08
      P1  H  7989  7998       L1    26  1.00

> <Gold.PLP.Chemscore.Internal.Correction>
0.5208

> <Gold.Rescore>
     Score         DG    S(hbond)    S(metal)    S(lipo)     H(rot)  DE(clash)    DE(int)     intcor
     15.11     -17.03       2.05        0.00      97.56       2.62       0.04       1.87       ----

> <Gold.Chemscore.Fitness>
15.1146

> <Gold.Chemscore.DG>
-17.0304

> <Gold.Chemscore.ZeroCoef>
-5.4800

> <Gold.Chemscore.Hbond>
2.0496

> <Gold.Chemscore.Metal>
0.0000

> <Gold.Chemscore.Lipo>
97.5626

> <Gold.Chemscore.Internal_Hbond>
0.0000

> <Gold.Chemscore.DEClash>
0.0416

> <Gold.Chemscore.DEInternal>
1.8742

> <Gold.Chemscore.Rot>
2.6212

> <Gold.Chemscore.Internal.Correction>
   9.000000E+99

> <Gold.Chemscore.Hbonds>
donor molecule, donor type, donor heavy atom, donor atom, acceptor molecule, acceptor atom, score
      L1  H    24    51       P1  7948  0.96
      P1  H  7989  7998       L1    26  0.98

> <Gold.Chemscore.Hbond.Weighted>
-6.8457

> <Gold.Chemscore.Metal.Weighted>
-0.0000

> <Gold.Chemscore.Lipo.Weighted>
-11.4148

> <Gold.Chemscore.Internal_Hbond.Weighted>
0.0000

> <Gold.Chemscore.DEClash.Weighted>
0.0416

> <Gold.Chemscore.DEInternal.Weighted>
1.8742

> <Gold.Chemscore.Rot.Weighted>
6.7102

> <Gold.Chemscore.Internal.Correction.Weighted>
   9.000000E+99

> <Gold.Protein.RotatedTorsions>
[ 6907 6896 6895 6894 ] final -112.00 input  -60.11 | X-H torsion
[ 7974 7965 7964 7962 ] final  145.30 input  175.53 | X-H torsion
[ 8008 7997 7996 7995 ] final  -18.83 input   59.86 | X-H torsion
[ 10167 10162 10161 10158 ] final   92.98 input  -65.29 | X-H torsion
[ 10718 10713 10712 10709 ] final  -38.82 input   66.30 | X-H torsion
[ 10763 10752 10751 10750 ] final  127.10 input  -60.55 | X-H torsion
[ 11005 11000 10999 10996 ] final  127.36 input  -57.11 | X-H torsion

> <Gold.Protein.ActiveResidues>
 VAL166  LYS551  ARG553  GLY616  TRP617  ASP618  TYR619  PRO620  LYS621  CYS622 
 ASP623  PHE694  ASN695  SER759  ASP760  ASP761  ALA762  ILE779  LEU786  VAL792 
 PHE793  MET794  SER795  GLU796  ALA797  LYS798  CYS799  TRP800  GLU811  SER814 

> <Gold.Protein.RotatedAtoms>
  150.7729  133.9153  159.3381 H   0  0  0  0  0  0  0  0  0  0  0  0  # atno 6907 bound_to 6896
  151.7035  135.0924  160.0264 H   0  0  0  0  0  0  0  0  0  0  0  0  # atno 6908 bound_to 6896
  152.3753  133.6435  159.6154 H   0  0  0  0  0  0  0  0  0  0  0  0  # atno 6909 bound_to 6896
  144.8764  139.5766  143.5863 H   0  0  0  0  0  0  0  0  0  0  0  0  # atno 7974 bound_to 7965
  154.4879  140.2105  155.9615 H   0  0  0  0  0  0  0  0  0  0  0  0  # atno 8008 bound_to 7997
  156.1262  140.3205  155.8250 H   0  0  0  0  0  0  0  0  0  0  0  0  # atno 8009 bound_to 7997
  155.4379  140.0508  157.3004 H   0  0  0  0  0  0  0  0  0  0  0  0  # atno 8010 bound_to 7997
  139.8224  144.6725  150.9501 H   0  0  0  0  0  0  0  0  0  0  0  0  # atno 10167 bound_to 10162
  156.2995  130.4238  149.8158 H   0  0  0  0  0  0  0  0  0  0  0  0  # atno 10718 bound_to 10713
  153.7040  135.3279  155.3231 H   0  0  0  0  0  0  0  0  0  0  0  0  # atno 10763 bound_to 10752
  154.8404  135.4461  154.1381 H   0  0  0  0  0  0  0  0  0  0  0  0  # atno 10764 bound_to 10752
  153.2457  135.6976  153.7813 H   0  0  0  0  0  0  0  0  0  0  0  0  # atno 10765 bound_to 10752
  139.9503  134.9623  156.8843 H   0  0  0  0  0  0  0  0  0  0  0  0  # atno 11005 bound_to 11000
  146.2965  139.7295  142.9122 LP  0  0  0  0  0  0  0  0  0  0  0  0  # atno 17320 bound_to 7965
  145.4034  141.0388  143.3057 LP  0  0  0  0  0  0  0  0  0  0  0  0  # atno 17321 bound_to 7965
  140.7812  143.4078  151.1042 LP  0  0  0  0  0  0  0  0  0  0  0  0  # atno 17342 bound_to 10162
  139.7738  143.8455  152.3125 LP  0  0  0  0  0  0  0  0  0  0  0  0  # atno 17343 bound_to 10162
  156.5541  130.8355  151.3309 LP  0  0  0  0  0  0  0  0  0  0  0  0  # atno 17370 bound_to 10713
  157.7364  130.9778  150.2135 LP  0  0  0  0  0  0  0  0  0  0  0  0  # atno 17371 bound_to 10713
  140.5734  134.0421  155.7438 LP  0  0  0  0  0  0  0  0  0  0  0  0  # atno 17394 bound_to 11000
  141.1164  133.9532  157.2813 LP  0  0  0  0  0  0  0  0  0  0  0  0  # atno 17395 bound_to 11000

$$$$
