AV-unprocessed.smi:2106|AV-procd|sdf|8597|dock9
  -GOLD-   2272011333D 1   1.00000     0.00000
 Structure written by MMmdl.
 48 49  0  0  0  0  0  0  0  0  2 V2000
  145.6638  128.9835  152.0914 C   0  0  0  0  0  0  0  0  0  0  0  0
  145.5642  130.3879  151.5735 C   0  0  0  0  0  0  0  0  0  0  0  0
  144.6341  130.9174  150.6361 C   0  0  0  0  0  0  0  0  0  0  0  0
  144.9810  132.2342  150.5222 C   0  0  0  0  0  0  0  0  0  0  0  0
  144.3782  133.3190  149.6911 C   0  0  0  0  0  0  0  0  0  0  0  0
  146.0635  132.4374  151.3603 N   0  0  0  0  0  0  0  0  0  0  0  0
  146.8072  133.6596  151.6218 C   0  0  0  0  0  0  0  0  0  0  0  0
  145.8620  134.8214  151.9307 C   0  0  0  0  0  0  0  0  0  0  0  0
  144.6620  134.6109  152.1064 O   0  0  0  0  0  0  0  0  0  0  0  0
  146.4145  136.0426  151.9989 N   0  0  0  0  0  0  0  0  0  0  0  0
  145.6958  137.2693  152.3216 C   0  0  0  0  0  0  0  0  0  0  0  0
  146.6506  138.4707  152.4688 C   0  0  0  0  0  0  0  0  0  0  0  0
  147.5747  138.3270  153.6213 N   0  3  1  0  0  0  0  0  0  0  0  0
  148.3650  139.5577  153.8628 C   0  0  0  0  0  0  0  0  0  0  0  0
  149.3616  139.3648  155.0225 C   0  0  2  0  0  0  0  0  0  0  0  0
  150.5714  138.4874  154.6547 C   0  0  0  0  0  0  0  0  0  0  0  0
  148.6809  138.8891  156.1836 O   0  0  0  0  0  0  0  0  0  0  0  0
  147.9391  137.6876  155.9922 C   0  0  1  0  0  0  0  0  0  0  0  0
  147.2786  137.3214  157.3260 C   0  0  0  0  0  0  0  0  0  0  0  0
  146.9040  137.8966  154.8722 C   0  0  0  0  0  0  0  0  0  0  0  0
  146.4178  131.3027  152.0030 N   0  0  0  0  0  0  0  0  0  0  0  0
  144.9235  128.3365  151.6203 H   0  0  0  0  0  0  0  0  0  0  0  0
  145.4958  128.9495  153.1681 H   0  0  0  0  0  0  0  0  0  0  0  0
  146.6484  128.5594  151.8927 H   0  0  0  0  0  0  0  0  0  0  0  0
  143.8313  130.4069  150.1252 H   0  0  0  0  0  0  0  0  0  0  0  0
  143.5170  132.9494  149.1341 H   0  0  0  0  0  0  0  0  0  0  0  0
  145.1009  133.7052  148.9722 H   0  0  0  0  0  0  0  0  0  0  0  0
  144.0413  134.1472  150.3143 H   0  0  0  0  0  0  0  0  0  0  0  0
  147.4915  133.4962  152.4562 H   0  0  0  0  0  0  0  0  0  0  0  0
  147.4216  133.8995  150.7534 H   0  0  0  0  0  0  0  0  0  0  0  0
  147.4105  136.1193  151.8481 H   0  0  0  0  0  0  0  0  0  0  0  0
  144.9430  137.4449  151.5529 H   0  0  0  0  0  0  0  0  0  0  0  0
  145.1554  137.1084  153.2547 H   0  0  0  0  0  0  0  0  0  0  0  0
  147.2364  138.5499  151.5517 H   0  0  0  0  0  0  0  0  0  0  0  0
  146.0982  139.4068  152.5626 H   0  0  0  0  0  0  0  0  0  0  0  0
  148.9006  139.8470  152.9576 H   0  0  0  0  0  0  0  0  0  0  0  0
  147.6820  140.3754  154.0993 H   0  0  0  0  0  0  0  0  0  0  0  0
  149.7556  140.3468  155.2862 H   0  0  0  0  0  0  0  0  0  0  0  0
  151.1500  138.9442  153.8515 H   0  0  0  0  0  0  0  0  0  0  0  0
  150.2768  137.4947  154.3156 H   0  0  0  0  0  0  0  0  0  0  0  0
  151.2369  138.3659  155.5099 H   0  0  0  0  0  0  0  0  0  0  0  0
  148.6149  136.8769  155.7193 H   0  0  0  0  0  0  0  0  0  0  0  0
  146.7019  136.4000  157.2398 H   0  0  0  0  0  0  0  0  0  0  0  0
  146.6036  138.1085  157.6629 H   0  0  0  0  0  0  0  0  0  0  0  0
  148.0282  137.1708  158.1032 H   0  0  0  0  0  0  0  0  0  0  0  0
  146.1697  138.6473  155.1696 H   0  0  0  0  0  0  0  0  0  0  0  0
  146.3601  136.9663  154.7137 H   0  0  0  0  0  0  0  0  0  0  0  0
  148.2371  137.6058  153.3739 H   0  0  0  0  0  0  0  0  0  0  0  0
  1  2  1  0  0  0  0
  1 22  1  0  0  0  0
  1 23  1  0  0  0  0
  1 24  1  0  0  0  0
  2 21  2  0  0  0  0
  2  3  1  0  0  0  0
  3  4  2  0  0  0  0
  3 25  1  0  0  0  0
  4  5  1  0  0  0  0
  4  6  1  0  0  0  0
  5 26  1  0  0  0  0
  5 27  1  0  0  0  0
  5 28  1  0  0  0  0
  6  7  1  0  0  0  0
  6 21  1  0  0  0  0
  7  8  1  0  0  0  0
  7 29  1  0  0  0  0
  7 30  1  0  0  0  0
  8  9  2  0  0  0  0
  8 10  1  0  0  0  0
 10 11  1  0  0  0  0
 10 31  1  0  0  0  0
 11 12  1  0  0  0  0
 11 32  1  0  0  0  0
 11 33  1  0  0  0  0
 12 13  1  0  0  0  0
 12 34  1  0  0  0  0
 12 35  1  0  0  0  0
 13 20  1  0  0  0  0
 13 14  1  0  0  0  0
 13 48  1  0  0  0  0
 14 15  1  0  0  0  0
 14 36  1  0  0  0  0
 14 37  1  0  0  0  0
 15 16  1  0  0  0  0
 15 17  1  0  0  0  0
 15 38  1  0  0  0  0
 16 39  1  0  0  0  0
 16 40  1  0  0  0  0
 16 41  1  0  0  0  0
 17 18  1  0  0  0  0
 18 19  1  0  0  0  0
 18 20  1  0  0  0  0
 18 42  1  0  0  0  0
 19 43  1  0  0  0  0
 19 44  1  0  0  0  0
 19 45  1  0  0  0  0
 20 46  1  0  0  0  0
 20 47  1  0  0  0  0
M  CHG  1  13   1
M  END
> <s_m_source_file>
AV-unprocessed.smi

> <i_m_source_file_index>
2106

> <i_lp_mmshare_version>
43012

> <i_f3d_flags>
0

> <s_epik_input>
W0NIM11jMVtjSF1jKFtDSDNdKW4objEpW0NIMl1DKD1PKVtOSF1bQ0gyXVtDSDJdTjJbQ0gyXVtDQEBIXShbQ0gzXSlPW0NAQEhdKFtDSDNdKVtDSDJdMg==

> <s_epik_cmdline>
J2VwaWtfcHl0aG9uJywgJy1waCcsICc3LjAnLCAnLXRuJywgJzgnLCAnLW1hJywgJzIwMCcsICctbWV0YWxfYmluZGluZycsICctaW1hZScsICc8aW5maWxlLm1hZT4nLCAnLW9tYWUnLCAnPG91dGZpbGUubWFlPic=

> <r_lp_tautomer_probability>
1

> <r_epik_Ionization_Penalty>
0.748586

> <r_epik_Ionization_Penalty_Charging>
0.748396

> <r_epik_Ionization_Penalty_Neutral>
0.000189656

> <r_epik_State_Penalty>
0.775162

> <r_epik_Charging_Adjusted_Penalty>
1.52356

> <i_epik_Tot_Q>
1

> <i_epik_Tot_abs_Q>
1

> <r_epik_Metal_State_Penalty>
0.775295

> <b_epik_Metal_Only>
0

> <s_lp_Force_Field>
OPLS_2005

> <r_lp_Energy>
15.7435

> <b_lp_Chiralities_Consistent>
1

> <s_lp_Variant>
AV-unprocessed.smi:2106-5

> <Gold.Version>
5.8.1

> <Gold.Id.Protein>
6NUR|6NUR_protein|mol2

> <Gold.PLP.Fitness>
41.0773

> <Gold.PLP.PLP>
-32.6095

> <Gold.PLP.part.hbond>
-1.9998

> <Gold.PLP.part.metal>
0.0000

> <Gold.PLP.part.buried>
-2.9421

> <Gold.PLP.part.nonpolar>
-28.9705

> <Gold.PLP.part.repulsive>
0.3086

> <Gold.PLP.ligand.clash>
0.0000

> <Gold.PLP.ligand.torsion>
0.2756

> <Gold.PLP.Chemscore.Hbond>
3.0000

> <Gold.PLP.Chemscore.CHOScore>
0.0000

> <Gold.PLP.Chemscore.Metal>
0.0000

> <Gold.Chemscore.Hbonds>
donor molecule, donor type, donor heavy atom, donor atom, acceptor molecule, acceptor atom, score
      L1  H    10    31       P1  7948  0.98
      L1  H    13    48       P1  7948  1.29

> <Gold.PLP.Chemscore.Internal.Correction>
0.0190

> <Gold.Rescore>
     Score         DG    S(hbond)    S(metal)    S(lipo)     H(rot)  DE(clash)    DE(int)     intcor
     14.55     -18.99       1.98        0.00      96.93       1.73       1.85       2.59       ----

> <Gold.Chemscore.Fitness>
14.5530

> <Gold.Chemscore.DG>
-18.9918

> <Gold.Chemscore.ZeroCoef>
-5.4800

> <Gold.Chemscore.Hbond>
1.9772

> <Gold.Chemscore.Metal>
0.0000

> <Gold.Chemscore.Lipo>
96.9325

> <Gold.Chemscore.Internal_Hbond>
0.0000

> <Gold.Chemscore.DEClash>
1.8487

> <Gold.Chemscore.DEInternal>
2.5901

> <Gold.Chemscore.Rot>
1.7316

> <Gold.Chemscore.Internal.Correction>
   9.000000E+99

> <Gold.Chemscore.Hbonds>
donor molecule, donor type, donor heavy atom, donor atom, acceptor molecule, acceptor atom, score
      L1  H    10    31       P1  7948  0.91
      L1  H    13    48       P1  7948  0.63

> <Gold.Chemscore.Hbond.Weighted>
-6.6037

> <Gold.Chemscore.Metal.Weighted>
-0.0000

> <Gold.Chemscore.Lipo.Weighted>
-11.3411

> <Gold.Chemscore.Internal_Hbond.Weighted>
0.0000

> <Gold.Chemscore.DEClash.Weighted>
1.8487

> <Gold.Chemscore.DEInternal.Weighted>
2.5901

> <Gold.Chemscore.Rot.Weighted>
4.4330

> <Gold.Chemscore.Internal.Correction.Weighted>
   9.000000E+99

> <Gold.Protein.RotatedTorsions>
[ 6907 6896 6895 6894 ] final -168.91 input  -60.11 | X-H torsion
[ 7974 7965 7964 7962 ] final  135.50 input  175.53 | X-H torsion
[ 8008 7997 7996 7995 ] final  162.97 input   59.86 | X-H torsion
[ 10167 10162 10161 10158 ] final   38.42 input  -65.29 | X-H torsion
[ 10718 10713 10712 10709 ] final   94.26 input   66.30 | X-H torsion
[ 10763 10752 10751 10750 ] final  -48.58 input  -60.55 | X-H torsion
[ 11005 11000 10999 10996 ] final  128.64 input  -57.11 | X-H torsion

> <Gold.Protein.ActiveResidues>
 VAL166  LYS551  ARG553  GLY616  TRP617  ASP618  TYR619  PRO620  LYS621  CYS622 
 ASP623  PHE694  ASN695  SER759  ASP760  ASP761  ALA762  ILE779  LEU786  VAL792 
 PHE793  MET794  SER795  GLU796  ALA797  LYS798  CYS799  TRP800  GLU811  SER814 

> <Gold.Protein.RotatedAtoms>
  151.4831  133.3542  159.2841 H   0  0  0  0  0  0  0  0  0  0  0  0  # atno 6907 bound_to 6896
  150.8884  134.8287  159.7286 H   0  0  0  0  0  0  0  0  0  0  0  0  # atno 6908 bound_to 6896
  152.4807  134.4738  159.9695 H   0  0  0  0  0  0  0  0  0  0  0  0  # atno 6909 bound_to 6896
  144.9658  139.4660  143.5457 H   0  0  0  0  0  0  0  0  0  0  0  0  # atno 7974 bound_to 7965
  156.1991  140.1736  156.7936 H   0  0  0  0  0  0  0  0  0  0  0  0  # atno 8008 bound_to 7997
  154.5569  140.0707  156.8788 H   0  0  0  0  0  0  0  0  0  0  0  0  # atno 8009 bound_to 7997
  155.2922  140.3356  155.4254 H   0  0  0  0  0  0  0  0  0  0  0  0  # atno 8010 bound_to 7997
  140.3938  144.1817  150.6131 H   0  0  0  0  0  0  0  0  0  0  0  0  # atno 10167 bound_to 10162
  157.6949  131.0506  150.4159 H   0  0  0  0  0  0  0  0  0  0  0  0  # atno 10718 bound_to 10713
  154.0800  135.6592  153.4836 H   0  0  0  0  0  0  0  0  0  0  0  0  # atno 10763 bound_to 10752
  153.0359  135.5177  154.7483 H   0  0  0  0  0  0  0  0  0  0  0  0  # atno 10764 bound_to 10752
  154.6575  135.3010  154.9877 H   0  0  0  0  0  0  0  0  0  0  0  0  # atno 10765 bound_to 10752
  139.9571  134.9610  156.9031 H   0  0  0  0  0  0  0  0  0  0  0  0  # atno 11005 bound_to 11000
  146.3367  139.8837  142.8820 LP  0  0  0  0  0  0  0  0  0  0  0  0  # atno 17320 bound_to 7965
  145.2632  141.0084  143.3814 LP  0  0  0  0  0  0  0  0  0  0  0  0  # atno 17321 bound_to 7965
  140.4812  143.2378  151.8952 LP  0  0  0  0  0  0  0  0  0  0  0  0  # atno 17342 bound_to 10162
  139.4787  144.5267  151.8725 LP  0  0  0  0  0  0  0  0  0  0  0  0  # atno 17343 bound_to 10162
  156.4539  130.4017  149.6619 LP  0  0  0  0  0  0  0  0  0  0  0  0  # atno 17370 bound_to 10713
  156.3758  130.7554  151.2542 LP  0  0  0  0  0  0  0  0  0  0  0  0  # atno 17371 bound_to 10713
  140.5583  134.0559  155.7391 LP  0  0  0  0  0  0  0  0  0  0  0  0  # atno 17394 bound_to 11000
  141.1244  133.9407  157.2664 LP  0  0  0  0  0  0  0  0  0  0  0  0  # atno 17395 bound_to 11000

$$$$
