AV-unprocessed.smi:2813|AV-procd|sdf|10837|dock5
  -GOLD-   2272015273D 1   1.00000     0.00000
 Structure written by MMmdl.
 41 42  0  0  0  0  0  0  0  0  1 V2000
  145.6797  142.9958  155.4699 C   0  0  0  0  0  0  0  0  0  0  0  0
  146.8073  141.9841  155.3689 C   0  0  0  0  0  0  0  0  0  0  0  0
  147.6901  142.1682  154.3007 N   0  0  0  0  0  0  0  0  0  0  0  0
  148.6761  141.3494  154.1304 C   0  0  0  0  0  0  0  0  0  0  0  0
  148.8902  140.2633  154.9942 N   0  0  0  0  0  0  0  0  0  0  0  0
  150.0432  139.4022  154.6860 C   0  0  0  0  0  0  0  0  0  0  0  0
  151.2783  139.7587  155.5447 C   0  0  2  0  0  0  0  0  0  0  0  0
  152.2992  138.8162  155.2845 O   0  0  0  0  0  0  0  0  0  0  0  0
  150.9786  139.7024  157.0505 C   0  0  0  0  0  0  0  0  0  0  0  0
  152.2094  139.5918  157.7532 O   0  0  0  0  0  0  0  0  0  0  0  0
  152.5239  140.5592  158.6825 C   0  0  0  0  0  0  0  0  0  0  0  0
  153.3399  140.1650  159.7615 C   0  0  0  0  0  0  0  0  0  0  0  0
  153.7129  141.0883  160.7557 C   0  0  0  0  0  0  0  0  0  0  0  0
  153.2690  142.4214  160.6815 C   0  0  0  0  0  0  0  0  0  0  0  0
  152.4469  142.8357  159.6114 C   0  0  0  0  0  0  0  0  0  0  0  0
  151.9550  144.2718  159.5076 C   0  0  0  0  0  0  0  0  0  0  0  0
  150.6358  144.2826  159.3173 F   0  0  0  0  0  0  0  0  0  0  0  0
  152.2263  144.9730  160.6089 F   0  0  0  0  0  0  0  0  0  0  0  0
  152.5430  144.8663  158.4698 F   0  0  0  0  0  0  0  0  0  0  0  0
  152.0803  141.9041  158.6163 C   0  0  0  0  0  0  0  0  0  0  0  0
  148.0896  140.0228  156.0729 C   0  0  0  0  0  0  0  0  0  0  0  0
  148.3035  139.0819  156.8400 O   0  0  0  0  0  0  0  0  0  0  0  0
  146.9669  140.9583  156.2494 C   0  0  0  0  0  0  0  0  0  0  0  0
  146.0387  140.7098  157.4318 C   0  0  0  0  0  0  0  0  0  0  0  0
  144.7134  142.4989  155.3802 H   0  0  0  0  0  0  0  0  0  0  0  0
  145.7448  143.7448  154.6794 H   0  0  0  0  0  0  0  0  0  0  0  0
  145.7173  143.5166  156.4270 H   0  0  0  0  0  0  0  0  0  0  0  0
  149.3962  141.4518  153.3166 H   0  0  0  0  0  0  0  0  0  0  0  0
  149.7517  138.3669  154.8730 H   0  0  0  0  0  0  0  0  0  0  0  0
  150.2944  139.4130  153.6232 H   0  0  0  0  0  0  0  0  0  0  0  0
  151.6554  140.7527  155.3000 H   0  0  0  0  0  0  0  0  0  0  0  0
  152.5192  138.3794  156.0932 H   0  0  0  0  0  0  0  0  0  0  0  0
  150.4332  140.5959  157.3601 H   0  0  0  0  0  0  0  0  0  0  0  0
  150.3582  138.8317  157.2708 H   0  0  0  0  0  0  0  0  0  0  0  0
  153.6858  139.1437  159.8260 H   0  0  0  0  0  0  0  0  0  0  0  0
  154.3410  140.7734  161.5760 H   0  0  0  0  0  0  0  0  0  0  0  0
  153.5658  143.1185  161.4511 H   0  0  0  0  0  0  0  0  0  0  0  0
  151.4535  142.2478  157.8078 H   0  0  0  0  0  0  0  0  0  0  0  0
  146.5937  140.7847  158.3675 H   0  0  0  0  0  0  0  0  0  0  0  0
  145.6115  139.7082  157.3707 H   0  0  0  0  0  0  0  0  0  0  0  0
  145.2104  141.4147  157.4837 H   0  0  0  0  0  0  0  0  0  0  0  0
  1  2  1  0  0  0  0
  1 25  1  0  0  0  0
  1 26  1  0  0  0  0
  1 27  1  0  0  0  0
  2 23  2  0  0  0  0
  2  3  1  0  0  0  0
  3  4  2  0  0  0  0
  4  5  1  0  0  0  0
  4 28  1  0  0  0  0
  5  6  1  0  0  0  0
  5 21  1  0  0  0  0
  6  7  1  0  0  0  0
  6 29  1  0  0  0  0
  6 30  1  0  0  0  0
  7  8  1  0  0  0  0
  7  9  1  0  0  0  0
  7 31  1  0  0  0  0
  8 32  1  0  0  0  0
  9 10  1  0  0  0  0
  9 33  1  0  0  0  0
  9 34  1  0  0  0  0
 10 11  1  0  0  0  0
 11 20  1  0  0  0  0
 11 12  2  0  0  0  0
 12 13  1  0  0  0  0
 12 35  1  0  0  0  0
 13 14  2  0  0  0  0
 13 36  1  0  0  0  0
 14 15  1  0  0  0  0
 14 37  1  0  0  0  0
 15 16  1  0  0  0  0
 15 20  2  0  0  0  0
 16 17  1  0  0  0  0
 16 18  1  0  0  0  0
 16 19  1  0  0  0  0
 20 38  1  0  0  0  0
 21 22  2  0  0  0  0
 21 23  1  0  0  0  0
 23 24  1  0  0  0  0
 24 39  1  0  0  0  0
 24 40  1  0  0  0  0
 24 41  1  0  0  0  0
M  END
> <s_m_source_file>
AV-unprocessed.smi

> <i_m_source_file_index>
2813

> <i_lp_mmshare_version>
43012

> <i_f3d_flags>
0

> <s_epik_input>
W0NIM11jMW5bY0hdbihjKD1PKWMxW0NIM10pW0NIMl1bQ0BIXShbT0hdKVtDSDJdT2MyW2NIXVtjSF1bY0hdYyhDKEYpKEYpRilbY0hdMg==

> <s_epik_cmdline>
J2VwaWtfcHl0aG9uJywgJy1waCcsICc3LjAnLCAnLXRuJywgJzgnLCAnLW1hJywgJzIwMCcsICctbWV0YWxfYmluZGluZycsICctaW1hZScsICc8aW5maWxlLm1hZT4nLCAnLW9tYWUnLCAnPG91dGZpbGUubWFlPic=

> <r_lp_tautomer_probability>
1

> <r_epik_Ionization_Penalty>
3.72236e-05

> <r_epik_Ionization_Penalty_Charging>
8.38864e-08

> <r_epik_Ionization_Penalty_Neutral>
3.71397e-05

> <r_epik_State_Penalty>
-0

> <r_epik_Charging_Adjusted_Penalty>
8.38864e-08

> <i_epik_Tot_Q>
0

> <i_epik_Tot_abs_Q>
0

> <r_epik_Metal_State_Penalty>
-0

> <b_epik_Metal_Only>
0

> <s_lp_Force_Field>
OPLS_2005

> <r_lp_Energy>
22.8491

> <b_lp_Chiralities_Consistent>
1

> <s_lp_Variant>
AV-unprocessed.smi:2813-1

> <Gold.Version>
5.8.1

> <Gold.Id.Protein>
6NUR|6NUR_protein|mol2

> <Gold.PLP.Fitness>
50.2671

> <Gold.PLP.PLP>
-50.0197

> <Gold.PLP.part.hbond>
-0.1527

> <Gold.PLP.part.metal>
0.0000

> <Gold.PLP.part.buried>
-6.7603

> <Gold.PLP.part.nonpolar>
-44.0226

> <Gold.PLP.part.repulsive>
0.1614

> <Gold.PLP.ligand.clash>
0.0000

> <Gold.PLP.ligand.torsion>
1.4658

> <Gold.PLP.Chemscore.Hbond>
0.0000

> <Gold.PLP.Chemscore.CHOScore>
0.9917

> <Gold.PLP.Chemscore.Metal>
0.0000

> <Gold.Chemscore.Hbonds>
donor molecule, donor type, donor heavy atom, donor atom, acceptor molecule, acceptor atom, score
      L1  C     4    28       P1  7957  0.88

> <Gold.PLP.Chemscore.Internal.Correction>
0.2037

> <Gold.Rescore>
     Score         DG    S(hbond)    S(metal)    S(lipo)     H(rot)  DE(clash)    DE(int)     intcor
      8.15      -9.54       0.00        0.00      94.40       2.73       0.12       1.27       ----

> <Gold.Chemscore.Fitness>
8.1461

> <Gold.Chemscore.DG>
-9.5359

> <Gold.Chemscore.ZeroCoef>
-5.4800

> <Gold.Chemscore.Hbond>
0.0000

> <Gold.Chemscore.Metal>
0.0000

> <Gold.Chemscore.Lipo>
94.3989

> <Gold.Chemscore.Internal_Hbond>
0.0000

> <Gold.Chemscore.DEClash>
0.1177

> <Gold.Chemscore.DEInternal>
1.2721

> <Gold.Chemscore.Rot>
2.7300

> <Gold.Chemscore.Internal.Correction>
   9.000000E+99

> <Gold.Chemscore.Hbond.Weighted>
-0.0000

> <Gold.Chemscore.Metal.Weighted>
-0.0000

> <Gold.Chemscore.Lipo.Weighted>
-11.0447

> <Gold.Chemscore.Internal_Hbond.Weighted>
0.0000

> <Gold.Chemscore.DEClash.Weighted>
0.1177

> <Gold.Chemscore.DEInternal.Weighted>
1.2721

> <Gold.Chemscore.Rot.Weighted>
6.9888

> <Gold.Chemscore.Internal.Correction.Weighted>
   9.000000E+99

> <Gold.Protein.RotatedTorsions>
[ 6907 6896 6895 6894 ] final -137.37 input  -60.11 | X-H torsion
[ 7974 7965 7964 7962 ] final  119.97 input  175.53 | X-H torsion
[ 8008 7997 7996 7995 ] final  152.77 input   59.86 | X-H torsion
[ 10167 10162 10161 10158 ] final   15.57 input  -65.29 | X-H torsion
[ 10718 10713 10712 10709 ] final  -91.69 input   66.30 | X-H torsion
[ 10763 10752 10751 10750 ] final   49.82 input  -60.55 | X-H torsion
[ 11005 11000 10999 10996 ] final -158.09 input  -57.11 | X-H torsion

> <Gold.Protein.ActiveResidues>
 VAL166  LYS551  ARG553  GLY616  TRP617  ASP618  TYR619  PRO620  LYS621  CYS622 
 ASP623  PHE694  ASN695  SER759  ASP760  ASP761  ALA762  ILE779  LEU786  VAL792 
 PHE793  MET794  SER795  GLU796  ALA797  LYS798  CYS799  TRP800  GLU811  SER814 

> <Gold.Protein.RotatedAtoms>
  151.0216  133.5871  159.2670 H   0  0  0  0  0  0  0  0  0  0  0  0  # atno 6907 bound_to 6896
  151.2986  135.0761  159.9240 H   0  0  0  0  0  0  0  0  0  0  0  0  # atno 6908 bound_to 6896
  152.5324  133.9902  159.7901 H   0  0  0  0  0  0  0  0  0  0  0  0  # atno 6909 bound_to 6896
  145.1368  139.3293  143.4637 H   0  0  0  0  0  0  0  0  0  0  0  0  # atno 7974 bound_to 7965
  156.2613  140.2012  156.6386 H   0  0  0  0  0  0  0  0  0  0  0  0  # atno 8008 bound_to 7997
  154.6627  140.0559  157.0105 H   0  0  0  0  0  0  0  0  0  0  0  0  # atno 8009 bound_to 7997
  155.1252  140.3228  155.4490 H   0  0  0  0  0  0  0  0  0  0  0  0  # atno 8010 bound_to 7997
  140.5858  143.8893  150.6829 H   0  0  0  0  0  0  0  0  0  0  0  0  # atno 10167 bound_to 10162
  155.9996  130.4958  150.5513 H   0  0  0  0  0  0  0  0  0  0  0  0  # atno 10718 bound_to 10713
  152.9786  135.5899  154.4152 H   0  0  0  0  0  0  0  0  0  0  0  0  # atno 10763 bound_to 10752
  154.3782  135.2767  155.2228 H   0  0  0  0  0  0  0  0  0  0  0  0  # atno 10764 bound_to 10752
  154.4154  135.6071  153.6032 H   0  0  0  0  0  0  0  0  0  0  0  0  # atno 10765 bound_to 10752
  140.6574  134.4386  157.5235 H   0  0  0  0  0  0  0  0  0  0  0  0  # atno 11005 bound_to 11000
  146.3509  140.1388  142.8595 LP  0  0  0  0  0  0  0  0  0  0  0  0  # atno 17320 bound_to 7965
  145.0576  140.9064  143.4958 LP  0  0  0  0  0  0  0  0  0  0  0  0  # atno 17321 bound_to 7965
  140.2403  143.3668  152.1492 LP  0  0  0  0  0  0  0  0  0  0  0  0  # atno 17342 bound_to 10162
  139.5197  144.7022  151.5459 LP  0  0  0  0  0  0  0  0  0  0  0  0  # atno 17343 bound_to 10162
  157.3435  131.0721  151.1769 LP  0  0  0  0  0  0  0  0  0  0  0  0  # atno 17370 bound_to 10713
  157.2609  130.6658  149.5974 LP  0  0  0  0  0  0  0  0  0  0  0  0  # atno 17371 bound_to 10713
  139.9024  134.8524  156.1839 LP  0  0  0  0  0  0  0  0  0  0  0  0  # atno 17394 bound_to 11000
  141.0491  133.6898  156.1738 LP  0  0  0  0  0  0  0  0  0  0  0  0  # atno 17395 bound_to 11000

$$$$
