AV-unprocessed.smi:1664|AV-procd|sdf|6668|dock10
  -GOLD-   22720 7383D 1   1.00000     0.00000
 Structure written by MMmdl.
 35 36  0  0  0  0  0  0  0  0  3 V2000
  148.1547  140.4790  156.4659 C   0  0  0  0  0  0  0  0  0  0  0  0
  149.0868  141.3109  155.5626 C   0  0  2  0  0  0  0  0  0  0  0  0
  150.0680  140.4119  154.9196 C   0  0  0  0  0  0  0  0  0  0  0  0
  150.8360  139.7076  154.4155 N   0  0  0  0  0  0  0  0  0  0  0  0
  149.7684  142.3227  156.3715 N   0  0  0  0  0  0  0  0  0  0  0  0
  150.5076  142.1326  157.4802 C   0  0  0  0  0  0  0  0  0  0  0  0
  150.7004  141.0234  157.9748 O   0  0  0  0  0  0  0  0  0  0  0  0
  151.1381  143.3650  158.1519 C   0  0  0  0  0  0  0  0  0  0  0  0
  151.8995  143.0823  159.3828 N   0  0  0  0  0  0  0  0  0  0  0  0
  152.8989  142.0926  159.3009 C   0  0  0  0  0  0  0  0  0  0  0  0
  153.6609  141.7547  160.3596 C   0  0  0  0  0  0  0  0  0  0  0  0
  154.6910  140.7449  160.2540 N   0  3  0  0  0  0  0  0  0  0  0  0
  154.7558  140.0759  159.2278 O   0  0  0  0  0  0  0  0  0  0  0  0
  155.4672  140.5858  161.1914 O   0  5  0  0  0  0  0  0  0  0  0  0
  153.4190  142.4452  161.6117 C   0  0  0  0  0  0  0  0  0  0  0  0
  152.4689  143.3975  161.6948 C   0  0  0  0  0  0  0  0  0  0  0  0
  151.6485  143.7710  160.5383 C   0  0  0  0  0  0  0  0  0  0  0  0
  150.7935  144.6541  160.6018 O   0  0  0  0  0  0  0  0  0  0  0  0
  148.2395  141.9934  154.4910 C   0  0  0  0  0  0  0  0  0  0  0  0
  146.7724  142.3048  154.6875 C   0  0  0  0  0  0  0  0  0  0  0  0
  147.1959  141.2567  153.6815 C   0  0  0  0  0  0  0  0  0  0  0  0
  147.5867  139.7556  155.8804 H   0  0  0  0  0  0  0  0  0  0  0  0
  147.4383  141.1129  156.9901 H   0  0  0  0  0  0  0  0  0  0  0  0
  148.7098  139.9162  157.2165 H   0  0  0  0  0  0  0  0  0  0  0  0
  149.6749  143.2737  156.0461 H   0  0  0  0  0  0  0  0  0  0  0  0
  151.7708  143.8703  157.4201 H   0  0  0  0  0  0  0  0  0  0  0  0
  150.3386  144.0762  158.3649 H   0  0  0  0  0  0  0  0  0  0  0  0
  153.0042  141.6433  158.3236 H   0  0  0  0  0  0  0  0  0  0  0  0
  153.9973  142.2040  162.4915 H   0  0  0  0  0  0  0  0  0  0  0  0
  152.3059  143.8994  162.6373 H   0  0  0  0  0  0  0  0  0  0  0  0
  148.7956  142.7500  153.9394 H   0  0  0  0  0  0  0  0  0  0  0  0
  146.2880  141.9601  155.5986 H   0  0  0  0  0  0  0  0  0  0  0  0
  146.4059  143.2531  154.2996 H   0  0  0  0  0  0  0  0  0  0  0  0
  147.1109  141.5108  152.6270 H   0  0  0  0  0  0  0  0  0  0  0  0
  146.9935  140.2154  153.9232 H   0  0  0  0  0  0  0  0  0  0  0  0
  1  2  1  0  0  0  0
  1 22  1  0  0  0  0
  1 23  1  0  0  0  0
  1 24  1  0  0  0  0
  2  3  1  0  0  0  0
  2  5  1  0  0  0  0
  2 19  1  0  0  0  0
  3  4  3  0  0  0  0
  5  6  1  0  0  0  0
  5 25  1  0  0  0  0
  6  7  2  0  0  0  0
  6  8  1  0  0  0  0
  8  9  1  0  0  0  0
  8 26  1  0  0  0  0
  8 27  1  0  0  0  0
  9 17  1  0  0  0  0
  9 10  1  0  0  0  0
 10 11  2  0  0  0  0
 10 28  1  0  0  0  0
 11 12  1  0  0  0  0
 11 15  1  0  0  0  0
 12 13  2  0  0  0  0
 12 14  1  0  0  0  0
 15 16  2  0  0  0  0
 15 29  1  0  0  0  0
 16 17  1  0  0  0  0
 16 30  1  0  0  0  0
 17 18  2  0  0  0  0
 19 21  1  0  0  0  0
 19 20  1  0  0  0  0
 19 31  1  0  0  0  0
 20 21  1  0  0  0  0
 20 32  1  0  0  0  0
 20 33  1  0  0  0  0
 21 34  1  0  0  0  0
 21 35  1  0  0  0  0
M  CHG  1  12   1
M  CHG  1  14  -1
M  END
> <s_m_source_file>
AV-unprocessed.smi

> <i_m_source_file_index>
1664

> <i_lp_mmshare_version>
43012

> <i_f3d_flags>
0

> <s_epik_input>
W0NIMl0xW0NIMl1bQ0hdMVtDQF0oW0NIM10pKEMjTilbTkhdQyg9TylbQ0gyXW4yW2NIXWMoW04rXSg9TylbTy1dKVtjSF1bY0hdYzI9Tw==

> <s_epik_cmdline>
J2VwaWtfcHl0aG9uJywgJy1waCcsICc3LjAnLCAnLXRuJywgJzgnLCAnLW1hJywgJzIwMCcsICctbWV0YWxfYmluZGluZycsICctaW1hZScsICc8aW5maWxlLm1hZT4nLCAnLW9tYWUnLCAnPG91dGZpbGUubWFlPic=

> <r_lp_tautomer_probability>
1

> <r_epik_Ionization_Penalty>
4.65324e-07

> <r_epik_Ionization_Penalty_Charging>
6.17383e-11

> <r_epik_Ionization_Penalty_Neutral>
4.65262e-07

> <r_epik_State_Penalty>
-0

> <r_epik_Charging_Adjusted_Penalty>
6.17383e-11

> <i_epik_Tot_Q>
0

> <i_epik_Tot_abs_Q>
2

> <r_epik_Metal_State_Penalty>
-0

> <b_epik_Metal_Only>
0

> <s_lp_Force_Field>
OPLS_2005

> <r_lp_Energy>
24.1204

> <b_lp_Chiralities_Consistent>
1

> <s_lp_Variant>
AV-unprocessed.smi:1664-2

> <Gold.Version>
5.8.1

> <Gold.Id.Protein>
6NUR|6NUR_protein|mol2

> <Gold.PLP.Fitness>
54.6582

> <Gold.PLP.PLP>
-46.5041

> <Gold.PLP.part.hbond>
-4.0000

> <Gold.PLP.part.metal>
0.0000

> <Gold.PLP.part.buried>
-3.5265

> <Gold.PLP.part.nonpolar>
-38.8966

> <Gold.PLP.part.repulsive>
0.3867

> <Gold.PLP.ligand.clash>
0.0000

> <Gold.PLP.ligand.torsion>
0.9575

> <Gold.PLP.Chemscore.Hbond>
2.8500

> <Gold.PLP.Chemscore.CHOScore>
0.0000

> <Gold.PLP.Chemscore.Metal>
0.0000

> <Gold.Chemscore.Hbonds>
donor molecule, donor type, donor heavy atom, donor atom, acceptor molecule, acceptor atom, score
      L1  H     5    25       P1  8028  1.00
      P1  H  7989  7998       L1     4  0.90
      P1  H  7997  8009       L1    13  1.00

> <Gold.PLP.Chemscore.Internal.Correction>
1.5191

> <Gold.Rescore>
     Score         DG    S(hbond)    S(metal)    S(lipo)     H(rot)  DE(clash)    DE(int)     intcor
     14.84     -18.57       2.75        0.00      75.70       1.94       0.01       3.72       ----

> <Gold.Chemscore.Fitness>
14.8394

> <Gold.Chemscore.DG>
-18.5695

> <Gold.Chemscore.ZeroCoef>
-5.4800

> <Gold.Chemscore.Hbond>
2.7530

> <Gold.Chemscore.Metal>
0.0000

> <Gold.Chemscore.Lipo>
75.7039

> <Gold.Chemscore.Internal_Hbond>
0.0000

> <Gold.Chemscore.DEClash>
0.0144

> <Gold.Chemscore.DEInternal>
3.7157

> <Gold.Chemscore.Rot>
1.9386

> <Gold.Chemscore.Internal.Correction>
   9.000000E+99

> <Gold.Chemscore.Hbonds>
donor molecule, donor type, donor heavy atom, donor atom, acceptor molecule, acceptor atom, score
      L1  H     5    25       P1  8028  0.99
      P1  H  7989  7998       L1     4  0.18
      P1  H  7997  8009       L1    13  0.94

> <Gold.Chemscore.Hbond.Weighted>
-9.1949

> <Gold.Chemscore.Metal.Weighted>
-0.0000

> <Gold.Chemscore.Lipo.Weighted>
-8.8574

> <Gold.Chemscore.Internal_Hbond.Weighted>
0.0000

> <Gold.Chemscore.DEClash.Weighted>
0.0144

> <Gold.Chemscore.DEInternal.Weighted>
3.7157

> <Gold.Chemscore.Rot.Weighted>
4.9627

> <Gold.Chemscore.Internal.Correction.Weighted>
   9.000000E+99

> <Gold.Protein.RotatedTorsions>
[ 6907 6896 6895 6894 ] final -114.21 input  -60.11 | X-H torsion
[ 7974 7965 7964 7962 ] final  -96.72 input  175.53 | X-H torsion
[ 8008 7997 7996 7995 ] final  115.66 input   59.86 | X-H torsion
[ 10167 10162 10161 10158 ] final  -34.75 input  -65.29 | X-H torsion
[ 10718 10713 10712 10709 ] final  -78.55 input   66.30 | X-H torsion
[ 10763 10752 10751 10750 ] final   32.62 input  -60.55 | X-H torsion
[ 11005 11000 10999 10996 ] final  -17.69 input  -57.11 | X-H torsion

> <Gold.Protein.ActiveResidues>
 VAL166  LYS551  ARG553  GLY616  TRP617  ASP618  TYR619  PRO620  LYS621  CYS622 
 ASP623  PHE694  ASN695  SER759  ASP760  ASP761  ALA762  ILE779  LEU786  VAL792 
 PHE793  MET794  SER795  GLU796  ALA797  LYS798  CYS799  TRP800  GLU811  SER814 

> <Gold.Protein.RotatedAtoms>
  150.7885  133.8833  159.3292 H   0  0  0  0  0  0  0  0  0  0  0  0  # atno 6907 bound_to 6896
  151.6677  135.0978  160.0201 H   0  0  0  0  0  0  0  0  0  0  0  0  # atno 6908 bound_to 6896
  152.3955  133.6701  159.6308 H   0  0  0  0  0  0  0  0  0  0  0  0  # atno 6909 bound_to 6896
  145.3432  140.9463  143.2596 H   0  0  0  0  0  0  0  0  0  0  0  0  # atno 7974 bound_to 7965
  156.2394  140.2934  156.0403 H   0  0  0  0  0  0  0  0  0  0  0  0  # atno 8008 bound_to 7997
  155.1995  140.0409  157.2932 H   0  0  0  0  0  0  0  0  0  0  0  0  # atno 8009 bound_to 7997
  154.6140  140.2459  155.7640 H   0  0  0  0  0  0  0  0  0  0  0  0  # atno 8010 bound_to 7997
  140.7179  143.3525  151.2126 H   0  0  0  0  0  0  0  0  0  0  0  0  # atno 10167 bound_to 10162
  156.0114  130.4521  150.3514 H   0  0  0  0  0  0  0  0  0  0  0  0  # atno 10718 bound_to 10713
  153.0253  135.6408  154.1383 H   0  0  0  0  0  0  0  0  0  0  0  0  # atno 10763 bound_to 10752
  154.1113  135.2853  155.3231 H   0  0  0  0  0  0  0  0  0  0  0  0  # atno 10764 bound_to 10752
  154.6330  135.5486  153.7764 H   0  0  0  0  0  0  0  0  0  0  0  0  # atno 10765 bound_to 10752
  140.8193  133.8080  155.9643 H   0  0  0  0  0  0  0  0  0  0  0  0  # atno 11005 bound_to 11000
  144.8774  139.4951  143.6739 LP  0  0  0  0  0  0  0  0  0  0  0  0  # atno 17320 bound_to 7965
  146.2999  139.7393  142.9099 LP  0  0  0  0  0  0  0  0  0  0  0  0  # atno 17321 bound_to 7965
  139.7060  143.9455  152.2926 LP  0  0  0  0  0  0  0  0  0  0  0  0  # atno 17342 bound_to 10162
  139.9164  144.6826  150.8507 LP  0  0  0  0  0  0  0  0  0  0  0  0  # atno 17343 bound_to 10162
  157.1606  131.0344  151.2842 LP  0  0  0  0  0  0  0  0  0  0  0  0  # atno 17370 bound_to 10713
  157.4314  130.7493  149.6993 LP  0  0  0  0  0  0  0  0  0  0  0  0  # atno 17371 bound_to 10713
  140.9115  134.2254  157.4982 LP  0  0  0  0  0  0  0  0  0  0  0  0  # atno 17394 bound_to 11000
  139.8709  134.9752  156.4876 LP  0  0  0  0  0  0  0  0  0  0  0  0  # atno 17395 bound_to 11000

$$$$
