AV-unprocessed.smi:3089|AV-procd|sdf|11770|dock10
  -GOLD-   2272017153D 1   1.00000     0.00000
 Structure written by MMmdl.
 25 25  0  0  0  0  0  0  0  0  2 V2000
  151.9712  141.3122  158.7644 C   0  0  0  0  0  0  0  0  0  0  0  0
  151.5295  140.8347  157.4714 N   0  0  0  0  0  0  0  0  0  0  0  0
  150.3277  141.0572  156.8357 C   0  0  0  0  0  0  0  0  0  0  0  0
  150.3658  140.4044  155.6336 C   0  0  0  0  0  0  0  0  0  0  0  0
  149.2945  140.3297  154.5658 C   0  0  1  0  0  0  0  0  0  0  0  0
  148.0612  141.1397  155.0007 C   0  0  0  0  0  0  0  0  0  0  0  0
  149.7241  140.9046  153.3454 O   0  0  0  0  0  0  0  0  0  0  0  0
  148.9022  138.8650  154.2704 C   0  0  0  0  0  0  0  0  0  0  0  0
  148.0449  138.7461  153.0760 N   0  3  0  0  0  0  0  0  0  0  0  0
  151.6621  139.8087  155.6322 C   0  0  0  0  0  0  0  0  0  0  0  0
  152.3509  140.0631  156.7322 N   0  0  0  0  0  0  0  0  0  0  0  0
  151.1910  141.9170  159.2271 H   0  0  0  0  0  0  0  0  0  0  0  0
  152.8679  141.9212  158.6469 H   0  0  0  0  0  0  0  0  0  0  0  0
  152.1954  140.4659  159.4145 H   0  0  0  0  0  0  0  0  0  0  0  0
  149.5497  141.6556  157.2867 H   0  0  0  0  0  0  0  0  0  0  0  0
  147.6317  140.7470  155.9232 H   0  0  0  0  0  0  0  0  0  0  0  0
  147.2780  141.1157  154.2418 H   0  0  0  0  0  0  0  0  0  0  0  0
  148.3156  142.1857  155.1774 H   0  0  0  0  0  0  0  0  0  0  0  0
  149.6163  140.2682  152.6548 H   0  0  0  0  0  0  0  0  0  0  0  0
  149.7952  138.2612  154.1040 H   0  0  0  0  0  0  0  0  0  0  0  0
  148.3809  138.4244  155.1214 H   0  0  0  0  0  0  0  0  0  0  0  0
  148.3847  139.3593  152.3493 H   0  0  0  0  0  0  0  0  0  0  0  0
  147.0977  138.9998  153.3183 H   0  0  0  0  0  0  0  0  0  0  0  0
  152.1195  139.1970  154.8683 H   0  0  0  0  0  0  0  0  0  0  0  0
  148.0606  137.7904  152.7489 H   0  0  0  0  0  0  0  0  0  0  0  0
  1  2  1  0  0  0  0
  1 12  1  0  0  0  0
  1 13  1  0  0  0  0
  1 14  1  0  0  0  0
  2 11  1  0  0  0  0
  2  3  1  0  0  0  0
  3  4  2  0  0  0  0
  3 15  1  0  0  0  0
  4  5  1  0  0  0  0
  4 10  1  0  0  0  0
  5  6  1  0  0  0  0
  5  7  1  0  0  0  0
  5  8  1  0  0  0  0
  6 16  1  0  0  0  0
  6 17  1  0  0  0  0
  6 18  1  0  0  0  0
  7 19  1  0  0  0  0
  8  9  1  0  0  0  0
  8 20  1  0  0  0  0
  8 21  1  0  0  0  0
  9 22  1  0  0  0  0
  9 23  1  0  0  0  0
  9 25  1  0  0  0  0
 10 11  2  0  0  0  0
 10 24  1  0  0  0  0
M  CHG  1   9   1
M  END
> <s_m_source_file>
AV-unprocessed.smi

> <i_m_source_file_index>
3089

> <i_lp_mmshare_version>
43012

> <i_f3d_flags>
0

> <s_epik_input>
W0NIM11uMVtjSF1jKFtjSF1uMSlbQ0BAXShbQ0gzXSkoW09IXSlbQ0gyXVtOSDJd

> <s_epik_cmdline>
J2VwaWtfcHl0aG9uJywgJy1waCcsICc3LjAnLCAnLXRuJywgJzgnLCAnLW1hJywgJzIwMCcsICctbWV0YWxfYmluZGluZycsICctaW1hZScsICc8aW5maWxlLm1hZT4nLCAnLW9tYWUnLCAnPG91dGZpbGUubWFlPic=

> <r_lp_tautomer_probability>
1

> <r_epik_Ionization_Penalty>
0.0140512

> <r_epik_Ionization_Penalty_Charging>
0.0140431

> <r_epik_Ionization_Penalty_Neutral>
8.10489e-06

> <r_epik_State_Penalty>
0.0109628

> <r_epik_Charging_Adjusted_Penalty>
0.0250059

> <i_epik_Tot_Q>
1

> <i_epik_Tot_abs_Q>
1

> <r_epik_Metal_State_Penalty>
0.0109638

> <b_epik_Metal_Only>
0

> <s_lp_Force_Field>
OPLS_2005

> <r_lp_Energy>
3.27267

> <b_lp_Chiralities_Consistent>
1

> <s_lp_Variant>
AV-unprocessed.smi:3089-1

> <Gold.Version>
5.8.1

> <Gold.Id.Protein>
6NUR|6NUR_protein|mol2

> <Gold.PLP.Fitness>
40.6959

> <Gold.PLP.PLP>
-22.6902

> <Gold.PLP.part.hbond>
-5.0246

> <Gold.PLP.part.metal>
0.0000

> <Gold.PLP.part.buried>
-1.5193

> <Gold.PLP.part.nonpolar>
-16.1925

> <Gold.PLP.part.repulsive>
0.0477

> <Gold.PLP.ligand.clash>
0.0000

> <Gold.PLP.ligand.torsion>
0.0915

> <Gold.PLP.Chemscore.Hbond>
6.0574

> <Gold.PLP.Chemscore.CHOScore>
0.0000

> <Gold.PLP.Chemscore.Metal>
0.0000

> <Gold.Chemscore.Hbonds>
donor molecule, donor type, donor heavy atom, donor atom, acceptor molecule, acceptor atom, score
      L1  H     7    19       P1  7957  0.84
      L1  H     9    22       P1  7957  1.00
      L1  H     9    25       P1  7948  2.00
      P1  H  7989  7998       L1     7  0.23
      P1  H  7997  8009       L1    11  1.00
      P1  H  8011  8017       L1     7  0.95

> <Gold.PLP.Chemscore.Internal.Correction>
0.0166

> <Gold.Rescore>
     Score         DG    S(hbond)    S(metal)    S(lipo)     H(rot)  DE(clash)    DE(int)     intcor
     19.52     -19.91       4.13        0.00      46.88       1.89       0.24       0.15       ----

> <Gold.Chemscore.Fitness>
19.5199

> <Gold.Chemscore.DG>
-19.9109

> <Gold.Chemscore.ZeroCoef>
-5.4800

> <Gold.Chemscore.Hbond>
4.1257

> <Gold.Chemscore.Metal>
0.0000

> <Gold.Chemscore.Lipo>
46.8822

> <Gold.Chemscore.Internal_Hbond>
0.0000

> <Gold.Chemscore.DEClash>
0.2390

> <Gold.Chemscore.DEInternal>
0.1520

> <Gold.Chemscore.Rot>
1.8883

> <Gold.Chemscore.Internal.Correction>
   9.000000E+99

> <Gold.Chemscore.Hbonds>
donor molecule, donor type, donor heavy atom, donor atom, acceptor molecule, acceptor atom, score
      L1  H     7    19       P1  7957  0.79
      L1  H     9    22       P1  7957  0.99
      L1  H     9    25       P1  7948  0.92
      P1  H  7989  7998       L1     7  0.03
      P1  H  7997  8009       L1    11  0.86
      P1  H  8011  8017       L1     7  0.21

> <Gold.Chemscore.Hbond.Weighted>
-13.7798

> <Gold.Chemscore.Metal.Weighted>
-0.0000

> <Gold.Chemscore.Lipo.Weighted>
-5.4852

> <Gold.Chemscore.Internal_Hbond.Weighted>
0.0000

> <Gold.Chemscore.DEClash.Weighted>
0.2390

> <Gold.Chemscore.DEInternal.Weighted>
0.1520

> <Gold.Chemscore.Rot.Weighted>
4.8341

> <Gold.Chemscore.Internal.Correction.Weighted>
   9.000000E+99

> <Gold.Protein.RotatedTorsions>
[ 6907 6896 6895 6894 ] final  157.24 input  -60.11 | X-H torsion
[ 7974 7965 7964 7962 ] final  100.61 input  175.53 | X-H torsion
[ 8008 7997 7996 7995 ] final -171.85 input   59.86 | X-H torsion
[ 10167 10162 10161 10158 ] final  149.19 input  -65.29 | X-H torsion
[ 10718 10713 10712 10709 ] final  109.63 input   66.30 | X-H torsion
[ 10763 10752 10751 10750 ] final   58.74 input  -60.55 | X-H torsion
[ 11005 11000 10999 10996 ] final  -79.96 input  -57.11 | X-H torsion

> <Gold.Protein.ActiveResidues>
 VAL166  LYS551  ARG553  GLY616  TRP617  ASP618  TYR619  PRO620  LYS621  CYS622 
 ASP623  PHE694  ASN695  SER759  ASP760  ASP761  ALA762  ILE779  LEU786  VAL792 
 PHE793  MET794  SER795  GLU796  ALA797  LYS798  CYS799  TRP800  GLU811  SER814 

> <Gold.Protein.RotatedAtoms>
  152.0180  133.3887  159.4246 H   0  0  0  0  0  0  0  0  0  0  0  0  # atno 6907 bound_to 6896
  150.6893  134.3657  159.4979 H   0  0  0  0  0  0  0  0  0  0  0  0  # atno 6908 bound_to 6896
  152.1427  134.9050  160.0603 H   0  0  0  0  0  0  0  0  0  0  0  0  # atno 6909 bound_to 6896
  145.3833  139.2376  143.3391 H   0  0  0  0  0  0  0  0  0  0  0  0  # atno 7974 bound_to 7965
  155.9369  140.1101  157.1087 H   0  0  0  0  0  0  0  0  0  0  0  0  # atno 8008 bound_to 7997
  154.4081  140.1226  156.4942 H   0  0  0  0  0  0  0  0  0  0  0  0  # atno 8009 bound_to 7997
  155.7010  140.3472  155.4935 H   0  0  0  0  0  0  0  0  0  0  0  0  # atno 8010 bound_to 7997
  139.4865  144.5621  151.7211 H   0  0  0  0  0  0  0  0  0  0  0  0  # atno 10167 bound_to 10162
  157.6532  131.0917  150.6482 H   0  0  0  0  0  0  0  0  0  0  0  0  # atno 10718 bound_to 10713
  152.9878  135.5596  154.5601 H   0  0  0  0  0  0  0  0  0  0  0  0  # atno 10763 bound_to 10752
  154.5022  135.2798  155.1414 H   0  0  0  0  0  0  0  0  0  0  0  0  # atno 10764 bound_to 10752
  154.2839  135.6339  153.5411 H   0  0  0  0  0  0  0  0  0  0  0  0  # atno 10765 bound_to 10752
  141.1668  133.7129  156.8202 H   0  0  0  0  0  0  0  0  0  0  0  0  # atno 11005 bound_to 11000
  146.2832  140.4504  142.8768 LP  0  0  0  0  0  0  0  0  0  0  0  0  # atno 17320 bound_to 7965
  144.8492  140.6975  143.6179 LP  0  0  0  0  0  0  0  0  0  0  0  0  # atno 17321 bound_to 7965
  140.5193  144.0904  150.6018 LP  0  0  0  0  0  0  0  0  0  0  0  0  # atno 17342 bound_to 10162
  140.3856  143.2779  152.0119 LP  0  0  0  0  0  0  0  0  0  0  0  0  # atno 17343 bound_to 10162
  156.6791  130.4562  149.5633 LP  0  0  0  0  0  0  0  0  0  0  0  0  # atno 17370 bound_to 10713
  156.1942  130.6579  151.1095 LP  0  0  0  0  0  0  0  0  0  0  0  0  # atno 17371 bound_to 10713
  140.2125  134.8817  157.3290 LP  0  0  0  0  0  0  0  0  0  0  0  0  # atno 17394 bound_to 11000
  140.2072  134.4183  155.7631 LP  0  0  0  0  0  0  0  0  0  0  0  0  # atno 17395 bound_to 11000

$$$$
