AV-unprocessed.smi:3287|AV-procd|sdf|12593|dock3
  -GOLD-   2272018513D 1   1.00000     0.00000
 Structure written by MMmdl.
 43 44  0  0  0  0  0  0  0  0  2 V2000
  143.6248  141.5786  160.6093 C   0  0  0  0  0  0  0  0  0  0  0  0
  144.9439  142.3645  160.5305 C   0  0  1  0  0  0  0  0  0  0  0  0
  145.0723  143.1379  159.2036 C   0  0  0  0  0  0  0  0  0  0  0  0
  146.4292  143.8522  159.0947 C   0  0  0  0  0  0  0  0  0  0  0  0
  146.6853  144.7835  160.2978 C   0  0  2  0  0  0  0  0  0  0  0  0
  148.0274  145.4026  160.2281 N   0  3  0  0  0  0  0  0  0  0  0  0
  149.1482  144.5359  160.6517 C   0  0  0  0  0  0  0  0  0  0  0  0
  150.4803  145.0009  160.0379 C   0  0  2  0  0  0  0  0  0  0  0  0
  150.3172  145.1381  158.6394 O   0  0  0  0  0  0  0  0  0  0  0  0
  151.6065  144.0391  160.3813 C   0  0  0  0  0  0  0  0  0  0  0  0
  152.3200  143.3790  159.3590 C   0  0  0  0  0  0  0  0  0  0  0  0
  153.3616  142.5020  159.7226 C   0  0  0  0  0  0  0  0  0  0  0  0
  153.7149  142.2612  161.0033 N   0  0  0  0  0  0  0  0  0  0  0  0
  153.0305  142.8967  161.9781 C   0  0  0  0  0  0  0  0  0  0  0  0
  151.9734  143.7929  161.7223 C   0  0  0  0  0  0  0  0  0  0  0  0
  146.5464  143.9997  161.6182 C   0  0  0  0  0  0  0  0  0  0  0  0
  145.1833  143.2882  161.7519 C   0  0  1  0  0  0  0  0  0  0  0  0
  144.0409  144.2882  162.0230 C   0  0  0  0  0  0  0  0  0  0  0  0
  142.7576  142.2323  160.5154 H   0  0  0  0  0  0  0  0  0  0  0  0
  143.5413  141.0425  161.5550 H   0  0  0  0  0  0  0  0  0  0  0  0
  143.5634  140.8411  159.8084 H   0  0  0  0  0  0  0  0  0  0  0  0
  145.7411  141.6194  160.5399 H   0  0  0  0  0  0  0  0  0  0  0  0
  144.9594  142.4514  158.3638 H   0  0  0  0  0  0  0  0  0  0  0  0
  144.2645  143.8642  159.1105 H   0  0  0  0  0  0  0  0  0  0  0  0
  147.2230  143.1065  159.0323 H   0  0  0  0  0  0  0  0  0  0  0  0
  146.4582  144.4120  158.1600 H   0  0  0  0  0  0  0  0  0  0  0  0
  145.9464  145.5857  160.2946 H   0  0  0  0  0  0  0  0  0  0  0  0
  148.2001  145.6538  159.2648 H   0  0  0  0  0  0  0  0  0  0  0  0
  149.2263  144.5592  161.7388 H   0  0  0  0  0  0  0  0  0  0  0  0
  148.9405  143.5032  160.3676 H   0  0  0  0  0  0  0  0  0  0  0  0
  150.7348  145.9851  160.4340 H   0  0  0  0  0  0  0  0  0  0  0  0
  149.4531  145.4832  158.4712 H   0  0  0  0  0  0  0  0  0  0  0  0
  152.0796  143.5368  158.3178 H   0  0  0  0  0  0  0  0  0  0  0  0
  153.9274  141.9817  158.9637 H   0  0  0  0  0  0  0  0  0  0  0  0
  153.3355  142.6869  162.9926 H   0  0  0  0  0  0  0  0  0  0  0  0
  151.4604  144.2779  162.5398 H   0  0  0  0  0  0  0  0  0  0  0  0
  147.3401  143.2530  161.6769 H   0  0  0  0  0  0  0  0  0  0  0  0
  146.7003  144.6670  162.4672 H   0  0  0  0  0  0  0  0  0  0  0  0
  145.2457  142.6506  162.6349 H   0  0  0  0  0  0  0  0  0  0  0  0
  143.8430  144.9321  161.1667 H   0  0  0  0  0  0  0  0  0  0  0  0
  144.2813  144.9332  162.8686 H   0  0  0  0  0  0  0  0  0  0  0  0
  143.1122  143.7749  162.2716 H   0  0  0  0  0  0  0  0  0  0  0  0
  148.0290  146.2469  160.7822 H   0  0  0  0  0  0  0  0  0  0  0  0
  1  2  1  0  0  0  0
  1 19  1  0  0  0  0
  1 20  1  0  0  0  0
  1 21  1  0  0  0  0
  2 17  1  0  0  0  0
  2  3  1  0  0  0  0
  2 22  1  0  0  0  0
  3  4  1  0  0  0  0
  3 23  1  0  0  0  0
  3 24  1  0  0  0  0
  4  5  1  0  0  0  0
  4 25  1  0  0  0  0
  4 26  1  0  0  0  0
  5  6  1  0  0  0  0
  5 16  1  0  0  0  0
  5 27  1  0  0  0  0
  6  7  1  0  0  0  0
  6 28  1  0  0  0  0
  6 43  1  0  0  0  0
  7  8  1  0  0  0  0
  7 29  1  0  0  0  0
  7 30  1  0  0  0  0
  8  9  1  0  0  0  0
  8 10  1  0  0  0  0
  8 31  1  0  0  0  0
  9 32  1  0  0  0  0
 10 15  1  0  0  0  0
 10 11  2  0  0  0  0
 11 12  1  0  0  0  0
 11 33  1  0  0  0  0
 12 13  2  0  0  0  0
 12 34  1  0  0  0  0
 13 14  1  0  0  0  0
 14 15  2  0  0  0  0
 14 35  1  0  0  0  0
 15 36  1  0  0  0  0
 16 17  1  0  0  0  0
 16 37  1  0  0  0  0
 16 38  1  0  0  0  0
 17 18  1  0  0  0  0
 17 39  1  0  0  0  0
 18 40  1  0  0  0  0
 18 41  1  0  0  0  0
 18 42  1  0  0  0  0
M  CHG  1   6   1
M  END
> <s_m_source_file>
AV-unprocessed.smi

> <i_m_source_file_index>
3287

> <i_lp_mmshare_version>
43012

> <i_f3d_flags>
0

> <s_epik_input>
W0NIM11bQ0BASF0xW0NIMl1bQ0gyXVtDQEhdKFtDSDJdW0NASF0xW0NIM10pW05IXVtDSDJdW0NASF0oW09IXSljMltjSF1bY0hdbltjSF1bY0hdMg==

> <s_epik_cmdline>
J2VwaWtfcHl0aG9uJywgJy1waCcsICc3LjAnLCAnLXRuJywgJzgnLCAnLW1hJywgJzIwMCcsICctbWV0YWxfYmluZGluZycsICctaW1hZScsICc8aW5maWxlLm1hZT4nLCAnLW9tYWUnLCAnPG91dGZpbGUubWFlPic=

> <r_lp_tautomer_probability>
1

> <r_epik_Ionization_Penalty>
0.00537262

> <r_epik_Ionization_Penalty_Charging>
0.00321624

> <r_epik_Ionization_Penalty_Neutral>
0.00215638

> <r_epik_State_Penalty>
-0

> <r_epik_Charging_Adjusted_Penalty>
0.00321624

> <i_epik_Tot_Q>
1

> <i_epik_Tot_abs_Q>
1

> <r_epik_Metal_State_Penalty>
-0

> <b_epik_Metal_Only>
0

> <s_lp_Force_Field>
OPLS_2005

> <r_lp_Energy>
18.3798

> <b_lp_Chiralities_Consistent>
1

> <s_lp_Variant>
AV-unprocessed.smi:3287-4

> <Gold.Version>
5.8.1

> <Gold.Id.Protein>
6NUR|6NUR_protein|mol2

> <Gold.PLP.Fitness>
47.7051

> <Gold.PLP.PLP>
-39.2869

> <Gold.PLP.part.hbond>
-2.3142

> <Gold.PLP.part.metal>
0.0000

> <Gold.PLP.part.buried>
-2.8805

> <Gold.PLP.part.nonpolar>
-33.8388

> <Gold.PLP.part.repulsive>
0.2015

> <Gold.PLP.ligand.clash>
0.0000

> <Gold.PLP.ligand.torsion>
0.3007

> <Gold.PLP.Chemscore.Hbond>
3.0000

> <Gold.PLP.Chemscore.CHOScore>
0.0000

> <Gold.PLP.Chemscore.Metal>
0.0000

> <Gold.Chemscore.Hbonds>
donor molecule, donor type, donor heavy atom, donor atom, acceptor molecule, acceptor atom, score
      L1  H     6    28       P1  8029  2.00
      L1  H     9    32       P1  8029  1.00

> <Gold.PLP.Chemscore.Internal.Correction>
0.0196

> <Gold.Rescore>
     Score         DG    S(hbond)    S(metal)    S(lipo)     H(rot)  DE(clash)    DE(int)     intcor
     19.01     -19.68       1.84        0.00     110.50       1.90       0.27       0.40       ----

> <Gold.Chemscore.Fitness>
19.0089

> <Gold.Chemscore.DG>
-19.6774

> <Gold.Chemscore.ZeroCoef>
-5.4800

> <Gold.Chemscore.Hbond>
1.8387

> <Gold.Chemscore.Metal>
0.0000

> <Gold.Chemscore.Lipo>
110.5031

> <Gold.Chemscore.Internal_Hbond>
0.0000

> <Gold.Chemscore.DEClash>
0.2662

> <Gold.Chemscore.DEInternal>
0.4023

> <Gold.Chemscore.Rot>
1.9035

> <Gold.Chemscore.Internal.Correction>
   9.000000E+99

> <Gold.Chemscore.Hbonds>
donor molecule, donor type, donor heavy atom, donor atom, acceptor molecule, acceptor atom, score
      L1  H     6    28       P1  8029  0.93
      L1  H     9    32       P1  8029  0.79

> <Gold.Chemscore.Hbond.Weighted>
-6.1414

> <Gold.Chemscore.Metal.Weighted>
-0.0000

> <Gold.Chemscore.Lipo.Weighted>
-12.9289

> <Gold.Chemscore.Internal_Hbond.Weighted>
0.0000

> <Gold.Chemscore.DEClash.Weighted>
0.2662

> <Gold.Chemscore.DEInternal.Weighted>
0.4023

> <Gold.Chemscore.Rot.Weighted>
4.8729

> <Gold.Chemscore.Internal.Correction.Weighted>
   9.000000E+99

> <Gold.Protein.RotatedTorsions>
[ 6907 6896 6895 6894 ] final  112.82 input  -60.11 | X-H torsion
[ 7974 7965 7964 7962 ] final  -69.12 input  175.53 | X-H torsion
[ 8008 7997 7996 7995 ] final  -18.97 input   59.86 | X-H torsion
[ 10167 10162 10161 10158 ] final  -47.69 input  -65.29 | X-H torsion
[ 10718 10713 10712 10709 ] final  118.21 input   66.30 | X-H torsion
[ 10763 10752 10751 10750 ] final   80.29 input  -60.55 | X-H torsion
[ 11005 11000 10999 10996 ] final  -46.97 input  -57.11 | X-H torsion

> <Gold.Protein.ActiveResidues>
 VAL166  LYS551  ARG553  GLY616  TRP617  ASP618  TYR619  PRO620  LYS621  CYS622 
 ASP623  PHE694  ASN695  SER759  ASP760  ASP761  ALA762  ILE779  LEU786  VAL792 
 PHE793  MET794  SER795  GLU796  ALA797  LYS798  CYS799  TRP800  GLU811  SER814 

> <Gold.Protein.RotatedAtoms>
  152.4895  133.8462  159.7177 H   0  0  0  0  0  0  0  0  0  0  0  0  # atno 6907 bound_to 6896
  150.9012  133.7107  159.2885 H   0  0  0  0  0  0  0  0  0  0  0  0  # atno 6908 bound_to 6896
  151.4548  135.1037  159.9760 H   0  0  0  0  0  0  0  0  0  0  0  0  # atno 6909 bound_to 6896
  145.7078  140.9090  143.0696 H   0  0  0  0  0  0  0  0  0  0  0  0  # atno 7974 bound_to 7965
  154.4869  140.2101  155.9635 H   0  0  0  0  0  0  0  0  0  0  0  0  # atno 8008 bound_to 7997
  156.1249  140.3207  155.8231 H   0  0  0  0  0  0  0  0  0  0  0  0  # atno 8009 bound_to 7997
  155.4402  140.0509  157.3002 H   0  0  0  0  0  0  0  0  0  0  0  0  # atno 8010 bound_to 7997
  140.6764  143.2773  151.3963 H   0  0  0  0  0  0  0  0  0  0  0  0  # atno 10167 bound_to 10162
  157.6045  131.1045  150.7724 H   0  0  0  0  0  0  0  0  0  0  0  0  # atno 10718 bound_to 10713
  153.1021  135.4808  154.8886 H   0  0  0  0  0  0  0  0  0  0  0  0  # atno 10763 bound_to 10752
  154.7390  135.3078  154.8763 H   0  0  0  0  0  0  0  0  0  0  0  0  # atno 10764 bound_to 10752
  153.9377  135.6837  153.4798 H   0  0  0  0  0  0  0  0  0  0  0  0  # atno 10765 bound_to 10752
  141.0612  133.6708  156.3231 H   0  0  0  0  0  0  0  0  0  0  0  0  # atno 11005 bound_to 11000
  144.6950  139.9034  143.7460 LP  0  0  0  0  0  0  0  0  0  0  0  0  # atno 17320 bound_to 7965
  146.0740  139.3728  143.0506 LP  0  0  0  0  0  0  0  0  0  0  0  0  # atno 17321 bound_to 7965
  139.6059  144.1199  152.2248 LP  0  0  0  0  0  0  0  0  0  0  0  0  # atno 17342 bound_to 10162
  140.0598  144.5866  150.7272 LP  0  0  0  0  0  0  0  0  0  0  0  0  # atno 17343 bound_to 10162
  156.8115  130.4954  149.5355 LP  0  0  0  0  0  0  0  0  0  0  0  0  # atno 17370 bound_to 10713
  156.1128  130.6052  151.0073 LP  0  0  0  0  0  0  0  0  0  0  0  0  # atno 17371 bound_to 10713
  140.5865  134.5694  157.5490 LP  0  0  0  0  0  0  0  0  0  0  0  0  # atno 17394 bound_to 11000
  139.9434  134.7745  156.0621 LP  0  0  0  0  0  0  0  0  0  0  0  0  # atno 17395 bound_to 11000

$$$$
