AV-unprocessed.smi:221|AV-procd|sdf|1692|dock4
  -GOLD-   2262020133D 1   1.00000     0.00000
 Structure written by MMmdl.
 50 53  0  0  0  0  0  0  0  0  1 V2000
  141.9884  134.1027  154.2607 N   0  0  0  0  0  0  0  0  0  0  0  0
  142.1018  135.2197  153.5356 C   0  0  0  0  0  0  0  0  0  0  0  0
  141.5453  136.2644  153.8681 O   0  0  0  0  0  0  0  0  0  0  0  0
  142.9675  135.1605  152.2594 C   0  0  2  0  0  0  0  0  0  0  0  0
  143.4755  133.7646  151.8748 C   0  0  0  0  0  0  0  0  0  0  0  0
  144.5687  134.0668  150.8474 C   0  0  2  0  0  0  0  0  0  0  0  0
  145.6151  133.2572  151.0109 F   0  0  0  0  0  0  0  0  0  0  0  0
  144.9452  135.5415  151.0727 C   0  0  0  0  0  0  0  0  0  0  0  0
  144.1587  136.0198  152.2083 N   0  0  0  0  0  0  0  0  0  0  0  0
  144.9085  136.1796  153.3292 C   0  0  0  0  0  0  0  0  0  0  0  0
  144.7569  135.3506  154.3965 N   0  0  0  0  0  0  0  0  0  0  0  0
  145.5063  135.5227  155.4896 C   0  0  0  0  0  0  0  0  0  0  0  0
  146.4509  136.4382  155.7187 N   0  0  0  0  0  0  0  0  0  0  0  0
  146.6068  137.2661  154.6463 C   0  0  0  0  0  0  0  0  0  0  0  0
  145.8835  137.2062  153.4232 C   0  0  0  0  0  0  0  0  0  0  0  0
  146.3105  138.2108  152.5644 N   0  0  0  0  0  0  0  0  0  0  0  0
  147.2393  138.8298  153.2416 C   0  0  0  0  0  0  0  0  0  0  0  0
  147.4845  138.3244  154.4989 N   0  0  0  0  0  0  0  0  0  0  0  0
  148.4576  138.8128  155.4597 C   0  0  0  0  0  0  0  0  0  0  0  0
  149.7812  139.2852  154.8079 C   0  0  1  0  0  0  0  0  0  0  0  0
  149.8782  140.8258  154.6940 C   0  0  0  0  0  0  0  0  0  0  0  0
  149.2593  141.2967  153.5145 O   0  0  0  0  0  0  0  0  0  0  0  0
  151.0108  138.6646  155.5180 C   0  0  2  0  0  0  0  0  0  0  0  0
  151.2466  139.1462  156.9386 C   0  0  0  0  0  0  0  0  0  0  0  0
  152.7024  138.7583  157.1705 C   0  0  0  0  0  0  0  0  0  0  0  0
  153.3381  138.8857  155.9041 O   0  0  0  0  0  0  0  0  0  0  0  0
  152.3585  139.0162  154.8784 C   0  0  0  0  0  0  0  0  0  0  0  0
  142.3172  135.5099  151.4556 H   0  0  0  0  0  0  0  0  0  0  0  0
  144.2031  133.9186  149.8309 H   0  0  0  0  0  0  0  0  0  0  0  0
  141.4284  134.1054  155.1009 H   0  0  0  0  0  0  0  0  0  0  0  0
  142.4610  133.2604  153.9658 H   0  0  0  0  0  0  0  0  0  0  0  0
  143.8966  133.2502  152.7398 H   0  0  0  0  0  0  0  0  0  0  0  0
  142.6886  133.1307  151.4651 H   0  0  0  0  0  0  0  0  0  0  0  0
  146.0212  135.6632  151.2168 H   0  0  0  0  0  0  0  0  0  0  0  0
  144.6786  136.1360  150.1982 H   0  0  0  0  0  0  0  0  0  0  0  0
  145.3235  134.8269  156.2951 H   0  0  0  0  0  0  0  0  0  0  0  0
  147.7807  139.6732  152.8376 H   0  0  0  0  0  0  0  0  0  0  0  0
  148.0041  139.6291  156.0235 H   0  0  0  0  0  0  0  0  0  0  0  0
  148.6461  138.0125  156.1757 H   0  0  0  0  0  0  0  0  0  0  0  0
  149.7806  138.9078  153.7842 H   0  0  0  0  0  0  0  0  0  0  0  0
  149.4110  141.3094  155.5515 H   0  0  0  0  0  0  0  0  0  0  0  0
  150.9177  141.1541  154.6996 H   0  0  0  0  0  0  0  0  0  0  0  0
  149.1271  140.5640  152.9322 H   0  0  0  0  0  0  0  0  0  0  0  0
  150.9117  137.5778  155.5367 H   0  0  0  0  0  0  0  0  0  0  0  0
  151.1334  140.2296  156.9995 H   0  0  0  0  0  0  0  0  0  0  0  0
  150.5751  138.6895  157.6662 H   0  0  0  0  0  0  0  0  0  0  0  0
  153.1855  139.3791  157.9252 H   0  0  0  0  0  0  0  0  0  0  0  0
  152.7719  137.7181  157.4909 H   0  0  0  0  0  0  0  0  0  0  0  0
  152.5956  138.3764  154.0283 H   0  0  0  0  0  0  0  0  0  0  0  0
  152.3654  140.0510  154.5328 H   0  0  0  0  0  0  0  0  0  0  0  0
  1  2  1  0  0  0  0
  1 30  1  0  0  0  0
  1 31  1  0  0  0  0
  2  3  2  0  0  0  0
  2  4  1  0  0  0  0
  4 28  1  0  0  0  0
  4  9  1  0  0  0  0
  4  5  1  0  0  0  0
  5  6  1  0  0  0  0
  5 32  1  0  0  0  0
  5 33  1  0  0  0  0
  6 29  1  0  0  0  0
  6  7  1  0  0  0  0
  6  8  1  0  0  0  0
  8  9  1  0  0  0  0
  8 34  1  0  0  0  0
  8 35  1  0  0  0  0
  9 10  1  0  0  0  0
 10 15  1  0  0  0  0
 10 11  2  0  0  0  0
 11 12  1  0  0  0  0
 12 13  2  0  0  0  0
 12 36  1  0  0  0  0
 13 14  1  0  0  0  0
 14 18  1  0  0  0  0
 14 15  2  0  0  0  0
 15 16  1  0  0  0  0
 16 17  2  0  0  0  0
 17 18  1  0  0  0  0
 17 37  1  0  0  0  0
 18 19  1  0  0  0  0
 19 20  1  0  0  0  0
 19 38  1  0  0  0  0
 19 39  1  0  0  0  0
 20 21  1  0  0  0  0
 20 23  1  0  0  0  0
 20 40  1  0  0  0  0
 21 22  1  0  0  0  0
 21 41  1  0  0  0  0
 21 42  1  0  0  0  0
 22 43  1  0  0  0  0
 23 27  1  0  0  0  0
 23 24  1  0  0  0  0
 23 44  1  0  0  0  0
 24 25  1  0  0  0  0
 24 45  1  0  0  0  0
 24 46  1  0  0  0  0
 25 26  1  0  0  0  0
 25 47  1  0  0  0  0
 25 48  1  0  0  0  0
 26 27  1  0  0  0  0
 27 49  1  0  0  0  0
 27 50  1  0  0  0  0
M  END
> <s_m_source_file>
AV-unprocessed.smi

> <i_m_source_file_index>
221

> <i_lp_mmshare_version>
43012

> <i_f3d_flags>
0

> <s_epik_input>
W05IMl1DKD1PKVtDQEBIXTFbQ0gyXVtDQEBIXShGKVtDSDJdTjFjKG5bY0hdbjIpYyhjMjMpbltjSF1uM1tDSDJdW0NASF0oW0NIMl1bT0hdKVtDQEBIXTRbQ0gyXVtDSDJdT1tDSDJdNA==

> <s_epik_cmdline>
J2VwaWtfcHl0aG9uJywgJy1waCcsICc3LjAnLCAnLXRuJywgJzgnLCAnLW1hJywgJzIwMCcsICctbWV0YWxfYmluZGluZycsICctaW1hZScsICc8aW5maWxlLm1hZT4nLCAnLW9tYWUnLCAnPG91dGZpbGUubWFlPic=

> <r_lp_tautomer_probability>
1

> <r_epik_Ionization_Penalty>
0.000818822

> <r_epik_Ionization_Penalty_Charging>
0

> <r_epik_Ionization_Penalty_Neutral>
0.000818822

> <r_epik_State_Penalty>
0.000440551

> <r_epik_Charging_Adjusted_Penalty>
0.000440551

> <i_epik_Tot_Q>
0

> <i_epik_Tot_abs_Q>
0

> <r_epik_Metal_State_Penalty>
-0

> <b_epik_Metal_Only>
0

> <s_lp_Force_Field>
OPLS_2005

> <r_lp_Energy>
53.4739

> <b_lp_Chiralities_Consistent>
1

> <s_lp_Variant>
AV-unprocessed.smi:221-7

> <Gold.Version>
5.8.1

> <Gold.Id.Protein>
6NUR|6NUR_protein|mol2

> <Gold.PLP.Fitness>
49.7153

> <Gold.PLP.PLP>
-36.5164

> <Gold.PLP.part.hbond>
-6.0000

> <Gold.PLP.part.metal>
0.0000

> <Gold.PLP.part.buried>
-5.5987

> <Gold.PLP.part.nonpolar>
-25.5390

> <Gold.PLP.part.repulsive>
0.6427

> <Gold.PLP.ligand.clash>
0.0000

> <Gold.PLP.ligand.torsion>
1.6574

> <Gold.PLP.Chemscore.Hbond>
4.4480

> <Gold.PLP.Chemscore.CHOScore>
1.0000

> <Gold.PLP.Chemscore.Metal>
0.0000

> <Gold.Chemscore.Hbonds>
donor molecule, donor type, donor heavy atom, donor atom, acceptor molecule, acceptor atom, score
      L1  H     1    30       P1 11000  1.00
      L1  H     1    31       P1 10957  0.59
      L1  H    22    43       P1  7957  0.77
      P1  H  7997  8009       L1    26  0.95
      P1  H  8011  8017       L1    22  0.82
      L1  C    17    37       P1  7957  1.00

> <Gold.PLP.Chemscore.Internal.Correction>
0.1696

> <Gold.Rescore>
     Score         DG    S(hbond)    S(metal)    S(lipo)     H(rot)  DE(clash)    DE(int)     intcor
     14.05     -17.43       4.21        0.00      63.28       3.72       0.22       3.16       ----

> <Gold.Chemscore.Fitness>
14.0507

> <Gold.Chemscore.DG>
-17.4320

> <Gold.Chemscore.ZeroCoef>
-5.4800

> <Gold.Chemscore.Hbond>
4.2130

> <Gold.Chemscore.Metal>
0.0000

> <Gold.Chemscore.Lipo>
63.2848

> <Gold.Chemscore.Internal_Hbond>
0.0000

> <Gold.Chemscore.DEClash>
0.2217

> <Gold.Chemscore.DEInternal>
3.1595

> <Gold.Chemscore.Rot>
3.7202

> <Gold.Chemscore.Internal.Correction>
   9.000000E+99

> <Gold.Chemscore.Hbonds>
donor molecule, donor type, donor heavy atom, donor atom, acceptor molecule, acceptor atom, score
      L1  H     1    30       P1 11000  0.94
      L1  H     1    31       P1 10957  0.60
      L1  H    22    43       P1  7957  0.76
      P1  H  7997  8009       L1    26  0.20
      P1  H  8011  8017       L1    22  0.14

> <Gold.Chemscore.Hbond.Weighted>
-14.0714

> <Gold.Chemscore.Metal.Weighted>
-0.0000

> <Gold.Chemscore.Lipo.Weighted>
-7.4043

> <Gold.Chemscore.Internal_Hbond.Weighted>
0.0000

> <Gold.Chemscore.DEClash.Weighted>
0.2217

> <Gold.Chemscore.DEInternal.Weighted>
3.1595

> <Gold.Chemscore.Rot.Weighted>
9.5237

> <Gold.Chemscore.Internal.Correction.Weighted>
   9.000000E+99

> <Gold.Protein.RotatedTorsions>
[ 6907 6896 6895 6894 ] final  173.47 input  -60.11 | X-H torsion
[ 7974 7965 7964 7962 ] final   26.36 input  175.53 | X-H torsion
[ 8008 7997 7996 7995 ] final -158.20 input   59.86 | X-H torsion
[ 10167 10162 10161 10158 ] final   61.65 input  -65.29 | X-H torsion
[ 10718 10713 10712 10709 ] final   41.93 input   66.30 | X-H torsion
[ 10763 10752 10751 10750 ] final  -33.47 input  -60.55 | X-H torsion
[ 11005 11000 10999 10996 ] final -151.84 input  -57.11 | X-H torsion

> <Gold.Protein.ActiveResidues>
 VAL166  LYS551  ARG553  GLY616  TRP617  ASP618  TYR619  PRO620  LYS621  CYS622 
 ASP623  PHE694  ASN695  SER759  ASP760  ASP761  ALA762  ILE779  LEU786  VAL792 
 PHE793  MET794  SER795  GLU796  ALA797  LYS798  CYS799  TRP800  GLU811  SER814 

> <Gold.Protein.RotatedAtoms>
  151.7677  133.3338  159.3435 H   0  0  0  0  0  0  0  0  0  0  0  0  # atno 6907 bound_to 6896
  150.7473  134.6047  159.6064 H   0  0  0  0  0  0  0  0  0  0  0  0  # atno 6908 bound_to 6896
  152.3362  134.7196  160.0327 H   0  0  0  0  0  0  0  0  0  0  0  0  # atno 6909 bound_to 6896
  146.1841  139.7339  142.8879 H   0  0  0  0  0  0  0  0  0  0  0  0  # atno 7974 bound_to 7965
  155.7440  140.0818  157.2232 H   0  0  0  0  0  0  0  0  0  0  0  0  # atno 8008 bound_to 7997
  154.4019  140.1572  156.2703 H   0  0  0  0  0  0  0  0  0  0  0  0  # atno 8009 bound_to 7997
  155.8994  140.3410  155.6017 H   0  0  0  0  0  0  0  0  0  0  0  0  # atno 8010 bound_to 7997
  140.1525  144.4449  150.6752 H   0  0  0  0  0  0  0  0  0  0  0  0  # atno 10167 bound_to 10162
  157.3992  130.7850  149.7334 H   0  0  0  0  0  0  0  0  0  0  0  0  # atno 10718 bound_to 10713
  153.8308  135.6866  153.4815 H   0  0  0  0  0  0  0  0  0  0  0  0  # atno 10763 bound_to 10752
  153.1512  135.4617  154.9637 H   0  0  0  0  0  0  0  0  0  0  0  0  # atno 10764 bound_to 10752
  154.7887  135.3294  154.7771 H   0  0  0  0  0  0  0  0  0  0  0  0  # atno 10765 bound_to 10752
  140.7253  134.3682  157.5176 H   0  0  0  0  0  0  0  0  0  0  0  0  # atno 11005 bound_to 11000
  145.3989  141.0382  143.3082 LP  0  0  0  0  0  0  0  0  0  0  0  0  # atno 17320 bound_to 7965
  144.8367  139.5539  143.6919 LP  0  0  0  0  0  0  0  0  0  0  0  0  # atno 17321 bound_to 7965
  140.6694  143.2280  151.5664 LP  0  0  0  0  0  0  0  0  0  0  0  0  # atno 17342 bound_to 10162
  139.5419  144.2624  152.1367 LP  0  0  0  0  0  0  0  0  0  0  0  0  # atno 17343 bound_to 10162
  155.9818  130.4015  150.3449 LP  0  0  0  0  0  0  0  0  0  0  0  0  # atno 17370 bound_to 10713
  157.1574  131.0336  151.2857 LP  0  0  0  0  0  0  0  0  0  0  0  0  # atno 17371 bound_to 10713
  139.8838  134.8982  156.2740 LP  0  0  0  0  0  0  0  0  0  0  0  0  # atno 17394 bound_to 11000
  140.9968  133.7175  156.0898 LP  0  0  0  0  0  0  0  0  0  0  0  0  # atno 17395 bound_to 11000

$$$$
