AV-unprocessed.smi:560|AV-procd|sdf|2933|dock4
  -GOLD-   2262023423D 1   1.00000     0.00000
 Structure written by MMmdl.
 41 42  0  0  0  0  0  0  0  0  3 V2000
  152.1501  139.5358  155.8566 C   0  0  0  0  0  0  0  0  0  0  0  0
  151.2094  140.7560  155.9200 C   0  0  1  0  0  0  0  0  0  0  0  0
  149.7316  140.3764  155.7352 C   0  0  0  0  0  0  0  0  0  0  0  0
  148.8731  140.7883  156.5166 O   0  0  0  0  0  0  0  0  0  0  0  0
  149.4488  139.5829  154.6895 N   0  0  0  0  0  0  0  0  0  0  0  0
  148.1162  139.1107  154.3270 C   0  0  2  0  0  0  0  0  0  0  0  0
  147.9356  137.6299  154.7102 C   0  0  0  0  0  0  0  0  0  0  0  0
  146.5772  137.0929  154.2318 C   0  0  0  0  0  0  0  0  0  0  0  0
  146.4178  137.2778  152.7650 N   0  3  1  0  0  0  0  0  0  0  0  0
  145.1900  136.6430  152.2207 C   0  0  0  0  0  0  0  0  0  0  0  0
  145.5236  135.7451  151.0236 C   0  0  0  0  0  0  0  0  0  0  0  0
  145.0291  136.2270  149.8652 N   0  5  0  0  0  0  0  0  0  0  0  0
  146.1750  134.7180  151.1972 O   0  0  0  0  0  0  0  0  0  0  0  0
  146.5410  138.7049  152.3765 C   0  0  0  0  0  0  0  0  0  0  0  0
  147.8968  139.2832  152.8152 C   0  0  0  0  0  0  0  0  0  0  0  0
  151.3869  141.5245  157.1465 N   0  0  0  0  0  0  0  0  0  0  0  0
  150.7800  142.7134  157.4976 C   0  0  0  0  0  0  0  0  0  0  0  0
  151.2197  143.0464  158.7465 C   0  0  0  0  0  0  0  0  0  0  0  0
  152.0962  141.9807  159.0915 C   0  0  0  0  0  0  0  0  0  0  0  0
  152.1888  141.0692  158.1375 N   0  0  0  0  0  0  0  0  0  0  0  0
  152.0429  139.0062  154.9094 H   0  0  0  0  0  0  0  0  0  0  0  0
  151.9541  138.8221  156.6577 H   0  0  0  0  0  0  0  0  0  0  0  0
  153.1920  139.8463  155.9406 H   0  0  0  0  0  0  0  0  0  0  0  0
  151.4818  141.4107  155.0903 H   0  0  0  0  0  0  0  0  0  0  0  0
  150.2132  139.2894  154.0986 H   0  0  0  0  0  0  0  0  0  0  0  0
  147.3704  139.7103  154.8529 H   0  0  0  0  0  0  0  0  0  0  0  0
  148.7351  137.0316  154.2704 H   0  0  0  0  0  0  0  0  0  0  0  0
  148.0161  137.5055  155.7908 H   0  0  0  0  0  0  0  0  0  0  0  0
  146.5019  136.0363  154.4901 H   0  0  0  0  0  0  0  0  0  0  0  0
  145.7670  137.6034  154.7545 H   0  0  0  0  0  0  0  0  0  0  0  0
  144.6774  136.0750  152.9991 H   0  0  0  0  0  0  0  0  0  0  0  0
  144.4879  137.4048  151.8778 H   0  0  0  0  0  0  0  0  0  0  0  0
  144.5341  137.1271  149.8782 H   0  0  0  0  0  0  0  0  0  0  0  0
  146.4463  138.8002  151.2942 H   0  0  0  0  0  0  0  0  0  0  0  0
  145.7233  139.2759  152.8193 H   0  0  0  0  0  0  0  0  0  0  0  0
  147.9506  140.3390  152.5469 H   0  0  0  0  0  0  0  0  0  0  0  0
  148.6951  138.7833  152.2642 H   0  0  0  0  0  0  0  0  0  0  0  0
  150.0930  143.2197  156.8356 H   0  0  0  0  0  0  0  0  0  0  0  0
  150.9530  143.9167  159.3272 H   0  0  0  0  0  0  0  0  0  0  0  0
  152.6606  141.8412  160.0018 H   0  0  0  0  0  0  0  0  0  0  0  0
  147.1846  136.7920  152.3203 H   0  0  0  0  0  0  0  0  0  0  0  0
  1  2  1  0  0  0  0
  1 21  1  0  0  0  0
  1 22  1  0  0  0  0
  1 23  1  0  0  0  0
  2  3  1  0  0  0  0
  2 16  1  0  0  0  0
  2 24  1  0  0  0  0
  3  4  2  0  0  0  0
  3  5  1  0  0  0  0
  5  6  1  0  0  0  0
  5 25  1  0  0  0  0
  6 15  1  0  0  0  0
  6  7  1  0  0  0  0
  6 26  1  0  0  0  0
  7  8  1  0  0  0  0
  7 27  1  0  0  0  0
  7 28  1  0  0  0  0
  8  9  1  0  0  0  0
  8 29  1  0  0  0  0
  8 30  1  0  0  0  0
  9 10  1  0  0  0  0
  9 14  1  0  0  0  0
  9 41  1  0  0  0  0
 10 11  1  0  0  0  0
 10 31  1  0  0  0  0
 10 32  1  0  0  0  0
 11 12  1  0  0  0  0
 11 13  2  0  0  0  0
 12 33  1  0  0  0  0
 14 15  1  0  0  0  0
 14 34  1  0  0  0  0
 14 35  1  0  0  0  0
 15 36  1  0  0  0  0
 15 37  1  0  0  0  0
 16 20  1  0  0  0  0
 16 17  1  0  0  0  0
 17 18  2  0  0  0  0
 17 38  1  0  0  0  0
 18 19  1  0  0  0  0
 18 39  1  0  0  0  0
 19 20  2  0  0  0  0
 19 40  1  0  0  0  0
M  CHG  1   9   1
M  CHG  1  12  -1
M  END
> <s_m_source_file>
AV-unprocessed.smi

> <i_m_source_file_index>
560

> <i_lp_mmshare_version>
43012

> <i_f3d_flags>
0

> <s_epik_input>
bjFbY0hdW2NIXVtjSF1uMVtDQEhdKFtDSDNdKUMoPU8pW05IXVtDSF0yW0NIMl1bQ0gyXU4oW0NIMl1bQ0gyXTIpW0NIMl1DKD1PKVtOSDJd

> <s_epik_cmdline>
J2VwaWtfcHl0aG9uJywgJy1waCcsICc3LjAnLCAnLXRuJywgJzgnLCAnLW1hJywgJzIwMCcsICctbWV0YWxfYmluZGluZycsICctaW1hZScsICc8aW5maWxlLm1hZT4nLCAnLW9tYWUnLCAnPG91dGZpbGUubWFlPic=

> <r_lp_tautomer_probability>
1

> <r_epik_Ionization_Penalty>
5.71084

> <r_epik_Ionization_Penalty_Charging>
5.71081

> <r_epik_Ionization_Penalty_Neutral>
3.04611e-05

> <r_epik_State_Penalty>
6.71277

> <r_epik_Charging_Adjusted_Penalty>
12.4236

> <i_epik_Tot_Q>
0

> <i_epik_Tot_abs_Q>
2

> <r_epik_Metal_State_Penalty>
2.67562

> <b_epik_Metal_Only>
1

> <s_lp_Force_Field>
OPLS_2005

> <r_lp_Energy>
10.2497

> <b_lp_Chiralities_Consistent>
1

> <s_lp_Variant>
AV-unprocessed.smi:560-8

> <Gold.Version>
5.8.1

> <Gold.Id.Protein>
6NUR|6NUR_protein|mol2

> <Gold.PLP.Fitness>
39.6191

> <Gold.PLP.PLP>
-29.6346

> <Gold.PLP.part.hbond>
-3.0000

> <Gold.PLP.part.metal>
0.0000

> <Gold.PLP.part.buried>
-1.0476

> <Gold.PLP.part.nonpolar>
-26.3258

> <Gold.PLP.part.repulsive>
0.3574

> <Gold.PLP.ligand.clash>
0.0000

> <Gold.PLP.ligand.torsion>
1.0740

> <Gold.PLP.Chemscore.Hbond>
3.0000

> <Gold.PLP.Chemscore.CHOScore>
1.0000

> <Gold.PLP.Chemscore.Metal>
0.0000

> <Gold.Chemscore.Hbonds>
donor molecule, donor type, donor heavy atom, donor atom, acceptor molecule, acceptor atom, score
      L1  H     9    41       P1  7948  2.00
      L1  H    12    33       P1 10171  1.00
      L1  C    17    38       P1  8028  1.00

> <Gold.PLP.Chemscore.Internal.Correction>
0.1325

> <Gold.Rescore>
     Score         DG    S(hbond)    S(metal)    S(lipo)     H(rot)  DE(clash)    DE(int)     intcor
     11.42     -14.42       1.99        0.00      73.76       2.47       1.64       1.37       ----

> <Gold.Chemscore.Fitness>
11.4160

> <Gold.Chemscore.DG>
-14.4227

> <Gold.Chemscore.ZeroCoef>
-5.4800

> <Gold.Chemscore.Hbond>
1.9893

> <Gold.Chemscore.Metal>
0.0000

> <Gold.Chemscore.Lipo>
73.7638

> <Gold.Chemscore.Internal_Hbond>
0.0000

> <Gold.Chemscore.DEClash>
1.6380

> <Gold.Chemscore.DEInternal>
1.3687

> <Gold.Chemscore.Rot>
2.4734

> <Gold.Chemscore.Internal.Correction>
   9.000000E+99

> <Gold.Chemscore.Hbonds>
donor molecule, donor type, donor heavy atom, donor atom, acceptor molecule, acceptor atom, score
      L1  H     9    41       P1  7948  1.00
      L1  H    12    33       P1 10171  0.98

> <Gold.Chemscore.Hbond.Weighted>
-6.6441

> <Gold.Chemscore.Metal.Weighted>
-0.0000

> <Gold.Chemscore.Lipo.Weighted>
-8.6304

> <Gold.Chemscore.Internal_Hbond.Weighted>
0.0000

> <Gold.Chemscore.DEClash.Weighted>
1.6380

> <Gold.Chemscore.DEInternal.Weighted>
1.3687

> <Gold.Chemscore.Rot.Weighted>
6.3318

> <Gold.Chemscore.Internal.Correction.Weighted>
   9.000000E+99

> <Gold.Protein.RotatedTorsions>
[ 6907 6896 6895 6894 ] final  176.70 input  -60.11 | X-H torsion
[ 7974 7965 7964 7962 ] final -168.97 input  175.53 | X-H torsion
[ 8008 7997 7996 7995 ] final  -30.61 input   59.86 | X-H torsion
[ 10167 10162 10161 10158 ] final  -83.61 input  -65.29 | X-H torsion
[ 10718 10713 10712 10709 ] final  149.23 input   66.30 | X-H torsion
[ 10763 10752 10751 10750 ] final  -29.49 input  -60.55 | X-H torsion
[ 11005 11000 10999 10996 ] final   52.15 input  -57.11 | X-H torsion

> <Gold.Protein.ActiveResidues>
 VAL166  LYS551  ARG553  GLY616  TRP617  ASP618  TYR619  PRO620  LYS621  CYS622 
 ASP623  PHE694  ASN695  SER759  ASP760  ASP761  ALA762  ILE779  LEU786  VAL792 
 PHE793  MET794  SER795  GLU796  ALA797  LYS798  CYS799  TRP800  GLU811  SER814 

> <Gold.Protein.RotatedAtoms>
  151.7160  133.3313  159.3302 H   0  0  0  0  0  0  0  0  0  0  0  0  # atno 6907 bound_to 6896
  150.7673  134.6490  159.6287 H   0  0  0  0  0  0  0  0  0  0  0  0  # atno 6908 bound_to 6896
  152.3682  134.6776  160.0237 H   0  0  0  0  0  0  0  0  0  0  0  0  # atno 6909 bound_to 6896
  144.7193  140.2291  143.6306 H   0  0  0  0  0  0  0  0  0  0  0  0  # atno 7974 bound_to 7965
  154.4244  140.1786  156.1435 H   0  0  0  0  0  0  0  0  0  0  0  0  # atno 8008 bound_to 7997
  155.9973  140.3363  155.6786 H   0  0  0  0  0  0  0  0  0  0  0  0  # atno 8009 bound_to 7997
  155.6291  140.0668  157.2645 H   0  0  0  0  0  0  0  0  0  0  0  0  # atno 8010 bound_to 7997
  140.4210  143.2584  151.8890 H   0  0  0  0  0  0  0  0  0  0  0  0  # atno 10167 bound_to 10162
  157.2987  131.0867  151.1407 H   0  0  0  0  0  0  0  0  0  0  0  0  # atno 10718 bound_to 10713
  153.7655  135.6916  153.4917 H   0  0  0  0  0  0  0  0  0  0  0  0  # atno 10763 bound_to 10752
  153.1910  135.4471  155.0147 H   0  0  0  0  0  0  0  0  0  0  0  0  # atno 10764 bound_to 10752
  154.8137  135.3389  154.7167 H   0  0  0  0  0  0  0  0  0  0  0  0  # atno 10765 bound_to 10752
  140.0873  134.5257  155.8887 H   0  0  0  0  0  0  0  0  0  0  0  0  # atno 11005 bound_to 11000
  145.8428  139.2138  143.1817 LP  0  0  0  0  0  0  0  0  0  0  0  0  # atno 17320 bound_to 7965
  146.0331  140.8238  142.9866 LP  0  0  0  0  0  0  0  0  0  0  0  0  # atno 17321 bound_to 7965
  139.4782  144.5437  151.8490 LP  0  0  0  0  0  0  0  0  0  0  0  0  # atno 17342 bound_to 10162
  140.4533  144.1824  150.5899 LP  0  0  0  0  0  0  0  0  0  0  0  0  # atno 17343 bound_to 10162
  157.2774  130.6733  149.6049 LP  0  0  0  0  0  0  0  0  0  0  0  0  # atno 17370 bound_to 10713
  155.9670  130.4460  150.5524 LP  0  0  0  0  0  0  0  0  0  0  0  0  # atno 17371 bound_to 10713
  141.2066  133.6657  156.6256 LP  0  0  0  0  0  0  0  0  0  0  0  0  # atno 17394 bound_to 11000
  140.3402  134.7855  157.4392 LP  0  0  0  0  0  0  0  0  0  0  0  0  # atno 17395 bound_to 11000

$$$$
