AV-unprocessed.smi:249|AV-procd|sdf|1909|dock5
  -GOLD-   2262020593D 1   1.00000     0.00000
 Structure written by MMmdl.
 64 67  0  0  0  0  0  0  0  0  2 V2000
  151.7063  145.5204  160.2984 C   0  0  0  0  0  0  0  0  0  0  0  0
  151.1899  145.2879  158.8707 C   0  0  0  0  0  0  0  0  0  0  0  0
  151.1180  143.8497  158.4972 N   0  3  1  0  0  0  0  0  0  0  0  0
  151.3467  143.6366  157.0427 C   0  0  0  0  0  0  0  0  0  0  0  0
  151.0271  142.1917  156.6297 C   0  0  0  0  0  0  0  0  0  0  0  0
  151.8362  141.1871  157.4732 C   0  0  2  0  0  0  0  0  0  0  0  0
  151.6406  139.7853  157.0752 N   0  0  0  0  0  0  0  0  0  0  0  0
  151.1730  139.5228  155.7179 C   0  0  0  0  0  0  0  0  0  0  0  0
  151.3234  138.8069  157.9653 C   0  0  0  0  0  0  0  0  0  0  0  0
  152.2376  138.3859  158.8781 N   0  0  0  0  0  0  0  0  0  0  0  0
  151.9249  137.4368  159.7648 C   0  0  0  0  0  0  0  0  0  0  0  0
  150.7701  136.7880  159.9186 N   0  0  0  0  0  0  0  0  0  0  0  0
  149.8430  137.2097  159.0127 C   0  0  0  0  0  0  0  0  0  0  0  0
  150.0348  138.2022  158.0099 C   0  0  0  0  0  0  0  0  0  0  0  0
  148.8706  138.3496  157.2649 N   0  0  0  0  0  0  0  0  0  0  0  0
  148.0376  137.4998  157.8002 C   0  0  0  0  0  0  0  0  0  0  0  0
  148.5323  136.7890  158.8703 N   0  0  0  0  0  0  0  0  0  0  0  0
  147.8277  135.7808  159.6428 C   0  0  0  0  0  0  0  0  0  0  0  0
  146.6670  136.3227  160.5240 C   0  0  2  0  0  0  0  0  0  0  0  0
  147.2497  136.8581  161.8546 C   0  0  0  0  0  0  0  0  0  0  0  0
  146.4670  137.9147  162.3717 O   0  0  0  0  0  0  0  0  0  0  0  0
  145.5449  135.2708  160.7757 C   0  0  1  0  0  0  0  0  0  0  0  0
  145.9707  134.0562  161.5884 C   0  0  0  0  0  0  0  0  0  0  0  0
  144.6378  133.4933  162.0575 C   0  0  0  0  0  0  0  0  0  0  0  0
  143.8574  134.6402  162.3513 O   0  0  0  0  0  0  0  0  0  0  0  0
  144.3473  135.7555  161.6125 C   0  0  0  0  0  0  0  0  0  0  0  0
  151.6156  141.4531  158.9789 C   0  0  0  0  0  0  0  0  0  0  0  0
  151.9147  142.9186  159.3569 C   0  0  1  0  0  0  0  0  0  0  0  0
  153.4280  143.2250  159.3699 C   0  0  0  0  0  0  0  0  0  0  0  0
  151.6059  146.5704  160.5736 H   0  0  0  0  0  0  0  0  0  0  0  0
  152.7608  145.2641  160.3984 H   0  0  0  0  0  0  0  0  0  0  0  0
  151.1422  144.9342  161.0242 H   0  0  0  0  0  0  0  0  0  0  0  0
  150.1846  145.7071  158.8136 H   0  0  0  0  0  0  0  0  0  0  0  0
  151.7876  145.8458  158.1496 H   0  0  0  0  0  0  0  0  0  0  0  0
  150.7094  144.3109  156.4693 H   0  0  0  0  0  0  0  0  0  0  0  0
  152.3748  143.8897  156.7822 H   0  0  0  0  0  0  0  0  0  0  0  0
  149.9567  142.0242  156.7426 H   0  0  0  0  0  0  0  0  0  0  0  0
  151.2474  142.0612  155.5698 H   0  0  0  0  0  0  0  0  0  0  0  0
  152.8900  141.3860  157.2758 H   0  0  0  0  0  0  0  0  0  0  0  0
  151.8943  138.9079  155.1796 H   0  0  0  0  0  0  0  0  0  0  0  0
  151.0465  140.4486  155.1559 H   0  0  0  0  0  0  0  0  0  0  0  0
  150.2131  139.0040  155.7227 H   0  0  0  0  0  0  0  0  0  0  0  0
  152.7114  137.1591  160.4510 H   0  0  0  0  0  0  0  0  0  0  0  0
  147.0286  137.3772  157.4340 H   0  0  0  0  0  0  0  0  0  0  0  0
  147.4482  135.0218  158.9575 H   0  0  0  0  0  0  0  0  0  0  0  0
  148.5762  135.2831  160.2597 H   0  0  0  0  0  0  0  0  0  0  0  0
  146.2107  137.1727  160.0148 H   0  0  0  0  0  0  0  0  0  0  0  0
  147.2682  136.0870  162.6235 H   0  0  0  0  0  0  0  0  0  0  0  0
  148.2760  137.2009  161.7190 H   0  0  0  0  0  0  0  0  0  0  0  0
  145.9278  137.5765  163.0703 H   0  0  0  0  0  0  0  0  0  0  0  0
  145.1725  134.9112  159.8149 H   0  0  0  0  0  0  0  0  0  0  0  0
  146.5397  133.3272  161.0108 H   0  0  0  0  0  0  0  0  0  0  0  0
  146.5703  134.3605  162.4477 H   0  0  0  0  0  0  0  0  0  0  0  0
  144.1564  132.9313  161.2563 H   0  0  0  0  0  0  0  0  0  0  0  0
  144.7358  132.8402  162.9249 H   0  0  0  0  0  0  0  0  0  0  0  0
  144.6455  136.5234  162.3269 H   0  0  0  0  0  0  0  0  0  0  0  0
  143.5516  136.1626  160.9900 H   0  0  0  0  0  0  0  0  0  0  0  0
  150.5861  141.2402  159.2635 H   0  0  0  0  0  0  0  0  0  0  0  0
  152.2357  140.7797  159.5720 H   0  0  0  0  0  0  0  0  0  0  0  0
  151.5637  143.0332  160.3819 H   0  0  0  0  0  0  0  0  0  0  0  0
  153.9584  142.5073  159.9962 H   0  0  0  0  0  0  0  0  0  0  0  0
  153.6377  144.2122  159.7811 H   0  0  0  0  0  0  0  0  0  0  0  0
  153.8730  143.1767  158.3768 H   0  0  0  0  0  0  0  0  0  0  0  0
  150.1541  143.5884  158.6484 H   0  0  0  0  0  0  0  0  0  0  0  0
  1  2  1  0  0  0  0
  1 30  1  0  0  0  0
  1 31  1  0  0  0  0
  1 32  1  0  0  0  0
  2  3  1  0  0  0  0
  2 33  1  0  0  0  0
  2 34  1  0  0  0  0
  3 28  1  0  0  0  0
  3  4  1  0  0  0  0
  3 64  1  0  0  0  0
  4  5  1  0  0  0  0
  4 35  1  0  0  0  0
  4 36  1  0  0  0  0
  5  6  1  0  0  0  0
  5 37  1  0  0  0  0
  5 38  1  0  0  0  0
  6  7  1  0  0  0  0
  6 27  1  0  0  0  0
  6 39  1  0  0  0  0
  7  8  1  0  0  0  0
  7  9  1  0  0  0  0
  8 40  1  0  0  0  0
  8 41  1  0  0  0  0
  8 42  1  0  0  0  0
  9 14  1  0  0  0  0
  9 10  2  0  0  0  0
 10 11  1  0  0  0  0
 11 12  2  0  0  0  0
 11 43  1  0  0  0  0
 12 13  1  0  0  0  0
 13 17  1  0  0  0  0
 13 14  2  0  0  0  0
 14 15  1  0  0  0  0
 15 16  2  0  0  0  0
 16 17  1  0  0  0  0
 16 44  1  0  0  0  0
 17 18  1  0  0  0  0
 18 19  1  0  0  0  0
 18 45  1  0  0  0  0
 18 46  1  0  0  0  0
 19 20  1  0  0  0  0
 19 22  1  0  0  0  0
 19 47  1  0  0  0  0
 20 21  1  0  0  0  0
 20 48  1  0  0  0  0
 20 49  1  0  0  0  0
 21 50  1  0  0  0  0
 22 26  1  0  0  0  0
 22 23  1  0  0  0  0
 22 51  1  0  0  0  0
 23 24  1  0  0  0  0
 23 52  1  0  0  0  0
 23 53  1  0  0  0  0
 24 25  1  0  0  0  0
 24 54  1  0  0  0  0
 24 55  1  0  0  0  0
 25 26  1  0  0  0  0
 26 56  1  0  0  0  0
 26 57  1  0  0  0  0
 27 28  1  0  0  0  0
 27 58  1  0  0  0  0
 27 59  1  0  0  0  0
 28 29  1  0  0  0  0
 28 60  1  0  0  0  0
 29 61  1  0  0  0  0
 29 62  1  0  0  0  0
 29 63  1  0  0  0  0
M  CHG  1   3   1
M  END
> <s_m_source_file>
AV-unprocessed.smi

> <i_m_source_file_index>
249

> <i_lp_mmshare_version>
43012

> <i_f3d_flags>
0

> <s_epik_input>
W0NIM11bQ0gyXU4xW0NIMl1bQ0gyXVtDQEhdKFtDSDJdW0NASF0xW0NIM10pTihbQ0gzXSljKG5bY0hdbjIpYyhjMjMpbltjSF1uM1tDSDJdW0NASF0oW0NIMl1bT0hdKVtDQEBIXTRbQ0gyXVtDSDJdT1tDSDJdNA==

> <s_epik_cmdline>
J2VwaWtfcHl0aG9uJywgJy1waCcsICc3LjAnLCAnLXRuJywgJzgnLCAnLW1hJywgJzIwMCcsICctbWV0YWxfYmluZGluZycsICctaW1hZScsICc8aW5maWxlLm1hZT4nLCAnLW9tYWUnLCAnPG91dGZpbGUubWFlPic=

> <r_lp_tautomer_probability>
1

> <r_epik_Ionization_Penalty>
0.00294688

> <r_epik_Ionization_Penalty_Charging>
0.00169971

> <r_epik_Ionization_Penalty_Neutral>
0.00124717

> <r_epik_State_Penalty>
-0

> <r_epik_Charging_Adjusted_Penalty>
0.00169971

> <i_epik_Tot_Q>
1

> <i_epik_Tot_abs_Q>
1

> <r_epik_Metal_State_Penalty>
-0

> <b_epik_Metal_Only>
0

> <s_lp_Force_Field>
OPLS_2005

> <r_lp_Energy>
54.5732

> <b_lp_Chiralities_Consistent>
1

> <s_lp_Variant>
AV-unprocessed.smi:249-12

> <Gold.Version>
5.8.1

> <Gold.Id.Protein>
6NUR|6NUR_protein|mol2

> <Gold.PLP.Fitness>
48.8466

> <Gold.PLP.PLP>
-49.2166

> <Gold.PLP.part.hbond>
-3.0000

> <Gold.PLP.part.metal>
0.0000

> <Gold.PLP.part.buried>
-0.9689

> <Gold.PLP.part.nonpolar>
-44.1150

> <Gold.PLP.part.repulsive>
0.1134

> <Gold.PLP.ligand.clash>
0.0000

> <Gold.PLP.ligand.torsion>
2.5831

> <Gold.PLP.Chemscore.Hbond>
1.2366

> <Gold.PLP.Chemscore.CHOScore>
0.0000

> <Gold.PLP.Chemscore.Metal>
0.0000

> <Gold.Chemscore.Hbonds>
donor molecule, donor type, donor heavy atom, donor atom, acceptor molecule, acceptor atom, score
      P1  H  6896  6908       L1    12  1.00
      P1  H  6934  6947       L1    21  0.22

> <Gold.PLP.Chemscore.Internal.Correction>
1.0865

> <Gold.Rescore>
     Score         DG    S(hbond)    S(metal)    S(lipo)     H(rot)  DE(clash)    DE(int)     intcor
     12.85     -17.81       1.21        0.00     128.93       2.65       1.78       3.18       ----

> <Gold.Chemscore.Fitness>
12.8482

> <Gold.Chemscore.DG>
-17.8079

> <Gold.Chemscore.ZeroCoef>
-5.4800

> <Gold.Chemscore.Hbond>
1.2069

> <Gold.Chemscore.Metal>
0.0000

> <Gold.Chemscore.Lipo>
128.9297

> <Gold.Chemscore.Internal_Hbond>
0.0000

> <Gold.Chemscore.DEClash>
1.7842

> <Gold.Chemscore.DEInternal>
3.1755

> <Gold.Chemscore.Rot>
2.6515

> <Gold.Chemscore.Internal.Correction>
   9.000000E+99

> <Gold.Chemscore.Hbonds>
donor molecule, donor type, donor heavy atom, donor atom, acceptor molecule, acceptor atom, score
      P1  H  6896  6908       L1    12  0.47
      P1  H  6934  6947       L1    21  0.01

> <Gold.Chemscore.Hbond.Weighted>
-4.0311

> <Gold.Chemscore.Metal.Weighted>
-0.0000

> <Gold.Chemscore.Lipo.Weighted>
-15.0848

> <Gold.Chemscore.Internal_Hbond.Weighted>
0.0000

> <Gold.Chemscore.DEClash.Weighted>
1.7842

> <Gold.Chemscore.DEInternal.Weighted>
3.1755

> <Gold.Chemscore.Rot.Weighted>
6.7880

> <Gold.Chemscore.Internal.Correction.Weighted>
   9.000000E+99

> <Gold.Protein.RotatedTorsions>
[ 6907 6896 6895 6894 ] final -142.89 input  -60.11 | X-H torsion
[ 7974 7965 7964 7962 ] final -167.18 input  175.53 | X-H torsion
[ 8008 7997 7996 7995 ] final  177.79 input   59.86 | X-H torsion
[ 10167 10162 10161 10158 ] final  113.33 input  -65.29 | X-H torsion
[ 10718 10713 10712 10709 ] final   32.36 input   66.30 | X-H torsion
[ 10763 10752 10751 10750 ] final   -0.72 input  -60.55 | X-H torsion
[ 11005 11000 10999 10996 ] final   23.93 input  -57.11 | X-H torsion

> <Gold.Protein.ActiveResidues>
 VAL166  LYS551  ARG553  GLY616  TRP617  ASP618  TYR619  PRO620  LYS621  CYS622 
 ASP623  PHE694  ASN695  SER759  ASP760  ASP761  ALA762  ILE779  LEU786  VAL792 
 PHE793  MET794  SER795  GLU796  ALA797  LYS798  CYS799  TRP800  GLU811  SER814 

> <Gold.Protein.RotatedAtoms>
  151.0931  133.5300  159.2613 H   0  0  0  0  0  0  0  0  0  0  0  0  # atno 6907 bound_to 6896
  151.2160  135.0499  159.8940 H   0  0  0  0  0  0  0  0  0  0  0  0  # atno 6908 bound_to 6896
  152.5436  134.0740  159.8260 H   0  0  0  0  0  0  0  0  0  0  0  0  # atno 6909 bound_to 6896
  144.7229  140.2557  143.6272 H   0  0  0  0  0  0  0  0  0  0  0  0  # atno 7974 bound_to 7965
  156.0618  140.1349  156.9932 H   0  0  0  0  0  0  0  0  0  0  0  0  # atno 8008 bound_to 7997
  154.4486  140.0990  156.6599 H   0  0  0  0  0  0  0  0  0  0  0  0  # atno 8009 bound_to 7997
  155.5365  140.3460  155.4440 H   0  0  0  0  0  0  0  0  0  0  0  0  # atno 8010 bound_to 7997
  139.6469  144.7127  151.2124 H   0  0  0  0  0  0  0  0  0  0  0  0  # atno 10167 bound_to 10162
  157.2842  130.7270  149.6574 H   0  0  0  0  0  0  0  0  0  0  0  0  # atno 10718 bound_to 10713
  153.3355  135.6977  153.6911 H   0  0  0  0  0  0  0  0  0  0  0  0  # atno 10763 bound_to 10752
  153.5696  135.3519  155.2833 H   0  0  0  0  0  0  0  0  0  0  0  0  # atno 10764 bound_to 10752
  154.8626  135.4269  154.2555 H   0  0  0  0  0  0  0  0  0  0  0  0  # atno 10765 bound_to 10752
  140.3643  134.2092  155.7670 H   0  0  0  0  0  0  0  0  0  0  0  0  # atno 11005 bound_to 11000
  145.8185  139.2033  143.1952 LP  0  0  0  0  0  0  0  0  0  0  0  0  # atno 17320 bound_to 7965
  146.0534  140.8045  142.9770 LP  0  0  0  0  0  0  0  0  0  0  0  0  # atno 17321 bound_to 7965
  140.7519  143.6215  150.8509 LP  0  0  0  0  0  0  0  0  0  0  0  0  # atno 17342 bound_to 10162
  139.9859  143.5900  152.2927 LP  0  0  0  0  0  0  0  0  0  0  0  0  # atno 17343 bound_to 10162
  155.9665  130.4328  150.4981 LP  0  0  0  0  0  0  0  0  0  0  0  0  # atno 17370 bound_to 10713
  157.2931  131.0630  151.2120 LP  0  0  0  0  0  0  0  0  0  0  0  0  # atno 17371 bound_to 10713
  141.1974  133.8059  157.0627 LP  0  0  0  0  0  0  0  0  0  0  0  0  # atno 17394 bound_to 11000
  140.0602  134.9759  157.1291 LP  0  0  0  0  0  0  0  0  0  0  0  0  # atno 17395 bound_to 11000

$$$$
