AV-unprocessed.smi:112|AV-procd|sdf|1089|dock8
  -GOLD-   2262018193D 1   1.00000     0.00000
 Structure written by MMmdl.
 54 57  0  0  0  0  0  0  0  0  3 V2000
  147.0727  137.1256  154.5586 C   0  0  0  0  0  0  0  0  0  0  0  0
  148.4968  136.8050  154.9860 C   0  0  0  0  0  0  0  0  0  0  0  0
  148.8311  135.6186  155.5443 C   0  0  0  0  0  0  0  0  0  0  0  0
  150.1180  135.2937  155.9392 N   0  0  0  0  0  0  0  0  0  0  0  0
  150.4681  133.9527  156.5537 C   0  0  2  0  0  0  0  0  0  0  0  0
  150.2302  132.8067  155.5611 C   0  0  0  0  0  0  0  0  0  0  0  0
  149.7055  131.7234  156.4771 C   0  0  2  0  0  0  0  0  0  0  0  0
  148.9925  130.7262  155.7729 O   0  0  0  0  0  0  0  0  0  0  0  0
  148.8688  132.5196  157.4867 C   0  0  2  0  0  0  0  0  0  0  0  0
  147.4583  132.9140  156.9943 C   0  0  0  0  0  0  0  0  0  0  0  0
  146.8121  133.7016  157.9715 O   0  0  0  0  0  0  0  0  0  0  0  0
  149.6521  133.7024  157.6660 O   0  0  0  0  0  0  0  0  0  0  0  0
  151.1468  136.2475  155.8009 C   0  0  0  0  0  0  0  0  0  0  0  0
  152.2957  135.9909  156.1688 O   0  0  0  0  0  0  0  0  0  0  0  0
  150.8298  137.4984  155.2260 N   0  0  0  0  0  0  0  0  0  0  0  0
  151.9142  138.4917  155.0536 C   0  0  0  0  0  0  0  0  0  0  0  0
  151.5897  139.8769  155.6554 C   0  0  0  0  0  0  0  0  0  0  0  0
  150.9503  140.6839  154.9795 O   0  0  0  0  0  0  0  0  0  0  0  0
  152.0247  140.1393  156.9130 N   0  0  0  0  0  0  0  0  0  0  0  0
  152.7897  139.1775  157.7257 C   0  0  0  0  0  0  0  0  0  0  0  0
  153.0592  139.8702  159.0792 C   0  0  0  0  0  0  0  0  0  0  0  0
  152.4120  141.2126  158.9079 C   0  0  0  0  0  0  0  0  0  0  0  0
  152.3682  142.2498  159.8549 C   0  0  0  0  0  0  0  0  0  0  0  0
  151.7066  143.4569  159.5181 C   0  0  0  0  0  0  0  0  0  0  0  0
  151.6383  144.5673  160.4889 N   0  3  0  0  0  0  0  0  0  0  0  0
  151.1619  145.6353  160.1181 O   0  0  0  0  0  0  0  0  0  0  0  0
  152.0607  144.3732  161.6242 O   0  5  0  0  0  0  0  0  0  0  0  0
  151.1099  143.5822  158.2352 C   0  0  0  0  0  0  0  0  0  0  0  0
  151.1643  142.5296  157.2954 C   0  0  0  0  0  0  0  0  0  0  0  0
  151.8272  141.3356  157.6529 C   0  0  0  0  0  0  0  0  0  0  0  0
  149.5255  137.8275  154.7834 C   0  0  0  0  0  0  0  0  0  0  0  0
  149.2973  138.9187  154.2575 O   0  0  0  0  0  0  0  0  0  0  0  0
  146.3905  136.2999  154.7634 H   0  0  0  0  0  0  0  0  0  0  0  0
  147.0328  137.3320  153.4884 H   0  0  0  0  0  0  0  0  0  0  0  0
  146.7031  138.0028  155.0909 H   0  0  0  0  0  0  0  0  0  0  0  0
  148.0369  134.9011  155.6814 H   0  0  0  0  0  0  0  0  0  0  0  0
  151.5047  134.0406  156.8837 H   0  0  0  0  0  0  0  0  0  0  0  0
  149.4755  133.1012  154.8294 H   0  0  0  0  0  0  0  0  0  0  0  0
  151.1475  132.5332  155.0390 H   0  0  0  0  0  0  0  0  0  0  0  0
  150.5438  131.2546  156.9950 H   0  0  0  0  0  0  0  0  0  0  0  0
  148.1348  130.6379  156.1598 H   0  0  0  0  0  0  0  0  0  0  0  0
  148.7921  131.9688  158.4251 H   0  0  0  0  0  0  0  0  0  0  0  0
  147.4860  133.4413  156.0412 H   0  0  0  0  0  0  0  0  0  0  0  0
  146.8394  132.0289  156.8483 H   0  0  0  0  0  0  0  0  0  0  0  0
  146.2369  134.3106  157.5346 H   0  0  0  0  0  0  0  0  0  0  0  0
  152.8434  138.1291  155.4951 H   0  0  0  0  0  0  0  0  0  0  0  0
  152.1493  138.6048  153.9947 H   0  0  0  0  0  0  0  0  0  0  0  0
  152.2236  138.2572  157.8751 H   0  0  0  0  0  0  0  0  0  0  0  0
  153.7326  138.9258  157.2387 H   0  0  0  0  0  0  0  0  0  0  0  0
  152.6033  139.3304  159.9095 H   0  0  0  0  0  0  0  0  0  0  0  0
  154.1264  139.9820  159.2729 H   0  0  0  0  0  0  0  0  0  0  0  0
  152.8347  142.1141  160.8195 H   0  0  0  0  0  0  0  0  0  0  0  0
  150.6008  144.4931  157.9569 H   0  0  0  0  0  0  0  0  0  0  0  0
  150.6983  142.6665  156.3326 H   0  0  0  0  0  0  0  0  0  0  0  0
  1  2  1  0  0  0  0
  1 33  1  0  0  0  0
  1 34  1  0  0  0  0
  1 35  1  0  0  0  0
  2 31  1  0  0  0  0
  2  3  2  0  0  0  0
  3  4  1  0  0  0  0
  3 36  1  0  0  0  0
  4  5  1  0  0  0  0
  4 13  1  0  0  0  0
  5 12  1  0  0  0  0
  5  6  1  0  0  0  0
  5 37  1  0  0  0  0
  6  7  1  0  0  0  0
  6 38  1  0  0  0  0
  6 39  1  0  0  0  0
  7  8  1  0  0  0  0
  7  9  1  0  0  0  0
  7 40  1  0  0  0  0
  8 41  1  0  0  0  0
  9 10  1  0  0  0  0
  9 12  1  0  0  0  0
  9 42  1  0  0  0  0
 10 11  1  0  0  0  0
 10 43  1  0  0  0  0
 10 44  1  0  0  0  0
 11 45  1  0  0  0  0
 13 14  2  0  0  0  0
 13 15  1  0  0  0  0
 15 16  1  0  0  0  0
 15 31  1  0  0  0  0
 16 17  1  0  0  0  0
 16 46  1  0  0  0  0
 16 47  1  0  0  0  0
 17 18  2  0  0  0  0
 17 19  1  0  0  0  0
 19 30  1  0  0  0  0
 19 20  1  0  0  0  0
 20 21  1  0  0  0  0
 20 48  1  0  0  0  0
 20 49  1  0  0  0  0
 21 22  1  0  0  0  0
 21 50  1  0  0  0  0
 21 51  1  0  0  0  0
 22 30  2  0  0  0  0
 22 23  1  0  0  0  0
 23 24  2  0  0  0  0
 23 52  1  0  0  0  0
 24 25  1  0  0  0  0
 24 28  1  0  0  0  0
 25 26  2  0  0  0  0
 25 27  1  0  0  0  0
 28 29  2  0  0  0  0
 28 53  1  0  0  0  0
 29 30  1  0  0  0  0
 29 54  1  0  0  0  0
 31 32  2  0  0  0  0
M  CHG  1  25   1
M  CHG  1  27  -1
M  END
> <s_m_source_file>
AV-unprocessed.smi

> <i_m_source_file_index>
112

> <i_lp_mmshare_version>
43012

> <i_f3d_flags>
0

> <s_epik_input>
W09IXVtDSDJdW0NAQEhdKE8xKVtDQEhdKFtPSF0pW0NIMl1bQ0BIXTFuKFtjSF1jMltDSDNdKWMoPU8pbihjMj1PKVtDSDJdQyg9TylOKFtDSDJdW0NIMl0zKWMoYzM0KVtjSF1bY0hdYyhbY0hdNClbTitdKD1PKVtPLV0=

> <s_epik_cmdline>
J2VwaWtfcHl0aG9uJywgJy1waCcsICc3LjAnLCAnLXRuJywgJzgnLCAnLW1hJywgJzIwMCcsICctbWV0YWxfYmluZGluZycsICctaW1hZScsICc8aW5maWxlLm1hZT4nLCAnLW9tYWUnLCAnPG91dGZpbGUubWFlPic=

> <r_lp_tautomer_probability>
1

> <r_epik_Ionization_Penalty>
2.5696e-07

> <r_epik_Ionization_Penalty_Charging>
1.04886e-08

> <r_epik_Ionization_Penalty_Neutral>
2.46472e-07

> <r_epik_State_Penalty>
-0

> <r_epik_Charging_Adjusted_Penalty>
1.04886e-08

> <i_epik_Tot_Q>
0

> <i_epik_Tot_abs_Q>
2

> <r_epik_Metal_State_Penalty>
-0

> <b_epik_Metal_Only>
0

> <s_epik_Chemistry_Notes>
This compound contains an acetal/aminal-like group ( X-CH(R)-Y where X, Y are N, S, or O) that may be acid/base labile, releasing an aldehyde.

> <s_lp_Force_Field>
OPLS_2005

> <r_lp_Energy>
59.9345

> <b_lp_Chiralities_Consistent>
1

> <s_lp_Variant>
AV-unprocessed.smi:112-7

> <Gold.Version>
5.8.1

> <Gold.Id.Protein>
6NUR|6NUR_protein|mol2

> <Gold.PLP.Fitness>
51.7190

> <Gold.PLP.PLP>
-43.9053

> <Gold.PLP.part.hbond>
-3.4464

> <Gold.PLP.part.metal>
0.0000

> <Gold.PLP.part.buried>
-5.2107

> <Gold.PLP.part.nonpolar>
-35.8858

> <Gold.PLP.part.repulsive>
0.6718

> <Gold.PLP.ligand.clash>
0.0000

> <Gold.PLP.ligand.torsion>
0.4514

> <Gold.PLP.Chemscore.Hbond>
2.8960

> <Gold.PLP.Chemscore.CHOScore>
0.0000

> <Gold.PLP.Chemscore.Metal>
0.0000

> <Gold.Chemscore.Hbonds>
donor molecule, donor type, donor heavy atom, donor atom, acceptor molecule, acceptor atom, score
      P1  H  6896  6908       L1    12  1.00
      P1  H  7989  7998       L1    18  0.91
      P1  H 10752 10765       L1    14  0.89

> <Gold.PLP.Chemscore.Internal.Correction>
0.0285

> <Gold.Rescore>
     Score         DG    S(hbond)    S(metal)    S(lipo)     H(rot)  DE(clash)    DE(int)     intcor
     11.20     -15.76       2.45        0.00      89.84       3.29       0.01       4.54       ----

> <Gold.Chemscore.Fitness>
11.2028

> <Gold.Chemscore.DG>
-15.7621

> <Gold.Chemscore.ZeroCoef>
-5.4800

> <Gold.Chemscore.Hbond>
2.4544

> <Gold.Chemscore.Metal>
0.0000

> <Gold.Chemscore.Lipo>
89.8360

> <Gold.Chemscore.Internal_Hbond>
0.0000

> <Gold.Chemscore.DEClash>
0.0148

> <Gold.Chemscore.DEInternal>
4.5444

> <Gold.Chemscore.Rot>
3.2916

> <Gold.Chemscore.Internal.Correction>
   9.000000E+99

> <Gold.Chemscore.Hbonds>
donor molecule, donor type, donor heavy atom, donor atom, acceptor molecule, acceptor atom, score
      P1  H  6896  6908       L1    12  0.56
      P1  H  7989  7998       L1    18  0.70
      P1  H 10752 10765       L1    14  0.81

> <Gold.Chemscore.Hbond.Weighted>
-8.1978

> <Gold.Chemscore.Metal.Weighted>
-0.0000

> <Gold.Chemscore.Lipo.Weighted>
-10.5108

> <Gold.Chemscore.Internal_Hbond.Weighted>
0.0000

> <Gold.Chemscore.DEClash.Weighted>
0.0148

> <Gold.Chemscore.DEInternal.Weighted>
4.5444

> <Gold.Chemscore.Rot.Weighted>
8.4265

> <Gold.Chemscore.Internal.Correction.Weighted>
   9.000000E+99

> <Gold.Protein.RotatedTorsions>
[ 6907 6896 6895 6894 ] final  118.20 input  -60.11 | X-H torsion
[ 7974 7965 7964 7962 ] final   74.70 input  175.53 | X-H torsion
[ 8008 7997 7996 7995 ] final  -51.86 input   59.86 | X-H torsion
[ 10167 10162 10161 10158 ] final   19.78 input  -65.29 | X-H torsion
[ 10718 10713 10712 10709 ] final -127.34 input   66.30 | X-H torsion
[ 10763 10752 10751 10750 ] final -142.99 input  -60.55 | X-H torsion
[ 11005 11000 10999 10996 ] final -158.81 input  -57.11 | X-H torsion

> <Gold.Protein.ActiveResidues>
 VAL166  LYS551  ARG553  GLY616  TRP617  ASP618  TYR619  PRO620  LYS621  CYS622 
 ASP623  PHE694  ASN695  SER759  ASP760  ASP761  ALA762  ILE779  LEU786  VAL792 
 PHE793  MET794  SER795  GLU796  ALA797  LYS798  CYS799  TRP800  GLU811  SER814 

> <Gold.Protein.RotatedAtoms>
  152.4560  133.7724  159.6805 H   0  0  0  0  0  0  0  0  0  0  0  0  # atno 6907 bound_to 6896
  150.8486  133.7812  159.3040 H   0  0  0  0  0  0  0  0  0  0  0  0  # atno 6908 bound_to 6896
  151.5414  135.1071  159.9979 H   0  0  0  0  0  0  0  0  0  0  0  0  # atno 6909 bound_to 6896
  145.7249  139.2662  143.1574 H   0  0  0  0  0  0  0  0  0  0  0  0  # atno 7974 bound_to 7965
  154.4093  140.1237  156.4898 H   0  0  0  0  0  0  0  0  0  0  0  0  # atno 8008 bound_to 7997
  155.7001  140.3495  155.4910 H   0  0  0  0  0  0  0  0  0  0  0  0  # atno 8009 bound_to 7997
  155.9392  140.1084  157.1059 H   0  0  0  0  0  0  0  0  0  0  0  0  # atno 8010 bound_to 7997
  140.5553  143.9436  150.6605 H   0  0  0  0  0  0  0  0  0  0  0  0  # atno 10167 bound_to 10162
  156.1848  130.6756  151.0350 H   0  0  0  0  0  0  0  0  0  0  0  0  # atno 10718 bound_to 10713
  154.8487  135.3480  154.6116 H   0  0  0  0  0  0  0  0  0  0  0  0  # atno 10763 bound_to 10752
  153.6725  135.6984  153.5147 H   0  0  0  0  0  0  0  0  0  0  0  0  # atno 10764 bound_to 10752
  153.2731  135.4286  155.0964 H   0  0  0  0  0  0  0  0  0  0  0  0  # atno 10765 bound_to 10752
  140.6495  134.4465  157.5235 H   0  0  0  0  0  0  0  0  0  0  0  0  # atno 11005 bound_to 11000
  146.0591  140.7990  142.9744 LP  0  0  0  0  0  0  0  0  0  0  0  0  # atno 17320 bound_to 7965
  144.6907  140.3169  143.7239 LP  0  0  0  0  0  0  0  0  0  0  0  0  # atno 17321 bound_to 7965
  140.2872  143.3349  152.1096 LP  0  0  0  0  0  0  0  0  0  0  0  0  # atno 17342 bound_to 10162
  139.5045  144.6777  151.6088 LP  0  0  0  0  0  0  0  0  0  0  0  0  # atno 17343 bound_to 10162
  157.6891  131.0815  150.7157 LP  0  0  0  0  0  0  0  0  0  0  0  0  # atno 17370 bound_to 10713
  156.7214  130.4682  149.5522 LP  0  0  0  0  0  0  0  0  0  0  0  0  # atno 17371 bound_to 10713
  139.9051  134.8468  156.1740 LP  0  0  0  0  0  0  0  0  0  0  0  0  # atno 17394 bound_to 11000
  141.0547  133.6871  156.1838 LP  0  0  0  0  0  0  0  0  0  0  0  0  # atno 17395 bound_to 11000

$$$$
