AV-unprocessed.smi:1260|AV-procd|sdf|5298|dock5
  -GOLD-   22720 4413D 1   1.00000     0.00000
 Structure written by MMmdl.
 37 39  0  0  0  0  0  0  0  0  2 V2000
  147.5955  133.8062  155.6101 O   0  0  0  0  0  0  0  0  0  0  0  0
  148.1339  134.6486  154.8927 C   0  0  0  0  0  0  0  0  0  0  0  0
  148.3435  136.0711  155.4105 C   0  0  0  0  0  0  0  0  0  0  0  0
  149.7582  136.3558  155.5589 N   0  0  0  0  0  0  0  0  0  0  0  0
  150.6563  136.8185  154.6867 C   0  0  0  0  0  0  0  0  0  0  0  0
  151.8592  136.9200  155.2304 N   0  0  0  0  0  0  0  0  0  0  0  0
  151.6549  136.4845  156.5294 N   0  0  0  0  0  0  0  0  0  0  0  0
  150.4104  136.1472  156.7296 N   0  0  0  0  0  0  0  0  0  0  0  0
  148.5824  134.3883  153.6547 N   0  0  0  0  0  0  0  0  0  0  0  0
  148.5347  133.0826  153.0039 C   0  0  1  0  0  0  0  0  0  0  0  0
  148.9242  131.9262  153.9412 C   0  0  0  0  0  0  0  0  0  0  0  0
  148.0040  130.7534  153.5465 C   0  0  0  0  0  0  0  0  0  0  0  0
  147.2118  131.2441  152.4021 N   0  3  1  0  0  0  0  0  0  0  0  0
  145.8992  130.6047  152.1663 C   0  0  0  0  0  0  0  0  0  0  0  0
  145.2709  131.1916  150.8864 C   0  0  0  0  0  0  0  0  0  0  0  0
  145.2056  132.7318  150.9357 C   0  0  0  0  0  0  0  0  0  0  0  0
  146.5812  133.3369  151.2763 C   0  0  0  0  0  0  0  0  0  0  0  0
  147.1168  132.7021  152.5710 C   0  0  2  0  0  0  0  0  0  0  0  0
  147.9071  136.7996  154.7257 H   0  0  0  0  0  0  0  0  0  0  0  0
  147.8449  136.1933  156.3734 H   0  0  0  0  0  0  0  0  0  0  0  0
  150.4322  137.0718  153.6610 H   0  0  0  0  0  0  0  0  0  0  0  0
  149.0064  135.1435  153.1352 H   0  0  0  0  0  0  0  0  0  0  0  0
  149.1990  133.0592  152.1371 H   0  0  0  0  0  0  0  0  0  0  0  0
  149.9789  131.6703  153.8343 H   0  0  0  0  0  0  0  0  0  0  0  0
  148.7552  132.1885  154.9868 H   0  0  0  0  0  0  0  0  0  0  0  0
  148.5644  129.8598  153.2703 H   0  0  0  0  0  0  0  0  0  0  0  0
  147.3468  130.4969  154.3788 H   0  0  0  0  0  0  0  0  0  0  0  0
  146.0299  129.5270  152.0619 H   0  0  0  0  0  0  0  0  0  0  0  0
  145.2450  130.7698  153.0236 H   0  0  0  0  0  0  0  0  0  0  0  0
  145.8619  130.8855  150.0220 H   0  0  0  0  0  0  0  0  0  0  0  0
  144.2725  130.7796  150.7369 H   0  0  0  0  0  0  0  0  0  0  0  0
  144.8482  133.1237  149.9830 H   0  0  0  0  0  0  0  0  0  0  0  0
  144.4783  133.0393  151.6882 H   0  0  0  0  0  0  0  0  0  0  0  0
  147.2783  133.1642  150.4553 H   0  0  0  0  0  0  0  0  0  0  0  0
  146.4914  134.4174  151.3905 H   0  0  0  0  0  0  0  0  0  0  0  0
  146.4248  132.9127  153.3901 H   0  0  0  0  0  0  0  0  0  0  0  0
  147.7737  131.0899  151.5768 H   0  0  0  0  0  0  0  0  0  0  0  0
  1  2  2  0  0  0  0
  2  3  1  0  0  0  0
  2  9  1  0  0  0  0
  3  4  1  0  0  0  0
  3 19  1  0  0  0  0
  3 20  1  0  0  0  0
  4  8  1  0  0  0  0
  4  5  1  0  0  0  0
  5  6  2  0  0  0  0
  5 21  1  0  0  0  0
  6  7  1  0  0  0  0
  7  8  2  0  0  0  0
  9 10  1  0  0  0  0
  9 22  1  0  0  0  0
 10 18  1  0  0  0  0
 10 11  1  0  0  0  0
 10 23  1  0  0  0  0
 11 12  1  0  0  0  0
 11 24  1  0  0  0  0
 11 25  1  0  0  0  0
 12 13  1  0  0  0  0
 12 26  1  0  0  0  0
 12 27  1  0  0  0  0
 13 18  1  0  0  0  0
 13 14  1  0  0  0  0
 13 37  1  0  0  0  0
 14 15  1  0  0  0  0
 14 28  1  0  0  0  0
 14 29  1  0  0  0  0
 15 16  1  0  0  0  0
 15 30  1  0  0  0  0
 15 31  1  0  0  0  0
 16 17  1  0  0  0  0
 16 32  1  0  0  0  0
 16 33  1  0  0  0  0
 17 18  1  0  0  0  0
 17 34  1  0  0  0  0
 17 35  1  0  0  0  0
 18 36  1  0  0  0  0
M  CHG  1  13   1
M  END
> <s_m_source_file>
AV-unprocessed.smi

> <i_m_source_file_index>
1260

> <i_lp_mmshare_version>
43012

> <i_f3d_flags>
0

> <s_epik_input>
bjFubltjSF1uMVtDSDJdQyg9TylbTkhdW0NASF0oW0NIMl1bQ0gyXTIpW0NAQEhdKE4yMylbQ0gyXVtDSDJdW0NIMl1bQ0gyXTM=

> <s_epik_cmdline>
J2VwaWtfcHl0aG9uJywgJy1waCcsICc3LjAnLCAnLXRuJywgJzgnLCAnLW1hJywgJzIwMCcsICctbWV0YWxfYmluZGluZycsICctaW1hZScsICc8aW5maWxlLm1hZT4nLCAnLW9tYWUnLCAnPG91dGZpbGUubWFlPic=

> <r_lp_tautomer_probability>
1

> <r_epik_Ionization_Penalty>
0.00234324

> <r_epik_Ionization_Penalty_Charging>
0.00233897

> <r_epik_Ionization_Penalty_Neutral>
4.26861e-06

> <r_epik_State_Penalty>
0.00161477

> <r_epik_Charging_Adjusted_Penalty>
0.00395374

> <i_epik_Tot_Q>
1

> <i_epik_Tot_abs_Q>
1

> <r_epik_Metal_State_Penalty>
-0

> <b_epik_Metal_Only>
0

> <s_lp_Force_Field>
OPLS_2005

> <r_lp_Energy>
36.6869

> <b_lp_Chiralities_Consistent>
1

> <s_lp_Variant>
AV-unprocessed.smi:1260-6

> <Gold.Version>
5.8.1

> <Gold.Id.Protein>
6NUR|6NUR_protein|mol2

> <Gold.PLP.Fitness>
38.5803

> <Gold.PLP.PLP>
-27.4304

> <Gold.PLP.part.hbond>
-3.0342

> <Gold.PLP.part.metal>
0.0000

> <Gold.PLP.part.buried>
-3.3858

> <Gold.PLP.part.nonpolar>
-21.3642

> <Gold.PLP.part.repulsive>
0.0964

> <Gold.PLP.ligand.clash>
0.0000

> <Gold.PLP.ligand.torsion>
0.5999

> <Gold.PLP.Chemscore.Hbond>
2.9760

> <Gold.PLP.Chemscore.CHOScore>
1.1364

> <Gold.PLP.Chemscore.Metal>
0.0000

> <Gold.Chemscore.Hbonds>
donor molecule, donor type, donor heavy atom, donor atom, acceptor molecule, acceptor atom, score
      L1  H     9    22       P1  7948  1.00
      L1  H    13    37       P1 10747  1.00
      P1  H 10752 10763       L1     6  1.00
      L1  C     5    21       P1  7948  0.68
      L1  C     5    21       P1  7949  0.44

> <Gold.PLP.Chemscore.Internal.Correction>
0.0126

> <Gold.Rescore>
     Score         DG    S(hbond)    S(metal)    S(lipo)     H(rot)  DE(clash)    DE(int)     intcor
     13.94     -15.64       2.47        0.00      59.69       1.98       0.03       1.67       ----

> <Gold.Chemscore.Fitness>
13.9362

> <Gold.Chemscore.DG>
-15.6403

> <Gold.Chemscore.ZeroCoef>
-5.4800

> <Gold.Chemscore.Hbond>
2.4652

> <Gold.Chemscore.Metal>
0.0000

> <Gold.Chemscore.Lipo>
59.6949

> <Gold.Chemscore.Internal_Hbond>
0.0000

> <Gold.Chemscore.DEClash>
0.0314

> <Gold.Chemscore.DEInternal>
1.6727

> <Gold.Chemscore.Rot>
1.9757

> <Gold.Chemscore.Internal.Correction>
   9.000000E+99

> <Gold.Chemscore.Hbonds>
donor molecule, donor type, donor heavy atom, donor atom, acceptor molecule, acceptor atom, score
      L1  H     9    22       P1  7948  0.24
      L1  H    13    37       P1 10747  1.00
      P1  H 10752 10763       L1     6  0.20

> <Gold.Chemscore.Hbond.Weighted>
-8.2337

> <Gold.Chemscore.Metal.Weighted>
-0.0000

> <Gold.Chemscore.Lipo.Weighted>
-6.9843

> <Gold.Chemscore.Internal_Hbond.Weighted>
0.0000

> <Gold.Chemscore.DEClash.Weighted>
0.0314

> <Gold.Chemscore.DEInternal.Weighted>
1.6727

> <Gold.Chemscore.Rot.Weighted>
5.0578

> <Gold.Chemscore.Internal.Correction.Weighted>
   9.000000E+99

> <Gold.Protein.RotatedTorsions>
[ 6907 6896 6895 6894 ] final -146.96 input  -60.11 | X-H torsion
[ 7974 7965 7964 7962 ] final   77.11 input  175.53 | X-H torsion
[ 8008 7997 7996 7995 ] final  -52.03 input   59.86 | X-H torsion
[ 10167 10162 10161 10158 ] final   95.41 input  -65.29 | X-H torsion
[ 10718 10713 10712 10709 ] final -112.66 input   66.30 | X-H torsion
[ 10763 10752 10751 10750 ] final   61.33 input  -60.55 | X-H torsion
[ 11005 11000 10999 10996 ] final   51.66 input  -57.11 | X-H torsion

> <Gold.Protein.ActiveResidues>
 VAL166  LYS551  ARG553  GLY616  TRP617  ASP618  TYR619  PRO620  LYS621  CYS622 
 ASP623  PHE694  ASN695  SER759  ASP760  ASP761  ALA762  ILE779  LEU786  VAL792 
 PHE793  MET794  SER795  GLU796  ALA797  LYS798  CYS799  TRP800  GLU811  SER814 

> <Gold.Protein.RotatedAtoms>
  151.1490  133.4920  159.2595 H   0  0  0  0  0  0  0  0  0  0  0  0  # atno 6907 bound_to 6896
  151.1574  135.0256  159.8705 H   0  0  0  0  0  0  0  0  0  0  0  0  # atno 6908 bound_to 6896
  152.5463  134.1368  159.8515 H   0  0  0  0  0  0  0  0  0  0  0  0  # atno 6909 bound_to 6896
  145.6943  139.2562  143.1742 H   0  0  0  0  0  0  0  0  0  0  0  0  # atno 7974 bound_to 7965
  154.4097  140.1233  156.4926 H   0  0  0  0  0  0  0  0  0  0  0  0  # atno 8008 bound_to 7997
  155.6975  140.3495  155.4900 H   0  0  0  0  0  0  0  0  0  0  0  0  # atno 8009 bound_to 7997
  155.9414  140.1088  157.1042 H   0  0  0  0  0  0  0  0  0  0  0  0  # atno 8010 bound_to 7997
  139.7991  144.6821  150.9789 H   0  0  0  0  0  0  0  0  0  0  0  0  # atno 10167 bound_to 10162
  156.0719  130.5932  150.8539 H   0  0  0  0  0  0  0  0  0  0  0  0  # atno 10718 bound_to 10713
  152.9947  135.5504  154.6016 H   0  0  0  0  0  0  0  0  0  0  0  0  # atno 10763 bound_to 10752
  154.5356  135.2816  155.1143 H   0  0  0  0  0  0  0  0  0  0  0  0  # atno 10764 bound_to 10752
  154.2441  135.6411  153.5270 H   0  0  0  0  0  0  0  0  0  0  0  0  # atno 10765 bound_to 10752
  140.0914  134.5205  155.8849 H   0  0  0  0  0  0  0  0  0  0  0  0  # atno 11005 bound_to 11000
  146.0854  140.7716  142.9621 LP  0  0  0  0  0  0  0  0  0  0  0  0  # atno 17320 bound_to 7965
  144.6987  140.3554  143.7174 LP  0  0  0  0  0  0  0  0  0  0  0  0  # atno 17321 bound_to 7965
  140.7820  143.4300  151.0709 LP  0  0  0  0  0  0  0  0  0  0  0  0  # atno 17342 bound_to 10162
  139.7973  143.8133  152.3159 LP  0  0  0  0  0  0  0  0  0  0  0  0  # atno 17343 bound_to 10162
  157.5795  131.0946  150.9294 LP  0  0  0  0  0  0  0  0  0  0  0  0  # atno 17370 bound_to 10713
  156.9493  130.5413  149.5282 LP  0  0  0  0  0  0  0  0  0  0  0  0  # atno 17371 bound_to 10713
  141.2079  133.6668  156.6334 LP  0  0  0  0  0  0  0  0  0  0  0  0  # atno 17394 bound_to 11000
  140.3347  134.7899  157.4353 LP  0  0  0  0  0  0  0  0  0  0  0  0  # atno 17395 bound_to 11000

$$$$
