AV-unprocessed.smi:1915|AV-procd|sdf|7762|dock1
  -GOLD-   22720 9503D 1   1.00000     0.00000
 Structure written by MMmdl.
 45 46  0  0  0  0  0  0  0  0  2 V2000
  146.0881  136.9863  161.8162 C   0  0  0  0  0  0  0  0  0  0  0  0
  147.1378  135.9272  161.4386 C   0  0  0  0  0  0  0  0  0  0  0  0
  147.6933  135.2451  162.6971 C   0  0  0  0  0  0  0  0  0  0  0  0
  148.2884  136.4827  160.5698 C   0  0  0  0  0  0  0  0  0  0  0  0
  147.8846  136.7302  159.1870 N   0  0  0  0  0  0  0  0  0  0  0  0
  146.9054  137.7577  158.8775 C   0  0  0  0  0  0  0  0  0  0  0  0
  146.9564  137.9168  157.3446 C   0  0  1  0  0  0  0  0  0  0  0  0
  147.7387  139.1732  156.9285 C   0  0  0  0  0  0  0  0  0  0  0  0
  147.2044  140.0312  156.2243 O   0  0  0  0  0  0  0  0  0  0  0  0
  149.0110  139.2582  157.3486 N   0  0  0  0  0  0  0  0  0  0  0  0
  149.9250  140.3617  157.0599 C   0  0  0  0  0  0  0  0  0  0  0  0
  149.4396  141.7191  157.6112 C   0  0  0  0  0  0  0  0  0  0  0  0
  150.5564  142.6204  158.1106 C   0  0  0  0  0  0  0  0  0  0  0  0
  151.4608  142.2042  159.1115 C   0  0  0  0  0  0  0  0  0  0  0  0
  152.4450  143.1051  159.5693 C   0  0  0  0  0  0  0  0  0  0  0  0
  152.5069  144.4002  159.0151 C   0  0  0  0  0  0  0  0  0  0  0  0
  151.5824  144.7619  158.0145 C   0  0  0  0  0  0  0  0  0  0  0  0
  150.6517  143.8721  157.6052 N   0  3  0  0  0  0  0  0  0  0  0  0
  147.6381  136.6267  156.8451 C   0  0  0  0  0  0  0  0  0  0  0  0
  148.2609  136.0405  158.1030 C   0  0  0  0  0  0  0  0  0  0  0  0
  149.0240  135.0763  158.0832 O   0  0  0  0  0  0  0  0  0  0  0  0
  146.5435  137.8232  162.3465 H   0  0  0  0  0  0  0  0  0  0  0  0
  145.3185  136.5621  162.4613 H   0  0  0  0  0  0  0  0  0  0  0  0
  145.5818  137.3825  160.9360 H   0  0  0  0  0  0  0  0  0  0  0  0
  146.6270  135.1587  160.8588 H   0  0  0  0  0  0  0  0  0  0  0  0
  148.2164  135.9580  163.3355 H   0  0  0  0  0  0  0  0  0  0  0  0
  148.3960  134.4527  162.4380 H   0  0  0  0  0  0  0  0  0  0  0  0
  146.8941  134.7944  163.2865 H   0  0  0  0  0  0  0  0  0  0  0  0
  148.6804  137.4001  161.0127 H   0  0  0  0  0  0  0  0  0  0  0  0
  149.1196  135.7762  160.5631 H   0  0  0  0  0  0  0  0  0  0  0  0
  145.9185  137.4224  159.1989 H   0  0  0  0  0  0  0  0  0  0  0  0
  147.1285  138.6829  159.4105 H   0  0  0  0  0  0  0  0  0  0  0  0
  145.9431  137.9809  156.9446 H   0  0  0  0  0  0  0  0  0  0  0  0
  149.3695  138.5095  157.9241 H   0  0  0  0  0  0  0  0  0  0  0  0
  150.9218  140.1369  157.4431 H   0  0  0  0  0  0  0  0  0  0  0  0
  150.0293  140.4310  155.9770 H   0  0  0  0  0  0  0  0  0  0  0  0
  148.8897  142.2495  156.8332 H   0  0  0  0  0  0  0  0  0  0  0  0
  148.7279  141.5523  158.4211 H   0  0  0  0  0  0  0  0  0  0  0  0
  151.3926  141.2128  159.5349 H   0  0  0  0  0  0  0  0  0  0  0  0
  153.1408  142.8075  160.3402 H   0  0  0  0  0  0  0  0  0  0  0  0
  153.2499  145.1067  159.3555 H   0  0  0  0  0  0  0  0  0  0  0  0
  151.5533  145.7316  157.5397 H   0  0  0  0  0  0  0  0  0  0  0  0
  146.9050  135.9254  156.4455 H   0  0  0  0  0  0  0  0  0  0  0  0
  148.3953  136.7950  156.0776 H   0  0  0  0  0  0  0  0  0  0  0  0
  149.9854  144.1595  156.8882 H   0  0  0  0  0  0  0  0  0  0  0  0
  1  2  1  0  0  0  0
  1 22  1  0  0  0  0
  1 23  1  0  0  0  0
  1 24  1  0  0  0  0
  2  3  1  0  0  0  0
  2  4  1  0  0  0  0
  2 25  1  0  0  0  0
  3 26  1  0  0  0  0
  3 27  1  0  0  0  0
  3 28  1  0  0  0  0
  4  5  1  0  0  0  0
  4 29  1  0  0  0  0
  4 30  1  0  0  0  0
  5 20  1  0  0  0  0
  5  6  1  0  0  0  0
  6  7  1  0  0  0  0
  6 31  1  0  0  0  0
  6 32  1  0  0  0  0
  7  8  1  0  0  0  0
  7 19  1  0  0  0  0
  7 33  1  0  0  0  0
  8  9  2  0  0  0  0
  8 10  1  0  0  0  0
 10 11  1  0  0  0  0
 10 34  1  0  0  0  0
 11 12  1  0  0  0  0
 11 35  1  0  0  0  0
 11 36  1  0  0  0  0
 12 13  1  0  0  0  0
 12 37  1  0  0  0  0
 12 38  1  0  0  0  0
 13 18  1  0  0  0  0
 13 14  2  0  0  0  0
 14 15  1  0  0  0  0
 14 39  1  0  0  0  0
 15 16  2  0  0  0  0
 15 40  1  0  0  0  0
 16 17  1  0  0  0  0
 16 41  1  0  0  0  0
 17 18  2  0  0  0  0
 17 42  1  0  0  0  0
 18 45  1  0  0  0  0
 19 20  1  0  0  0  0
 19 43  1  0  0  0  0
 19 44  1  0  0  0  0
 20 21  2  0  0  0  0
M  CHG  1  18   1
M  END
> <s_m_source_file>
AV-unprocessed.smi

> <i_m_source_file_index>
1915

> <i_lp_mmshare_version>
43012

> <i_f3d_flags>
0

> <s_epik_input>
W0NIM11bQ0hdKFtDSDNdKVtDSDJdTjFbQ0gyXVtDQEhdKFtDSDJdQzE9TylDKD1PKVtOSF1bQ0gyXVtDSDJdYzJbY0hdW2NIXVtjSF1bY0hdbjI=

> <s_epik_cmdline>
J2VwaWtfcHl0aG9uJywgJy1waCcsICc3LjAnLCAnLXRuJywgJzgnLCAnLW1hJywgJzIwMCcsICctbWV0YWxfYmluZGluZycsICctaW1hZScsICc8aW5maWxlLm1hZT4nLCAnLW9tYWUnLCAnPG91dGZpbGUubWFlPic=

> <r_epik_Ionization_Penalty>
1.88249

> <r_epik_Ionization_Penalty_Charging>
1.88249

> <r_epik_Ionization_Penalty_Neutral>
3.64574e-08

> <r_epik_State_Penalty>
2.00238

> <r_epik_Charging_Adjusted_Penalty>
3.88487

> <i_epik_Tot_Q>
1

> <i_epik_Tot_abs_Q>
1

> <r_epik_Metal_State_Penalty>
2.02676

> <b_epik_Metal_Only>
0

> <s_lp_Force_Field>
OPLS_2005

> <r_lp_Energy>
19.4357

> <b_lp_Chiralities_Consistent>
1

> <s_lp_Variant>
AV-unprocessed.smi:1915-3

> <Gold.Version>
5.8.1

> <Gold.Id.Protein>
6NUR|6NUR_protein|mol2

> <Gold.PLP.Fitness>
44.3791

> <Gold.PLP.PLP>
-36.1582

> <Gold.PLP.part.hbond>
-2.0000

> <Gold.PLP.part.metal>
0.0000

> <Gold.PLP.part.buried>
-4.4596

> <Gold.PLP.part.nonpolar>
-29.6485

> <Gold.PLP.part.repulsive>
0.0552

> <Gold.PLP.ligand.clash>
0.0000

> <Gold.PLP.ligand.torsion>
0.4769

> <Gold.PLP.Chemscore.Hbond>
3.0000

> <Gold.PLP.Chemscore.CHOScore>
0.0000

> <Gold.PLP.Chemscore.Metal>
0.0000

> <Gold.Chemscore.Hbonds>
donor molecule, donor type, donor heavy atom, donor atom, acceptor molecule, acceptor atom, score
      L1  H    18    45       P1  8028  2.00
      P1  H  6896  6907       L1    21  0.42

> <Gold.PLP.Chemscore.Internal.Correction>
0.1748

> <Gold.Rescore>
     Score         DG    S(hbond)    S(metal)    S(lipo)     H(rot)  DE(clash)    DE(int)     intcor
     18.27     -18.88       2.00        0.00      98.32       1.86       0.06       0.55       ----

> <Gold.Chemscore.Fitness>
18.2748

> <Gold.Chemscore.DG>
-18.8809

> <Gold.Chemscore.ZeroCoef>
-5.4800

> <Gold.Chemscore.Hbond>
1.9965

> <Gold.Chemscore.Metal>
0.0000

> <Gold.Chemscore.Lipo>
98.3250

> <Gold.Chemscore.Internal_Hbond>
0.0000

> <Gold.Chemscore.DEClash>
0.0590

> <Gold.Chemscore.DEInternal>
0.5471

> <Gold.Chemscore.Rot>
1.8638

> <Gold.Chemscore.Internal.Correction>
   9.000000E+99

> <Gold.Chemscore.Hbonds>
donor molecule, donor type, donor heavy atom, donor atom, acceptor molecule, acceptor atom, score
      L1  H    18    45       P1  8028  0.93
      P1  H  6896  6907       L1    21  0.43

> <Gold.Chemscore.Hbond.Weighted>
-6.6682

> <Gold.Chemscore.Metal.Weighted>
-0.0000

> <Gold.Chemscore.Lipo.Weighted>
-11.5040

> <Gold.Chemscore.Internal_Hbond.Weighted>
0.0000

> <Gold.Chemscore.DEClash.Weighted>
0.0590

> <Gold.Chemscore.DEInternal.Weighted>
0.5471

> <Gold.Chemscore.Rot.Weighted>
4.7713

> <Gold.Chemscore.Internal.Correction.Weighted>
   9.000000E+99

> <Gold.Protein.RotatedTorsions>
[ 6907 6896 6895 6894 ] final  -69.81 input  -60.11 | X-H torsion
[ 7974 7965 7964 7962 ] final  -72.43 input  175.53 | X-H torsion
[ 8008 7997 7996 7995 ] final  178.32 input   59.86 | X-H torsion
[ 10167 10162 10161 10158 ] final  119.93 input  -65.29 | X-H torsion
[ 10718 10713 10712 10709 ] final   56.15 input   66.30 | X-H torsion
[ 10763 10752 10751 10750 ] final  115.68 input  -60.55 | X-H torsion
[ 11005 11000 10999 10996 ] final  -41.06 input  -57.11 | X-H torsion

> <Gold.Protein.ActiveResidues>
 VAL166  LYS551  ARG553  GLY616  TRP617  ASP618  TYR619  PRO620  LYS621  CYS622 
 ASP623  PHE694  ASN695  SER759  ASP760  ASP761  ALA762  ILE779  LEU786  VAL792 
 PHE793  MET794  SER795  GLU796  ALA797  LYS798  CYS799  TRP800  GLU811  SER814 

> <Gold.Protein.RotatedAtoms>
  150.7287  134.5542  159.5809 H   0  0  0  0  0  0  0  0  0  0  0  0  # atno 6907 bound_to 6896
  152.3022  134.7594  160.0364 H   0  0  0  0  0  0  0  0  0  0  0  0  # atno 6908 bound_to 6896
  151.8171  133.3354  159.3609 H   0  0  0  0  0  0  0  0  0  0  0  0  # atno 6909 bound_to 6896
  145.6653  140.9239  143.0912 H   0  0  0  0  0  0  0  0  0  0  0  0  # atno 7974 bound_to 7965
  156.0560  140.1336  156.9996 H   0  0  0  0  0  0  0  0  0  0  0  0  # atno 8008 bound_to 7997
  154.4458  140.1001  156.6517 H   0  0  0  0  0  0  0  0  0  0  0  0  # atno 8009 bound_to 7997
  155.5451  140.3461  155.4458 H   0  0  0  0  0  0  0  0  0  0  0  0  # atno 8010 bound_to 7997
  139.6014  144.7058  151.3053 H   0  0  0  0  0  0  0  0  0  0  0  0  # atno 10167 bound_to 10162
  157.5406  130.8694  149.8817 H   0  0  0  0  0  0  0  0  0  0  0  0  # atno 10718 bound_to 10713
  153.5259  135.3588  155.2653 H   0  0  0  0  0  0  0  0  0  0  0  0  # atno 10763 bound_to 10752
  154.8731  135.4056  154.3207 H   0  0  0  0  0  0  0  0  0  0  0  0  # atno 10764 bound_to 10752
  153.3886  135.7071  153.6579 H   0  0  0  0  0  0  0  0  0  0  0  0  # atno 10765 bound_to 10752
  141.0219  133.6859  156.2406 H   0  0  0  0  0  0  0  0  0  0  0  0  # atno 11005 bound_to 11000
  144.7075  139.8501  143.7425 LP  0  0  0  0  0  0  0  0  0  0  0  0  # atno 17320 bound_to 7965
  146.1091  139.4094  143.0299 LP  0  0  0  0  0  0  0  0  0  0  0  0  # atno 17321 bound_to 7965
  140.7252  143.7022  150.7835 LP  0  0  0  0  0  0  0  0  0  0  0  0  # atno 17342 bound_to 10162
  140.0600  143.5165  152.2632 LP  0  0  0  0  0  0  0  0  0  0  0  0  # atno 17343 bound_to 10162
  156.0494  130.3721  150.1239 LP  0  0  0  0  0  0  0  0  0  0  0  0  # atno 17370 bound_to 10713
  156.9418  130.9747  151.3514 LP  0  0  0  0  0  0  0  0  0  0  0  0  # atno 17371 bound_to 10713
  140.6558  134.5020  157.5580 LP  0  0  0  0  0  0  0  0  0  0  0  0  # atno 17394 bound_to 11000
  139.9151  134.8262  156.1392 LP  0  0  0  0  0  0  0  0  0  0  0  0  # atno 17395 bound_to 11000

$$$$
