AV-unprocessed.smi:697|AV-procd|sdf|3394|dock8
  -GOLD-   22720 0373D 1   1.00000     0.00000
 Structure written by MMmdl.
 43 44  0  0  0  0  0  0  0  0  2 V2000
  144.8635  135.6371  150.7898 C   0  0  0  0  0  0  0  0  0  0  0  0
  145.0971  134.2874  150.4062 O   0  0  0  0  0  0  0  0  0  0  0  0
  144.8842  133.2736  151.3985 C   0  0  2  0  0  0  0  0  0  0  0  0
  143.3840  133.0530  151.6300 C   0  0  0  0  0  0  0  0  0  0  0  0
  145.8080  133.5105  152.6087 C   0  0  0  0  0  0  0  0  0  0  0  0
  146.9013  132.7903  151.8222 C   0  0  1  0  0  0  0  0  0  0  0  0
  147.7363  131.9436  152.6674 N   0  0  0  0  0  0  0  0  0  0  0  0
  148.7449  132.3895  153.4276 C   0  0  0  0  0  0  0  0  0  0  0  0
  149.0629  133.5766  153.4958 O   0  0  0  0  0  0  0  0  0  0  0  0
  149.3491  131.3699  154.0635 N   0  0  0  0  0  0  0  0  0  0  0  0
  150.4224  131.3937  154.9698 C   0  0  0  0  0  0  0  0  0  0  0  0
  151.4758  130.5306  154.9506 C   0  0  0  0  0  0  0  0  0  0  0  0
  152.5711  130.6152  155.9087 C   0  0  0  0  0  0  0  0  0  0  0  0
  153.7981  129.7218  155.8679 C   0  0  0  0  0  0  0  0  0  0  0  0
  154.9079  130.4387  155.6879 F   0  0  0  0  0  0  0  0  0  0  0  0
  153.9147  129.0579  157.0170 F   0  0  0  0  0  0  0  0  0  0  0  0
  153.7086  128.8309  154.8801 F   0  0  0  0  0  0  0  0  0  0  0  0
  152.4182  131.6699  156.7877 C   0  0  0  0  0  0  0  0  0  0  0  0
  151.4071  132.5614  156.8795 N   0  5  0  0  0  0  0  0  0  0  0  0
  150.3843  132.4680  155.9835 C   0  0  0  0  0  0  0  0  0  0  0  0
  149.4369  133.2547  156.0038 O   0  0  0  0  0  0  0  0  0  0  0  0
  145.7843  132.0433  151.0489 C   0  0  0  0  0  0  0  0  0  0  0  0
  145.3301  130.6890  151.6264 C   0  0  0  0  0  0  0  0  0  0  0  0
  146.0527  131.7922  149.5610 C   0  0  0  0  0  0  0  0  0  0  0  0
  145.2097  136.2971  149.9946 H   0  0  0  0  0  0  0  0  0  0  0  0
  145.3966  135.9095  151.7001 H   0  0  0  0  0  0  0  0  0  0  0  0
  143.8017  135.8365  150.9323 H   0  0  0  0  0  0  0  0  0  0  0  0
  143.1961  132.2184  152.3045 H   0  0  0  0  0  0  0  0  0  0  0  0
  142.8662  132.8395  150.6947 H   0  0  0  0  0  0  0  0  0  0  0  0
  142.9093  133.9212  152.0862 H   0  0  0  0  0  0  0  0  0  0  0  0
  146.0379  134.5494  152.8425 H   0  0  0  0  0  0  0  0  0  0  0  0
  145.4835  132.9718  153.5008 H   0  0  0  0  0  0  0  0  0  0  0  0
  147.4656  133.4824  151.1925 H   0  0  0  0  0  0  0  0  0  0  0  0
  147.5407  130.9532  152.6640 H   0  0  0  0  0  0  0  0  0  0  0  0
  149.0161  130.4428  153.8426 H   0  0  0  0  0  0  0  0  0  0  0  0
  151.5430  129.7566  154.2039 H   0  0  0  0  0  0  0  0  0  0  0  0
  153.2348  131.8245  157.5249 H   0  0  0  0  0  0  0  0  0  0  0  0
  146.0895  129.9182  151.4904 H   0  0  0  0  0  0  0  0  0  0  0  0
  144.4208  130.3330  151.1412 H   0  0  0  0  0  0  0  0  0  0  0  0
  145.1236  130.7447  152.6953 H   0  0  0  0  0  0  0  0  0  0  0  0
  146.7408  130.9596  149.4118 H   0  0  0  0  0  0  0  0  0  0  0  0
  146.5030  132.6581  149.0755 H   0  0  0  0  0  0  0  0  0  0  0  0
  145.1321  131.5615  149.0240 H   0  0  0  0  0  0  0  0  0  0  0  0
  1  2  1  0  0  0  0
  1 25  1  0  0  0  0
  1 26  1  0  0  0  0
  1 27  1  0  0  0  0
  2  3  1  0  0  0  0
  3 22  1  0  0  0  0
  3  4  1  0  0  0  0
  3  5  1  0  0  0  0
  4 28  1  0  0  0  0
  4 29  1  0  0  0  0
  4 30  1  0  0  0  0
  5  6  1  0  0  0  0
  5 31  1  0  0  0  0
  5 32  1  0  0  0  0
  6  7  1  0  0  0  0
  6 22  1  0  0  0  0
  6 33  1  0  0  0  0
  7  8  1  0  0  0  0
  7 34  1  0  0  0  0
  8  9  2  0  0  0  0
  8 10  1  0  0  0  0
 10 11  1  0  0  0  0
 10 35  1  0  0  0  0
 11 20  1  0  0  0  0
 11 12  2  0  0  0  0
 12 13  1  0  0  0  0
 12 36  1  0  0  0  0
 13 14  1  0  0  0  0
 13 18  2  0  0  0  0
 14 15  1  0  0  0  0
 14 16  1  0  0  0  0
 14 17  1  0  0  0  0
 18 19  1  0  0  0  0
 18 37  1  0  0  0  0
 19 20  1  0  0  0  0
 20 21  2  0  0  0  0
 22 23  1  0  0  0  0
 22 24  1  0  0  0  0
 23 38  1  0  0  0  0
 23 39  1  0  0  0  0
 23 40  1  0  0  0  0
 24 41  1  0  0  0  0
 24 42  1  0  0  0  0
 24 43  1  0  0  0  0
M  CHG  1  19  -1
M  END
> <s_m_source_file>
AV-unprocessed.smi

> <i_m_source_file_index>
697

> <i_lp_mmshare_version>
43012

> <i_f3d_flags>
0

> <s_epik_input>
W0NIM11PW0NAQF0xKFtDSDNdKVtDSDJdW0NASF0oQzEoW0NIM10pW0NIM10pW05IXUMoPU8pW05IXWMyW2NIXWMoQyhGKShGKUYpW2NIXVtuSF1jMj1P

> <s_epik_cmdline>
J2VwaWtfcHl0aG9uJywgJy1waCcsICc3LjAnLCAnLXRuJywgJzgnLCAnLW1hJywgJzIwMCcsICctbWV0YWxfYmluZGluZycsICctaW1hZScsICc8aW5maWxlLm1hZT4nLCAnLW9tYWUnLCAnPG91dGZpbGUubWFlPic=

> <r_lp_tautomer_probability>
1

> <r_epik_Ionization_Penalty>
3.20094

> <r_epik_Ionization_Penalty_Charging>
0.180017

> <r_epik_Ionization_Penalty_Neutral>
3.02092

> <r_epik_State_Penalty>
3.01726

> <r_epik_Charging_Adjusted_Penalty>
3.19727

> <i_epik_Tot_Q>
-1

> <i_epik_Tot_abs_Q>
1

> <r_epik_Metal_State_Penalty>
0.455096

> <b_epik_Metal_Only>
1

> <s_lp_Force_Field>
OPLS_2005

> <r_lp_Energy>
36.2607

> <b_lp_Chiralities_Consistent>
1

> <s_lp_Variant>
AV-unprocessed.smi:697-6

> <Gold.Version>
5.8.1

> <Gold.Id.Protein>
6NUR|6NUR_protein|mol2

> <Gold.PLP.Fitness>
38.6862

> <Gold.PLP.PLP>
-39.6964

> <Gold.PLP.part.hbond>
-1.0000

> <Gold.PLP.part.metal>
0.0000

> <Gold.PLP.part.buried>
-5.9993

> <Gold.PLP.part.nonpolar>
-34.7091

> <Gold.PLP.part.repulsive>
1.7136

> <Gold.PLP.ligand.clash>
0.0000

> <Gold.PLP.ligand.torsion>
0.7175

> <Gold.PLP.Chemscore.Hbond>
0.0000

> <Gold.PLP.Chemscore.CHOScore>
0.0000

> <Gold.PLP.Chemscore.Metal>
0.0000

> <Gold.PLP.Chemscore.Internal.Correction>
0.4248

> <Gold.Rescore>
     Score         DG    S(hbond)    S(metal)    S(lipo)     H(rot)  DE(clash)    DE(int)     intcor
      9.00     -12.80       0.00        0.00      90.94       1.30       0.30       3.50       ----

> <Gold.Chemscore.Fitness>
8.9985

> <Gold.Chemscore.DG>
-12.7997

> <Gold.Chemscore.ZeroCoef>
-5.4800

> <Gold.Chemscore.Hbond>
0.0003

> <Gold.Chemscore.Metal>
0.0000

> <Gold.Chemscore.Lipo>
90.9367

> <Gold.Chemscore.Internal_Hbond>
0.0000

> <Gold.Chemscore.DEClash>
0.3015

> <Gold.Chemscore.DEInternal>
3.4997

> <Gold.Chemscore.Rot>
1.2973

> <Gold.Chemscore.Internal.Correction>
   9.000000E+99

> <Gold.Chemscore.Hbond.Weighted>
-0.0011

> <Gold.Chemscore.Metal.Weighted>
-0.0000

> <Gold.Chemscore.Lipo.Weighted>
-10.6396

> <Gold.Chemscore.Internal_Hbond.Weighted>
0.0000

> <Gold.Chemscore.DEClash.Weighted>
0.3015

> <Gold.Chemscore.DEInternal.Weighted>
3.4997

> <Gold.Chemscore.Rot.Weighted>
3.3210

> <Gold.Chemscore.Internal.Correction.Weighted>
   9.000000E+99

> <Gold.Protein.RotatedTorsions>
[ 6907 6896 6895 6894 ] final  147.41 input  -60.11 | X-H torsion
[ 7974 7965 7964 7962 ] final  137.78 input  175.53 | X-H torsion
[ 8008 7997 7996 7995 ] final  123.65 input   59.86 | X-H torsion
[ 10167 10162 10161 10158 ] final  137.86 input  -65.29 | X-H torsion
[ 10718 10713 10712 10709 ] final   46.11 input   66.30 | X-H torsion
[ 10763 10752 10751 10750 ] final   38.08 input  -60.55 | X-H torsion
[ 11005 11000 10999 10996 ] final  102.08 input  -57.11 | X-H torsion

> <Gold.Protein.ActiveResidues>
 VAL166  LYS551  ARG553  GLY616  TRP617  ASP618  TYR619  PRO620  LYS621  CYS622 
 ASP623  PHE694  ASN695  SER759  ASP760  ASP761  ALA762  ILE779  LEU786  VAL792 
 PHE793  MET794  SER795  GLU796  ALA797  LYS798  CYS799  TRP800  GLU811  SER814 

> <Gold.Protein.RotatedAtoms>
  152.1551  133.4546  159.4832 H   0  0  0  0  0  0  0  0  0  0  0  0  # atno 6907 bound_to 6896
  150.6900  134.2141  159.4380 H   0  0  0  0  0  0  0  0  0  0  0  0  # atno 6908 bound_to 6896
  152.0040  134.9912  160.0616 H   0  0  0  0  0  0  0  0  0  0  0  0  # atno 6909 bound_to 6896
  144.9435  139.4903  143.5560 H   0  0  0  0  0  0  0  0  0  0  0  0  # atno 7974 bound_to 7965
  156.2774  140.2758  156.1662 H   0  0  0  0  0  0  0  0  0  0  0  0  # atno 8008 bound_to 7997
  155.0702  140.0387  157.2624 H   0  0  0  0  0  0  0  0  0  0  0  0  # atno 8009 bound_to 7997
  154.7046  140.2656  155.6692 H   0  0  0  0  0  0  0  0  0  0  0  0  # atno 8010 bound_to 7997
  139.5130  144.6386  151.5630 H   0  0  0  0  0  0  0  0  0  0  0  0  # atno 10167 bound_to 10162
  157.4447  130.8102  149.7728 H   0  0  0  0  0  0  0  0  0  0  0  0  # atno 10718 bound_to 10713
  153.0014  135.6259  154.2247 H   0  0  0  0  0  0  0  0  0  0  0  0  # atno 10763 bound_to 10752
  154.1989  135.2805  155.2999 H   0  0  0  0  0  0  0  0  0  0  0  0  # atno 10764 bound_to 10752
  154.5699  135.5679  153.7144 H   0  0  0  0  0  0  0  0  0  0  0  0  # atno 10765 bound_to 10752
  139.8776  134.9209  156.5004 H   0  0  0  0  0  0  0  0  0  0  0  0  # atno 11005 bound_to 11000
  146.3295  139.8470  142.8880 LP  0  0  0  0  0  0  0  0  0  0  0  0  # atno 17320 bound_to 7965
  145.2954  141.0179  143.3639 LP  0  0  0  0  0  0  0  0  0  0  0  0  # atno 17321 bound_to 7965
  140.6144  143.9376  150.6477 LP  0  0  0  0  0  0  0  0  0  0  0  0  # atno 17342 bound_to 10162
  140.2629  143.3511  152.1306 LP  0  0  0  0  0  0  0  0  0  0  0  0  # atno 17343 bound_to 10162
  155.9962  130.3907  150.2787 LP  0  0  0  0  0  0  0  0  0  0  0  0  # atno 17370 bound_to 10713
  157.0954  131.0181  151.3106 LP  0  0  0  0  0  0  0  0  0  0  0  0  # atno 17371 bound_to 10713
  140.8593  133.8072  155.9249 LP  0  0  0  0  0  0  0  0  0  0  0  0  # atno 17394 bound_to 11000
  140.9065  134.2313  157.5011 LP  0  0  0  0  0  0  0  0  0  0  0  0  # atno 17395 bound_to 11000

$$$$
