AV-unprocessed.smi:3290|AV-procd|sdf|12616|dock4
  -GOLD-   2272018553D 1   1.00000     0.00000
 Structure written by MMmdl.
 43 44  0  0  0  0  0  0  0  0  2 V2000
  151.8062  145.7855  159.5981 C   0  0  0  0  0  0  0  0  0  0  0  0
  152.4547  144.4112  159.8328 C   0  0  1  0  0  0  0  0  0  0  0  0
  152.1365  143.8687  161.2422 C   0  0  0  0  0  0  0  0  0  0  0  0
  152.8737  142.5498  161.5214 C   0  0  0  0  0  0  0  0  0  0  0  0
  152.5907  141.5057  160.4321 C   0  0  0  0  0  0  0  0  0  0  0  0
  152.9225  142.0589  159.0360 C   0  0  0  0  0  0  0  0  0  0  0  0
  152.1551  143.3624  158.7222 C   0  0  1  0  0  0  0  0  0  0  0  0
  150.6533  143.0739  158.4773 C   0  0  0  0  0  0  0  0  0  0  0  0
  150.3907  142.6201  157.0971 N   0  3  0  0  0  0  0  0  0  0  0  0
  149.2661  141.6709  156.9758 C   0  0  0  0  0  0  0  0  0  0  0  0
  149.1837  141.0745  155.5600 C   0  0  1  0  0  0  0  0  0  0  0  0
  149.3188  142.1196  154.6166 O   0  0  0  0  0  0  0  0  0  0  0  0
  150.2332  139.9934  155.3560 C   0  0  0  0  0  0  0  0  0  0  0  0
  151.5433  140.1399  155.8620 C   0  0  0  0  0  0  0  0  0  0  0  0
  152.4693  139.0998  155.6459 C   0  0  0  0  0  0  0  0  0  0  0  0
  152.1671  137.9651  154.9800 N   0  0  0  0  0  0  0  0  0  0  0  0
  150.9125  137.8291  154.5002 C   0  0  0  0  0  0  0  0  0  0  0  0
  149.9121  138.8086  154.6612 C   0  0  0  0  0  0  0  0  0  0  0  0
  150.7250  145.7507  159.7306 H   0  0  0  0  0  0  0  0  0  0  0  0
  152.0156  146.1559  158.5945 H   0  0  0  0  0  0  0  0  0  0  0  0
  152.1929  146.5209  160.3044 H   0  0  0  0  0  0  0  0  0  0  0  0
  153.5317  144.5859  159.8041 H   0  0  0  0  0  0  0  0  0  0  0  0
  152.4231  144.6038  161.9953 H   0  0  0  0  0  0  0  0  0  0  0  0
  151.0628  143.7219  161.3592 H   0  0  0  0  0  0  0  0  0  0  0  0
  153.9469  142.7380  161.5731 H   0  0  0  0  0  0  0  0  0  0  0  0
  152.5823  142.1593  162.4968 H   0  0  0  0  0  0  0  0  0  0  0  0
  153.1775  140.6066  160.6223 H   0  0  0  0  0  0  0  0  0  0  0  0
  151.5443  141.2023  160.4747 H   0  0  0  0  0  0  0  0  0  0  0  0
  153.9950  142.2510  158.9777 H   0  0  0  0  0  0  0  0  0  0  0  0
  152.7162  141.3028  158.2776 H   0  0  0  0  0  0  0  0  0  0  0  0
  152.5671  143.7407  157.7851 H   0  0  0  0  0  0  0  0  0  0  0  0
  150.3153  142.2807  159.1452 H   0  0  0  0  0  0  0  0  0  0  0  0
  150.0431  143.9482  158.7028 H   0  0  0  0  0  0  0  0  0  0  0  0
  150.1868  143.4300  156.5291 H   0  0  0  0  0  0  0  0  0  0  0  0
  149.3712  140.8792  157.7193 H   0  0  0  0  0  0  0  0  0  0  0  0
  148.3414  142.2031  157.2035 H   0  0  0  0  0  0  0  0  0  0  0  0
  148.1981  140.6298  155.4133 H   0  0  0  0  0  0  0  0  0  0  0  0
  149.5268  142.9167  155.0809 H   0  0  0  0  0  0  0  0  0  0  0  0
  151.8367  141.0265  156.4050 H   0  0  0  0  0  0  0  0  0  0  0  0
  153.4791  139.1808  156.0201 H   0  0  0  0  0  0  0  0  0  0  0  0
  150.6980  136.9110  153.9734 H   0  0  0  0  0  0  0  0  0  0  0  0
  148.9228  138.6477  154.2585 H   0  0  0  0  0  0  0  0  0  0  0  0
  151.2238  142.1758  156.7376 H   0  0  0  0  0  0  0  0  0  0  0  0
  1  2  1  0  0  0  0
  1 19  1  0  0  0  0
  1 20  1  0  0  0  0
  1 21  1  0  0  0  0
  2  7  1  0  0  0  0
  2  3  1  0  0  0  0
  2 22  1  0  0  0  0
  3  4  1  0  0  0  0
  3 23  1  0  0  0  0
  3 24  1  0  0  0  0
  4  5  1  0  0  0  0
  4 25  1  0  0  0  0
  4 26  1  0  0  0  0
  5  6  1  0  0  0  0
  5 27  1  0  0  0  0
  5 28  1  0  0  0  0
  6  7  1  0  0  0  0
  6 29  1  0  0  0  0
  6 30  1  0  0  0  0
  7  8  1  0  0  0  0
  7 31  1  0  0  0  0
  8  9  1  0  0  0  0
  8 32  1  0  0  0  0
  8 33  1  0  0  0  0
  9 10  1  0  0  0  0
  9 34  1  0  0  0  0
  9 43  1  0  0  0  0
 10 11  1  0  0  0  0
 10 35  1  0  0  0  0
 10 36  1  0  0  0  0
 11 12  1  0  0  0  0
 11 13  1  0  0  0  0
 11 37  1  0  0  0  0
 12 38  1  0  0  0  0
 13 18  1  0  0  0  0
 13 14  2  0  0  0  0
 14 15  1  0  0  0  0
 14 39  1  0  0  0  0
 15 16  2  0  0  0  0
 15 40  1  0  0  0  0
 16 17  1  0  0  0  0
 17 18  2  0  0  0  0
 17 41  1  0  0  0  0
 18 42  1  0  0  0  0
M  CHG  1   9   1
M  END
> <s_m_source_file>
AV-unprocessed.smi

> <i_m_source_file_index>
3290

> <i_lp_mmshare_version>
43012

> <i_f3d_flags>
0

> <s_epik_input>
W0NIM11bQ0BASF0xW0NIMl1bQ0gyXVtDSDJdW0NIMl1bQ0BIXTFbQ0gyXVtOSF1bQ0gyXVtDQEhdKFtPSF0pYzJbY0hdW2NIXW5bY0hdW2NIXTI=

> <s_epik_cmdline>
J2VwaWtfcHl0aG9uJywgJy1waCcsICc3LjAnLCAnLXRuJywgJzgnLCAnLW1hJywgJzIwMCcsICctbWV0YWxfYmluZGluZycsICctaW1hZScsICc8aW5maWxlLm1hZT4nLCAnLW9tYWUnLCAnPG91dGZpbGUubWFlPic=

> <r_lp_tautomer_probability>
1

> <r_epik_Ionization_Penalty>
0.00420552

> <r_epik_Ionization_Penalty_Charging>
0.00207255

> <r_epik_Ionization_Penalty_Neutral>
0.00213297

> <r_epik_State_Penalty>
-0

> <r_epik_Charging_Adjusted_Penalty>
0.00207255

> <i_epik_Tot_Q>
1

> <i_epik_Tot_abs_Q>
1

> <r_epik_Metal_State_Penalty>
-0

> <b_epik_Metal_Only>
0

> <s_lp_Force_Field>
OPLS_2005

> <r_lp_Energy>
19.3007

> <b_lp_Chiralities_Consistent>
1

> <s_lp_Variant>
AV-unprocessed.smi:3290-6

> <Gold.Version>
5.8.1

> <Gold.Id.Protein>
6NUR|6NUR_protein|mol2

> <Gold.PLP.Fitness>
58.0565

> <Gold.PLP.PLP>
-48.0222

> <Gold.PLP.part.hbond>
-3.0000

> <Gold.PLP.part.metal>
0.0000

> <Gold.PLP.part.buried>
-3.6719

> <Gold.PLP.part.nonpolar>
-40.4363

> <Gold.PLP.part.repulsive>
0.1083

> <Gold.PLP.ligand.clash>
0.0000

> <Gold.PLP.ligand.torsion>
1.1824

> <Gold.PLP.Chemscore.Hbond>
2.9652

> <Gold.PLP.Chemscore.CHOScore>
1.1278

> <Gold.PLP.Chemscore.Metal>
0.0000

> <Gold.Chemscore.Hbonds>
donor molecule, donor type, donor heavy atom, donor atom, acceptor molecule, acceptor atom, score
      L1  H     9    34       P1  8028  2.00
      L1  H    12    38       P1  8028  0.91
      P1  H  8011  8017       L1    12  0.06
      L1  C    17    41       P1  7948  0.22
      L1  C    17    41       P1  7949  0.45

> <Gold.PLP.Chemscore.Internal.Correction>
0.1201

> <Gold.Rescore>
     Score         DG    S(hbond)    S(metal)    S(lipo)     H(rot)  DE(clash)    DE(int)     intcor
     21.08     -22.84       1.95        0.00     137.52       2.05       0.30       1.47       ----

> <Gold.Chemscore.Fitness>
21.0753

> <Gold.Chemscore.DG>
-22.8413

> <Gold.Chemscore.ZeroCoef>
-5.4800

> <Gold.Chemscore.Hbond>
1.9519

> <Gold.Chemscore.Metal>
0.0000

> <Gold.Chemscore.Lipo>
137.5176

> <Gold.Chemscore.Internal_Hbond>
0.0000

> <Gold.Chemscore.DEClash>
0.2967

> <Gold.Chemscore.DEInternal>
1.4693

> <Gold.Chemscore.Rot>
2.0498

> <Gold.Chemscore.Internal.Correction>
   9.000000E+99

> <Gold.Chemscore.Hbonds>
donor molecule, donor type, donor heavy atom, donor atom, acceptor molecule, acceptor atom, score
      L1  H     9    34       P1  8028  0.91
      L1  H    12    38       P1  8028  0.87
      P1  H  8011  8017       L1    12  0.04

> <Gold.Chemscore.Hbond.Weighted>
-6.5192

> <Gold.Chemscore.Metal.Weighted>
-0.0000

> <Gold.Chemscore.Lipo.Weighted>
-16.0896

> <Gold.Chemscore.Internal_Hbond.Weighted>
0.0000

> <Gold.Chemscore.DEClash.Weighted>
0.2967

> <Gold.Chemscore.DEInternal.Weighted>
1.4693

> <Gold.Chemscore.Rot.Weighted>
5.2475

> <Gold.Chemscore.Internal.Correction.Weighted>
   9.000000E+99

> <Gold.Protein.RotatedTorsions>
[ 6907 6896 6895 6894 ] final -106.63 input  -60.11 | X-H torsion
[ 7974 7965 7964 7962 ] final   67.63 input  175.53 | X-H torsion
[ 8008 7997 7996 7995 ] final  117.45 input   59.86 | X-H torsion
[ 10167 10162 10161 10158 ] final -176.51 input  -65.29 | X-H torsion
[ 10718 10713 10712 10709 ] final   70.87 input   66.30 | X-H torsion
[ 10763 10752 10751 10750 ] final   51.04 input  -60.55 | X-H torsion
[ 11005 11000 10999 10996 ] final  116.53 input  -57.11 | X-H torsion

> <Gold.Protein.ActiveResidues>
 VAL166  LYS551  ARG553  GLY616  TRP617  ASP618  TYR619  PRO620  LYS621  CYS622 
 ASP623  PHE694  ASN695  SER759  ASP760  ASP761  ALA762  ILE779  LEU786  VAL792 
 PHE793  MET794  SER795  GLU796  ALA797  LYS798  CYS799  TRP800  GLU811  SER814 

> <Gold.Protein.RotatedAtoms>
  150.7399  133.9948  159.3618 H   0  0  0  0  0  0  0  0  0  0  0  0  # atno 6907 bound_to 6896
  151.7898  135.0737  160.0395 H   0  0  0  0  0  0  0  0  0  0  0  0  # atno 6908 bound_to 6896
  152.3216  133.5823  159.5784 H   0  0  0  0  0  0  0  0  0  0  0  0  # atno 6909 bound_to 6896
  145.8123  139.3039  143.1091 H   0  0  0  0  0  0  0  0  0  0  0  0  # atno 7974 bound_to 7965
  156.2494  140.2896  156.0680 H   0  0  0  0  0  0  0  0  0  0  0  0  # atno 8008 bound_to 7997
  155.1702  140.0401  157.2878 H   0  0  0  0  0  0  0  0  0  0  0  0  # atno 8009 bound_to 7997
  154.6331  140.2504  155.7417 H   0  0  0  0  0  0  0  0  0  0  0  0  # atno 8010 bound_to 7997
  139.5526  144.2070  152.1104 H   0  0  0  0  0  0  0  0  0  0  0  0  # atno 10167 bound_to 10162
  157.6422  130.9499  150.0710 H   0  0  0  0  0  0  0  0  0  0  0  0  # atno 10718 bound_to 10713
  152.9785  135.5859  154.4351 H   0  0  0  0  0  0  0  0  0  0  0  0  # atno 10763 bound_to 10752
  154.3959  135.2768  155.2128 H   0  0  0  0  0  0  0  0  0  0  0  0  # atno 10764 bound_to 10752
  154.3980  135.6110  153.5935 H   0  0  0  0  0  0  0  0  0  0  0  0  # atno 10765 bound_to 10752
  139.9044  134.9599  156.7212 H   0  0  0  0  0  0  0  0  0  0  0  0  # atno 11005 bound_to 11000
  145.9763  140.8719  143.0137 LP  0  0  0  0  0  0  0  0  0  0  0  0  # atno 17320 bound_to 7965
  144.6756  140.2017  143.7386 LP  0  0  0  0  0  0  0  0  0  0  0  0  # atno 17321 bound_to 7965
  140.1568  144.5063  150.6655 LP  0  0  0  0  0  0  0  0  0  0  0  0  # atno 17342 bound_to 10162
  140.6792  143.2319  151.5428 LP  0  0  0  0  0  0  0  0  0  0  0  0  # atno 17343 bound_to 10162
  156.1714  130.3646  149.9160 LP  0  0  0  0  0  0  0  0  0  0  0  0  # atno 17370 bound_to 10713
  156.7134  130.8979  151.3611 LP  0  0  0  0  0  0  0  0  0  0  0  0  # atno 17371 bound_to 10713
  140.6999  133.9315  155.8018 LP  0  0  0  0  0  0  0  0  0  0  0  0  # atno 17394 bound_to 11000
  141.0379  134.0663  157.3937 LP  0  0  0  0  0  0  0  0  0  0  0  0  # atno 17395 bound_to 11000

$$$$
