AV-unprocessed.smi:3163|AV-procd|sdf|12076|dock1
  -GOLD-   2272017503D 1   1.00000     0.00000
 Structure written by MMmdl.
 37 38  0  0  0  0  0  0  0  0  3 V2000
  143.9367  132.2508  149.4674 C   0  0  0  0  0  0  0  0  0  0  0  0
  143.8667  133.5041  150.2475 N   0  3  2  0  0  0  0  0  0  0  0  0
  144.4242  134.6829  149.5502 C   0  0  0  0  0  0  0  0  0  0  0  0
  144.9558  135.5917  150.6550 C   0  0  0  0  0  0  0  0  0  0  0  0
  145.4929  134.5924  151.6758 C   0  0  1  0  0  0  0  0  0  0  0  0
  145.6820  135.1807  153.0875 C   0  0  0  0  0  0  0  0  0  0  0  0
  146.7115  136.2148  153.1235 N   0  0  0  0  0  0  0  0  0  0  0  0
  146.5190  137.4779  153.5306 C   0  0  0  0  0  0  0  0  0  0  0  0
  145.4314  137.9040  153.9167 O   0  0  0  0  0  0  0  0  0  0  0  0
  147.6589  138.1884  153.4671 N   0  0  0  0  0  0  0  0  0  0  0  0
  147.8868  139.5521  153.8027 C   0  0  0  0  0  0  0  0  0  0  0  0
  149.1701  139.8927  154.2856 C   0  0  0  0  0  0  0  0  0  0  0  0
  149.4559  141.2314  154.6226 C   0  0  0  0  0  0  0  0  0  0  0  0
  148.5060  142.1792  154.4752 N   0  3  0  0  0  0  0  0  0  0  0  0
  147.2695  141.9059  154.0071 C   0  0  0  0  0  0  0  0  0  0  0  0
  146.9254  140.5850  153.6534 C   0  0  0  0  0  0  0  0  0  0  0  0
  144.4928  133.4290  151.5890 C   0  0  0  0  0  0  0  0  0  0  0  0
  144.9715  131.9663  149.2720 H   0  0  0  0  0  0  0  0  0  0  0  0
  143.4258  132.3691  148.5114 H   0  0  0  0  0  0  0  0  0  0  0  0
  143.4531  131.4373  150.0090 H   0  0  0  0  0  0  0  0  0  0  0  0
  145.2495  134.3782  148.9045 H   0  0  0  0  0  0  0  0  0  0  0  0
  143.6744  135.1719  148.9275 H   0  0  0  0  0  0  0  0  0  0  0  0
  145.7171  136.2870  150.2998 H   0  0  0  0  0  0  0  0  0  0  0  0
  144.1387  136.1738  151.0837 H   0  0  0  0  0  0  0  0  0  0  0  0
  146.4563  134.2360  151.3060 H   0  0  0  0  0  0  0  0  0  0  0  0
  144.7383  135.5862  153.4564 H   0  0  0  0  0  0  0  0  0  0  0  0
  145.9702  134.3939  153.7852 H   0  0  0  0  0  0  0  0  0  0  0  0
  147.6393  135.9426  152.8325 H   0  0  0  0  0  0  0  0  0  0  0  0
  148.4804  137.6735  153.1857 H   0  0  0  0  0  0  0  0  0  0  0  0
  149.9324  139.1359  154.4026 H   0  0  0  0  0  0  0  0  0  0  0  0
  150.4092  141.5699  155.0015 H   0  0  0  0  0  0  0  0  0  0  0  0
  146.5972  142.7473  153.9251 H   0  0  0  0  0  0  0  0  0  0  0  0
  145.9356  140.4001  153.2669 H   0  0  0  0  0  0  0  0  0  0  0  0
  143.7028  133.5376  152.3329 H   0  0  0  0  0  0  0  0  0  0  0  0
  144.9838  132.4717  151.7711 H   0  0  0  0  0  0  0  0  0  0  0  0
  142.8888  133.7011  150.4068 H   0  0  0  0  0  0  0  0  0  0  0  0
  148.7329  143.1426  154.7239 H   0  0  0  0  0  0  0  0  0  0  0  0
  1  2  1  0  0  0  0
  1 18  1  0  0  0  0
  1 19  1  0  0  0  0
  1 20  1  0  0  0  0
  2 17  1  0  0  0  0
  2  3  1  0  0  0  0
  2 36  1  0  0  0  0
  3  4  1  0  0  0  0
  3 21  1  0  0  0  0
  3 22  1  0  0  0  0
  4  5  1  0  0  0  0
  4 23  1  0  0  0  0
  4 24  1  0  0  0  0
  5  6  1  0  0  0  0
  5 17  1  0  0  0  0
  5 25  1  0  0  0  0
  6  7  1  0  0  0  0
  6 26  1  0  0  0  0
  6 27  1  0  0  0  0
  7  8  1  0  0  0  0
  7 28  1  0  0  0  0
  8  9  2  0  0  0  0
  8 10  1  0  0  0  0
 10 11  1  0  0  0  0
 10 29  1  0  0  0  0
 11 16  1  0  0  0  0
 11 12  2  0  0  0  0
 12 13  1  0  0  0  0
 12 30  1  0  0  0  0
 13 14  2  0  0  0  0
 13 31  1  0  0  0  0
 14 15  1  0  0  0  0
 14 37  1  0  0  0  0
 15 16  2  0  0  0  0
 15 32  1  0  0  0  0
 16 33  1  0  0  0  0
 17 34  1  0  0  0  0
 17 35  1  0  0  0  0
M  CHG  1   2   1
M  CHG  1  14   1
M  END
> <s_m_source_file>
AV-unprocessed.smi

> <i_m_source_file_index>
3163

> <i_lp_mmshare_version>
43012

> <i_f3d_flags>
0

> <s_epik_input>
W0NIM11OMVtDSDJdW0NIMl1bQ0BIXShbQ0gyXTEpW0NIMl1bTkhdQyg9TylbTkhdYzJbY0hdW2NIXW5bY0hdW2NIXTI=

> <s_epik_cmdline>
J2VwaWtfcHl0aG9uJywgJy1waCcsICc3LjAnLCAnLXRuJywgJzgnLCAnLW1hJywgJzIwMCcsICctbWV0YWxfYmluZGluZycsICctaW1hZScsICc8aW5maWxlLm1hZT4nLCAnLW9tYWUnLCAnPG91dGZpbGUubWFlPic=

> <r_epik_Ionization_Penalty>
1.09034

> <r_epik_Ionization_Penalty_Charging>
1.09032

> <r_epik_Ionization_Penalty_Neutral>
1.86664e-05

> <r_epik_State_Penalty>
1.14521

> <r_epik_Charging_Adjusted_Penalty>
2.23553

> <i_epik_Tot_Q>
2

> <i_epik_Tot_abs_Q>
2

> <r_epik_Metal_State_Penalty>
1.23399

> <b_epik_Metal_Only>
0

> <s_lp_Force_Field>
OPLS_2005

> <r_lp_Energy>
39.3884

> <b_lp_Chiralities_Consistent>
1

> <s_lp_Variant>
AV-unprocessed.smi:3163-6

> <Gold.Version>
5.8.1

> <Gold.Id.Protein>
6NUR|6NUR_protein|mol2

> <Gold.PLP.Fitness>
45.9118

> <Gold.PLP.PLP>
-29.1839

> <Gold.PLP.part.hbond>
-4.0000

> <Gold.PLP.part.metal>
0.0000

> <Gold.PLP.part.buried>
1.0116

> <Gold.PLP.part.nonpolar>
-26.3636

> <Gold.PLP.part.repulsive>
0.5756

> <Gold.PLP.ligand.clash>
0.0000

> <Gold.PLP.ligand.torsion>
0.2194

> <Gold.PLP.Chemscore.Hbond>
5.7213

> <Gold.PLP.Chemscore.CHOScore>
0.0000

> <Gold.PLP.Chemscore.Metal>
0.0000

> <Gold.Chemscore.Hbonds>
donor molecule, donor type, donor heavy atom, donor atom, acceptor molecule, acceptor atom, score
      L1  H     2    36       P1 10186  1.14
      L1  H     7    28       P1  7948  0.98
      L1  H    10    29       P1  7948  0.77
      L1  H    14    37       P1  8028  2.00

> <Gold.PLP.Chemscore.Internal.Correction>
0.0029

> <Gold.Rescore>
     Score         DG    S(hbond)    S(metal)    S(lipo)     H(rot)  DE(clash)    DE(int)     intcor
     21.18     -24.80       3.89        0.00      81.99       1.27       3.34       0.29       ----

> <Gold.Chemscore.Fitness>
21.1783

> <Gold.Chemscore.DG>
-24.8020

> <Gold.Chemscore.ZeroCoef>
-5.4800

> <Gold.Chemscore.Hbond>
3.8879

> <Gold.Chemscore.Metal>
0.0000

> <Gold.Chemscore.Lipo>
81.9891

> <Gold.Chemscore.Internal_Hbond>
0.0000

> <Gold.Chemscore.DEClash>
3.3354

> <Gold.Chemscore.DEInternal>
0.2883

> <Gold.Chemscore.Rot>
1.2721

> <Gold.Chemscore.Internal.Correction>
   9.000000E+99

> <Gold.Chemscore.Hbonds>
donor molecule, donor type, donor heavy atom, donor atom, acceptor molecule, acceptor atom, score
      L1  H     2    36       P1 10186  0.54
      L1  H     7    28       P1  7948  0.93
      L1  H    10    29       P1  7948  0.73
      L1  H    14    37       P1  8028  1.00

> <Gold.Chemscore.Hbond.Weighted>
-12.9857

> <Gold.Chemscore.Metal.Weighted>
-0.0000

> <Gold.Chemscore.Lipo.Weighted>
-9.5927

> <Gold.Chemscore.Internal_Hbond.Weighted>
0.0000

> <Gold.Chemscore.DEClash.Weighted>
3.3354

> <Gold.Chemscore.DEInternal.Weighted>
0.2883

> <Gold.Chemscore.Rot.Weighted>
3.2565

> <Gold.Chemscore.Internal.Correction.Weighted>
   9.000000E+99

> <Gold.Protein.RotatedTorsions>
[ 6907 6896 6895 6894 ] final  -57.24 input  -60.11 | X-H torsion
[ 7974 7965 7964 7962 ] final  -20.76 input  175.53 | X-H torsion
[ 8008 7997 7996 7995 ] final   91.41 input   59.86 | X-H torsion
[ 10167 10162 10161 10158 ] final   59.37 input  -65.29 | X-H torsion
[ 10718 10713 10712 10709 ] final -100.88 input   66.30 | X-H torsion
[ 10763 10752 10751 10750 ] final    6.12 input  -60.55 | X-H torsion
[ 11005 11000 10999 10996 ] final -114.61 input  -57.11 | X-H torsion

> <Gold.Protein.ActiveResidues>
 VAL166  LYS551  ARG553  GLY616  TRP617  ASP618  TYR619  PRO620  LYS621  CYS622 
 ASP623  PHE694  ASN695  SER759  ASP760  ASP761  ALA762  ILE779  LEU786  VAL792 
 PHE793  MET794  SER795  GLU796  ALA797  LYS798  CYS799  TRP800  GLU811  SER814 

> <Gold.Protein.RotatedAtoms>
  150.8102  134.7252  159.6680 H   0  0  0  0  0  0  0  0  0  0  0  0  # atno 6907 bound_to 6896
  152.4222  134.5931  159.9989 H   0  0  0  0  0  0  0  0  0  0  0  0  # atno 6908 bound_to 6896
  151.6142  133.3307  159.3110 H   0  0  0  0  0  0  0  0  0  0  0  0  # atno 6909 bound_to 6896
  146.1770  140.4247  142.8509 H   0  0  0  0  0  0  0  0  0  0  0  0  # atno 7974 bound_to 7965
  156.0235  140.3338  155.7063 H   0  0  0  0  0  0  0  0  0  0  0  0  # atno 8008 bound_to 7997
  155.5989  140.0653  157.2756 H   0  0  0  0  0  0  0  0  0  0  0  0  # atno 8009 bound_to 7997
  154.4325  140.1814  156.1140 H   0  0  0  0  0  0  0  0  0  0  0  0  # atno 8010 bound_to 7997
  140.1772  144.4218  150.6633 H   0  0  0  0  0  0  0  0  0  0  0  0  # atno 10167 bound_to 10162
  156.0177  130.5348  150.6881 H   0  0  0  0  0  0  0  0  0  0  0  0  # atno 10718 bound_to 10713
  153.2514  135.6914  153.7675 H   0  0  0  0  0  0  0  0  0  0  0  0  # atno 10763 bound_to 10752
  153.6768  135.3335  155.3169 H   0  0  0  0  0  0  0  0  0  0  0  0  # atno 10764 bound_to 10752
  154.8395  135.4513  154.1472 H   0  0  0  0  0  0  0  0  0  0  0  0  # atno 10765 bound_to 10752
  141.0541  133.9640  157.2785 H   0  0  0  0  0  0  0  0  0  0  0  0  # atno 11005 bound_to 11000
  144.8253  140.6617  143.6326 LP  0  0  0  0  0  0  0  0  0  0  0  0  # atno 17320 bound_to 7965
  145.4183  139.1568  143.4088 LP  0  0  0  0  0  0  0  0  0  0  0  0  # atno 17321 bound_to 7965
  140.6544  143.2233  151.6004 LP  0  0  0  0  0  0  0  0  0  0  0  0  # atno 17342 bound_to 10162
  139.5312  144.2911  152.1151 LP  0  0  0  0  0  0  0  0  0  0  0  0  # atno 17343 bound_to 10162
  157.4569  131.0879  151.0787 LP  0  0  0  0  0  0  0  0  0  0  0  0  # atno 17370 bound_to 10713
  157.1287  130.6093  149.5523 LP  0  0  0  0  0  0  0  0  0  0  0  0  # atno 17371 bound_to 10713
  139.9375  135.0195  156.8603 LP  0  0  0  0  0  0  0  0  0  0  0  0  # atno 17394 bound_to 11000
  140.5998  134.0182  155.7533 LP  0  0  0  0  0  0  0  0  0  0  0  0  # atno 17395 bound_to 11000

$$$$
