AV-unprocessed.smi:3153|AV-procd|sdf|12020|dock7
  -GOLD-   2272017433D 1   1.00000     0.00000
 Structure written by MMmdl.
 37 38  0  0  0  0  0  0  0  0  1 V2000
  151.1514  143.7758  157.1369 O   0  0  0  0  0  0  0  0  0  0  0  0
  150.5766  143.2515  158.3209 C   0  0  0  0  0  0  0  0  0  0  0  0
  149.1847  142.6942  157.9439 C   0  0  0  0  0  0  0  0  0  0  0  0
  149.1523  142.1157  156.6016 N   0  0  0  0  0  0  0  0  0  0  0  0
  149.8722  140.8498  156.4989 C   0  0  0  0  0  0  0  0  0  0  0  0
  150.0742  140.4342  155.0327 C   0  0  0  0  0  0  0  0  0  0  0  0
  148.8187  140.1628  154.3555 N   0  0  0  0  0  0  0  0  0  0  0  0
  148.4072  138.9949  153.7481 C   0  0  0  0  0  0  0  0  0  0  0  0
  147.1548  139.2154  153.2505 C   0  0  0  0  0  0  0  0  0  0  0  0
  146.8834  140.5667  153.6048 C   0  0  0  0  0  0  0  0  0  0  0  0
  147.8819  141.1316  154.2644 N   0  0  0  0  0  0  0  0  0  0  0  0
  151.4802  142.0914  158.8033 C   0  0  0  0  0  0  0  0  0  0  0  0
  152.8614  142.5631  159.2924 C   0  0  0  0  0  0  0  0  0  0  0  0
  152.7308  143.6325  160.3853 C   0  0  0  0  0  0  0  0  0  0  0  0
  151.8870  144.8163  159.8927 C   0  0  0  0  0  0  0  0  0  0  0  0
  150.5010  144.3564  159.4056 C   0  0  0  0  0  0  0  0  0  0  0  0
  150.4533  144.0272  156.5522 H   0  0  0  0  0  0  0  0  0  0  0  0
  148.8806  141.9461  158.6777 H   0  0  0  0  0  0  0  0  0  0  0  0
  148.4486  143.4968  158.0052 H   0  0  0  0  0  0  0  0  0  0  0  0
  149.5422  142.7785  155.9390 H   0  0  0  0  0  0  0  0  0  0  0  0
  150.8405  140.9255  156.9955 H   0  0  0  0  0  0  0  0  0  0  0  0
  149.3177  140.0688  157.0205 H   0  0  0  0  0  0  0  0  0  0  0  0
  150.5906  141.2270  154.4898 H   0  0  0  0  0  0  0  0  0  0  0  0
  150.7089  139.5491  154.9701 H   0  0  0  0  0  0  0  0  0  0  0  0
  149.0315  138.1138  153.7237 H   0  0  0  0  0  0  0  0  0  0  0  0
  146.5281  138.5179  152.7148 H   0  0  0  0  0  0  0  0  0  0  0  0
  145.9967  141.1499  153.4035 H   0  0  0  0  0  0  0  0  0  0  0  0
  150.9850  141.5676  159.6224 H   0  0  0  0  0  0  0  0  0  0  0  0
  151.6054  141.3541  158.0090 H   0  0  0  0  0  0  0  0  0  0  0  0
  153.4288  141.7133  159.6726 H   0  0  0  0  0  0  0  0  0  0  0  0
  153.4339  142.9633  158.4547 H   0  0  0  0  0  0  0  0  0  0  0  0
  152.2706  143.1975  161.2732 H   0  0  0  0  0  0  0  0  0  0  0  0
  153.7196  143.9796  160.6866 H   0  0  0  0  0  0  0  0  0  0  0  0
  151.7731  145.5472  160.6934 H   0  0  0  0  0  0  0  0  0  0  0  0
  152.4110  145.3274  159.0841 H   0  0  0  0  0  0  0  0  0  0  0  0
  149.9490  145.2219  159.0374 H   0  0  0  0  0  0  0  0  0  0  0  0
  149.9371  143.9796  160.2599 H   0  0  0  0  0  0  0  0  0  0  0  0
  1  2  1  0  0  0  0
  1 17  1  0  0  0  0
  2 16  1  0  0  0  0
  2  3  1  0  0  0  0
  2 12  1  0  0  0  0
  3  4  1  0  0  0  0
  3 18  1  0  0  0  0
  3 19  1  0  0  0  0
  4  5  1  0  0  0  0
  4 20  1  0  0  0  0
  5  6  1  0  0  0  0
  5 21  1  0  0  0  0
  5 22  1  0  0  0  0
  6  7  1  0  0  0  0
  6 23  1  0  0  0  0
  6 24  1  0  0  0  0
  7 11  1  0  0  0  0
  7  8  1  0  0  0  0
  8  9  2  0  0  0  0
  8 25  1  0  0  0  0
  9 10  1  0  0  0  0
  9 26  1  0  0  0  0
 10 11  2  0  0  0  0
 10 27  1  0  0  0  0
 12 13  1  0  0  0  0
 12 28  1  0  0  0  0
 12 29  1  0  0  0  0
 13 14  1  0  0  0  0
 13 30  1  0  0  0  0
 13 31  1  0  0  0  0
 14 15  1  0  0  0  0
 14 32  1  0  0  0  0
 14 33  1  0  0  0  0
 15 16  1  0  0  0  0
 15 34  1  0  0  0  0
 15 35  1  0  0  0  0
 16 36  1  0  0  0  0
 16 37  1  0  0  0  0
M  END
> <s_m_source_file>
AV-unprocessed.smi

> <i_m_source_file_index>
3153

> <i_lp_mmshare_version>
43012

> <i_f3d_flags>
0

> <s_epik_input>
W0NIMl0xW0NIMl1bQ0gyXVtDSDJdW0NIMl1DMShbT0hdKVtDSDJdW05IXVtDSDJdW0NIMl1uMltjSF1bY0hdW2NIXW4y

> <s_epik_cmdline>
J2VwaWtfcHl0aG9uJywgJy1waCcsICc3LjAnLCAnLXRuJywgJzgnLCAnLW1hJywgJzIwMCcsICctbWV0YWxfYmluZGluZycsICctaW1hZScsICc8aW5maWxlLm1hZT4nLCAnLW9tYWUnLCAnPG91dGZpbGUubWFlPic=

> <r_lp_tautomer_probability>
1

> <r_epik_Ionization_Penalty>
1.91265

> <r_epik_Ionization_Penalty_Charging>
0

> <r_epik_Ionization_Penalty_Neutral>
1.91265

> <r_epik_State_Penalty>
2.0334

> <r_epik_Charging_Adjusted_Penalty>
2.0334

> <i_epik_Tot_Q>
0

> <i_epik_Tot_abs_Q>
0

> <r_epik_Metal_State_Penalty>
2.03214

> <b_epik_Metal_Only>
0

> <s_lp_Force_Field>
OPLS_2005

> <r_lp_Energy>
22.2281

> <b_lp_Chiralities_Consistent>
1

> <s_lp_Variant>
AV-unprocessed.smi:3153-2

> <Gold.Version>
5.8.1

> <Gold.Id.Protein>
6NUR|6NUR_protein|mol2

> <Gold.PLP.Fitness>
41.3250

> <Gold.PLP.PLP>
-32.0209

> <Gold.PLP.part.hbond>
-2.0000

> <Gold.PLP.part.metal>
0.0000

> <Gold.PLP.part.buried>
-1.8925

> <Gold.PLP.part.nonpolar>
-28.3432

> <Gold.PLP.part.repulsive>
0.1396

> <Gold.PLP.ligand.clash>
0.0000

> <Gold.PLP.ligand.torsion>
0.4596

> <Gold.PLP.Chemscore.Hbond>
1.6084

> <Gold.PLP.Chemscore.CHOScore>
1.7889

> <Gold.PLP.Chemscore.Metal>
0.0000

> <Gold.Chemscore.Hbonds>
donor molecule, donor type, donor heavy atom, donor atom, acceptor molecule, acceptor atom, score
      L1  H     1    17       P1  8028  1.00
      L1  H     4    20       P1  8028  0.47
      L1  C     8    25       P1  7948  0.69
      L1  C    10    27       P1 10175  0.90

> <Gold.PLP.Chemscore.Internal.Correction>
0.0314

> <Gold.Rescore>
     Score         DG    S(hbond)    S(metal)    S(lipo)     H(rot)  DE(clash)    DE(int)     intcor
     15.16     -17.14       1.73        0.00      97.98       2.18       0.02       1.96       ----

> <Gold.Chemscore.Fitness>
15.1634

> <Gold.Chemscore.DG>
-17.1355

> <Gold.Chemscore.ZeroCoef>
-5.4800

> <Gold.Chemscore.Hbond>
1.7250

> <Gold.Chemscore.Metal>
0.0000

> <Gold.Chemscore.Lipo>
97.9793

> <Gold.Chemscore.Internal_Hbond>
0.0000

> <Gold.Chemscore.DEClash>
0.0166

> <Gold.Chemscore.DEInternal>
1.9555

> <Gold.Chemscore.Rot>
2.1756

> <Gold.Chemscore.Internal.Correction>
   9.000000E+99

> <Gold.Chemscore.Hbonds>
donor molecule, donor type, donor heavy atom, donor atom, acceptor molecule, acceptor atom, score
      L1  H     1    17       P1  8028  1.00
      L1  H     4    20       P1  8028  0.45

> <Gold.Chemscore.Hbond.Weighted>
-5.7615

> <Gold.Chemscore.Metal.Weighted>
-0.0000

> <Gold.Chemscore.Lipo.Weighted>
-11.4636

> <Gold.Chemscore.Internal_Hbond.Weighted>
0.0000

> <Gold.Chemscore.DEClash.Weighted>
0.0166

> <Gold.Chemscore.DEInternal.Weighted>
1.9555

> <Gold.Chemscore.Rot.Weighted>
5.5696

> <Gold.Chemscore.Internal.Correction.Weighted>
   9.000000E+99

> <Gold.Protein.RotatedTorsions>
[ 6907 6896 6895 6894 ] final -136.85 input  -60.11 | X-H torsion
[ 7974 7965 7964 7962 ] final   56.60 input  175.53 | X-H torsion
[ 8008 7997 7996 7995 ] final  -57.64 input   59.86 | X-H torsion
[ 10167 10162 10161 10158 ] final  111.67 input  -65.29 | X-H torsion
[ 10718 10713 10712 10709 ] final  133.65 input   66.30 | X-H torsion
[ 10763 10752 10751 10750 ] final  124.00 input  -60.55 | X-H torsion
[ 11005 11000 10999 10996 ] final  126.77 input  -57.11 | X-H torsion

> <Gold.Protein.ActiveResidues>
 VAL166  LYS551  ARG553  GLY616  TRP617  ASP618  TYR619  PRO620  LYS621  CYS622 
 ASP623  PHE694  ASN695  SER759  ASP760  ASP761  ALA762  ILE779  LEU786  VAL792 
 PHE793  MET794  SER795  GLU796  ALA797  LYS798  CYS799  TRP800  GLU811  SER814 

> <Gold.Protein.RotatedAtoms>
  151.0151  133.5929  159.2677 H   0  0  0  0  0  0  0  0  0  0  0  0  # atno 6907 bound_to 6896
  151.3066  135.0782  159.9267 H   0  0  0  0  0  0  0  0  0  0  0  0  # atno 6908 bound_to 6896
  152.5309  133.9823  159.7866 H   0  0  0  0  0  0  0  0  0  0  0  0  # atno 6909 bound_to 6896
  145.9381  139.3865  143.0380 H   0  0  0  0  0  0  0  0  0  0  0  0  # atno 7974 bound_to 7965
  154.4276  140.1102  156.5829 H   0  0  0  0  0  0  0  0  0  0  0  0  # atno 8008 bound_to 7997
  155.6093  140.3494  155.4598 H   0  0  0  0  0  0  0  0  0  0  0  0  # atno 8009 bound_to 7997
  156.0112  140.1219  157.0442 H   0  0  0  0  0  0  0  0  0  0  0  0  # atno 8010 bound_to 7997
  139.6593  144.7129  151.1895 H   0  0  0  0  0  0  0  0  0  0  0  0  # atno 10167 bound_to 10162
  157.4752  131.1082  150.9752 H   0  0  0  0  0  0  0  0  0  0  0  0  # atno 10718 bound_to 10713
  153.6544  135.3357  155.3109 H   0  0  0  0  0  0  0  0  0  0  0  0  # atno 10763 bound_to 10752
  154.8530  135.4349  154.1870 H   0  0  0  0  0  0  0  0  0  0  0  0  # atno 10764 bound_to 10752
  153.2821  135.7010  153.7451 H   0  0  0  0  0  0  0  0  0  0  0  0  # atno 10765 bound_to 10752
  139.9473  134.9628  156.8755 H   0  0  0  0  0  0  0  0  0  0  0  0  # atno 11005 bound_to 11000
  145.8337  140.9617  143.0836 LP  0  0  0  0  0  0  0  0  0  0  0  0  # atno 17320 bound_to 7965
  144.6775  140.0195  143.7484 LP  0  0  0  0  0  0  0  0  0  0  0  0  # atno 17321 bound_to 7965
  140.7573  143.6020  150.8690 LP  0  0  0  0  0  0  0  0  0  0  0  0  # atno 17342 bound_to 10162
  139.9676  143.6093  152.2983 LP  0  0  0  0  0  0  0  0  0  0  0  0  # atno 17343 bound_to 10162
  157.0504  130.5785  149.5369 LP  0  0  0  0  0  0  0  0  0  0  0  0  # atno 17370 bound_to 10713
  156.0093  130.5183  150.7936 LP  0  0  0  0  0  0  0  0  0  0  0  0  # atno 17371 bound_to 10713
  140.5804  134.0357  155.7462 LP  0  0  0  0  0  0  0  0  0  0  0  0  # atno 17394 bound_to 11000
  141.1127  133.9591  157.2881 LP  0  0  0  0  0  0  0  0  0  0  0  0  # atno 17395 bound_to 11000

$$$$
