AV-unprocessed.smi:109|AV-procd|sdf|1061|dock1
  -GOLD-   2262018133D 1   1.00000     0.00000
 Structure written by MMmdl.
 58 61  0  0  0  0  0  0  0  0  1 V2000
  150.6785  139.1861  154.2186 O   0  0  0  0  0  0  0  0  0  0  0  0
  150.7323  139.0716  155.6243 C   0  0  0  0  0  0  0  0  0  0  0  0
  151.2276  140.3934  156.2361 C   0  0  0  0  0  0  0  0  0  0  0  0
  150.1180  141.2221  156.9277 C   0  0  2  0  0  0  0  0  0  0  0  0
  149.3300  141.9189  155.9078 N   0  0  0  0  0  0  0  0  0  0  0  0
  148.6288  141.2584  154.9591 C   0  0  0  0  0  0  0  0  0  0  0  0
  148.8564  141.4604  153.6354 N   0  0  0  0  0  0  0  0  0  0  0  0
  148.1454  140.7907  152.7239 C   0  0  0  0  0  0  0  0  0  0  0  0
  147.1780  139.8918  152.9169 N   0  0  0  0  0  0  0  0  0  0  0  0
  146.9418  139.6865  154.2447 C   0  0  0  0  0  0  0  0  0  0  0  0
  147.6222  140.3253  155.3188 C   0  0  0  0  0  0  0  0  0  0  0  0
  147.1192  139.8709  156.5307 N   0  0  0  0  0  0  0  0  0  0  0  0
  146.1920  139.0175  156.1878 C   0  0  0  0  0  0  0  0  0  0  0  0
  146.0209  138.8429  154.8324 N   0  0  0  0  0  0  0  0  0  0  0  0
  145.0399  137.9479  154.1487 C   0  0  1  0  0  0  0  0  0  0  0  0
  145.2513  136.6504  154.6050 O   0  0  0  0  0  0  0  0  0  0  0  0
  144.0202  135.9262  154.6614 C   0  0  1  0  0  0  0  0  0  0  0  0
  143.8696  135.3279  156.0705 C   0  0  0  0  0  0  0  0  0  0  0  0
  142.7014  134.5386  156.1419 O   0  0  0  0  0  0  0  0  0  0  0  0
  142.9179  136.9528  154.3337 C   0  0  2  0  0  0  0  0  0  0  0  0
  142.4834  136.7412  153.0001 O   0  0  0  0  0  0  0  0  0  0  0  0
  143.6045  138.3032  154.5198 C   0  0  2  0  0  0  0  0  0  0  0  0
  143.0426  139.3073  153.6955 O   0  0  0  0  0  0  0  0  0  0  0  0
  150.6569  142.2536  157.9600 C   0  0  0  0  0  0  0  0  0  0  0  0
  151.5138  143.3725  157.3158 C   0  0  0  0  0  0  0  0  0  0  0  0
  152.0770  144.3554  158.3554 C   0  0  0  0  0  0  0  0  0  0  0  0
  152.8898  143.6284  159.4332 C   0  0  0  0  0  0  0  0  0  0  0  0
  152.0439  142.5387  160.1020 C   0  0  0  0  0  0  0  0  0  0  0  0
  151.4898  141.5515  159.0631 C   0  0  0  0  0  0  0  0  0  0  0  0
  145.2529  138.0175  153.0807 H   0  0  0  0  0  0  0  0  0  0  0  0
  144.0305  135.1231  153.9219 H   0  0  0  0  0  0  0  0  0  0  0  0
  142.0473  136.8586  154.9838 H   0  0  0  0  0  0  0  0  0  0  0  0
  143.5552  138.5993  155.5680 H   0  0  0  0  0  0  0  0  0  0  0  0
  150.9425  138.3616  153.8398 H   0  0  0  0  0  0  0  0  0  0  0  0
  149.7373  138.8148  155.9876 H   0  0  0  0  0  0  0  0  0  0  0  0
  151.3999  138.2510  155.8883 H   0  0  0  0  0  0  0  0  0  0  0  0
  152.0000  140.1338  156.9582 H   0  0  0  0  0  0  0  0  0  0  0  0
  151.7133  140.9967  155.4678 H   0  0  0  0  0  0  0  0  0  0  0  0
  149.4984  140.5228  157.4881 H   0  0  0  0  0  0  0  0  0  0  0  0
  149.4130  142.9253  155.9142 H   0  0  0  0  0  0  0  0  0  0  0  0
  148.3859  141.0050  151.6931 H   0  0  0  0  0  0  0  0  0  0  0  0
  145.6029  138.4863  156.9214 H   0  0  0  0  0  0  0  0  0  0  0  0
  144.7422  134.7427  156.3568 H   0  0  0  0  0  0  0  0  0  0  0  0
  143.7631  136.1245  156.8074 H   0  0  0  0  0  0  0  0  0  0  0  0
  142.7931  133.8117  155.5451 H   0  0  0  0  0  0  0  0  0  0  0  0
  141.6427  136.3109  153.0222 H   0  0  0  0  0  0  0  0  0  0  0  0
  143.6512  139.4963  152.9977 H   0  0  0  0  0  0  0  0  0  0  0  0
  149.8002  142.7309  158.4387 H   0  0  0  0  0  0  0  0  0  0  0  0
  152.3343  142.9283  156.7508 H   0  0  0  0  0  0  0  0  0  0  0  0
  150.9247  143.9529  156.6073 H   0  0  0  0  0  0  0  0  0  0  0  0
  152.7007  145.1006  157.8610 H   0  0  0  0  0  0  0  0  0  0  0  0
  151.2566  144.9013  158.8229 H   0  0  0  0  0  0  0  0  0  0  0  0
  153.7786  143.1821  158.9852 H   0  0  0  0  0  0  0  0  0  0  0  0
  153.2418  144.3404  160.1801 H   0  0  0  0  0  0  0  0  0  0  0  0
  152.6439  142.0040  160.8390 H   0  0  0  0  0  0  0  0  0  0  0  0
  151.2186  142.9967  160.6486 H   0  0  0  0  0  0  0  0  0  0  0  0
  150.8896  140.8068  159.5861 H   0  0  0  0  0  0  0  0  0  0  0  0
  152.3169  141.0070  158.6052 H   0  0  0  0  0  0  0  0  0  0  0  0
  1  2  1  0  0  0  0
  1 34  1  0  0  0  0
  2  3  1  0  0  0  0
  2 35  1  0  0  0  0
  2 36  1  0  0  0  0
  3  4  1  0  0  0  0
  3 37  1  0  0  0  0
  3 38  1  0  0  0  0
  4  5  1  0  0  0  0
  4 24  1  0  0  0  0
  4 39  1  0  0  0  0
  5  6  1  0  0  0  0
  5 40  1  0  0  0  0
  6 11  1  0  0  0  0
  6  7  2  0  0  0  0
  7  8  1  0  0  0  0
  8  9  2  0  0  0  0
  8 41  1  0  0  0  0
  9 10  1  0  0  0  0
 10 14  1  0  0  0  0
 10 11  2  0  0  0  0
 11 12  1  0  0  0  0
 12 13  2  0  0  0  0
 13 14  1  0  0  0  0
 13 42  1  0  0  0  0
 14 15  1  0  0  0  0
 15 30  1  0  0  0  0
 15 22  1  0  0  0  0
 15 16  1  0  0  0  0
 16 17  1  0  0  0  0
 17 31  1  0  0  0  0
 17 18  1  0  0  0  0
 17 20  1  0  0  0  0
 18 19  1  0  0  0  0
 18 43  1  0  0  0  0
 18 44  1  0  0  0  0
 19 45  1  0  0  0  0
 20 32  1  0  0  0  0
 20 21  1  0  0  0  0
 20 22  1  0  0  0  0
 21 46  1  0  0  0  0
 22 33  1  0  0  0  0
 22 23  1  0  0  0  0
 23 47  1  0  0  0  0
 24 29  1  0  0  0  0
 24 25  1  0  0  0  0
 24 48  1  0  0  0  0
 25 26  1  0  0  0  0
 25 49  1  0  0  0  0
 25 50  1  0  0  0  0
 26 27  1  0  0  0  0
 26 51  1  0  0  0  0
 26 52  1  0  0  0  0
 27 28  1  0  0  0  0
 27 53  1  0  0  0  0
 27 54  1  0  0  0  0
 28 29  1  0  0  0  0
 28 55  1  0  0  0  0
 28 56  1  0  0  0  0
 29 57  1  0  0  0  0
 29 58  1  0  0  0  0
M  END
> <s_m_source_file>
AV-unprocessed.smi

> <i_m_source_file_index>
109

> <i_lp_mmshare_version>
43012

> <i_f3d_flags>
0

> <s_epik_input>
W0NIMl0xW0NIMl1bQ0gyXVtDSDJdW0NIMl1bQ0hdMVtDQEhdKFtDSDJdW0NIMl1bT0hdKVtOSF1jKG5bY0hdbjIpYyhjMjMpbltjSF1uM1tDQEBIXTRPW0NASF0oW0NIMl1bT0hdKVtDQEBIXShbT0hdKVtDQEhdNFtPSF0=

> <s_epik_cmdline>
J2VwaWtfcHl0aG9uJywgJy1waCcsICc3LjAnLCAnLXRuJywgJzgnLCAnLW1hJywgJzIwMCcsICctbWV0YWxfYmluZGluZycsICctaW1hZScsICc8aW5maWxlLm1hZT4nLCAnLW9tYWUnLCAnPG91dGZpbGUubWFlPic=

> <r_lp_tautomer_probability>
1

> <r_epik_Ionization_Penalty>
0.000793976

> <r_epik_Ionization_Penalty_Charging>
0

> <r_epik_Ionization_Penalty_Neutral>
0.000793976

> <r_epik_State_Penalty>
-0

> <r_epik_Charging_Adjusted_Penalty>
0

> <i_epik_Tot_Q>
0

> <i_epik_Tot_abs_Q>
0

> <r_epik_Metal_State_Penalty>
-0

> <b_epik_Metal_Only>
0

> <s_epik_Chemistry_Notes>
This compound contains an acetal/aminal-like group ( X-CH(R)-Y where X, Y are N, S, or O) that may be acid/base labile, releasing an aldehyde.

> <s_lp_Force_Field>
OPLS_2005

> <r_lp_Energy>
56.6401

> <b_lp_Chiralities_Consistent>
1

> <s_lp_Variant>
AV-unprocessed.smi:109-31

> <Gold.Version>
5.8.1

> <Gold.Id.Protein>
6NUR|6NUR_protein|mol2

> <Gold.PLP.Fitness>
53.2778

> <Gold.PLP.PLP>
-39.1120

> <Gold.PLP.part.hbond>
-6.9988

> <Gold.PLP.part.metal>
0.0000

> <Gold.PLP.part.buried>
-3.6219

> <Gold.PLP.part.nonpolar>
-28.9325

> <Gold.PLP.part.repulsive>
0.4940

> <Gold.PLP.ligand.clash>
0.0000

> <Gold.PLP.ligand.torsion>
1.1099

> <Gold.PLP.Chemscore.Hbond>
4.8357

> <Gold.PLP.Chemscore.CHOScore>
0.4187

> <Gold.PLP.Chemscore.Metal>
0.0000

> <Gold.Chemscore.Hbonds>
donor molecule, donor type, donor heavy atom, donor atom, acceptor molecule, acceptor atom, score
      L1  H     5    40       P1  8028  1.00
      L1  H    19    45       P1 10957  0.65
      P1  H  7989  7998       L1     1  0.94
      P1  H  8011  8017       L1     7  0.51
      P1  H 11000 11005       L1    19  0.21

> <Gold.PLP.Chemscore.Internal.Correction>
0.6224

> <Gold.Rescore>
     Score         DG    S(hbond)    S(metal)    S(lipo)     H(rot)  DE(clash)    DE(int)     intcor
     12.64     -14.65       3.91        0.00      86.21       5.47       0.88       1.13       ----

> <Gold.Chemscore.Fitness>
12.6422

> <Gold.Chemscore.DG>
-14.6497

> <Gold.Chemscore.ZeroCoef>
-5.4800

> <Gold.Chemscore.Hbond>
3.9150

> <Gold.Chemscore.Metal>
0.0000

> <Gold.Chemscore.Lipo>
86.2150

> <Gold.Chemscore.Internal_Hbond>
0.0000

> <Gold.Chemscore.DEClash>
0.8792

> <Gold.Chemscore.DEInternal>
1.1284

> <Gold.Chemscore.Rot>
5.4662

> <Gold.Chemscore.Internal.Correction>
   9.000000E+99

> <Gold.Chemscore.Hbonds>
donor molecule, donor type, donor heavy atom, donor atom, acceptor molecule, acceptor atom, score
      L1  H     5    40       P1  8028  0.99
      L1  H    19    45       P1 10957  0.64
      L1  H    23    47       P1 10175  0.01
      P1  H  7989  7998       L1     1  0.72
      P1  H  8011  8017       L1     7  0.04
      P1  H 11000 11005       L1    19  0.02

> <Gold.Chemscore.Hbond.Weighted>
-13.0761

> <Gold.Chemscore.Metal.Weighted>
-0.0000

> <Gold.Chemscore.Lipo.Weighted>
-10.0872

> <Gold.Chemscore.Internal_Hbond.Weighted>
0.0000

> <Gold.Chemscore.DEClash.Weighted>
0.8792

> <Gold.Chemscore.DEInternal.Weighted>
1.1284

> <Gold.Chemscore.Rot.Weighted>
13.9935

> <Gold.Chemscore.Internal.Correction.Weighted>
   9.000000E+99

> <Gold.Protein.RotatedTorsions>
[ 6907 6896 6895 6894 ] final   -1.29 input  -60.11 | X-H torsion
[ 7974 7965 7964 7962 ] final    8.55 input  175.53 | X-H torsion
[ 8008 7997 7996 7995 ] final   68.82 input   59.86 | X-H torsion
[ 10167 10162 10161 10158 ] final  115.53 input  -65.29 | X-H torsion
[ 10718 10713 10712 10709 ] final  -17.96 input   66.30 | X-H torsion
[ 10763 10752 10751 10750 ] final  -29.11 input  -60.55 | X-H torsion
[ 11005 11000 10999 10996 ] final  -88.70 input  -57.11 | X-H torsion

> <Gold.Protein.ActiveResidues>
 VAL166  LYS551  ARG553  GLY616  TRP617  ASP618  TYR619  PRO620  LYS621  CYS622 
 ASP623  PHE694  ASN695  SER759  ASP760  ASP761  ALA762  ILE779  LEU786  VAL792 
 PHE793  MET794  SER795  GLU796  ALA797  LYS798  CYS799  TRP800  GLU811  SER814 

> <Gold.Protein.RotatedAtoms>
  151.5484  135.1068  159.9943 H   0  0  0  0  0  0  0  0  0  0  0  0  # atno 6907 bound_to 6896
  152.4503  133.7612  159.6758 H   0  0  0  0  0  0  0  0  0  0  0  0  # atno 6908 bound_to 6896
  150.8429  133.7840  159.3078 H   0  0  0  0  0  0  0  0  0  0  0  0  # atno 6909 bound_to 6896
  146.2415  139.9917  142.8425 H   0  0  0  0  0  0  0  0  0  0  0  0  # atno 7974 bound_to 7965
  155.7142  140.3494  155.4987 H   0  0  0  0  0  0  0  0  0  0  0  0  # atno 8008 bound_to 7997
  155.9328  140.1087  157.1140 H   0  0  0  0  0  0  0  0  0  0  0  0  # atno 8009 bound_to 7997
  154.4088  140.1228  156.4811 H   0  0  0  0  0  0  0  0  0  0  0  0  # atno 8010 bound_to 7997
  139.6311  144.7115  151.2431 H   0  0  0  0  0  0  0  0  0  0  0  0  # atno 10167 bound_to 10162
  156.5663  130.4738  149.6383 H   0  0  0  0  0  0  0  0  0  0  0  0  # atno 10718 bound_to 10713
  153.7594  135.6920  153.4929 H   0  0  0  0  0  0  0  0  0  0  0  0  # atno 10763 bound_to 10752
  153.1949  135.4457  155.0194 H   0  0  0  0  0  0  0  0  0  0  0  0  # atno 10764 bound_to 10752
  154.8159  135.3398  154.7110 H   0  0  0  0  0  0  0  0  0  0  0  0  # atno 10765 bound_to 10752
  141.1597  133.7586  156.9489 H   0  0  0  0  0  0  0  0  0  0  0  0  # atno 11005 bound_to 11000
  145.1497  140.9616  143.4440 LP  0  0  0  0  0  0  0  0  0  0  0  0  # atno 17320 bound_to 7965
  145.0217  139.3418  143.6069 LP  0  0  0  0  0  0  0  0  0  0  0  0  # atno 17321 bound_to 7965
  140.7439  143.6479  150.8275 LP  0  0  0  0  0  0  0  0  0  0  0  0  # atno 17342 bound_to 10162
  140.0104  143.5648  152.2841 LP  0  0  0  0  0  0  0  0  0  0  0  0  # atno 17343 bound_to 10162
  156.2754  130.7041  151.1850 LP  0  0  0  0  0  0  0  0  0  0  0  0  # atno 17370 bound_to 10713
  157.7358  131.0569  150.5450 LP  0  0  0  0  0  0  0  0  0  0  0  0  # atno 17371 bound_to 10713
  140.1270  134.9380  157.2284 LP  0  0  0  0  0  0  0  0  0  0  0  0  # atno 17394 bound_to 11000
  140.3000  134.3143  155.7292 LP  0  0  0  0  0  0  0  0  0  0  0  0  # atno 17395 bound_to 11000

$$$$
