AV-unprocessed.smi:1196|AV-procd|sdf|5003|dock10
  -GOLD-   22720 4 13D 1   1.00000     0.00000
 Structure written by MMmdl.
 36 37  0  0  0  0  0  0  0  0  2 V2000
  152.0795  140.4139  156.6210 C   0  0  0  0  0  0  0  0  0  0  0  0
  151.9064  139.8373  158.0352 C   0  0  1  0  0  0  0  0  0  0  0  0
  152.3618  140.8401  159.1128 C   0  0  0  0  0  0  0  0  0  0  0  0
  152.0004  142.2076  158.7822 N   0  0  0  0  0  0  0  0  0  0  0  0
  152.7304  143.3587  158.9904 C   0  0  0  0  0  0  0  0  0  0  0  0
  151.9843  144.4027  158.5234 C   0  0  0  0  0  0  0  0  0  0  0  0
  150.7966  143.7820  158.0446 C   0  0  0  0  0  0  0  0  0  0  0  0
  150.8103  142.4678  158.1981 N   0  0  0  0  0  0  0  0  0  0  0  0
  150.5109  139.4631  158.2546 N   0  0  0  0  0  0  0  0  0  0  0  0
  149.7771  138.6788  157.4510 C   0  0  0  0  0  0  0  0  0  0  0  0
  150.2075  138.1968  156.4025 O   0  0  0  0  0  0  0  0  0  0  0  0
  148.3417  138.4096  157.9127 C   0  0  0  0  0  0  0  0  0  0  0  0
  148.0650  136.9274  158.2322 C   0  0  0  0  0  0  0  0  0  0  0  0
  148.6073  136.5005  159.6125 C   0  0  1  0  0  0  0  0  0  0  0  0
  147.8364  137.0884  160.6946 N   0  5  0  0  0  0  0  0  0  0  0  0
  147.3333  136.0881  161.4556 C   0  0  0  0  0  0  0  0  0  0  0  0
  146.6404  136.1874  162.4658 O   0  0  0  0  0  0  0  0  0  0  0  0
  147.6868  134.8958  160.9645 N   0  0  0  0  0  0  0  0  0  0  0  0
  148.4287  135.0162  159.8684 C   0  0  0  0  0  0  0  0  0  0  0  0
  148.8959  134.1112  159.1782 O   0  0  0  0  0  0  0  0  0  0  0  0
  153.1179  140.6890  156.4347 H   0  0  0  0  0  0  0  0  0  0  0  0
  151.4688  141.3059  156.4782 H   0  0  0  0  0  0  0  0  0  0  0  0
  151.7922  139.6876  155.8598 H   0  0  0  0  0  0  0  0  0  0  0  0
  152.5343  138.9480  158.1173 H   0  0  0  0  0  0  0  0  0  0  0  0
  151.8969  140.5970  160.0690 H   0  0  0  0  0  0  0  0  0  0  0  0
  153.4404  140.7792  159.2681 H   0  0  0  0  0  0  0  0  0  0  0  0
  153.7075  143.3385  159.4501 H   0  0  0  0  0  0  0  0  0  0  0  0
  152.2461  145.4503  158.5255 H   0  0  0  0  0  0  0  0  0  0  0  0
  149.9318  144.2442  157.5919 H   0  0  0  0  0  0  0  0  0  0  0  0
  150.0754  139.8092  159.0976 H   0  0  0  0  0  0  0  0  0  0  0  0
  148.1402  139.0139  158.7984 H   0  0  0  0  0  0  0  0  0  0  0  0
  147.6614  138.7579  157.1349 H   0  0  0  0  0  0  0  0  0  0  0  0
  146.9931  136.7272  158.1753 H   0  0  0  0  0  0  0  0  0  0  0  0
  148.5293  136.3103  157.4609 H   0  0  0  0  0  0  0  0  0  0  0  0
  149.6705  136.7337  159.6845 H   0  0  0  0  0  0  0  0  0  0  0  0
  147.4149  134.0137  161.3718 H   0  0  0  0  0  0  0  0  0  0  0  0
  1  2  1  0  0  0  0
  1 21  1  0  0  0  0
  1 22  1  0  0  0  0
  1 23  1  0  0  0  0
  2  3  1  0  0  0  0
  2  9  1  0  0  0  0
  2 24  1  0  0  0  0
  3  4  1  0  0  0  0
  3 25  1  0  0  0  0
  3 26  1  0  0  0  0
  4  8  1  0  0  0  0
  4  5  1  0  0  0  0
  5  6  2  0  0  0  0
  5 27  1  0  0  0  0
  6  7  1  0  0  0  0
  6 28  1  0  0  0  0
  7  8  2  0  0  0  0
  7 29  1  0  0  0  0
  9 10  1  0  0  0  0
  9 30  1  0  0  0  0
 10 11  2  0  0  0  0
 10 12  1  0  0  0  0
 12 13  1  0  0  0  0
 12 31  1  0  0  0  0
 12 32  1  0  0  0  0
 13 14  1  0  0  0  0
 13 33  1  0  0  0  0
 13 34  1  0  0  0  0
 14 19  1  0  0  0  0
 14 15  1  0  0  0  0
 14 35  1  0  0  0  0
 15 16  1  0  0  0  0
 16 17  2  0  0  0  0
 16 18  1  0  0  0  0
 18 19  1  0  0  0  0
 18 36  1  0  0  0  0
 19 20  2  0  0  0  0
M  CHG  1  15  -1
M  END
> <s_m_source_file>
AV-unprocessed.smi

> <i_m_source_file_index>
1196

> <i_lp_mmshare_version>
43012

> <i_f3d_flags>
0

> <s_epik_input>
bjFbY0hdW2NIXVtjSF1uMVtDSDJdW0NAQEhdKFtDSDNdKVtOSF1DKD1PKVtDSDJdW0NIMl1bQ0BASF0yW05IXUMoPU8pW05IXUMyPU8=

> <s_epik_cmdline>
J2VwaWtfcHl0aG9uJywgJy1waCcsICc3LjAnLCAnLXRuJywgJzgnLCAnLW1hJywgJzIwMCcsICctbWV0YWxfYmluZGluZycsICctaW1hZScsICc8aW5maWxlLm1hZT4nLCAnLW9tYWUnLCAnPG91dGZpbGUubWFlPic=

> <r_lp_tautomer_probability>
1

> <r_epik_Ionization_Penalty>
5.79547

> <r_epik_Ionization_Penalty_Charging>
5.79516

> <r_epik_Ionization_Penalty_Neutral>
0.000313087

> <r_epik_State_Penalty>
5.80096

> <r_epik_Charging_Adjusted_Penalty>
11.5961

> <i_epik_Tot_Q>
-1

> <i_epik_Tot_abs_Q>
1

> <r_epik_Metal_State_Penalty>
2.14443

> <b_epik_Metal_Only>
1

> <s_lp_Force_Field>
OPLS_2005

> <r_lp_Energy>
12.8227

> <b_lp_Chiralities_Consistent>
1

> <s_lp_Variant>
AV-unprocessed.smi:1196-8

> <Gold.Version>
5.8.1

> <Gold.Id.Protein>
6NUR|6NUR_protein|mol2

> <Gold.PLP.Fitness>
45.5725

> <Gold.PLP.PLP>
-30.1999

> <Gold.PLP.part.hbond>
-3.0000

> <Gold.PLP.part.metal>
0.0000

> <Gold.PLP.part.buried>
-5.3401

> <Gold.PLP.part.nonpolar>
-22.8482

> <Gold.PLP.part.repulsive>
0.2815

> <Gold.PLP.ligand.clash>
0.0000

> <Gold.PLP.ligand.torsion>
0.7158

> <Gold.PLP.Chemscore.Hbond>
4.4793

> <Gold.PLP.Chemscore.CHOScore>
1.1108

> <Gold.PLP.Chemscore.Metal>
0.0000

> <Gold.Chemscore.Hbonds>
donor molecule, donor type, donor heavy atom, donor atom, acceptor molecule, acceptor atom, score
      P1  H  6896  6907       L1    20  1.00
      P1  H  6931  6943       L1    15  1.60
      P1  H  6934  6947       L1    15  1.63
      L1  C     7    29       P1  8028  1.00
      L1  C     7    29       P1  8029  0.05

> <Gold.PLP.Chemscore.Internal.Correction>
0.0340

> <Gold.Rescore>
     Score         DG    S(hbond)    S(metal)    S(lipo)     H(rot)  DE(clash)    DE(int)     intcor
      9.56     -12.26       2.02        0.00      63.60       2.89       0.22       2.48       ----

> <Gold.Chemscore.Fitness>
9.5641

> <Gold.Chemscore.DG>
-12.2608

> <Gold.Chemscore.ZeroCoef>
-5.4800

> <Gold.Chemscore.Hbond>
2.0210

> <Gold.Chemscore.Metal>
0.0000

> <Gold.Chemscore.Lipo>
63.5956

> <Gold.Chemscore.Internal_Hbond>
0.0000

> <Gold.Chemscore.DEClash>
0.2169

> <Gold.Chemscore.DEInternal>
2.4798

> <Gold.Chemscore.Rot>
2.8946

> <Gold.Chemscore.Internal.Correction>
   9.000000E+99

> <Gold.Chemscore.Hbonds>
donor molecule, donor type, donor heavy atom, donor atom, acceptor molecule, acceptor atom, score
      P1  H  6896  6907       L1    20  0.67
      P1  H  6931  6943       L1    15  0.39
      P1  H  6934  6947       L1    15  0.75

> <Gold.Chemscore.Hbond.Weighted>
-6.7503

> <Gold.Chemscore.Metal.Weighted>
-0.0000

> <Gold.Chemscore.Lipo.Weighted>
-7.4407

> <Gold.Chemscore.Internal_Hbond.Weighted>
0.0000

> <Gold.Chemscore.DEClash.Weighted>
0.2169

> <Gold.Chemscore.DEInternal.Weighted>
2.4798

> <Gold.Chemscore.Rot.Weighted>
7.4101

> <Gold.Chemscore.Internal.Correction.Weighted>
   9.000000E+99

> <Gold.Protein.RotatedTorsions>
[ 6907 6896 6895 6894 ] final -100.55 input  -60.11 | X-H torsion
[ 7974 7965 7964 7962 ] final   73.80 input  175.53 | X-H torsion
[ 8008 7997 7996 7995 ] final  -90.99 input   59.86 | X-H torsion
[ 10167 10162 10161 10158 ] final   80.71 input  -65.29 | X-H torsion
[ 10718 10713 10712 10709 ] final   71.23 input   66.30 | X-H torsion
[ 10763 10752 10751 10750 ] final   24.75 input  -60.55 | X-H torsion
[ 11005 11000 10999 10996 ] final  -80.18 input  -57.11 | X-H torsion

> <Gold.Protein.ActiveResidues>
 VAL166  LYS551  ARG553  GLY616  TRP617  ASP618  TYR619  PRO620  LYS621  CYS622 
 ASP623  PHE694  ASN695  SER759  ASP760  ASP761  ALA762  ILE779  LEU786  VAL792 
 PHE793  MET794  SER795  GLU796  ALA797  LYS798  CYS799  TRP800  GLU811  SER814 

> <Gold.Protein.RotatedAtoms>
  150.7120  134.0870  159.3917 H   0  0  0  0  0  0  0  0  0  0  0  0  # atno 6907 bound_to 6896
  151.8855  135.0435  160.0502 H   0  0  0  0  0  0  0  0  0  0  0  0  # atno 6908 bound_to 6896
  152.2533  133.5198  159.5375 H   0  0  0  0  0  0  0  0  0  0  0  0  # atno 6909 bound_to 6896
  145.7363  139.2703  143.1512 H   0  0  0  0  0  0  0  0  0  0  0  0  # atno 7974 bound_to 7965
  154.7052  140.0524  157.0497 H   0  0  0  0  0  0  0  0  0  0  0  0  # atno 8008 bound_to 7997
  155.0629  140.3191  155.4636 H   0  0  0  0  0  0  0  0  0  0  0  0  # atno 8009 bound_to 7997
  156.2772  140.2095  156.5756 H   0  0  0  0  0  0  0  0  0  0  0  0  # atno 8010 bound_to 7997
  139.9469  144.6052  150.8198 H   0  0  0  0  0  0  0  0  0  0  0  0  # atno 10167 bound_to 10162
  157.6441  130.9518  150.0761 H   0  0  0  0  0  0  0  0  0  0  0  0  # atno 10718 bound_to 10713
  153.0741  135.6598  154.0184 H   0  0  0  0  0  0  0  0  0  0  0  0  # atno 10763 bound_to 10752
  153.9822  135.2954  155.3420 H   0  0  0  0  0  0  0  0  0  0  0  0  # atno 10764 bound_to 10752
  154.7124  135.5199  153.8757 H   0  0  0  0  0  0  0  0  0  0  0  0  # atno 10765 bound_to 10752
  141.1668  133.7138  156.8234 H   0  0  0  0  0  0  0  0  0  0  0  0  # atno 11005 bound_to 11000
  146.0490  140.8089  142.9791 LP  0  0  0  0  0  0  0  0  0  0  0  0  # atno 17320 bound_to 7965
  144.6881  140.3024  143.7261 LP  0  0  0  0  0  0  0  0  0  0  0  0  # atno 17321 bound_to 7965
  140.7594  143.3129  151.2801 LP  0  0  0  0  0  0  0  0  0  0  0  0  # atno 17342 bound_to 10162
  139.6660  144.0105  152.2723 LP  0  0  0  0  0  0  0  0  0  0  0  0  # atno 17343 bound_to 10162
  156.1751  130.3648  149.9112 LP  0  0  0  0  0  0  0  0  0  0  0  0  # atno 17370 bound_to 10713
  156.7078  130.8958  151.3606 LP  0  0  0  0  0  0  0  0  0  0  0  0  # atno 17371 bound_to 10713
  140.2103  134.8832  157.3267 LP  0  0  0  0  0  0  0  0  0  0  0  0  # atno 17394 bound_to 11000
  140.2094  134.4157  155.7621 LP  0  0  0  0  0  0  0  0  0  0  0  0  # atno 17395 bound_to 11000

$$$$
