AV-unprocessed.smi:144|AV-procd|sdf|1196|dock9
  -GOLD-   2262018353D 1   1.00000     0.00000
 Structure written by MMmdl.
 46 48  0  0  0  0  0  0  0  0  1 V2000
  151.0700  136.2210  157.0453 O   0  0  0  0  0  0  0  0  0  0  0  0
  150.6828  137.3390  157.3819 C   0  0  0  0  0  0  0  0  0  0  0  0
  151.3874  138.5687  156.7790 C   0  0  0  0  0  0  0  0  0  0  0  0
  151.0030  139.8701  157.3739 N   0  0  0  0  0  0  0  0  0  0  0  0
  149.6990  140.3708  157.1330 C   0  0  0  0  0  0  0  0  0  0  0  0
  148.8931  139.7447  156.4434 O   0  0  0  0  0  0  0  0  0  0  0  0
  149.3986  141.6642  157.7365 C   0  0  0  0  0  0  0  0  0  0  0  0
  148.1878  142.2179  157.5554 F   0  0  0  0  0  0  0  0  0  0  0  0
  150.3228  142.3207  158.4674 C   0  0  0  0  0  0  0  0  0  0  0  0
  151.5923  141.8206  158.6933 N   0  0  0  0  0  0  0  0  0  0  0  0
  152.6119  142.5907  159.5040 C   0  0  1  0  0  0  0  0  0  0  0  0
  152.9578  143.9094  158.8032 C   0  0  0  0  0  0  0  0  0  0  0  0
  151.9872  144.8702  159.4546 C   0  0  0  0  0  0  0  0  0  0  0  0
  151.9229  144.3240  160.8767 C   0  0  0  0  0  0  0  0  0  0  0  0
  152.0613  142.9105  160.7497 O   0  0  0  0  0  0  0  0  0  0  0  0
  151.9628  140.5778  158.1364 C   0  0  0  0  0  0  0  0  0  0  0  0
  153.1001  140.1298  158.2970 O   0  0  0  0  0  0  0  0  0  0  0  0
  149.6889  137.5584  158.2659 N   0  0  0  0  0  0  0  0  0  0  0  0
  148.8826  136.6128  158.9535 C   0  0  0  0  0  0  0  0  0  0  0  0
  148.8154  135.3122  158.4146 C   0  0  0  0  0  0  0  0  0  0  0  0
  148.0517  134.3084  159.0478 C   0  0  0  0  0  0  0  0  0  0  0  0
  147.9619  132.9094  158.4570 C   0  0  0  0  0  0  0  0  0  0  0  0
  148.3641  132.0038  159.3492 F   0  0  0  0  0  0  0  0  0  0  0  0
  146.6968  132.6541  158.1262 F   0  0  0  0  0  0  0  0  0  0  0  0
  148.7221  132.7884  157.3679 F   0  0  0  0  0  0  0  0  0  0  0  0
  147.3524  134.6150  160.2337 C   0  0  0  0  0  0  0  0  0  0  0  0
  147.4273  135.9067  160.7977 C   0  0  0  0  0  0  0  0  0  0  0  0
  146.6924  136.2477  162.0856 C   0  0  0  0  0  0  0  0  0  0  0  0
  147.5682  136.6377  163.0119 F   0  0  0  0  0  0  0  0  0  0  0  0
  145.8375  137.2440  161.8562 F   0  0  0  0  0  0  0  0  0  0  0  0
  146.0111  135.2057  162.5637 F   0  0  0  0  0  0  0  0  0  0  0  0
  148.1966  136.9000  160.1569 C   0  0  0  0  0  0  0  0  0  0  0  0
  152.4643  138.4106  156.8556 H   0  0  0  0  0  0  0  0  0  0  0  0
  151.2041  138.5686  155.7034 H   0  0  0  0  0  0  0  0  0  0  0  0
  150.0464  143.2790  158.8814 H   0  0  0  0  0  0  0  0  0  0  0  0
  153.4627  141.9207  159.6379 H   0  0  0  0  0  0  0  0  0  0  0  0
  153.9855  144.1766  159.0527 H   0  0  0  0  0  0  0  0  0  0  0  0
  152.8621  143.8454  157.7185 H   0  0  0  0  0  0  0  0  0  0  0  0
  152.3167  145.9085  159.4108 H   0  0  0  0  0  0  0  0  0  0  0  0
  151.0089  144.8014  158.9773 H   0  0  0  0  0  0  0  0  0  0  0  0
  152.7585  144.7040  161.4660 H   0  0  0  0  0  0  0  0  0  0  0  0
  150.9977  144.5912  161.3877 H   0  0  0  0  0  0  0  0  0  0  0  0
  149.5387  138.5230  158.5233 H   0  0  0  0  0  0  0  0  0  0  0  0
  149.3485  135.0893  157.5017 H   0  0  0  0  0  0  0  0  0  0  0  0
  146.7612  133.8472  160.7100 H   0  0  0  0  0  0  0  0  0  0  0  0
  148.2566  137.8755  160.6145 H   0  0  0  0  0  0  0  0  0  0  0  0
  1  2  2  0  0  0  0
  2  3  1  0  0  0  0
  2 18  1  0  0  0  0
  3  4  1  0  0  0  0
  3 33  1  0  0  0  0
  3 34  1  0  0  0  0
  4 16  1  0  0  0  0
  4  5  1  0  0  0  0
  5  6  2  0  0  0  0
  5  7  1  0  0  0  0
  7  8  1  0  0  0  0
  7  9  2  0  0  0  0
  9 10  1  0  0  0  0
  9 35  1  0  0  0  0
 10 11  1  0  0  0  0
 10 16  1  0  0  0  0
 11 15  1  0  0  0  0
 11 12  1  0  0  0  0
 11 36  1  0  0  0  0
 12 13  1  0  0  0  0
 12 37  1  0  0  0  0
 12 38  1  0  0  0  0
 13 14  1  0  0  0  0
 13 39  1  0  0  0  0
 13 40  1  0  0  0  0
 14 15  1  0  0  0  0
 14 41  1  0  0  0  0
 14 42  1  0  0  0  0
 16 17  2  0  0  0  0
 18 19  1  0  0  0  0
 18 43  1  0  0  0  0
 19 32  1  0  0  0  0
 19 20  2  0  0  0  0
 20 21  1  0  0  0  0
 20 44  1  0  0  0  0
 21 22  1  0  0  0  0
 21 26  2  0  0  0  0
 22 23  1  0  0  0  0
 22 24  1  0  0  0  0
 22 25  1  0  0  0  0
 26 27  1  0  0  0  0
 26 45  1  0  0  0  0
 27 28  1  0  0  0  0
 27 32  2  0  0  0  0
 28 29  1  0  0  0  0
 28 30  1  0  0  0  0
 28 31  1  0  0  0  0
 32 46  1  0  0  0  0
M  END
> <s_m_source_file>
AV-unprocessed.smi

> <i_m_source_file_index>
144

> <i_lp_mmshare_version>
43012

> <i_f3d_flags>
0

> <s_epik_input>
RkMoRikoRiljKFtjSF0xKVtjSF1jKEMoRikoRilGKVtjSF1jMVtOSF1DKD1PKVtDSDJdbjJjKD1PKWMoRilbY0hdbihjMj1PKVtDQEBIXTNbQ0gyXVtDSDJdW0NIMl1PMw==

> <s_epik_cmdline>
J2VwaWtfcHl0aG9uJywgJy1waCcsICc3LjAnLCAnLXRuJywgJzgnLCAnLW1hJywgJzIwMCcsICctbWV0YWxfYmluZGluZycsICctaW1hZScsICc8aW5maWxlLm1hZT4nLCAnLW9tYWUnLCAnPG91dGZpbGUubWFlPic=

> <r_lp_tautomer_probability>
1

> <r_epik_Ionization_Penalty>
3.68082e-06

> <r_epik_Ionization_Penalty_Charging>
3.88729e-08

> <r_epik_Ionization_Penalty_Neutral>
3.64194e-06

> <r_epik_State_Penalty>
-0

> <r_epik_Charging_Adjusted_Penalty>
3.88729e-08

> <i_epik_Tot_Q>
0

> <i_epik_Tot_abs_Q>
0

> <r_epik_Metal_State_Penalty>
-0

> <b_epik_Metal_Only>
0

> <s_epik_Chemistry_Notes>
This compound contains an acetal/aminal-like group ( X-CH(R)-Y where X, Y are N, S, or O) that may be acid/base labile, releasing an aldehyde.

> <s_lp_Force_Field>
OPLS_2005

> <r_lp_Energy>
36.4766

> <b_lp_Chiralities_Consistent>
1

> <s_lp_Variant>
AV-unprocessed.smi:144-2

> <Gold.Version>
5.8.1

> <Gold.Id.Protein>
6NUR|6NUR_protein|mol2

> <Gold.PLP.Fitness>
54.5025

> <Gold.PLP.PLP>
-52.0713

> <Gold.PLP.part.hbond>
-1.0000

> <Gold.PLP.part.metal>
0.0000

> <Gold.PLP.part.buried>
-5.9743

> <Gold.PLP.part.nonpolar>
-45.3166

> <Gold.PLP.part.repulsive>
0.1945

> <Gold.PLP.ligand.clash>
0.5865

> <Gold.PLP.ligand.torsion>
0.3129

> <Gold.PLP.Chemscore.Hbond>
0.9920

> <Gold.PLP.Chemscore.CHOScore>
0.0000

> <Gold.PLP.Chemscore.Metal>
0.0000

> <Gold.Chemscore.Hbonds>
donor molecule, donor type, donor heavy atom, donor atom, acceptor molecule, acceptor atom, score
      P1  H  7997  8008       L1    17  1.00

> <Gold.PLP.Chemscore.Internal.Correction>
0.6676

> <Gold.Rescore>
     Score         DG    S(hbond)    S(metal)    S(lipo)     H(rot)  DE(clash)    DE(int)     intcor
     12.11     -14.79       0.98        0.00      91.60       1.83       0.09       2.59       ----

> <Gold.Chemscore.Fitness>
12.1143

> <Gold.Chemscore.DG>
-14.7938

> <Gold.Chemscore.ZeroCoef>
-5.4800

> <Gold.Chemscore.Hbond>
0.9843

> <Gold.Chemscore.Metal>
0.0000

> <Gold.Chemscore.Lipo>
91.6011

> <Gold.Chemscore.Internal_Hbond>
0.0000

> <Gold.Chemscore.DEClash>
0.0937

> <Gold.Chemscore.DEInternal>
2.5857

> <Gold.Chemscore.Rot>
1.8325

> <Gold.Chemscore.Internal.Correction>
   9.000000E+99

> <Gold.Chemscore.Hbonds>
donor molecule, donor type, donor heavy atom, donor atom, acceptor molecule, acceptor atom, score
      P1  H  7997  8008       L1    17  0.93

> <Gold.Chemscore.Hbond.Weighted>
-3.2875

> <Gold.Chemscore.Metal.Weighted>
-0.0000

> <Gold.Chemscore.Lipo.Weighted>
-10.7173

> <Gold.Chemscore.Internal_Hbond.Weighted>
0.0000

> <Gold.Chemscore.DEClash.Weighted>
0.0937

> <Gold.Chemscore.DEInternal.Weighted>
2.5857

> <Gold.Chemscore.Rot.Weighted>
4.6911

> <Gold.Chemscore.Internal.Correction.Weighted>
   9.000000E+99

> <Gold.Protein.RotatedTorsions>
[ 6907 6896 6895 6894 ] final  -52.64 input  -60.11 | X-H torsion
[ 7974 7965 7964 7962 ] final   59.18 input  175.53 | X-H torsion
[ 8008 7997 7996 7995 ] final  -84.65 input   59.86 | X-H torsion
[ 10167 10162 10161 10158 ] final  -13.14 input  -65.29 | X-H torsion
[ 10718 10713 10712 10709 ] final   17.57 input   66.30 | X-H torsion
[ 10763 10752 10751 10750 ] final   63.73 input  -60.55 | X-H torsion
[ 11005 11000 10999 10996 ] final    1.79 input  -57.11 | X-H torsion

> <Gold.Protein.ActiveResidues>
 VAL166  LYS551  ARG553  GLY616  TRP617  ASP618  TYR619  PRO620  LYS621  CYS622 
 ASP623  PHE694  ASN695  SER759  ASP760  ASP761  ALA762  ILE779  LEU786  VAL792 
 PHE793  MET794  SER795  GLU796  ALA797  LYS798  CYS799  TRP800  GLU811  SER814 

> <Gold.Protein.RotatedAtoms>
  150.8500  134.7821  159.7000 H   0  0  0  0  0  0  0  0  0  0  0  0  # atno 6907 bound_to 6896
  152.4567  134.5273  159.9810 H   0  0  0  0  0  0  0  0  0  0  0  0  # atno 6908 bound_to 6896
  151.5396  133.3397  159.2968 H   0  0  0  0  0  0  0  0  0  0  0  0  # atno 6909 bound_to 6896
  145.9100  139.3646  143.0541 H   0  0  0  0  0  0  0  0  0  0  0  0  # atno 7974 bound_to 7965
  154.6321  140.0602  156.9745 H   0  0  0  0  0  0  0  0  0  0  0  0  # atno 8008 bound_to 7997
  155.1649  140.3286  155.4385 H   0  0  0  0  0  0  0  0  0  0  0  0  # atno 8009 bound_to 7997
  156.2488  140.1924  156.6754 H   0  0  0  0  0  0  0  0  0  0  0  0  # atno 8010 bound_to 7997
  140.7176  143.5458  150.9357 H   0  0  0  0  0  0  0  0  0  0  0  0  # atno 10167 bound_to 10162
  157.0840  130.6400  149.5833 H   0  0  0  0  0  0  0  0  0  0  0  0  # atno 10718 bound_to 10713
  153.0028  135.5418  154.6398 H   0  0  0  0  0  0  0  0  0  0  0  0  # atno 10763 bound_to 10752
  154.5656  135.2837  155.0880 H   0  0  0  0  0  0  0  0  0  0  0  0  # atno 10764 bound_to 10752
  154.2065  135.6475  153.5155 H   0  0  0  0  0  0  0  0  0  0  0  0  # atno 10765 bound_to 10752
  140.6115  133.9744  155.8180 H   0  0  0  0  0  0  0  0  0  0  0  0  # atno 11005 bound_to 11000
  145.8684  140.9434  143.0663 LP  0  0  0  0  0  0  0  0  0  0  0  0  # atno 17320 bound_to 7965
  144.6742  140.0622  143.7475 LP  0  0  0  0  0  0  0  0  0  0  0  0  # atno 17321 bound_to 7965
  139.9182  143.6638  152.3102 LP  0  0  0  0  0  0  0  0  0  0  0  0  # atno 17342 bound_to 10162
  139.7046  144.7630  151.1216 LP  0  0  0  0  0  0  0  0  0  0  0  0  # atno 17343 bound_to 10162
  155.9916  130.4971  150.7305 LP  0  0  0  0  0  0  0  0  0  0  0  0  # atno 17370 bound_to 10713
  157.4776  131.0899  151.0572 LP  0  0  0  0  0  0  0  0  0  0  0  0  # atno 17371 bound_to 10713
  141.0805  134.0070  157.3394 LP  0  0  0  0  0  0  0  0  0  0  0  0  # atno 17394 bound_to 11000
  139.9190  135.0199  156.7993 LP  0  0  0  0  0  0  0  0  0  0  0  0  # atno 17395 bound_to 11000

$$$$
