AV-unprocessed.smi:2949|AV-procd|sdf|11286|dock6
  -GOLD-   2272016173D 1   1.00000     0.00000
 Structure written by MMmdl.
 34 35  0  0  0  0  0  0  0  0  1 V2000
  145.4999  141.3102  155.0221 N   0  0  0  0  0  0  0  0  0  0  0  0
  146.0454  140.2963  154.4481 C   0  0  0  0  0  0  0  0  0  0  0  0
  145.2347  138.7126  154.0306 S   0  0  0  0  0  0  0  0  0  0  0  0
  146.7355  138.1377  153.3360 C   0  0  0  0  0  0  0  0  0  0  0  0
  147.7092  139.0420  153.4257 C   0  0  0  0  0  0  0  0  0  0  0  0
  147.3777  140.2349  154.0348 N   0  0  0  0  0  0  0  0  0  0  0  0
  148.3152  141.3535  154.1304 C   0  0  0  0  0  0  0  0  0  0  0  0
  149.5367  141.1169  155.0277 C   0  0  0  0  0  0  0  0  0  0  0  0
  150.1317  140.0373  154.9780 O   0  0  0  0  0  0  0  0  0  0  0  0
  149.8577  142.1569  155.8317 N   0  0  0  0  0  0  0  0  0  0  0  0
  150.8531  142.3074  156.7376 C   0  0  0  0  0  0  0  0  0  0  0  0
  151.5026  141.3358  157.1215 O   0  0  0  0  0  0  0  0  0  0  0  0
  151.0886  143.5534  157.1900 N   0  0  0  0  0  0  0  0  0  0  0  0
  152.0876  143.9179  158.1900 C   0  0  0  0  0  0  0  0  0  0  0  0
  152.0697  142.9548  159.3962 C   0  0  0  0  0  0  0  0  0  0  0  0
  151.9584  143.8341  160.6437 C   0  0  0  0  0  0  0  0  0  0  0  0
  151.2328  145.0862  160.1621 C   0  0  0  0  0  0  0  0  0  0  0  0
  151.7889  145.3168  158.7574 C   0  0  0  0  0  0  0  0  0  0  0  0
  146.8084  137.1551  152.8941 H   0  0  0  0  0  0  0  0  0  0  0  0
  148.7229  138.9301  153.0687 H   0  0  0  0  0  0  0  0  0  0  0  0
  148.6543  141.6332  153.1313 H   0  0  0  0  0  0  0  0  0  0  0  0
  147.7833  142.2262  154.5119 H   0  0  0  0  0  0  0  0  0  0  0  0
  149.2513  142.9591  155.7433 H   0  0  0  0  0  0  0  0  0  0  0  0
  150.5308  144.3049  156.8091 H   0  0  0  0  0  0  0  0  0  0  0  0
  153.0749  143.9275  157.7244 H   0  0  0  0  0  0  0  0  0  0  0  0
  151.2041  142.2919  159.3492 H   0  0  0  0  0  0  0  0  0  0  0  0
  152.9567  142.3213  159.4261 H   0  0  0  0  0  0  0  0  0  0  0  0
  151.4395  143.3366  161.4633 H   0  0  0  0  0  0  0  0  0  0  0  0
  152.9559  144.1018  160.9947 H   0  0  0  0  0  0  0  0  0  0  0  0
  150.1609  144.8925  160.1066 H   0  0  0  0  0  0  0  0  0  0  0  0
  151.3853  145.9413  160.8208 H   0  0  0  0  0  0  0  0  0  0  0  0
  152.7201  145.8801  158.8314 H   0  0  0  0  0  0  0  0  0  0  0  0
  151.1099  145.9022  158.1358 H   0  0  0  0  0  0  0  0  0  0  0  0
  144.5296  141.1165  155.2254 H   0  0  0  0  0  0  0  0  0  0  0  0
  1  2  2  0  0  0  0
  1 34  1  0  0  0  0
  2  6  1  0  0  0  0
  2  3  1  0  0  0  0
  3  4  1  0  0  0  0
  4  5  2  0  0  0  0
  4 19  1  0  0  0  0
  5  6  1  0  0  0  0
  5 20  1  0  0  0  0
  6  7  1  0  0  0  0
  7  8  1  0  0  0  0
  7 21  1  0  0  0  0
  7 22  1  0  0  0  0
  8  9  2  0  0  0  0
  8 10  1  0  0  0  0
 10 11  1  0  0  0  0
 10 23  1  0  0  0  0
 11 12  2  0  0  0  0
 11 13  1  0  0  0  0
 13 14  1  0  0  0  0
 13 24  1  0  0  0  0
 14 18  1  0  0  0  0
 14 15  1  0  0  0  0
 14 25  1  0  0  0  0
 15 16  1  0  0  0  0
 15 26  1  0  0  0  0
 15 27  1  0  0  0  0
 16 17  1  0  0  0  0
 16 28  1  0  0  0  0
 16 29  1  0  0  0  0
 17 18  1  0  0  0  0
 17 30  1  0  0  0  0
 17 31  1  0  0  0  0
 18 32  1  0  0  0  0
 18 33  1  0  0  0  0
M  END
> <s_m_source_file>
AV-unprocessed.smi

> <i_m_source_file_index>
2949

> <i_lp_mmshare_version>
43012

> <i_f3d_flags>
0

> <s_epik_input>
W0hdL049YzFcc1tjSF1bY0hdbjFbQ0gyXUMoPU8pW05IXUMoPU8pW05IXVtDSF0yW0NIMl1bQ0gyXVtDSDJdW0NIMl0y

> <s_epik_cmdline>
J2VwaWtfcHl0aG9uJywgJy1waCcsICc3LjAnLCAnLXRuJywgJzgnLCAnLW1hJywgJzIwMCcsICctbWV0YWxfYmluZGluZycsICctaW1hZScsICc8aW5maWxlLm1hZT4nLCAnLW9tYWUnLCAnPG91dGZpbGUubWFlPic=

> <r_epik_Ionization_Penalty>
2.0346

> <r_epik_Ionization_Penalty_Charging>
2.03458

> <r_epik_Ionization_Penalty_Neutral>
2.61125e-05

> <r_epik_State_Penalty>
2.18096

> <r_epik_Charging_Adjusted_Penalty>
4.21554

> <i_epik_Tot_Q>
0

> <i_epik_Tot_abs_Q>
0

> <r_epik_Metal_State_Penalty>
2.18096

> <b_epik_Metal_Only>
0

> <s_lp_Force_Field>
OPLS_2005

> <r_lp_Energy>
22.3694

> <b_lp_Chiralities_Consistent>
1

> <s_lp_Variant>
AV-unprocessed.smi:2949-2

> <Gold.Version>
5.8.1

> <Gold.Id.Protein>
6NUR|6NUR_protein|mol2

> <Gold.PLP.Fitness>
49.1270

> <Gold.PLP.PLP>
-35.9328

> <Gold.PLP.part.hbond>
-3.0000

> <Gold.PLP.part.metal>
0.0000

> <Gold.PLP.part.buried>
-2.2143

> <Gold.PLP.part.nonpolar>
-30.0480

> <Gold.PLP.part.repulsive>
0.2494

> <Gold.PLP.ligand.clash>
0.0000

> <Gold.PLP.ligand.torsion>
0.4993

> <Gold.PLP.Chemscore.Hbond>
2.7843

> <Gold.PLP.Chemscore.CHOScore>
1.9389

> <Gold.PLP.Chemscore.Metal>
0.0000

> <Gold.Chemscore.Hbonds>
donor molecule, donor type, donor heavy atom, donor atom, acceptor molecule, acceptor atom, score
      L1  H    10    23       P1  8028  1.00
      L1  H    13    24       P1  8028  0.90
      P1  H  7989  7998       L1     9  0.23
      L1  C     4    19       P1  7948  0.84
      L1  C     5    20       P1  7957  0.89

> <Gold.PLP.Chemscore.Internal.Correction>
0.0234

> <Gold.Rescore>
     Score         DG    S(hbond)    S(metal)    S(lipo)     H(rot)  DE(clash)    DE(int)     intcor
     14.88     -18.46       2.27        0.00      83.08       1.69       1.90       1.68       ----

> <Gold.Chemscore.Fitness>
14.8814

> <Gold.Chemscore.DG>
-18.4584

> <Gold.Chemscore.ZeroCoef>
-5.4800

> <Gold.Chemscore.Hbond>
2.2685

> <Gold.Chemscore.Metal>
0.0000

> <Gold.Chemscore.Lipo>
83.0818

> <Gold.Chemscore.Internal_Hbond>
0.0000

> <Gold.Chemscore.DEClash>
1.8979

> <Gold.Chemscore.DEInternal>
1.6792

> <Gold.Chemscore.Rot>
1.6871

> <Gold.Chemscore.Internal.Correction>
   9.000000E+99

> <Gold.Chemscore.Hbonds>
donor molecule, donor type, donor heavy atom, donor atom, acceptor molecule, acceptor atom, score
      L1  H    10    23       P1  8028  0.98
      L1  H    13    24       P1  8028  0.81
      P1  H  7989  7998       L1     9  0.01

> <Gold.Chemscore.Hbond.Weighted>
-7.5769

> <Gold.Chemscore.Metal.Weighted>
-0.0000

> <Gold.Chemscore.Lipo.Weighted>
-9.7206

> <Gold.Chemscore.Internal_Hbond.Weighted>
0.0000

> <Gold.Chemscore.DEClash.Weighted>
1.8979

> <Gold.Chemscore.DEInternal.Weighted>
1.6792

> <Gold.Chemscore.Rot.Weighted>
4.3191

> <Gold.Chemscore.Internal.Correction.Weighted>
   9.000000E+99

> <Gold.Protein.RotatedTorsions>
[ 6907 6896 6895 6894 ] final  146.93 input  -60.11 | X-H torsion
[ 7974 7965 7964 7962 ] final  149.62 input  175.53 | X-H torsion
[ 8008 7997 7996 7995 ] final  156.45 input   59.86 | X-H torsion
[ 10167 10162 10161 10158 ] final -132.71 input  -65.29 | X-H torsion
[ 10718 10713 10712 10709 ] final   45.44 input   66.30 | X-H torsion
[ 10763 10752 10751 10750 ] final -122.73 input  -60.55 | X-H torsion
[ 11005 11000 10999 10996 ] final -173.47 input  -57.11 | X-H torsion

> <Gold.Protein.ActiveResidues>
 VAL166  LYS551  ARG553  GLY616  TRP617  ASP618  TYR619  PRO620  LYS621  CYS622 
 ASP623  PHE694  ASN695  SER759  ASP760  ASP761  ALA762  ILE779  LEU786  VAL792 
 PHE793  MET794  SER795  GLU796  ALA797  LYS798  CYS799  TRP800  GLU811  SER814 

> <Gold.Protein.RotatedAtoms>
  152.1614  133.4584  159.4862 H   0  0  0  0  0  0  0  0  0  0  0  0  # atno 6907 bound_to 6896
  150.6907  134.2067  159.4352 H   0  0  0  0  0  0  0  0  0  0  0  0  # atno 6908 bound_to 6896
  151.9969  134.9949  160.0614 H   0  0  0  0  0  0  0  0  0  0  0  0  # atno 6909 bound_to 6896
  144.8424  139.6304  143.6010 H   0  0  0  0  0  0  0  0  0  0  0  0  # atno 7974 bound_to 7965
  156.2422  140.1912  156.6957 H   0  0  0  0  0  0  0  0  0  0  0  0  # atno 8008 bound_to 7997
  154.6219  140.0607  156.9651 H   0  0  0  0  0  0  0  0  0  0  0  0  # atno 8009 bound_to 7997
  155.1849  140.3279  155.4371 H   0  0  0  0  0  0  0  0  0  0  0  0  # atno 8010 bound_to 7997
  139.9057  143.6554  152.2586 H   0  0  0  0  0  0  0  0  0  0  0  0  # atno 10167 bound_to 10162
  157.4376  130.8062  149.7663 H   0  0  0  0  0  0  0  0  0  0  0  0  # atno 10718 bound_to 10713
  154.8695  135.4122  154.2829 H   0  0  0  0  0  0  0  0  0  0  0  0  # atno 10763 bound_to 10752
  153.3719  135.7008  153.6637 H   0  0  0  0  0  0  0  0  0  0  0  0  # atno 10764 bound_to 10752
  153.5495  135.3631  155.2725 H   0  0  0  0  0  0  0  0  0  0  0  0  # atno 10765 bound_to 10752
  140.4853  134.6036  157.4935 H   0  0  0  0  0  0  0  0  0  0  0  0  # atno 11005 bound_to 11000
  146.2715  139.6646  142.9293 LP  0  0  0  0  0  0  0  0  0  0  0  0  # atno 17320 bound_to 7965
  145.4666  141.0435  143.2722 LP  0  0  0  0  0  0  0  0  0  0  0  0  # atno 17321 bound_to 7965
  139.6986  144.7638  151.1313 LP  0  0  0  0  0  0  0  0  0  0  0  0  # atno 17342 bound_to 10162
  140.7697  143.5489  150.9227 LP  0  0  0  0  0  0  0  0  0  0  0  0  # atno 17343 bound_to 10162
  155.9936  130.3923  150.2892 LP  0  0  0  0  0  0  0  0  0  0  0  0  # atno 17370 bound_to 10713
  157.1055  131.0207  151.3069 LP  0  0  0  0  0  0  0  0  0  0  0  0  # atno 17371 bound_to 10713
  139.9801  134.7150  155.9875 LP  0  0  0  0  0  0  0  0  0  0  0  0  # atno 17394 bound_to 11000
  141.1511  133.6548  156.4016 LP  0  0  0  0  0  0  0  0  0  0  0  0  # atno 17395 bound_to 11000

$$$$
