AV-unprocessed.smi:2033|AV-procd|sdf|8259|dock1
  -GOLD-   2272010533D 1   1.00000     0.00000
 Structure written by MMmdl.
 33 34  0  0  0  0  0  0  0  0  1 V2000
  146.7704  142.6022  154.1026 C   0  0  0  0  0  0  0  0  0  0  0  0
  146.6734  141.1220  153.9577 C   0  0  0  0  0  0  0  0  0  0  0  0
  146.1797  140.3300  154.9175 N   0  0  0  0  0  0  0  0  0  0  0  0
  146.1934  138.9908  154.5532 N   0  0  0  0  0  0  0  0  0  0  0  0
  146.6990  138.8118  153.3251 C   0  0  0  0  0  0  0  0  0  0  0  0
  146.8296  137.5420  152.7031 N   0  0  0  0  0  0  0  0  0  0  0  0
  145.8859  136.6009  152.5241 C   0  0  0  0  0  0  0  0  0  0  0  0
  144.7122  136.6917  152.8851 O   0  0  0  0  0  0  0  0  0  0  0  0
  146.3848  135.5284  151.8922 N   0  0  0  0  0  0  0  0  0  0  0  0
  145.6293  134.3351  151.5102 C   0  0  2  0  0  0  0  0  0  0  0  0
  146.5787  133.2311  150.9784 C   0  0  0  0  0  0  0  0  0  0  0  0
  145.9407  132.1820  150.0435 C   0  0  0  0  0  0  0  0  0  0  0  0
  144.6775  131.4860  150.5896 C   0  0  0  0  0  0  0  0  0  0  0  0
  143.5068  132.4030  151.0198 C   0  0  0  0  0  0  0  0  0  0  0  0
  143.5106  133.7251  150.3940 N   0  0  0  0  0  0  0  0  0  0  0  0
  144.4396  134.6762  150.5927 C   0  0  0  0  0  0  0  0  0  0  0  0
  144.3613  135.7753  150.0454 O   0  0  0  0  0  0  0  0  0  0  0  0
  147.2064  140.2802  152.5076 S   0  0  0  0  0  0  0  0  0  0  0  0
  146.1848  142.9444  154.9566 H   0  0  0  0  0  0  0  0  0  0  0  0
  146.3934  143.0909  153.2041 H   0  0  0  0  0  0  0  0  0  0  0  0
  147.8100  142.8937  154.2515 H   0  0  0  0  0  0  0  0  0  0  0  0
  147.7503  137.3257  152.3503 H   0  0  0  0  0  0  0  0  0  0  0  0
  147.3594  135.5414  151.6286 H   0  0  0  0  0  0  0  0  0  0  0  0
  145.1787  133.9609  152.4304 H   0  0  0  0  0  0  0  0  0  0  0  0
  147.4033  133.6949  150.4349 H   0  0  0  0  0  0  0  0  0  0  0  0
  147.0367  132.7225  151.8274 H   0  0  0  0  0  0  0  0  0  0  0  0
  145.7090  132.6450  149.0833 H   0  0  0  0  0  0  0  0  0  0  0  0
  146.6872  131.4206  149.8153 H   0  0  0  0  0  0  0  0  0  0  0  0
  144.3158  130.8106  149.8138 H   0  0  0  0  0  0  0  0  0  0  0  0
  144.9489  130.8442  151.4284 H   0  0  0  0  0  0  0  0  0  0  0  0
  142.5597  131.9158  150.7869 H   0  0  0  0  0  0  0  0  0  0  0  0
  143.5059  132.5239  152.1035 H   0  0  0  0  0  0  0  0  0  0  0  0
  142.7387  133.9413  149.7799 H   0  0  0  0  0  0  0  0  0  0  0  0
  1  2  1  0  0  0  0
  1 19  1  0  0  0  0
  1 20  1  0  0  0  0
  1 21  1  0  0  0  0
  2 18  1  0  0  0  0
  2  3  2  0  0  0  0
  3  4  1  0  0  0  0
  4  5  2  0  0  0  0
  5  6  1  0  0  0  0
  5 18  1  0  0  0  0
  6  7  1  0  0  0  0
  6 22  1  0  0  0  0
  7  8  2  0  0  0  0
  7  9  1  0  0  0  0
  9 10  1  0  0  0  0
  9 23  1  0  0  0  0
 10 16  1  0  0  0  0
 10 11  1  0  0  0  0
 10 24  1  0  0  0  0
 11 12  1  0  0  0  0
 11 25  1  0  0  0  0
 11 26  1  0  0  0  0
 12 13  1  0  0  0  0
 12 27  1  0  0  0  0
 12 28  1  0  0  0  0
 13 14  1  0  0  0  0
 13 29  1  0  0  0  0
 13 30  1  0  0  0  0
 14 15  1  0  0  0  0
 14 31  1  0  0  0  0
 14 32  1  0  0  0  0
 15 16  1  0  0  0  0
 15 33  1  0  0  0  0
 16 17  2  0  0  0  0
M  END
> <s_m_source_file>
AV-unprocessed.smi

> <i_m_source_file_index>
2033

> <i_lp_mmshare_version>
43012

> <i_f3d_flags>
0

> <s_epik_input>
W0NIM11jMW5uYyhzMSlbTkhdQyg9TylbTkhdW0NAQEhdMltDSDJdW0NIMl1bQ0gyXVtDSDJdW05IXUMyPU8=

> <s_epik_cmdline>
J2VwaWtfcHl0aG9uJywgJy1waCcsICc3LjAnLCAnLXRuJywgJzgnLCAnLW1hJywgJzIwMCcsICctbWV0YWxfYmluZGluZycsICctaW1hZScsICc8aW5maWxlLm1hZT4nLCAnLW9tYWUnLCAnPG91dGZpbGUubWFlPic=

> <r_lp_tautomer_probability>
1

> <r_epik_Ionization_Penalty>
0.00079266

> <r_epik_Ionization_Penalty_Charging>
0

> <r_epik_Ionization_Penalty_Neutral>
0.00079266

> <r_epik_State_Penalty>
-0

> <r_epik_Charging_Adjusted_Penalty>
0

> <i_epik_Tot_Q>
0

> <i_epik_Tot_abs_Q>
0

> <r_epik_Metal_State_Penalty>
0.265831

> <b_epik_Metal_Only>
0

> <s_lp_Force_Field>
OPLS_2005

> <r_lp_Energy>
13.3352

> <b_lp_Chiralities_Consistent>
1

> <s_lp_Variant>
AV-unprocessed.smi:2033-1

> <Gold.Version>
5.8.1

> <Gold.Id.Protein>
6NUR|6NUR_protein|mol2

> <Gold.PLP.Fitness>
36.7540

> <Gold.PLP.PLP>
-28.7227

> <Gold.PLP.part.hbond>
-3.0000

> <Gold.PLP.part.metal>
0.0000

> <Gold.PLP.part.buried>
-3.2601

> <Gold.PLP.part.nonpolar>
-25.7493

> <Gold.PLP.part.repulsive>
2.5140

> <Gold.PLP.ligand.clash>
0.0000

> <Gold.PLP.ligand.torsion>
0.5100

> <Gold.PLP.Chemscore.Hbond>
3.0000

> <Gold.PLP.Chemscore.CHOScore>
0.0000

> <Gold.PLP.Chemscore.Metal>
0.0000

> <Gold.Chemscore.Hbonds>
donor molecule, donor type, donor heavy atom, donor atom, acceptor molecule, acceptor atom, score
      L1  H     6    22       P1  7948  1.00
      L1  H     9    23       P1  7948  1.00
      L1  H    15    33       P1 10186  1.00

> <Gold.PLP.Chemscore.Internal.Correction>
0.0514

> <Gold.Rescore>
     Score         DG    S(hbond)    S(metal)    S(lipo)     H(rot)  DE(clash)    DE(int)     intcor
     18.64     -19.48       2.94        0.00      57.71       1.00       0.34       0.50       ----

> <Gold.Chemscore.Fitness>
18.6403

> <Gold.Chemscore.DG>
-19.4829

> <Gold.Chemscore.ZeroCoef>
-5.4800

> <Gold.Chemscore.Hbond>
2.9374

> <Gold.Chemscore.Metal>
0.0000

> <Gold.Chemscore.Lipo>
57.7075

> <Gold.Chemscore.Internal_Hbond>
0.0000

> <Gold.Chemscore.DEClash>
0.3431

> <Gold.Chemscore.DEInternal>
0.4994

> <Gold.Chemscore.Rot>
1.0000

> <Gold.Chemscore.Internal.Correction>
   9.000000E+99

> <Gold.Chemscore.Hbonds>
donor molecule, donor type, donor heavy atom, donor atom, acceptor molecule, acceptor atom, score
      L1  H     6    22       P1  7948  0.97
      L1  H     9    23       P1  7948  0.93
      L1  H    15    33       P1 10186  0.94

> <Gold.Chemscore.Hbond.Weighted>
-9.8111

> <Gold.Chemscore.Metal.Weighted>
-0.0000

> <Gold.Chemscore.Lipo.Weighted>
-6.7518

> <Gold.Chemscore.Internal_Hbond.Weighted>
0.0000

> <Gold.Chemscore.DEClash.Weighted>
0.3431

> <Gold.Chemscore.DEInternal.Weighted>
0.4994

> <Gold.Chemscore.Rot.Weighted>
2.5600

> <Gold.Chemscore.Internal.Correction.Weighted>
   9.000000E+99

> <Gold.Protein.RotatedTorsions>
[ 6907 6896 6895 6894 ] final  -51.82 input  -60.11 | X-H torsion
[ 7974 7965 7964 7962 ] final -148.17 input  175.53 | X-H torsion
[ 8008 7997 7996 7995 ] final  106.06 input   59.86 | X-H torsion
[ 10167 10162 10161 10158 ] final   40.50 input  -65.29 | X-H torsion
[ 10718 10713 10712 10709 ] final  -13.16 input   66.30 | X-H torsion
[ 10763 10752 10751 10750 ] final -102.70 input  -60.55 | X-H torsion
[ 11005 11000 10999 10996 ] final  138.01 input  -57.11 | X-H torsion

> <Gold.Protein.ActiveResidues>
 VAL166  LYS551  ARG553  GLY616  TRP617  ASP618  TYR619  PRO620  LYS621  CYS622 
 ASP623  PHE694  ASN695  SER759  ASP760  ASP761  ALA762  ILE779  LEU786  VAL792 
 PHE793  MET794  SER795  GLU796  ALA797  LYS798  CYS799  TRP800  GLU811  SER814 

> <Gold.Protein.RotatedAtoms>
  150.8575  134.7918  159.7057 H   0  0  0  0  0  0  0  0  0  0  0  0  # atno 6907 bound_to 6896
  152.4622  134.5154  159.9776 H   0  0  0  0  0  0  0  0  0  0  0  0  # atno 6908 bound_to 6896
  151.5263  133.3419  159.2946 H   0  0  0  0  0  0  0  0  0  0  0  0  # atno 6909 bound_to 6896
  144.8046  140.5231  143.5683 H   0  0  0  0  0  0  0  0  0  0  0  0  # atno 7974 bound_to 7965
  156.1712  140.3119  155.8977 H   0  0  0  0  0  0  0  0  0  0  0  0  # atno 8008 bound_to 7997
  155.3583  140.0475  157.3063 H   0  0  0  0  0  0  0  0  0  0  0  0  # atno 8009 bound_to 7997
  154.5243  140.2209  155.8930 H   0  0  0  0  0  0  0  0  0  0  0  0  # atno 8010 bound_to 7997
  140.3736  144.2072  150.6132 H   0  0  0  0  0  0  0  0  0  0  0  0  # atno 10167 bound_to 10162
  156.6342  130.4910  149.6118 H   0  0  0  0  0  0  0  0  0  0  0  0  # atno 10718 bound_to 10713
  154.7753  135.4851  153.9731 H   0  0  0  0  0  0  0  0  0  0  0  0  # atno 10763 bound_to 10752
  153.1420  135.6774  153.9019 H   0  0  0  0  0  0  0  0  0  0  0  0  # atno 10764 bound_to 10752
  153.8691  135.3146  155.3419 H   0  0  0  0  0  0  0  0  0  0  0  0  # atno 10765 bound_to 10752
  140.0154  134.9421  157.0364 H   0  0  0  0  0  0  0  0  0  0  0  0  # atno 11005 bound_to 11000
  145.5469  139.1476  143.3416 LP  0  0  0  0  0  0  0  0  0  0  0  0  # atno 17320 bound_to 7965
  146.2335  140.5607  142.8965 LP  0  0  0  0  0  0  0  0  0  0  0  0  # atno 17321 bound_to 7965
  140.5008  143.2318  151.8681 LP  0  0  0  0  0  0  0  0  0  0  0  0  # atno 17342 bound_to 10162
  139.4801  144.5061  151.8996 LP  0  0  0  0  0  0  0  0  0  0  0  0  # atno 17343 bound_to 10162
  156.2210  130.6737  151.1368 LP  0  0  0  0  0  0  0  0  0  0  0  0  # atno 17370 bound_to 10713
  157.7191  131.0692  150.6210 LP  0  0  0  0  0  0  0  0  0  0  0  0  # atno 17371 bound_to 10713
  140.4481  134.1611  155.7179 LP  0  0  0  0  0  0  0  0  0  0  0  0  # atno 17394 bound_to 11000
  141.1739  133.8554  157.1484 LP  0  0  0  0  0  0  0  0  0  0  0  0  # atno 17395 bound_to 11000

$$$$
