AV-unprocessed.smi:18|AV-procd|sdf|108|dock3
  -GOLD-   2262015263D 1   1.00000     0.00000
 Structure written by MMmdl.
 47 50  0  0  0  0  0  0  0  0  1 V2000
  143.0111  139.5624  154.9928 O   0  0  0  0  0  0  0  0  0  0  0  0
  143.8527  139.8295  156.0965 C   0  0  0  0  0  0  0  0  0  0  0  0
  143.7450  141.2979  156.5454 C   0  0  0  0  0  0  0  0  0  0  0  0
  144.9417  142.1227  156.0263 C   0  0  0  0  0  0  0  0  0  0  0  0
  146.2291  141.7133  156.5674 N   0  0  0  0  0  0  0  0  0  0  0  0
  146.5216  141.4668  157.8910 C   0  0  0  0  0  0  0  0  0  0  0  0
  147.7530  141.1086  158.1338 N   0  0  0  0  0  0  0  0  0  0  0  0
  148.3583  141.1232  156.8841 C   0  0  0  0  0  0  0  0  0  0  0  0
  149.6735  140.8487  156.4240 C   0  0  0  0  0  0  0  0  0  0  0  0
  150.6566  140.4509  157.2676 N   0  0  0  0  0  0  0  0  0  0  0  0
  151.2263  139.1912  156.7996 C   0  0  0  0  0  0  0  0  0  0  0  0
  152.2145  138.6310  157.8296 C   0  0  0  0  0  0  0  0  0  0  0  0
  153.2171  139.6057  158.0768 O   0  0  0  0  0  0  0  0  0  0  0  0
  152.6708  140.7921  158.6400 C   0  0  0  0  0  0  0  0  0  0  0  0
  151.6595  141.4486  157.6702 C   0  0  2  0  0  0  0  0  0  0  0  0
  151.0116  142.6984  158.3219 C   0  0  0  0  0  0  0  0  0  0  0  0
  151.9926  143.8484  158.5981 C   0  0  0  0  0  0  0  0  0  0  0  0
  151.3373  144.9994  158.7464 F   0  0  0  0  0  0  0  0  0  0  0  0
  152.6801  143.5947  159.7108 F   0  0  0  0  0  0  0  0  0  0  0  0
  149.9137  140.9599  155.0902 N   0  0  0  0  0  0  0  0  0  0  0  0
  148.9337  141.3364  154.2632 C   0  0  0  0  0  0  0  0  0  0  0  0
  147.6648  141.6325  154.5529 N   0  0  0  0  0  0  0  0  0  0  0  0
  147.4171  141.5062  155.8880 C   0  0  0  0  0  0  0  0  0  0  0  0
  142.3570  141.9206  156.3356 C   0  0  0  0  0  0  0  0  0  0  0  0
  142.0045  141.7371  157.7227 O   0  0  0  0  0  0  0  0  0  0  0  0
  143.3939  141.4931  158.0270 C   0  0  0  0  0  0  0  0  0  0  0  0
  143.4806  139.7714  154.1994 H   0  0  0  0  0  0  0  0  0  0  0  0
  143.6126  139.1409  156.9067 H   0  0  0  0  0  0  0  0  0  0  0  0
  144.8752  139.5954  155.7983 H   0  0  0  0  0  0  0  0  0  0  0  0
  145.0042  142.0636  154.9389 H   0  0  0  0  0  0  0  0  0  0  0  0
  144.8002  143.1806  156.2505 H   0  0  0  0  0  0  0  0  0  0  0  0
  145.7841  141.5538  158.6759 H   0  0  0  0  0  0  0  0  0  0  0  0
  150.4366  138.4604  156.6188 H   0  0  0  0  0  0  0  0  0  0  0  0
  151.7363  139.3547  155.8487 H   0  0  0  0  0  0  0  0  0  0  0  0
  151.7060  138.3625  158.7569 H   0  0  0  0  0  0  0  0  0  0  0  0
  152.6847  137.7253  157.4469 H   0  0  0  0  0  0  0  0  0  0  0  0
  152.2021  140.5629  159.5986 H   0  0  0  0  0  0  0  0  0  0  0  0
  153.5001  141.4673  158.8462 H   0  0  0  0  0  0  0  0  0  0  0  0
  152.2028  141.7577  156.7761 H   0  0  0  0  0  0  0  0  0  0  0  0
  150.2193  143.0955  157.6879 H   0  0  0  0  0  0  0  0  0  0  0  0
  150.5259  142.4080  159.2544 H   0  0  0  0  0  0  0  0  0  0  0  0
  152.7241  143.9794  157.8017 H   0  0  0  0  0  0  0  0  0  0  0  0
  149.2043  141.4079  153.2201 H   0  0  0  0  0  0  0  0  0  0  0  0
  142.3749  142.9777  156.0675 H   0  0  0  0  0  0  0  0  0  0  0  0
  141.7140  141.3582  155.6578 H   0  0  0  0  0  0  0  0  0  0  0  0
  143.5399  140.6041  158.6417 H   0  0  0  0  0  0  0  0  0  0  0  0
  143.8671  142.3639  158.4838 H   0  0  0  0  0  0  0  0  0  0  0  0
  1  2  1  0  0  0  0
  1 27  1  0  0  0  0
  2  3  1  0  0  0  0
  2 28  1  0  0  0  0
  2 29  1  0  0  0  0
  3 26  1  0  0  0  0
  3  4  1  0  0  0  0
  3 24  1  0  0  0  0
  4  5  1  0  0  0  0
  4 30  1  0  0  0  0
  4 31  1  0  0  0  0
  5 23  1  0  0  0  0
  5  6  1  0  0  0  0
  6  7  2  0  0  0  0
  6 32  1  0  0  0  0
  7  8  1  0  0  0  0
  8 23  2  0  0  0  0
  8  9  1  0  0  0  0
  9 10  1  0  0  0  0
  9 20  2  0  0  0  0
 10 15  1  0  0  0  0
 10 11  1  0  0  0  0
 11 12  1  0  0  0  0
 11 33  1  0  0  0  0
 11 34  1  0  0  0  0
 12 13  1  0  0  0  0
 12 35  1  0  0  0  0
 12 36  1  0  0  0  0
 13 14  1  0  0  0  0
 14 15  1  0  0  0  0
 14 37  1  0  0  0  0
 14 38  1  0  0  0  0
 15 16  1  0  0  0  0
 15 39  1  0  0  0  0
 16 17  1  0  0  0  0
 16 40  1  0  0  0  0
 16 41  1  0  0  0  0
 17 18  1  0  0  0  0
 17 19  1  0  0  0  0
 17 42  1  0  0  0  0
 20 21  1  0  0  0  0
 21 22  2  0  0  0  0
 21 43  1  0  0  0  0
 22 23  1  0  0  0  0
 24 25  1  0  0  0  0
 24 44  1  0  0  0  0
 24 45  1  0  0  0  0
 25 26  1  0  0  0  0
 26 46  1  0  0  0  0
 26 47  1  0  0  0  0
M  END
> <s_m_source_file>
AV-unprocessed.smi

> <i_m_source_file_index>
18

> <i_lp_mmshare_version>
43012

> <i_f3d_flags>
0

> <s_epik_input>
W0NIMl0xT1tDSDJdQzEoW0NIMl1bT0hdKVtDSDJdbihbY0hdbjIpYyhjMjMpbltjSF1uYzNONFtDSDJdW0NIMl1PW0NIMl1bQ0BIXTRbQ0gyXVtDSF0oRilG

> <s_epik_cmdline>
J2VwaWtfcHl0aG9uJywgJy1waCcsICc3LjAnLCAnLXRuJywgJzgnLCAnLW1hJywgJzIwMCcsICctbWV0YWxfYmluZGluZycsICctaW1hZScsICc8aW5maWxlLm1hZT4nLCAnLW9tYWUnLCAnPG91dGZpbGUubWFlPic=

> <r_lp_tautomer_probability>
1

> <r_epik_Ionization_Penalty>
6.63711e-05

> <r_epik_Ionization_Penalty_Charging>
0

> <r_epik_Ionization_Penalty_Neutral>
6.63711e-05

> <r_epik_State_Penalty>
-0

> <r_epik_Charging_Adjusted_Penalty>
0

> <i_epik_Tot_Q>
0

> <i_epik_Tot_abs_Q>
0

> <r_epik_Metal_State_Penalty>
-0

> <b_epik_Metal_Only>
0

> <s_lp_Force_Field>
OPLS_2005

> <r_lp_Energy>
38.6195

> <b_lp_Chiralities_Consistent>
1

> <s_lp_Variant>
AV-unprocessed.smi:18-2

> <Gold.Version>
5.8.1

> <Gold.Id.Protein>
6NUR|6NUR_protein|mol2

> <Gold.PLP.Fitness>
42.2933

> <Gold.PLP.PLP>
-34.8444

> <Gold.PLP.part.hbond>
-2.9214

> <Gold.PLP.part.metal>
0.0000

> <Gold.PLP.part.buried>
-4.5009

> <Gold.PLP.part.nonpolar>
-26.7192

> <Gold.PLP.part.repulsive>
0.3023

> <Gold.PLP.ligand.clash>
0.0000

> <Gold.PLP.ligand.torsion>
1.5536

> <Gold.PLP.Chemscore.Hbond>
2.3335

> <Gold.PLP.Chemscore.CHOScore>
1.0000

> <Gold.PLP.Chemscore.Metal>
0.0000

> <Gold.Chemscore.Hbonds>
donor molecule, donor type, donor heavy atom, donor atom, acceptor molecule, acceptor atom, score
      L1  H     1    27       P1 10175  1.00
      P1  H  7989  7998       L1    20  0.15
      P1  H  7997  8009       L1    13  1.00
      L1  C    21    43       P1  7957  1.00

> <Gold.PLP.Chemscore.Internal.Correction>
0.5559

> <Gold.Rescore>
     Score         DG    S(hbond)    S(metal)    S(lipo)     H(rot)  DE(clash)    DE(int)     intcor
      8.70     -10.65       1.99        0.00      52.20       2.96       0.04       1.91       ----

> <Gold.Chemscore.Fitness>
8.6958

> <Gold.Chemscore.DG>
-10.6486

> <Gold.Chemscore.ZeroCoef>
-5.4800

> <Gold.Chemscore.Hbond>
1.9911

> <Gold.Chemscore.Metal>
0.0000

> <Gold.Chemscore.Lipo>
52.1962

> <Gold.Chemscore.Internal_Hbond>
0.0000

> <Gold.Chemscore.DEClash>
0.0446

> <Gold.Chemscore.DEInternal>
1.9082

> <Gold.Chemscore.Rot>
2.9643

> <Gold.Chemscore.Internal.Correction>
   9.000000E+99

> <Gold.Chemscore.Hbonds>
donor molecule, donor type, donor heavy atom, donor atom, acceptor molecule, acceptor atom, score
      L1  H     1    27       P1 10175  0.98
      P1  H  7989  7998       L1    20  0.03
      P1  H  7997  8009       L1    13  0.70

> <Gold.Chemscore.Hbond.Weighted>
-6.6503

> <Gold.Chemscore.Metal.Weighted>
-0.0000

> <Gold.Chemscore.Lipo.Weighted>
-6.1070

> <Gold.Chemscore.Internal_Hbond.Weighted>
0.0000

> <Gold.Chemscore.DEClash.Weighted>
0.0446

> <Gold.Chemscore.DEInternal.Weighted>
1.9082

> <Gold.Chemscore.Rot.Weighted>
7.5886

> <Gold.Chemscore.Internal.Correction.Weighted>
   9.000000E+99

> <Gold.Protein.RotatedTorsions>
[ 6907 6896 6895 6894 ] final   66.20 input  -60.11 | X-H torsion
[ 7974 7965 7964 7962 ] final  124.49 input  175.53 | X-H torsion
[ 8008 7997 7996 7995 ] final  161.78 input   59.86 | X-H torsion
[ 10167 10162 10161 10158 ] final  -84.54 input  -65.29 | X-H torsion
[ 10718 10713 10712 10709 ] final  -78.63 input   66.30 | X-H torsion
[ 10763 10752 10751 10750 ] final  -20.33 input  -60.55 | X-H torsion
[ 11005 11000 10999 10996 ] final   53.60 input  -57.11 | X-H torsion

> <Gold.Protein.ActiveResidues>
 VAL166  LYS551  ARG553  GLY616  TRP617  ASP618  TYR619  PRO620  LYS621  CYS622 
 ASP623  PHE694  ASN695  SER759  ASP760  ASP761  ALA762  ILE779  LEU786  VAL792 
 PHE793  MET794  SER795  GLU796  ALA797  LYS798  CYS799  TRP800  GLU811  SER814 

> <Gold.Protein.RotatedAtoms>
  152.4464  134.5486  159.9859 H   0  0  0  0  0  0  0  0  0  0  0  0  # atno 6907 bound_to 6896
  151.5570  133.3403  159.2972 H   0  0  0  0  0  0  0  0  0  0  0  0  # atno 6908 bound_to 6896
  150.8381  134.7695  159.6973 H   0  0  0  0  0  0  0  0  0  0  0  0  # atno 6909 bound_to 6896
  145.0838  139.3637  143.4895 H   0  0  0  0  0  0  0  0  0  0  0  0  # atno 7974 bound_to 7965
  156.2079  140.1768  156.7760 H   0  0  0  0  0  0  0  0  0  0  0  0  # atno 8008 bound_to 7997
  154.5681  140.0687  156.8952 H   0  0  0  0  0  0  0  0  0  0  0  0  # atno 8009 bound_to 7997
  155.2724  140.3343  155.4266 H   0  0  0  0  0  0  0  0  0  0  0  0  # atno 8010 bound_to 7997
  140.4123  143.2618  151.9001 H   0  0  0  0  0  0  0  0  0  0  0  0  # atno 10167 bound_to 10162
  156.0112  130.4523  150.3526 H   0  0  0  0  0  0  0  0  0  0  0  0  # atno 10718 bound_to 10713
  153.6187  135.6993  153.5319 H   0  0  0  0  0  0  0  0  0  0  0  0  # atno 10763 bound_to 10752
  153.2956  135.4144  155.1206 H   0  0  0  0  0  0  0  0  0  0  0  0  # atno 10764 bound_to 10752
  154.8548  135.3636  154.5727 H   0  0  0  0  0  0  0  0  0  0  0  0  # atno 10765 bound_to 10752
  140.0754  134.5411  155.9002 H   0  0  0  0  0  0  0  0  0  0  0  0  # atno 11005 bound_to 11000
  146.3531  140.0640  142.8627 LP  0  0  0  0  0  0  0  0  0  0  0  0  # atno 17320 bound_to 7965
  145.1147  140.9426  143.4636 LP  0  0  0  0  0  0  0  0  0  0  0  0  # atno 17321 bound_to 7965
  139.4782  144.5524  151.8365 LP  0  0  0  0  0  0  0  0  0  0  0  0  # atno 17342 bound_to 10162
  140.4625  144.1702  150.5908 LP  0  0  0  0  0  0  0  0  0  0  0  0  # atno 17343 bound_to 10162
  157.1618  131.0347  151.2837 LP  0  0  0  0  0  0  0  0  0  0  0  0  # atno 17370 bound_to 10713
  157.4305  130.7487  149.6986 LP  0  0  0  0  0  0  0  0  0  0  0  0  # atno 17371 bound_to 10713
  141.2027  133.6627  156.6024 LP  0  0  0  0  0  0  0  0  0  0  0  0  # atno 17394 bound_to 11000
  140.3565  134.7724  157.4504 LP  0  0  0  0  0  0  0  0  0  0  0  0  # atno 17395 bound_to 11000

$$$$
