AV-unprocessed.smi:1474|AV-procd|sdf|5974|dock4
  -GOLD-   22720 6 63D 1   1.00000     0.00000
 Structure written by MMmdl.
 43 44  0  0  0  0  0  0  0  0  1 V2000
  152.2978  142.3773  159.7287 C   0  0  0  0  0  0  0  0  0  0  0  0
  151.9440  141.9259  158.4332 O   0  0  0  0  0  0  0  0  0  0  0  0
  151.5626  140.5606  158.4193 C   0  0  0  0  0  0  0  0  0  0  0  0
  151.2385  140.1468  156.9816 C   0  0  0  0  0  0  0  0  0  0  0  0
  150.2654  141.0444  156.4558 O   0  0  0  0  0  0  0  0  0  0  0  0
  149.4264  140.5942  155.4569 C   0  0  0  0  0  0  0  0  0  0  0  0
  148.4815  141.4904  154.9166 C   0  0  0  0  0  0  0  0  0  0  0  0
  147.6128  141.0334  153.9073 C   0  0  0  0  0  0  0  0  0  0  0  0
  147.7220  139.6984  153.4687 C   0  0  0  0  0  0  0  0  0  0  0  0
  146.7893  139.1498  152.4043 C   0  0  0  0  0  0  0  0  0  0  0  0
  146.5628  137.7172  152.5521 N   0  0  0  0  0  0  0  0  0  0  0  0
  145.4177  137.1632  152.9809 C   0  0  0  0  0  0  0  0  0  0  0  0
  144.4513  137.8293  153.3538 O   0  0  0  0  0  0  0  0  0  0  0  0
  145.3634  135.6239  152.9873 C   0  0  2  0  0  0  0  0  0  0  0  0
  144.4417  135.0754  151.8822 C   0  0  0  0  0  0  0  0  0  0  0  0
  142.9491  135.3452  152.1518 C   0  0  0  0  0  0  0  0  0  0  0  0
  142.5289  135.0857  153.6063 C   0  0  0  0  0  0  0  0  0  0  0  0
  141.3363  134.9707  153.8784 O   0  0  0  0  0  0  0  0  0  0  0  0
  143.4751  135.0319  154.5602 N   0  0  0  0  0  0  0  0  0  0  0  0
  144.9246  135.0413  154.3503 C   0  0  0  0  0  0  0  0  0  0  0  0
  148.7028  138.8793  154.0656 C   0  0  0  0  0  0  0  0  0  0  0  0
  149.5370  139.3094  155.0358 N   0  0  0  0  0  0  0  0  0  0  0  0
  152.5880  143.4269  159.6844 H   0  0  0  0  0  0  0  0  0  0  0  0
  153.1408  141.8118  160.1274 H   0  0  0  0  0  0  0  0  0  0  0  0
  151.4585  142.2889  160.4196 H   0  0  0  0  0  0  0  0  0  0  0  0
  152.3728  139.9429  158.8105 H   0  0  0  0  0  0  0  0  0  0  0  0
  150.6912  140.4066  159.0577 H   0  0  0  0  0  0  0  0  0  0  0  0
  152.1466  140.1721  156.3772 H   0  0  0  0  0  0  0  0  0  0  0  0
  150.8538  139.1256  156.9733 H   0  0  0  0  0  0  0  0  0  0  0  0
  148.4197  142.5074  155.2750 H   0  0  0  0  0  0  0  0  0  0  0  0
  146.8729  141.6954  153.4821 H   0  0  0  0  0  0  0  0  0  0  0  0
  145.8288  139.6602  152.4807 H   0  0  0  0  0  0  0  0  0  0  0  0
  147.1774  139.3725  151.4088 H   0  0  0  0  0  0  0  0  0  0  0  0
  147.3147  137.1032  152.2740 H   0  0  0  0  0  0  0  0  0  0  0  0
  146.3769  135.2695  152.7913 H   0  0  0  0  0  0  0  0  0  0  0  0
  144.7199  135.4980  150.9156 H   0  0  0  0  0  0  0  0  0  0  0  0
  144.5980  133.9998  151.7910 H   0  0  0  0  0  0  0  0  0  0  0  0
  142.7147  136.3851  151.9218 H   0  0  0  0  0  0  0  0  0  0  0  0
  142.3366  134.7386  151.4842 H   0  0  0  0  0  0  0  0  0  0  0  0
  143.1621  134.9052  155.5119 H   0  0  0  0  0  0  0  0  0  0  0  0
  145.2734  134.0113  154.4312 H   0  0  0  0  0  0  0  0  0  0  0  0
  145.3936  135.5839  155.1722 H   0  0  0  0  0  0  0  0  0  0  0  0
  148.8144  137.8476  153.7662 H   0  0  0  0  0  0  0  0  0  0  0  0
  1  2  1  0  0  0  0
  1 23  1  0  0  0  0
  1 24  1  0  0  0  0
  1 25  1  0  0  0  0
  2  3  1  0  0  0  0
  3  4  1  0  0  0  0
  3 26  1  0  0  0  0
  3 27  1  0  0  0  0
  4  5  1  0  0  0  0
  4 28  1  0  0  0  0
  4 29  1  0  0  0  0
  5  6  1  0  0  0  0
  6 22  1  0  0  0  0
  6  7  2  0  0  0  0
  7  8  1  0  0  0  0
  7 30  1  0  0  0  0
  8  9  2  0  0  0  0
  8 31  1  0  0  0  0
  9 10  1  0  0  0  0
  9 21  1  0  0  0  0
 10 11  1  0  0  0  0
 10 32  1  0  0  0  0
 10 33  1  0  0  0  0
 11 12  1  0  0  0  0
 11 34  1  0  0  0  0
 12 13  2  0  0  0  0
 12 14  1  0  0  0  0
 14 20  1  0  0  0  0
 14 15  1  0  0  0  0
 14 35  1  0  0  0  0
 15 16  1  0  0  0  0
 15 36  1  0  0  0  0
 15 37  1  0  0  0  0
 16 17  1  0  0  0  0
 16 38  1  0  0  0  0
 16 39  1  0  0  0  0
 17 18  2  0  0  0  0
 17 19  1  0  0  0  0
 19 20  1  0  0  0  0
 19 40  1  0  0  0  0
 20 41  1  0  0  0  0
 20 42  1  0  0  0  0
 21 22  2  0  0  0  0
 21 43  1  0  0  0  0
M  END
> <s_m_source_file>
AV-unprocessed.smi

> <i_m_source_file_index>
1474

> <i_lp_mmshare_version>
43012

> <i_f3d_flags>
0

> <s_epik_input>
W0NIM11PW0NIMl1bQ0gyXU9jMVtjSF1bY0hdYyhbY0hdbjEpW0NIMl1bTkhdQyg9TylbQ0BASF0yW0NIMl1bQ0gyXUMoPU8pW05IXVtDSDJdMg==

> <s_epik_cmdline>
J2VwaWtfcHl0aG9uJywgJy1waCcsICc3LjAnLCAnLXRuJywgJzgnLCAnLW1hJywgJzIwMCcsICctbWV0YWxfYmluZGluZycsICctaW1hZScsICc8aW5maWxlLm1hZT4nLCAnLW9tYWUnLCAnPG91dGZpbGUubWFlPic=

> <r_lp_tautomer_probability>
1

> <r_epik_Ionization_Penalty>
6.19599e-05

> <r_epik_Ionization_Penalty_Charging>
0

> <r_epik_Ionization_Penalty_Neutral>
6.19599e-05

> <r_epik_State_Penalty>
-0

> <r_epik_Charging_Adjusted_Penalty>
0

> <i_epik_Tot_Q>
0

> <i_epik_Tot_abs_Q>
0

> <r_epik_Metal_State_Penalty>
-0

> <b_epik_Metal_Only>
0

> <s_lp_Force_Field>
OPLS_2005

> <r_lp_Energy>
10.5341

> <b_lp_Chiralities_Consistent>
1

> <s_lp_Variant>
AV-unprocessed.smi:1474-1

> <Gold.Version>
5.8.1

> <Gold.Id.Protein>
6NUR|6NUR_protein|mol2

> <Gold.PLP.Fitness>
38.3697

> <Gold.PLP.PLP>
-30.8213

> <Gold.PLP.part.hbond>
-2.0070

> <Gold.PLP.part.metal>
0.0000

> <Gold.PLP.part.buried>
-4.1490

> <Gold.PLP.part.nonpolar>
-26.1828

> <Gold.PLP.part.repulsive>
1.3552

> <Gold.PLP.ligand.clash>
0.0000

> <Gold.PLP.ligand.torsion>
0.7863

> <Gold.PLP.Chemscore.Hbond>
2.0000

> <Gold.PLP.Chemscore.CHOScore>
1.0000

> <Gold.PLP.Chemscore.Metal>
0.0000

> <Gold.Chemscore.Hbonds>
donor molecule, donor type, donor heavy atom, donor atom, acceptor molecule, acceptor atom, score
      L1  H    11    34       P1  7948  1.00
      P1  H 11000 11005       L1    18  0.60
      L1  C    21    43       P1  7948  1.00

> <Gold.PLP.Chemscore.Internal.Correction>
0.1210

> <Gold.Rescore>
     Score         DG    S(hbond)    S(metal)    S(lipo)     H(rot)  DE(clash)    DE(int)     intcor
     12.47     -13.29       1.84        0.00      69.33       2.52       0.10       0.72       ----

> <Gold.Chemscore.Fitness>
12.4677

> <Gold.Chemscore.DG>
-13.2913

> <Gold.Chemscore.ZeroCoef>
-5.4800

> <Gold.Chemscore.Hbond>
1.8415

> <Gold.Chemscore.Metal>
0.0000

> <Gold.Chemscore.Lipo>
69.3330

> <Gold.Chemscore.Internal_Hbond>
0.0000

> <Gold.Chemscore.DEClash>
0.0993

> <Gold.Chemscore.DEInternal>
0.7243

> <Gold.Chemscore.Rot>
2.5201

> <Gold.Chemscore.Internal.Correction>
   9.000000E+99

> <Gold.Chemscore.Hbonds>
donor molecule, donor type, donor heavy atom, donor atom, acceptor molecule, acceptor atom, score
      L1  H    11    34       P1  7948  1.00
      P1  H 11000 11005       L1    18  0.58

> <Gold.Chemscore.Hbond.Weighted>
-6.1508

> <Gold.Chemscore.Metal.Weighted>
-0.0000

> <Gold.Chemscore.Lipo.Weighted>
-8.1120

> <Gold.Chemscore.Internal_Hbond.Weighted>
0.0000

> <Gold.Chemscore.DEClash.Weighted>
0.0993

> <Gold.Chemscore.DEInternal.Weighted>
0.7243

> <Gold.Chemscore.Rot.Weighted>
6.4514

> <Gold.Chemscore.Internal.Correction.Weighted>
   9.000000E+99

> <Gold.Protein.RotatedTorsions>
[ 6907 6896 6895 6894 ] final  153.41 input  -60.11 | X-H torsion
[ 7974 7965 7964 7962 ] final   73.13 input  175.53 | X-H torsion
[ 8008 7997 7996 7995 ] final  127.39 input   59.86 | X-H torsion
[ 10167 10162 10161 10158 ] final  179.13 input  -65.29 | X-H torsion
[ 10718 10713 10712 10709 ] final   61.17 input   66.30 | X-H torsion
[ 10763 10752 10751 10750 ] final  -53.09 input  -60.55 | X-H torsion
[ 11005 11000 10999 10996 ] final   11.75 input  -57.11 | X-H torsion

> <Gold.Protein.ActiveResidues>
 VAL166  LYS551  ARG553  GLY616  TRP617  ASP618  TYR619  PRO620  LYS621  CYS622 
 ASP623  PHE694  ASN695  SER759  ASP760  ASP761  ALA762  ILE779  LEU786  VAL792 
 PHE793  MET794  SER795  GLU796  ALA797  LYS798  CYS799  TRP800  GLU811  SER814 

> <Gold.Protein.RotatedAtoms>
  152.0730  133.4116  159.4467 H   0  0  0  0  0  0  0  0  0  0  0  0  # atno 6907 bound_to 6896
  150.6863  134.3070  159.4739 H   0  0  0  0  0  0  0  0  0  0  0  0  # atno 6908 bound_to 6896
  152.0903  134.9411  160.0622 H   0  0  0  0  0  0  0  0  0  0  0  0  # atno 6909 bound_to 6896
  145.7447  139.2735  143.1466 H   0  0  0  0  0  0  0  0  0  0  0  0  # atno 7974 bound_to 7965
  156.2889  140.2670  156.2266 H   0  0  0  0  0  0  0  0  0  0  0  0  # atno 8008 bound_to 7997
  155.0115  140.0387  157.2419 H   0  0  0  0  0  0  0  0  0  0  0  0  # atno 8009 bound_to 7997
  154.7514  140.2743  155.6294 H   0  0  0  0  0  0  0  0  0  0  0  0  # atno 8010 bound_to 7997
  139.5323  144.2598  152.0717 H   0  0  0  0  0  0  0  0  0  0  0  0  # atno 10167 bound_to 10162
  157.5808  130.8979  149.9427 H   0  0  0  0  0  0  0  0  0  0  0  0  # atno 10718 bound_to 10713
  154.1533  135.6486  153.4968 H   0  0  0  0  0  0  0  0  0  0  0  0  # atno 10763 bound_to 10752
  153.0131  135.5343  154.6786 H   0  0  0  0  0  0  0  0  0  0  0  0  # atno 10764 bound_to 10752
  154.6080  135.2951  155.0435 H   0  0  0  0  0  0  0  0  0  0  0  0  # atno 10765 bound_to 10752
  140.4997  134.0758  155.7791 H   0  0  0  0  0  0  0  0  0  0  0  0  # atno 11005 bound_to 11000
  146.0414  140.8161  142.9827 LP  0  0  0  0  0  0  0  0  0  0  0  0  # atno 17320 bound_to 7965
  144.6863  140.2916  143.7277 LP  0  0  0  0  0  0  0  0  0  0  0  0  # atno 17321 bound_to 7965
  140.2063  144.4608  150.6407 LP  0  0  0  0  0  0  0  0  0  0  0  0  # atno 17342 bound_to 10162
  140.6509  143.2225  151.6079 LP  0  0  0  0  0  0  0  0  0  0  0  0  # atno 17343 bound_to 10162
  156.0853  130.3668  150.0499 LP  0  0  0  0  0  0  0  0  0  0  0  0  # atno 17370 bound_to 10713
  156.8638  130.9501  151.3615 LP  0  0  0  0  0  0  0  0  0  0  0  0  # atno 17371 bound_to 10713
  141.1442  133.9085  157.2255 LP  0  0  0  0  0  0  0  0  0  0  0  0  # atno 17394 bound_to 11000
  139.9720  135.0125  156.9537 LP  0  0  0  0  0  0  0  0  0  0  0  0  # atno 17395 bound_to 11000

$$$$
