AV-unprocessed.smi:2736|AV-procd|sdf|10546|dock8
  -GOLD-   2272014593D 1   1.00000     0.00000
 Structure written by MMmdl.
 38 40  0  0  0  0  0  0  0  0  1 V2000
  154.2345  140.4374  161.0992 C   0  0  0  0  0  0  0  0  0  0  0  0
  153.3301  141.2553  160.2696 N   0  0  0  0  0  0  0  0  0  0  0  0
  153.0807  140.8470  158.9856 C   0  0  0  0  0  0  0  0  0  0  0  0
  153.5592  139.8394  158.4637 O   0  0  0  0  0  0  0  0  0  0  0  0
  152.1714  141.7306  158.2468 C   0  0  0  0  0  0  0  0  0  0  0  0
  151.6325  142.8523  158.7856 C   0  0  0  0  0  0  0  0  0  0  0  0
  150.8162  143.5092  157.8714 N   0  0  0  0  0  0  0  0  0  0  0  0
  150.9111  142.7249  156.7977 C   0  0  0  0  0  0  0  0  0  0  0  0
  151.7013  141.6413  156.9366 N   0  0  0  0  0  0  0  0  0  0  0  0
  151.9674  140.6440  155.9106 C   0  0  0  0  0  0  0  0  0  0  0  0
  150.6791  139.9967  155.3633 C   0  0  1  0  0  0  0  0  0  0  0  0
  150.4471  140.4237  154.0337 O   0  0  0  0  0  0  0  0  0  0  0  0
  150.7275  138.4763  155.4967 C   0  0  0  0  0  0  0  0  0  0  0  0
  150.7252  137.6661  154.3371 C   0  0  0  0  0  0  0  0  0  0  0  0
  150.7725  136.2631  154.4416 C   0  0  0  0  0  0  0  0  0  0  0  0
  150.8293  135.6539  155.7078 C   0  0  0  0  0  0  0  0  0  0  0  0
  150.8451  136.4499  156.8677 C   0  0  0  0  0  0  0  0  0  0  0  0
  150.7990  137.8551  156.7696 C   0  0  0  0  0  0  0  0  0  0  0  0
  150.8444  138.7830  158.2283 Cl  0  0  0  0  0  0  0  0  0  0  0  0
  151.9613  143.1841  160.1254 N   0  0  0  0  0  0  0  0  0  0  0  0
  151.3923  144.3966  160.7208 C   0  0  0  0  0  0  0  0  0  0  0  0
  152.8087  142.3934  160.8604 C   0  0  0  0  0  0  0  0  0  0  0  0
  153.0959  142.6992  162.0214 O   0  0  0  0  0  0  0  0  0  0  0  0
  154.5486  139.4975  160.6443 H   0  0  0  0  0  0  0  0  0  0  0  0
  153.7576  140.1713  162.0439 H   0  0  0  0  0  0  0  0  0  0  0  0
  155.1429  140.9969  161.3282 H   0  0  0  0  0  0  0  0  0  0  0  0
  150.3911  142.9469  155.8774 H   0  0  0  0  0  0  0  0  0  0  0  0
  152.5556  141.0878  155.1084 H   0  0  0  0  0  0  0  0  0  0  0  0
  152.6038  139.8765  156.3533 H   0  0  0  0  0  0  0  0  0  0  0  0
  149.8282  140.3715  155.9314 H   0  0  0  0  0  0  0  0  0  0  0  0
  149.6822  139.9767  153.7047 H   0  0  0  0  0  0  0  0  0  0  0  0
  150.6900  138.1153  153.3554 H   0  0  0  0  0  0  0  0  0  0  0  0
  150.7668  135.6544  153.5493 H   0  0  0  0  0  0  0  0  0  0  0  0
  150.8661  134.5776  155.7895 H   0  0  0  0  0  0  0  0  0  0  0  0
  150.8965  135.9785  157.8382 H   0  0  0  0  0  0  0  0  0  0  0  0
  150.8365  144.1558  161.6280 H   0  0  0  0  0  0  0  0  0  0  0  0
  150.7058  144.9142  160.0511 H   0  0  0  0  0  0  0  0  0  0  0  0
  152.1840  145.1003  160.9819 H   0  0  0  0  0  0  0  0  0  0  0  0
  1  2  1  0  0  0  0
  1 24  1  0  0  0  0
  1 25  1  0  0  0  0
  1 26  1  0  0  0  0
  2 22  1  0  0  0  0
  2  3  1  0  0  0  0
  3  4  2  0  0  0  0
  3  5  1  0  0  0  0
  5  9  1  0  0  0  0
  5  6  2  0  0  0  0
  6  7  1  0  0  0  0
  6 20  1  0  0  0  0
  7  8  2  0  0  0  0
  8  9  1  0  0  0  0
  8 27  1  0  0  0  0
  9 10  1  0  0  0  0
 10 11  1  0  0  0  0
 10 28  1  0  0  0  0
 10 29  1  0  0  0  0
 11 12  1  0  0  0  0
 11 13  1  0  0  0  0
 11 30  1  0  0  0  0
 12 31  1  0  0  0  0
 13 18  1  0  0  0  0
 13 14  2  0  0  0  0
 14 15  1  0  0  0  0
 14 32  1  0  0  0  0
 15 16  2  0  0  0  0
 15 33  1  0  0  0  0
 16 17  1  0  0  0  0
 16 34  1  0  0  0  0
 17 18  2  0  0  0  0
 17 35  1  0  0  0  0
 18 19  1  0  0  0  0
 20 21  1  0  0  0  0
 20 22  1  0  0  0  0
 21 36  1  0  0  0  0
 21 37  1  0  0  0  0
 21 38  1  0  0  0  0
 22 23  2  0  0  0  0
M  END
> <s_m_source_file>
AV-unprocessed.smi

> <i_m_source_file_index>
2736

> <i_lp_mmshare_version>
43012

> <i_f3d_flags>
0

> <s_epik_input>
Tz1jMW4oW0NIM10pYyg9TyluKFtDSDNdKWMoYzEyKW5bY0hdbjJbQ0gyXVtDQEhdKFtPSF0pYzNbY0hdW2NIXVtjSF1bY0hdYzNDbA==

> <s_epik_cmdline>
J2VwaWtfcHl0aG9uJywgJy1waCcsICc3LjAnLCAnLXRuJywgJzgnLCAnLW1hJywgJzIwMCcsICctbWV0YWxfYmluZGluZycsICctaW1hZScsICc8aW5maWxlLm1hZT4nLCAnLW9tYWUnLCAnPG91dGZpbGUubWFlPic=

> <r_lp_tautomer_probability>
1

> <r_epik_Ionization_Penalty>
1.63404e-06

> <r_epik_Ionization_Penalty_Charging>
3.74189e-09

> <r_epik_Ionization_Penalty_Neutral>
1.63029e-06

> <r_epik_State_Penalty>
-0

> <r_epik_Charging_Adjusted_Penalty>
3.74189e-09

> <i_epik_Tot_Q>
0

> <i_epik_Tot_abs_Q>
0

> <r_epik_Metal_State_Penalty>
-0

> <b_epik_Metal_Only>
0

> <s_lp_Force_Field>
OPLS_2005

> <r_lp_Energy>
36.7388

> <b_lp_Chiralities_Consistent>
1

> <s_lp_Variant>
AV-unprocessed.smi:2736-2

> <Gold.Version>
5.8.1

> <Gold.Id.Protein>
6NUR|6NUR_protein|mol2

> <Gold.PLP.Fitness>
48.5935

> <Gold.PLP.PLP>
-41.6697

> <Gold.PLP.part.hbond>
-2.7632

> <Gold.PLP.part.metal>
0.0000

> <Gold.PLP.part.buried>
-4.7100

> <Gold.PLP.part.nonpolar>
-32.8958

> <Gold.PLP.part.repulsive>
0.2296

> <Gold.PLP.ligand.clash>
0.0000

> <Gold.PLP.ligand.torsion>
0.8041

> <Gold.PLP.Chemscore.Hbond>
2.0000

> <Gold.PLP.Chemscore.CHOScore>
0.8342

> <Gold.PLP.Chemscore.Metal>
0.0000

> <Gold.Chemscore.Hbonds>
donor molecule, donor type, donor heavy atom, donor atom, acceptor molecule, acceptor atom, score
      P1  H  7989  7998       L1    12  0.53
      P1  H  7997  8008       L1     4  1.00
      L1  C     8    27       P1  8028  0.86

> <Gold.PLP.Chemscore.Internal.Correction>
0.0295

> <Gold.Rescore>
     Score         DG    S(hbond)    S(metal)    S(lipo)     H(rot)  DE(clash)    DE(int)     intcor
     10.60     -14.51       1.77        0.00      73.53       2.15       3.04       0.86       ----

> <Gold.Chemscore.Fitness>
10.6024

> <Gold.Chemscore.DG>
-14.5105

> <Gold.Chemscore.ZeroCoef>
-5.4800

> <Gold.Chemscore.Hbond>
1.7740

> <Gold.Chemscore.Metal>
0.0000

> <Gold.Chemscore.Lipo>
73.5273

> <Gold.Chemscore.Internal_Hbond>
0.0000

> <Gold.Chemscore.DEClash>
3.0433

> <Gold.Chemscore.DEInternal>
0.8648

> <Gold.Chemscore.Rot>
2.1474

> <Gold.Chemscore.Internal.Correction>
   9.000000E+99

> <Gold.Chemscore.Hbonds>
donor molecule, donor type, donor heavy atom, donor atom, acceptor molecule, acceptor atom, score
      P1  H  7989  7998       L1    12  0.39
      P1  H  7997  8008       L1     4  0.95

> <Gold.Chemscore.Hbond.Weighted>
-5.9251

> <Gold.Chemscore.Metal.Weighted>
-0.0000

> <Gold.Chemscore.Lipo.Weighted>
-8.6027

> <Gold.Chemscore.Internal_Hbond.Weighted>
0.0000

> <Gold.Chemscore.DEClash.Weighted>
3.0433

> <Gold.Chemscore.DEInternal.Weighted>
0.8648

> <Gold.Chemscore.Rot.Weighted>
5.4974

> <Gold.Chemscore.Internal.Correction.Weighted>
   9.000000E+99

> <Gold.Protein.RotatedTorsions>
[ 6907 6896 6895 6894 ] final   80.35 input  -60.11 | X-H torsion
[ 7974 7965 7964 7962 ] final   47.00 input  175.53 | X-H torsion
[ 8008 7997 7996 7995 ] final  -87.50 input   59.86 | X-H torsion
[ 10167 10162 10161 10158 ] final -102.47 input  -65.29 | X-H torsion
[ 10718 10713 10712 10709 ] final  167.22 input   66.30 | X-H torsion
[ 10763 10752 10751 10750 ] final  146.19 input  -60.55 | X-H torsion
[ 11005 11000 10999 10996 ] final -144.32 input  -57.11 | X-H torsion

> <Gold.Protein.ActiveResidues>
 VAL166  LYS551  ARG553  GLY616  TRP617  ASP618  TYR619  PRO620  LYS621  CYS622 
 ASP623  PHE694  ASN695  SER759  ASP760  ASP761  ALA762  ILE779  LEU786  VAL792 
 PHE793  MET794  SER795  GLU796  ALA797  LYS798  CYS799  TRP800  GLU811  SER814 

> <Gold.Protein.RotatedAtoms>
  152.5232  134.3371  159.9203 H   0  0  0  0  0  0  0  0  0  0  0  0  # atno 6907 bound_to 6896
  151.3320  133.3990  159.2671 H   0  0  0  0  0  0  0  0  0  0  0  0  # atno 6908 bound_to 6896
  150.9873  134.9233  159.7937 H   0  0  0  0  0  0  0  0  0  0  0  0  # atno 6909 bound_to 6896
  146.0338  139.4796  142.9821 H   0  0  0  0  0  0  0  0  0  0  0  0  # atno 7974 bound_to 7965
  154.6639  140.0565  157.0092 H   0  0  0  0  0  0  0  0  0  0  0  0  # atno 8008 bound_to 7997
  155.1188  140.3245  155.4484 H   0  0  0  0  0  0  0  0  0  0  0  0  # atno 8009 bound_to 7997
  156.2630  140.2001  156.6310 H   0  0  0  0  0  0  0  0  0  0  0  0  # atno 8010 bound_to 7997
  140.2303  143.3611  152.0892 H   0  0  0  0  0  0  0  0  0  0  0  0  # atno 10167 bound_to 10162
  157.0547  131.0323  151.2668 H   0  0  0  0  0  0  0  0  0  0  0  0  # atno 10718 bound_to 10713
  154.0178  135.2908  155.3384 H   0  0  0  0  0  0  0  0  0  0  0  0  # atno 10763 bound_to 10752
  154.7064  135.5167  153.8605 H   0  0  0  0  0  0  0  0  0  0  0  0  # atno 10764 bound_to 10752
  153.0694  135.6642  154.0403 H   0  0  0  0  0  0  0  0  0  0  0  0  # atno 10765 bound_to 10752
  140.8036  134.2828  157.4969 H   0  0  0  0  0  0  0  0  0  0  0  0  # atno 11005 bound_to 11000
  145.6997  141.0140  143.1511 LP  0  0  0  0  0  0  0  0  0  0  0  0  # atno 17320 bound_to 7965
  144.7042  139.8630  143.7435 LP  0  0  0  0  0  0  0  0  0  0  0  0  # atno 17321 bound_to 7965
  139.5112  144.6897  151.5793 LP  0  0  0  0  0  0  0  0  0  0  0  0  # atno 17342 bound_to 10162
  140.6190  143.9294  150.6511 LP  0  0  0  0  0  0  0  0  0  0  0  0  # atno 17343 bound_to 10162
  157.5002  130.7875  149.7597 LP  0  0  0  0  0  0  0  0  0  0  0  0  # atno 17370 bound_to 10713
  155.9997  130.3887  150.2656 LP  0  0  0  0  0  0  0  0  0  0  0  0  # atno 17371 bound_to 10713
  139.8719  134.9443  156.3878 LP  0  0  0  0  0  0  0  0  0  0  0  0  # atno 17394 bound_to 11000
  140.9270  133.7606  155.9977 LP  0  0  0  0  0  0  0  0  0  0  0  0  # atno 17395 bound_to 11000

$$$$
