AV-unprocessed.smi:1205|AV-procd|sdf|5046|dock2
  -GOLD-   22720 4 73D 1   1.00000     0.00000
 Structure written by MMmdl.
 49 50  0  0  0  0  0  0  0  0  2 V2000
  146.4949  129.5322  152.0809 C   0  0  0  0  0  0  0  0  0  0  0  0
  146.2175  131.0055  152.0255 C   0  0  0  0  0  0  0  0  0  0  0  0
  147.0457  132.0730  152.4803 C   0  0  0  0  0  0  0  0  0  0  0  0
  146.3000  133.1803  152.1812 C   0  0  0  0  0  0  0  0  0  0  0  0
  146.5893  134.4906  152.3997 N   0  0  0  0  0  0  0  0  0  0  0  0
  145.7823  135.4641  152.8557 C   0  0  0  0  0  0  0  0  0  0  0  0
  144.5993  135.3269  153.1683 O   0  0  0  0  0  0  0  0  0  0  0  0
  146.4345  136.6321  152.9431 N   0  0  0  0  0  0  0  0  0  0  0  0
  145.8469  137.8836  153.4103 C   0  0  0  0  0  0  0  0  0  0  0  0
  146.7050  139.1195  153.0356 C   0  0  1  0  0  0  0  0  0  0  0  0
  146.8242  139.3216  151.5128 C   0  0  0  0  0  0  0  0  0  0  0  0
  146.2472  140.3750  153.6994 N   0  3  2  0  0  0  0  0  0  0  0  0
  146.9061  141.5987  153.1710 C   0  0  0  0  0  0  0  0  0  0  0  0
  146.2099  142.8629  153.7001 C   0  0  0  0  0  0  0  0  0  0  0  0
  146.1739  142.8717  155.2343 C   0  0  0  0  0  0  0  0  0  0  0  0
  145.5249  141.5812  155.7646 C   0  0  2  0  0  0  0  0  0  0  0  0
  145.5043  141.5537  157.2994 C   0  0  0  0  0  0  0  0  0  0  0  0
  146.2478  140.3478  155.1882 C   0  0  0  0  0  0  0  0  0  0  0  0
  145.1196  132.7779  151.5969 N   0  0  0  0  0  0  0  0  0  0  0  0
  144.0098  133.5771  151.1150 C   0  0  0  0  0  0  0  0  0  0  0  0
  145.0738  131.4317  151.5014 N   0  0  0  0  0  0  0  0  0  0  0  0
  147.4748  129.3314  152.5140 H   0  0  0  0  0  0  0  0  0  0  0  0
  146.4766  129.0910  151.0840 H   0  0  0  0  0  0  0  0  0  0  0  0
  145.7516  129.0157  152.6887 H   0  0  0  0  0  0  0  0  0  0  0  0
  148.0171  132.0127  152.9473 H   0  0  0  0  0  0  0  0  0  0  0  0
  147.5432  134.7566  152.2052 H   0  0  0  0  0  0  0  0  0  0  0  0
  147.4046  136.6587  152.6641 H   0  0  0  0  0  0  0  0  0  0  0  0
  144.8565  137.9546  152.9607 H   0  0  0  0  0  0  0  0  0  0  0  0
  145.6932  137.8255  154.4887 H   0  0  0  0  0  0  0  0  0  0  0  0
  147.7224  138.9403  153.3861 H   0  0  0  0  0  0  0  0  0  0  0  0
  147.3298  138.4787  151.0406 H   0  0  0  0  0  0  0  0  0  0  0  0
  147.4059  140.2140  151.2800 H   0  0  0  0  0  0  0  0  0  0  0  0
  145.8497  139.4234  151.0357 H   0  0  0  0  0  0  0  0  0  0  0  0
  147.9593  141.6077  153.4537 H   0  0  0  0  0  0  0  0  0  0  0  0
  146.8698  141.6032  152.0808 H   0  0  0  0  0  0  0  0  0  0  0  0
  146.7239  143.7525  153.3347 H   0  0  0  0  0  0  0  0  0  0  0  0
  145.1924  142.9115  153.3094 H   0  0  0  0  0  0  0  0  0  0  0  0
  147.1890  142.9647  155.6232 H   0  0  0  0  0  0  0  0  0  0  0  0
  145.6240  143.7450  155.5868 H   0  0  0  0  0  0  0  0  0  0  0  0
  144.4893  141.5567  155.4218 H   0  0  0  0  0  0  0  0  0  0  0  0
  146.5142  141.5729  157.7105 H   0  0  0  0  0  0  0  0  0  0  0  0
  145.0116  140.6546  157.6706 H   0  0  0  0  0  0  0  0  0  0  0  0
  144.9656  142.4129  157.7000 H   0  0  0  0  0  0  0  0  0  0  0  0
  145.7541  139.4451  155.5468 H   0  0  0  0  0  0  0  0  0  0  0  0
  147.2730  140.3186  155.5598 H   0  0  0  0  0  0  0  0  0  0  0  0
  144.3840  134.3885  150.4901 H   0  0  0  0  0  0  0  0  0  0  0  0
  143.4688  133.9989  151.9623 H   0  0  0  0  0  0  0  0  0  0  0  0
  143.3253  132.9665  150.5245 H   0  0  0  0  0  0  0  0  0  0  0  0
  145.2782  140.4678  153.4303 H   0  0  0  0  0  0  0  0  0  0  0  0
  1  2  1  0  0  0  0
  1 22  1  0  0  0  0
  1 23  1  0  0  0  0
  1 24  1  0  0  0  0
  2 21  2  0  0  0  0
  2  3  1  0  0  0  0
  3  4  2  0  0  0  0
  3 25  1  0  0  0  0
  4  5  1  0  0  0  0
  4 19  1  0  0  0  0
  5  6  1  0  0  0  0
  5 26  1  0  0  0  0
  6  7  2  0  0  0  0
  6  8  1  0  0  0  0
  8  9  1  0  0  0  0
  8 27  1  0  0  0  0
  9 10  1  0  0  0  0
  9 28  1  0  0  0  0
  9 29  1  0  0  0  0
 10 11  1  0  0  0  0
 10 12  1  0  0  0  0
 10 30  1  0  0  0  0
 11 31  1  0  0  0  0
 11 32  1  0  0  0  0
 11 33  1  0  0  0  0
 12 18  1  0  0  0  0
 12 13  1  0  0  0  0
 12 49  1  0  0  0  0
 13 14  1  0  0  0  0
 13 34  1  0  0  0  0
 13 35  1  0  0  0  0
 14 15  1  0  0  0  0
 14 36  1  0  0  0  0
 14 37  1  0  0  0  0
 15 16  1  0  0  0  0
 15 38  1  0  0  0  0
 15 39  1  0  0  0  0
 16 17  1  0  0  0  0
 16 18  1  0  0  0  0
 16 40  1  0  0  0  0
 17 41  1  0  0  0  0
 17 42  1  0  0  0  0
 17 43  1  0  0  0  0
 18 44  1  0  0  0  0
 18 45  1  0  0  0  0
 19 20  1  0  0  0  0
 19 21  1  0  0  0  0
 20 46  1  0  0  0  0
 20 47  1  0  0  0  0
 20 48  1  0  0  0  0
M  CHG  1  12   1
M  END
> <s_m_source_file>
AV-unprocessed.smi

> <i_m_source_file_index>
1205

> <i_lp_mmshare_version>
43012

> <i_f3d_flags>
0

> <s_epik_input>
W0NIM11jMVtjSF1jKG4objEpW0NIM10pW05IXUMoPU8pW05IXVtDSDJdW0NASF0oW0NIM10pTjJbQ0gyXVtDSDJdW0NIMl1bQ0BASF0oW0NIM10pW0NIMl0y

> <s_epik_cmdline>
J2VwaWtfcHl0aG9uJywgJy1waCcsICc3LjAnLCAnLXRuJywgJzgnLCAnLW1hJywgJzIwMCcsICctbWV0YWxfYmluZGluZycsICctaW1hZScsICc8aW5maWxlLm1hZT4nLCAnLW9tYWUnLCAnPG91dGZpbGUubWFlPic=

> <r_lp_tautomer_probability>
1

> <r_epik_Ionization_Penalty>
0.0020309

> <r_epik_Ionization_Penalty_Charging>
0.00195276

> <r_epik_Ionization_Penalty_Neutral>
7.81448e-05

> <r_epik_State_Penalty>
0.00133177

> <r_epik_Charging_Adjusted_Penalty>
0.00328452

> <i_epik_Tot_Q>
1

> <i_epik_Tot_abs_Q>
1

> <r_epik_Metal_State_Penalty>
-0

> <b_epik_Metal_Only>
0

> <s_lp_Force_Field>
OPLS_2005

> <r_lp_Energy>
21.2667

> <b_lp_Chiralities_Consistent>
1

> <s_lp_Variant>
AV-unprocessed.smi:1205-8

> <Gold.Version>
5.8.1

> <Gold.Id.Protein>
6NUR|6NUR_protein|mol2

> <Gold.PLP.Fitness>
43.4847

> <Gold.PLP.PLP>
-32.5161

> <Gold.PLP.part.hbond>
-3.0000

> <Gold.PLP.part.metal>
0.0000

> <Gold.PLP.part.buried>
-2.3210

> <Gold.PLP.part.nonpolar>
-26.7185

> <Gold.PLP.part.repulsive>
0.2214

> <Gold.PLP.ligand.clash>
0.0000

> <Gold.PLP.ligand.torsion>
0.5826

> <Gold.PLP.Chemscore.Hbond>
4.0000

> <Gold.PLP.Chemscore.CHOScore>
0.0000

> <Gold.PLP.Chemscore.Metal>
0.0000

> <Gold.Chemscore.Hbonds>
donor molecule, donor type, donor heavy atom, donor atom, acceptor molecule, acceptor atom, score
      L1  H     5    26       P1  7948  1.00
      L1  H     8    27       P1  7948  1.00
      L1  H    12    49       P1 10175  2.00

> <Gold.PLP.Chemscore.Internal.Correction>
0.1337

> <Gold.Rescore>
     Score         DG    S(hbond)    S(metal)    S(lipo)     H(rot)  DE(clash)    DE(int)     intcor
     17.60     -19.83       2.87        0.00      72.70       1.47       0.38       1.85       ----

> <Gold.Chemscore.Fitness>
17.6038

> <Gold.Chemscore.DG>
-19.8314

> <Gold.Chemscore.ZeroCoef>
-5.4800

> <Gold.Chemscore.Hbond>
2.8737

> <Gold.Chemscore.Metal>
0.0000

> <Gold.Chemscore.Lipo>
72.6981

> <Gold.Chemscore.Internal_Hbond>
0.0000

> <Gold.Chemscore.DEClash>
0.3817

> <Gold.Chemscore.DEInternal>
1.8459

> <Gold.Chemscore.Rot>
1.4658

> <Gold.Chemscore.Internal.Correction>
   9.000000E+99

> <Gold.Chemscore.Hbonds>
donor molecule, donor type, donor heavy atom, donor atom, acceptor molecule, acceptor atom, score
      L1  H     5    26       P1  7948  0.73
      L1  H     8    27       P1  7948  1.00
      L1  H    12    49       P1 10175  0.98

> <Gold.Chemscore.Hbond.Weighted>
-9.5983

> <Gold.Chemscore.Metal.Weighted>
-0.0000

> <Gold.Chemscore.Lipo.Weighted>
-8.5057

> <Gold.Chemscore.Internal_Hbond.Weighted>
0.0000

> <Gold.Chemscore.DEClash.Weighted>
0.3817

> <Gold.Chemscore.DEInternal.Weighted>
1.8459

> <Gold.Chemscore.Rot.Weighted>
3.7526

> <Gold.Chemscore.Internal.Correction.Weighted>
   9.000000E+99

> <Gold.Protein.RotatedTorsions>
[ 6907 6896 6895 6894 ] final   26.41 input  -60.11 | X-H torsion
[ 7974 7965 7964 7962 ] final  113.51 input  175.53 | X-H torsion
[ 8008 7997 7996 7995 ] final   81.52 input   59.86 | X-H torsion
[ 10167 10162 10161 10158 ] final -111.09 input  -65.29 | X-H torsion
[ 10718 10713 10712 10709 ] final  -14.94 input   66.30 | X-H torsion
[ 10763 10752 10751 10750 ] final -131.38 input  -60.55 | X-H torsion
[ 11005 11000 10999 10996 ] final   34.41 input  -57.11 | X-H torsion

> <Gold.Protein.ActiveResidues>
 VAL166  LYS551  ARG553  GLY616  TRP617  ASP618  TYR619  PRO620  LYS621  CYS622 
 ASP623  PHE694  ASN695  SER759  ASP760  ASP761  ALA762  ILE779  LEU786  VAL792 
 PHE793  MET794  SER795  GLU796  ALA797  LYS798  CYS799  TRP800  GLU811  SER814 

> <Gold.Protein.RotatedAtoms>
  151.9870  134.9999  160.0559 H   0  0  0  0  0  0  0  0  0  0  0  0  # atno 6907 bound_to 6896
  152.1643  133.4597  159.4885 H   0  0  0  0  0  0  0  0  0  0  0  0  # atno 6908 bound_to 6896
  150.6892  134.1950  159.4343 H   0  0  0  0  0  0  0  0  0  0  0  0  # atno 6909 bound_to 6896
  145.2160  139.2884  143.4243 H   0  0  0  0  0  0  0  0  0  0  0  0  # atno 7974 bound_to 7965
  155.8983  140.3435  155.6007 H   0  0  0  0  0  0  0  0  0  0  0  0  # atno 8008 bound_to 7997
  155.7530  140.0822  157.2211 H   0  0  0  0  0  0  0  0  0  0  0  0  # atno 8009 bound_to 7997
  154.4041  140.1550  156.2733 H   0  0  0  0  0  0  0  0  0  0  0  0  # atno 8010 bound_to 7997
  140.1374  143.4308  152.1586 H   0  0  0  0  0  0  0  0  0  0  0  0  # atno 10167 bound_to 10162
  156.6089  130.4844  149.6209 H   0  0  0  0  0  0  0  0  0  0  0  0  # atno 10718 bound_to 10713
  154.8751  135.3832  154.4237 H   0  0  0  0  0  0  0  0  0  0  0  0  # atno 10763 bound_to 10752
  153.4938  135.7030  153.5874 H   0  0  0  0  0  0  0  0  0  0  0  0  # atno 10764 bound_to 10752
  153.4236  135.3895  155.2093 H   0  0  0  0  0  0  0  0  0  0  0  0  # atno 10765 bound_to 10752
  140.2532  134.3279  155.7883 H   0  0  0  0  0  0  0  0  0  0  0  0  # atno 11005 bound_to 11000
  146.3387  140.2451  142.8597 LP  0  0  0  0  0  0  0  0  0  0  0  0  # atno 17320 bound_to 7965
  144.9810  140.8459  143.5397 LP  0  0  0  0  0  0  0  0  0  0  0  0  # atno 17321 bound_to 7965
  139.5489  144.7321  151.4496 LP  0  0  0  0  0  0  0  0  0  0  0  0  # atno 17342 bound_to 10162
  140.6781  143.8144  150.7085 LP  0  0  0  0  0  0  0  0  0  0  0  0  # atno 17343 bound_to 10162
  156.2406  130.6849  151.1552 LP  0  0  0  0  0  0  0  0  0  0  0  0  # atno 17370 bound_to 10713
  157.7259  131.0649  150.5930 LP  0  0  0  0  0  0  0  0  0  0  0  0  # atno 17371 bound_to 10713
  141.2199  133.7365  156.9069 LP  0  0  0  0  0  0  0  0  0  0  0  0  # atno 17394 bound_to 11000
  140.1538  134.9212  157.2626 LP  0  0  0  0  0  0  0  0  0  0  0  0  # atno 17395 bound_to 11000

$$$$
