AV-unprocessed.smi:183|AV-procd|sdf|1459|dock5
  -GOLD-   2262019263D 1   1.00000     0.00000
 Structure written by MMmdl.
 55 57  0  0  0  0  0  0  0  0  1 V2000
  148.1210  136.4439  161.6140 C   0  0  0  0  0  0  0  0  0  0  0  0
  147.5049  136.6913  160.2414 C   0  0  0  0  0  0  0  0  0  0  0  0
  146.3903  137.2046  160.1475 O   0  0  0  0  0  0  0  0  0  0  0  0
  148.2435  136.3217  159.1845 N   0  0  0  0  0  0  0  0  0  0  0  0
  147.8378  136.4651  157.7929 C   0  0  0  0  0  0  0  0  0  0  0  0
  148.7349  137.4752  157.0500 C   0  0  0  0  0  0  0  0  0  0  0  0
  148.4142  137.6064  155.6257 N   0  0  0  0  0  0  0  0  0  0  0  0
  148.5162  136.4165  154.9840 C   0  0  0  0  0  0  0  0  0  0  0  0
  149.7671  135.9586  154.7269 N   0  0  0  0  0  0  0  0  0  0  0  0
  149.9377  134.7979  154.0871 C   0  0  0  0  0  0  0  0  0  0  0  0
  149.0120  133.9578  153.6202 N   0  0  0  0  0  0  0  0  0  0  0  0
  147.7529  134.4197  153.8679 C   0  0  0  0  0  0  0  0  0  0  0  0
  147.4155  135.6300  154.5365 C   0  0  0  0  0  0  0  0  0  0  0  0
  146.0333  135.7712  154.5878 N   0  0  0  0  0  0  0  0  0  0  0  0
  145.5808  134.7049  153.9878 C   0  0  0  0  0  0  0  0  0  0  0  0
  146.5447  133.8347  153.5318 N   0  0  0  0  0  0  0  0  0  0  0  0
  146.3242  132.5768  152.8359 C   0  0  0  0  0  0  0  0  0  0  0  0
  146.0639  132.7502  151.3207 C   0  0  1  0  0  0  0  0  0  0  0  0
  147.2251  133.3031  150.7219 O   0  0  0  0  0  0  0  0  0  0  0  0
  145.7234  131.4546  150.5982 C   0  0  0  0  0  0  0  0  0  0  0  0
  144.9438  131.9476  149.3862 C   0  0  0  0  0  0  0  0  0  0  0  0
  144.1864  133.0471  149.8724 O   0  0  0  0  0  0  0  0  0  0  0  0
  144.8208  133.6172  151.0168 C   0  0  2  0  0  0  0  0  0  0  0  0
  145.0637  135.1213  150.8126 C   0  0  0  0  0  0  0  0  0  0  0  0
  148.8070  138.8199  154.8882 C   0  0  0  0  0  0  0  0  0  0  0  0
  147.7389  139.2349  153.8586 C   0  0  0  0  0  0  0  0  0  0  0  0
  150.1595  138.6567  154.1608 C   0  0  0  0  0  0  0  0  0  0  0  0
  148.9650  137.1149  161.7761 H   0  0  0  0  0  0  0  0  0  0  0  0
  148.4744  135.4158  161.6964 H   0  0  0  0  0  0  0  0  0  0  0  0
  147.3896  136.6165  162.4042 H   0  0  0  0  0  0  0  0  0  0  0  0
  149.1483  135.9080  159.3569 H   0  0  0  0  0  0  0  0  0  0  0  0
  147.9015  135.4827  157.3258 H   0  0  0  0  0  0  0  0  0  0  0  0
  146.7900  136.7637  157.7466 H   0  0  0  0  0  0  0  0  0  0  0  0
  148.6566  138.4518  157.5307 H   0  0  0  0  0  0  0  0  0  0  0  0
  149.7817  137.1918  157.1552 H   0  0  0  0  0  0  0  0  0  0  0  0
  150.9630  134.5008  153.9242 H   0  0  0  0  0  0  0  0  0  0  0  0
  144.5237  134.5210  153.8638 H   0  0  0  0  0  0  0  0  0  0  0  0
  147.1993  131.9464  152.9997 H   0  0  0  0  0  0  0  0  0  0  0  0
  145.4860  132.0612  153.3065 H   0  0  0  0  0  0  0  0  0  0  0  0
  147.7349  132.5992  150.3512 H   0  0  0  0  0  0  0  0  0  0  0  0
  146.5956  130.8558  150.3321 H   0  0  0  0  0  0  0  0  0  0  0  0
  145.0699  130.8387  151.2173 H   0  0  0  0  0  0  0  0  0  0  0  0
  145.6232  132.2998  148.6088 H   0  0  0  0  0  0  0  0  0  0  0  0
  144.3030  131.1782  148.9553 H   0  0  0  0  0  0  0  0  0  0  0  0
  144.1053  133.4987  151.8317 H   0  0  0  0  0  0  0  0  0  0  0  0
  145.5630  135.5584  151.6774 H   0  0  0  0  0  0  0  0  0  0  0  0
  144.1196  135.6483  150.6733 H   0  0  0  0  0  0  0  0  0  0  0  0
  145.6781  135.3146  149.9331 H   0  0  0  0  0  0  0  0  0  0  0  0
  148.9054  139.6376  155.6020 H   0  0  0  0  0  0  0  0  0  0  0  0
  148.0651  140.1022  153.2841 H   0  0  0  0  0  0  0  0  0  0  0  0
  146.7997  139.5133  154.3363 H   0  0  0  0  0  0  0  0  0  0  0  0
  147.5331  138.4294  153.1530 H   0  0  0  0  0  0  0  0  0  0  0  0
  150.4064  139.5528  153.5908 H   0  0  0  0  0  0  0  0  0  0  0  0
  150.1327  137.8196  153.4625 H   0  0  0  0  0  0  0  0  0  0  0  0
  150.9872  138.4889  154.8491 H   0  0  0  0  0  0  0  0  0  0  0  0
  1  2  1  0  0  0  0
  1 28  1  0  0  0  0
  1 29  1  0  0  0  0
  1 30  1  0  0  0  0
  2  3  2  0  0  0  0
  2  4  1  0  0  0  0
  4  5  1  0  0  0  0
  4 31  1  0  0  0  0
  5  6  1  0  0  0  0
  5 32  1  0  0  0  0
  5 33  1  0  0  0  0
  6  7  1  0  0  0  0
  6 34  1  0  0  0  0
  6 35  1  0  0  0  0
  7  8  1  0  0  0  0
  7 25  1  0  0  0  0
  8 13  1  0  0  0  0
  8  9  2  0  0  0  0
  9 10  1  0  0  0  0
 10 11  2  0  0  0  0
 10 36  1  0  0  0  0
 11 12  1  0  0  0  0
 12 16  1  0  0  0  0
 12 13  2  0  0  0  0
 13 14  1  0  0  0  0
 14 15  2  0  0  0  0
 15 16  1  0  0  0  0
 15 37  1  0  0  0  0
 16 17  1  0  0  0  0
 17 18  1  0  0  0  0
 17 38  1  0  0  0  0
 17 39  1  0  0  0  0
 18 23  1  0  0  0  0
 18 19  1  0  0  0  0
 18 20  1  0  0  0  0
 19 40  1  0  0  0  0
 20 21  1  0  0  0  0
 20 41  1  0  0  0  0
 20 42  1  0  0  0  0
 21 22  1  0  0  0  0
 21 43  1  0  0  0  0
 21 44  1  0  0  0  0
 22 23  1  0  0  0  0
 23 24  1  0  0  0  0
 23 45  1  0  0  0  0
 24 46  1  0  0  0  0
 24 47  1  0  0  0  0
 24 48  1  0  0  0  0
 25 26  1  0  0  0  0
 25 27  1  0  0  0  0
 25 49  1  0  0  0  0
 26 50  1  0  0  0  0
 26 51  1  0  0  0  0
 26 52  1  0  0  0  0
 27 53  1  0  0  0  0
 27 54  1  0  0  0  0
 27 55  1  0  0  0  0
M  END
> <s_m_source_file>
AV-unprocessed.smi

> <i_m_source_file_index>
183

> <i_lp_mmshare_version>
43012

> <i_f3d_flags>
0

> <s_epik_input>
W0NIM11DKD1PKVtOSF1bQ0gyXVtDSDJdTihbQ0hdKFtDSDNdKVtDSDNdKWMobltjSF1uMSljKGMxMiluW2NIXW4yW0NIMl1bQ0BAXTMoW09IXSlbQ0gyXVtDSDJdT1tDQEhdM1tDSDNd

> <s_epik_cmdline>
J2VwaWtfcHl0aG9uJywgJy1waCcsICc3LjAnLCAnLXRuJywgJzgnLCAnLW1hJywgJzIwMCcsICctbWV0YWxfYmluZGluZycsICctaW1hZScsICc8aW5maWxlLm1hZT4nLCAnLW9tYWUnLCAnPG91dGZpbGUubWFlPic=

> <r_lp_tautomer_probability>
1

> <r_epik_Ionization_Penalty>
0.00156158

> <r_epik_Ionization_Penalty_Charging>
0

> <r_epik_Ionization_Penalty_Neutral>
0.00156158

> <r_epik_State_Penalty>
0.000865808

> <r_epik_Charging_Adjusted_Penalty>
0.000865808

> <i_epik_Tot_Q>
0

> <i_epik_Tot_abs_Q>
0

> <r_epik_Metal_State_Penalty>
-0

> <b_epik_Metal_Only>
0

> <s_lp_Force_Field>
OPLS_2005

> <r_lp_Energy>
29.9876

> <b_lp_Chiralities_Consistent>
1

> <s_lp_Variant>
AV-unprocessed.smi:183-3

> <Gold.Version>
5.8.1

> <Gold.Id.Protein>
6NUR|6NUR_protein|mol2

> <Gold.PLP.Fitness>
39.7178

> <Gold.PLP.PLP>
-35.2731

> <Gold.PLP.part.hbond>
-2.0000

> <Gold.PLP.part.metal>
0.0000

> <Gold.PLP.part.buried>
-7.5527

> <Gold.PLP.part.nonpolar>
-26.4668

> <Gold.PLP.part.repulsive>
0.6853

> <Gold.PLP.ligand.clash>
0.0000

> <Gold.PLP.ligand.torsion>
1.3194

> <Gold.PLP.Chemscore.Hbond>
2.0000

> <Gold.PLP.Chemscore.CHOScore>
0.0000

> <Gold.PLP.Chemscore.Metal>
0.0000

> <Gold.Chemscore.Hbonds>
donor molecule, donor type, donor heavy atom, donor atom, acceptor molecule, acceptor atom, score
      L1  H    19    40       P1 10747  0.76
      P1  H  6934  6947       L1     3  0.39
      L1  C    10    36       P1  7949  0.04

> <Gold.PLP.Chemscore.Internal.Correction>
1.0835

> <Gold.Rescore>
     Score         DG    S(hbond)    S(metal)    S(lipo)     H(rot)  DE(clash)    DE(int)     intcor
      5.85      -8.58       0.99        0.00      73.62       3.45       0.13       2.59       ----

> <Gold.Chemscore.Fitness>
5.8539

> <Gold.Chemscore.DG>
-8.5762

> <Gold.Chemscore.ZeroCoef>
-5.4800

> <Gold.Chemscore.Hbond>
0.9888

> <Gold.Chemscore.Metal>
0.0000

> <Gold.Chemscore.Lipo>
73.6155

> <Gold.Chemscore.Internal_Hbond>
0.0000

> <Gold.Chemscore.DEClash>
0.1321

> <Gold.Chemscore.DEInternal>
2.5902

> <Gold.Chemscore.Rot>
3.4451

> <Gold.Chemscore.Internal.Correction>
   9.000000E+99

> <Gold.Chemscore.Hbonds>
donor molecule, donor type, donor heavy atom, donor atom, acceptor molecule, acceptor atom, score
      L1  H    19    40       P1 10747  0.74
      P1  H  6934  6947       L1     3  0.02

> <Gold.Chemscore.Hbond.Weighted>
-3.3026

> <Gold.Chemscore.Metal.Weighted>
-0.0000

> <Gold.Chemscore.Lipo.Weighted>
-8.6130

> <Gold.Chemscore.Internal_Hbond.Weighted>
0.0000

> <Gold.Chemscore.DEClash.Weighted>
0.1321

> <Gold.Chemscore.DEInternal.Weighted>
2.5902

> <Gold.Chemscore.Rot.Weighted>
8.8194

> <Gold.Chemscore.Internal.Correction.Weighted>
   9.000000E+99

> <Gold.Protein.RotatedTorsions>
[ 6907 6896 6895 6894 ] final   73.33 input  -60.11 | X-H torsion
[ 7974 7965 7964 7962 ] final   34.34 input  175.53 | X-H torsion
[ 8008 7997 7996 7995 ] final -133.41 input   59.86 | X-H torsion
[ 10167 10162 10161 10158 ] final  -34.52 input  -65.29 | X-H torsion
[ 10718 10713 10712 10709 ] final -141.14 input   66.30 | X-H torsion
[ 10763 10752 10751 10750 ] final   78.45 input  -60.55 | X-H torsion
[ 11005 11000 10999 10996 ] final    5.37 input  -57.11 | X-H torsion

> <Gold.Protein.ActiveResidues>
 VAL166  LYS551  ARG553  GLY616  TRP617  ASP618  TYR619  PRO620  LYS621  CYS622 
 ASP623  PHE694  ASN695  SER759  ASP760  ASP761  ALA762  ILE779  LEU786  VAL792 
 PHE793  MET794  SER795  GLU796  ALA797  LYS798  CYS799  TRP800  GLU811  SER814 

> <Gold.Protein.RotatedAtoms>
  152.4917  134.4438  159.9551 H   0  0  0  0  0  0  0  0  0  0  0  0  # atno 6907 bound_to 6896
  151.4424  133.3634  159.2791 H   0  0  0  0  0  0  0  0  0  0  0  0  # atno 6908 bound_to 6896
  150.9079  134.8518  159.7465 H   0  0  0  0  0  0  0  0  0  0  0  0  # atno 6909 bound_to 6896
  146.1360  139.6282  142.9195 H   0  0  0  0  0  0  0  0  0  0  0  0  # atno 7974 bound_to 7965
  155.3451  140.0474  157.3045 H   0  0  0  0  0  0  0  0  0  0  0  0  # atno 8008 bound_to 7997
  154.5257  140.2240  155.8859 H   0  0  0  0  0  0  0  0  0  0  0  0  # atno 8009 bound_to 7997
  156.1736  140.3090  155.9025 H   0  0  0  0  0  0  0  0  0  0  0  0  # atno 8010 bound_to 7997
  140.7184  143.3542  151.2094 H   0  0  0  0  0  0  0  0  0  0  0  0  # atno 10167 bound_to 10162
  156.3305  130.7583  151.1700 H   0  0  0  0  0  0  0  0  0  0  0  0  # atno 10718 bound_to 10713
  153.0875  135.4876  154.8626 H   0  0  0  0  0  0  0  0  0  0  0  0  # atno 10763 bound_to 10752
  154.7229  135.3043  154.9021 H   0  0  0  0  0  0  0  0  0  0  0  0  # atno 10764 bound_to 10752
  153.9680  135.6804  153.4799 H   0  0  0  0  0  0  0  0  0  0  0  0  # atno 10765 bound_to 10752
  140.5715  134.0098  155.8010 H   0  0  0  0  0  0  0  0  0  0  0  0  # atno 11005 bound_to 11000
  145.5156  141.0434  143.2464 LP  0  0  0  0  0  0  0  0  0  0  0  0  # atno 17320 bound_to 7965
  144.7740  139.6671  143.7183 LP  0  0  0  0  0  0  0  0  0  0  0  0  # atno 17321 bound_to 7965
  139.7079  143.9424  152.2935 LP  0  0  0  0  0  0  0  0  0  0  0  0  # atno 17342 bound_to 10162
  139.9140  144.6840  150.8532 LP  0  0  0  0  0  0  0  0  0  0  0  0  # atno 17343 bound_to 10162
  157.7429  131.0482  150.4986 LP  0  0  0  0  0  0  0  0  0  0  0  0  # atno 17370 bound_to 10713
  156.5151  130.4148  149.6280 LP  0  0  0  0  0  0  0  0  0  0  0  0  # atno 17371 bound_to 10713
  141.1053  133.9703  157.3007 LP  0  0  0  0  0  0  0  0  0  0  0  0  # atno 17394 bound_to 11000
  139.9360  135.0196  156.8556 LP  0  0  0  0  0  0  0  0  0  0  0  0  # atno 17395 bound_to 11000

$$$$
