AV-unprocessed.smi:2335|AV-procd|sdf|9325|dock2
  -GOLD-   2272012543D 1   1.00000     0.00000
 Structure written by MMmdl.
 41 42  0  0  0  0  0  0  0  0  2 V2000
  145.6213  134.4112  162.4048 C   0  0  0  0  0  0  0  0  0  0  0  0
  145.9194  135.9026  162.2165 C   0  0  0  0  0  0  0  0  0  0  0  0
  146.9824  136.1495  161.1988 C   0  0  0  0  0  0  0  0  0  0  0  0
  147.3657  137.3758  160.8337 N   0  0  0  0  0  0  0  0  0  0  0  0
  148.3424  137.3468  159.8489 N   0  0  0  0  0  0  0  0  0  0  0  0
  148.6784  136.1029  159.4786 C   0  0  0  0  0  0  0  0  0  0  0  0
  149.5966  135.8548  158.5304 N   0  5  0  0  0  0  0  0  0  0  0  0
  150.4169  136.8436  158.1088 C   0  0  0  0  0  0  0  0  0  0  0  0
  151.6314  136.9196  158.3075 O   0  0  0  0  0  0  0  0  0  0  0  0
  149.7902  137.7983  157.4079 N   0  0  0  0  0  0  0  0  0  0  0  0
  150.4151  138.9715  156.7999 C   0  0  2  0  0  0  0  0  0  0  0  0
  149.4203  140.1025  156.6323 C   0  0  0  0  0  0  0  0  0  0  0  0
  150.0337  140.9415  155.5056 C   0  0  0  0  0  0  0  0  0  0  0  0
  148.9644  141.5652  154.5958 C   0  0  0  0  0  0  0  0  0  0  0  0
  150.9937  142.0157  156.0450 C   0  0  0  0  0  0  0  0  0  0  0  0
  150.8090  140.0277  154.7316 O   0  0  0  0  0  0  0  0  0  0  0  0
  150.9063  138.7455  155.3521 C   0  0  0  0  0  0  0  0  0  0  0  0
  152.3788  138.3092  155.2926 C   0  0  0  0  0  0  0  0  0  0  0  0
  150.0219  137.7911  154.5226 C   0  0  0  0  0  0  0  0  0  0  0  0
  147.7790  134.8482  160.3304 S   0  0  0  0  0  0  0  0  0  0  0  0
  144.8443  134.2618  163.1544 H   0  0  0  0  0  0  0  0  0  0  0  0
  146.5100  133.8715  162.7329 H   0  0  0  0  0  0  0  0  0  0  0  0
  145.2785  133.9590  161.4735 H   0  0  0  0  0  0  0  0  0  0  0  0
  145.0131  136.4292  161.9158 H   0  0  0  0  0  0  0  0  0  0  0  0
  146.2350  136.3408  163.1637 H   0  0  0  0  0  0  0  0  0  0  0  0
  148.7954  137.6925  157.2735 H   0  0  0  0  0  0  0  0  0  0  0  0
  151.2337  139.3321  157.4256 H   0  0  0  0  0  0  0  0  0  0  0  0
  148.4527  139.7035  156.3225 H   0  0  0  0  0  0  0  0  0  0  0  0
  149.2609  140.6672  157.5515 H   0  0  0  0  0  0  0  0  0  0  0  0
  148.3290  142.2562  155.1505 H   0  0  0  0  0  0  0  0  0  0  0  0
  148.3223  140.7998  154.1586 H   0  0  0  0  0  0  0  0  0  0  0  0
  149.4206  142.1175  153.7740 H   0  0  0  0  0  0  0  0  0  0  0  0
  150.4669  142.7381  156.6693 H   0  0  0  0  0  0  0  0  0  0  0  0
  151.4671  142.5643  155.2302 H   0  0  0  0  0  0  0  0  0  0  0  0
  151.7894  141.5760  156.6470 H   0  0  0  0  0  0  0  0  0  0  0  0
  152.5180  137.3218  155.7327 H   0  0  0  0  0  0  0  0  0  0  0  0
  153.0208  139.0076  155.8302 H   0  0  0  0  0  0  0  0  0  0  0  0
  152.7336  138.2634  154.2628 H   0  0  0  0  0  0  0  0  0  0  0  0
  150.0723  136.7687  154.8987 H   0  0  0  0  0  0  0  0  0  0  0  0
  150.3428  137.7691  153.4809 H   0  0  0  0  0  0  0  0  0  0  0  0
  148.9763  138.0990  154.5348 H   0  0  0  0  0  0  0  0  0  0  0  0
  1  2  1  0  0  0  0
  1 21  1  0  0  0  0
  1 22  1  0  0  0  0
  1 23  1  0  0  0  0
  2  3  1  0  0  0  0
  2 24  1  0  0  0  0
  2 25  1  0  0  0  0
  3 20  1  0  0  0  0
  3  4  2  0  0  0  0
  4  5  1  0  0  0  0
  5  6  2  0  0  0  0
  6  7  1  0  0  0  0
  6 20  1  0  0  0  0
  7  8  1  0  0  0  0
  8  9  2  0  0  0  0
  8 10  1  0  0  0  0
 10 11  1  0  0  0  0
 10 26  1  0  0  0  0
 11 17  1  0  0  0  0
 11 12  1  0  0  0  0
 11 27  1  0  0  0  0
 12 13  1  0  0  0  0
 12 28  1  0  0  0  0
 12 29  1  0  0  0  0
 13 14  1  0  0  0  0
 13 15  1  0  0  0  0
 13 16  1  0  0  0  0
 14 30  1  0  0  0  0
 14 31  1  0  0  0  0
 14 32  1  0  0  0  0
 15 33  1  0  0  0  0
 15 34  1  0  0  0  0
 15 35  1  0  0  0  0
 16 17  1  0  0  0  0
 17 18  1  0  0  0  0
 17 19  1  0  0  0  0
 18 36  1  0  0  0  0
 18 37  1  0  0  0  0
 18 38  1  0  0  0  0
 19 39  1  0  0  0  0
 19 40  1  0  0  0  0
 19 41  1  0  0  0  0
M  CHG  1   7  -1
M  END
> <s_m_source_file>
AV-unprocessed.smi

> <i_m_source_file_index>
2335

> <i_lp_mmshare_version>
43012

> <i_f3d_flags>
0

> <s_epik_input>
W0NIM11bQ0gyXWMxbm5jKHMxKVtOSF1DKD1PKVtOSF1bQ0BASF0oQyhPMikoW0NIM10pW0NIM10pW0NIMl1DMihbQ0gzXSlbQ0gzXQ==

> <s_epik_cmdline>
J2VwaWtfcHl0aG9uJywgJy1waCcsICc3LjAnLCAnLXRuJywgJzgnLCAnLW1hJywgJzIwMCcsICctbWV0YWxfYmluZGluZycsICctaW1hZScsICc8aW5maWxlLm1hZT4nLCAnLW9tYWUnLCAnPG91dGZpbGUubWFlPic=

> <r_lp_tautomer_probability>
1

> <r_epik_Ionization_Penalty>
4.33319

> <r_epik_Ionization_Penalty_Charging>
4.17028

> <r_epik_Ionization_Penalty_Neutral>
0.162913

> <r_epik_State_Penalty>
4.16976

> <r_epik_Charging_Adjusted_Penalty>
8.34004

> <i_epik_Tot_Q>
-1

> <i_epik_Tot_abs_Q>
1

> <r_epik_Metal_State_Penalty>
0.677358

> <b_epik_Metal_Only>
1

> <s_lp_Force_Field>
OPLS_2005

> <r_lp_Energy>
10.6883

> <b_lp_Chiralities_Consistent>
1

> <s_lp_Variant>
AV-unprocessed.smi:2335-3

> <Gold.Version>
5.8.1

> <Gold.Id.Protein>
6NUR|6NUR_protein|mol2

> <Gold.PLP.Fitness>
42.3268

> <Gold.PLP.PLP>
-33.0047

> <Gold.PLP.part.hbond>
-5.8715

> <Gold.PLP.part.metal>
0.0000

> <Gold.PLP.part.buried>
-2.9004

> <Gold.PLP.part.nonpolar>
-23.8214

> <Gold.PLP.part.repulsive>
0.1074

> <Gold.PLP.ligand.clash>
0.0000

> <Gold.PLP.ligand.torsion>
1.0595

> <Gold.PLP.Chemscore.Hbond>
3.8000

> <Gold.PLP.Chemscore.CHOScore>
0.0000

> <Gold.PLP.Chemscore.Metal>
0.0000

> <Gold.Chemscore.Hbonds>
donor molecule, donor type, donor heavy atom, donor atom, acceptor molecule, acceptor atom, score
      P1  H  6896  6909       L1     7  1.70
      P1  H  6934  6947       L1     4  0.90
      P1  H  7989  7998       L1    16  1.00

> <Gold.PLP.Chemscore.Internal.Correction>
0.0411

> <Gold.Rescore>
     Score         DG    S(hbond)    S(metal)    S(lipo)     H(rot)  DE(clash)    DE(int)     intcor
     15.18     -16.53       1.55        0.00      76.31       1.19       0.30       1.05       ----

> <Gold.Chemscore.Fitness>
15.1782

> <Gold.Chemscore.DG>
-16.5288

> <Gold.Chemscore.ZeroCoef>
-5.4800

> <Gold.Chemscore.Hbond>
1.5503

> <Gold.Chemscore.Metal>
0.0000

> <Gold.Chemscore.Lipo>
76.3071

> <Gold.Chemscore.Internal_Hbond>
0.0000

> <Gold.Chemscore.DEClash>
0.2972

> <Gold.Chemscore.DEInternal>
1.0534

> <Gold.Chemscore.Rot>
1.1942

> <Gold.Chemscore.Internal.Correction>
   9.000000E+99

> <Gold.Chemscore.Hbonds>
donor molecule, donor type, donor heavy atom, donor atom, acceptor molecule, acceptor atom, score
      P1  H  6896  6909       L1     7  0.07
      P1  H  6934  6947       L1     4  0.18
      P1  H  7989  7998       L1    16  0.74

> <Gold.Chemscore.Hbond.Weighted>
-5.1782

> <Gold.Chemscore.Metal.Weighted>
-0.0000

> <Gold.Chemscore.Lipo.Weighted>
-8.9279

> <Gold.Chemscore.Internal_Hbond.Weighted>
0.0000

> <Gold.Chemscore.DEClash.Weighted>
0.2972

> <Gold.Chemscore.DEInternal.Weighted>
1.0534

> <Gold.Chemscore.Rot.Weighted>
3.0573

> <Gold.Chemscore.Internal.Correction.Weighted>
   9.000000E+99

> <Gold.Protein.RotatedTorsions>
[ 6907 6896 6895 6894 ] final   56.10 input  -60.11 | X-H torsion
[ 7974 7965 7964 7962 ] final   39.92 input  175.53 | X-H torsion
[ 8008 7997 7996 7995 ] final  127.78 input   59.86 | X-H torsion
[ 10167 10162 10161 10158 ] final -123.35 input  -65.29 | X-H torsion
[ 10718 10713 10712 10709 ] final -146.07 input   66.30 | X-H torsion
[ 10763 10752 10751 10750 ] final  102.49 input  -60.55 | X-H torsion
[ 11005 11000 10999 10996 ] final  173.01 input  -57.11 | X-H torsion

> <Gold.Protein.ActiveResidues>
 VAL166  LYS551  ARG553  GLY616  TRP617  ASP618  TYR619  PRO620  LYS621  CYS622 
 ASP623  PHE694  ASN695  SER759  ASP760  ASP761  ALA762  ILE779  LEU786  VAL792 
 PHE793  MET794  SER795  GLU796  ALA797  LYS798  CYS799  TRP800  GLU811  SER814 

> <Gold.Protein.RotatedAtoms>
  152.3603  134.6881  160.0208 H   0  0  0  0  0  0  0  0  0  0  0  0  # atno 6907 bound_to 6896
  151.7206  133.3309  159.3322 H   0  0  0  0  0  0  0  0  0  0  0  0  # atno 6908 bound_to 6896
  150.7600  134.6385  159.6269 H   0  0  0  0  0  0  0  0  0  0  0  0  # atno 6909 bound_to 6896
  146.0946  139.5595  142.9453 H   0  0  0  0  0  0  0  0  0  0  0  0  # atno 7974 bound_to 7965
  156.2899  140.2660  156.2329 H   0  0  0  0  0  0  0  0  0  0  0  0  # atno 8008 bound_to 7997
  155.0054  140.0387  157.2395 H   0  0  0  0  0  0  0  0  0  0  0  0  # atno 8009 bound_to 7997
  154.7565  140.2753  155.6254 H   0  0  0  0  0  0  0  0  0  0  0  0  # atno 8010 bound_to 7997
  140.0044  143.5507  152.2290 H   0  0  0  0  0  0  0  0  0  0  0  0  # atno 10167 bound_to 10162
  156.3903  130.7882  151.2083 H   0  0  0  0  0  0  0  0  0  0  0  0  # atno 10718 bound_to 10713
  153.3402  135.4009  155.1566 H   0  0  0  0  0  0  0  0  0  0  0  0  # atno 10763 bound_to 10752
  154.8642  135.3632  154.5355 H   0  0  0  0  0  0  0  0  0  0  0  0  # atno 10764 bound_to 10752
  153.5800  135.7077  153.5527 H   0  0  0  0  0  0  0  0  0  0  0  0  # atno 10765 bound_to 10752
  140.3358  134.7318  157.4167 H   0  0  0  0  0  0  0  0  0  0  0  0  # atno 11005 bound_to 11000
  145.5973  141.0361  143.2038 LP  0  0  0  0  0  0  0  0  0  0  0  0  # atno 17320 bound_to 7965
  144.7386  139.7514  143.7320 LP  0  0  0  0  0  0  0  0  0  0  0  0  # atno 17321 bound_to 7965
  139.6249  144.7635  151.2660 LP  0  0  0  0  0  0  0  0  0  0  0  0  # atno 17342 bound_to 10162
  140.7406  143.6582  150.8188 LP  0  0  0  0  0  0  0  0  0  0  0  0  # atno 17343 bound_to 10162
  157.7498  131.0317  150.4196 LP  0  0  0  0  0  0  0  0  0  0  0  0  # atno 17370 bound_to 10713
  156.4456  130.4001  149.6669 LP  0  0  0  0  0  0  0  0  0  0  0  0  # atno 17371 bound_to 10713
  140.0822  134.5716  155.8529 LP  0  0  0  0  0  0  0  0  0  0  0  0  # atno 17394 bound_to 11000
  141.2051  133.6644  156.6163 LP  0  0  0  0  0  0  0  0  0  0  0  0  # atno 17395 bound_to 11000

$$$$
