AV-unprocessed.smi:3071|AV-procd|sdf|11714|dock6
  -GOLD-   2272017113D 1   1.00000     0.00000
 Structure written by MMmdl.
 28 29  0  0  0  0  0  0  0  0  2 V2000
  152.3874  139.1884  155.8041 C   0  0  0  0  0  0  0  0  0  0  0  0
  151.2348  140.1157  155.5893 C   0  0  0  0  0  0  0  0  0  0  0  0
  150.4437  140.0741  154.5222 N   0  0  0  0  0  0  0  0  0  0  0  0
  149.5163  141.0898  154.7269 C   0  0  0  0  0  0  0  0  0  0  0  0
  149.7830  141.7156  155.9204 C   0  0  0  0  0  0  0  0  0  0  0  0
  150.8942  141.0827  156.4642 N   0  0  0  0  0  0  0  0  0  0  0  0
  151.5326  141.4199  157.7265 C   0  0  0  0  0  0  0  0  0  0  0  0
  151.0201  142.7499  158.3098 C   0  0  1  0  0  0  0  0  0  0  0  0
  151.6618  143.1684  159.6363 C   0  0  0  0  0  0  0  0  0  0  0  0
  151.4348  144.6752  159.6593 C   0  0  0  0  0  0  0  0  0  0  0  0
  151.5778  145.0800  158.1896 C   0  0  0  0  0  0  0  0  0  0  0  0
  151.2514  143.8814  157.3900 N   0  3  0  0  0  0  0  0  0  0  0  0
  152.4316  138.4467  155.0058 H   0  0  0  0  0  0  0  0  0  0  0  0
  152.2804  138.6623  156.7530 H   0  0  0  0  0  0  0  0  0  0  0  0
  153.3246  139.7441  155.8083 H   0  0  0  0  0  0  0  0  0  0  0  0
  148.7364  141.2890  154.0065 H   0  0  0  0  0  0  0  0  0  0  0  0
  149.2878  142.5396  156.4130 H   0  0  0  0  0  0  0  0  0  0  0  0
  151.3470  140.6058  158.4287 H   0  0  0  0  0  0  0  0  0  0  0  0
  152.6124  141.4566  157.5794 H   0  0  0  0  0  0  0  0  0  0  0  0
  149.9417  142.6878  158.4618 H   0  0  0  0  0  0  0  0  0  0  0  0
  151.2254  142.6616  160.4975 H   0  0  0  0  0  0  0  0  0  0  0  0
  152.7319  142.9563  159.6256 H   0  0  0  0  0  0  0  0  0  0  0  0
  150.4226  144.8885  160.0063 H   0  0  0  0  0  0  0  0  0  0  0  0
  152.1314  145.2008  160.3133 H   0  0  0  0  0  0  0  0  0  0  0  0
  150.9307  145.9184  157.9296 H   0  0  0  0  0  0  0  0  0  0  0  0
  152.6067  145.3691  157.9728 H   0  0  0  0  0  0  0  0  0  0  0  0
  152.0387  143.6715  156.7930 H   0  0  0  0  0  0  0  0  0  0  0  0
  150.4303  144.0411  156.8238 H   0  0  0  0  0  0  0  0  0  0  0  0
  1  2  1  0  0  0  0
  1 13  1  0  0  0  0
  1 14  1  0  0  0  0
  1 15  1  0  0  0  0
  2  6  1  0  0  0  0
  2  3  2  0  0  0  0
  3  4  1  0  0  0  0
  4  5  2  0  0  0  0
  4 16  1  0  0  0  0
  5  6  1  0  0  0  0
  5 17  1  0  0  0  0
  6  7  1  0  0  0  0
  7  8  1  0  0  0  0
  7 18  1  0  0  0  0
  7 19  1  0  0  0  0
  8 12  1  0  0  0  0
  8  9  1  0  0  0  0
  8 20  1  0  0  0  0
  9 10  1  0  0  0  0
  9 21  1  0  0  0  0
  9 22  1  0  0  0  0
 10 11  1  0  0  0  0
 10 23  1  0  0  0  0
 10 24  1  0  0  0  0
 11 12  1  0  0  0  0
 11 25  1  0  0  0  0
 11 26  1  0  0  0  0
 12 27  1  0  0  0  0
 12 28  1  0  0  0  0
M  CHG  1  12   1
M  END
> <s_m_source_file>
AV-unprocessed.smi

> <i_m_source_file_index>
3071

> <i_lp_mmshare_version>
43012

> <i_f3d_flags>
0

> <s_epik_input>
W0NIM11jMW5bY0hdW2NIXW4xW0NIMl1bQ0BASF0yW0NIMl1bQ0gyXVtDSDJdW05IXTI=

> <s_epik_cmdline>
J2VwaWtfcHl0aG9uJywgJy1waCcsICc3LjAnLCAnLXRuJywgJzgnLCAnLW1hJywgJzIwMCcsICctbWV0YWxfYmluZGluZycsICctaW1hZScsICc8aW5maWxlLm1hZT4nLCAnLW9tYWUnLCAnPG91dGZpbGUubWFlPic=

> <r_lp_tautomer_probability>
1

> <r_epik_Ionization_Penalty>
0.189495

> <r_epik_Ionization_Penalty_Charging>
0.189495

> <r_epik_Ionization_Penalty_Neutral>
1.84445e-13

> <r_epik_State_Penalty>
0.339469

> <r_epik_Charging_Adjusted_Penalty>
0.528964

> <i_epik_Tot_Q>
1

> <i_epik_Tot_abs_Q>
1

> <r_epik_Metal_State_Penalty>
0.000456861

> <b_epik_Metal_Only>
0

> <s_lp_Force_Field>
OPLS_2005

> <r_lp_Energy>
26.6713

> <b_lp_Chiralities_Consistent>
1

> <s_lp_Variant>
AV-unprocessed.smi:3071-2

> <Gold.Version>
5.8.1

> <Gold.Id.Protein>
6NUR|6NUR_protein|mol2

> <Gold.PLP.Fitness>
40.0238

> <Gold.PLP.PLP>
-29.1424

> <Gold.PLP.part.hbond>
-2.0000

> <Gold.PLP.part.metal>
0.0000

> <Gold.PLP.part.buried>
-2.0441

> <Gold.PLP.part.nonpolar>
-24.6874

> <Gold.PLP.part.repulsive>
0.1035

> <Gold.PLP.ligand.clash>
0.0000

> <Gold.PLP.ligand.torsion>
0.1093

> <Gold.PLP.Chemscore.Hbond>
2.7000

> <Gold.PLP.Chemscore.CHOScore>
1.0000

> <Gold.PLP.Chemscore.Metal>
0.0000

> <Gold.Chemscore.Hbonds>
donor molecule, donor type, donor heavy atom, donor atom, acceptor molecule, acceptor atom, score
      L1  H    12    28       P1  8028  2.00
      P1  H  7989  7998       L1     3  0.65
      L1  C     5    17       P1  8028  1.00

> <Gold.PLP.Chemscore.Internal.Correction>
0.0000

> <Gold.Rescore>
     Score         DG    S(hbond)    S(metal)    S(lipo)     H(rot)  DE(clash)    DE(int)     intcor
     13.37     -13.88       0.96        0.00      71.03       1.22       0.38       0.13       ----

> <Gold.Chemscore.Fitness>
13.3745

> <Gold.Chemscore.DG>
-13.8826

> <Gold.Chemscore.ZeroCoef>
-5.4800

> <Gold.Chemscore.Hbond>
0.9623

> <Gold.Chemscore.Metal>
0.0000

> <Gold.Chemscore.Lipo>
71.0294

> <Gold.Chemscore.Internal_Hbond>
0.0000

> <Gold.Chemscore.DEClash>
0.3811

> <Gold.Chemscore.DEInternal>
0.1270

> <Gold.Chemscore.Rot>
1.2194

> <Gold.Chemscore.Internal.Correction>
   9.000000E+99

> <Gold.Chemscore.Hbonds>
donor molecule, donor type, donor heavy atom, donor atom, acceptor molecule, acceptor atom, score
      L1  H    12    28       P1  8028  0.93
      P1  H  7989  7998       L1     3  0.02

> <Gold.Chemscore.Hbond.Weighted>
-3.2139

> <Gold.Chemscore.Metal.Weighted>
-0.0000

> <Gold.Chemscore.Lipo.Weighted>
-8.3104

> <Gold.Chemscore.Internal_Hbond.Weighted>
0.0000

> <Gold.Chemscore.DEClash.Weighted>
0.3811

> <Gold.Chemscore.DEInternal.Weighted>
0.1270

> <Gold.Chemscore.Rot.Weighted>
3.1218

> <Gold.Chemscore.Internal.Correction.Weighted>
   9.000000E+99

> <Gold.Protein.RotatedTorsions>
[ 6907 6896 6895 6894 ] final  -86.56 input  -60.11 | X-H torsion
[ 7974 7965 7964 7962 ] final  -69.31 input  175.53 | X-H torsion
[ 8008 7997 7996 7995 ] final   -9.38 input   59.86 | X-H torsion
[ 10167 10162 10161 10158 ] final   -6.20 input  -65.29 | X-H torsion
[ 10718 10713 10712 10709 ] final  150.91 input   66.30 | X-H torsion
[ 10763 10752 10751 10750 ] final  -23.90 input  -60.55 | X-H torsion
[ 11005 11000 10999 10996 ] final  105.93 input  -57.11 | X-H torsion

> <Gold.Protein.ActiveResidues>
 VAL166  LYS551  ARG553  GLY616  TRP617  ASP618  TYR619  PRO620  LYS621  CYS622 
 ASP623  PHE694  ASN695  SER759  ASP760  ASP761  ALA762  ILE779  LEU786  VAL792 
 PHE793  MET794  SER795  GLU796  ALA797  LYS798  CYS799  TRP800  GLU811  SER814 

> <Gold.Protein.RotatedAtoms>
  150.6867  134.3032  159.4714 H   0  0  0  0  0  0  0  0  0  0  0  0  # atno 6907 bound_to 6896
  152.0925  134.9394  160.0581 H   0  0  0  0  0  0  0  0  0  0  0  0  # atno 6908 bound_to 6896
  152.0705  133.4069  159.4494 H   0  0  0  0  0  0  0  0  0  0  0  0  # atno 6909 bound_to 6896
  145.7053  140.9100  143.0709 H   0  0  0  0  0  0  0  0  0  0  0  0  # atno 7974 bound_to 7965
  154.5652  140.2356  155.8274 H   0  0  0  0  0  0  0  0  0  0  0  0  # atno 8008 bound_to 7997
  156.2063  140.3039  155.9592 H   0  0  0  0  0  0  0  0  0  0  0  0  # atno 8009 bound_to 7997
  155.2814  140.0422  157.3006 H   0  0  0  0  0  0  0  0  0  0  0  0  # atno 8010 bound_to 7997
  140.6989  143.6221  150.8602 H   0  0  0  0  0  0  0  0  0  0  0  0  # atno 10167 bound_to 10162
  157.2775  131.0829  151.1556 H   0  0  0  0  0  0  0  0  0  0  0  0  # atno 10718 bound_to 10713
  153.6751  135.6970  153.5135 H   0  0  0  0  0  0  0  0  0  0  0  0  # atno 10763 bound_to 10752
  153.2527  135.4269  155.0814 H   0  0  0  0  0  0  0  0  0  0  0  0  # atno 10764 bound_to 10752
  154.8416  135.3535  154.6295 H   0  0  0  0  0  0  0  0  0  0  0  0  # atno 10765 bound_to 10752
  139.8808  134.9352  156.5589 H   0  0  0  0  0  0  0  0  0  0  0  0  # atno 11005 bound_to 11000
  144.6957  139.9002  143.7458 LP  0  0  0  0  0  0  0  0  0  0  0  0  # atno 17320 bound_to 7965
  146.0761  139.3749  143.0493 LP  0  0  0  0  0  0  0  0  0  0  0  0  # atno 17321 bound_to 7965
  139.9942  143.5814  152.2899 LP  0  0  0  0  0  0  0  0  0  0  0  0  # atno 17342 bound_to 10162
  139.6480  144.7659  151.2205 LP  0  0  0  0  0  0  0  0  0  0  0  0  # atno 17343 bound_to 10162
  157.3003  130.6839  149.6160 LP  0  0  0  0  0  0  0  0  0  0  0  0  # atno 17370 bound_to 10713
  155.9664  130.4394  150.5257 LP  0  0  0  0  0  0  0  0  0  0  0  0  # atno 17371 bound_to 10713
  140.8184  133.8373  155.8873 LP  0  0  0  0  0  0  0  0  0  0  0  0  # atno 17394 bound_to 11000
  140.9441  134.1863  157.4776 LP  0  0  0  0  0  0  0  0  0  0  0  0  # atno 17395 bound_to 11000

$$$$
