AV-unprocessed.smi:697|AV-procd|sdf|3394|dock10
  -GOLD-   22720 0373D 1   1.00000     0.00000
 Structure written by MMmdl.
 43 44  0  0  0  0  0  0  0  0  2 V2000
  151.9286  138.1732  158.8788 C   0  0  0  0  0  0  0  0  0  0  0  0
  151.8989  138.3313  157.4655 O   0  0  0  0  0  0  0  0  0  0  0  0
  150.6120  138.4400  156.8411 C   0  0  2  0  0  0  0  0  0  0  0  0
  149.8734  139.6874  157.3425 C   0  0  0  0  0  0  0  0  0  0  0  0
  149.8930  137.0774  156.8622 C   0  0  0  0  0  0  0  0  0  0  0  0
  150.6904  136.7196  155.6098 C   0  0  1  0  0  0  0  0  0  0  0  0
  149.9106  135.9466  154.6491 N   0  0  0  0  0  0  0  0  0  0  0  0
  149.5215  134.6782  154.8331 C   0  0  0  0  0  0  0  0  0  0  0  0
  149.7792  134.0357  155.8508 O   0  0  0  0  0  0  0  0  0  0  0  0
  148.8496  134.2255  153.7595 N   0  0  0  0  0  0  0  0  0  0  0  0
  148.2495  132.9734  153.5449 C   0  0  0  0  0  0  0  0  0  0  0  0
  148.8587  131.7732  153.7528 C   0  0  0  0  0  0  0  0  0  0  0  0
  148.1780  130.5038  153.5283 C   0  0  0  0  0  0  0  0  0  0  0  0
  148.7986  129.1502  153.8253 C   0  0  0  0  0  0  0  0  0  0  0  0
  150.0525  129.2820  154.2592 F   0  0  0  0  0  0  0  0  0  0  0  0
  148.0961  128.5262  154.7696 F   0  0  0  0  0  0  0  0  0  0  0  0
  148.8093  128.3797  152.7373 F   0  0  0  0  0  0  0  0  0  0  0  0
  146.8694  130.6757  153.1209 C   0  0  0  0  0  0  0  0  0  0  0  0
  146.1954  131.8225  152.8844 N   0  5  0  0  0  0  0  0  0  0  0  0
  146.8440  133.0035  153.0900 C   0  0  0  0  0  0  0  0  0  0  0  0
  146.2857  134.0855  152.9042 O   0  0  0  0  0  0  0  0  0  0  0  0
  150.7913  138.2356  155.3008 C   0  0  0  0  0  0  0  0  0  0  0  0
  149.6879  138.8345  154.4077 C   0  0  0  0  0  0  0  0  0  0  0  0
  152.1180  138.7093  154.6973 C   0  0  0  0  0  0  0  0  0  0  0  0
  152.9493  137.9517  159.1898 H   0  0  0  0  0  0  0  0  0  0  0  0
  151.2949  137.3551  159.2197 H   0  0  0  0  0  0  0  0  0  0  0  0
  151.6283  139.0865  159.3919 H   0  0  0  0  0  0  0  0  0  0  0  0
  148.9373  139.8465  156.8087 H   0  0  0  0  0  0  0  0  0  0  0  0
  150.4791  140.5847  157.2138 H   0  0  0  0  0  0  0  0  0  0  0  0
  149.6090  139.6090  158.3967 H   0  0  0  0  0  0  0  0  0  0  0  0
  150.0990  136.4378  157.7197 H   0  0  0  0  0  0  0  0  0  0  0  0
  148.8189  137.1629  156.6877 H   0  0  0  0  0  0  0  0  0  0  0  0
  151.6544  136.2712  155.8617 H   0  0  0  0  0  0  0  0  0  0  0  0
  149.6615  136.4033  153.7840 H   0  0  0  0  0  0  0  0  0  0  0  0
  148.7873  134.8534  152.9714 H   0  0  0  0  0  0  0  0  0  0  0  0
  149.8731  131.7229  154.1125 H   0  0  0  0  0  0  0  0  0  0  0  0
  146.2714  129.7520  152.9675 H   0  0  0  0  0  0  0  0  0  0  0  0
  149.7860  138.5066  153.3722 H   0  0  0  0  0  0  0  0  0  0  0  0
  149.7249  139.9242  154.4042 H   0  0  0  0  0  0  0  0  0  0  0  0
  148.6893  138.5476  154.7373 H   0  0  0  0  0  0  0  0  0  0  0  0
  152.1856  138.4679  153.6361 H   0  0  0  0  0  0  0  0  0  0  0  0
  152.9762  138.2392  155.1780 H   0  0  0  0  0  0  0  0  0  0  0  0
  152.2393  139.7880  154.8001 H   0  0  0  0  0  0  0  0  0  0  0  0
  1  2  1  0  0  0  0
  1 25  1  0  0  0  0
  1 26  1  0  0  0  0
  1 27  1  0  0  0  0
  2  3  1  0  0  0  0
  3 22  1  0  0  0  0
  3  4  1  0  0  0  0
  3  5  1  0  0  0  0
  4 28  1  0  0  0  0
  4 29  1  0  0  0  0
  4 30  1  0  0  0  0
  5  6  1  0  0  0  0
  5 31  1  0  0  0  0
  5 32  1  0  0  0  0
  6  7  1  0  0  0  0
  6 22  1  0  0  0  0
  6 33  1  0  0  0  0
  7  8  1  0  0  0  0
  7 34  1  0  0  0  0
  8  9  2  0  0  0  0
  8 10  1  0  0  0  0
 10 11  1  0  0  0  0
 10 35  1  0  0  0  0
 11 20  1  0  0  0  0
 11 12  2  0  0  0  0
 12 13  1  0  0  0  0
 12 36  1  0  0  0  0
 13 14  1  0  0  0  0
 13 18  2  0  0  0  0
 14 15  1  0  0  0  0
 14 16  1  0  0  0  0
 14 17  1  0  0  0  0
 18 19  1  0  0  0  0
 18 37  1  0  0  0  0
 19 20  1  0  0  0  0
 20 21  2  0  0  0  0
 22 23  1  0  0  0  0
 22 24  1  0  0  0  0
 23 38  1  0  0  0  0
 23 39  1  0  0  0  0
 23 40  1  0  0  0  0
 24 41  1  0  0  0  0
 24 42  1  0  0  0  0
 24 43  1  0  0  0  0
M  CHG  1  19  -1
M  END
> <s_m_source_file>
AV-unprocessed.smi

> <i_m_source_file_index>
697

> <i_lp_mmshare_version>
43012

> <i_f3d_flags>
0

> <s_epik_input>
W0NIM11PW0NAQF0xKFtDSDNdKVtDSDJdW0NASF0oQzEoW0NIM10pW0NIM10pW05IXUMoPU8pW05IXWMyW2NIXWMoQyhGKShGKUYpW2NIXVtuSF1jMj1P

> <s_epik_cmdline>
J2VwaWtfcHl0aG9uJywgJy1waCcsICc3LjAnLCAnLXRuJywgJzgnLCAnLW1hJywgJzIwMCcsICctbWV0YWxfYmluZGluZycsICctaW1hZScsICc8aW5maWxlLm1hZT4nLCAnLW9tYWUnLCAnPG91dGZpbGUubWFlPic=

> <r_lp_tautomer_probability>
1

> <r_epik_Ionization_Penalty>
3.20094

> <r_epik_Ionization_Penalty_Charging>
0.180017

> <r_epik_Ionization_Penalty_Neutral>
3.02092

> <r_epik_State_Penalty>
3.01726

> <r_epik_Charging_Adjusted_Penalty>
3.19727

> <i_epik_Tot_Q>
-1

> <i_epik_Tot_abs_Q>
1

> <r_epik_Metal_State_Penalty>
0.455096

> <b_epik_Metal_Only>
1

> <s_lp_Force_Field>
OPLS_2005

> <r_lp_Energy>
36.2607

> <b_lp_Chiralities_Consistent>
1

> <s_lp_Variant>
AV-unprocessed.smi:697-6

> <Gold.Version>
5.8.1

> <Gold.Id.Protein>
6NUR|6NUR_protein|mol2

> <Gold.PLP.Fitness>
37.5254

> <Gold.PLP.PLP>
-32.6858

> <Gold.PLP.part.hbond>
-2.0000

> <Gold.PLP.part.metal>
0.0000

> <Gold.PLP.part.buried>
-5.5593

> <Gold.PLP.part.nonpolar>
-26.2081

> <Gold.PLP.part.repulsive>
0.3141

> <Gold.PLP.ligand.clash>
0.0000

> <Gold.PLP.ligand.torsion>
0.6573

> <Gold.PLP.Chemscore.Hbond>
1.9100

> <Gold.PLP.Chemscore.CHOScore>
0.0000

> <Gold.PLP.Chemscore.Metal>
0.0000

> <Gold.Chemscore.Hbonds>
donor molecule, donor type, donor heavy atom, donor atom, acceptor molecule, acceptor atom, score
      L1  H     7    34       P1  7948  0.96
      L1  H    10    35       P1  7948  0.95

> <Gold.PLP.Chemscore.Internal.Correction>
0.4242

> <Gold.Rescore>
     Score         DG    S(hbond)    S(metal)    S(lipo)     H(rot)  DE(clash)    DE(int)     intcor
     14.05     -14.69       1.46        0.00      65.42       1.30       0.01       0.64       ----

> <Gold.Chemscore.Fitness>
14.0490

> <Gold.Chemscore.DG>
-14.6929

> <Gold.Chemscore.ZeroCoef>
-5.4800

> <Gold.Chemscore.Hbond>
1.4608

> <Gold.Chemscore.Metal>
0.0000

> <Gold.Chemscore.Lipo>
65.4250

> <Gold.Chemscore.Internal_Hbond>
0.0000

> <Gold.Chemscore.DEClash>
0.0060

> <Gold.Chemscore.DEInternal>
0.6379

> <Gold.Chemscore.Rot>
1.2973

> <Gold.Chemscore.Internal.Correction>
   9.000000E+99

> <Gold.Chemscore.Hbonds>
donor molecule, donor type, donor heavy atom, donor atom, acceptor molecule, acceptor atom, score
      L1  H     7    34       P1  7948  0.48
      L1  H    10    35       P1  7948  0.22

> <Gold.Chemscore.Hbond.Weighted>
-4.8791

> <Gold.Chemscore.Metal.Weighted>
-0.0000

> <Gold.Chemscore.Lipo.Weighted>
-7.6547

> <Gold.Chemscore.Internal_Hbond.Weighted>
0.0000

> <Gold.Chemscore.DEClash.Weighted>
0.0060

> <Gold.Chemscore.DEInternal.Weighted>
0.6379

> <Gold.Chemscore.Rot.Weighted>
3.3210

> <Gold.Chemscore.Internal.Correction.Weighted>
   9.000000E+99

> <Gold.Protein.RotatedTorsions>
[ 6907 6896 6895 6894 ] final   26.34 input  -60.11 | X-H torsion
[ 7974 7965 7964 7962 ] final  -72.13 input  175.53 | X-H torsion
[ 8008 7997 7996 7995 ] final   61.33 input   59.86 | X-H torsion
[ 10167 10162 10161 10158 ] final -111.75 input  -65.29 | X-H torsion
[ 10718 10713 10712 10709 ] final  -69.25 input   66.30 | X-H torsion
[ 10763 10752 10751 10750 ] final -142.55 input  -60.55 | X-H torsion
[ 11005 11000 10999 10996 ] final   52.38 input  -57.11 | X-H torsion

> <Gold.Protein.ActiveResidues>
 VAL166  LYS551  ARG553  GLY616  TRP617  ASP618  TYR619  PRO620  LYS621  CYS622 
 ASP623  PHE694  ASN695  SER759  ASP760  ASP761  ALA762  ILE779  LEU786  VAL792 
 PHE793  MET794  SER795  GLU796  ALA797  LYS798  CYS799  TRP800  GLU811  SER814 

> <Gold.Protein.RotatedAtoms>
  151.9861  135.0004  160.0559 H   0  0  0  0  0  0  0  0  0  0  0  0  # atno 6907 bound_to 6896
  152.1652  133.4603  159.4889 H   0  0  0  0  0  0  0  0  0  0  0  0  # atno 6908 bound_to 6896
  150.6893  134.1940  159.4339 H   0  0  0  0  0  0  0  0  0  0  0  0  # atno 6909 bound_to 6896
  145.6691  140.9227  143.0892 H   0  0  0  0  0  0  0  0  0  0  0  0  # atno 7974 bound_to 7965
  155.5966  140.3493  155.4581 H   0  0  0  0  0  0  0  0  0  0  0  0  # atno 8008 bound_to 7997
  156.0260  140.1264  157.0332 H   0  0  0  0  0  0  0  0  0  0  0  0  # atno 8009 bound_to 7997
  154.4333  140.1053  156.6018 H   0  0  0  0  0  0  0  0  0  0  0  0  # atno 8010 bound_to 7997
  140.1302  143.4367  152.1632 H   0  0  0  0  0  0  0  0  0  0  0  0  # atno 10167 bound_to 10162
  156.0464  130.4309  150.2120 H   0  0  0  0  0  0  0  0  0  0  0  0  # atno 10718 bound_to 10713
  154.8504  135.3493  154.6046 H   0  0  0  0  0  0  0  0  0  0  0  0  # atno 10763 bound_to 10752
  153.6654  135.6987  153.5168 H   0  0  0  0  0  0  0  0  0  0  0  0  # atno 10764 bound_to 10752
  153.2784  135.4271  155.1012 H   0  0  0  0  0  0  0  0  0  0  0  0  # atno 10765 bound_to 10752
  140.0854  134.5281  155.8904 H   0  0  0  0  0  0  0  0  0  0  0  0  # atno 11005 bound_to 11000
  144.7063  139.8549  143.7429 LP  0  0  0  0  0  0  0  0  0  0  0  0  # atno 17320 bound_to 7965
  146.1060  139.4060  143.0317 LP  0  0  0  0  0  0  0  0  0  0  0  0  # atno 17321 bound_to 7965
  139.5523  144.7347  151.4397 LP  0  0  0  0  0  0  0  0  0  0  0  0  # atno 17342 bound_to 10162
  140.6821  143.8057  150.7136 LP  0  0  0  0  0  0  0  0  0  0  0  0  # atno 17343 bound_to 10162
  157.0209  130.9979  151.3340 LP  0  0  0  0  0  0  0  0  0  0  0  0  # atno 17370 bound_to 10713
  157.5345  130.8079  149.7955 LP  0  0  0  0  0  0  0  0  0  0  0  0  # atno 17371 bound_to 10713
  141.2061  133.6652  156.6220 LP  0  0  0  0  0  0  0  0  0  0  0  0  # atno 17394 bound_to 11000
  140.3427  134.7835  157.4410 LP  0  0  0  0  0  0  0  0  0  0  0  0  # atno 17395 bound_to 11000

$$$$
