AV-unprocessed.smi:236|AV-procd|sdf|1811|dock9
  -GOLD-   2262020393D 1   1.00000     0.00000
 Structure written by MMmdl.
 58 62  0  0  0  0  0  0  0  0  1 V2000
  144.2758  135.7486  162.6777 C   0  0  0  0  0  0  0  0  0  0  0  0
  145.5006  135.0579  162.0574 C   0  0  2  0  0  0  0  0  0  0  0  0
  146.2345  134.3869  163.0753 O   0  0  0  0  0  0  0  0  0  0  0  0
  147.5731  134.2567  162.6327 C   0  0  0  0  0  0  0  0  0  0  0  0
  147.8450  135.6253  162.0284 C   0  0  0  0  0  0  0  0  0  0  0  0
  146.5269  135.9691  161.3284 C   0  0  2  0  0  0  0  0  0  0  0  0
  146.2651  137.3478  161.5325 O   0  0  0  0  0  0  0  0  0  0  0  0
  146.5331  135.6895  159.8028 C   0  0  0  0  0  0  0  0  0  0  0  0
  147.5103  136.4657  159.0532 N   0  0  0  0  0  0  0  0  0  0  0  0
  147.4866  137.8231  158.8217 C   0  0  0  0  0  0  0  0  0  0  0  0
  148.4777  138.2843  158.1086 N   0  0  0  0  0  0  0  0  0  0  0  0
  149.2353  137.1574  157.8131 C   0  0  0  0  0  0  0  0  0  0  0  0
  150.4307  136.9251  157.0757 C   0  0  0  0  0  0  0  0  0  0  0  0
  151.1450  137.8784  156.4428 N   0  0  0  0  0  0  0  0  0  0  0  0
  151.4082  137.5769  155.0422 C   0  0  0  0  0  0  0  0  0  0  0  0
  152.3483  138.6386  154.4491 C   0  0  0  0  0  0  0  0  0  0  0  0
  151.7838  139.9321  154.6433 O   0  0  0  0  0  0  0  0  0  0  0  0
  151.6173  140.2538  156.0235 C   0  0  1  0  0  0  0  0  0  0  0  0
  151.0758  141.6857  156.1219 C   0  0  0  0  0  0  0  0  0  0  0  0
  150.7465  141.9659  157.4724 O   0  0  0  0  0  0  0  0  0  0  0  0
  151.8913  142.1056  158.2960 C   0  0  0  0  0  0  0  0  0  0  0  0
  152.4167  143.5204  158.1761 C   0  0  0  0  0  0  0  0  0  0  0  0
  151.9996  144.5905  159.1603 C   0  0  0  0  0  0  0  0  0  0  0  0
  151.4957  144.6377  157.7406 C   0  0  0  0  0  0  0  0  0  0  0  0
  150.6458  139.2323  156.6467 C   0  0  0  0  0  0  0  0  0  0  0  0
  150.8891  135.6527  156.9891 N   0  0  0  0  0  0  0  0  0  0  0  0
  150.2227  134.6612  157.5880 C   0  0  0  0  0  0  0  0  0  0  0  0
  149.0999  134.7240  158.3073 N   0  0  0  0  0  0  0  0  0  0  0  0
  148.6374  136.0046  158.3951 C   0  0  0  0  0  0  0  0  0  0  0  0
  143.6931  136.2712  161.9186 H   0  0  0  0  0  0  0  0  0  0  0  0
  144.5676  136.4722  163.4393 H   0  0  0  0  0  0  0  0  0  0  0  0
  143.6203  135.0187  163.1528 H   0  0  0  0  0  0  0  0  0  0  0  0
  145.1465  134.2861  161.3721 H   0  0  0  0  0  0  0  0  0  0  0  0
  148.2490  134.0158  163.4534 H   0  0  0  0  0  0  0  0  0  0  0  0
  147.6438  133.4710  161.8787 H   0  0  0  0  0  0  0  0  0  0  0  0
  148.0429  136.3253  162.8422 H   0  0  0  0  0  0  0  0  0  0  0  0
  148.7200  135.6312  161.3809 H   0  0  0  0  0  0  0  0  0  0  0  0
  145.4299  137.4323  161.9663 H   0  0  0  0  0  0  0  0  0  0  0  0
  146.7264  134.6322  159.6167 H   0  0  0  0  0  0  0  0  0  0  0  0
  145.5474  135.8943  159.3828 H   0  0  0  0  0  0  0  0  0  0  0  0
  146.7064  138.4659  159.2033 H   0  0  0  0  0  0  0  0  0  0  0  0
  151.8568  136.5865  154.9519 H   0  0  0  0  0  0  0  0  0  0  0  0
  150.4713  137.5605  154.4837 H   0  0  0  0  0  0  0  0  0  0  0  0
  153.3359  138.5871  154.9102 H   0  0  0  0  0  0  0  0  0  0  0  0
  152.4851  138.4662  153.3815 H   0  0  0  0  0  0  0  0  0  0  0  0
  152.5796  140.1990  156.5362 H   0  0  0  0  0  0  0  0  0  0  0  0
  151.8104  142.3982  155.7428 H   0  0  0  0  0  0  0  0  0  0  0  0
  150.1768  141.7840  155.5113 H   0  0  0  0  0  0  0  0  0  0  0  0
  151.6310  141.9136  159.3380 H   0  0  0  0  0  0  0  0  0  0  0  0
  152.6669  141.3946  158.0065 H   0  0  0  0  0  0  0  0  0  0  0  0
  153.4355  143.5804  157.7976 H   0  0  0  0  0  0  0  0  0  0  0  0
  151.2875  144.3180  159.9366 H   0  0  0  0  0  0  0  0  0  0  0  0
  152.7500  145.3223  159.4527 H   0  0  0  0  0  0  0  0  0  0  0  0
  151.9086  145.4020  157.0855 H   0  0  0  0  0  0  0  0  0  0  0  0
  150.4485  144.3951  157.5711 H   0  0  0  0  0  0  0  0  0  0  0  0
  149.6593  139.3375  156.1938 H   0  0  0  0  0  0  0  0  0  0  0  0
  150.5335  139.4242  157.7147 H   0  0  0  0  0  0  0  0  0  0  0  0
  150.6490  133.6757  157.4725 H   0  0  0  0  0  0  0  0  0  0  0  0
  1  2  1  0  0  0  0
  1 30  1  0  0  0  0
  1 31  1  0  0  0  0
  1 32  1  0  0  0  0
  2  6  1  0  0  0  0
  2  3  1  0  0  0  0
  2 33  1  0  0  0  0
  3  4  1  0  0  0  0
  4  5  1  0  0  0  0
  4 34  1  0  0  0  0
  4 35  1  0  0  0  0
  5  6  1  0  0  0  0
  5 36  1  0  0  0  0
  5 37  1  0  0  0  0
  6  7  1  0  0  0  0
  6  8  1  0  0  0  0
  7 38  1  0  0  0  0
  8  9  1  0  0  0  0
  8 39  1  0  0  0  0
  8 40  1  0  0  0  0
  9 29  1  0  0  0  0
  9 10  1  0  0  0  0
 10 11  2  0  0  0  0
 10 41  1  0  0  0  0
 11 12  1  0  0  0  0
 12 29  2  0  0  0  0
 12 13  1  0  0  0  0
 13 14  1  0  0  0  0
 13 26  2  0  0  0  0
 14 25  1  0  0  0  0
 14 15  1  0  0  0  0
 15 16  1  0  0  0  0
 15 42  1  0  0  0  0
 15 43  1  0  0  0  0
 16 17  1  0  0  0  0
 16 44  1  0  0  0  0
 16 45  1  0  0  0  0
 17 18  1  0  0  0  0
 18 19  1  0  0  0  0
 18 25  1  0  0  0  0
 18 46  1  0  0  0  0
 19 20  1  0  0  0  0
 19 47  1  0  0  0  0
 19 48  1  0  0  0  0
 20 21  1  0  0  0  0
 21 22  1  0  0  0  0
 21 49  1  0  0  0  0
 21 50  1  0  0  0  0
 22 24  1  0  0  0  0
 22 23  1  0  0  0  0
 22 51  1  0  0  0  0
 23 24  1  0  0  0  0
 23 52  1  0  0  0  0
 23 53  1  0  0  0  0
 24 54  1  0  0  0  0
 24 55  1  0  0  0  0
 25 56  1  0  0  0  0
 25 57  1  0  0  0  0
 26 27  1  0  0  0  0
 27 28  2  0  0  0  0
 27 58  1  0  0  0  0
 28 29  1  0  0  0  0
M  END
> <s_m_source_file>
AV-unprocessed.smi

> <i_m_source_file_index>
236

> <i_lp_mmshare_version>
43012

> <i_f3d_flags>
0

> <s_epik_input>
W0NIMl0xW0NIMl1PW0NAQEhdKFtDSDNdKVtDQEBdMShbT0hdKVtDSDJdbihbY0hdbjIpYyhjMjMpbltjSF1uYzNONFtDSDJdW0NIMl1PW0NASF0oW0NIMl00KVtDSDJdT1tDSDJdW0NIXTVbQ0gyXVtDSDJdNQ==

> <s_epik_cmdline>
J2VwaWtfcHl0aG9uJywgJy1waCcsICc3LjAnLCAnLXRuJywgJzgnLCAnLW1hJywgJzIwMCcsICctbWV0YWxfYmluZGluZycsICctaW1hZScsICc8aW5maWxlLm1hZT4nLCAnLW9tYWUnLCAnPG91dGZpbGUubWFlPic=

> <r_lp_tautomer_probability>
1

> <r_epik_Ionization_Penalty>
7.21838e-05

> <r_epik_Ionization_Penalty_Charging>
0

> <r_epik_Ionization_Penalty_Neutral>
7.21838e-05

> <r_epik_State_Penalty>
-0

> <r_epik_Charging_Adjusted_Penalty>
0

> <i_epik_Tot_Q>
0

> <i_epik_Tot_abs_Q>
0

> <r_epik_Metal_State_Penalty>
-0

> <b_epik_Metal_Only>
0

> <s_lp_Force_Field>
OPLS_2005

> <r_lp_Energy>
49.5811

> <b_lp_Chiralities_Consistent>
1

> <s_lp_Variant>
AV-unprocessed.smi:236-3

> <Gold.Version>
5.8.1

> <Gold.Id.Protein>
6NUR|6NUR_protein|mol2

> <Gold.PLP.Fitness>
48.9653

> <Gold.PLP.PLP>
-43.7304

> <Gold.PLP.part.hbond>
-3.9218

> <Gold.PLP.part.metal>
0.0000

> <Gold.PLP.part.buried>
-3.5614

> <Gold.PLP.part.nonpolar>
-35.8048

> <Gold.PLP.part.repulsive>
0.1317

> <Gold.PLP.ligand.clash>
0.0000

> <Gold.PLP.ligand.torsion>
0.7967

> <Gold.PLP.Chemscore.Hbond>
1.9920

> <Gold.PLP.Chemscore.CHOScore>
0.0000

> <Gold.PLP.Chemscore.Metal>
0.0000

> <Gold.Chemscore.Hbonds>
donor molecule, donor type, donor heavy atom, donor atom, acceptor molecule, acceptor atom, score
      P1  H  6934  6947       L1     7  1.00
      P1  H  7989  7998       L1    17  0.86

> <Gold.PLP.Chemscore.Internal.Correction>
0.8522

> <Gold.Rescore>
     Score         DG    S(hbond)    S(metal)    S(lipo)     H(rot)  DE(clash)    DE(int)     intcor
     14.19     -17.91       1.62        0.00     122.74       2.87       1.46       2.26       ----

> <Gold.Chemscore.Fitness>
14.1944

> <Gold.Chemscore.DG>
-17.9120

> <Gold.Chemscore.ZeroCoef>
-5.4800

> <Gold.Chemscore.Hbond>
1.6189

> <Gold.Chemscore.Metal>
0.0000

> <Gold.Chemscore.Lipo>
122.7398

> <Gold.Chemscore.Internal_Hbond>
0.0000

> <Gold.Chemscore.DEClash>
1.4572

> <Gold.Chemscore.DEInternal>
2.2604

> <Gold.Chemscore.Rot>
2.8655

> <Gold.Chemscore.Internal.Correction>
   9.000000E+99

> <Gold.Chemscore.Hbonds>
donor molecule, donor type, donor heavy atom, donor atom, acceptor molecule, acceptor atom, score
      P1  H  6934  6947       L1     7  0.89
      P1  H  7989  7998       L1    17  0.78

> <Gold.Chemscore.Hbond.Weighted>
-5.4073

> <Gold.Chemscore.Metal.Weighted>
-0.0000

> <Gold.Chemscore.Lipo.Weighted>
-14.3606

> <Gold.Chemscore.Internal_Hbond.Weighted>
0.0000

> <Gold.Chemscore.DEClash.Weighted>
1.4572

> <Gold.Chemscore.DEInternal.Weighted>
2.2604

> <Gold.Chemscore.Rot.Weighted>
7.3358

> <Gold.Chemscore.Internal.Correction.Weighted>
   9.000000E+99

> <Gold.Protein.RotatedTorsions>
[ 6907 6896 6895 6894 ] final   14.42 input  -60.11 | X-H torsion
[ 7974 7965 7964 7962 ] final  -71.89 input  175.53 | X-H torsion
[ 8008 7997 7996 7995 ] final  130.59 input   59.86 | X-H torsion
[ 10167 10162 10161 10158 ] final   80.96 input  -65.29 | X-H torsion
[ 10718 10713 10712 10709 ] final -132.91 input   66.30 | X-H torsion
[ 10763 10752 10751 10750 ] final  142.92 input  -60.55 | X-H torsion
[ 11005 11000 10999 10996 ] final   39.06 input  -57.11 | X-H torsion

> <Gold.Protein.ActiveResidues>
 VAL166  LYS551  ARG553  GLY616  TRP617  ASP618  TYR619  PRO620  LYS621  CYS622 
 ASP623  PHE694  ASN695  SER759  ASP760  ASP761  ALA762  ILE779  LEU786  VAL792 
 PHE793  MET794  SER795  GLU796  ALA797  LYS798  CYS799  TRP800  GLU811  SER814 

> <Gold.Protein.RotatedAtoms>
  151.8019  135.0706  160.0401 H   0  0  0  0  0  0  0  0  0  0  0  0  # atno 6907 bound_to 6896
  152.3083  133.5721  159.5672 H   0  0  0  0  0  0  0  0  0  0  0  0  # atno 6908 bound_to 6896
  150.7307  134.0107  159.3710 H   0  0  0  0  0  0  0  0  0  0  0  0  # atno 6909 bound_to 6896
  145.6723  140.9217  143.0876 H   0  0  0  0  0  0  0  0  0  0  0  0  # atno 7974 bound_to 7965
  156.2957  140.2592  156.2786 H   0  0  0  0  0  0  0  0  0  0  0  0  # atno 8008 bound_to 7997
  154.9624  140.0392  157.2215 H   0  0  0  0  0  0  0  0  0  0  0  0  # atno 8009 bound_to 7997
  154.7934  140.2816  155.5979 H   0  0  0  0  0  0  0  0  0  0  0  0  # atno 8010 bound_to 7997
  139.9443  144.6069  150.8222 H   0  0  0  0  0  0  0  0  0  0  0  0  # atno 10167 bound_to 10162
  156.2394  130.7086  151.0941 H   0  0  0  0  0  0  0  0  0  0  0  0  # atno 10718 bound_to 10713
  153.9638  135.2957  155.3432 H   0  0  0  0  0  0  0  0  0  0  0  0  # atno 10763 bound_to 10752
  154.7360  135.5046  153.9045 H   0  0  0  0  0  0  0  0  0  0  0  0  # atno 10764 bound_to 10752
  153.0933  135.6714  153.9922 H   0  0  0  0  0  0  0  0  0  0  0  0  # atno 10765 bound_to 10752
  140.2065  134.3807  155.8070 H   0  0  0  0  0  0  0  0  0  0  0  0  # atno 11005 bound_to 11000
  144.7053  139.8588  143.7432 LP  0  0  0  0  0  0  0  0  0  0  0  0  # atno 17320 bound_to 7965
  146.1035  139.4032  143.0332 LP  0  0  0  0  0  0  0  0  0  0  0  0  # atno 17321 bound_to 7965
  140.7602  143.3145  151.2765 LP  0  0  0  0  0  0  0  0  0  0  0  0  # atno 17342 bound_to 10162
  139.6679  144.0072  152.2735 LP  0  0  0  0  0  0  0  0  0  0  0  0  # atno 17343 bound_to 10162
  157.7169  131.0705  150.6293 LP  0  0  0  0  0  0  0  0  0  0  0  0  # atno 17370 bound_to 10713
  156.6365  130.4446  149.5767 LP  0  0  0  0  0  0  0  0  0  0  0  0  # atno 17371 bound_to 10713
  141.2227  133.7121  156.8346 LP  0  0  0  0  0  0  0  0  0  0  0  0  # atno 17394 bound_to 11000
  140.1997  134.8906  157.3155 LP  0  0  0  0  0  0  0  0  0  0  0  0  # atno 17395 bound_to 11000

$$$$
