AV-unprocessed.smi:1984|AV-procd|sdf|8041|dock7
  -GOLD-   2272010233D 1   1.00000     0.00000
 Structure written by MMmdl.
 38 39  0  0  0  0  0  0  0  0  1 V2000
  151.5445  144.9235  158.4052 C   0  0  0  0  0  0  0  0  0  0  0  0
  151.9805  143.6126  158.9898 C   0  0  0  0  0  0  0  0  0  0  0  0
  152.6330  143.3738  160.2317 C   0  0  0  0  0  0  0  0  0  0  0  0
  152.8009  142.0182  160.2700 C   0  0  0  0  0  0  0  0  0  0  0  0
  153.4243  141.1545  161.3171 C   0  0  0  0  0  0  0  0  0  0  0  0
  152.2668  141.5143  159.0967 N   0  0  0  0  0  0  0  0  0  0  0  0
  152.1905  140.1346  158.6397 C   0  0  0  0  0  0  0  0  0  0  0  0
  151.7636  140.0478  157.1716 C   0  0  0  0  0  0  0  0  0  0  0  0
  152.4837  139.4853  156.3467 O   0  0  0  0  0  0  0  0  0  0  0  0
  150.5859  140.6067  156.8581 N   0  0  0  0  0  0  0  0  0  0  0  0
  150.0086  140.6136  155.5200 C   0  0  0  0  0  0  0  0  0  0  0  0
  148.7757  141.5312  155.4453 C   0  0  1  0  0  0  0  0  0  0  0  0
  148.1126  141.5573  154.0516 C   0  0  0  0  0  0  0  0  0  0  0  0
  146.7522  142.2521  154.1679 C   0  0  0  0  0  0  0  0  0  0  0  0
  146.1154  141.8176  155.8290 S   0  0  0  0  0  0  0  0  0  0  0  0
  145.7792  143.0538  156.5510 O   0  0  0  0  0  0  0  0  0  0  0  0
  145.1425  140.7212  155.7102 O   0  0  0  0  0  0  0  0  0  0  0  0
  147.6962  141.1437  156.4684 C   0  0  0  0  0  0  0  0  0  0  0  0
  151.7614  142.4952  158.3170 N   0  0  0  0  0  0  0  0  0  0  0  0
  151.8117  145.7546  159.0580 H   0  0  0  0  0  0  0  0  0  0  0  0
  150.4642  144.9492  158.2606 H   0  0  0  0  0  0  0  0  0  0  0  0
  152.0157  145.0976  157.4375 H   0  0  0  0  0  0  0  0  0  0  0  0
  152.9333  144.0906  160.9814 H   0  0  0  0  0  0  0  0  0  0  0  0
  153.7152  141.7450  162.1861 H   0  0  0  0  0  0  0  0  0  0  0  0
  154.3179  140.6620  160.9335 H   0  0  0  0  0  0  0  0  0  0  0  0
  152.7291  140.3856  161.6537 H   0  0  0  0  0  0  0  0  0  0  0  0
  153.1618  139.6619  158.7911 H   0  0  0  0  0  0  0  0  0  0  0  0
  151.4733  139.5869  159.2534 H   0  0  0  0  0  0  0  0  0  0  0  0
  150.0537  141.0487  157.5935 H   0  0  0  0  0  0  0  0  0  0  0  0
  150.7598  140.9375  154.7975 H   0  0  0  0  0  0  0  0  0  0  0  0
  149.7289  139.5931  155.2537 H   0  0  0  0  0  0  0  0  0  0  0  0
  149.0887  142.5507  155.6763 H   0  0  0  0  0  0  0  0  0  0  0  0
  148.7417  142.0477  153.3082 H   0  0  0  0  0  0  0  0  0  0  0  0
  147.9569  140.5332  153.7102 H   0  0  0  0  0  0  0  0  0  0  0  0
  146.8656  143.3355  154.1225 H   0  0  0  0  0  0  0  0  0  0  0  0
  146.0453  141.9415  153.3984 H   0  0  0  0  0  0  0  0  0  0  0  0
  147.5901  140.0606  156.5374 H   0  0  0  0  0  0  0  0  0  0  0  0
  147.8964  141.5353  157.4659 H   0  0  0  0  0  0  0  0  0  0  0  0
  1  2  1  0  0  0  0
  1 20  1  0  0  0  0
  1 21  1  0  0  0  0
  1 22  1  0  0  0  0
  2 19  2  0  0  0  0
  2  3  1  0  0  0  0
  3  4  2  0  0  0  0
  3 23  1  0  0  0  0
  4  5  1  0  0  0  0
  4  6  1  0  0  0  0
  5 24  1  0  0  0  0
  5 25  1  0  0  0  0
  5 26  1  0  0  0  0
  6  7  1  0  0  0  0
  6 19  1  0  0  0  0
  7  8  1  0  0  0  0
  7 27  1  0  0  0  0
  7 28  1  0  0  0  0
  8  9  2  0  0  0  0
  8 10  1  0  0  0  0
 10 11  1  0  0  0  0
 10 29  1  0  0  0  0
 11 12  1  0  0  0  0
 11 30  1  0  0  0  0
 11 31  1  0  0  0  0
 12 18  1  0  0  0  0
 12 13  1  0  0  0  0
 12 32  1  0  0  0  0
 13 14  1  0  0  0  0
 13 33  1  0  0  0  0
 13 34  1  0  0  0  0
 14 15  1  0  0  0  0
 14 35  1  0  0  0  0
 14 36  1  0  0  0  0
 15 16  2  0  0  0  0
 15 17  2  0  0  0  0
 15 18  1  0  0  0  0
 18 37  1  0  0  0  0
 18 38  1  0  0  0  0
M  END
> <s_m_source_file>
AV-unprocessed.smi

> <i_m_source_file_index>
1984

> <i_lp_mmshare_version>
43012

> <i_f3d_flags>
0

> <s_epik_input>
W0NIM11jMVtjSF1jKFtDSDNdKW4objEpW0NIMl1DKD1PKVtOSF1bQ0gyXVtDQEBIXShbQ0gyXTIpW0NIMl1bQ0gyXVMyKD1PKT1P

> <s_epik_cmdline>
J2VwaWtfcHl0aG9uJywgJy1waCcsICc3LjAnLCAnLXRuJywgJzgnLCAnLW1hJywgJzIwMCcsICctbWV0YWxfYmluZGluZycsICctaW1hZScsICc8aW5maWxlLm1hZT4nLCAnLW9tYWUnLCAnPG91dGZpbGUubWFlPic=

> <r_lp_tautomer_probability>
1

> <r_epik_Ionization_Penalty>
0.000335865

> <r_epik_Ionization_Penalty_Charging>
0

> <r_epik_Ionization_Penalty_Neutral>
0.000335865

> <r_epik_State_Penalty>
-0

> <r_epik_Charging_Adjusted_Penalty>
0

> <i_epik_Tot_Q>
0

> <i_epik_Tot_abs_Q>
0

> <r_epik_Metal_State_Penalty>
-0

> <b_epik_Metal_Only>
0

> <s_lp_Force_Field>
OPLS_2005

> <r_lp_Energy>
4.96267

> <b_lp_Chiralities_Consistent>
1

> <s_lp_Variant>
AV-unprocessed.smi:1984-2

> <Gold.Version>
5.8.1

> <Gold.Id.Protein>
6NUR|6NUR_protein|mol2

> <Gold.PLP.Fitness>
41.8762

> <Gold.PLP.PLP>
-39.1913

> <Gold.PLP.part.hbond>
-1.0000

> <Gold.PLP.part.metal>
0.0000

> <Gold.PLP.part.buried>
-4.4989

> <Gold.PLP.part.nonpolar>
-34.4306

> <Gold.PLP.part.repulsive>
0.3098

> <Gold.PLP.ligand.clash>
0.0000

> <Gold.PLP.ligand.torsion>
0.1608

> <Gold.PLP.Chemscore.Hbond>
1.0000

> <Gold.PLP.Chemscore.CHOScore>
0.0000

> <Gold.PLP.Chemscore.Metal>
0.0000

> <Gold.Chemscore.Hbonds>
donor molecule, donor type, donor heavy atom, donor atom, acceptor molecule, acceptor atom, score
      P1  H  7997  8008       L1     9  0.79

> <Gold.PLP.Chemscore.Internal.Correction>
0.0065

> <Gold.Rescore>
     Score         DG    S(hbond)    S(metal)    S(lipo)     H(rot)  DE(clash)    DE(int)     intcor
     13.52     -15.29       0.96        0.00      93.29       1.68       0.14       1.63       ----

> <Gold.Chemscore.Fitness>
13.5184

> <Gold.Chemscore.DG>
-15.2895

> <Gold.Chemscore.ZeroCoef>
-5.4800

> <Gold.Chemscore.Hbond>
0.9562

> <Gold.Chemscore.Metal>
0.0000

> <Gold.Chemscore.Lipo>
93.2936

> <Gold.Chemscore.Internal_Hbond>
0.0000

> <Gold.Chemscore.DEClash>
0.1403

> <Gold.Chemscore.DEInternal>
1.6309

> <Gold.Chemscore.Rot>
1.6795

> <Gold.Chemscore.Internal.Correction>
   9.000000E+99

> <Gold.Chemscore.Hbonds>
donor molecule, donor type, donor heavy atom, donor atom, acceptor molecule, acceptor atom, score
      P1  H  7997  8008       L1     9  0.74

> <Gold.Chemscore.Hbond.Weighted>
-3.1937

> <Gold.Chemscore.Metal.Weighted>
-0.0000

> <Gold.Chemscore.Lipo.Weighted>
-10.9153

> <Gold.Chemscore.Internal_Hbond.Weighted>
0.0000

> <Gold.Chemscore.DEClash.Weighted>
0.1403

> <Gold.Chemscore.DEInternal.Weighted>
1.6309

> <Gold.Chemscore.Rot.Weighted>
4.2995

> <Gold.Chemscore.Internal.Correction.Weighted>
   9.000000E+99

> <Gold.Protein.RotatedTorsions>
[ 6907 6896 6895 6894 ] final  -34.20 input  -60.11 | X-H torsion
[ 7974 7965 7964 7962 ] final   39.44 input  175.53 | X-H torsion
[ 8008 7997 7996 7995 ] final  -20.33 input   59.86 | X-H torsion
[ 10167 10162 10161 10158 ] final -174.46 input  -65.29 | X-H torsion
[ 10718 10713 10712 10709 ] final    4.21 input   66.30 | X-H torsion
[ 10763 10752 10751 10750 ] final -119.08 input  -60.55 | X-H torsion
[ 11005 11000 10999 10996 ] final  163.95 input  -57.11 | X-H torsion

> <Gold.Protein.ActiveResidues>
 VAL166  LYS551  ARG553  GLY616  TRP617  ASP618  TYR619  PRO620  LYS621  CYS622 
 ASP623  PHE694  ASN695  SER759  ASP760  ASP761  ALA762  ILE779  LEU786  VAL792 
 PHE793  MET794  SER795  GLU796  ALA797  LYS798  CYS799  TRP800  GLU811  SER814 

> <Gold.Protein.RotatedAtoms>
  151.0556  134.9702  159.8233 H   0  0  0  0  0  0  0  0  0  0  0  0  # atno 6907 bound_to 6896
  152.5387  134.2482  159.8898 H   0  0  0  0  0  0  0  0  0  0  0  0  # atno 6908 bound_to 6896
  151.2499  133.4312  159.2645 H   0  0  0  0  0  0  0  0  0  0  0  0  # atno 6909 bound_to 6896
  146.0984  139.5651  142.9430 H   0  0  0  0  0  0  0  0  0  0  0  0  # atno 7974 bound_to 7965
  154.4777  140.2065  155.9838 H   0  0  0  0  0  0  0  0  0  0  0  0  # atno 8008 bound_to 7997
  156.1116  140.3228  155.8050 H   0  0  0  0  0  0  0  0  0  0  0  0  # atno 8009 bound_to 7997
  155.4625  140.0525  157.2980 H   0  0  0  0  0  0  0  0  0  0  0  0  # atno 8010 bound_to 7997
  139.5633  144.1817  152.1273 H   0  0  0  0  0  0  0  0  0  0  0  0  # atno 10167 bound_to 10162
  156.8892  130.5681  149.5650 H   0  0  0  0  0  0  0  0  0  0  0  0  # atno 10718 bound_to 10713
  154.8607  135.4251  154.2242 H   0  0  0  0  0  0  0  0  0  0  0  0  # atno 10763 bound_to 10752
  153.3241  135.6984  153.7011 H   0  0  0  0  0  0  0  0  0  0  0  0  # atno 10764 bound_to 10752
  153.6054  135.3529  155.2934 H   0  0  0  0  0  0  0  0  0  0  0  0  # atno 10765 bound_to 10752
  140.2409  134.8051  157.3410 H   0  0  0  0  0  0  0  0  0  0  0  0  # atno 11005 bound_to 11000
  145.5903  141.0370  143.2074 LP  0  0  0  0  0  0  0  0  0  0  0  0  # atno 17320 bound_to 7965
  144.7413  139.7441  143.7309 LP  0  0  0  0  0  0  0  0  0  0  0  0  # atno 17321 bound_to 7965
  140.1335  144.5267  150.6788 LP  0  0  0  0  0  0  0  0  0  0  0  0  # atno 17342 bound_to 10162
  140.6914  143.2378  151.5120 LP  0  0  0  0  0  0  0  0  0  0  0  0  # atno 17343 bound_to 10162
  156.0638  130.5685  150.9246 LP  0  0  0  0  0  0  0  0  0  0  0  0  # atno 17370 bound_to 10713
  157.6094  131.0937  150.8822 LP  0  0  0  0  0  0  0  0  0  0  0  0  # atno 17371 bound_to 10713
  140.1654  134.4676  155.7866 LP  0  0  0  0  0  0  0  0  0  0  0  0  # atno 17394 bound_to 11000
  141.2210  133.6919  156.7616 LP  0  0  0  0  0  0  0  0  0  0  0  0  # atno 17395 bound_to 11000

$$$$
