AV-unprocessed.smi:2061|AV-procd|sdf|8369|dock7
  -GOLD-   2272011 43D 1   1.00000     0.00000
 Structure written by MMmdl.
 46 47  0  0  0  0  0  0  0  0  2 V2000
  151.5090  141.1275  157.1133 C   0  0  0  0  0  0  0  0  0  0  0  0
  151.5516  139.9945  156.1463 C   0  0  0  0  0  0  0  0  0  0  0  0
  150.6341  139.0517  155.7764 C   0  0  0  0  0  0  0  0  0  0  0  0
  151.3394  138.2791  154.8159 C   0  0  0  0  0  0  0  0  0  0  0  0
  150.7258  137.1698  154.1800 N   0  0  0  0  0  0  0  0  0  0  0  0
  150.9483  135.8656  154.4175 C   0  0  0  0  0  0  0  0  0  0  0  0
  151.7563  135.4188  155.2322 O   0  0  0  0  0  0  0  0  0  0  0  0
  150.1686  135.0879  153.6526 N   0  0  0  0  0  0  0  0  0  0  0  0
  150.1651  133.6282  153.6850 C   0  0  0  0  0  0  0  0  0  0  0  0
  149.1266  133.0002  152.7181 C   0  0  1  0  0  0  0  0  0  0  0  0
  148.9830  131.4848  153.0000 C   0  0  0  0  0  0  0  0  0  0  0  0
  147.8334  133.7551  152.7955 N   0  3  1  0  0  0  0  0  0  0  0  0
  146.8117  133.2192  151.8561 C   0  0  0  0  0  0  0  0  0  0  0  0
  145.5329  134.0775  151.8528 C   0  0  2  0  0  0  0  0  0  0  0  0
  145.7021  135.4341  151.1458 C   0  0  0  0  0  0  0  0  0  0  0  0
  145.0333  134.2127  153.1811 O   0  0  0  0  0  0  0  0  0  0  0  0
  145.9635  134.7575  154.1103 C   0  0  1  0  0  0  0  0  0  0  0  0
  145.2735  134.8294  155.4773 C   0  0  0  0  0  0  0  0  0  0  0  0
  147.2338  133.8874  154.1509 C   0  0  0  0  0  0  0  0  0  0  0  0
  152.5747  138.7122  154.6157 N   0  0  0  0  0  0  0  0  0  0  0  0
  152.7168  139.8141  155.4673 O   0  0  0  0  0  0  0  0  0  0  0  0
  150.5296  141.1991  157.5870 H   0  0  0  0  0  0  0  0  0  0  0  0
  151.7116  142.0731  156.6104 H   0  0  0  0  0  0  0  0  0  0  0  0
  152.2544  140.9939  157.8975 H   0  0  0  0  0  0  0  0  0  0  0  0
  149.6237  138.9356  156.1388 H   0  0  0  0  0  0  0  0  0  0  0  0
  150.0359  137.3945  153.4785 H   0  0  0  0  0  0  0  0  0  0  0  0
  149.5329  135.5341  153.0074 H   0  0  0  0  0  0  0  0  0  0  0  0
  151.1661  133.2867  153.4197 H   0  0  0  0  0  0  0  0  0  0  0  0
  150.0060  133.3125  154.7156 H   0  0  0  0  0  0  0  0  0  0  0  0
  149.4959  133.0905  151.6952 H   0  0  0  0  0  0  0  0  0  0  0  0
  149.9446  130.9740  152.9561 H   0  0  0  0  0  0  0  0  0  0  0  0
  148.3534  130.9897  152.2605 H   0  0  0  0  0  0  0  0  0  0  0  0
  148.5616  131.3005  153.9887 H   0  0  0  0  0  0  0  0  0  0  0  0
  147.1984  133.1529  150.8406 H   0  0  0  0  0  0  0  0  0  0  0  0
  146.5595  132.2003  152.1548 H   0  0  0  0  0  0  0  0  0  0  0  0
  144.7686  133.5297  151.3007 H   0  0  0  0  0  0  0  0  0  0  0  0
  145.9491  135.2926  150.0935 H   0  0  0  0  0  0  0  0  0  0  0  0
  146.4973  136.0357  151.5850 H   0  0  0  0  0  0  0  0  0  0  0  0
  144.7795  136.0135  151.1913 H   0  0  0  0  0  0  0  0  0  0  0  0
  146.2266  135.7733  153.8143 H   0  0  0  0  0  0  0  0  0  0  0  0
  145.9380  135.2504  156.2321 H   0  0  0  0  0  0  0  0  0  0  0  0
  144.9651  133.8403  155.8173 H   0  0  0  0  0  0  0  0  0  0  0  0
  144.3836  135.4577  155.4323 H   0  0  0  0  0  0  0  0  0  0  0  0
  147.0065  132.8967  154.5479 H   0  0  0  0  0  0  0  0  0  0  0  0
  147.9305  134.3654  154.8387 H   0  0  0  0  0  0  0  0  0  0  0  0
  148.0427  134.6970  152.4972 H   0  0  0  0  0  0  0  0  0  0  0  0
  1  2  1  0  0  0  0
  1 22  1  0  0  0  0
  1 23  1  0  0  0  0
  1 24  1  0  0  0  0
  2 21  1  0  0  0  0
  2  3  2  0  0  0  0
  3  4  1  0  0  0  0
  3 25  1  0  0  0  0
  4  5  1  0  0  0  0
  4 20  2  0  0  0  0
  5  6  1  0  0  0  0
  5 26  1  0  0  0  0
  6  7  2  0  0  0  0
  6  8  1  0  0  0  0
  8  9  1  0  0  0  0
  8 27  1  0  0  0  0
  9 10  1  0  0  0  0
  9 28  1  0  0  0  0
  9 29  1  0  0  0  0
 10 11  1  0  0  0  0
 10 12  1  0  0  0  0
 10 30  1  0  0  0  0
 11 31  1  0  0  0  0
 11 32  1  0  0  0  0
 11 33  1  0  0  0  0
 12 19  1  0  0  0  0
 12 13  1  0  0  0  0
 12 46  1  0  0  0  0
 13 14  1  0  0  0  0
 13 34  1  0  0  0  0
 13 35  1  0  0  0  0
 14 15  1  0  0  0  0
 14 16  1  0  0  0  0
 14 36  1  0  0  0  0
 15 37  1  0  0  0  0
 15 38  1  0  0  0  0
 15 39  1  0  0  0  0
 16 17  1  0  0  0  0
 17 18  1  0  0  0  0
 17 19  1  0  0  0  0
 17 40  1  0  0  0  0
 18 41  1  0  0  0  0
 18 42  1  0  0  0  0
 18 43  1  0  0  0  0
 19 44  1  0  0  0  0
 19 45  1  0  0  0  0
 20 21  1  0  0  0  0
M  CHG  1  12   1
M  END
> <s_m_source_file>
AV-unprocessed.smi

> <i_m_source_file_index>
2061

> <i_lp_mmshare_version>
43012

> <i_f3d_flags>
0

> <s_epik_input>
W0NIM11jMVtjSF1jKG5vMSlbTkhdQyg9TylbTkhdW0NIMl1bQ0BIXShbQ0gzXSlOMltDSDJdW0NAQEhdKFtDSDNdKU9bQ0BASF0oW0NIM10pW0NIMl0y

> <s_epik_cmdline>
J2VwaWtfcHl0aG9uJywgJy1waCcsICc3LjAnLCAnLXRuJywgJzgnLCAnLW1hJywgJzIwMCcsICctbWV0YWxfYmluZGluZycsICctaW1hZScsICc8aW5maWxlLm1hZT4nLCAnLW9tYWUnLCAnPG91dGZpbGUubWFlPic=

> <r_epik_Ionization_Penalty>
0.707076

> <r_epik_Ionization_Penalty_Charging>
0.707039

> <r_epik_Ionization_Penalty_Neutral>
3.6548e-05

> <r_epik_State_Penalty>
0.730276

> <r_epik_Charging_Adjusted_Penalty>
1.43732

> <i_epik_Tot_Q>
1

> <i_epik_Tot_abs_Q>
1

> <r_epik_Metal_State_Penalty>
0.743132

> <b_epik_Metal_Only>
0

> <s_lp_Force_Field>
OPLS_2005

> <r_lp_Energy>
19.7872

> <b_lp_Chiralities_Consistent>
1

> <s_lp_Variant>
AV-unprocessed.smi:2061-10

> <Gold.Version>
5.8.1

> <Gold.Id.Protein>
6NUR|6NUR_protein|mol2

> <Gold.PLP.Fitness>
45.1808

> <Gold.PLP.PLP>
-30.7546

> <Gold.PLP.part.hbond>
-6.6470

> <Gold.PLP.part.metal>
0.0000

> <Gold.PLP.part.buried>
-2.7829

> <Gold.PLP.part.nonpolar>
-22.3627

> <Gold.PLP.part.repulsive>
0.2895

> <Gold.PLP.ligand.clash>
0.0000

> <Gold.PLP.ligand.torsion>
0.8299

> <Gold.PLP.Chemscore.Hbond>
5.3455

> <Gold.PLP.Chemscore.CHOScore>
0.0000

> <Gold.PLP.Chemscore.Metal>
0.0000

> <Gold.Chemscore.Hbonds>
donor molecule, donor type, donor heavy atom, donor atom, acceptor molecule, acceptor atom, score
      L1  H     5    26       P1  7948  0.36
      L1  H     8    27       P1  7948  0.28
      L1  H    12    46       P1  7948  2.00
      P1  H  7997  8008       L1    21  0.85
      P1  H 10752 10764       L1     7  0.50

> <Gold.PLP.Chemscore.Internal.Correction>
0.0494

> <Gold.Rescore>
     Score         DG    S(hbond)    S(metal)    S(lipo)     H(rot)  DE(clash)    DE(int)     intcor
     15.04     -15.87       2.54        0.00      50.86       1.58       0.01       0.82       ----

> <Gold.Chemscore.Fitness>
15.0432

> <Gold.Chemscore.DG>
-15.8711

> <Gold.Chemscore.ZeroCoef>
-5.4800

> <Gold.Chemscore.Hbond>
2.5431

> <Gold.Chemscore.Metal>
0.0000

> <Gold.Chemscore.Lipo>
50.8598

> <Gold.Chemscore.Internal_Hbond>
0.0000

> <Gold.Chemscore.DEClash>
0.0082

> <Gold.Chemscore.DEInternal>
0.8198

> <Gold.Chemscore.Rot>
1.5834

> <Gold.Chemscore.Internal.Correction>
   9.000000E+99

> <Gold.Chemscore.Hbonds>
donor molecule, donor type, donor heavy atom, donor atom, acceptor molecule, acceptor atom, score
      L1  H     5    26       P1  7948  0.13
      L1  H     8    27       P1  7948  0.01
      L1  H    12    46       P1  7948  0.55
      P1  H  7997  8008       L1    21  0.75
      P1  H 10752 10764       L1     7  0.48

> <Gold.Chemscore.Hbond.Weighted>
-8.4940

> <Gold.Chemscore.Metal.Weighted>
-0.0000

> <Gold.Chemscore.Lipo.Weighted>
-5.9506

> <Gold.Chemscore.Internal_Hbond.Weighted>
0.0000

> <Gold.Chemscore.DEClash.Weighted>
0.0082

> <Gold.Chemscore.DEInternal.Weighted>
0.8198

> <Gold.Chemscore.Rot.Weighted>
4.0535

> <Gold.Chemscore.Internal.Correction.Weighted>
   9.000000E+99

> <Gold.Protein.RotatedTorsions>
[ 6907 6896 6895 6894 ] final  -31.79 input  -60.11 | X-H torsion
[ 7974 7965 7964 7962 ] final   92.61 input  175.53 | X-H torsion
[ 8008 7997 7996 7995 ] final  -52.41 input   59.86 | X-H torsion
[ 10167 10162 10161 10158 ] final -173.08 input  -65.29 | X-H torsion
[ 10718 10713 10712 10709 ] final  -56.82 input   66.30 | X-H torsion
[ 10763 10752 10751 10750 ] final  -34.24 input  -60.55 | X-H torsion
[ 11005 11000 10999 10996 ] final   58.82 input  -57.11 | X-H torsion

> <Gold.Protein.ActiveResidues>
 VAL166  LYS551  ARG553  GLY616  TRP617  ASP618  TYR619  PRO620  LYS621  CYS622 
 ASP623  PHE694  ASN695  SER759  ASP760  ASP761  ALA762  ILE779  LEU786  VAL792 
 PHE793  MET794  SER795  GLU796  ALA797  LYS798  CYS799  TRP800  GLU811  SER814 

> <Gold.Protein.RotatedAtoms>
  151.0874  134.9895  159.8385 H   0  0  0  0  0  0  0  0  0  0  0  0  # atno 6907 bound_to 6896
  152.5426  134.2108  159.8759 H   0  0  0  0  0  0  0  0  0  0  0  0  # atno 6908 bound_to 6896
  151.2142  133.4495  159.2632 H   0  0  0  0  0  0  0  0  0  0  0  0  # atno 6909 bound_to 6896
  145.4900  139.2276  143.2835 H   0  0  0  0  0  0  0  0  0  0  0  0  # atno 7974 bound_to 7965
  154.4106  140.1224  156.4987 H   0  0  0  0  0  0  0  0  0  0  0  0  # atno 8008 bound_to 7997
  155.6916  140.3495  155.4876 H   0  0  0  0  0  0  0  0  0  0  0  0  # atno 8009 bound_to 7997
  155.9463  140.1096  157.1004 H   0  0  0  0  0  0  0  0  0  0  0  0  # atno 8010 bound_to 7997
  139.5708  144.1646  152.1381 H   0  0  0  0  0  0  0  0  0  0  0  0  # atno 10167 bound_to 10162
  156.1258  130.4163  150.0357 H   0  0  0  0  0  0  0  0  0  0  0  0  # atno 10718 bound_to 10713
  153.8435  135.6855  153.4800 H   0  0  0  0  0  0  0  0  0  0  0  0  # atno 10763 bound_to 10752
  153.1439  135.4646  154.9535 H   0  0  0  0  0  0  0  0  0  0  0  0  # atno 10764 bound_to 10752
  154.7834  135.3276  154.7886 H   0  0  0  0  0  0  0  0  0  0  0  0  # atno 10765 bound_to 10752
  140.0349  134.5958  155.9457 H   0  0  0  0  0  0  0  0  0  0  0  0  # atno 11005 bound_to 11000
  146.2289  140.5694  142.8984 LP  0  0  0  0  0  0  0  0  0  0  0  0  # atno 17320 bound_to 7965
  144.7839  140.5897  143.6587 LP  0  0  0  0  0  0  0  0  0  0  0  0  # atno 17321 bound_to 7965
  140.1178  144.5400  150.6882 LP  0  0  0  0  0  0  0  0  0  0  0  0  # atno 17342 bound_to 10162
  140.6992  143.2424  151.4912 LP  0  0  0  0  0  0  0  0  0  0  0  0  # atno 17343 bound_to 10162
  156.8283  130.9383  151.3638 LP  0  0  0  0  0  0  0  0  0  0  0  0  # atno 17370 bound_to 10713
  157.6440  130.8829  149.9502 LP  0  0  0  0  0  0  0  0  0  0  0  0  # atno 17371 bound_to 10713
  141.1852  133.6554  156.5187 LP  0  0  0  0  0  0  0  0  0  0  0  0  # atno 17394 bound_to 11000
  140.4164  134.7226  157.4865 LP  0  0  0  0  0  0  0  0  0  0  0  0  # atno 17395 bound_to 11000

$$$$
