AV-unprocessed.smi:1978|AV-procd|sdf|7995|dock7
  -GOLD-   2272010183D 1   1.00000     0.00000
 Structure written by MMmdl.
 45 46  0  0  0  0  0  0  0  0  2 V2000
  148.3665  129.7448  153.6409 C   0  0  0  0  0  0  0  0  0  0  0  0
  148.9326  131.0702  154.0208 C   0  0  0  0  0  0  0  0  0  0  0  0
  148.8173  132.3199  153.4799 C   0  0  0  0  0  0  0  0  0  0  0  0
  149.6159  133.1167  154.3427 C   0  0  0  0  0  0  0  0  0  0  0  0
  149.7597  134.5105  154.1222 N   0  0  0  0  0  0  0  0  0  0  0  0
  150.4996  135.3783  154.8332 C   0  0  0  0  0  0  0  0  0  0  0  0
  151.1953  135.0864  155.8064 O   0  0  0  0  0  0  0  0  0  0  0  0
  150.3869  136.6262  154.3534 N   0  0  0  0  0  0  0  0  0  0  0  0
  151.0790  137.8002  154.8807 C   0  0  0  0  0  0  0  0  0  0  0  0
  150.1051  138.9235  155.3168 C   0  0  1  0  0  0  0  0  0  0  0  0
  148.8351  138.4014  156.0247 C   0  0  0  0  0  0  0  0  0  0  0  0
  150.8155  139.9758  156.1156 N   0  3  2  0  0  0  0  0  0  0  0  0
  151.3777  139.4733  157.4048 C   0  0  0  0  0  0  0  0  0  0  0  0
  152.3261  140.4982  158.0422 C   0  0  0  0  0  0  0  0  0  0  0  0
  151.5991  141.8231  158.2799 C   0  0  0  0  0  0  0  0  0  0  0  0
  150.9919  142.3201  156.9642 C   0  0  0  0  0  0  0  0  0  0  0  0
  150.0694  141.2643  156.3148 C   0  0  1  0  0  0  0  0  0  0  0  0
  149.4812  141.8526  155.0156 C   0  0  0  0  0  0  0  0  0  0  0  0
  150.1689  132.4170  155.3214 N   0  0  0  0  0  0  0  0  0  0  0  0
  149.7345  131.1017  155.1196 O   0  0  0  0  0  0  0  0  0  0  0  0
  147.4061  129.8627  153.1389 H   0  0  0  0  0  0  0  0  0  0  0  0
  148.2121  129.1197  154.5208 H   0  0  0  0  0  0  0  0  0  0  0  0
  149.0396  129.2172  152.9651 H   0  0  0  0  0  0  0  0  0  0  0  0
  148.2517  132.6128  152.6080 H   0  0  0  0  0  0  0  0  0  0  0  0
  149.2412  134.8855  153.3417 H   0  0  0  0  0  0  0  0  0  0  0  0
  149.7910  136.7723  153.5513 H   0  0  0  0  0  0  0  0  0  0  0  0
  151.7371  137.4958  155.6939 H   0  0  0  0  0  0  0  0  0  0  0  0
  151.7323  138.1736  154.0915 H   0  0  0  0  0  0  0  0  0  0  0  0
  149.7835  139.3637  154.3764 H   0  0  0  0  0  0  0  0  0  0  0  0
  148.2413  137.7754  155.3591 H   0  0  0  0  0  0  0  0  0  0  0  0
  148.1859  139.2160  156.3442 H   0  0  0  0  0  0  0  0  0  0  0  0
  149.0778  137.8010  156.9018 H   0  0  0  0  0  0  0  0  0  0  0  0
  150.5682  139.2486  158.1005 H   0  0  0  0  0  0  0  0  0  0  0  0
  151.9302  138.5471  157.2622 H   0  0  0  0  0  0  0  0  0  0  0  0
  152.7133  140.1124  158.9857 H   0  0  0  0  0  0  0  0  0  0  0  0
  153.1889  140.6575  157.3937 H   0  0  0  0  0  0  0  0  0  0  0  0
  150.8130  141.6874  159.0238 H   0  0  0  0  0  0  0  0  0  0  0  0
  152.2879  142.5659  158.6833 H   0  0  0  0  0  0  0  0  0  0  0  0
  150.4355  143.2393  157.1529 H   0  0  0  0  0  0  0  0  0  0  0  0
  151.7936  142.5839  156.2726 H   0  0  0  0  0  0  0  0  0  0  0  0
  149.2415  141.0777  157.0002 H   0  0  0  0  0  0  0  0  0  0  0  0
  149.0991  142.8600  155.1832 H   0  0  0  0  0  0  0  0  0  0  0  0
  148.6378  141.2712  154.6440 H   0  0  0  0  0  0  0  0  0  0  0  0
  150.2326  141.9147  154.2279 H   0  0  0  0  0  0  0  0  0  0  0  0
  151.6144  140.2264  155.5508 H   0  0  0  0  0  0  0  0  0  0  0  0
  1  2  1  0  0  0  0
  1 21  1  0  0  0  0
  1 22  1  0  0  0  0
  1 23  1  0  0  0  0
  2 20  1  0  0  0  0
  2  3  2  0  0  0  0
  3  4  1  0  0  0  0
  3 24  1  0  0  0  0
  4  5  1  0  0  0  0
  4 19  2  0  0  0  0
  5  6  1  0  0  0  0
  5 25  1  0  0  0  0
  6  7  2  0  0  0  0
  6  8  1  0  0  0  0
  8  9  1  0  0  0  0
  8 26  1  0  0  0  0
  9 10  1  0  0  0  0
  9 27  1  0  0  0  0
  9 28  1  0  0  0  0
 10 11  1  0  0  0  0
 10 12  1  0  0  0  0
 10 29  1  0  0  0  0
 11 30  1  0  0  0  0
 11 31  1  0  0  0  0
 11 32  1  0  0  0  0
 12 17  1  0  0  0  0
 12 13  1  0  0  0  0
 12 45  1  0  0  0  0
 13 14  1  0  0  0  0
 13 33  1  0  0  0  0
 13 34  1  0  0  0  0
 14 15  1  0  0  0  0
 14 35  1  0  0  0  0
 14 36  1  0  0  0  0
 15 16  1  0  0  0  0
 15 37  1  0  0  0  0
 15 38  1  0  0  0  0
 16 17  1  0  0  0  0
 16 39  1  0  0  0  0
 16 40  1  0  0  0  0
 17 18  1  0  0  0  0
 17 41  1  0  0  0  0
 18 42  1  0  0  0  0
 18 43  1  0  0  0  0
 18 44  1  0  0  0  0
 19 20  1  0  0  0  0
M  CHG  1  12   1
M  END
> <s_m_source_file>
AV-unprocessed.smi

> <i_m_source_file_index>
1978

> <i_lp_mmshare_version>
43012

> <i_f3d_flags>
0

> <s_epik_input>
W0NIM11jMVtjSF1jKG5vMSlbTkhdQyg9TylbTkhdW0NIMl1bQ0BIXShbQ0gzXSlOMltDSDJdW0NIMl1bQ0gyXVtDSDJdW0NASF0yW0NIM10=

> <s_epik_cmdline>
J2VwaWtfcHl0aG9uJywgJy1waCcsICc3LjAnLCAnLXRuJywgJzgnLCAnLW1hJywgJzIwMCcsICctbWV0YWxfYmluZGluZycsICctaW1hZScsICc8aW5maWxlLm1hZT4nLCAnLW9tYWUnLCAnPG91dGZpbGUubWFlPic=

> <r_epik_Ionization_Penalty>
0.00265971

> <r_epik_Ionization_Penalty_Charging>
0.00262393

> <r_epik_Ionization_Penalty_Neutral>
3.57846e-05

> <r_epik_State_Penalty>
0.00182566

> <r_epik_Charging_Adjusted_Penalty>
0.00444959

> <i_epik_Tot_Q>
1

> <i_epik_Tot_abs_Q>
1

> <r_epik_Metal_State_Penalty>
0.0216344

> <b_epik_Metal_Only>
0

> <s_lp_Force_Field>
OPLS_2005

> <r_lp_Energy>
21.4618

> <b_lp_Chiralities_Consistent>
1

> <s_lp_Variant>
AV-unprocessed.smi:1978-4

> <Gold.Version>
5.8.1

> <Gold.Id.Protein>
6NUR|6NUR_protein|mol2

> <Gold.PLP.Fitness>
36.1094

> <Gold.PLP.PLP>
-31.0808

> <Gold.PLP.part.hbond>
-4.0456

> <Gold.PLP.part.metal>
0.0000

> <Gold.PLP.part.buried>
-2.7192

> <Gold.PLP.part.nonpolar>
-25.2835

> <Gold.PLP.part.repulsive>
0.2475

> <Gold.PLP.ligand.clash>
0.0000

> <Gold.PLP.ligand.torsion>
0.2032

> <Gold.PLP.Chemscore.Hbond>
1.7725

> <Gold.PLP.Chemscore.CHOScore>
0.0000

> <Gold.PLP.Chemscore.Metal>
0.0000

> <Gold.Chemscore.Hbonds>
donor molecule, donor type, donor heavy atom, donor atom, acceptor molecule, acceptor atom, score
      L1  H     5    25       P1  7948  0.65
      L1  H     8    26       P1  7948  1.00
      P1  H 10752 10764       L1     7  0.05

> <Gold.PLP.Chemscore.Internal.Correction>
0.1175

> <Gold.Rescore>
     Score         DG    S(hbond)    S(metal)    S(lipo)     H(rot)  DE(clash)    DE(int)     intcor
     12.35     -13.83       1.42        0.00      64.81       1.55       0.02       1.47       ----

> <Gold.Chemscore.Fitness>
12.3483

> <Gold.Chemscore.DG>
-13.8322

> <Gold.Chemscore.ZeroCoef>
-5.4800

> <Gold.Chemscore.Hbond>
1.4163

> <Gold.Chemscore.Metal>
0.0000

> <Gold.Chemscore.Lipo>
64.8124

> <Gold.Chemscore.Internal_Hbond>
0.0000

> <Gold.Chemscore.DEClash>
0.0166

> <Gold.Chemscore.DEInternal>
1.4674

> <Gold.Chemscore.Rot>
1.5474

> <Gold.Chemscore.Internal.Correction>
   9.000000E+99

> <Gold.Chemscore.Hbonds>
donor molecule, donor type, donor heavy atom, donor atom, acceptor molecule, acceptor atom, score
      L1  H     5    25       P1  7948  0.05
      L1  H     8    26       P1  7948  0.43

> <Gold.Chemscore.Hbond.Weighted>
-4.7304

> <Gold.Chemscore.Metal.Weighted>
-0.0000

> <Gold.Chemscore.Lipo.Weighted>
-7.5831

> <Gold.Chemscore.Internal_Hbond.Weighted>
0.0000

> <Gold.Chemscore.DEClash.Weighted>
0.0166

> <Gold.Chemscore.DEInternal.Weighted>
1.4674

> <Gold.Chemscore.Rot.Weighted>
3.9612

> <Gold.Chemscore.Internal.Correction.Weighted>
   9.000000E+99

> <Gold.Protein.RotatedTorsions>
[ 6907 6896 6895 6894 ] final  130.04 input  -60.11 | X-H torsion
[ 7974 7965 7964 7962 ] final   80.62 input  175.53 | X-H torsion
[ 8008 7997 7996 7995 ] final   48.20 input   59.86 | X-H torsion
[ 10167 10162 10161 10158 ] final  149.55 input  -65.29 | X-H torsion
[ 10718 10713 10712 10709 ] final  174.58 input   66.30 | X-H torsion
[ 10763 10752 10751 10750 ] final  -70.61 input  -60.55 | X-H torsion
[ 11005 11000 10999 10996 ] final  140.09 input  -57.11 | X-H torsion

> <Gold.Protein.ActiveResidues>
 VAL166  LYS551  ARG553  GLY616  TRP617  ASP618  TYR619  PRO620  LYS621  CYS622 
 ASP623  PHE694  ASN695  SER759  ASP760  ASP761  ALA762  ILE779  LEU786  VAL792 
 PHE793  MET794  SER795  GLU796  ALA797  LYS798  CYS799  TRP800  GLU811  SER814 

> <Gold.Protein.RotatedAtoms>
  152.3565  133.6244  159.5983 H   0  0  0  0  0  0  0  0  0  0  0  0  # atno 6907 bound_to 6896
  150.7572  133.9491  159.3489 H   0  0  0  0  0  0  0  0  0  0  0  0  # atno 6908 bound_to 6896
  151.7335  135.0870  160.0355 H   0  0  0  0  0  0  0  0  0  0  0  0  # atno 6909 bound_to 6896
  145.6489  139.2443  143.1988 H   0  0  0  0  0  0  0  0  0  0  0  0  # atno 7974 bound_to 7965
  155.3817  140.3429  155.4247 H   0  0  0  0  0  0  0  0  0  0  0  0  # atno 8008 bound_to 7997
  156.1607  140.1600  156.8650 H   0  0  0  0  0  0  0  0  0  0  0  0  # atno 8009 bound_to 7997
  154.5137  140.0784  156.8021 H   0  0  0  0  0  0  0  0  0  0  0  0  # atno 8010 bound_to 7997
  139.4860  144.5593  151.7261 H   0  0  0  0  0  0  0  0  0  0  0  0  # atno 10167 bound_to 10162
  156.9476  131.0021  151.2955 H   0  0  0  0  0  0  0  0  0  0  0  0  # atno 10718 bound_to 10713
  154.4200  135.5989  153.6004 H   0  0  0  0  0  0  0  0  0  0  0  0  # atno 10763 bound_to 10752
  152.9793  135.5950  154.3966 H   0  0  0  0  0  0  0  0  0  0  0  0  # atno 10764 bound_to 10752
  154.3790  135.2841  155.2201 H   0  0  0  0  0  0  0  0  0  0  0  0  # atno 10765 bound_to 10752
  140.0302  134.9355  157.0647 H   0  0  0  0  0  0  0  0  0  0  0  0  # atno 11005 bound_to 11000
  146.1220  140.7296  142.9453 LP  0  0  0  0  0  0  0  0  0  0  0  0  # atno 17320 bound_to 7965
  144.7130  140.4108  143.7066 LP  0  0  0  0  0  0  0  0  0  0  0  0  # atno 17321 bound_to 7965
  140.5159  144.0953  150.6008 LP  0  0  0  0  0  0  0  0  0  0  0  0  # atno 17342 bound_to 10162
  140.3895  143.2760  152.0077 LP  0  0  0  0  0  0  0  0  0  0  0  0  # atno 17343 bound_to 10162
  157.5744  130.8332  149.8435 LP  0  0  0  0  0  0  0  0  0  0  0  0  # atno 17370 bound_to 10713
  156.0377  130.3747  150.1517 LP  0  0  0  0  0  0  0  0  0  0  0  0  # atno 17371 bound_to 10713
  140.4238  134.1852  155.7165 LP  0  0  0  0  0  0  0  0  0  0  0  0  # atno 17394 bound_to 11000
  141.1826  133.8381  157.1202 LP  0  0  0  0  0  0  0  0  0  0  0  0  # atno 17395 bound_to 11000

$$$$
