AV-unprocessed.smi:240|AV-procd|sdf|1825|dock2
  -GOLD-   2262020423D 1   1.00000     0.00000
 Structure written by MMmdl.
 55 59  0  0  0  0  0  0  0  0  1 V2000
  151.6449  137.7255  153.5523 O   0  0  0  0  0  0  0  0  0  0  0  0
  151.3539  137.5623  154.9255 C   0  0  1  0  0  0  0  0  0  0  0  0
  152.3168  138.3184  155.8386 C   0  0  0  0  0  0  0  0  0  0  0  0
  151.5888  138.3274  157.1813 C   0  0  0  0  0  0  0  0  0  0  0  0
  150.0956  138.4265  156.8385 C   0  0  0  0  0  0  0  0  0  0  0  0
  149.9379  138.0025  155.3588 C   0  0  1  0  0  0  0  0  0  0  0  0
  149.2330  139.0780  154.4652 C   0  0  2  0  0  0  0  0  0  0  0  0
  149.8684  140.4905  154.5747 C   0  0  0  0  0  0  0  0  0  0  0  0
  149.1777  141.4163  153.7436 O   0  0  0  0  0  0  0  0  0  0  0  0
  147.8171  141.5581  154.1262 C   0  0  0  0  0  0  0  0  0  0  0  0
  147.1141  140.2067  153.9515 C   0  0  0  0  0  0  0  0  0  0  0  0
  147.7907  139.1787  154.7349 N   0  0  0  0  0  0  0  0  0  0  0  0
  147.0966  138.0184  154.7131 C   0  0  0  0  0  0  0  0  0  0  0  0
  147.0173  137.2489  155.8308 N   0  0  0  0  0  0  0  0  0  0  0  0
  146.3124  136.1137  155.8074 C   0  0  0  0  0  0  0  0  0  0  0  0
  145.6238  135.5782  154.7961 N   0  0  0  0  0  0  0  0  0  0  0  0
  145.7097  136.3488  153.6733 C   0  0  0  0  0  0  0  0  0  0  0  0
  146.4218  137.5732  153.5473 C   0  0  0  0  0  0  0  0  0  0  0  0
  146.2776  138.0817  152.2634 N   0  0  0  0  0  0  0  0  0  0  0  0
  145.5184  137.2064  151.6624 C   0  0  0  0  0  0  0  0  0  0  0  0
  145.1355  136.1301  152.4326 N   0  0  0  0  0  0  0  0  0  0  0  0
  144.2897  135.0188  152.0241 C   0  0  0  0  0  0  0  0  0  0  0  0
  144.7705  134.3057  150.7365 C   0  0  1  0  0  0  0  0  0  0  0  0
  144.5987  135.1767  149.6330 O   0  0  0  0  0  0  0  0  0  0  0  0
  146.2405  133.8904  150.8209 C   0  0  0  0  0  0  0  0  0  0  0  0
  146.1723  132.3821  151.0228 C   0  0  0  0  0  0  0  0  0  0  0  0
  145.0630  132.0166  150.2227 O   0  0  0  0  0  0  0  0  0  0  0  0
  144.0406  132.9750  150.4577 C   0  0  0  0  0  0  0  0  0  0  0  0
  151.3822  136.9418  153.0939 H   0  0  0  0  0  0  0  0  0  0  0  0
  151.4597  136.4987  155.1458 H   0  0  0  0  0  0  0  0  0  0  0  0
  153.2972  137.8450  155.8981 H   0  0  0  0  0  0  0  0  0  0  0  0
  152.4630  139.3406  155.4892 H   0  0  0  0  0  0  0  0  0  0  0  0
  151.7804  137.3893  157.7037 H   0  0  0  0  0  0  0  0  0  0  0  0
  151.9224  139.1381  157.8294 H   0  0  0  0  0  0  0  0  0  0  0  0
  149.5070  137.7851  157.4954 H   0  0  0  0  0  0  0  0  0  0  0  0
  149.7396  139.4425  157.0068 H   0  0  0  0  0  0  0  0  0  0  0  0
  149.3323  137.0962  155.3278 H   0  0  0  0  0  0  0  0  0  0  0  0
  149.3342  138.7621  153.4257 H   0  0  0  0  0  0  0  0  0  0  0  0
  149.8673  140.8590  155.6006 H   0  0  0  0  0  0  0  0  0  0  0  0
  150.9068  140.4789  154.2486 H   0  0  0  0  0  0  0  0  0  0  0  0
  147.7448  141.9089  155.1572 H   0  0  0  0  0  0  0  0  0  0  0  0
  147.3460  142.3126  153.4961 H   0  0  0  0  0  0  0  0  0  0  0  0
  146.0726  140.2894  154.2654 H   0  0  0  0  0  0  0  0  0  0  0  0
  147.1127  139.9264  152.8969 H   0  0  0  0  0  0  0  0  0  0  0  0
  146.2965  135.5550  156.7314 H   0  0  0  0  0  0  0  0  0  0  0  0
  145.2139  137.3258  150.6327 H   0  0  0  0  0  0  0  0  0  0  0  0
  144.2393  134.3092  152.8512 H   0  0  0  0  0  0  0  0  0  0  0  0
  143.2753  135.3960  151.8869 H   0  0  0  0  0  0  0  0  0  0  0  0
  145.0802  134.8298  148.8975 H   0  0  0  0  0  0  0  0  0  0  0  0
  146.7590  134.0955  149.8825 H   0  0  0  0  0  0  0  0  0  0  0  0
  146.7921  134.3935  151.6158 H   0  0  0  0  0  0  0  0  0  0  0  0
  147.0829  131.8710  150.7098 H   0  0  0  0  0  0  0  0  0  0  0  0
  145.9743  132.1329  152.0667 H   0  0  0  0  0  0  0  0  0  0  0  0
  143.4770  132.6432  151.3297 H   0  0  0  0  0  0  0  0  0  0  0  0
  143.3468  133.0250  149.6176 H   0  0  0  0  0  0  0  0  0  0  0  0
  1  2  1  0  0  0  0
  1 29  1  0  0  0  0
  2  6  1  0  0  0  0
  2  3  1  0  0  0  0
  2 30  1  0  0  0  0
  3  4  1  0  0  0  0
  3 31  1  0  0  0  0
  3 32  1  0  0  0  0
  4  5  1  0  0  0  0
  4 33  1  0  0  0  0
  4 34  1  0  0  0  0
  5  6  1  0  0  0  0
  5 35  1  0  0  0  0
  5 36  1  0  0  0  0
  6  7  1  0  0  0  0
  6 37  1  0  0  0  0
  7 12  1  0  0  0  0
  7  8  1  0  0  0  0
  7 38  1  0  0  0  0
  8  9  1  0  0  0  0
  8 39  1  0  0  0  0
  8 40  1  0  0  0  0
  9 10  1  0  0  0  0
 10 11  1  0  0  0  0
 10 41  1  0  0  0  0
 10 42  1  0  0  0  0
 11 12  1  0  0  0  0
 11 43  1  0  0  0  0
 11 44  1  0  0  0  0
 12 13  1  0  0  0  0
 13 18  1  0  0  0  0
 13 14  2  0  0  0  0
 14 15  1  0  0  0  0
 15 16  2  0  0  0  0
 15 45  1  0  0  0  0
 16 17  1  0  0  0  0
 17 21  1  0  0  0  0
 17 18  2  0  0  0  0
 18 19  1  0  0  0  0
 19 20  2  0  0  0  0
 20 21  1  0  0  0  0
 20 46  1  0  0  0  0
 21 22  1  0  0  0  0
 22 23  1  0  0  0  0
 22 47  1  0  0  0  0
 22 48  1  0  0  0  0
 23 28  1  0  0  0  0
 23 24  1  0  0  0  0
 23 25  1  0  0  0  0
 24 49  1  0  0  0  0
 25 26  1  0  0  0  0
 25 50  1  0  0  0  0
 25 51  1  0  0  0  0
 26 27  1  0  0  0  0
 26 52  1  0  0  0  0
 26 53  1  0  0  0  0
 27 28  1  0  0  0  0
 28 54  1  0  0  0  0
 28 55  1  0  0  0  0
M  END
> <s_m_source_file>
AV-unprocessed.smi

> <i_m_source_file_index>
240

> <i_lp_mmshare_version>
43012

> <i_f3d_flags>
0

> <s_epik_input>
W09IXVtDQEBIXTFbQ0gyXVtDSDJdW0NIMl1bQ0BIXTFbQ0BASF0yW0NIMl1PW0NIMl1bQ0gyXU4yYyhuW2NIXW4zKWMoYzM0KW5bY0hdbjRbQ0gyXVtDQEBdNShbT0hdKVtDSDJdW0NIMl1PW0NIMl01

> <s_epik_cmdline>
J2VwaWtfcHl0aG9uJywgJy1waCcsICc3LjAnLCAnLXRuJywgJzgnLCAnLW1hJywgJzIwMCcsICctbWV0YWxfYmluZGluZycsICctaW1hZScsICc8aW5maWxlLm1hZT4nLCAnLW9tYWUnLCAnPG91dGZpbGUubWFlPic=

> <r_lp_tautomer_probability>
1

> <r_epik_Ionization_Penalty>
0.000130618

> <r_epik_Ionization_Penalty_Charging>
0

> <r_epik_Ionization_Penalty_Neutral>
0.000130618

> <r_epik_State_Penalty>
-0

> <r_epik_Charging_Adjusted_Penalty>
0

> <i_epik_Tot_Q>
0

> <i_epik_Tot_abs_Q>
0

> <r_epik_Metal_State_Penalty>
-0

> <b_epik_Metal_Only>
0

> <s_lp_Force_Field>
OPLS_2005

> <r_lp_Energy>
64.9026

> <b_lp_Chiralities_Consistent>
1

> <s_lp_Variant>
AV-unprocessed.smi:240-2

> <Gold.Version>
5.8.1

> <Gold.Id.Protein>
6NUR|6NUR_protein|mol2

> <Gold.PLP.Fitness>
44.1190

> <Gold.PLP.PLP>
-34.7185

> <Gold.PLP.part.hbond>
-3.7537

> <Gold.PLP.part.metal>
0.0000

> <Gold.PLP.part.buried>
-3.8209

> <Gold.PLP.part.nonpolar>
-28.3277

> <Gold.PLP.part.repulsive>
1.5666

> <Gold.PLP.ligand.clash>
0.0000

> <Gold.PLP.ligand.torsion>
0.9239

> <Gold.PLP.Chemscore.Hbond>
2.7280

> <Gold.PLP.Chemscore.CHOScore>
0.9561

> <Gold.PLP.Chemscore.Metal>
0.0000

> <Gold.Chemscore.Hbonds>
donor molecule, donor type, donor heavy atom, donor atom, acceptor molecule, acceptor atom, score
      L1  H     1    29       P1  7949  0.99
      L1  H    24    49       P1  7921  1.00
      P1  H  8011  8017       L1     9  0.80
      L1  C    20    46       P1 10171  0.96

> <Gold.PLP.Chemscore.Internal.Correction>
0.1959

> <Gold.Rescore>
     Score         DG    S(hbond)    S(metal)    S(lipo)     H(rot)  DE(clash)    DE(int)     intcor
     11.96     -15.51       2.49        0.00      80.28       3.00       1.39       2.17       ----

> <Gold.Chemscore.Fitness>
11.9585

> <Gold.Chemscore.DG>
-15.5110

> <Gold.Chemscore.ZeroCoef>
-5.4800

> <Gold.Chemscore.Hbond>
2.4934

> <Gold.Chemscore.Metal>
0.0000

> <Gold.Chemscore.Lipo>
80.2827

> <Gold.Chemscore.Internal_Hbond>
0.0000

> <Gold.Chemscore.DEClash>
1.3856

> <Gold.Chemscore.DEInternal>
2.1669

> <Gold.Chemscore.Rot>
3.0039

> <Gold.Chemscore.Internal.Correction>
   9.000000E+99

> <Gold.Chemscore.Hbonds>
donor molecule, donor type, donor heavy atom, donor atom, acceptor molecule, acceptor atom, score
      L1  H     1    29       P1  7949  0.78
      L1  H    24    49       P1  7921  0.99
      P1  H  8011  8017       L1     9  0.76

> <Gold.Chemscore.Hbond.Weighted>
-8.3279

> <Gold.Chemscore.Metal.Weighted>
-0.0000

> <Gold.Chemscore.Lipo.Weighted>
-9.3931

> <Gold.Chemscore.Internal_Hbond.Weighted>
0.0000

> <Gold.Chemscore.DEClash.Weighted>
1.3856

> <Gold.Chemscore.DEInternal.Weighted>
2.1669

> <Gold.Chemscore.Rot.Weighted>
7.6899

> <Gold.Chemscore.Internal.Correction.Weighted>
   9.000000E+99

> <Gold.Protein.RotatedTorsions>
[ 6907 6896 6895 6894 ] final -164.13 input  -60.11 | X-H torsion
[ 7974 7965 7964 7962 ] final   28.22 input  175.53 | X-H torsion
[ 8008 7997 7996 7995 ] final  142.21 input   59.86 | X-H torsion
[ 10167 10162 10161 10158 ] final -154.82 input  -65.29 | X-H torsion
[ 10718 10713 10712 10709 ] final  -51.16 input   66.30 | X-H torsion
[ 10763 10752 10751 10750 ] final   16.67 input  -60.55 | X-H torsion
[ 11005 11000 10999 10996 ] final  -70.16 input  -57.11 | X-H torsion

> <Gold.Protein.ActiveResidues>
 VAL166  LYS551  ARG553  GLY616  TRP617  ASP618  TYR619  PRO620  LYS621  CYS622 
 ASP623  PHE694  ASN695  SER759  ASP760  ASP761  ALA762  ILE779  LEU786  VAL792 
 PHE793  MET794  SER795  GLU796  ALA797  LYS798  CYS799  TRP800  GLU811  SER814 

> <Gold.Protein.RotatedAtoms>
  151.4070  133.3739  159.2738 H   0  0  0  0  0  0  0  0  0  0  0  0  # atno 6907 bound_to 6896
  150.9391  134.8803  159.7611 H   0  0  0  0  0  0  0  0  0  0  0  0  # atno 6908 bound_to 6896
  152.5063  134.4019  159.9471 H   0  0  0  0  0  0  0  0  0  0  0  0  # atno 6909 bound_to 6896
  146.1741  139.7085  142.8947 H   0  0  0  0  0  0  0  0  0  0  0  0  # atno 7974 bound_to 7965
  156.2953  140.2295  156.4691 H   0  0  0  0  0  0  0  0  0  0  0  0  # atno 8008 bound_to 7997
  154.7951  140.0452  157.1251 H   0  0  0  0  0  0  0  0  0  0  0  0  # atno 8009 bound_to 7997
  154.9599  140.3053  155.5039 H   0  0  0  0  0  0  0  0  0  0  0  0  # atno 8010 bound_to 7997
  139.6982  143.9308  152.2416 H   0  0  0  0  0  0  0  0  0  0  0  0  # atno 10167 bound_to 10162
  156.1735  130.4149  149.9612 H   0  0  0  0  0  0  0  0  0  0  0  0  # atno 10718 bound_to 10713
  153.1409  135.6759  153.9029 H   0  0  0  0  0  0  0  0  0  0  0  0  # atno 10763 bound_to 10752
  153.8486  135.3096  155.3432 H   0  0  0  0  0  0  0  0  0  0  0  0  # atno 10764 bound_to 10752
  154.7786  135.4900  153.9881 H   0  0  0  0  0  0  0  0  0  0  0  0  # atno 10765 bound_to 10752
  141.1568  133.6782  156.6709 H   0  0  0  0  0  0  0  0  0  0  0  0  # atno 11005 bound_to 11000
  145.4260  141.0411  143.2937 LP  0  0  0  0  0  0  0  0  0  0  0  0  # atno 17320 bound_to 7965
  144.8208  139.5795  143.6987 LP  0  0  0  0  0  0  0  0  0  0  0  0  # atno 17321 bound_to 7965
  139.9143  144.6838  150.8529 LP  0  0  0  0  0  0  0  0  0  0  0  0  # atno 17342 bound_to 10162
  140.7702  143.3421  151.2187 LP  0  0  0  0  0  0  0  0  0  0  0  0  # atno 17343 bound_to 10162
  156.7405  130.9077  151.3632 LP  0  0  0  0  0  0  0  0  0  0  0  0  # atno 17370 bound_to 10713
  157.6819  130.9148  150.0289 LP  0  0  0  0  0  0  0  0  0  0  0  0  # atno 17371 bound_to 10713
  140.3175  134.8035  157.4226 LP  0  0  0  0  0  0  0  0  0  0  0  0  # atno 17394 bound_to 11000
  140.1125  134.5326  155.8253 LP  0  0  0  0  0  0  0  0  0  0  0  0  # atno 17395 bound_to 11000

$$$$
