AV-unprocessed.smi:1472|AV-procd|sdf|5964|dock3
  -GOLD-   22720 6 53D 1   1.00000     0.00000
 Structure written by MMmdl.
 41 42  0  0  0  0  0  0  0  0  1 V2000
  151.0677  142.1864  156.7890 C   0  0  0  0  0  0  0  0  0  0  0  0
  149.5472  141.1637  156.6348 S   0  0  0  0  0  0  0  0  0  0  0  0
  149.8060  139.8589  157.2626 O   0  0  0  0  0  0  0  0  0  0  0  0
  148.4029  141.9730  157.0810 O   0  0  0  0  0  0  0  0  0  0  0  0
  149.3813  140.9067  154.9218 N   0  0  0  0  0  0  0  0  0  0  0  0
  149.7469  139.6033  154.3333 C   0  0  0  0  0  0  0  0  0  0  0  0
  148.5063  138.7408  154.0418 C   0  0  0  0  0  0  0  0  0  0  0  0
  147.4818  139.4928  153.1721 C   0  0  0  0  0  0  0  0  0  0  0  0
  146.2172  138.6562  152.8815 C   0  0  0  0  0  0  0  0  0  0  0  0
  146.5236  137.3619  152.2799 N   0  0  0  0  0  0  0  0  0  0  0  0
  145.6145  136.4465  151.9152 C   0  0  0  0  0  0  0  0  0  0  0  0
  144.4026  136.5990  152.0663 O   0  0  0  0  0  0  0  0  0  0  0  0
  146.2052  135.3592  151.3891 N   0  0  0  0  0  0  0  0  0  0  0  0
  145.6027  134.1881  150.8535 C   0  0  0  0  0  0  0  0  0  0  0  0
  146.4569  133.1643  150.3937 C   0  0  0  0  0  0  0  0  0  0  0  0
  145.8865  131.9997  149.8421 C   0  0  0  0  0  0  0  0  0  0  0  0
  144.5556  131.8124  149.7199 N   0  0  0  0  0  0  0  0  0  0  0  0
  143.7396  132.7989  150.1473 C   0  0  0  0  0  0  0  0  0  0  0  0
  144.2061  134.0018  150.7143 C   0  0  0  0  0  0  0  0  0  0  0  0
  147.1225  140.8165  153.8658 C   0  0  0  0  0  0  0  0  0  0  0  0
  148.3729  141.6653  154.1561 C   0  0  0  0  0  0  0  0  0  0  0  0
  151.2508  142.3935  157.8429 H   0  0  0  0  0  0  0  0  0  0  0  0
  150.9354  143.1293  156.2613 H   0  0  0  0  0  0  0  0  0  0  0  0
  151.9207  141.6467  156.3820 H   0  0  0  0  0  0  0  0  0  0  0  0
  150.2898  139.7857  153.4052 H   0  0  0  0  0  0  0  0  0  0  0  0
  150.4332  139.0694  154.9901 H   0  0  0  0  0  0  0  0  0  0  0  0
  148.8264  137.8261  153.5423 H   0  0  0  0  0  0  0  0  0  0  0  0
  148.0396  138.4284  154.9750 H   0  0  0  0  0  0  0  0  0  0  0  0
  147.9571  139.7354  152.2202 H   0  0  0  0  0  0  0  0  0  0  0  0
  145.6704  138.4749  153.8073 H   0  0  0  0  0  0  0  0  0  0  0  0
  145.5386  139.2088  152.2293 H   0  0  0  0  0  0  0  0  0  0  0  0
  147.4989  137.1526  152.1252 H   0  0  0  0  0  0  0  0  0  0  0  0
  147.2142  135.3508  151.4108 H   0  0  0  0  0  0  0  0  0  0  0  0
  147.5302  133.2621  150.4649 H   0  0  0  0  0  0  0  0  0  0  0  0
  146.5172  131.1981  149.4876 H   0  0  0  0  0  0  0  0  0  0  0  0
  142.6800  132.6279  150.0282 H   0  0  0  0  0  0  0  0  0  0  0  0
  143.4906  134.7510  151.0148 H   0  0  0  0  0  0  0  0  0  0  0  0
  146.4384  141.3892  153.2386 H   0  0  0  0  0  0  0  0  0  0  0  0
  146.5849  140.6151  154.7916 H   0  0  0  0  0  0  0  0  0  0  0  0
  148.0981  142.5761  154.6873 H   0  0  0  0  0  0  0  0  0  0  0  0
  148.8237  141.9837  153.2155 H   0  0  0  0  0  0  0  0  0  0  0  0
  1  2  1  0  0  0  0
  1 22  1  0  0  0  0
  1 23  1  0  0  0  0
  1 24  1  0  0  0  0
  2  3  2  0  0  0  0
  2  4  2  0  0  0  0
  2  5  1  0  0  0  0
  5 21  1  0  0  0  0
  5  6  1  0  0  0  0
  6  7  1  0  0  0  0
  6 25  1  0  0  0  0
  6 26  1  0  0  0  0
  7  8  1  0  0  0  0
  7 27  1  0  0  0  0
  7 28  1  0  0  0  0
  8  9  1  0  0  0  0
  8 20  1  0  0  0  0
  8 29  1  0  0  0  0
  9 10  1  0  0  0  0
  9 30  1  0  0  0  0
  9 31  1  0  0  0  0
 10 11  1  0  0  0  0
 10 32  1  0  0  0  0
 11 12  2  0  0  0  0
 11 13  1  0  0  0  0
 13 14  1  0  0  0  0
 13 33  1  0  0  0  0
 14 19  1  0  0  0  0
 14 15  2  0  0  0  0
 15 16  1  0  0  0  0
 15 34  1  0  0  0  0
 16 17  2  0  0  0  0
 16 35  1  0  0  0  0
 17 18  1  0  0  0  0
 18 19  2  0  0  0  0
 18 36  1  0  0  0  0
 19 37  1  0  0  0  0
 20 21  1  0  0  0  0
 20 38  1  0  0  0  0
 20 39  1  0  0  0  0
 21 40  1  0  0  0  0
 21 41  1  0  0  0  0
M  END
> <s_m_source_file>
AV-unprocessed.smi

> <i_m_source_file_index>
1472

> <i_lp_mmshare_version>
43012

> <i_f3d_flags>
0

> <s_epik_input>
W0NIM11TKD1PKSg9TylOMVtDSDJdW0NIMl1bQ0hdKFtDSDJdW0NIMl0xKVtDSDJdW05IXUMoPU8pW05IXWMyW2NIXVtjSF1uW2NIXVtjSF0y

> <s_epik_cmdline>
J2VwaWtfcHl0aG9uJywgJy1waCcsICc3LjAnLCAnLXRuJywgJzgnLCAnLW1hJywgJzIwMCcsICctbWV0YWxfYmluZGluZycsICctaW1hZScsICc8aW5maWxlLm1hZT4nLCAnLW9tYWUnLCAnPG91dGZpbGUubWFlPic=

> <r_epik_Ionization_Penalty>
0.115464

> <r_epik_Ionization_Penalty_Charging>
0

> <r_epik_Ionization_Penalty_Neutral>
0.115464

> <r_epik_State_Penalty>
0.105063

> <r_epik_Charging_Adjusted_Penalty>
0.105063

> <i_epik_Tot_Q>
0

> <i_epik_Tot_abs_Q>
0

> <r_epik_Metal_State_Penalty>
0.0877879

> <b_epik_Metal_Only>
0

> <s_lp_Force_Field>
OPLS_2005

> <r_lp_Energy>
7.04119

> <b_lp_Chiralities_Consistent>
1

> <s_lp_Variant>
AV-unprocessed.smi:1472-1

> <Gold.Version>
5.8.1

> <Gold.Id.Protein>
6NUR|6NUR_protein|mol2

> <Gold.PLP.Fitness>
50.0769

> <Gold.PLP.PLP>
-38.3773

> <Gold.PLP.part.hbond>
-2.9046

> <Gold.PLP.part.metal>
0.0000

> <Gold.PLP.part.buried>
-3.1277

> <Gold.PLP.part.nonpolar>
-33.9240

> <Gold.PLP.part.repulsive>
1.5373

> <Gold.PLP.ligand.clash>
0.0000

> <Gold.PLP.ligand.torsion>
1.0357

> <Gold.PLP.Chemscore.Hbond>
2.0832

> <Gold.PLP.Chemscore.CHOScore>
1.8228

> <Gold.PLP.Chemscore.Metal>
0.0000

> <Gold.Chemscore.Hbonds>
donor molecule, donor type, donor heavy atom, donor atom, acceptor molecule, acceptor atom, score
      L1  H    10    32       P1  7948  1.00
      L1  H    13    33       P1  7948  1.00
      P1  H 10785 10796       L1    17  0.10
      L1  C    16    35       P1 10747  0.77
      L1  C    18    36       P1 10186  0.90

> <Gold.PLP.Chemscore.Internal.Correction>
2.0529

> <Gold.Rescore>
     Score         DG    S(hbond)    S(metal)    S(lipo)     H(rot)  DE(clash)    DE(int)     intcor
     16.70     -19.01       1.96        0.00      87.95       1.29       0.08       2.23       ----

> <Gold.Chemscore.Fitness>
16.7007

> <Gold.Chemscore.DG>
-19.0097

> <Gold.Chemscore.ZeroCoef>
-5.4800

> <Gold.Chemscore.Hbond>
1.9564

> <Gold.Chemscore.Metal>
0.0000

> <Gold.Chemscore.Lipo>
87.9481

> <Gold.Chemscore.Internal_Hbond>
0.0000

> <Gold.Chemscore.DEClash>
0.0777

> <Gold.Chemscore.DEInternal>
2.2312

> <Gold.Chemscore.Rot>
1.2869

> <Gold.Chemscore.Internal.Correction>
   9.000000E+99

> <Gold.Chemscore.Hbonds>
donor molecule, donor type, donor heavy atom, donor atom, acceptor molecule, acceptor atom, score
      L1  H    10    32       P1  7948  1.00
      L1  H    13    33       P1  7948  0.86
      P1  H 10785 10796       L1    17  0.07

> <Gold.Chemscore.Hbond.Weighted>
-6.5343

> <Gold.Chemscore.Metal.Weighted>
-0.0000

> <Gold.Chemscore.Lipo.Weighted>
-10.2899

> <Gold.Chemscore.Internal_Hbond.Weighted>
0.0000

> <Gold.Chemscore.DEClash.Weighted>
0.0777

> <Gold.Chemscore.DEInternal.Weighted>
2.2312

> <Gold.Chemscore.Rot.Weighted>
3.2946

> <Gold.Chemscore.Internal.Correction.Weighted>
   9.000000E+99

> <Gold.Protein.RotatedTorsions>
[ 6907 6896 6895 6894 ] final   38.70 input  -60.11 | X-H torsion
[ 7974 7965 7964 7962 ] final -172.91 input  175.53 | X-H torsion
[ 8008 7997 7996 7995 ] final  -68.87 input   59.86 | X-H torsion
[ 10167 10162 10161 10158 ] final  -54.20 input  -65.29 | X-H torsion
[ 10718 10713 10712 10709 ] final   -6.71 input   66.30 | X-H torsion
[ 10763 10752 10751 10750 ] final -140.94 input  -60.55 | X-H torsion
[ 11005 11000 10999 10996 ] final -127.15 input  -57.11 | X-H torsion

> <Gold.Protein.ActiveResidues>
 VAL166  LYS551  ARG553  GLY616  TRP617  ASP618  TYR619  PRO620  LYS621  CYS622 
 ASP623  PHE694  ASN695  SER759  ASP760  ASP761  ALA762  ILE779  LEU786  VAL792 
 PHE793  MET794  SER795  GLU796  ALA797  LYS798  CYS799  TRP800  GLU811  SER814 

> <Gold.Protein.RotatedAtoms>
  152.1599  134.8921  160.0542 H   0  0  0  0  0  0  0  0  0  0  0  0  # atno 6907 bound_to 6896
  151.9921  133.3789  159.4156 H   0  0  0  0  0  0  0  0  0  0  0  0  # atno 6908 bound_to 6896
  150.6886  134.3848  159.5094 H   0  0  0  0  0  0  0  0  0  0  0  0  # atno 6909 bound_to 6896
  144.7142  140.1701  143.6368 H   0  0  0  0  0  0  0  0  0  0  0  0  # atno 7974 bound_to 7965
  154.4898  140.0864  156.7569 H   0  0  0  0  0  0  0  0  0  0  0  0  # atno 8008 bound_to 7997
  155.4258  140.3447  155.4257 H   0  0  0  0  0  0  0  0  0  0  0  0  # atno 8009 bound_to 7997
  156.1314  140.1502  156.9048 H   0  0  0  0  0  0  0  0  0  0  0  0  # atno 8010 bound_to 7997
  140.6443  143.2526  151.4902 H   0  0  0  0  0  0  0  0  0  0  0  0  # atno 10167 bound_to 10162
  156.7280  130.5171  149.5852 H   0  0  0  0  0  0  0  0  0  0  0  0  # atno 10718 bound_to 10713
  154.8562  135.3538  154.5788 H   0  0  0  0  0  0  0  0  0  0  0  0  # atno 10763 bound_to 10752
  153.6400  135.6998  153.5250 H   0  0  0  0  0  0  0  0  0  0  0  0  # atno 10764 bound_to 10752
  153.2979  135.4215  155.1185 H   0  0  0  0  0  0  0  0  0  0  0  0  # atno 10765 bound_to 10752
  140.9623  134.0920  157.3956 H   0  0  0  0  0  0  0  0  0  0  0  0  # atno 11005 bound_to 11000
  145.8952  139.2398  143.1526 LP  0  0  0  0  0  0  0  0  0  0  0  0  # atno 17320 bound_to 7965
  145.9865  140.8639  143.0088 LP  0  0  0  0  0  0  0  0  0  0  0  0  # atno 17321 bound_to 7965
  139.5653  144.2057  152.1755 LP  0  0  0  0  0  0  0  0  0  0  0  0  # atno 17342 bound_to 10162
  140.1337  144.5265  150.6787 LP  0  0  0  0  0  0  0  0  0  0  0  0  # atno 17343 bound_to 10162
  156.1549  130.6335  151.0644 LP  0  0  0  0  0  0  0  0  0  0  0  0  # atno 17370 bound_to 10713
  157.6871  131.0821  150.7213 LP  0  0  0  0  0  0  0  0  0  0  0  0  # atno 17371 bound_to 10713
  139.8882  135.0096  156.6607 LP  0  0  0  0  0  0  0  0  0  0  0  0  # atno 17394 bound_to 11000
  140.7450  133.8945  155.8305 LP  0  0  0  0  0  0  0  0  0  0  0  0  # atno 17395 bound_to 11000

$$$$
