AV-unprocessed.smi:1893|AV-procd|sdf|7678|dock9
  -GOLD-   22720 9423D 1   1.00000     0.00000
 Structure written by MMmdl.
 43 44  0  0  0  0  0  0  0  0  2 V2000
  145.9406  136.2194  153.7295 C   0  0  0  0  0  0  0  0  0  0  0  0
  145.8622  134.9593  152.8414 C   0  0  1  0  0  0  0  0  0  0  0  0
  145.2676  135.3655  151.4736 C   0  0  0  0  0  0  0  0  0  0  0  0
  145.1539  134.1773  150.5163 C   0  0  0  0  0  0  0  0  0  0  0  0
  146.5263  133.5246  150.3600 C   0  0  0  0  0  0  0  0  0  0  0  0
  147.0833  133.1147  151.7297 C   0  0  0  0  0  0  0  0  0  0  0  0
  147.1855  134.2728  152.6653 N   0  3  2  0  0  0  0  0  0  0  0  0
  147.8506  133.8845  153.9431 C   0  0  0  0  0  0  0  0  0  0  0  0
  149.3815  133.7836  153.8151 C   0  0  0  0  0  0  0  0  0  0  0  0
  149.8260  132.4183  154.0574 N   0  0  0  0  0  0  0  0  0  0  0  0
  150.5262  132.0296  155.1338 C   0  0  0  0  0  0  0  0  0  0  0  0
  150.8751  132.8078  156.0223 O   0  0  0  0  0  0  0  0  0  0  0  0
  150.8736  130.5349  155.2134 C   0  0  1  0  0  0  0  0  0  0  0  0
  150.1493  129.6924  154.1468 C   0  0  0  0  0  0  0  0  0  0  0  0
  152.3161  130.3503  155.1351 N   0  0  0  0  0  0  0  0  0  0  0  0
  153.0614  129.6082  154.3109 C   0  0  0  0  0  0  0  0  0  0  0  0
  154.3646  129.7027  154.5342 N   0  0  0  0  0  0  0  0  0  0  0  0
  154.3535  130.5788  155.5822 C   0  0  0  0  0  0  0  0  0  0  0  0
  153.1528  131.0020  155.9778 N   0  0  0  0  0  0  0  0  0  0  0  0
  145.0118  136.7886  153.6794 H   0  0  0  0  0  0  0  0  0  0  0  0
  146.7467  136.8820  153.4124 H   0  0  0  0  0  0  0  0  0  0  0  0
  146.0854  135.9815  154.7825 H   0  0  0  0  0  0  0  0  0  0  0  0
  145.1778  134.2529  153.3144 H   0  0  0  0  0  0  0  0  0  0  0  0
  144.2802  135.8082  151.6106 H   0  0  0  0  0  0  0  0  0  0  0  0
  145.8886  136.1381  151.0172 H   0  0  0  0  0  0  0  0  0  0  0  0
  144.4362  133.4524  150.9026 H   0  0  0  0  0  0  0  0  0  0  0  0
  144.7787  134.5065  149.5468 H   0  0  0  0  0  0  0  0  0  0  0  0
  146.4512  132.6514  149.7111 H   0  0  0  0  0  0  0  0  0  0  0  0
  147.2145  134.2162  149.8717 H   0  0  0  0  0  0  0  0  0  0  0  0
  146.4496  132.3446  152.1728 H   0  0  0  0  0  0  0  0  0  0  0  0
  148.0582  132.6596  151.5671 H   0  0  0  0  0  0  0  0  0  0  0  0
  147.6622  134.6221  154.7192 H   0  0  0  0  0  0  0  0  0  0  0  0
  147.4291  132.9456  154.3060 H   0  0  0  0  0  0  0  0  0  0  0  0
  149.7241  134.0709  152.8216 H   0  0  0  0  0  0  0  0  0  0  0  0
  149.8573  134.4564  154.5307 H   0  0  0  0  0  0  0  0  0  0  0  0
  149.5782  131.7192  153.3718 H   0  0  0  0  0  0  0  0  0  0  0  0
  150.5403  130.1787  156.1901 H   0  0  0  0  0  0  0  0  0  0  0  0
  149.0674  129.8117  154.2163 H   0  0  0  0  0  0  0  0  0  0  0  0
  150.3693  128.6324  154.2758 H   0  0  0  0  0  0  0  0  0  0  0  0
  150.4508  129.9700  153.1358 H   0  0  0  0  0  0  0  0  0  0  0  0
  152.6421  128.9895  153.5308 H   0  0  0  0  0  0  0  0  0  0  0  0
  155.2578  130.9191  156.0652 H   0  0  0  0  0  0  0  0  0  0  0  0
  147.7915  134.9505  152.2252 H   0  0  0  0  0  0  0  0  0  0  0  0
  1  2  1  0  0  0  0
  1 20  1  0  0  0  0
  1 21  1  0  0  0  0
  1 22  1  0  0  0  0
  2  7  1  0  0  0  0
  2  3  1  0  0  0  0
  2 23  1  0  0  0  0
  3  4  1  0  0  0  0
  3 24  1  0  0  0  0
  3 25  1  0  0  0  0
  4  5  1  0  0  0  0
  4 26  1  0  0  0  0
  4 27  1  0  0  0  0
  5  6  1  0  0  0  0
  5 28  1  0  0  0  0
  5 29  1  0  0  0  0
  6  7  1  0  0  0  0
  6 30  1  0  0  0  0
  6 31  1  0  0  0  0
  7  8  1  0  0  0  0
  7 43  1  0  0  0  0
  8  9  1  0  0  0  0
  8 32  1  0  0  0  0
  8 33  1  0  0  0  0
  9 10  1  0  0  0  0
  9 34  1  0  0  0  0
  9 35  1  0  0  0  0
 10 11  1  0  0  0  0
 10 36  1  0  0  0  0
 11 12  2  0  0  0  0
 11 13  1  0  0  0  0
 13 14  1  0  0  0  0
 13 15  1  0  0  0  0
 13 37  1  0  0  0  0
 14 38  1  0  0  0  0
 14 39  1  0  0  0  0
 14 40  1  0  0  0  0
 15 19  1  0  0  0  0
 15 16  1  0  0  0  0
 16 17  2  0  0  0  0
 16 41  1  0  0  0  0
 17 18  1  0  0  0  0
 18 19  2  0  0  0  0
 18 42  1  0  0  0  0
M  CHG  1   7   1
M  END
> <s_m_source_file>
AV-unprocessed.smi

> <i_m_source_file_index>
1893

> <i_lp_mmshare_version>
43012

> <i_f3d_flags>
0

> <s_epik_input>
W0NIM11bQ0BASF0xW0NIMl1bQ0gyXVtDSDJdW0NIMl1OMVtDSDJdW0NIMl1bTkhdQyg9TylbQ0BIXShbQ0gzXSluMltjSF1uW2NIXW4y

> <s_epik_cmdline>
J2VwaWtfcHl0aG9uJywgJy1waCcsICc3LjAnLCAnLXRuJywgJzgnLCAnLW1hJywgJzIwMCcsICctbWV0YWxfYmluZGluZycsICctaW1hZScsICc8aW5maWxlLm1hZT4nLCAnLW9tYWUnLCAnPG91dGZpbGUubWFlPic=

> <r_lp_tautomer_probability>
1

> <r_epik_Ionization_Penalty>
0.00266409

> <r_epik_Ionization_Penalty_Charging>
0.00265606

> <r_epik_Ionization_Penalty_Neutral>
8.02794e-06

> <r_epik_State_Penalty>
0.00184955

> <r_epik_Charging_Adjusted_Penalty>
0.00450561

> <i_epik_Tot_Q>
1

> <i_epik_Tot_abs_Q>
1

> <r_epik_Metal_State_Penalty>
-0

> <b_epik_Metal_Only>
0

> <s_lp_Force_Field>
OPLS_2005

> <r_lp_Energy>
26.1161

> <b_lp_Chiralities_Consistent>
1

> <s_lp_Variant>
AV-unprocessed.smi:1893-8

> <Gold.Version>
5.8.1

> <Gold.Id.Protein>
6NUR|6NUR_protein|mol2

> <Gold.PLP.Fitness>
37.9593

> <Gold.PLP.PLP>
-30.5448

> <Gold.PLP.part.hbond>
-1.0000

> <Gold.PLP.part.metal>
0.0000

> <Gold.PLP.part.buried>
-2.5485

> <Gold.PLP.part.nonpolar>
-26.3322

> <Gold.PLP.part.repulsive>
0.0600

> <Gold.PLP.ligand.clash>
0.1292

> <Gold.PLP.ligand.torsion>
0.7873

> <Gold.PLP.Chemscore.Hbond>
2.0000

> <Gold.PLP.Chemscore.CHOScore>
1.0000

> <Gold.PLP.Chemscore.Metal>
0.0000

> <Gold.Chemscore.Hbonds>
donor molecule, donor type, donor heavy atom, donor atom, acceptor molecule, acceptor atom, score
      L1  H     7    43       P1  7948  2.00
      L1  C    16    41       P1 10737  0.59

> <Gold.PLP.Chemscore.Internal.Correction>
0.1182

> <Gold.Rescore>
     Score         DG    S(hbond)    S(metal)    S(lipo)     H(rot)  DE(clash)    DE(int)     intcor
      5.87      -7.81       0.97        0.00      47.84       2.54       0.09       1.85       ----

> <Gold.Chemscore.Fitness>
5.8727

> <Gold.Chemscore.DG>
-7.8125

> <Gold.Chemscore.ZeroCoef>
-5.4800

> <Gold.Chemscore.Hbond>
0.9676

> <Gold.Chemscore.Metal>
0.0000

> <Gold.Chemscore.Lipo>
47.8394

> <Gold.Chemscore.Internal_Hbond>
0.0000

> <Gold.Chemscore.DEClash>
0.0899

> <Gold.Chemscore.DEInternal>
1.8500

> <Gold.Chemscore.Rot>
2.5377

> <Gold.Chemscore.Internal.Correction>
   9.000000E+99

> <Gold.Chemscore.Hbonds>
donor molecule, donor type, donor heavy atom, donor atom, acceptor molecule, acceptor atom, score
      L1  H     7    43       P1  7948  0.82

> <Gold.Chemscore.Hbond.Weighted>
-3.2319

> <Gold.Chemscore.Metal.Weighted>
-0.0000

> <Gold.Chemscore.Lipo.Weighted>
-5.5972

> <Gold.Chemscore.Internal_Hbond.Weighted>
0.0000

> <Gold.Chemscore.DEClash.Weighted>
0.0899

> <Gold.Chemscore.DEInternal.Weighted>
1.8500

> <Gold.Chemscore.Rot.Weighted>
6.4966

> <Gold.Chemscore.Internal.Correction.Weighted>
   9.000000E+99

> <Gold.Protein.RotatedTorsions>
[ 6907 6896 6895 6894 ] final  110.51 input  -60.11 | X-H torsion
[ 7974 7965 7964 7962 ] final -142.13 input  175.53 | X-H torsion
[ 8008 7997 7996 7995 ] final   60.00 input   59.86 | X-H torsion
[ 10167 10162 10161 10158 ] final -121.34 input  -65.29 | X-H torsion
[ 10718 10713 10712 10709 ] final  178.11 input   66.30 | X-H torsion
[ 10763 10752 10751 10750 ] final  149.32 input  -60.55 | X-H torsion
[ 11005 11000 10999 10996 ] final   -4.13 input  -57.11 | X-H torsion

> <Gold.Protein.ActiveResidues>
 VAL166  LYS551  ARG553  GLY616  TRP617  ASP618  TYR619  PRO620  LYS621  CYS622 
 ASP623  PHE694  ASN695  SER759  ASP760  ASP761  ALA762  ILE779  LEU786  VAL792 
 PHE793  MET794  SER795  GLU796  ALA797  LYS798  CYS799  TRP800  GLU811  SER814 

> <Gold.Protein.RotatedAtoms>
  152.5016  133.8790  159.7336 H   0  0  0  0  0  0  0  0  0  0  0  0  # atno 6907 bound_to 6896
  150.9257  133.6818  159.2828 H   0  0  0  0  0  0  0  0  0  0  0  0  # atno 6908 bound_to 6896
  151.4179  135.0998  159.9657 H   0  0  0  0  0  0  0  0  0  0  0  0  # atno 6909 bound_to 6896
  144.8466  140.5995  143.5417 H   0  0  0  0  0  0  0  0  0  0  0  0  # atno 7974 bound_to 7965
  155.5752  140.3490  155.4525 H   0  0  0  0  0  0  0  0  0  0  0  0  # atno 8008 bound_to 7997
  156.0414  140.1297  157.0176 H   0  0  0  0  0  0  0  0  0  0  0  0  # atno 8009 bound_to 7997
  154.4394  140.1023  156.6229 H   0  0  0  0  0  0  0  0  0  0  0  0  # atno 8010 bound_to 7997
  140.0261  143.5295  152.2198 H   0  0  0  0  0  0  0  0  0  0  0  0  # atno 10167 bound_to 10162
  156.8954  130.9861  151.3043 H   0  0  0  0  0  0  0  0  0  0  0  0  # atno 10718 bound_to 10713
  154.0693  135.2868  155.3311 H   0  0  0  0  0  0  0  0  0  0  0  0  # atno 10763 bound_to 10752
  154.6757  135.5282  153.8200 H   0  0  0  0  0  0  0  0  0  0  0  0  # atno 10764 bound_to 10752
  153.0491  135.6569  154.0876 H   0  0  0  0  0  0  0  0  0  0  0  0  # atno 10765 bound_to 10752
  140.6769  133.9187  155.8530 H   0  0  0  0  0  0  0  0  0  0  0  0  # atno 11005 bound_to 11000
  145.4584  139.1515  143.3880 LP  0  0  0  0  0  0  0  0  0  0  0  0  # atno 17320 bound_to 7965
  146.2749  140.4713  142.8799 LP  0  0  0  0  0  0  0  0  0  0  0  0  # atno 17321 bound_to 7965
  139.6107  144.7608  151.2958 LP  0  0  0  0  0  0  0  0  0  0  0  0  # atno 17342 bound_to 10162
  140.7322  143.6830  150.7985 LP  0  0  0  0  0  0  0  0  0  0  0  0  # atno 17343 bound_to 10162
  157.6058  130.8546  149.8873 LP  0  0  0  0  0  0  0  0  0  0  0  0  # atno 17370 bound_to 10713
  156.0608  130.3700  150.0987 LP  0  0  0  0  0  0  0  0  0  0  0  0  # atno 17371 bound_to 10713
  141.0348  134.0705  157.3972 LP  0  0  0  0  0  0  0  0  0  0  0  0  # atno 17394 bound_to 11000
  139.8964  135.0145  156.7048 LP  0  0  0  0  0  0  0  0  0  0  0  0  # atno 17395 bound_to 11000

$$$$
