AV-unprocessed.smi:1740|AV-procd|sdf|7006|dock1
  -GOLD-   22720 8213D 1   1.00000     0.00000
 Structure written by MMmdl.
 51 53  0  0  0  0  0  0  0  0  1 V2000
  142.0527  132.4373  148.1412 N   0  0  0  0  0  0  0  0  0  0  0  0
  143.3097  132.8163  148.3832 C   0  0  0  0  0  0  0  0  0  0  0  0
  143.9245  133.5692  147.6310 O   0  0  0  0  0  0  0  0  0  0  0  0
  143.9711  132.2776  149.6579 C   0  0  0  0  0  0  0  0  0  0  0  0
  144.9286  133.2097  150.2960 N   0  0  0  0  0  0  0  0  0  0  0  0
  145.3644  132.6485  151.5793 C   0  0  0  0  0  0  0  0  0  0  0  0
  146.4559  133.5266  152.2156 C   0  0  0  0  0  0  0  0  0  0  0  0
  145.9547  134.9645  152.4246 C   0  0  0  0  0  0  0  0  0  0  0  0
  147.0274  135.8262  152.9115 N   0  0  0  0  0  0  0  0  0  0  0  0
  146.9580  137.1603  153.0185 C   0  0  0  0  0  0  0  0  0  0  0  0
  145.9633  137.8182  152.7126 O   0  0  0  0  0  0  0  0  0  0  0  0
  148.1120  137.6702  153.4796 N   0  0  0  0  0  0  0  0  0  0  0  0
  148.4445  139.0386  153.6877 C   0  0  0  0  0  0  0  0  0  0  0  0
  147.5029  140.0717  153.4594 C   0  0  0  0  0  0  0  0  0  0  0  0
  147.8555  141.4020  153.7448 C   0  0  0  0  0  0  0  0  0  0  0  0
  149.1356  141.6525  154.2658 C   0  0  0  0  0  0  0  0  0  0  0  0
  150.0379  140.6796  154.5026 N   0  0  0  0  0  0  0  0  0  0  0  0
  149.7181  139.3929  154.2183 C   0  0  0  0  0  0  0  0  0  0  0  0
  150.7100  138.4169  154.4674 N   0  0  0  0  0  0  0  0  0  0  0  0
  152.0886  138.8720  154.6249 C   0  0  0  0  0  0  0  0  0  0  0  0
  152.7142  137.9919  155.7122 C   0  0  0  0  0  0  0  0  0  0  0  0
  151.8319  136.7476  155.7194 C   0  0  0  0  0  0  0  0  0  0  0  0
  150.4554  137.3240  155.4002 C   0  0  0  0  0  0  0  0  0  0  0  0
  145.4160  135.5016  151.0919 C   0  0  0  0  0  0  0  0  0  0  0  0
  144.3628  134.5529  150.4925 C   0  0  0  0  0  0  0  0  0  0  0  0
  141.5807  132.7703  147.3131 H   0  0  0  0  0  0  0  0  0  0  0  0
  141.5783  131.8213  148.7851 H   0  0  0  0  0  0  0  0  0  0  0  0
  143.2029  131.9910  150.3788 H   0  0  0  0  0  0  0  0  0  0  0  0
  144.4910  131.3597  149.3801 H   0  0  0  0  0  0  0  0  0  0  0  0
  144.5164  132.5501  152.2596 H   0  0  0  0  0  0  0  0  0  0  0  0
  145.7656  131.6457  151.4267 H   0  0  0  0  0  0  0  0  0  0  0  0
  146.7647  133.0938  153.1677 H   0  0  0  0  0  0  0  0  0  0  0  0
  147.3397  133.5275  151.5753 H   0  0  0  0  0  0  0  0  0  0  0  0
  145.1374  134.9582  153.1485 H   0  0  0  0  0  0  0  0  0  0  0  0
  147.8860  135.3713  153.1852 H   0  0  0  0  0  0  0  0  0  0  0  0
  148.8736  137.0178  153.5961 H   0  0  0  0  0  0  0  0  0  0  0  0
  146.5096  139.8633  153.0922 H   0  0  0  0  0  0  0  0  0  0  0  0
  147.1564  142.2084  153.5803 H   0  0  0  0  0  0  0  0  0  0  0  0
  149.4420  142.6601  154.5048 H   0  0  0  0  0  0  0  0  0  0  0  0
  152.6162  138.7273  153.6817 H   0  0  0  0  0  0  0  0  0  0  0  0
  152.1465  139.9296  154.8866 H   0  0  0  0  0  0  0  0  0  0  0  0
  153.7652  137.7699  155.5251 H   0  0  0  0  0  0  0  0  0  0  0  0
  152.6431  138.4955  156.6774 H   0  0  0  0  0  0  0  0  0  0  0  0
  152.1443  136.0641  154.9287 H   0  0  0  0  0  0  0  0  0  0  0  0
  151.8586  136.2083  156.6665 H   0  0  0  0  0  0  0  0  0  0  0  0
  149.9975  137.6937  156.3187 H   0  0  0  0  0  0  0  0  0  0  0  0
  149.7936  136.5759  154.9630 H   0  0  0  0  0  0  0  0  0  0  0  0
  144.9794  136.4902  151.2377 H   0  0  0  0  0  0  0  0  0  0  0  0
  146.2343  135.6267  150.3808 H   0  0  0  0  0  0  0  0  0  0  0  0
  144.0294  134.9778  149.5458 H   0  0  0  0  0  0  0  0  0  0  0  0
  143.4866  134.5011  151.1412 H   0  0  0  0  0  0  0  0  0  0  0  0
  1  2  1  0  0  0  0
  1 26  1  0  0  0  0
  1 27  1  0  0  0  0
  2  3  2  0  0  0  0
  2  4  1  0  0  0  0
  4  5  1  0  0  0  0
  4 28  1  0  0  0  0
  4 29  1  0  0  0  0
  5 25  1  0  0  0  0
  5  6  1  0  0  0  0
  6  7  1  0  0  0  0
  6 30  1  0  0  0  0
  6 31  1  0  0  0  0
  7  8  1  0  0  0  0
  7 32  1  0  0  0  0
  7 33  1  0  0  0  0
  8  9  1  0  0  0  0
  8 24  1  0  0  0  0
  8 34  1  0  0  0  0
  9 10  1  0  0  0  0
  9 35  1  0  0  0  0
 10 11  2  0  0  0  0
 10 12  1  0  0  0  0
 12 13  1  0  0  0  0
 12 36  1  0  0  0  0
 13 18  1  0  0  0  0
 13 14  2  0  0  0  0
 14 15  1  0  0  0  0
 14 37  1  0  0  0  0
 15 16  2  0  0  0  0
 15 38  1  0  0  0  0
 16 17  1  0  0  0  0
 16 39  1  0  0  0  0
 17 18  2  0  0  0  0
 18 19  1  0  0  0  0
 19 23  1  0  0  0  0
 19 20  1  0  0  0  0
 20 21  1  0  0  0  0
 20 40  1  0  0  0  0
 20 41  1  0  0  0  0
 21 22  1  0  0  0  0
 21 42  1  0  0  0  0
 21 43  1  0  0  0  0
 22 23  1  0  0  0  0
 22 44  1  0  0  0  0
 22 45  1  0  0  0  0
 23 46  1  0  0  0  0
 23 47  1  0  0  0  0
 24 25  1  0  0  0  0
 24 48  1  0  0  0  0
 24 49  1  0  0  0  0
 25 50  1  0  0  0  0
 25 51  1  0  0  0  0
M  END
> <s_m_source_file>
AV-unprocessed.smi

> <i_m_source_file_index>
1740

> <i_lp_mmshare_version>
43012

> <i_f3d_flags>
0

> <s_epik_input>
W05IMl1DKD1PKVtDSDJdTjFbQ0gyXVtDSDJdW0NIXShbQ0gyXVtDSDJdMSlbTkhdQyg9TylbTkhdYzJbY0hdW2NIXVtjSF1uYzJOM1tDSDJdW0NIMl1bQ0gyXVtDSDJdMw==

> <s_epik_cmdline>
J2VwaWtfcHl0aG9uJywgJy1waCcsICc3LjAnLCAnLXRuJywgJzgnLCAnLW1hJywgJzIwMCcsICctbWV0YWxfYmluZGluZycsICctaW1hZScsICc8aW5maWxlLm1hZT4nLCAnLW9tYWUnLCAnPG91dGZpbGUubWFlPic=

> <r_lp_tautomer_probability>
1

> <r_epik_Ionization_Penalty>
0.268698

> <r_epik_Ionization_Penalty_Charging>
0

> <r_epik_Ionization_Penalty_Neutral>
0.268698

> <r_epik_State_Penalty>
0.247497

> <r_epik_Charging_Adjusted_Penalty>
0.247497

> <i_epik_Tot_Q>
0

> <i_epik_Tot_abs_Q>
0

> <r_epik_Metal_State_Penalty>
0.244805

> <b_epik_Metal_Only>
0

> <s_lp_Force_Field>
OPLS_2005

> <r_lp_Energy>
39.8984

> <b_lp_Chiralities_Consistent>
1

> <s_lp_Variant>
AV-unprocessed.smi:1740-1

> <Gold.Version>
5.8.1

> <Gold.Id.Protein>
6NUR|6NUR_protein|mol2

> <Gold.PLP.Fitness>
51.4555

> <Gold.PLP.PLP>
-39.6059

> <Gold.PLP.part.hbond>
-6.0699

> <Gold.PLP.part.metal>
0.0000

> <Gold.PLP.part.buried>
0.2099

> <Gold.PLP.part.nonpolar>
-38.1578

> <Gold.PLP.part.repulsive>
5.7548

> <Gold.PLP.ligand.clash>
0.0000

> <Gold.PLP.ligand.torsion>
0.7285

> <Gold.PLP.Chemscore.Hbond>
3.3219

> <Gold.PLP.Chemscore.CHOScore>
1.0000

> <Gold.PLP.Chemscore.Metal>
0.0000

> <Gold.Chemscore.Hbonds>
donor molecule, donor type, donor heavy atom, donor atom, acceptor molecule, acceptor atom, score
      L1  H     1    26       P1 10195  0.91
      L1  H     1    27       P1 10952  1.00
      L1  H    12    36       P1  7948  0.03
      P1  H  7918  7932       L1     3  0.80
      P1  H  7989  7998       L1    17  0.78
      L1  C    16    39       P1  8028  1.00

> <Gold.PLP.Chemscore.Internal.Correction>
0.3408

> <Gold.Rescore>
     Score         DG    S(hbond)    S(metal)    S(lipo)     H(rot)  DE(clash)    DE(int)     intcor
     12.07     -20.29       2.88        0.00      91.73       2.16       4.02       4.19       ----

> <Gold.Chemscore.Fitness>
12.0703

> <Gold.Chemscore.DG>
-20.2894

> <Gold.Chemscore.ZeroCoef>
-5.4800

> <Gold.Chemscore.Hbond>
2.8790

> <Gold.Chemscore.Metal>
0.0000

> <Gold.Chemscore.Lipo>
91.7269

> <Gold.Chemscore.Internal_Hbond>
0.0000

> <Gold.Chemscore.DEClash>
4.0244

> <Gold.Chemscore.DEInternal>
4.1947

> <Gold.Chemscore.Rot>
2.1635

> <Gold.Chemscore.Internal.Correction>
   9.000000E+99

> <Gold.Chemscore.Hbonds>
donor molecule, donor type, donor heavy atom, donor atom, acceptor molecule, acceptor atom, score
      L1  H     1    26       P1 10195  0.63
      L1  H     1    27       P1 10952  1.00
      L1  H     9    35       P1  7948  0.02
      L1  H    12    36       P1  7948  0.08
      P1  H  7918  7932       L1     3  0.76
      P1  H  7989  7998       L1    17  0.19

> <Gold.Chemscore.Hbond.Weighted>
-9.6158

> <Gold.Chemscore.Metal.Weighted>
-0.0000

> <Gold.Chemscore.Lipo.Weighted>
-10.7320

> <Gold.Chemscore.Internal_Hbond.Weighted>
0.0000

> <Gold.Chemscore.DEClash.Weighted>
4.0244

> <Gold.Chemscore.DEInternal.Weighted>
4.1947

> <Gold.Chemscore.Rot.Weighted>
5.5385

> <Gold.Chemscore.Internal.Correction.Weighted>
   9.000000E+99

> <Gold.Protein.RotatedTorsions>
[ 6907 6896 6895 6894 ] final  112.70 input  -60.11 | X-H torsion
[ 7974 7965 7964 7962 ] final -160.42 input  175.53 | X-H torsion
[ 8008 7997 7996 7995 ] final   50.60 input   59.86 | X-H torsion
[ 10167 10162 10161 10158 ] final  112.02 input  -65.29 | X-H torsion
[ 10718 10713 10712 10709 ] final  -72.68 input   66.30 | X-H torsion
[ 10763 10752 10751 10750 ] final -145.05 input  -60.55 | X-H torsion
[ 11005 11000 10999 10996 ] final  -32.13 input  -57.11 | X-H torsion

> <Gold.Protein.ActiveResidues>
 VAL166  LYS551  ARG553  GLY616  TRP617  ASP618  TYR619  PRO620  LYS621  CYS622 
 ASP623  PHE694  ASN695  SER759  ASP760  ASP761  ALA762  ILE779  LEU786  VAL792 
 PHE793  MET794  SER795  GLU796  ALA797  LYS798  CYS799  TRP800  GLU811  SER814 

> <Gold.Protein.RotatedAtoms>
  152.4902  133.8480  159.7186 H   0  0  0  0  0  0  0  0  0  0  0  0  # atno 6907 bound_to 6896
  150.9025  133.7091  159.2882 H   0  0  0  0  0  0  0  0  0  0  0  0  # atno 6908 bound_to 6896
  151.4528  135.1035  159.9755 H   0  0  0  0  0  0  0  0  0  0  0  0  # atno 6909 bound_to 6896
  144.7428  140.3545  143.6109 H   0  0  0  0  0  0  0  0  0  0  0  0  # atno 7974 bound_to 7965
  155.4214  140.3446  155.4272 H   0  0  0  0  0  0  0  0  0  0  0  0  # atno 8008 bound_to 7997
  156.1390  140.1536  156.8980 H   0  0  0  0  0  0  0  0  0  0  0  0  # atno 8009 bound_to 7997
  154.4956  140.0829  156.7669 H   0  0  0  0  0  0  0  0  0  0  0  0  # atno 8010 bound_to 7997
  139.6567  144.7129  151.1943 H   0  0  0  0  0  0  0  0  0  0  0  0  # atno 10167 bound_to 10162
  156.0310  130.4377  150.2629 H   0  0  0  0  0  0  0  0  0  0  0  0  # atno 10718 bound_to 10713
  154.8401  135.3423  154.6443 H   0  0  0  0  0  0  0  0  0  0  0  0  # atno 10763 bound_to 10752
  153.7055  135.6967  153.5056 H   0  0  0  0  0  0  0  0  0  0  0  0  # atno 10764 bound_to 10752
  153.2491  135.4359  155.0732 H   0  0  0  0  0  0  0  0  0  0  0  0  # atno 10765 bound_to 10752
  140.9526  133.7211  156.1244 H   0  0  0  0  0  0  0  0  0  0  0  0  # atno 11005 bound_to 11000
  145.7242  139.1718  143.2467 LP  0  0  0  0  0  0  0  0  0  0  0  0  # atno 17320 bound_to 7965
  146.1255  140.7254  142.9437 LP  0  0  0  0  0  0  0  0  0  0  0  0  # atno 17321 bound_to 7965
  140.7562  143.6060  150.8652 LP  0  0  0  0  0  0  0  0  0  0  0  0  # atno 17342 bound_to 10162
  139.9714  143.6053  152.2972 LP  0  0  0  0  0  0  0  0  0  0  0  0  # atno 17343 bound_to 10162
  157.0731  131.0122  151.3183 LP  0  0  0  0  0  0  0  0  0  0  0  0  # atno 17370 bound_to 10713
  157.4984  130.7865  149.7579 LP  0  0  0  0  0  0  0  0  0  0  0  0  # atno 17371 bound_to 10713
  140.7581  134.3970  157.5530 LP  0  0  0  0  0  0  0  0  0  0  0  0  # atno 17394 bound_to 11000
  139.8852  134.8943  156.2656 LP  0  0  0  0  0  0  0  0  0  0  0  0  # atno 17395 bound_to 11000

$$$$
