AV-unprocessed.smi:276|AV-procd|sdf|2075|dock1
  -GOLD-   2262021333D 1   1.00000     0.00000
 Structure written by MMmdl.
 57 61  0  0  0  0  0  0  0  0  1 V2000
  150.0280  141.5965  157.8128 C   0  0  0  0  0  0  0  0  0  0  0  0
  149.0622  141.1003  156.9029 O   0  0  0  0  0  0  0  0  0  0  0  0
  149.0783  141.7788  155.6545 C   0  0  1  0  0  0  0  0  0  0  0  0
  150.2232  141.3157  154.7397 C   0  0  0  0  0  0  0  0  0  0  0  0
  149.2824  140.2476  154.1472 C   0  0  1  0  0  0  0  0  0  0  0  0
  149.4444  138.9534  154.8249 N   0  0  0  0  0  0  0  0  0  0  0  0
  150.7925  138.3945  154.8231 C   0  0  0  0  0  0  0  0  0  0  0  0
  148.5537  137.9991  154.4786 C   0  0  0  0  0  0  0  0  0  0  0  0
  148.5481  136.8620  155.2175 N   0  0  0  0  0  0  0  0  0  0  0  0
  147.6835  135.8841  154.9308 C   0  0  0  0  0  0  0  0  0  0  0  0
  146.7670  135.8371  153.9614 N   0  0  0  0  0  0  0  0  0  0  0  0
  146.7851  136.9726  153.2061 C   0  0  0  0  0  0  0  0  0  0  0  0
  147.6395  138.0953  153.3915 C   0  0  0  0  0  0  0  0  0  0  0  0
  147.3713  139.0596  152.4273 N   0  0  0  0  0  0  0  0  0  0  0  0
  146.4136  138.5362  151.7120 C   0  0  0  0  0  0  0  0  0  0  0  0
  146.0067  137.2813  152.1051 N   0  0  0  0  0  0  0  0  0  0  0  0
  144.9763  136.4677  151.4860 C   0  0  0  0  0  0  0  0  0  0  0  0
  145.5054  135.5709  150.3453 C   0  0  1  0  0  0  0  0  0  0  0  0
  146.6636  134.9226  150.8321 O   0  0  0  0  0  0  0  0  0  0  0  0
  144.5047  134.5064  149.8381 C   0  0  2  0  0  0  0  0  0  0  0  0
  144.0046  133.5491  150.9253 C   0  0  0  0  0  0  0  0  0  0  0  0
  143.6485  132.3166  150.1277 C   0  0  0  0  0  0  0  0  0  0  0  0
  144.7762  132.2877  149.1053 C   0  0  0  0  0  0  0  0  0  0  0  0
  145.1073  133.6513  148.8654 O   0  0  0  0  0  0  0  0  0  0  0  0
  148.1098  141.1328  154.6487 C   0  0  0  0  0  0  0  0  0  0  0  0
  147.3810  142.0540  153.6544 C   0  0  0  0  0  0  0  0  0  0  0  0
  146.1433  141.9583  154.5497 C   0  0  0  0  0  0  0  0  0  0  0  0
  146.7113  140.6381  155.0722 C   0  0  0  0  0  0  0  0  0  0  0  0
  149.9708  141.0367  158.7462 H   0  0  0  0  0  0  0  0  0  0  0  0
  149.8481  142.6479  158.0399 H   0  0  0  0  0  0  0  0  0  0  0  0
  151.0394  141.4912  157.4198 H   0  0  0  0  0  0  0  0  0  0  0  0
  148.9683  142.8610  155.7414 H   0  0  0  0  0  0  0  0  0  0  0  0
  150.4952  142.0755  154.0055 H   0  0  0  0  0  0  0  0  0  0  0  0
  151.1077  140.9491  155.2594 H   0  0  0  0  0  0  0  0  0  0  0  0
  149.3532  140.1922  153.0606 H   0  0  0  0  0  0  0  0  0  0  0  0
  150.7983  137.3368  155.0920 H   0  0  0  0  0  0  0  0  0  0  0  0
  151.4219  138.9128  155.5456 H   0  0  0  0  0  0  0  0  0  0  0  0
  151.2496  138.4955  153.8381 H   0  0  0  0  0  0  0  0  0  0  0  0
  147.7343  135.0146  155.5691 H   0  0  0  0  0  0  0  0  0  0  0  0
  145.9828  139.0511  150.8657 H   0  0  0  0  0  0  0  0  0  0  0  0
  144.5188  135.8556  152.2645 H   0  0  0  0  0  0  0  0  0  0  0  0
  144.1948  137.1307  151.1120 H   0  0  0  0  0  0  0  0  0  0  0  0
  145.8131  136.1963  149.5066 H   0  0  0  0  0  0  0  0  0  0  0  0
  147.3657  135.5537  150.8729 H   0  0  0  0  0  0  0  0  0  0  0  0
  143.6465  134.9892  149.3680 H   0  0  0  0  0  0  0  0  0  0  0  0
  144.8046  133.3146  151.6292 H   0  0  0  0  0  0  0  0  0  0  0  0
  143.1615  133.9493  151.4892 H   0  0  0  0  0  0  0  0  0  0  0  0
  143.5974  131.4112  150.7329 H   0  0  0  0  0  0  0  0  0  0  0  0
  142.6880  132.4540  149.6291 H   0  0  0  0  0  0  0  0  0  0  0  0
  145.6526  131.7865  149.5184 H   0  0  0  0  0  0  0  0  0  0  0  0
  144.4944  131.7769  148.1845 H   0  0  0  0  0  0  0  0  0  0  0  0
  147.7989  143.0564  153.5583 H   0  0  0  0  0  0  0  0  0  0  0  0
  147.2315  141.5870  152.6792 H   0  0  0  0  0  0  0  0  0  0  0  0
  146.1103  142.7363  155.3143 H   0  0  0  0  0  0  0  0  0  0  0  0
  145.1965  141.8705  154.0162 H   0  0  0  0  0  0  0  0  0  0  0  0
  146.3458  139.7931  154.4884 H   0  0  0  0  0  0  0  0  0  0  0  0
  146.5787  140.4739  156.1416 H   0  0  0  0  0  0  0  0  0  0  0  0
  1  2  1  0  0  0  0
  1 29  1  0  0  0  0
  1 30  1  0  0  0  0
  1 31  1  0  0  0  0
  2  3  1  0  0  0  0
  3 25  1  0  0  0  0
  3  4  1  0  0  0  0
  3 32  1  0  0  0  0
  4  5  1  0  0  0  0
  4 33  1  0  0  0  0
  4 34  1  0  0  0  0
  5  6  1  0  0  0  0
  5 25  1  0  0  0  0
  5 35  1  0  0  0  0
  6  7  1  0  0  0  0
  6  8  1  0  0  0  0
  7 36  1  0  0  0  0
  7 37  1  0  0  0  0
  7 38  1  0  0  0  0
  8 13  1  0  0  0  0
  8  9  2  0  0  0  0
  9 10  1  0  0  0  0
 10 11  2  0  0  0  0
 10 39  1  0  0  0  0
 11 12  1  0  0  0  0
 12 16  1  0  0  0  0
 12 13  2  0  0  0  0
 13 14  1  0  0  0  0
 14 15  2  0  0  0  0
 15 16  1  0  0  0  0
 15 40  1  0  0  0  0
 16 17  1  0  0  0  0
 17 18  1  0  0  0  0
 17 41  1  0  0  0  0
 17 42  1  0  0  0  0
 18 19  1  0  0  0  0
 18 20  1  0  0  0  0
 18 43  1  0  0  0  0
 19 44  1  0  0  0  0
 20 24  1  0  0  0  0
 20 21  1  0  0  0  0
 20 45  1  0  0  0  0
 21 22  1  0  0  0  0
 21 46  1  0  0  0  0
 21 47  1  0  0  0  0
 22 23  1  0  0  0  0
 22 48  1  0  0  0  0
 22 49  1  0  0  0  0
 23 24  1  0  0  0  0
 23 50  1  0  0  0  0
 23 51  1  0  0  0  0
 25 28  1  0  0  0  0
 25 26  1  0  0  0  0
 26 27  1  0  0  0  0
 26 52  1  0  0  0  0
 26 53  1  0  0  0  0
 27 28  1  0  0  0  0
 27 54  1  0  0  0  0
 27 55  1  0  0  0  0
 28 56  1  0  0  0  0
 28 57  1  0  0  0  0
M  END
> <s_m_source_file>
AV-unprocessed.smi

> <i_m_source_file_index>
276

> <i_lp_mmshare_version>
43012

> <i_f3d_flags>
0

> <s_epik_input>
W0NIMl0xW0NIMl1bQ0gyXUMxMltDQEhdKE9bQ0gzXSlbQ0gyXVtDQEhdMk4oW0NIM10pYyhuW2NIXW4zKWMoYzM0KW5bY0hdbjRbQ0gyXVtDQEhdKFtPSF0pW0NAQEhdNVtDSDJdW0NIMl1bQ0gyXU81

> <s_epik_cmdline>
J2VwaWtfcHl0aG9uJywgJy1waCcsICc3LjAnLCAnLXRuJywgJzgnLCAnLW1hJywgJzIwMCcsICctbWV0YWxfYmluZGluZycsICctaW1hZScsICc8aW5maWxlLm1hZT4nLCAnLW9tYWUnLCAnPG91dGZpbGUubWFlPic=

> <r_lp_tautomer_probability>
1

> <r_epik_Ionization_Penalty>
0.00204117

> <r_epik_Ionization_Penalty_Charging>
0

> <r_epik_Ionization_Penalty_Neutral>
0.00204117

> <r_epik_State_Penalty>
0.00127401

> <r_epik_Charging_Adjusted_Penalty>
0.00127401

> <i_epik_Tot_Q>
0

> <i_epik_Tot_abs_Q>
0

> <r_epik_Metal_State_Penalty>
-0

> <b_epik_Metal_Only>
0

> <s_lp_Force_Field>
OPLS_2005

> <r_lp_Energy>
56.2402

> <b_lp_Chiralities_Consistent>
1

> <s_lp_Variant>
AV-unprocessed.smi:276-6

> <Gold.Version>
5.8.1

> <Gold.Id.Protein>
6NUR|6NUR_protein|mol2

> <Gold.PLP.Fitness>
41.0424

> <Gold.PLP.PLP>
-36.0149

> <Gold.PLP.part.hbond>
-1.0000

> <Gold.PLP.part.metal>
0.0000

> <Gold.PLP.part.buried>
-3.5139

> <Gold.PLP.part.nonpolar>
-35.3496

> <Gold.PLP.part.repulsive>
3.8524

> <Gold.PLP.ligand.clash>
0.0000

> <Gold.PLP.ligand.torsion>
0.8724

> <Gold.PLP.Chemscore.Hbond>
1.0000

> <Gold.PLP.Chemscore.CHOScore>
0.9944

> <Gold.PLP.Chemscore.Metal>
0.0000

> <Gold.Chemscore.Hbonds>
donor molecule, donor type, donor heavy atom, donor atom, acceptor molecule, acceptor atom, score
      L1  H    19    44       P1  7948  0.96
      L1  C    15    40       P1 10171  0.96

> <Gold.PLP.Chemscore.Internal.Correction>
0.7892

> <Gold.Rescore>
     Score         DG    S(hbond)    S(metal)    S(lipo)     H(rot)  DE(clash)    DE(int)     intcor
      8.12     -11.15       0.74        0.00      86.84       2.72       0.56       2.48       ----

> <Gold.Chemscore.Fitness>
8.1158

> <Gold.Chemscore.DG>
-11.1536

> <Gold.Chemscore.ZeroCoef>
-5.4800

> <Gold.Chemscore.Hbond>
0.7392

> <Gold.Chemscore.Metal>
0.0000

> <Gold.Chemscore.Lipo>
86.8429

> <Gold.Chemscore.Internal_Hbond>
0.0000

> <Gold.Chemscore.DEClash>
0.5558

> <Gold.Chemscore.DEInternal>
2.4820

> <Gold.Chemscore.Rot>
2.7172

> <Gold.Chemscore.Internal.Correction>
   9.000000E+99

> <Gold.Chemscore.Hbonds>
donor molecule, donor type, donor heavy atom, donor atom, acceptor molecule, acceptor atom, score
      L1  H    19    44       P1  7948  0.51

> <Gold.Chemscore.Hbond.Weighted>
-2.4690

> <Gold.Chemscore.Metal.Weighted>
-0.0000

> <Gold.Chemscore.Lipo.Weighted>
-10.1606

> <Gold.Chemscore.Internal_Hbond.Weighted>
0.0000

> <Gold.Chemscore.DEClash.Weighted>
0.5558

> <Gold.Chemscore.DEInternal.Weighted>
2.4820

> <Gold.Chemscore.Rot.Weighted>
6.9560

> <Gold.Chemscore.Internal.Correction.Weighted>
   9.000000E+99

> <Gold.Protein.RotatedTorsions>
[ 6907 6896 6895 6894 ] final  106.96 input  -60.11 | X-H torsion
[ 7974 7965 7964 7962 ] final  161.25 input  175.53 | X-H torsion
[ 8008 7997 7996 7995 ] final -138.93 input   59.86 | X-H torsion
[ 10167 10162 10161 10158 ] final   55.66 input  -65.29 | X-H torsion
[ 10718 10713 10712 10709 ] final   46.38 input   66.30 | X-H torsion
[ 10763 10752 10751 10750 ] final  152.83 input  -60.55 | X-H torsion
[ 11005 11000 10999 10996 ] final  -69.09 input  -57.11 | X-H torsion

> <Gold.Protein.ActiveResidues>
 VAL166  LYS551  ARG553  GLY616  TRP617  ASP618  TYR619  PRO620  LYS621  CYS622 
 ASP623  PHE694  ASN695  SER759  ASP760  ASP761  ALA762  ILE779  LEU786  VAL792 
 PHE793  MET794  SER795  GLU796  ALA797  LYS798  CYS799  TRP800  GLU811  SER814 

> <Gold.Protein.RotatedAtoms>
  152.5173  133.9304  159.7577 H   0  0  0  0  0  0  0  0  0  0  0  0  # atno 6907 bound_to 6896
  150.9656  133.6390  159.2753 H   0  0  0  0  0  0  0  0  0  0  0  0  # atno 6908 bound_to 6896
  151.3619  135.0911  159.9490 H   0  0  0  0  0  0  0  0  0  0  0  0  # atno 6909 bound_to 6896
  144.7695  139.7871  143.6302 H   0  0  0  0  0  0  0  0  0  0  0  0  # atno 7974 bound_to 7965
  155.4364  140.0528  157.3014 H   0  0  0  0  0  0  0  0  0  0  0  0  # atno 8008 bound_to 7997
  154.4837  140.2092  155.9662 H   0  0  0  0  0  0  0  0  0  0  0  0  # atno 8009 bound_to 7997
  156.1243  140.3183  155.8259 H   0  0  0  0  0  0  0  0  0  0  0  0  # atno 8010 bound_to 7997
  140.2171  144.3828  150.6465 H   0  0  0  0  0  0  0  0  0  0  0  0  # atno 10167 bound_to 10162
  157.4475  130.8118  149.7755 H   0  0  0  0  0  0  0  0  0  0  0  0  # atno 10718 bound_to 10713
  154.1264  135.2829  155.3196 H   0  0  0  0  0  0  0  0  0  0  0  0  # atno 10763 bound_to 10752
  154.6386  135.5410  153.7767 H   0  0  0  0  0  0  0  0  0  0  0  0  # atno 10764 bound_to 10752
  153.0295  135.6481  154.1416 H   0  0  0  0  0  0  0  0  0  0  0  0  # atno 10765 bound_to 10752
  141.1546  133.6756  156.6545 H   0  0  0  0  0  0  0  0  0  0  0  0  # atno 11005 bound_to 11000
  146.1830  139.5032  142.9854 LP  0  0  0  0  0  0  0  0  0  0  0  0  # atno 17320 bound_to 7965
  145.6367  141.0293  143.1834 LP  0  0  0  0  0  0  0  0  0  0  0  0  # atno 17321 bound_to 7965
  140.6282  143.2184  151.6552 LP  0  0  0  0  0  0  0  0  0  0  0  0  # atno 17342 bound_to 10162
  139.5158  144.3367  152.0777 LP  0  0  0  0  0  0  0  0  0  0  0  0  # atno 17343 bound_to 10162
  155.9973  130.3901  150.2745 LP  0  0  0  0  0  0  0  0  0  0  0  0  # atno 17370 bound_to 10713
  157.0914  131.0171  151.3120 LP  0  0  0  0  0  0  0  0  0  0  0  0  # atno 17371 bound_to 10713
  140.3294  134.7941  157.4315 LP  0  0  0  0  0  0  0  0  0  0  0  0  # atno 17394 bound_to 11000
  140.1029  134.5448  155.8336 LP  0  0  0  0  0  0  0  0  0  0  0  0  # atno 17395 bound_to 11000

$$$$
