AV-unprocessed.smi:109|AV-procd|sdf|1032|dock4
  -GOLD-   2262018 43D 1   1.00000     0.00000
 Structure written by MMmdl.
 58 61  0  0  0  0  0  0  0  0  1 V2000
  150.4074  140.3558  154.0007 O   0  0  0  0  0  0  0  0  0  0  0  0
  150.4401  139.5370  155.1494 C   0  0  0  0  0  0  0  0  0  0  0  0
  151.3054  140.1952  156.2357 C   0  0  0  0  0  0  0  0  0  0  0  0
  150.8607  141.6337  156.5672 C   0  0  1  0  0  0  0  0  0  0  0  0
  149.4610  141.6470  156.9978 N   0  0  0  0  0  0  0  0  0  0  0  0
  148.4454  141.9559  156.1603 C   0  0  0  0  0  0  0  0  0  0  0  0
  148.5804  141.8671  154.8117 N   0  0  0  0  0  0  0  0  0  0  0  0
  147.5535  142.1735  154.0138 C   0  0  0  0  0  0  0  0  0  0  0  0
  146.3287  142.5815  154.3511 N   0  0  0  0  0  0  0  0  0  0  0  0
  146.1866  142.6772  155.7047 C   0  0  0  0  0  0  0  0  0  0  0  0
  147.1918  142.3843  156.6686 C   0  0  0  0  0  0  0  0  0  0  0  0
  146.6919  142.5922  157.9472 N   0  0  0  0  0  0  0  0  0  0  0  0
  145.4618  142.9820  157.7460 C   0  0  0  0  0  0  0  0  0  0  0  0
  145.0751  143.0632  156.4265 N   0  0  0  0  0  0  0  0  0  0  0  0
  143.7400  143.4712  155.8931 C   0  0  2  0  0  0  0  0  0  0  0  0
  143.9278  144.5569  155.0380 O   0  0  0  0  0  0  0  0  0  0  0  0
  142.9049  145.5217  155.2561 C   0  0  2  0  0  0  0  0  0  0  0  0
  143.3948  146.9064  154.8070 C   0  0  0  0  0  0  0  0  0  0  0  0
  143.9085  146.8342  153.4945 O   0  0  0  0  0  0  0  0  0  0  0  0
  142.6694  145.4158  156.7640 C   0  0  1  0  0  0  0  0  0  0  0  0
  141.4248  145.9528  157.1730 O   0  0  0  0  0  0  0  0  0  0  0  0
  142.8018  143.9172  157.0272 C   0  0  1  0  0  0  0  0  0  0  0  0
  141.5570  143.2461  156.9392 O   0  0  0  0  0  0  0  0  0  0  0  0
  151.7761  142.3216  157.6111 C   0  0  0  0  0  0  0  0  0  0  0  0
  151.5745  141.8120  159.0579 C   0  0  0  0  0  0  0  0  0  0  0  0
  152.5370  142.5008  160.0395 C   0  0  0  0  0  0  0  0  0  0  0  0
  152.4023  144.0296  159.9755 C   0  0  0  0  0  0  0  0  0  0  0  0
  152.6144  144.5425  158.5433 C   0  0  0  0  0  0  0  0  0  0  0  0
  151.6500  143.8603  157.5600 C   0  0  0  0  0  0  0  0  0  0  0  0
  143.3820  142.5998  155.3423 H   0  0  0  0  0  0  0  0  0  0  0  0
  142.0026  145.2224  154.7185 H   0  0  0  0  0  0  0  0  0  0  0  0
  143.4602  145.9459  157.2949 H   0  0  0  0  0  0  0  0  0  0  0  0
  143.2400  143.7169  158.0062 H   0  0  0  0  0  0  0  0  0  0  0  0
  149.7383  141.0126  154.1200 H   0  0  0  0  0  0  0  0  0  0  0  0
  149.4214  139.3855  155.5073 H   0  0  0  0  0  0  0  0  0  0  0  0
  150.8376  138.5601  154.8728 H   0  0  0  0  0  0  0  0  0  0  0  0
  151.2912  139.5784  157.1353 H   0  0  0  0  0  0  0  0  0  0  0  0
  152.3402  140.2107  155.8908 H   0  0  0  0  0  0  0  0  0  0  0  0
  150.9873  142.1978  155.6440 H   0  0  0  0  0  0  0  0  0  0  0  0
  149.3070  141.4108  157.9677 H   0  0  0  0  0  0  0  0  0  0  0  0
  147.7390  142.0763  152.9543 H   0  0  0  0  0  0  0  0  0  0  0  0
  144.7975  143.2244  158.5629 H   0  0  0  0  0  0  0  0  0  0  0  0
  142.5638  147.6124  154.7943 H   0  0  0  0  0  0  0  0  0  0  0  0
  144.1470  147.3036  155.4897 H   0  0  0  0  0  0  0  0  0  0  0  0
  143.4174  147.4292  152.9485 H   0  0  0  0  0  0  0  0  0  0  0  0
  140.9295  146.1853  156.4025 H   0  0  0  0  0  0  0  0  0  0  0  0
  141.5256  142.5824  157.6110 H   0  0  0  0  0  0  0  0  0  0  0  0
  152.8040  142.0870  157.3296 H   0  0  0  0  0  0  0  0  0  0  0  0
  150.5481  141.9902  159.3803 H   0  0  0  0  0  0  0  0  0  0  0  0
  151.7314  140.7348  159.1081 H   0  0  0  0  0  0  0  0  0  0  0  0
  152.3432  142.1535  161.0548 H   0  0  0  0  0  0  0  0  0  0  0  0
  153.5633  142.2147  159.8062 H   0  0  0  0  0  0  0  0  0  0  0  0
  151.4132  144.3254  160.3277 H   0  0  0  0  0  0  0  0  0  0  0  0
  153.1233  144.4948  160.6483 H   0  0  0  0  0  0  0  0  0  0  0  0
  152.4749  145.6233  158.5111 H   0  0  0  0  0  0  0  0  0  0  0  0
  153.6439  144.3544  158.2360 H   0  0  0  0  0  0  0  0  0  0  0  0
  151.8493  144.2174  156.5490 H   0  0  0  0  0  0  0  0  0  0  0  0
  150.6285  144.1612  157.7956 H   0  0  0  0  0  0  0  0  0  0  0  0
  1  2  1  0  0  0  0
  1 34  1  0  0  0  0
  2  3  1  0  0  0  0
  2 35  1  0  0  0  0
  2 36  1  0  0  0  0
  3  4  1  0  0  0  0
  3 37  1  0  0  0  0
  3 38  1  0  0  0  0
  4  5  1  0  0  0  0
  4 24  1  0  0  0  0
  4 39  1  0  0  0  0
  5  6  1  0  0  0  0
  5 40  1  0  0  0  0
  6 11  1  0  0  0  0
  6  7  2  0  0  0  0
  7  8  1  0  0  0  0
  8  9  2  0  0  0  0
  8 41  1  0  0  0  0
  9 10  1  0  0  0  0
 10 14  1  0  0  0  0
 10 11  2  0  0  0  0
 11 12  1  0  0  0  0
 12 13  2  0  0  0  0
 13 14  1  0  0  0  0
 13 42  1  0  0  0  0
 14 15  1  0  0  0  0
 15 30  1  0  0  0  0
 15 22  1  0  0  0  0
 15 16  1  0  0  0  0
 16 17  1  0  0  0  0
 17 31  1  0  0  0  0
 17 18  1  0  0  0  0
 17 20  1  0  0  0  0
 18 19  1  0  0  0  0
 18 43  1  0  0  0  0
 18 44  1  0  0  0  0
 19 45  1  0  0  0  0
 20 32  1  0  0  0  0
 20 21  1  0  0  0  0
 20 22  1  0  0  0  0
 21 46  1  0  0  0  0
 22 33  1  0  0  0  0
 22 23  1  0  0  0  0
 23 47  1  0  0  0  0
 24 29  1  0  0  0  0
 24 25  1  0  0  0  0
 24 48  1  0  0  0  0
 25 26  1  0  0  0  0
 25 49  1  0  0  0  0
 25 50  1  0  0  0  0
 26 27  1  0  0  0  0
 26 51  1  0  0  0  0
 26 52  1  0  0  0  0
 27 28  1  0  0  0  0
 27 53  1  0  0  0  0
 27 54  1  0  0  0  0
 28 29  1  0  0  0  0
 28 55  1  0  0  0  0
 28 56  1  0  0  0  0
 29 57  1  0  0  0  0
 29 58  1  0  0  0  0
M  END
> <s_m_source_file>
AV-unprocessed.smi

> <i_m_source_file_index>
109

> <i_lp_mmshare_version>
43012

> <i_f3d_flags>
0

> <s_epik_input>
W0NIMl0xW0NIMl1bQ0gyXVtDSDJdW0NIMl1bQ0hdMVtDQEhdKFtDSDJdW0NIMl1bT0hdKVtOSF1jKG5bY0hdbjIpYyhjMjMpbltjSF1uM1tDQEBIXTRPW0NASF0oW0NIMl1bT0hdKVtDQEBIXShbT0hdKVtDQEhdNFtPSF0=

> <s_epik_cmdline>
J2VwaWtfcHl0aG9uJywgJy1waCcsICc3LjAnLCAnLXRuJywgJzgnLCAnLW1hJywgJzIwMCcsICctbWV0YWxfYmluZGluZycsICctaW1hZScsICc8aW5maWxlLm1hZT4nLCAnLW9tYWUnLCAnPG91dGZpbGUubWFlPic=

> <r_lp_tautomer_probability>
1

> <r_epik_Ionization_Penalty>
0.000793976

> <r_epik_Ionization_Penalty_Charging>
0

> <r_epik_Ionization_Penalty_Neutral>
0.000793976

> <r_epik_State_Penalty>
-0

> <r_epik_Charging_Adjusted_Penalty>
0

> <i_epik_Tot_Q>
0

> <i_epik_Tot_abs_Q>
0

> <r_epik_Metal_State_Penalty>
-0

> <b_epik_Metal_Only>
0

> <s_epik_Chemistry_Notes>
This compound contains an acetal/aminal-like group ( X-CH(R)-Y where X, Y are N, S, or O) that may be acid/base labile, releasing an aldehyde.

> <s_lp_Force_Field>
OPLS_2005

> <r_lp_Energy>
54.9407

> <b_lp_Chiralities_Consistent>
1

> <s_lp_Variant>
AV-unprocessed.smi:109-2

> <Gold.Version>
5.8.1

> <Gold.Id.Protein>
6NUR|6NUR_protein|mol2

> <Gold.PLP.Fitness>
48.2131

> <Gold.PLP.PLP>
-46.4483

> <Gold.PLP.part.hbond>
-3.7608

> <Gold.PLP.part.metal>
0.0000

> <Gold.PLP.part.buried>
-5.5566

> <Gold.PLP.part.nonpolar>
-37.5736

> <Gold.PLP.part.repulsive>
0.5805

> <Gold.PLP.ligand.clash>
0.0000

> <Gold.PLP.ligand.torsion>
0.6972

> <Gold.PLP.Chemscore.Hbond>
1.0000

> <Gold.PLP.Chemscore.CHOScore>
0.0000

> <Gold.PLP.Chemscore.Metal>
0.0000

> <Gold.Chemscore.Hbonds>
donor molecule, donor type, donor heavy atom, donor atom, acceptor molecule, acceptor atom, score
      P1  H  7989  7998       L1     1  0.64

> <Gold.PLP.Chemscore.Internal.Correction>
0.1592

> <Gold.Rescore>
     Score         DG    S(hbond)    S(metal)    S(lipo)     H(rot)  DE(clash)    DE(int)     intcor
      2.53      -6.43       0.91        0.00     101.67       5.47       0.00       3.90       ----

> <Gold.Chemscore.Fitness>
2.5268

> <Gold.Chemscore.DG>
-6.4264

> <Gold.Chemscore.ZeroCoef>
-5.4800

> <Gold.Chemscore.Hbond>
0.9115

> <Gold.Chemscore.Metal>
0.0000

> <Gold.Chemscore.Lipo>
101.6701

> <Gold.Chemscore.Internal_Hbond>
0.0000

> <Gold.Chemscore.DEClash>
0.0004

> <Gold.Chemscore.DEInternal>
3.8992

> <Gold.Chemscore.Rot>
5.4662

> <Gold.Chemscore.Internal.Correction>
   9.000000E+99

> <Gold.Chemscore.Hbonds>
donor molecule, donor type, donor heavy atom, donor atom, acceptor molecule, acceptor atom, score
      P1  H  7989  7998       L1     1  0.51

> <Gold.Chemscore.Hbond.Weighted>
-3.0445

> <Gold.Chemscore.Metal.Weighted>
-0.0000

> <Gold.Chemscore.Lipo.Weighted>
-11.8954

> <Gold.Chemscore.Internal_Hbond.Weighted>
0.0000

> <Gold.Chemscore.DEClash.Weighted>
0.0004

> <Gold.Chemscore.DEInternal.Weighted>
3.8992

> <Gold.Chemscore.Rot.Weighted>
13.9935

> <Gold.Chemscore.Internal.Correction.Weighted>
   9.000000E+99

> <Gold.Protein.RotatedTorsions>
[ 6907 6896 6895 6894 ] final  -82.26 input  -60.11 | X-H torsion
[ 7974 7965 7964 7962 ] final -164.16 input  175.53 | X-H torsion
[ 8008 7997 7996 7995 ] final -139.68 input   59.86 | X-H torsion
[ 10167 10162 10161 10158 ] final  -97.02 input  -65.29 | X-H torsion
[ 10718 10713 10712 10709 ] final  120.44 input   66.30 | X-H torsion
[ 10763 10752 10751 10750 ] final  123.12 input  -60.55 | X-H torsion
[ 11005 11000 10999 10996 ] final -168.24 input  -57.11 | X-H torsion

> <Gold.Protein.ActiveResidues>
 VAL166  LYS551  ARG553  GLY616  TRP617  ASP618  TYR619  PRO620  LYS621  CYS622 
 ASP623  PHE694  ASN695  SER759  ASP760  ASP761  ALA762  ILE779  LEU786  VAL792 
 PHE793  MET794  SER795  GLU796  ALA797  LYS798  CYS799  TRP800  GLU811  SER814 

> <Gold.Protein.RotatedAtoms>
  150.6900  134.3693  159.4984 H   0  0  0  0  0  0  0  0  0  0  0  0  # atno 6907 bound_to 6896
  152.1511  134.8985  160.0557 H   0  0  0  0  0  0  0  0  0  0  0  0  # atno 6908 bound_to 6896
  152.0082  133.3816  159.4246 H   0  0  0  0  0  0  0  0  0  0  0  0  # atno 6909 bound_to 6896
  144.7305  140.3002  143.6206 H   0  0  0  0  0  0  0  0  0  0  0  0  # atno 7974 bound_to 7965
  155.4489  140.0537  157.3003 H   0  0  0  0  0  0  0  0  0  0  0  0  # atno 8008 bound_to 7997
  154.4786  140.2071  155.9774 H   0  0  0  0  0  0  0  0  0  0  0  0  # atno 8009 bound_to 7997
  156.1170  140.3194  155.8159 H   0  0  0  0  0  0  0  0  0  0  0  0  # atno 8010 bound_to 7997
  140.2878  143.3241  152.0377 H   0  0  0  0  0  0  0  0  0  0  0  0  # atno 10167 bound_to 10162
  157.5890  131.1066  150.8036 H   0  0  0  0  0  0  0  0  0  0  0  0  # atno 10718 bound_to 10713
  153.6405  135.3380  155.3070 H   0  0  0  0  0  0  0  0  0  0  0  0  # atno 10763 bound_to 10752
  154.8560  135.4317  154.2010 H   0  0  0  0  0  0  0  0  0  0  0  0  # atno 10764 bound_to 10752
  153.2928  135.7018  153.7351 H   0  0  0  0  0  0  0  0  0  0  0  0  # atno 10765 bound_to 10752
  140.5442  134.5492  157.5107 H   0  0  0  0  0  0  0  0  0  0  0  0  # atno 11005 bound_to 11000
  145.7768  139.1877  143.2181 LP  0  0  0  0  0  0  0  0  0  0  0  0  # atno 17320 bound_to 7965
  146.0866  140.7703  142.9615 LP  0  0  0  0  0  0  0  0  0  0  0  0  # atno 17321 bound_to 7965
  139.4946  144.6546  151.6600 LP  0  0  0  0  0  0  0  0  0  0  0  0  # atno 17342 bound_to 10162
  140.5758  144.0031  150.6241 LP  0  0  0  0  0  0  0  0  0  0  0  0  # atno 17343 bound_to 10162
  156.8462  130.5065  149.5316 LP  0  0  0  0  0  0  0  0  0  0  0  0  # atno 17370 bound_to 10713
  156.0943  130.5920  150.9786 LP  0  0  0  0  0  0  0  0  0  0  0  0  # atno 17371 bound_to 10713
  139.9488  134.7654  156.0497 LP  0  0  0  0  0  0  0  0  0  0  0  0  # atno 17394 bound_to 11000
  141.1209  133.6613  156.3213 LP  0  0  0  0  0  0  0  0  0  0  0  0  # atno 17395 bound_to 11000

$$$$
