AV-unprocessed.smi:1709|AV-procd|sdf|6897|dock3
  -GOLD-   22720 8103D 1   1.00000     0.00000
 Structure written by MMmdl.
 43 45  0  0  0  0  0  0  0  0  2 V2000
  147.7322  133.0338  152.5790 C   0  0  0  0  0  0  0  0  0  0  0  0
  146.4140  133.1561  151.8311 C   0  0  0  0  0  0  0  0  0  0  0  0
  145.7525  131.9842  151.4064 C   0  0  0  0  0  0  0  0  0  0  0  0
  144.5350  132.0963  150.7139 C   0  0  0  0  0  0  0  0  0  0  0  0
  144.0281  133.3842  150.4729 C   0  0  0  0  0  0  0  0  0  0  0  0
  144.6537  134.5091  150.8754 N   0  0  0  0  0  0  0  0  0  0  0  0
  145.8282  134.4203  151.5517 C   0  0  0  0  0  0  0  0  0  0  0  0
  146.5654  135.5624  151.9919 N   0  0  0  0  0  0  0  0  0  0  0  0
  146.1614  136.7088  152.5783 C   0  0  0  0  0  0  0  0  0  0  0  0
  144.9740  136.9191  152.8196 O   0  0  0  0  0  0  0  0  0  0  0  0
  147.1276  137.5947  152.8699 N   0  0  0  0  0  0  0  0  0  0  0  0
  146.9215  138.8736  153.5409 C   0  0  2  0  0  0  0  0  0  0  0  0
  146.8222  140.0501  152.5788 C   0  0  0  0  0  0  0  0  0  0  0  0
  147.1008  141.2560  153.4813 C   0  0  0  0  0  0  0  0  0  0  0  0
  147.9450  140.7691  154.6006 N   0  3  2  0  0  0  0  0  0  0  0  0
  149.2279  141.5060  154.7549 C   0  0  0  0  0  0  0  0  0  0  0  0
  150.2068  140.7247  155.6436 C   0  0  0  0  0  0  0  0  0  0  0  0
  150.5673  139.3617  155.0231 C   0  0  0  0  0  0  0  0  0  0  0  0
  149.4891  138.8552  154.0455 C   0  0  0  0  0  0  0  0  0  0  0  0
  148.0675  139.2881  154.4829 C   0  0  2  0  0  0  0  0  0  0  0  0
  148.0217  131.9903  152.7062 H   0  0  0  0  0  0  0  0  0  0  0  0
  147.6516  133.4822  153.5697 H   0  0  0  0  0  0  0  0  0  0  0  0
  148.5299  133.5385  152.0334 H   0  0  0  0  0  0  0  0  0  0  0  0
  146.1715  131.0090  151.6065 H   0  0  0  0  0  0  0  0  0  0  0  0
  144.0052  131.2182  150.3751 H   0  0  0  0  0  0  0  0  0  0  0  0
  143.0969  133.5167  149.9424 H   0  0  0  0  0  0  0  0  0  0  0  0
  147.5476  135.5349  151.7595 H   0  0  0  0  0  0  0  0  0  0  0  0
  148.0786  137.3455  152.6363 H   0  0  0  0  0  0  0  0  0  0  0  0
  145.9915  138.8335  154.1123 H   0  0  0  0  0  0  0  0  0  0  0  0
  147.5929  139.9774  151.8098 H   0  0  0  0  0  0  0  0  0  0  0  0
  145.8544  140.1115  152.0805 H   0  0  0  0  0  0  0  0  0  0  0  0
  147.5543  142.0772  152.9246 H   0  0  0  0  0  0  0  0  0  0  0  0
  146.1677  141.6285  153.9050 H   0  0  0  0  0  0  0  0  0  0  0  0
  149.6866  141.6733  153.7786 H   0  0  0  0  0  0  0  0  0  0  0  0
  149.0232  142.4890  155.1799 H   0  0  0  0  0  0  0  0  0  0  0  0
  151.1131  141.3054  155.8189 H   0  0  0  0  0  0  0  0  0  0  0  0
  149.7497  140.5709  156.6221 H   0  0  0  0  0  0  0  0  0  0  0  0
  151.5195  139.4293  154.4956 H   0  0  0  0  0  0  0  0  0  0  0  0
  150.7162  138.6366  155.8242 H   0  0  0  0  0  0  0  0  0  0  0  0
  149.6938  139.2464  153.0478 H   0  0  0  0  0  0  0  0  0  0  0  0
  149.5658  137.7706  153.9657 H   0  0  0  0  0  0  0  0  0  0  0  0
  147.8831  138.8566  155.4680 H   0  0  0  0  0  0  0  0  0  0  0  0
  147.4159  140.9323  155.4453 H   0  0  0  0  0  0  0  0  0  0  0  0
  1  2  1  0  0  0  0
  1 21  1  0  0  0  0
  1 22  1  0  0  0  0
  1 23  1  0  0  0  0
  2  7  1  0  0  0  0
  2  3  2  0  0  0  0
  3  4  1  0  0  0  0
  3 24  1  0  0  0  0
  4  5  2  0  0  0  0
  4 25  1  0  0  0  0
  5  6  1  0  0  0  0
  5 26  1  0  0  0  0
  6  7  2  0  0  0  0
  7  8  1  0  0  0  0
  8  9  1  0  0  0  0
  8 27  1  0  0  0  0
  9 10  2  0  0  0  0
  9 11  1  0  0  0  0
 11 12  1  0  0  0  0
 11 28  1  0  0  0  0
 12 20  1  0  0  0  0
 12 13  1  0  0  0  0
 12 29  1  0  0  0  0
 13 14  1  0  0  0  0
 13 30  1  0  0  0  0
 13 31  1  0  0  0  0
 14 15  1  0  0  0  0
 14 32  1  0  0  0  0
 14 33  1  0  0  0  0
 15 20  1  0  0  0  0
 15 16  1  0  0  0  0
 15 43  1  0  0  0  0
 16 17  1  0  0  0  0
 16 34  1  0  0  0  0
 16 35  1  0  0  0  0
 17 18  1  0  0  0  0
 17 36  1  0  0  0  0
 17 37  1  0  0  0  0
 18 19  1  0  0  0  0
 18 38  1  0  0  0  0
 18 39  1  0  0  0  0
 19 20  1  0  0  0  0
 19 40  1  0  0  0  0
 19 41  1  0  0  0  0
 20 42  1  0  0  0  0
M  CHG  1  15   1
M  END
> <s_m_source_file>
AV-unprocessed.smi

> <i_m_source_file_index>
1709

> <i_lp_mmshare_version>
43012

> <i_f3d_flags>
0

> <s_epik_input>
W0NIM11jMVtjSF1bY0hdW2NIXW5jMVtOSF1DKD1PKVtOSF1bQ0BIXShbQ0gyXVtDSDJdMilbQ0BASF0oTjIzKVtDSDJdW0NIMl1bQ0gyXVtDSDJdMw==

> <s_epik_cmdline>
J2VwaWtfcHl0aG9uJywgJy1waCcsICc3LjAnLCAnLXRuJywgJzgnLCAnLW1hJywgJzIwMCcsICctbWV0YWxfYmluZGluZycsICctaW1hZScsICc8aW5maWxlLm1hZT4nLCAnLW9tYWUnLCAnPG91dGZpbGUubWFlPic=

> <r_epik_Ionization_Penalty>
0.00101524

> <r_epik_Ionization_Penalty_Charging>
0.000974069

> <r_epik_Ionization_Penalty_Neutral>
4.11757e-05

> <r_epik_State_Penalty>
0.000633842

> <r_epik_Charging_Adjusted_Penalty>
0.00160791

> <i_epik_Tot_Q>
1

> <i_epik_Tot_abs_Q>
1

> <r_epik_Metal_State_Penalty>
-0

> <b_epik_Metal_Only>
0

> <s_lp_Force_Field>
OPLS_2005

> <r_lp_Energy>
45.6111

> <b_lp_Chiralities_Consistent>
1

> <s_lp_Variant>
AV-unprocessed.smi:1709-7

> <Gold.Version>
5.8.1

> <Gold.Id.Protein>
6NUR|6NUR_protein|mol2

> <Gold.PLP.Fitness>
41.0095

> <Gold.PLP.PLP>
-33.7926

> <Gold.PLP.part.hbond>
-1.5995

> <Gold.PLP.part.metal>
0.0000

> <Gold.PLP.part.buried>
-2.1582

> <Gold.PLP.part.nonpolar>
-31.7952

> <Gold.PLP.part.repulsive>
0.5263

> <Gold.PLP.ligand.clash>
0.0000

> <Gold.PLP.ligand.torsion>
0.6770

> <Gold.PLP.Chemscore.Hbond>
1.8560

> <Gold.PLP.Chemscore.CHOScore>
1.0000

> <Gold.PLP.Chemscore.Metal>
0.0000

> <Gold.Chemscore.Hbonds>
donor molecule, donor type, donor heavy atom, donor atom, acceptor molecule, acceptor atom, score
      L1  H     8    27       P1  7948  0.99
      L1  H    11    28       P1  7948  0.85
      L1  C     5    26       P1 10186  1.00

> <Gold.PLP.Chemscore.Internal.Correction>
0.0028

> <Gold.Rescore>
     Score         DG    S(hbond)    S(metal)    S(lipo)     H(rot)  DE(clash)    DE(int)     intcor
     18.59     -19.55       1.86        0.00      88.97       1.00       0.31       0.65       ----

> <Gold.Chemscore.Fitness>
18.5906

> <Gold.Chemscore.DG>
-19.5502

> <Gold.Chemscore.ZeroCoef>
-5.4800

> <Gold.Chemscore.Hbond>
1.8623

> <Gold.Chemscore.Metal>
0.0000

> <Gold.Chemscore.Lipo>
88.9745

> <Gold.Chemscore.Internal_Hbond>
0.0000

> <Gold.Chemscore.DEClash>
0.3057

> <Gold.Chemscore.DEInternal>
0.6539

> <Gold.Chemscore.Rot>
1.0000

> <Gold.Chemscore.Internal.Correction>
   9.000000E+99

> <Gold.Chemscore.Hbonds>
donor molecule, donor type, donor heavy atom, donor atom, acceptor molecule, acceptor atom, score
      L1  H     8    27       P1  7948  0.86
      L1  H    11    28       P1  7948  0.84

> <Gold.Chemscore.Hbond.Weighted>
-6.2202

> <Gold.Chemscore.Metal.Weighted>
-0.0000

> <Gold.Chemscore.Lipo.Weighted>
-10.4100

> <Gold.Chemscore.Internal_Hbond.Weighted>
0.0000

> <Gold.Chemscore.DEClash.Weighted>
0.3057

> <Gold.Chemscore.DEInternal.Weighted>
0.6539

> <Gold.Chemscore.Rot.Weighted>
2.5600

> <Gold.Chemscore.Internal.Correction.Weighted>
   9.000000E+99

> <Gold.Protein.RotatedTorsions>
[ 6907 6896 6895 6894 ] final  170.58 input  -60.11 | X-H torsion
[ 7974 7965 7964 7962 ] final  121.34 input  175.53 | X-H torsion
[ 8008 7997 7996 7995 ] final  -94.16 input   59.86 | X-H torsion
[ 10167 10162 10161 10158 ] final   90.26 input  -65.29 | X-H torsion
[ 10718 10713 10712 10709 ] final  -17.46 input   66.30 | X-H torsion
[ 10763 10752 10751 10750 ] final  155.76 input  -60.55 | X-H torsion
[ 11005 11000 10999 10996 ] final  -48.81 input  -57.11 | X-H torsion

> <Gold.Protein.ActiveResidues>
 VAL166  LYS551  ARG553  GLY616  TRP617  ASP618  TYR619  PRO620  LYS621  CYS622 
 ASP623  PHE694  ASN695  SER759  ASP760  ASP761  ALA762  ILE779  LEU786  VAL792 
 PHE793  MET794  SER795  GLU796  ALA797  LYS798  CYS799  TRP800  GLU811  SER814 

> <Gold.Protein.RotatedAtoms>
  151.8138  133.3385  159.3563 H   0  0  0  0  0  0  0  0  0  0  0  0  # atno 6907 bound_to 6896
  150.7317  134.5639  159.5865 H   0  0  0  0  0  0  0  0  0  0  0  0  # atno 6908 bound_to 6896
  152.3056  134.7561  160.0399 H   0  0  0  0  0  0  0  0  0  0  0  0  # atno 6909 bound_to 6896
  145.1205  139.3392  143.4717 H   0  0  0  0  0  0  0  0  0  0  0  0  # atno 7974 bound_to 7965
  154.7449  140.0492  157.0843 H   0  0  0  0  0  0  0  0  0  0  0  0  # atno 8008 bound_to 7997
  155.0131  140.3138  155.4803 H   0  0  0  0  0  0  0  0  0  0  0  0  # atno 8009 bound_to 7997
  156.2872  140.2180  156.5246 H   0  0  0  0  0  0  0  0  0  0  0  0  # atno 8010 bound_to 7997
  139.8491  144.6603  150.9191 H   0  0  0  0  0  0  0  0  0  0  0  0  # atno 10167 bound_to 10162
  156.5732  130.4755  149.6353 H   0  0  0  0  0  0  0  0  0  0  0  0  # atno 10718 bound_to 10713
  154.1736  135.2803  155.3073 H   0  0  0  0  0  0  0  0  0  0  0  0  # atno 10763 bound_to 10752
  154.6056  135.5515  153.7423 H   0  0  0  0  0  0  0  0  0  0  0  0  # atno 10764 bound_to 10752
  153.0158  135.6403  154.1876 H   0  0  0  0  0  0  0  0  0  0  0  0  # atno 10765 bound_to 10752
  141.0722  133.6676  156.3494 H   0  0  0  0  0  0  0  0  0  0  0  0  # atno 11005 bound_to 11000
  146.3521  140.1162  142.8602 LP  0  0  0  0  0  0  0  0  0  0  0  0  # atno 17320 bound_to 7965
  145.0746  140.9179  143.4862 LP  0  0  0  0  0  0  0  0  0  0  0  0  # atno 17321 bound_to 7965
  140.7789  143.3844  151.1420 LP  0  0  0  0  0  0  0  0  0  0  0  0  # atno 17342 bound_to 10162
  139.7483  143.8817  152.3070 LP  0  0  0  0  0  0  0  0  0  0  0  0  # atno 17343 bound_to 10162
  156.2696  130.7009  151.1802 LP  0  0  0  0  0  0  0  0  0  0  0  0  # atno 17370 bound_to 10713
  157.7343  131.0583  150.5530 LP  0  0  0  0  0  0  0  0  0  0  0  0  # atno 17371 bound_to 10713
  140.5648  134.5898  157.5443 LP  0  0  0  0  0  0  0  0  0  0  0  0  # atno 17394 bound_to 11000
  139.9535  134.7575  156.0394 LP  0  0  0  0  0  0  0  0  0  0  0  0  # atno 17395 bound_to 11000

$$$$
