AV-unprocessed.smi:1218|AV-procd|sdf|5109|dock7
  -GOLD-   22720 4163D 1   1.00000     0.00000
 Structure written by MMmdl.
 45 46  0  0  0  0  0  0  0  0  2 V2000
  144.4034  133.7896  150.3257 C   0  0  0  0  0  0  0  0  0  0  0  0
  145.3722  134.3991  151.3530 C   0  0  0  0  0  0  0  0  0  0  0  0
  145.6517  135.8719  151.0183 C   0  0  0  0  0  0  0  0  0  0  0  0
  146.6931  133.6040  151.4420 C   0  0  0  0  0  0  0  0  0  0  0  0
  147.5150  133.9642  152.6259 N   0  3  2  0  0  0  0  0  0  0  0  0
  148.6094  133.0021  152.9068 C   0  0  0  0  0  0  0  0  0  0  0  0
  149.4302  133.4627  154.1223 C   0  0  0  0  0  0  0  0  0  0  0  0
  148.5705  133.6208  155.2429 O   0  0  0  0  0  0  0  0  0  0  0  0
  147.5770  134.6175  155.0233 C   0  0  2  0  0  0  0  0  0  0  0  0
  146.7678  134.7872  156.3211 C   0  0  0  0  0  0  0  0  0  0  0  0
  147.5848  135.3561  157.3864 N   0  0  0  0  0  0  0  0  0  0  0  0
  147.1058  135.9155  158.5079 C   0  0  0  0  0  0  0  0  0  0  0  0
  145.9069  135.9637  158.7832 O   0  0  0  0  0  0  0  0  0  0  0  0
  148.1338  136.5393  159.4514 C   0  0  0  0  0  0  0  0  0  0  0  0
  147.7351  136.3596  160.8355 N   0  0  0  0  0  0  0  0  0  0  0  0
  147.5867  135.1816  161.5381 C   0  0  0  0  0  0  0  0  0  0  0  0
  147.1871  135.5101  162.8018 C   0  0  0  0  0  0  0  0  0  0  0  0
  147.1161  136.9311  162.7757 C   0  0  0  0  0  0  0  0  0  0  0  0
  147.4419  137.4370  161.5971 N   0  0  0  0  0  0  0  0  0  0  0  0
  146.6927  134.1781  153.8408 C   0  0  0  0  0  0  0  0  0  0  0  0
  144.8397  133.7787  149.3262 H   0  0  0  0  0  0  0  0  0  0  0  0
  143.4758  134.3608  150.2756 H   0  0  0  0  0  0  0  0  0  0  0  0
  144.1382  132.7644  150.5845 H   0  0  0  0  0  0  0  0  0  0  0  0
  144.8803  134.3889  152.3251 H   0  0  0  0  0  0  0  0  0  0  0  0
  146.1410  135.9734  150.0489 H   0  0  0  0  0  0  0  0  0  0  0  0
  146.2987  136.3292  151.7675 H   0  0  0  0  0  0  0  0  0  0  0  0
  144.7281  136.4510  150.9874 H   0  0  0  0  0  0  0  0  0  0  0  0
  146.4492  132.5410  151.4807 H   0  0  0  0  0  0  0  0  0  0  0  0
  147.2888  133.7450  150.5387 H   0  0  0  0  0  0  0  0  0  0  0  0
  148.1883  132.0136  153.0968 H   0  0  0  0  0  0  0  0  0  0  0  0
  149.2699  132.9080  152.0458 H   0  0  0  0  0  0  0  0  0  0  0  0
  150.1920  132.7214  154.3638 H   0  0  0  0  0  0  0  0  0  0  0  0
  149.9515  134.3982  153.9120 H   0  0  0  0  0  0  0  0  0  0  0  0
  148.0614  135.5638  154.7747 H   0  0  0  0  0  0  0  0  0  0  0  0
  145.8965  135.4209  156.1479 H   0  0  0  0  0  0  0  0  0  0  0  0
  146.3868  133.8221  156.6561 H   0  0  0  0  0  0  0  0  0  0  0  0
  148.5845  135.3653  157.2415 H   0  0  0  0  0  0  0  0  0  0  0  0
  149.1067  136.0701  159.2998 H   0  0  0  0  0  0  0  0  0  0  0  0
  148.2544  137.6040  159.2431 H   0  0  0  0  0  0  0  0  0  0  0  0
  147.7747  134.2194  161.0846 H   0  0  0  0  0  0  0  0  0  0  0  0
  146.9776  134.8377  163.6204 H   0  0  0  0  0  0  0  0  0  0  0  0
  146.8382  137.6051  163.5726 H   0  0  0  0  0  0  0  0  0  0  0  0
  145.9406  134.9434  153.6437 H   0  0  0  0  0  0  0  0  0  0  0  0
  146.1591  133.2586  154.0873 H   0  0  0  0  0  0  0  0  0  0  0  0
  147.9466  134.8534  152.4173 H   0  0  0  0  0  0  0  0  0  0  0  0
  1  2  1  0  0  0  0
  1 21  1  0  0  0  0
  1 22  1  0  0  0  0
  1 23  1  0  0  0  0
  2  3  1  0  0  0  0
  2  4  1  0  0  0  0
  2 24  1  0  0  0  0
  3 25  1  0  0  0  0
  3 26  1  0  0  0  0
  3 27  1  0  0  0  0
  4  5  1  0  0  0  0
  4 28  1  0  0  0  0
  4 29  1  0  0  0  0
  5 20  1  0  0  0  0
  5  6  1  0  0  0  0
  5 45  1  0  0  0  0
  6  7  1  0  0  0  0
  6 30  1  0  0  0  0
  6 31  1  0  0  0  0
  7  8  1  0  0  0  0
  7 32  1  0  0  0  0
  7 33  1  0  0  0  0
  8  9  1  0  0  0  0
  9 10  1  0  0  0  0
  9 20  1  0  0  0  0
  9 34  1  0  0  0  0
 10 11  1  0  0  0  0
 10 35  1  0  0  0  0
 10 36  1  0  0  0  0
 11 12  1  0  0  0  0
 11 37  1  0  0  0  0
 12 13  2  0  0  0  0
 12 14  1  0  0  0  0
 14 15  1  0  0  0  0
 14 38  1  0  0  0  0
 14 39  1  0  0  0  0
 15 19  1  0  0  0  0
 15 16  1  0  0  0  0
 16 17  2  0  0  0  0
 16 40  1  0  0  0  0
 17 18  1  0  0  0  0
 17 41  1  0  0  0  0
 18 19  2  0  0  0  0
 18 42  1  0  0  0  0
 20 43  1  0  0  0  0
 20 44  1  0  0  0  0
M  CHG  1   5   1
M  END
> <s_m_source_file>
AV-unprocessed.smi

> <i_m_source_file_index>
1218

> <i_lp_mmshare_version>
43012

> <i_f3d_flags>
0

> <s_epik_input>
W0NIM11bQ0hdKFtDSDNdKVtDSDJdTjFbQ0gyXVtDSDJdT1tDQEhdKFtDSDJdMSlbQ0gyXVtOSF1DKD1PKVtDSDJdbjJbY0hdW2NIXVtjSF1uMg==

> <s_epik_cmdline>
J2VwaWtfcHl0aG9uJywgJy1waCcsICc3LjAnLCAnLXRuJywgJzgnLCAnLW1hJywgJzIwMCcsICctbWV0YWxfYmluZGluZycsICctaW1hZScsICc8aW5maWxlLm1hZT4nLCAnLW9tYWUnLCAnPG91dGZpbGUubWFlPic=

> <r_lp_tautomer_probability>
1

> <r_epik_Ionization_Penalty>
0.0995066

> <r_epik_Ionization_Penalty_Charging>
0.0994921

> <r_epik_Ionization_Penalty_Neutral>
1.44634e-05

> <r_epik_State_Penalty>
0.0895432

> <r_epik_Charging_Adjusted_Penalty>
0.189035

> <i_epik_Tot_Q>
1

> <i_epik_Tot_abs_Q>
1

> <r_epik_Metal_State_Penalty>
0.0895432

> <b_epik_Metal_Only>
0

> <s_lp_Force_Field>
OPLS_2005

> <r_lp_Energy>
17.6202

> <b_lp_Chiralities_Consistent>
1

> <s_lp_Variant>
AV-unprocessed.smi:1218-4

> <Gold.Version>
5.8.1

> <Gold.Id.Protein>
6NUR|6NUR_protein|mol2

> <Gold.PLP.Fitness>
47.2304

> <Gold.PLP.PLP>
-37.2525

> <Gold.PLP.part.hbond>
-3.0000

> <Gold.PLP.part.metal>
0.0000

> <Gold.PLP.part.buried>
-5.1985

> <Gold.PLP.part.nonpolar>
-28.9267

> <Gold.PLP.part.repulsive>
0.0567

> <Gold.PLP.ligand.clash>
0.0000

> <Gold.PLP.ligand.torsion>
0.7059

> <Gold.PLP.Chemscore.Hbond>
3.7600

> <Gold.PLP.Chemscore.CHOScore>
0.0000

> <Gold.PLP.Chemscore.Metal>
0.0000

> <Gold.Chemscore.Hbonds>
donor molecule, donor type, donor heavy atom, donor atom, acceptor molecule, acceptor atom, score
      L1  H     5    45       P1  7948  2.00
      P1  H  6931  6943       L1    19  0.80
      P1  H  6934  6947       L1    19  0.80

> <Gold.PLP.Chemscore.Internal.Correction>
0.1098

> <Gold.Rescore>
     Score         DG    S(hbond)    S(metal)    S(lipo)     H(rot)  DE(clash)    DE(int)     intcor
     16.37     -17.05       2.39        0.00      73.58       1.96       0.02       0.66       ----

> <Gold.Chemscore.Fitness>
16.3695

> <Gold.Chemscore.DG>
-17.0511

> <Gold.Chemscore.ZeroCoef>
-5.4800

> <Gold.Chemscore.Hbond>
2.3909

> <Gold.Chemscore.Metal>
0.0000

> <Gold.Chemscore.Lipo>
73.5834

> <Gold.Chemscore.Internal_Hbond>
0.0000

> <Gold.Chemscore.DEClash>
0.0182

> <Gold.Chemscore.DEInternal>
0.6635

> <Gold.Chemscore.Rot>
1.9624

> <Gold.Chemscore.Internal.Correction>
   9.000000E+99

> <Gold.Chemscore.Hbonds>
donor molecule, donor type, donor heavy atom, donor atom, acceptor molecule, acceptor atom, score
      L1  H     5    45       P1  7948  0.74
      P1  H  6931  6943       L1    19  0.17
      P1  H  6934  6947       L1    19  0.79

> <Gold.Chemscore.Hbond.Weighted>
-7.9856

> <Gold.Chemscore.Metal.Weighted>
-0.0000

> <Gold.Chemscore.Lipo.Weighted>
-8.6093

> <Gold.Chemscore.Internal_Hbond.Weighted>
0.0000

> <Gold.Chemscore.DEClash.Weighted>
0.0182

> <Gold.Chemscore.DEInternal.Weighted>
0.6635

> <Gold.Chemscore.Rot.Weighted>
5.0237

> <Gold.Chemscore.Internal.Correction.Weighted>
   9.000000E+99

> <Gold.Protein.RotatedTorsions>
[ 6907 6896 6895 6894 ] final -171.41 input  -60.11 | X-H torsion
[ 7974 7965 7964 7962 ] final -115.76 input  175.53 | X-H torsion
[ 8008 7997 7996 7995 ] final  -22.62 input   59.86 | X-H torsion
[ 10167 10162 10161 10158 ] final  -31.17 input  -65.29 | X-H torsion
[ 10718 10713 10712 10709 ] final -106.90 input   66.30 | X-H torsion
[ 10763 10752 10751 10750 ] final  -29.47 input  -60.55 | X-H torsion
[ 11005 11000 10999 10996 ] final -133.32 input  -57.11 | X-H torsion

> <Gold.Protein.ActiveResidues>
 VAL166  LYS551  ARG553  GLY616  TRP617  ASP618  TYR619  PRO620  LYS621  CYS622 
 ASP623  PHE694  ASN695  SER759  ASP760  ASP761  ALA762  ILE779  LEU786  VAL792 
 PHE793  MET794  SER795  GLU796  ALA797  LYS798  CYS799  TRP800  GLU811  SER814 

> <Gold.Protein.RotatedAtoms>
  151.5233  133.3462  159.2905 H   0  0  0  0  0  0  0  0  0  0  0  0  # atno 6907 bound_to 6896
  150.8638  134.7999  159.7114 H   0  0  0  0  0  0  0  0  0  0  0  0  # atno 6908 bound_to 6896
  152.4649  134.5107  159.9804 H   0  0  0  0  0  0  0  0  0  0  0  0  # atno 6909 bound_to 6896
  145.1046  140.8573  143.3906 H   0  0  0  0  0  0  0  0  0  0  0  0  # atno 7974 bound_to 7965
  154.4633  140.2003  156.0185 H   0  0  0  0  0  0  0  0  0  0  0  0  # atno 8008 bound_to 7997
  156.0881  140.3262  155.7751 H   0  0  0  0  0  0  0  0  0  0  0  0  # atno 8009 bound_to 7997
  155.5002  140.0553  157.2931 H   0  0  0  0  0  0  0  0  0  0  0  0  # atno 8010 bound_to 7997
  140.7240  143.3792  151.1633 H   0  0  0  0  0  0  0  0  0  0  0  0  # atno 10167 bound_to 10162
  156.0411  130.5636  150.7746 H   0  0  0  0  0  0  0  0  0  0  0  0  # atno 10718 bound_to 10713
  153.7651  135.6916  153.4917 H   0  0  0  0  0  0  0  0  0  0  0  0  # atno 10763 bound_to 10752
  153.1912  135.4470  155.0150 H   0  0  0  0  0  0  0  0  0  0  0  0  # atno 10764 bound_to 10752
  154.8138  135.3390  154.7164 H   0  0  0  0  0  0  0  0  0  0  0  0  # atno 10765 bound_to 10752
  140.9091  134.1591  157.4403 H   0  0  0  0  0  0  0  0  0  0  0  0  # atno 11005 bound_to 11000
  145.0916  139.2886  143.5732 LP  0  0  0  0  0  0  0  0  0  0  0  0  # atno 17320 bound_to 7965
  146.3528  140.0455  142.8639 LP  0  0  0  0  0  0  0  0  0  0  0  0  # atno 17321 bound_to 7965
  139.7377  143.8972  152.3040 LP  0  0  0  0  0  0  0  0  0  0  0  0  # atno 17342 bound_to 10162
  139.8783  144.7031  150.8907 LP  0  0  0  0  0  0  0  0  0  0  0  0  # atno 17343 bound_to 10162
  157.5231  131.0932  151.0053 LP  0  0  0  0  0  0  0  0  0  0  0  0  # atno 17370 bound_to 10713
  157.0379  130.5737  149.5352 LP  0  0  0  0  0  0  0  0  0  0  0  0  # atno 17371 bound_to 10713
  139.8754  134.9928  156.5617 LP  0  0  0  0  0  0  0  0  0  0  0  0  # atno 17394 bound_to 11000
  140.8133  133.8412  155.8829 LP  0  0  0  0  0  0  0  0  0  0  0  0  # atno 17395 bound_to 11000

$$$$
