AV-unprocessed.smi:44|AV-procd|sdf|395|dock8
  -GOLD-   2262016253D 1   1.00000     0.00000
 Structure written by MMmdl.
 29 31  0  0  0  0  0  0  0  0  1 V2000
  146.1627  141.0102  155.7124 O   0  0  0  0  0  0  0  0  0  0  0  0
  147.3872  141.0681  155.6218 C   0  0  0  0  0  0  0  0  0  0  0  0
  148.0875  140.5780  154.5700 N   0  0  0  0  0  0  0  0  0  0  0  0
  149.4993  140.6415  154.4595 C   0  0  0  0  0  0  0  0  0  0  0  0
  150.2981  141.1724  155.3486 N   0  0  0  0  0  0  0  0  0  0  0  0
  149.6111  141.6799  156.4333 C   0  0  0  0  0  0  0  0  0  0  0  0
  148.2590  141.6809  156.6516 C   0  0  0  0  0  0  0  0  0  0  0  0
  147.9404  142.2891  157.8591 N   0  0  0  0  0  0  0  0  0  0  0  0
  149.1384  142.6356  158.3253 C   0  0  0  0  0  0  0  0  0  0  0  0
  150.1822  142.3053  157.5402 N   0  0  0  0  0  0  0  0  0  0  0  0
  151.6243  142.5775  157.8244 C   0  0  1  0  0  0  0  0  0  0  0  0
  151.8994  144.0858  157.8935 C   0  0  0  0  0  0  0  0  0  0  0  0
  152.2870  144.2887  159.3461 C   0  0  0  0  0  0  0  0  0  0  0  0
  152.8185  142.9149  159.7488 C   0  0  1  0  0  0  0  0  0  0  0  0
  152.7702  142.6637  161.2629 C   0  0  0  0  0  0  0  0  0  0  0  0
  151.5278  143.0840  161.7848 O   0  0  0  0  0  0  0  0  0  0  0  0
  151.9301  142.0356  159.0722 O   0  0  0  0  0  0  0  0  0  0  0  0
  147.5646  140.1427  153.8239 H   0  0  0  0  0  0  0  0  0  0  0  0
  152.1773  142.0745  157.0298 H   0  0  0  0  0  0  0  0  0  0  0  0
  153.8304  142.7905  159.3578 H   0  0  0  0  0  0  0  0  0  0  0  0
  149.8738  140.1936  153.5380 H   0  0  0  0  0  0  0  0  0  0  0  0
  149.2608  143.1439  159.2704 H   0  0  0  0  0  0  0  0  0  0  0  0
  152.7346  144.3177  157.2316 H   0  0  0  0  0  0  0  0  0  0  0  0
  151.0351  144.6796  157.5922 H   0  0  0  0  0  0  0  0  0  0  0  0
  153.0221  145.0824  159.4812 H   0  0  0  0  0  0  0  0  0  0  0  0
  151.4055  144.5446  159.9347 H   0  0  0  0  0  0  0  0  0  0  0  0
  152.8667  141.5973  161.4689 H   0  0  0  0  0  0  0  0  0  0  0  0
  153.5904  143.1686  161.7748 H   0  0  0  0  0  0  0  0  0  0  0  0
  151.6384  143.9370  162.1759 H   0  0  0  0  0  0  0  0  0  0  0  0
  1  2  2  0  0  0  0
  2  7  1  0  0  0  0
  2  3  1  0  0  0  0
  3 18  1  0  0  0  0
  3  4  1  0  0  0  0
  4  5  2  0  0  0  0
  4 21  1  0  0  0  0
  5  6  1  0  0  0  0
  6 10  1  0  0  0  0
  6  7  2  0  0  0  0
  7  8  1  0  0  0  0
  8  9  2  0  0  0  0
  9 10  1  0  0  0  0
  9 22  1  0  0  0  0
 10 11  1  0  0  0  0
 11 19  1  0  0  0  0
 11 17  1  0  0  0  0
 11 12  1  0  0  0  0
 12 13  1  0  0  0  0
 12 23  1  0  0  0  0
 12 24  1  0  0  0  0
 13 14  1  0  0  0  0
 13 25  1  0  0  0  0
 13 26  1  0  0  0  0
 14 20  1  0  0  0  0
 14 15  1  0  0  0  0
 14 17  1  0  0  0  0
 15 16  1  0  0  0  0
 15 27  1  0  0  0  0
 15 28  1  0  0  0  0
 16 29  1  0  0  0  0
M  END
> <s_m_source_file>
AV-unprocessed.smi

> <i_m_source_file_index>
44

> <i_lp_mmshare_version>
43012

> <i_f3d_flags>
0

> <s_epik_input>
bjFbY0hdW25IXWMoPU8pYyhjMTIpbltjSF1uMltDQEhdM1tDSDJdW0NIMl1bQ0BIXShPMylbQ0gyXVtPSF0=

> <s_epik_cmdline>
J2VwaWtfcHl0aG9uJywgJy1waCcsICc3LjAnLCAnLXRuJywgJzgnLCAnLW1hJywgJzIwMCcsICctbWV0YWxfYmluZGluZycsICctaW1hZScsICc8aW5maWxlLm1hZT4nLCAnLW9tYWUnLCAnPG91dGZpbGUubWFlPic=

> <r_lp_tautomer_probability>
0.85571

> <r_epik_Ionization_Penalty>
0.00801444

> <r_epik_Ionization_Penalty_Charging>
0.00794574

> <r_epik_Ionization_Penalty_Neutral>
6.87072e-05

> <r_epik_State_Penalty>
0.0826172

> <r_epik_Charging_Adjusted_Penalty>
0.090563

> <i_epik_Tot_Q>
0

> <i_epik_Tot_abs_Q>
0

> <r_epik_Metal_State_Penalty>
0.440697

> <b_epik_Metal_Only>
0

> <s_epik_Chemistry_Notes>
This compound contains an acetal/aminal-like group ( X-CH(R)-Y where X, Y are N, S, or O) that may be acid/base labile, releasing an aldehyde.

> <s_lp_Force_Field>
OPLS_2005

> <r_lp_Energy>
43.2881

> <b_lp_Chiralities_Consistent>
1

> <s_lp_Variant>
AV-unprocessed.smi:44-1

> <Gold.Version>
5.8.1

> <Gold.Id.Protein>
6NUR|6NUR_protein|mol2

> <Gold.PLP.Fitness>
36.9365

> <Gold.PLP.PLP>
-32.2402

> <Gold.PLP.part.hbond>
-2.9128

> <Gold.PLP.part.metal>
0.0000

> <Gold.PLP.part.buried>
-3.2713

> <Gold.PLP.part.nonpolar>
-25.5898

> <Gold.PLP.part.repulsive>
0.3823

> <Gold.PLP.ligand.clash>
0.0000

> <Gold.PLP.ligand.torsion>
0.1188

> <Gold.PLP.Chemscore.Hbond>
0.6400

> <Gold.PLP.Chemscore.CHOScore>
1.0000

> <Gold.PLP.Chemscore.Metal>
0.0000

> <Gold.Chemscore.Hbonds>
donor molecule, donor type, donor heavy atom, donor atom, acceptor molecule, acceptor atom, score
      P1  H  6933  6945       L1    16  0.64
      L1  C     4    21       P1  7957  1.00

> <Gold.PLP.Chemscore.Internal.Correction>
0.0139

> <Gold.Rescore>
     Score         DG    S(hbond)    S(metal)    S(lipo)     H(rot)  DE(clash)    DE(int)     intcor
      8.33      -8.55       0.86        0.00      51.42       2.27       0.12       0.10       ----

> <Gold.Chemscore.Fitness>
8.3321

> <Gold.Chemscore.DG>
-8.5512

> <Gold.Chemscore.ZeroCoef>
-5.4800

> <Gold.Chemscore.Hbond>
0.8599

> <Gold.Chemscore.Metal>
0.0000

> <Gold.Chemscore.Lipo>
51.4165

> <Gold.Chemscore.Internal_Hbond>
0.0000

> <Gold.Chemscore.DEClash>
0.1151

> <Gold.Chemscore.DEInternal>
0.1041

> <Gold.Chemscore.Rot>
2.2720

> <Gold.Chemscore.Internal.Correction>
   9.000000E+99

> <Gold.Chemscore.Hbonds>
donor molecule, donor type, donor heavy atom, donor atom, acceptor molecule, acceptor atom, score
      P1  H  6933  6945       L1    16  0.59

> <Gold.Chemscore.Hbond.Weighted>
-2.8719

> <Gold.Chemscore.Metal.Weighted>
-0.0000

> <Gold.Chemscore.Lipo.Weighted>
-6.0157

> <Gold.Chemscore.Internal_Hbond.Weighted>
0.0000

> <Gold.Chemscore.DEClash.Weighted>
0.1151

> <Gold.Chemscore.DEInternal.Weighted>
0.1041

> <Gold.Chemscore.Rot.Weighted>
5.8164

> <Gold.Chemscore.Internal.Correction.Weighted>
   9.000000E+99

> <Gold.Protein.RotatedTorsions>
[ 6907 6896 6895 6894 ] final   55.48 input  -60.11 | X-H torsion
[ 7974 7965 7964 7962 ] final  130.85 input  175.53 | X-H torsion
[ 8008 7997 7996 7995 ] final  -29.98 input   59.86 | X-H torsion
[ 10167 10162 10161 10158 ] final    9.49 input  -65.29 | X-H torsion
[ 10718 10713 10712 10709 ] final  171.62 input   66.30 | X-H torsion
[ 10763 10752 10751 10750 ] final  147.69 input  -60.55 | X-H torsion
[ 11005 11000 10999 10996 ] final  133.62 input  -57.11 | X-H torsion

> <Gold.Protein.ActiveResidues>
 VAL166  LYS551  ARG553  GLY616  TRP617  ASP618  TYR619  PRO620  LYS621  CYS622 
 ASP623  PHE694  ASN695  SER759  ASP760  ASP761  ALA762  ILE779  LEU786  VAL792 
 PHE793  MET794  SER795  GLU796  ALA797  LYS798  CYS799  TRP800  GLU811  SER814 

> <Gold.Protein.RotatedAtoms>
  152.3543  134.6962  160.0226 H   0  0  0  0  0  0  0  0  0  0  0  0  # atno 6907 bound_to 6896
  151.7306  133.3312  159.3347 H   0  0  0  0  0  0  0  0  0  0  0  0  # atno 6908 bound_to 6896
  150.7561  134.6300  159.6226 H   0  0  0  0  0  0  0  0  0  0  0  0  # atno 6909 bound_to 6896
  145.0135  139.4198  143.5233 H   0  0  0  0  0  0  0  0  0  0  0  0  # atno 7974 bound_to 7965
  154.4268  140.1803  156.1334 H   0  0  0  0  0  0  0  0  0  0  0  0  # atno 8008 bound_to 7997
  156.0049  140.3356  155.6858 H   0  0  0  0  0  0  0  0  0  0  0  0  # atno 8009 bound_to 7997
  155.6191  140.0658  157.2674 H   0  0  0  0  0  0  0  0  0  0  0  0  # atno 8010 bound_to 7997
  140.6252  143.8117  150.7224 H   0  0  0  0  0  0  0  0  0  0  0  0  # atno 10167 bound_to 10162
  156.9909  131.0147  151.2857 H   0  0  0  0  0  0  0  0  0  0  0  0  # atno 10718 bound_to 10713
  154.0425  135.2888  155.3353 H   0  0  0  0  0  0  0  0  0  0  0  0  # atno 10763 bound_to 10752
  154.6920  135.5222  153.8409 H   0  0  0  0  0  0  0  0  0  0  0  0  # atno 10764 bound_to 10752
  153.0594  135.6608  154.0628 H   0  0  0  0  0  0  0  0  0  0  0  0  # atno 10765 bound_to 10752
  139.9863  134.9531  156.9751 H   0  0  0  0  0  0  0  0  0  0  0  0  # atno 11005 bound_to 11000
  146.3474  139.9592  142.8719 LP  0  0  0  0  0  0  0  0  0  0  0  0  # atno 17320 bound_to 7965
  145.1991  140.9846  143.4166 LP  0  0  0  0  0  0  0  0  0  0  0  0  # atno 17321 bound_to 7965
  140.1716  143.4189  152.1996 LP  0  0  0  0  0  0  0  0  0  0  0  0  # atno 17342 bound_to 10162
  139.5473  144.7309  151.4543 LP  0  0  0  0  0  0  0  0  0  0  0  0  # atno 17343 bound_to 10162
  157.5459  130.8150  149.8085 LP  0  0  0  0  0  0  0  0  0  0  0  0  # atno 17370 bound_to 10713
  156.0207  130.3796  150.1970 LP  0  0  0  0  0  0  0  0  0  0  0  0  # atno 17371 bound_to 10713
  140.4995  134.1111  155.7248 LP  0  0  0  0  0  0  0  0  0  0  0  0  # atno 17394 bound_to 11000
  141.1528  133.8938  157.2055 LP  0  0  0  0  0  0  0  0  0  0  0  0  # atno 17395 bound_to 11000

$$$$
