AV-unprocessed.smi:1803|AV-procd|sdf|7279|dock2
  -GOLD-   22720 8543D 1   1.00000     0.00000
 Structure written by MMmdl.
 36 38  0  0  0  0  0  0  0  0  2 V2000
  149.4169  133.7149  155.6083 O   0  0  0  0  0  0  0  0  0  0  0  0
  149.1954  134.4848  154.6755 C   0  0  0  0  0  0  0  0  0  0  0  0
  149.8239  135.6773  154.5939 N   0  0  0  0  0  0  0  0  0  0  0  0
  150.7836  136.3040  155.4419 C   0  0  0  0  0  0  0  0  0  0  0  0
  151.8489  136.9965  155.0062 N   0  0  0  0  0  0  0  0  0  0  0  0
  152.6061  137.5053  156.0524 N   0  0  0  0  0  0  0  0  0  0  0  0
  152.0810  137.1843  157.2381 C   0  0  0  0  0  0  0  0  0  0  0  0
  150.6097  136.2296  157.1902 S   0  0  0  0  0  0  0  0  0  0  0  0
  148.3317  134.1963  153.6881 N   0  0  0  0  0  0  0  0  0  0  0  0
  147.5407  132.9752  153.5781 C   0  0  2  0  0  0  0  0  0  0  0  0
  148.3583  131.7118  153.8194 C   0  0  0  0  0  0  0  0  0  0  0  0
  147.4865  130.6348  153.1722 C   0  0  0  0  0  0  0  0  0  0  0  0
  146.8296  131.2839  152.0144 N   0  3  1  0  0  0  0  0  0  0  0  0
  145.4518  130.8075  151.7397 C   0  0  0  0  0  0  0  0  0  0  0  0
  144.8603  131.5273  150.5135 C   0  0  0  0  0  0  0  0  0  0  0  0
  145.0064  133.0620  150.5831 C   0  0  0  0  0  0  0  0  0  0  0  0
  145.6692  133.5295  151.8880 C   0  0  0  0  0  0  0  0  0  0  0  0
  146.9813  132.7596  152.1616 C   0  0  1  0  0  0  0  0  0  0  0  0
  149.5862  136.2152  153.7728 H   0  0  0  0  0  0  0  0  0  0  0  0
  152.5625  137.5133  158.1472 H   0  0  0  0  0  0  0  0  0  0  0  0
  148.2122  134.8839  152.9572 H   0  0  0  0  0  0  0  0  0  0  0  0
  146.7230  132.9862  154.3020 H   0  0  0  0  0  0  0  0  0  0  0  0
  149.3193  131.7733  153.3058 H   0  0  0  0  0  0  0  0  0  0  0  0
  148.5491  131.5228  154.8763 H   0  0  0  0  0  0  0  0  0  0  0  0
  148.0607  129.7600  152.8660 H   0  0  0  0  0  0  0  0  0  0  0  0
  146.7336  130.3045  153.8898 H   0  0  0  0  0  0  0  0  0  0  0  0
  145.4670  129.7306  151.5690 H   0  0  0  0  0  0  0  0  0  0  0  0
  144.8220  130.9776  152.6145 H   0  0  0  0  0  0  0  0  0  0  0  0
  145.3532  131.1642  149.6108 H   0  0  0  0  0  0  0  0  0  0  0  0
  143.8086  131.2589  150.4082 H   0  0  0  0  0  0  0  0  0  0  0  0
  145.6059  133.4020  149.7377 H   0  0  0  0  0  0  0  0  0  0  0  0
  144.0317  133.5380  150.4717 H   0  0  0  0  0  0  0  0  0  0  0  0
  145.8648  134.6009  151.8393 H   0  0  0  0  0  0  0  0  0  0  0  0
  144.9723  133.3887  152.7154 H   0  0  0  0  0  0  0  0  0  0  0  0
  147.7300  133.0594  151.4261 H   0  0  0  0  0  0  0  0  0  0  0  0
  147.3778  131.0406  151.2016 H   0  0  0  0  0  0  0  0  0  0  0  0
  1  2  2  0  0  0  0
  2  3  1  0  0  0  0
  2  9  1  0  0  0  0
  3  4  1  0  0  0  0
  3 19  1  0  0  0  0
  4  8  1  0  0  0  0
  4  5  2  0  0  0  0
  5  6  1  0  0  0  0
  6  7  2  0  0  0  0
  7  8  1  0  0  0  0
  7 20  1  0  0  0  0
  9 10  1  0  0  0  0
  9 21  1  0  0  0  0
 10 18  1  0  0  0  0
 10 11  1  0  0  0  0
 10 22  1  0  0  0  0
 11 12  1  0  0  0  0
 11 23  1  0  0  0  0
 11 24  1  0  0  0  0
 12 13  1  0  0  0  0
 12 25  1  0  0  0  0
 12 26  1  0  0  0  0
 13 18  1  0  0  0  0
 13 14  1  0  0  0  0
 13 36  1  0  0  0  0
 14 15  1  0  0  0  0
 14 27  1  0  0  0  0
 14 28  1  0  0  0  0
 15 16  1  0  0  0  0
 15 29  1  0  0  0  0
 15 30  1  0  0  0  0
 16 17  1  0  0  0  0
 16 31  1  0  0  0  0
 16 32  1  0  0  0  0
 17 18  1  0  0  0  0
 17 33  1  0  0  0  0
 17 34  1  0  0  0  0
 18 35  1  0  0  0  0
M  CHG  1  13   1
M  END
> <s_m_source_file>
AV-unprocessed.smi

> <i_m_source_file_index>
1803

> <i_lp_mmshare_version>
43012

> <i_f3d_flags>
0

> <s_epik_input>
czFbY0hdbm5jMVtOSF1DKD1PKVtOSF1bQ0BIXShbQ0gyXVtDSDJdMilbQ0BASF0oTjIzKVtDSDJdW0NIMl1bQ0gyXVtDSDJdMw==

> <s_epik_cmdline>
J2VwaWtfcHl0aG9uJywgJy1waCcsICc3LjAnLCAnLXRuJywgJzgnLCAnLW1hJywgJzIwMCcsICctbWV0YWxfYmluZGluZycsICctaW1hZScsICc8aW5maWxlLm1hZT4nLCAnLW9tYWUnLCAnPG91dGZpbGUubWFlPic=

> <r_lp_tautomer_probability>
1

> <r_epik_Ionization_Penalty>
0.00213286

> <r_epik_Ionization_Penalty_Charging>
0.00107044

> <r_epik_Ionization_Penalty_Neutral>
0.00106242

> <r_epik_State_Penalty>
-0

> <r_epik_Charging_Adjusted_Penalty>
0.00107044

> <i_epik_Tot_Q>
1

> <i_epik_Tot_abs_Q>
1

> <r_epik_Metal_State_Penalty>
0.292783

> <b_epik_Metal_Only>
0

> <s_lp_Force_Field>
OPLS_2005

> <r_lp_Energy>
41.2334

> <b_lp_Chiralities_Consistent>
1

> <s_lp_Variant>
AV-unprocessed.smi:1803-1

> <Gold.Version>
5.8.1

> <Gold.Id.Protein>
6NUR|6NUR_protein|mol2

> <Gold.PLP.Fitness>
39.1716

> <Gold.PLP.PLP>
-28.2434

> <Gold.PLP.part.hbond>
-5.1869

> <Gold.PLP.part.metal>
0.0000

> <Gold.PLP.part.buried>
-4.1210

> <Gold.PLP.part.nonpolar>
-19.6773

> <Gold.PLP.part.repulsive>
0.1912

> <Gold.PLP.ligand.clash>
0.0000

> <Gold.PLP.ligand.torsion>
0.5160

> <Gold.PLP.Chemscore.Hbond>
3.9840

> <Gold.PLP.Chemscore.CHOScore>
0.0000

> <Gold.PLP.Chemscore.Metal>
0.0000

> <Gold.Chemscore.Hbonds>
donor molecule, donor type, donor heavy atom, donor atom, acceptor molecule, acceptor atom, score
      L1  H     3    19       P1  7948  0.96
      L1  H     9    21       P1  7948  0.98
      L1  H    13    36       P1 10747  1.00
      P1  H 10752 10764       L1     5  0.99

> <Gold.PLP.Chemscore.Internal.Correction>
0.0083

> <Gold.Rescore>
     Score         DG    S(hbond)    S(metal)    S(lipo)     H(rot)  DE(clash)    DE(int)     intcor
     18.77     -20.47       3.12        0.00      60.96       1.00       0.00       1.70       ----

> <Gold.Chemscore.Fitness>
18.7711

> <Gold.Chemscore.DG>
-20.4736

> <Gold.Chemscore.ZeroCoef>
-5.4800

> <Gold.Chemscore.Hbond>
3.1201

> <Gold.Chemscore.Metal>
0.0000

> <Gold.Chemscore.Lipo>
60.9617

> <Gold.Chemscore.Internal_Hbond>
0.0000

> <Gold.Chemscore.DEClash>
0.0004

> <Gold.Chemscore.DEInternal>
1.7021

> <Gold.Chemscore.Rot>
1.0000

> <Gold.Chemscore.Internal.Correction>
   9.000000E+99

> <Gold.Chemscore.Hbonds>
donor molecule, donor type, donor heavy atom, donor atom, acceptor molecule, acceptor atom, score
      L1  H     3    19       P1  7948  0.50
      L1  H     9    21       P1  7948  0.77
      L1  H    13    36       P1 10747  0.97
      P1  H 10752 10764       L1     5  0.08

> <Gold.Chemscore.Hbond.Weighted>
-10.4211

> <Gold.Chemscore.Metal.Weighted>
-0.0000

> <Gold.Chemscore.Lipo.Weighted>
-7.1325

> <Gold.Chemscore.Internal_Hbond.Weighted>
0.0000

> <Gold.Chemscore.DEClash.Weighted>
0.0004

> <Gold.Chemscore.DEInternal.Weighted>
1.7021

> <Gold.Chemscore.Rot.Weighted>
2.5600

> <Gold.Chemscore.Internal.Correction.Weighted>
   9.000000E+99

> <Gold.Protein.RotatedTorsions>
[ 6907 6896 6895 6894 ] final   -7.13 input  -60.11 | X-H torsion
[ 7974 7965 7964 7962 ] final  -33.66 input  175.53 | X-H torsion
[ 8008 7997 7996 7995 ] final  171.31 input   59.86 | X-H torsion
[ 10167 10162 10161 10158 ] final -178.81 input  -65.29 | X-H torsion
[ 10718 10713 10712 10709 ] final  168.79 input   66.30 | X-H torsion
[ 10763 10752 10751 10750 ] final  -71.34 input  -60.55 | X-H torsion
[ 11005 11000 10999 10996 ] final   90.69 input  -57.11 | X-H torsion

> <Gold.Protein.ActiveResidues>
 VAL166  LYS551  ARG553  GLY616  TRP617  ASP618  TYR619  PRO620  LYS621  CYS622 
 ASP623  PHE694  ASN695  SER759  ASP760  ASP761  ALA762  ILE779  LEU786  VAL792 
 PHE793  MET794  SER795  GLU796  ALA797  LYS798  CYS799  TRP800  GLU811  SER814 

> <Gold.Protein.RotatedAtoms>
  151.4545  135.1033  159.9706 H   0  0  0  0  0  0  0  0  0  0  0  0  # atno 6907 bound_to 6896
  152.4876  133.8410  159.7163 H   0  0  0  0  0  0  0  0  0  0  0  0  # atno 6908 bound_to 6896
  150.8999  133.7072  159.2909 H   0  0  0  0  0  0  0  0  0  0  0  0  # atno 6909 bound_to 6896
  146.0892  140.5944  142.8872 H   0  0  0  0  0  0  0  0  0  0  0  0  # atno 7974 bound_to 7965
  156.1283  140.1515  156.9103 H   0  0  0  0  0  0  0  0  0  0  0  0  # atno 8008 bound_to 7997
  154.4889  140.0857  156.7590 H   0  0  0  0  0  0  0  0  0  0  0  0  # atno 8009 bound_to 7997
  155.4302  140.3427  155.4281 H   0  0  0  0  0  0  0  0  0  0  0  0  # atno 8010 bound_to 7997
  139.5415  144.2351  152.0904 H   0  0  0  0  0  0  0  0  0  0  0  0  # atno 10167 bound_to 10162
  157.0320  131.0262  151.2741 H   0  0  0  0  0  0  0  0  0  0  0  0  # atno 10718 bound_to 10713
  154.4303  135.5965  153.6065 H   0  0  0  0  0  0  0  0  0  0  0  0  # atno 10763 bound_to 10752
  152.9798  135.5973  154.3847 H   0  0  0  0  0  0  0  0  0  0  0  0  # atno 10764 bound_to 10752
  154.3684  135.2841  155.2259 H   0  0  0  0  0  0  0  0  0  0  0  0  # atno 10765 bound_to 10752
  139.8851  134.8629  156.3321 H   0  0  0  0  0  0  0  0  0  0  0  0  # atno 11005 bound_to 11000
  144.7348  140.4776  143.6912 LP  0  0  0  0  0  0  0  0  0  0  0  0  # atno 17320 bound_to 7965
  145.6071  139.1509  143.3096 LP  0  0  0  0  0  0  0  0  0  0  0  0  # atno 17321 bound_to 7965
  140.1830  144.4826  150.6518 LP  0  0  0  0  0  0  0  0  0  0  0  0  # atno 17342 bound_to 10162
  140.6646  143.2263  151.5773 LP  0  0  0  0  0  0  0  0  0  0  0  0  # atno 17343 bound_to 10162
  157.5171  130.7974  149.7767 LP  0  0  0  0  0  0  0  0  0  0  0  0  # atno 17370 bound_to 10713
  156.0066  130.3852  150.2408 LP  0  0  0  0  0  0  0  0  0  0  0  0  # atno 17371 bound_to 10713
  140.9716  133.7324  156.0543 LP  0  0  0  0  0  0  0  0  0  0  0  0  # atno 17394 bound_to 11000
  140.7863  134.3668  157.5475 LP  0  0  0  0  0  0  0  0  0  0  0  0  # atno 17395 bound_to 11000

$$$$
