AV-unprocessed.smi:290|AV-procd|sdf|2228|dock9
  -GOLD-   2262022 83D 1   1.00000     0.00000
 Structure written by MMmdl.
 59 62  0  0  0  0  0  0  0  0  2 V2000
  149.8488  138.4969  156.8535 C   0  0  0  0  0  0  0  0  0  0  0  0
  149.5528  139.9963  156.6874 C   0  0  1  0  0  0  0  0  0  0  0  0
  150.1591  140.7405  157.7348 O   0  0  0  0  0  0  0  0  0  0  0  0
  150.2174  142.0896  157.3087 C   0  0  0  0  0  0  0  0  0  0  0  0
  150.6944  141.9624  155.8677 C   0  0  0  0  0  0  0  0  0  0  0  0
  150.0378  140.6696  155.3751 C   0  0  1  0  0  0  0  0  0  0  0  0
  151.0276  139.8942  154.7192 O   0  0  0  0  0  0  0  0  0  0  0  0
  148.8895  140.9478  154.3733 C   0  0  0  0  0  0  0  0  0  0  0  0
  147.8608  139.9189  154.3674 N   0  0  0  0  0  0  0  0  0  0  0  0
  147.8556  138.7588  153.6264 C   0  0  0  0  0  0  0  0  0  0  0  0
  146.8083  137.9983  153.7910 N   0  0  0  0  0  0  0  0  0  0  0  0
  146.0343  138.6799  154.7234 C   0  0  0  0  0  0  0  0  0  0  0  0
  144.7801  138.4246  155.3497 C   0  0  0  0  0  0  0  0  0  0  0  0
  144.0264  137.3264  155.0762 N   0  0  0  0  0  0  0  0  0  0  0  0
  143.6384  136.4915  156.2111 C   0  0  0  0  0  0  0  0  0  0  0  0
  143.6710  135.0410  155.7185 C   0  0  0  0  0  0  0  0  0  0  0  0
  143.5222  135.1923  154.2009 C   0  0  2  0  0  0  0  0  0  0  0  0
  143.9504  134.0205  153.3846 N   0  3  2  0  0  0  0  0  0  0  0  0
  145.4158  133.8074  153.4444 C   0  0  0  0  0  0  0  0  0  0  0  0
  143.4216  133.9745  151.9939 C   0  0  0  0  0  0  0  0  0  0  0  0
  143.8362  132.6834  151.2710 C   0  0  0  0  0  0  0  0  0  0  0  0
  143.0362  132.4953  150.1226 O   0  0  0  0  0  0  0  0  0  0  0  0
  144.2886  136.4893  153.9057 C   0  0  1  0  0  0  0  0  0  0  0  0
  143.8516  137.1571  152.5894 C   0  0  0  0  0  0  0  0  0  0  0  0
  144.3397  139.3402  156.2534 N   0  0  0  0  0  0  0  0  0  0  0  0
  145.0642  140.4296  156.5241 C   0  0  0  0  0  0  0  0  0  0  0  0
  146.2397  140.7971  156.0125 N   0  0  0  0  0  0  0  0  0  0  0  0
  146.6913  139.8837  155.1063 C   0  0  0  0  0  0  0  0  0  0  0  0
  142.4682  135.3861  153.9902 H   0  0  0  0  0  0  0  0  0  0  0  0
  145.3590  136.2914  153.8638 H   0  0  0  0  0  0  0  0  0  0  0  0
  149.4051  137.9164  156.0444 H   0  0  0  0  0  0  0  0  0  0  0  0
  149.4380  138.1240  157.7917 H   0  0  0  0  0  0  0  0  0  0  0  0
  150.9209  138.2989  156.8636 H   0  0  0  0  0  0  0  0  0  0  0  0
  148.4785  140.1506  156.7965 H   0  0  0  0  0  0  0  0  0  0  0  0
  149.2231  142.5368  157.3563 H   0  0  0  0  0  0  0  0  0  0  0  0
  150.8937  142.6803  157.9269 H   0  0  0  0  0  0  0  0  0  0  0  0
  150.4411  142.8373  155.2677 H   0  0  0  0  0  0  0  0  0  0  0  0
  151.7823  141.8727  155.8680 H   0  0  0  0  0  0  0  0  0  0  0  0
  151.0087  139.0186  155.0738 H   0  0  0  0  0  0  0  0  0  0  0  0
  148.4140  141.9027  154.6020 H   0  0  0  0  0  0  0  0  0  0  0  0
  149.2844  141.0414  153.3608 H   0  0  0  0  0  0  0  0  0  0  0  0
  148.6545  138.4942  152.9492 H   0  0  0  0  0  0  0  0  0  0  0  0
  144.2948  136.6253  157.0725 H   0  0  0  0  0  0  0  0  0  0  0  0
  142.6274  136.7669  156.5127 H   0  0  0  0  0  0  0  0  0  0  0  0
  144.6306  134.6008  155.9886 H   0  0  0  0  0  0  0  0  0  0  0  0
  142.8865  134.4296  156.1651 H   0  0  0  0  0  0  0  0  0  0  0  0
  145.9516  134.6405  152.9880 H   0  0  0  0  0  0  0  0  0  0  0  0
  145.7048  132.8940  152.9252 H   0  0  0  0  0  0  0  0  0  0  0  0
  145.7514  133.7125  154.4774 H   0  0  0  0  0  0  0  0  0  0  0  0
  142.3347  134.0410  151.9722 H   0  0  0  0  0  0  0  0  0  0  0  0
  143.7808  134.8443  151.4419 H   0  0  0  0  0  0  0  0  0  0  0  0
  144.8777  132.7499  150.9555 H   0  0  0  0  0  0  0  0  0  0  0  0
  143.7562  131.8113  151.9196 H   0  0  0  0  0  0  0  0  0  0  0  0
  142.5848  133.3039  149.9304 H   0  0  0  0  0  0  0  0  0  0  0  0
  144.0248  136.4946  151.7412 H   0  0  0  0  0  0  0  0  0  0  0  0
  144.4034  138.0773  152.3992 H   0  0  0  0  0  0  0  0  0  0  0  0
  142.7902  137.4067  152.6045 H   0  0  0  0  0  0  0  0  0  0  0  0
  144.6408  141.1041  157.2538 H   0  0  0  0  0  0  0  0  0  0  0  0
  143.5407  133.2228  153.8505 H   0  0  0  0  0  0  0  0  0  0  0  0
  1  2  1  0  0  0  0
  1 31  1  0  0  0  0
  1 32  1  0  0  0  0
  1 33  1  0  0  0  0
  2  6  1  0  0  0  0
  2  3  1  0  0  0  0
  2 34  1  0  0  0  0
  3  4  1  0  0  0  0
  4  5  1  0  0  0  0
  4 35  1  0  0  0  0
  4 36  1  0  0  0  0
  5  6  1  0  0  0  0
  5 37  1  0  0  0  0
  5 38  1  0  0  0  0
  6  7  1  0  0  0  0
  6  8  1  0  0  0  0
  7 39  1  0  0  0  0
  8  9  1  0  0  0  0
  8 40  1  0  0  0  0
  8 41  1  0  0  0  0
  9 28  1  0  0  0  0
  9 10  1  0  0  0  0
 10 11  2  0  0  0  0
 10 42  1  0  0  0  0
 11 12  1  0  0  0  0
 12 28  2  0  0  0  0
 12 13  1  0  0  0  0
 13 14  1  0  0  0  0
 13 25  2  0  0  0  0
 14 23  1  0  0  0  0
 14 15  1  0  0  0  0
 15 16  1  0  0  0  0
 15 43  1  0  0  0  0
 15 44  1  0  0  0  0
 16 17  1  0  0  0  0
 16 45  1  0  0  0  0
 16 46  1  0  0  0  0
 17 29  1  0  0  0  0
 17 18  1  0  0  0  0
 17 23  1  0  0  0  0
 18 19  1  0  0  0  0
 18 20  1  0  0  0  0
 18 59  1  0  0  0  0
 19 47  1  0  0  0  0
 19 48  1  0  0  0  0
 19 49  1  0  0  0  0
 20 21  1  0  0  0  0
 20 50  1  0  0  0  0
 20 51  1  0  0  0  0
 21 22  1  0  0  0  0
 21 52  1  0  0  0  0
 21 53  1  0  0  0  0
 22 54  1  0  0  0  0
 23 30  1  0  0  0  0
 23 24  1  0  0  0  0
 24 55  1  0  0  0  0
 24 56  1  0  0  0  0
 24 57  1  0  0  0  0
 25 26  1  0  0  0  0
 26 27  2  0  0  0  0
 26 58  1  0  0  0  0
 27 28  1  0  0  0  0
M  CHG  1  18   1
M  END
> <s_m_source_file>
AV-unprocessed.smi

> <i_m_source_file_index>
290

> <i_lp_mmshare_version>
43012

> <i_f3d_flags>
0

> <s_epik_input>
W0NIMl0xW0NIMl1PW0NAQEhdKFtDSDNdKVtDQEBdMShbT0hdKVtDSDJdbihbY0hdbjIpYyhjMjMpbltjSF1uYzNONFtDSDJdW0NIMl1bQ0BIXShbQ0BIXTRbQ0gzXSlOKFtDSDNdKVtDSDJdW0NIMl1bT0hd

> <s_epik_cmdline>
J2VwaWtfcHl0aG9uJywgJy1waCcsICc3LjAnLCAnLXRuJywgJzgnLCAnLW1hJywgJzIwMCcsICctbWV0YWxfYmluZGluZycsICctaW1hZScsICc8aW5maWxlLm1hZT4nLCAnLW9tYWUnLCAnPG91dGZpbGUubWFlPic=

> <r_lp_tautomer_probability>
1

> <r_epik_Ionization_Penalty>
0.0036983

> <r_epik_Ionization_Penalty_Charging>
0.0032725

> <r_epik_Ionization_Penalty_Neutral>
0.000425798

> <r_epik_State_Penalty>
-0

> <r_epik_Charging_Adjusted_Penalty>
0.0032725

> <i_epik_Tot_Q>
1

> <i_epik_Tot_abs_Q>
1

> <r_epik_Metal_State_Penalty>
-0

> <b_epik_Metal_Only>
0

> <s_lp_Force_Field>
OPLS_2005

> <r_lp_Energy>
60.2599

> <b_lp_Chiralities_Consistent>
1

> <s_lp_Variant>
AV-unprocessed.smi:290-14

> <Gold.Version>
5.8.1

> <Gold.Id.Protein>
6NUR|6NUR_protein|mol2

> <Gold.PLP.Fitness>
45.1943

> <Gold.PLP.PLP>
-29.5725

> <Gold.PLP.part.hbond>
-3.7560

> <Gold.PLP.part.metal>
0.0000

> <Gold.PLP.part.buried>
-5.6327

> <Gold.PLP.part.nonpolar>
-20.0730

> <Gold.PLP.part.repulsive>
0.2994

> <Gold.PLP.ligand.clash>
0.0000

> <Gold.PLP.ligand.torsion>
1.3231

> <Gold.PLP.Chemscore.Hbond>
4.0000

> <Gold.PLP.Chemscore.CHOScore>
1.8883

> <Gold.PLP.Chemscore.Metal>
0.0000

> <Gold.Chemscore.Hbonds>
donor molecule, donor type, donor heavy atom, donor atom, acceptor molecule, acceptor atom, score
      L1  H    18    59       P1 10957  2.00
      L1  H    22    54       P1 10186  1.00
      P1  H  7989  7998       L1     7  1.00
      L1  C    10    42       P1  7948  0.93
      L1  C    10    42       P1  7957  0.90

> <Gold.PLP.Chemscore.Internal.Correction>
0.6031

> <Gold.Rescore>
     Score         DG    S(hbond)    S(metal)    S(lipo)     H(rot)  DE(clash)    DE(int)     intcor
     10.57     -13.04       2.95        0.00      60.68       3.67       0.00       2.47       ----

> <Gold.Chemscore.Fitness>
10.5699

> <Gold.Chemscore.DG>
-13.0433

> <Gold.Chemscore.ZeroCoef>
-5.4800

> <Gold.Chemscore.Hbond>
2.9486

> <Gold.Chemscore.Metal>
0.0000

> <Gold.Chemscore.Lipo>
60.6784

> <Gold.Chemscore.Internal_Hbond>
0.0000

> <Gold.Chemscore.DEClash>
0.0048

> <Gold.Chemscore.DEInternal>
2.4686

> <Gold.Chemscore.Rot>
3.6658

> <Gold.Chemscore.Internal.Correction>
   9.000000E+99

> <Gold.Chemscore.Hbonds>
donor molecule, donor type, donor heavy atom, donor atom, acceptor molecule, acceptor atom, score
      L1  H    18    59       P1 10957  0.99
      L1  H    22    54       P1 10186  0.96
      P1  H  7989  7998       L1     7  0.55

> <Gold.Chemscore.Hbond.Weighted>
-9.8483

> <Gold.Chemscore.Metal.Weighted>
-0.0000

> <Gold.Chemscore.Lipo.Weighted>
-7.0994

> <Gold.Chemscore.Internal_Hbond.Weighted>
0.0000

> <Gold.Chemscore.DEClash.Weighted>
0.0048

> <Gold.Chemscore.DEInternal.Weighted>
2.4686

> <Gold.Chemscore.Rot.Weighted>
9.3844

> <Gold.Chemscore.Internal.Correction.Weighted>
   9.000000E+99

> <Gold.Protein.RotatedTorsions>
[ 6907 6896 6895 6894 ] final  -55.88 input  -60.11 | X-H torsion
[ 7974 7965 7964 7962 ] final   96.94 input  175.53 | X-H torsion
[ 8008 7997 7996 7995 ] final  123.03 input   59.86 | X-H torsion
[ 10167 10162 10161 10158 ] final -137.67 input  -65.29 | X-H torsion
[ 10718 10713 10712 10709 ] final  -60.72 input   66.30 | X-H torsion
[ 10763 10752 10751 10750 ] final  -82.20 input  -60.55 | X-H torsion
[ 11005 11000 10999 10996 ] final  -61.92 input  -57.11 | X-H torsion

> <Gold.Protein.ActiveResidues>
 VAL166  LYS551  ARG553  GLY616  TRP617  ASP618  TYR619  PRO620  LYS621  CYS622 
 ASP623  PHE694  ASN695  SER759  ASP760  ASP761  ALA762  ILE779  LEU786  VAL792 
 PHE793  MET794  SER795  GLU796  ALA797  LYS798  CYS799  TRP800  GLU811  SER814 

> <Gold.Protein.RotatedAtoms>
  150.8214  134.7424  159.6775 H   0  0  0  0  0  0  0  0  0  0  0  0  # atno 6907 bound_to 6896
  152.4329  134.5739  159.9939 H   0  0  0  0  0  0  0  0  0  0  0  0  # atno 6908 bound_to 6896
  151.5922  133.3328  159.3066 H   0  0  0  0  0  0  0  0  0  0  0  0  # atno 6909 bound_to 6896
  145.4321  139.2309  143.3138 H   0  0  0  0  0  0  0  0  0  0  0  0  # atno 7974 bound_to 7965
  156.2751  140.2772  156.1563 H   0  0  0  0  0  0  0  0  0  0  0  0  # atno 8008 bound_to 7997
  155.0801  140.0387  157.2654 H   0  0  0  0  0  0  0  0  0  0  0  0  # atno 8009 bound_to 7997
  154.6971  140.2641  155.6761 H   0  0  0  0  0  0  0  0  0  0  0  0  # atno 8010 bound_to 7997
  139.8555  143.7144  152.2654 H   0  0  0  0  0  0  0  0  0  0  0  0  # atno 10167 bound_to 10162
  156.0971  130.4191  150.0894 H   0  0  0  0  0  0  0  0  0  0  0  0  # atno 10718 bound_to 10713
  154.5728  135.5599  153.7111 H   0  0  0  0  0  0  0  0  0  0  0  0  # atno 10763 bound_to 10752
  153.0054  135.6301  154.2090 H   0  0  0  0  0  0  0  0  0  0  0  0  # atno 10764 bound_to 10752
  154.2030  135.2877  155.2964 H   0  0  0  0  0  0  0  0  0  0  0  0  # atno 10765 bound_to 10752
  141.1341  133.6635  156.5448 H   0  0  0  0  0  0  0  0  0  0  0  0  # atno 11005 bound_to 11000
  146.2602  140.5059  142.8857 LP  0  0  0  0  0  0  0  0  0  0  0  0  # atno 17320 bound_to 7965
  144.8176  140.6495  143.6374 LP  0  0  0  0  0  0  0  0  0  0  0  0  # atno 17321 bound_to 7965
  139.7424  144.7556  151.0632 LP  0  0  0  0  0  0  0  0  0  0  0  0  # atno 17342 bound_to 10162
  140.7782  143.4956  150.9836 LP  0  0  0  0  0  0  0  0  0  0  0  0  # atno 17343 bound_to 10162
  156.8890  130.9582  151.3591 LP  0  0  0  0  0  0  0  0  0  0  0  0  # atno 17370 bound_to 10713
  157.6134  130.8600  149.8988 LP  0  0  0  0  0  0  0  0  0  0  0  0  # atno 17371 bound_to 10713
  140.4111  134.7272  157.4836 LP  0  0  0  0  0  0  0  0  0  0  0  0  # atno 17394 bound_to 11000
  140.0427  134.6244  155.8960 LP  0  0  0  0  0  0  0  0  0  0  0  0  # atno 17395 bound_to 11000

$$$$
