AV-unprocessed.smi:303|AV-procd|sdf|2274|dock10
  -GOLD-   2262022163D 1   1.00000     0.00000
 Structure written by MMmdl.
 45 46  0  0  0  0  0  0  0  0  1 V2000
  151.9142  142.9127  158.1117 C   0  0  0  0  0  0  0  0  0  0  0  0
  150.6703  142.2066  157.5590 C   0  0  0  0  0  0  0  0  0  0  0  0
  151.0423  140.4815  157.0068 S   0  0  0  0  0  0  0  0  0  0  0  0
  152.5004  140.2912  157.0452 O   0  0  0  0  0  0  0  0  0  0  0  0
  150.1653  139.5500  157.7335 O   0  0  0  0  0  0  0  0  0  0  0  0
  150.5599  140.4566  155.3334 N   0  0  0  0  0  0  0  0  0  0  0  0
  150.7179  139.2216  154.5420 C   0  0  0  0  0  0  0  0  0  0  0  0
  149.3748  138.4910  154.3679 C   0  0  0  0  0  0  0  0  0  0  0  0
  148.3105  139.4189  153.7549 C   0  0  0  0  0  0  0  0  0  0  0  0
  146.9620  138.7038  153.6088 C   0  0  0  0  0  0  0  0  0  0  0  0
  145.9975  139.0547  154.2896 O   0  0  0  0  0  0  0  0  0  0  0  0
  146.9041  137.7187  152.6982 N   0  0  0  0  0  0  0  0  0  0  0  0
  145.7034  136.9725  152.3291 C   0  0  0  0  0  0  0  0  0  0  0  0
  145.8488  136.2766  150.9612 C   0  0  0  0  0  0  0  0  0  0  0  0
  145.4216  134.8185  150.9709 C   0  0  0  0  0  0  0  0  0  0  0  0
  144.1114  134.4522  151.3484 C   0  0  0  0  0  0  0  0  0  0  0  0
  143.7804  133.0840  151.3804 C   0  0  0  0  0  0  0  0  0  0  0  0
  144.7646  132.1399  151.0301 C   0  0  0  0  0  0  0  0  0  0  0  0
  146.0412  132.6085  150.6604 C   0  0  0  0  0  0  0  0  0  0  0  0
  146.3698  133.9178  150.6288 N   0  0  0  0  0  0  0  0  0  0  0  0
  148.1673  140.6730  154.6363 C   0  0  0  0  0  0  0  0  0  0  0  0
  149.5187  141.3806  154.8369 C   0  0  0  0  0  0  0  0  0  0  0  0
  151.6681  143.9175  158.4548 H   0  0  0  0  0  0  0  0  0  0  0  0
  152.6870  143.0041  157.3481 H   0  0  0  0  0  0  0  0  0  0  0  0
  152.3398  142.3683  158.9540 H   0  0  0  0  0  0  0  0  0  0  0  0
  149.8638  142.1888  158.2873 H   0  0  0  0  0  0  0  0  0  0  0  0
  150.3040  142.7555  156.6917 H   0  0  0  0  0  0  0  0  0  0  0  0
  151.1208  139.4869  153.5639 H   0  0  0  0  0  0  0  0  0  0  0  0
  151.4507  138.5643  155.0094 H   0  0  0  0  0  0  0  0  0  0  0  0
  149.5198  137.6174  153.7311 H   0  0  0  0  0  0  0  0  0  0  0  0
  149.0358  138.1110  155.3315 H   0  0  0  0  0  0  0  0  0  0  0  0
  148.6521  139.7278  152.7652 H   0  0  0  0  0  0  0  0  0  0  0  0
  147.7484  137.4970  152.1907 H   0  0  0  0  0  0  0  0  0  0  0  0
  145.5218  136.2237  153.1001 H   0  0  0  0  0  0  0  0  0  0  0  0
  144.8276  137.6235  152.3276 H   0  0  0  0  0  0  0  0  0  0  0  0
  145.2645  136.8137  150.2129 H   0  0  0  0  0  0  0  0  0  0  0  0
  146.8865  136.3359  150.6301 H   0  0  0  0  0  0  0  0  0  0  0  0
  143.3811  135.1993  151.6222 H   0  0  0  0  0  0  0  0  0  0  0  0
  142.7908  132.7646  151.6718 H   0  0  0  0  0  0  0  0  0  0  0  0
  144.5471  131.0821  151.0438 H   0  0  0  0  0  0  0  0  0  0  0  0
  146.8200  131.9130  150.3846 H   0  0  0  0  0  0  0  0  0  0  0  0
  147.4664  141.3701  154.1752 H   0  0  0  0  0  0  0  0  0  0  0  0
  147.7352  140.4163  155.6029 H   0  0  0  0  0  0  0  0  0  0  0  0
  149.4045  142.2285  155.5112 H   0  0  0  0  0  0  0  0  0  0  0  0
  149.8552  141.7921  153.8848 H   0  0  0  0  0  0  0  0  0  0  0  0
  1  2  1  0  0  0  0
  1 23  1  0  0  0  0
  1 24  1  0  0  0  0
  1 25  1  0  0  0  0
  2  3  1  0  0  0  0
  2 26  1  0  0  0  0
  2 27  1  0  0  0  0
  3  4  2  0  0  0  0
  3  5  2  0  0  0  0
  3  6  1  0  0  0  0
  6 22  1  0  0  0  0
  6  7  1  0  0  0  0
  7  8  1  0  0  0  0
  7 28  1  0  0  0  0
  7 29  1  0  0  0  0
  8  9  1  0  0  0  0
  8 30  1  0  0  0  0
  8 31  1  0  0  0  0
  9 10  1  0  0  0  0
  9 21  1  0  0  0  0
  9 32  1  0  0  0  0
 10 11  2  0  0  0  0
 10 12  1  0  0  0  0
 12 13  1  0  0  0  0
 12 33  1  0  0  0  0
 13 14  1  0  0  0  0
 13 34  1  0  0  0  0
 13 35  1  0  0  0  0
 14 15  1  0  0  0  0
 14 36  1  0  0  0  0
 14 37  1  0  0  0  0
 15 20  1  0  0  0  0
 15 16  2  0  0  0  0
 16 17  1  0  0  0  0
 16 38  1  0  0  0  0
 17 18  2  0  0  0  0
 17 39  1  0  0  0  0
 18 19  1  0  0  0  0
 18 40  1  0  0  0  0
 19 20  2  0  0  0  0
 19 41  1  0  0  0  0
 21 22  1  0  0  0  0
 21 42  1  0  0  0  0
 21 43  1  0  0  0  0
 22 44  1  0  0  0  0
 22 45  1  0  0  0  0
M  END
> <s_m_source_file>
AV-unprocessed.smi

> <i_m_source_file_index>
303

> <i_lp_mmshare_version>
43012

> <i_f3d_flags>
0

> <s_epik_input>
W0NIM11bQ0gyXVMoPU8pKD1PKU4xW0NIMl1bQ0gyXVtDSF0oW0NIMl1bQ0gyXTEpQyg9TylbTkhdW0NIMl1bQ0gyXWMyW2NIXVtjSF1bY0hdW2NIXW4y

> <s_epik_cmdline>
J2VwaWtfcHl0aG9uJywgJy1waCcsICc3LjAnLCAnLXRuJywgJzgnLCAnLW1hJywgJzIwMCcsICctbWV0YWxfYmluZGluZycsICctaW1hZScsICc8aW5maWxlLm1hZT4nLCAnLW9tYWUnLCAnPG91dGZpbGUubWFlPic=

> <r_epik_Ionization_Penalty>
0.0277532

> <r_epik_Ionization_Penalty_Charging>
0

> <r_epik_Ionization_Penalty_Neutral>
0.0277532

> <r_epik_State_Penalty>
0.022734

> <r_epik_Charging_Adjusted_Penalty>
0.022734

> <i_epik_Tot_Q>
0

> <i_epik_Tot_abs_Q>
0

> <r_epik_Metal_State_Penalty>
0.021713

> <b_epik_Metal_Only>
0

> <s_lp_Force_Field>
OPLS_2005

> <r_lp_Energy>
1.72058

> <b_lp_Chiralities_Consistent>
1

> <s_lp_Variant>
AV-unprocessed.smi:303-1

> <Gold.Version>
5.8.1

> <Gold.Id.Protein>
6NUR|6NUR_protein|mol2

> <Gold.PLP.Fitness>
46.9229

> <Gold.PLP.PLP>
-39.5323

> <Gold.PLP.part.hbond>
-2.0000

> <Gold.PLP.part.metal>
0.0000

> <Gold.PLP.part.buried>
-2.5877

> <Gold.PLP.part.nonpolar>
-35.0798

> <Gold.PLP.part.repulsive>
0.3665

> <Gold.PLP.ligand.clash>
0.0000

> <Gold.PLP.ligand.torsion>
1.8888

> <Gold.PLP.Chemscore.Hbond>
2.0000

> <Gold.PLP.Chemscore.CHOScore>
1.0000

> <Gold.PLP.Chemscore.Metal>
0.0000

> <Gold.Chemscore.Hbonds>
donor molecule, donor type, donor heavy atom, donor atom, acceptor molecule, acceptor atom, score
      L1  H    12    33       P1  7948  0.93
      P1  H  7997  8008       L1     4  1.00
      L1  C    19    41       P1 10747  1.00

> <Gold.PLP.Chemscore.Internal.Correction>
2.1681

> <Gold.Rescore>
     Score         DG    S(hbond)    S(metal)    S(lipo)     H(rot)  DE(clash)    DE(int)     intcor
     15.65     -18.16       1.71        0.00      95.70       1.66       0.09       2.41       ----

> <Gold.Chemscore.Fitness>
15.6530

> <Gold.Chemscore.DG>
-18.1581

> <Gold.Chemscore.ZeroCoef>
-5.4800

> <Gold.Chemscore.Hbond>
1.7131

> <Gold.Chemscore.Metal>
0.0000

> <Gold.Chemscore.Lipo>
95.6971

> <Gold.Chemscore.Internal_Hbond>
0.0000

> <Gold.Chemscore.DEClash>
0.0918

> <Gold.Chemscore.DEInternal>
2.4134

> <Gold.Chemscore.Rot>
1.6563

> <Gold.Chemscore.Internal.Correction>
   9.000000E+99

> <Gold.Chemscore.Hbonds>
donor molecule, donor type, donor heavy atom, donor atom, acceptor molecule, acceptor atom, score
      L1  H    12    33       P1  7948  0.90
      P1  H  7997  8008       L1     4  0.94

> <Gold.Chemscore.Hbond.Weighted>
-5.7217

> <Gold.Chemscore.Metal.Weighted>
-0.0000

> <Gold.Chemscore.Lipo.Weighted>
-11.1966

> <Gold.Chemscore.Internal_Hbond.Weighted>
0.0000

> <Gold.Chemscore.DEClash.Weighted>
0.0918

> <Gold.Chemscore.DEInternal.Weighted>
2.4134

> <Gold.Chemscore.Rot.Weighted>
4.2401

> <Gold.Chemscore.Internal.Correction.Weighted>
   9.000000E+99

> <Gold.Protein.RotatedTorsions>
[ 6907 6896 6895 6894 ] final   79.53 input  -60.11 | X-H torsion
[ 7974 7965 7964 7962 ] final -142.85 input  175.53 | X-H torsion
[ 8008 7997 7996 7995 ] final  -58.01 input   59.86 | X-H torsion
[ 10167 10162 10161 10158 ] final -102.60 input  -65.29 | X-H torsion
[ 10718 10713 10712 10709 ] final  106.49 input   66.30 | X-H torsion
[ 10763 10752 10751 10750 ] final   93.56 input  -60.55 | X-H torsion
[ 11005 11000 10999 10996 ] final   30.05 input  -57.11 | X-H torsion

> <Gold.Protein.ActiveResidues>
 VAL166  LYS551  ARG553  GLY616  TRP617  ASP618  TYR619  PRO620  LYS621  CYS622 
 ASP623  PHE694  ASN695  SER759  ASP760  ASP761  ALA762  ILE779  LEU786  VAL792 
 PHE793  MET794  SER795  GLU796  ALA797  LYS798  CYS799  TRP800  GLU811  SER814 

> <Gold.Protein.RotatedAtoms>
  152.5202  134.3497  159.9246 H   0  0  0  0  0  0  0  0  0  0  0  0  # atno 6907 bound_to 6896
  151.3448  133.3942  159.2682 H   0  0  0  0  0  0  0  0  0  0  0  0  # atno 6908 bound_to 6896
  150.9774  134.9154  159.7882 H   0  0  0  0  0  0  0  0  0  0  0  0  # atno 6909 bound_to 6896
  144.8413  140.5908  143.5450 H   0  0  0  0  0  0  0  0  0  0  0  0  # atno 7974 bound_to 7965
  154.4291  140.1094  156.5889 H   0  0  0  0  0  0  0  0  0  0  0  0  # atno 8008 bound_to 7997
  155.6033  140.3493  155.4581 H   0  0  0  0  0  0  0  0  0  0  0  0  # atno 8009 bound_to 7997
  156.0156  140.1228  157.0399 H   0  0  0  0  0  0  0  0  0  0  0  0  # atno 8010 bound_to 7997
  140.2289  143.3621  152.0904 H   0  0  0  0  0  0  0  0  0  0  0  0  # atno 10167 bound_to 10162
  157.6666  131.0852  150.6014 H   0  0  0  0  0  0  0  0  0  0  0  0  # atno 10718 bound_to 10713
  153.2317  135.4321  155.0602 H   0  0  0  0  0  0  0  0  0  0  0  0  # atno 10763 bound_to 10752
  154.8300  135.3381  154.6778 H   0  0  0  0  0  0  0  0  0  0  0  0  # atno 10764 bound_to 10752
  153.7205  135.7017  153.5070 H   0  0  0  0  0  0  0  0  0  0  0  0  # atno 10765 bound_to 10752
  140.2984  134.2784  155.7759 H   0  0  0  0  0  0  0  0  0  0  0  0  # atno 11005 bound_to 11000
  145.4688  139.1505  143.3825 LP  0  0  0  0  0  0  0  0  0  0  0  0  # atno 17320 bound_to 7965
  146.2705  140.4821  142.8816 LP  0  0  0  0  0  0  0  0  0  0  0  0  # atno 17321 bound_to 7965
  139.5117  144.6905  151.5773 LP  0  0  0  0  0  0  0  0  0  0  0  0  # atno 17342 bound_to 10162
  140.6200  143.9276  150.6518 LP  0  0  0  0  0  0  0  0  0  0  0  0  # atno 17343 bound_to 10162
  156.6315  130.4433  149.5785 LP  0  0  0  0  0  0  0  0  0  0  0  0  # atno 17370 bound_to 10713
  156.2278  130.6776  151.1434 LP  0  0  0  0  0  0  0  0  0  0  0  0  # atno 17371 bound_to 10713
  141.2133  133.7630  156.9731 LP  0  0  0  0  0  0  0  0  0  0  0  0  # atno 17394 bound_to 11000
  140.1131  134.9464  157.2095 LP  0  0  0  0  0  0  0  0  0  0  0  0  # atno 17395 bound_to 11000

$$$$
