AV-unprocessed.smi:2104|AV-procd|sdf|8588|dock7
  -GOLD-   2272011323D 1   1.00000     0.00000
 Structure written by MMmdl.
 42 43  0  0  0  0  0  0  0  0  2 V2000
  146.0734  134.1162  161.8318 C   0  0  0  0  0  0  0  0  0  0  0  0
  147.0697  135.0737  161.2735 C   0  0  0  0  0  0  0  0  0  0  0  0
  148.1053  134.9277  160.3952 C   0  0  0  0  0  0  0  0  0  0  0  0
  148.6437  136.2405  160.3069 C   0  0  0  0  0  0  0  0  0  0  0  0
  149.6827  136.6149  159.5451 N   0  5  0  0  0  0  0  0  0  0  0  0
  149.5813  137.6973  158.7400 C   0  0  0  0  0  0  0  0  0  0  0  0
  148.6252  137.9827  158.0153 O   0  0  0  0  0  0  0  0  0  0  0  0
  150.6484  138.5072  158.7902 N   0  0  0  0  0  0  0  0  0  0  0  0
  150.7912  139.7868  158.1020 C   0  0  0  0  0  0  0  0  0  0  0  0
  152.0764  140.5145  158.5250 C   0  0  0  0  0  0  0  0  0  0  0  0
  151.7702  141.8822  158.7561 O   0  0  0  0  0  0  0  0  0  0  0  0
  152.8936  142.7015  159.0565 C   0  0  1  0  0  0  0  0  0  0  0  0
  152.6861  144.1205  158.4798 C   0  0  0  0  0  0  0  0  0  0  0  0
  151.4977  144.8362  159.1426 C   0  0  0  0  0  0  0  0  0  0  0  0
  151.6593  144.8843  160.6691 C   0  0  0  0  0  0  0  0  0  0  0  0
  151.8684  143.4783  161.2540 C   0  0  0  0  0  0  0  0  0  0  0  0
  153.0615  142.7593  160.5914 C   0  0  1  0  0  0  0  0  0  0  0  0
  153.3000  141.3680  161.1988 C   0  0  0  0  0  0  0  0  0  0  0  0
  147.9827  137.1099  161.0526 N   0  0  0  0  0  0  0  0  0  0  0  0
  146.9745  136.3682  161.6803 O   0  0  0  0  0  0  0  0  0  0  0  0
  146.5492  133.1697  162.0887 H   0  0  0  0  0  0  0  0  0  0  0  0
  145.2863  133.9138  161.1057 H   0  0  0  0  0  0  0  0  0  0  0  0
  145.6078  134.5151  162.7333 H   0  0  0  0  0  0  0  0  0  0  0  0
  148.4307  134.0268  159.8973 H   0  0  0  0  0  0  0  0  0  0  0  0
  151.4068  138.2317  159.3967 H   0  0  0  0  0  0  0  0  0  0  0  0
  150.8096  139.5965  157.0287 H   0  0  0  0  0  0  0  0  0  0  0  0
  149.9182  140.4119  158.2951 H   0  0  0  0  0  0  0  0  0  0  0  0
  152.4790  140.0770  159.4391 H   0  0  0  0  0  0  0  0  0  0  0  0
  152.8398  140.3940  157.7569 H   0  0  0  0  0  0  0  0  0  0  0  0
  153.7935  142.2585  158.6254 H   0  0  0  0  0  0  0  0  0  0  0  0
  153.5908  144.7076  158.6404 H   0  0  0  0  0  0  0  0  0  0  0  0
  152.5390  144.0907  157.4007 H   0  0  0  0  0  0  0  0  0  0  0  0
  151.4046  145.8473  158.7459 H   0  0  0  0  0  0  0  0  0  0  0  0
  150.5705  144.3213  158.8880 H   0  0  0  0  0  0  0  0  0  0  0  0
  152.5098  145.5168  160.9258 H   0  0  0  0  0  0  0  0  0  0  0  0
  150.7817  145.3479  161.1204 H   0  0  0  0  0  0  0  0  0  0  0  0
  152.0291  143.5531  162.3299 H   0  0  0  0  0  0  0  0  0  0  0  0
  150.9598  142.8897  161.1197 H   0  0  0  0  0  0  0  0  0  0  0  0
  153.9543  143.3513  160.7985 H   0  0  0  0  0  0  0  0  0  0  0  0
  152.4379  140.7161  161.0538 H   0  0  0  0  0  0  0  0  0  0  0  0
  153.4868  141.4359  162.2708 H   0  0  0  0  0  0  0  0  0  0  0  0
  154.1640  140.8838  160.7432 H   0  0  0  0  0  0  0  0  0  0  0  0
  1  2  1  0  0  0  0
  1 21  1  0  0  0  0
  1 22  1  0  0  0  0
  1 23  1  0  0  0  0
  2 20  1  0  0  0  0
  2  3  2  0  0  0  0
  3  4  1  0  0  0  0
  3 24  1  0  0  0  0
  4  5  1  0  0  0  0
  4 19  2  0  0  0  0
  5  6  1  0  0  0  0
  6  7  2  0  0  0  0
  6  8  1  0  0  0  0
  8  9  1  0  0  0  0
  8 25  1  0  0  0  0
  9 10  1  0  0  0  0
  9 26  1  0  0  0  0
  9 27  1  0  0  0  0
 10 11  1  0  0  0  0
 10 28  1  0  0  0  0
 10 29  1  0  0  0  0
 11 12  1  0  0  0  0
 12 17  1  0  0  0  0
 12 13  1  0  0  0  0
 12 30  1  0  0  0  0
 13 14  1  0  0  0  0
 13 31  1  0  0  0  0
 13 32  1  0  0  0  0
 14 15  1  0  0  0  0
 14 33  1  0  0  0  0
 14 34  1  0  0  0  0
 15 16  1  0  0  0  0
 15 35  1  0  0  0  0
 15 36  1  0  0  0  0
 16 17  1  0  0  0  0
 16 37  1  0  0  0  0
 16 38  1  0  0  0  0
 17 18  1  0  0  0  0
 17 39  1  0  0  0  0
 18 40  1  0  0  0  0
 18 41  1  0  0  0  0
 18 42  1  0  0  0  0
 19 20  1  0  0  0  0
M  CHG  1   5  -1
M  END
> <s_m_source_file>
AV-unprocessed.smi

> <i_m_source_file_index>
2104

> <i_lp_mmshare_version>
43012

> <i_f3d_flags>
0

> <s_epik_input>
W0NIM11jMVtjSF1jKG5vMSlbTkhdQyg9TylbTkhdW0NIMl1bQ0gyXU9bQ0BASF0yW0NIMl1bQ0gyXVtDSDJdW0NIMl1bQ0BIXTJbQ0gzXQ==

> <s_epik_cmdline>
J2VwaWtfcHl0aG9uJywgJy1waCcsICc3LjAnLCAnLXRuJywgJzgnLCAnLW1hJywgJzIwMCcsICctbWV0YWxfYmluZGluZycsICctaW1hZScsICc8aW5maWxlLm1hZT4nLCAnLW9tYWUnLCAnPG91dGZpbGUubWFlPic=

> <r_lp_tautomer_probability>
1

> <r_epik_Ionization_Penalty>
6.47137

> <r_epik_Ionization_Penalty_Charging>
6.47125

> <r_epik_Ionization_Penalty_Neutral>
0.000118933

> <r_epik_State_Penalty>
6.47124

> <r_epik_Charging_Adjusted_Penalty>
12.9425

> <i_epik_Tot_Q>
-1

> <i_epik_Tot_abs_Q>
1

> <r_epik_Metal_State_Penalty>
2.3995

> <b_epik_Metal_Only>
1

> <s_lp_Force_Field>
OPLS_2005

> <r_lp_Energy>
3.93088

> <b_lp_Chiralities_Consistent>
1

> <s_lp_Variant>
AV-unprocessed.smi:2104-6

> <Gold.Version>
5.8.1

> <Gold.Id.Protein>
6NUR|6NUR_protein|mol2

> <Gold.PLP.Fitness>
51.1366

> <Gold.PLP.PLP>
-43.2984

> <Gold.PLP.part.hbond>
-2.9543

> <Gold.PLP.part.metal>
0.0000

> <Gold.PLP.part.buried>
-5.6118

> <Gold.PLP.part.nonpolar>
-35.1134

> <Gold.PLP.part.repulsive>
0.1666

> <Gold.PLP.ligand.clash>
0.0000

> <Gold.PLP.ligand.torsion>
1.5779

> <Gold.PLP.Chemscore.Hbond>
3.6406

> <Gold.PLP.Chemscore.CHOScore>
0.0000

> <Gold.PLP.Chemscore.Metal>
0.0000

> <Gold.Chemscore.Hbonds>
donor molecule, donor type, donor heavy atom, donor atom, acceptor molecule, acceptor atom, score
      P1  H  6896  6909       L1     5  1.72
      P1  H  6931  6943       L1    19  0.99
      P1  H  6934  6947       L1    19  0.67

> <Gold.PLP.Chemscore.Internal.Correction>
0.0722

> <Gold.Rescore>
     Score         DG    S(hbond)    S(metal)    S(lipo)     H(rot)  DE(clash)    DE(int)     intcor
     18.51     -20.19       1.69        0.00     114.86       1.71       0.00       1.67       ----

> <Gold.Chemscore.Fitness>
18.5147

> <Gold.Chemscore.DG>
-20.1873

> <Gold.Chemscore.ZeroCoef>
-5.4800

> <Gold.Chemscore.Hbond>
1.6908

> <Gold.Chemscore.Metal>
0.0000

> <Gold.Chemscore.Lipo>
114.8583

> <Gold.Chemscore.Internal_Hbond>
0.0000

> <Gold.Chemscore.DEClash>
0.0015

> <Gold.Chemscore.DEInternal>
1.6711

> <Gold.Chemscore.Rot>
1.7103

> <Gold.Chemscore.Internal.Correction>
   9.000000E+99

> <Gold.Chemscore.Hbonds>
donor molecule, donor type, donor heavy atom, donor atom, acceptor molecule, acceptor atom, score
      P1  H  6896  6909       L1     5  0.25
      P1  H  6931  6943       L1    19  0.80
      P1  H  6934  6947       L1    19  0.30

> <Gold.Chemscore.Hbond.Weighted>
-5.6472

> <Gold.Chemscore.Metal.Weighted>
-0.0000

> <Gold.Chemscore.Lipo.Weighted>
-13.4384

> <Gold.Chemscore.Internal_Hbond.Weighted>
0.0000

> <Gold.Chemscore.DEClash.Weighted>
0.0015

> <Gold.Chemscore.DEInternal.Weighted>
1.6711

> <Gold.Chemscore.Rot.Weighted>
4.3784

> <Gold.Chemscore.Internal.Correction.Weighted>
   9.000000E+99

> <Gold.Protein.RotatedTorsions>
[ 6907 6896 6895 6894 ] final   83.29 input  -60.11 | X-H torsion
[ 7974 7965 7964 7962 ] final -144.33 input  175.53 | X-H torsion
[ 8008 7997 7996 7995 ] final   85.68 input   59.86 | X-H torsion
[ 10167 10162 10161 10158 ] final  -83.64 input  -65.29 | X-H torsion
[ 10718 10713 10712 10709 ] final  146.99 input   66.30 | X-H torsion
[ 10763 10752 10751 10750 ] final   88.05 input  -60.55 | X-H torsion
[ 11005 11000 10999 10996 ] final  178.09 input  -57.11 | X-H torsion

> <Gold.Protein.ActiveResidues>
 VAL166  LYS551  ARG553  GLY616  TRP617  ASP618  TYR619  PRO620  LYS621  CYS622 
 ASP623  PHE694  ASN695  SER759  ASP760  ASP761  ALA762  ILE779  LEU786  VAL792 
 PHE793  MET794  SER795  GLU796  ALA797  LYS798  CYS799  TRP800  GLU811  SER814 

> <Gold.Protein.RotatedAtoms>
  152.5323  134.2917  159.9045 H   0  0  0  0  0  0  0  0  0  0  0  0  # atno 6907 bound_to 6896
  151.2869  133.4177  159.2638 H   0  0  0  0  0  0  0  0  0  0  0  0  # atno 6908 bound_to 6896
  151.0234  134.9502  159.8129 H   0  0  0  0  0  0  0  0  0  0  0  0  # atno 6909 bound_to 6896
  144.8305  140.5723  143.5518 H   0  0  0  0  0  0  0  0  0  0  0  0  # atno 7974 bound_to 7965
  155.9531  140.3399  155.6425 H   0  0  0  0  0  0  0  0  0  0  0  0  # atno 8008 bound_to 7997
  155.6895  140.0747  157.2472 H   0  0  0  0  0  0  0  0  0  0  0  0  # atno 8009 bound_to 7997
  154.4126  140.1660  156.2058 H   0  0  0  0  0  0  0  0  0  0  0  0  # atno 8010 bound_to 7997
  140.4208  143.2585  151.8893 H   0  0  0  0  0  0  0  0  0  0  0  0  # atno 10167 bound_to 10162
  157.3264  131.0913  151.1198 H   0  0  0  0  0  0  0  0  0  0  0  0  # atno 10718 bound_to 10713
  153.1730  135.4521  154.9927 H   0  0  0  0  0  0  0  0  0  0  0  0  # atno 10763 bound_to 10752
  154.7979  135.3244  154.7625 H   0  0  0  0  0  0  0  0  0  0  0  0  # atno 10764 bound_to 10752
  153.8099  135.6955  153.4897 H   0  0  0  0  0  0  0  0  0  0  0  0  # atno 10765 bound_to 10752
  140.3913  134.6860  157.4509 H   0  0  0  0  0  0  0  0  0  0  0  0  # atno 11005 bound_to 11000
  145.4906  139.1489  143.3711 LP  0  0  0  0  0  0  0  0  0  0  0  0  # atno 17320 bound_to 7965
  146.2608  140.5044  142.8854 LP  0  0  0  0  0  0  0  0  0  0  0  0  # atno 17321 bound_to 7965
  139.4782  144.5439  151.8487 LP  0  0  0  0  0  0  0  0  0  0  0  0  # atno 17342 bound_to 10162
  140.4536  144.1821  150.5899 LP  0  0  0  0  0  0  0  0  0  0  0  0  # atno 17343 bound_to 10162
  157.2464  130.6593  149.5912 LP  0  0  0  0  0  0  0  0  0  0  0  0  # atno 17370 bound_to 10713
  155.9691  130.4552  150.5879 LP  0  0  0  0  0  0  0  0  0  0  0  0  # atno 17371 bound_to 10713
  140.0405  134.6275  155.8987 LP  0  0  0  0  0  0  0  0  0  0  0  0  # atno 17394 bound_to 11000
  141.1890  133.6564  156.5347 LP  0  0  0  0  0  0  0  0  0  0  0  0  # atno 17395 bound_to 11000

$$$$
