AV-unprocessed.smi:2190|AV-procd|sdf|8891|dock9
  -GOLD-   2272012 93D 1   1.00000     0.00000
 Structure written by MMmdl.
 47 49  0  0  0  0  0  0  0  0  2 V2000
  151.1780  145.3303  160.2846 C   0  0  0  0  0  0  0  0  0  0  0  0
  151.2622  144.0374  159.4995 C   0  0  0  0  0  0  0  0  0  0  0  0
  150.2340  143.6807  158.6063 C   0  0  0  0  0  0  0  0  0  0  0  0
  150.3182  142.4776  157.8830 C   0  0  0  0  0  0  0  0  0  0  0  0
  151.4285  141.6238  158.0482 C   0  0  0  0  0  0  0  0  0  0  0  0
  151.5017  140.3295  157.2600 C   0  0  0  0  0  0  0  0  0  0  0  0
  152.4683  141.9694  158.9426 C   0  0  0  0  0  0  0  0  0  0  0  0
  153.5259  141.0904  159.0576 O   0  0  0  0  0  0  0  0  0  0  0  0
  154.6836  141.5104  159.7673 C   0  0  0  0  0  0  0  0  0  0  0  0
  155.6153  140.3029  159.9536 C   0  0  1  0  0  0  0  0  0  0  0  0
  156.6195  140.6522  160.8858 O   0  0  0  0  0  0  0  0  0  0  0  0
  154.8530  139.0664  160.4695 C   0  0  0  0  0  0  0  0  0  0  0  0
  155.5613  137.8029  160.2011 N   0  0  0  0  0  0  0  0  0  0  0  0
  155.9502  137.2483  159.0163 C   0  0  0  0  0  0  0  0  0  0  0  0
  155.7541  137.8140  157.6481 C   0  0  0  0  0  0  0  0  0  0  0  0
  156.9774  138.0686  156.9944 O   0  0  0  0  0  0  0  0  0  0  0  0
  156.5745  136.0723  159.3061 N   0  3  0  0  0  0  0  0  0  0  0  0
  156.5889  135.8718  160.6865 C   0  0  0  0  0  0  0  0  0  0  0  0
  157.1090  134.8303  161.4488 C   0  0  0  0  0  0  0  0  0  0  0  0
  156.9628  134.9356  162.8473 C   0  0  0  0  0  0  0  0  0  0  0  0
  156.3225  136.0448  163.4366 C   0  0  0  0  0  0  0  0  0  0  0  0
  155.7980  137.0937  162.6530 C   0  0  0  0  0  0  0  0  0  0  0  0
  155.9430  136.9814  161.2700 C   0  0  0  0  0  0  0  0  0  0  0  0
  152.3721  143.1850  159.6673 C   0  0  0  0  0  0  0  0  0  0  0  0
  150.4212  145.9970  159.8700 H   0  0  0  0  0  0  0  0  0  0  0  0
  152.1351  145.8523  160.2657 H   0  0  0  0  0  0  0  0  0  0  0  0
  150.9198  145.1228  161.3231 H   0  0  0  0  0  0  0  0  0  0  0  0
  149.3782  144.3262  158.4731 H   0  0  0  0  0  0  0  0  0  0  0  0
  149.5245  142.2129  157.1998 H   0  0  0  0  0  0  0  0  0  0  0  0
  152.3956  140.3161  156.6358 H   0  0  0  0  0  0  0  0  0  0  0  0
  150.6340  140.2068  156.6112 H   0  0  0  0  0  0  0  0  0  0  0  0
  151.5415  139.4757  157.9368 H   0  0  0  0  0  0  0  0  0  0  0  0
  155.2012  142.3227  159.2534 H   0  0  0  0  0  0  0  0  0  0  0  0
  154.3708  141.8788  160.7459 H   0  0  0  0  0  0  0  0  0  0  0  0
  156.0878  140.0562  159.0021 H   0  0  0  0  0  0  0  0  0  0  0  0
  156.7486  141.5878  160.8472 H   0  0  0  0  0  0  0  0  0  0  0  0
  154.6459  139.1484  161.5363 H   0  0  0  0  0  0  0  0  0  0  0  0
  153.8792  139.0003  159.9839 H   0  0  0  0  0  0  0  0  0  0  0  0
  155.1707  137.1148  157.0486 H   0  0  0  0  0  0  0  0  0  0  0  0
  155.1801  138.7384  157.7070 H   0  0  0  0  0  0  0  0  0  0  0  0
  157.6781  137.9865  157.6234 H   0  0  0  0  0  0  0  0  0  0  0  0
  157.6034  133.9815  160.9997 H   0  0  0  0  0  0  0  0  0  0  0  0
  157.3522  134.1514  163.4806 H   0  0  0  0  0  0  0  0  0  0  0  0
  156.2330  136.0940  164.5121 H   0  0  0  0  0  0  0  0  0  0  0  0
  155.3165  137.9408  163.1181 H   0  0  0  0  0  0  0  0  0  0  0  0
  153.1406  143.4869  160.3623 H   0  0  0  0  0  0  0  0  0  0  0  0
  156.9681  135.4563  158.6065 H   0  0  0  0  0  0  0  0  0  0  0  0
  1  2  1  0  0  0  0
  1 25  1  0  0  0  0
  1 26  1  0  0  0  0
  1 27  1  0  0  0  0
  2 24  1  0  0  0  0
  2  3  2  0  0  0  0
  3  4  1  0  0  0  0
  3 28  1  0  0  0  0
  4  5  2  0  0  0  0
  4 29  1  0  0  0  0
  5  6  1  0  0  0  0
  5  7  1  0  0  0  0
  6 30  1  0  0  0  0
  6 31  1  0  0  0  0
  6 32  1  0  0  0  0
  7  8  1  0  0  0  0
  7 24  2  0  0  0  0
  8  9  1  0  0  0  0
  9 10  1  0  0  0  0
  9 33  1  0  0  0  0
  9 34  1  0  0  0  0
 10 11  1  0  0  0  0
 10 12  1  0  0  0  0
 10 35  1  0  0  0  0
 11 36  1  0  0  0  0
 12 13  1  0  0  0  0
 12 37  1  0  0  0  0
 12 38  1  0  0  0  0
 13 23  1  0  0  0  0
 13 14  1  0  0  0  0
 14 15  1  0  0  0  0
 14 17  2  0  0  0  0
 15 16  1  0  0  0  0
 15 39  1  0  0  0  0
 15 40  1  0  0  0  0
 16 41  1  0  0  0  0
 17 18  1  0  0  0  0
 17 47  1  0  0  0  0
 18 23  2  0  0  0  0
 18 19  1  0  0  0  0
 19 20  2  0  0  0  0
 19 42  1  0  0  0  0
 20 21  1  0  0  0  0
 20 43  1  0  0  0  0
 21 22  2  0  0  0  0
 21 44  1  0  0  0  0
 22 23  1  0  0  0  0
 22 45  1  0  0  0  0
 24 46  1  0  0  0  0
M  CHG  1  17   1
M  END
> <s_m_source_file>
AV-unprocessed.smi

> <i_m_source_file_index>
2190

> <i_lp_mmshare_version>
43012

> <i_f3d_flags>
0

> <s_epik_input>
W0NIM11jMVtjSF1bY0hdYyhbQ0gzXSljKFtjSF0xKU9bQ0gyXVtDQEhdKFtPSF0pW0NIMl1uKGMobjIpW0NIMl1bT0hdKWMoYzIzKVtjSF1bY0hdW2NIXVtjSF0z

> <s_epik_cmdline>
J2VwaWtfcHl0aG9uJywgJy1waCcsICc3LjAnLCAnLXRuJywgJzgnLCAnLW1hJywgJzIwMCcsICctbWV0YWxfYmluZGluZycsICctaW1hZScsICc8aW5maWxlLm1hZT4nLCAnLW9tYWUnLCAnPG91dGZpbGUubWFlPic=

> <r_lp_tautomer_probability>
1

> <r_epik_Ionization_Penalty>
1.43125

> <r_epik_Ionization_Penalty_Charging>
1.43039

> <r_epik_Ionization_Penalty_Neutral>
0.000858184

> <r_epik_State_Penalty>
1.51493

> <r_epik_Charging_Adjusted_Penalty>
2.94531

> <i_epik_Tot_Q>
1

> <i_epik_Tot_abs_Q>
1

> <r_epik_Metal_State_Penalty>
5.5599

> <b_epik_Metal_Only>
0

> <s_lp_Force_Field>
OPLS_2005

> <r_lp_Energy>
19.5123

> <b_lp_Chiralities_Consistent>
1

> <s_lp_Variant>
AV-unprocessed.smi:2190-4

> <Gold.Version>
5.8.1

> <Gold.Id.Protein>
6NUR|6NUR_protein|mol2

> <Gold.PLP.Fitness>
49.6273

> <Gold.PLP.PLP>
-50.3545

> <Gold.PLP.part.hbond>
-1.0000

> <Gold.PLP.part.metal>
0.0000

> <Gold.PLP.part.buried>
-4.3190

> <Gold.PLP.part.nonpolar>
-44.3143

> <Gold.PLP.part.repulsive>
0.0576

> <Gold.PLP.ligand.clash>
0.0000

> <Gold.PLP.ligand.torsion>
0.4030

> <Gold.PLP.Chemscore.Hbond>
0.0000

> <Gold.PLP.Chemscore.CHOScore>
0.0000

> <Gold.PLP.Chemscore.Metal>
0.0000

> <Gold.Chemscore.Hbonds>
donor molecule, donor type, donor heavy atom, donor atom, acceptor molecule, acceptor atom, score
      P1  H  7997  8009       L1    16  0.12

> <Gold.PLP.Chemscore.Internal.Correction>
0.0789

> <Gold.Rescore>
     Score         DG    S(hbond)    S(metal)    S(lipo)     H(rot)  DE(clash)    DE(int)     intcor
     14.89     -15.74       0.25        0.00     147.34       3.05       0.19       0.67       ----

> <Gold.Chemscore.Fitness>
14.8858

> <Gold.Chemscore.DG>
-15.7416

> <Gold.Chemscore.ZeroCoef>
-5.4800

> <Gold.Chemscore.Hbond>
0.2469

> <Gold.Chemscore.Metal>
0.0000

> <Gold.Chemscore.Lipo>
147.3404

> <Gold.Chemscore.Internal_Hbond>
0.0000

> <Gold.Chemscore.DEClash>
0.1879

> <Gold.Chemscore.DEInternal>
0.6680

> <Gold.Chemscore.Rot>
3.0476

> <Gold.Chemscore.Internal.Correction>
   9.000000E+99

> <Gold.Chemscore.Hbonds>
donor molecule, donor type, donor heavy atom, donor atom, acceptor molecule, acceptor atom, score
      P1  H  7997  8009       L1    16  0.01

> <Gold.Chemscore.Hbond.Weighted>
-0.8245

> <Gold.Chemscore.Metal.Weighted>
-0.0000

> <Gold.Chemscore.Lipo.Weighted>
-17.2388

> <Gold.Chemscore.Internal_Hbond.Weighted>
0.0000

> <Gold.Chemscore.DEClash.Weighted>
0.1879

> <Gold.Chemscore.DEInternal.Weighted>
0.6680

> <Gold.Chemscore.Rot.Weighted>
7.8018

> <Gold.Chemscore.Internal.Correction.Weighted>
   9.000000E+99

> <Gold.Protein.RotatedTorsions>
[ 6907 6896 6895 6894 ] final -123.37 input  -60.11 | X-H torsion
[ 7974 7965 7964 7962 ] final -105.55 input  175.53 | X-H torsion
[ 8008 7997 7996 7995 ] final   22.64 input   59.86 | X-H torsion
[ 10167 10162 10161 10158 ] final  -55.30 input  -65.29 | X-H torsion
[ 10718 10713 10712 10709 ] final   40.62 input   66.30 | X-H torsion
[ 10763 10752 10751 10750 ] final  164.69 input  -60.55 | X-H torsion
[ 11005 11000 10999 10996 ] final -156.04 input  -57.11 | X-H torsion

> <Gold.Protein.ActiveResidues>
 VAL166  LYS551  ARG553  GLY616  TRP617  ASP618  TYR619  PRO620  LYS621  CYS622 
 ASP623  PHE694  ASN695  SER759  ASP760  ASP761  ALA762  ILE779  LEU786  VAL792 
 PHE793  MET794  SER795  GLU796  ALA797  LYS798  CYS799  TRP800  GLU811  SER814 

> <Gold.Protein.RotatedAtoms>
  150.8665  133.7568  159.2974 H   0  0  0  0  0  0  0  0  0  0  0  0  # atno 6907 bound_to 6896
  151.5193  135.1065  159.9884 H   0  0  0  0  0  0  0  0  0  0  0  0  # atno 6908 bound_to 6896
  152.4664  133.7888  159.6946 H   0  0  0  0  0  0  0  0  0  0  0  0  # atno 6909 bound_to 6896
  145.2291  140.9164  143.3215 H   0  0  0  0  0  0  0  0  0  0  0  0  # atno 7974 bound_to 7965
  154.9688  140.3087  155.4997 H   0  0  0  0  0  0  0  0  0  0  0  0  # atno 8008 bound_to 7997
  156.2968  140.2288  156.4718 H   0  0  0  0  0  0  0  0  0  0  0  0  # atno 8009 bound_to 7997
  154.7896  140.0440  157.1179 H   0  0  0  0  0  0  0  0  0  0  0  0  # atno 8010 bound_to 7997
  140.6382  143.2493  151.5060 H   0  0  0  0  0  0  0  0  0  0  0  0  # atno 10167 bound_to 10162
  157.3842  130.7770  149.7217 H   0  0  0  0  0  0  0  0  0  0  0  0  # atno 10718 bound_to 10713
  154.3128  135.2757  155.2558 H   0  0  0  0  0  0  0  0  0  0  0  0  # atno 10763 bound_to 10752
  154.4945  135.5824  153.6488 H   0  0  0  0  0  0  0  0  0  0  0  0  # atno 10764 bound_to 10752
  152.9886  135.6143  154.3306 H   0  0  0  0  0  0  0  0  0  0  0  0  # atno 10765 bound_to 10752
  140.6799  134.4156  157.5227 H   0  0  0  0  0  0  0  0  0  0  0  0  # atno 11005 bound_to 11000
  144.9693  139.3897  143.6317 LP  0  0  0  0  0  0  0  0  0  0  0  0  # atno 17320 bound_to 7965
  146.3357  139.8784  142.8828 LP  0  0  0  0  0  0  0  0  0  0  0  0  # atno 17321 bound_to 7965
  139.5592  144.2199  152.1663 LP  0  0  0  0  0  0  0  0  0  0  0  0  # atno 17342 bound_to 10162
  140.1461  144.5157  150.6715 LP  0  0  0  0  0  0  0  0  0  0  0  0  # atno 17343 bound_to 10162
  155.9783  130.4053  150.3659 LP  0  0  0  0  0  0  0  0  0  0  0  0  # atno 17370 bound_to 10713
  157.1767  131.0382  151.2769 LP  0  0  0  0  0  0  0  0  0  0  0  0  # atno 17371 bound_to 10713
  139.8955  134.8682  156.2129 LP  0  0  0  0  0  0  0  0  0  0  0  0  # atno 17394 bound_to 11000
  141.0325  133.6981  156.1456 LP  0  0  0  0  0  0  0  0  0  0  0  0  # atno 17395 bound_to 11000

$$$$
