AV-unprocessed.smi:152|AV-procd|sdf|1247|dock3
  -GOLD-   2262018473D 1   1.00000     0.00000
 Structure written by MMmdl.
 58 61  0  0  0  0  0  0  0  0  2 V2000
  148.9138  132.5152  153.4440 C   0  0  0  0  0  0  0  0  0  0  0  0
  147.8503  133.2486  152.6163 C   0  0  0  0  0  0  0  0  0  0  0  0
  147.0736  132.3162  151.7627 N   0  3  1  0  0  0  0  0  0  0  0  0
  146.5074  131.1342  152.4542 C   0  0  0  0  0  0  0  0  0  0  0  0
  145.2383  130.7435  151.6842 C   0  0  0  0  0  0  0  0  0  0  0  0
  145.2195  131.6687  150.4684 C   0  0  0  0  0  0  0  0  0  0  0  0
  145.9961  132.9065  150.9321 C   0  0  1  0  0  0  0  0  0  0  0  0
  145.1239  133.9249  151.7142 C   0  0  0  0  0  0  0  0  0  0  0  0
  145.5662  135.3124  151.5430 N   0  0  0  0  0  0  0  0  0  0  0  0
  145.4016  135.9191  150.2274 C   0  0  0  0  0  0  0  0  0  0  0  0
  145.9727  136.0687  152.6067 C   0  0  0  0  0  0  0  0  0  0  0  0
  145.9813  135.4968  153.8414 N   0  0  0  0  0  0  0  0  0  0  0  0
  146.3589  136.1857  154.9203 C   0  0  0  0  0  0  0  0  0  0  0  0
  146.7633  137.4519  154.9978 N   0  0  0  0  0  0  0  0  0  0  0  0
  146.7621  138.0445  153.7709 C   0  0  0  0  0  0  0  0  0  0  0  0
  146.3916  137.4354  152.5346 C   0  0  0  0  0  0  0  0  0  0  0  0
  146.5313  138.3667  151.5091 N   0  0  0  0  0  0  0  0  0  0  0  0
  146.9566  139.4487  152.0990 C   0  0  0  0  0  0  0  0  0  0  0  0
  147.1110  139.3475  153.4611 N   0  0  0  0  0  0  0  0  0  0  0  0
  147.5608  140.3937  154.3671 C   0  0  0  0  0  0  0  0  0  0  0  0
  149.1014  140.5354  154.4541 C   0  0  0  0  0  0  0  0  0  0  0  0
  149.5599  141.0601  153.2202 O   0  0  0  0  0  0  0  0  0  0  0  0
  149.4843  141.5231  155.5746 C   0  0  0  0  0  0  0  0  0  0  0  0
  151.0034  141.5675  155.8172 C   0  0  0  0  0  0  0  0  0  0  0  0
  151.4895  140.2597  156.0932 O   0  0  0  0  0  0  0  0  0  0  0  0
  151.3109  139.3660  155.0012 C   0  0  0  0  0  0  0  0  0  0  0  0
  149.8118  139.1863  154.7025 C   0  0  0  0  0  0  0  0  0  0  0  0
  149.5067  133.2235  154.0232 H   0  0  0  0  0  0  0  0  0  0  0  0
  149.5973  131.9577  152.8030 H   0  0  0  0  0  0  0  0  0  0  0  0
  148.4631  131.8138  154.1467 H   0  0  0  0  0  0  0  0  0  0  0  0
  147.1838  133.8066  153.2756 H   0  0  0  0  0  0  0  0  0  0  0  0
  148.3498  133.9765  151.9757 H   0  0  0  0  0  0  0  0  0  0  0  0
  147.2391  130.3257  152.4626 H   0  0  0  0  0  0  0  0  0  0  0  0
  146.2569  131.3691  153.4898 H   0  0  0  0  0  0  0  0  0  0  0  0
  145.2302  129.6913  151.3982 H   0  0  0  0  0  0  0  0  0  0  0  0
  144.3592  130.9241  152.3041 H   0  0  0  0  0  0  0  0  0  0  0  0
  145.7600  131.1929  149.6488 H   0  0  0  0  0  0  0  0  0  0  0  0
  144.2139  131.8764  150.1049 H   0  0  0  0  0  0  0  0  0  0  0  0
  146.4487  133.4084  150.0761 H   0  0  0  0  0  0  0  0  0  0  0  0
  144.0696  133.7898  151.4750 H   0  0  0  0  0  0  0  0  0  0  0  0
  145.1922  133.7179  152.7821 H   0  0  0  0  0  0  0  0  0  0  0  0
  144.6358  136.6948  150.2532 H   0  0  0  0  0  0  0  0  0  0  0  0
  145.0957  135.1778  149.4886 H   0  0  0  0  0  0  0  0  0  0  0  0
  146.3394  136.3556  149.8828 H   0  0  0  0  0  0  0  0  0  0  0  0
  146.3322  135.6454  155.8550 H   0  0  0  0  0  0  0  0  0  0  0  0
  147.1616  140.3589  151.5542 H   0  0  0  0  0  0  0  0  0  0  0  0
  147.1105  141.3368  154.0533 H   0  0  0  0  0  0  0  0  0  0  0  0
  147.1505  140.1781  155.3548 H   0  0  0  0  0  0  0  0  0  0  0  0
  149.4710  140.3921  152.5577 H   0  0  0  0  0  0  0  0  0  0  0  0
  149.1121  142.5231  155.3472 H   0  0  0  0  0  0  0  0  0  0  0  0
  148.9972  141.2211  156.5028 H   0  0  0  0  0  0  0  0  0  0  0  0
  151.5281  141.9903  154.9589 H   0  0  0  0  0  0  0  0  0  0  0  0
  151.2254  142.2100  156.6693 H   0  0  0  0  0  0  0  0  0  0  0  0
  151.8456  139.7338  154.1242 H   0  0  0  0  0  0  0  0  0  0  0  0
  151.7556  138.4048  155.2600 H   0  0  0  0  0  0  0  0  0  0  0  0
  149.3465  138.6868  155.5533 H   0  0  0  0  0  0  0  0  0  0  0  0
  149.6895  138.5182  153.8491 H   0  0  0  0  0  0  0  0  0  0  0  0
  147.7286  131.9415  151.0914 H   0  0  0  0  0  0  0  0  0  0  0  0
  1  2  1  0  0  0  0
  1 28  1  0  0  0  0
  1 29  1  0  0  0  0
  1 30  1  0  0  0  0
  2  3  1  0  0  0  0
  2 31  1  0  0  0  0
  2 32  1  0  0  0  0
  3  7  1  0  0  0  0
  3  4  1  0  0  0  0
  3 58  1  0  0  0  0
  4  5  1  0  0  0  0
  4 33  1  0  0  0  0
  4 34  1  0  0  0  0
  5  6  1  0  0  0  0
  5 35  1  0  0  0  0
  5 36  1  0  0  0  0
  6  7  1  0  0  0  0
  6 37  1  0  0  0  0
  6 38  1  0  0  0  0
  7  8  1  0  0  0  0
  7 39  1  0  0  0  0
  8  9  1  0  0  0  0
  8 40  1  0  0  0  0
  8 41  1  0  0  0  0
  9 10  1  0  0  0  0
  9 11  1  0  0  0  0
 10 42  1  0  0  0  0
 10 43  1  0  0  0  0
 10 44  1  0  0  0  0
 11 16  1  0  0  0  0
 11 12  2  0  0  0  0
 12 13  1  0  0  0  0
 13 14  2  0  0  0  0
 13 45  1  0  0  0  0
 14 15  1  0  0  0  0
 15 19  1  0  0  0  0
 15 16  2  0  0  0  0
 16 17  1  0  0  0  0
 17 18  2  0  0  0  0
 18 19  1  0  0  0  0
 18 46  1  0  0  0  0
 19 20  1  0  0  0  0
 20 21  1  0  0  0  0
 20 47  1  0  0  0  0
 20 48  1  0  0  0  0
 21 27  1  0  0  0  0
 21 22  1  0  0  0  0
 21 23  1  0  0  0  0
 22 49  1  0  0  0  0
 23 24  1  0  0  0  0
 23 50  1  0  0  0  0
 23 51  1  0  0  0  0
 24 25  1  0  0  0  0
 24 52  1  0  0  0  0
 24 53  1  0  0  0  0
 25 26  1  0  0  0  0
 26 27  1  0  0  0  0
 26 54  1  0  0  0  0
 26 55  1  0  0  0  0
 27 56  1  0  0  0  0
 27 57  1  0  0  0  0
M  CHG  1   3   1
M  END
> <s_m_source_file>
AV-unprocessed.smi

> <i_m_source_file_index>
152

> <i_lp_mmshare_version>
43012

> <i_f3d_flags>
0

> <s_epik_input>
W0NIM11bQ0gyXU4xW0NIMl1bQ0gyXVtDSDJdW0NASF0xW0NIMl1OKFtDSDNdKWMobltjSF1uMiljKGMyMyluW2NIXW4zW0NIMl1DNChbT0hdKVtDSDJdW0NIMl1PW0NIMl1bQ0gyXTQ=

> <s_epik_cmdline>
J2VwaWtfcHl0aG9uJywgJy1waCcsICc3LjAnLCAnLXRuJywgJzgnLCAnLW1hJywgJzIwMCcsICctbWV0YWxfYmluZGluZycsICctaW1hZScsICc8aW5maWxlLm1hZT4nLCAnLW9tYWUnLCAnPG91dGZpbGUubWFlPic=

> <r_lp_tautomer_probability>
1

> <r_epik_Ionization_Penalty>
0.00152183

> <r_epik_Ionization_Penalty_Charging>
0.00112577

> <r_epik_Ionization_Penalty_Neutral>
0.000396066

> <r_epik_State_Penalty>
-0

> <r_epik_Charging_Adjusted_Penalty>
0.00112577

> <i_epik_Tot_Q>
1

> <i_epik_Tot_abs_Q>
1

> <r_epik_Metal_State_Penalty>
-0

> <b_epik_Metal_Only>
0

> <s_lp_Force_Field>
OPLS_2005

> <r_lp_Energy>
46.3876

> <b_lp_Chiralities_Consistent>
1

> <s_lp_Variant>
AV-unprocessed.smi:152-2

> <Gold.Version>
5.8.1

> <Gold.Id.Protein>
6NUR|6NUR_protein|mol2

> <Gold.PLP.Fitness>
54.1333

> <Gold.PLP.PLP>
-45.5657

> <Gold.PLP.part.hbond>
-3.4181

> <Gold.PLP.part.metal>
0.0000

> <Gold.PLP.part.buried>
0.3595

> <Gold.PLP.part.nonpolar>
-41.6423

> <Gold.PLP.part.repulsive>
0.5300

> <Gold.PLP.ligand.clash>
0.0000

> <Gold.PLP.ligand.torsion>
0.8981

> <Gold.PLP.Chemscore.Hbond>
3.0234

> <Gold.PLP.Chemscore.CHOScore>
0.3801

> <Gold.PLP.Chemscore.Metal>
0.0000

> <Gold.Chemscore.Hbonds>
donor molecule, donor type, donor heavy atom, donor atom, acceptor molecule, acceptor atom, score
      L1  H     3    58       P1 10747  1.00
      L1  H    22    49       P1  7957  0.72
      P1  H  7954  7966       L1    17  0.21
      P1  H  7989  7998       L1    22  0.10
      P1  H  8011  8017       L1    22  1.00
      L1  C    18    46       P1  7957  0.40

> <Gold.PLP.Chemscore.Internal.Correction>
0.1533

> <Gold.Rescore>
     Score         DG    S(hbond)    S(metal)    S(lipo)     H(rot)  DE(clash)    DE(int)     intcor
     15.33     -17.88       2.00        0.00     102.77       2.46       0.59       1.96       ----

> <Gold.Chemscore.Fitness>
15.3266

> <Gold.Chemscore.DG>
-17.8779

> <Gold.Chemscore.ZeroCoef>
-5.4800

> <Gold.Chemscore.Hbond>
1.9986

> <Gold.Chemscore.Metal>
0.0000

> <Gold.Chemscore.Lipo>
102.7667

> <Gold.Chemscore.Internal_Hbond>
0.0000

> <Gold.Chemscore.DEClash>
0.5881

> <Gold.Chemscore.DEInternal>
1.9632

> <Gold.Chemscore.Rot>
2.4614

> <Gold.Chemscore.Internal.Correction>
   9.000000E+99

> <Gold.Chemscore.Hbonds>
donor molecule, donor type, donor heavy atom, donor atom, acceptor molecule, acceptor atom, score
      L1  H     3    58       P1 10747  1.00
      L1  H    22    49       P1  7957  0.70
      P1  H  7954  7966       L1    17  0.10
      P1  H  7989  7998       L1    22  0.01
      P1  H  8011  8017       L1    22  0.34

> <Gold.Chemscore.Hbond.Weighted>
-6.6754

> <Gold.Chemscore.Metal.Weighted>
-0.0000

> <Gold.Chemscore.Lipo.Weighted>
-12.0237

> <Gold.Chemscore.Internal_Hbond.Weighted>
0.0000

> <Gold.Chemscore.DEClash.Weighted>
0.5881

> <Gold.Chemscore.DEInternal.Weighted>
1.9632

> <Gold.Chemscore.Rot.Weighted>
6.3012

> <Gold.Chemscore.Internal.Correction.Weighted>
   9.000000E+99

> <Gold.Protein.RotatedTorsions>
[ 6907 6896 6895 6894 ] final  -33.52 input  -60.11 | X-H torsion
[ 7974 7965 7964 7962 ] final   52.71 input  175.53 | X-H torsion
[ 8008 7997 7996 7995 ] final -118.19 input   59.86 | X-H torsion
[ 10167 10162 10161 10158 ] final  114.92 input  -65.29 | X-H torsion
[ 10718 10713 10712 10709 ] final  -31.59 input   66.30 | X-H torsion
[ 10763 10752 10751 10750 ] final   83.29 input  -60.55 | X-H torsion
[ 11005 11000 10999 10996 ] final -113.20 input  -57.11 | X-H torsion

> <Gold.Protein.ActiveResidues>
 VAL166  LYS551  ARG553  GLY616  TRP617  ASP618  TYR619  PRO620  LYS621  CYS622 
 ASP623  PHE694  ASN695  SER759  ASP760  ASP761  ALA762  ILE779  LEU786  VAL792 
 PHE793  MET794  SER795  GLU796  ALA797  LYS798  CYS799  TRP800  GLU811  SER814 

> <Gold.Protein.RotatedAtoms>
  151.0645  134.9758  159.8276 H   0  0  0  0  0  0  0  0  0  0  0  0  # atno 6907 bound_to 6896
  152.5400  134.2376  159.8859 H   0  0  0  0  0  0  0  0  0  0  0  0  # atno 6908 bound_to 6896
  151.2398  133.4362  159.2640 H   0  0  0  0  0  0  0  0  0  0  0  0  # atno 6909 bound_to 6896
  145.9786  139.4219  143.0146 H   0  0  0  0  0  0  0  0  0  0  0  0  # atno 7974 bound_to 7965
  155.0957  140.0395  157.2682 H   0  0  0  0  0  0  0  0  0  0  0  0  # atno 8008 bound_to 7997
  154.6797  140.2630  155.6896 H   0  0  0  0  0  0  0  0  0  0  0  0  # atno 8009 bound_to 7997
  156.2690  140.2781  156.1337 H   0  0  0  0  0  0  0  0  0  0  0  0  # atno 8010 bound_to 7997
  139.6354  144.7119  151.2346 H   0  0  0  0  0  0  0  0  0  0  0  0  # atno 10167 bound_to 10162
  156.3854  130.4363  149.7436 H   0  0  0  0  0  0  0  0  0  0  0  0  # atno 10718 bound_to 10713
  153.1278  135.4696  154.9300 H   0  0  0  0  0  0  0  0  0  0  0  0  # atno 10763 bound_to 10752
  154.7636  135.3138  154.8332 H   0  0  0  0  0  0  0  0  0  0  0  0  # atno 10764 bound_to 10752
  153.8882  135.6887  153.4816 H   0  0  0  0  0  0  0  0  0  0  0  0  # atno 10765 bound_to 10752
  141.0629  133.9506  157.2633 H   0  0  0  0  0  0  0  0  0  0  0  0  # atno 11005 bound_to 11000
  145.7802  140.9859  143.1103 LP  0  0  0  0  0  0  0  0  0  0  0  0  # atno 17320 bound_to 7965
  144.6855  139.9555  143.7479 LP  0  0  0  0  0  0  0  0  0  0  0  0  # atno 17321 bound_to 7965
  140.7462  143.6405  150.8339 LP  0  0  0  0  0  0  0  0  0  0  0  0  # atno 17342 bound_to 10162
  140.0036  143.5718  152.2866 LP  0  0  0  0  0  0  0  0  0  0  0  0  # atno 17343 bound_to 10162
  156.4510  130.7907  151.2928 LP  0  0  0  0  0  0  0  0  0  0  0  0  # atno 17370 bound_to 10713
  157.7495  131.0095  150.3270 LP  0  0  0  0  0  0  0  0  0  0  0  0  # atno 17371 bound_to 10713
  139.9449  135.0185  156.8822 LP  0  0  0  0  0  0  0  0  0  0  0  0  # atno 17394 bound_to 11000
  140.5832  134.0332  155.7472 LP  0  0  0  0  0  0  0  0  0  0  0  0  # atno 17395 bound_to 11000

$$$$
