AV-unprocessed.smi:215|AV-procd|sdf|1653|dock5
  -GOLD-   2262020 43D 1   1.00000     0.00000
 Structure written by MMmdl.
 59 62  0  0  0  0  0  0  0  0  2 V2000
  143.0256  134.5912  152.6259 C   0  0  0  0  0  0  0  0  0  0  0  0
  144.5616  134.4069  152.6565 C   0  0  1  0  0  0  0  0  0  0  0  0
  145.1587  133.9135  151.3211 C   0  0  1  0  0  0  0  0  0  0  0  0
  144.4151  132.7870  150.6811 N   0  3  2  0  0  0  0  0  0  0  0  0
  144.5876  131.5145  151.4290 C   0  0  0  0  0  0  0  0  0  0  0  0
  144.7086  132.6119  149.2305 C   0  0  0  0  0  0  0  0  0  0  0  0
  143.4556  132.7792  148.3530 C   0  0  0  0  0  0  0  0  0  0  0  0
  143.5469  133.9701  147.5993 O   0  0  0  0  0  0  0  0  0  0  0  0
  145.2381  135.2170  150.5064 C   0  0  0  0  0  0  0  0  0  0  0  0
  145.5239  136.2983  151.5569 C   0  0  0  0  0  0  0  0  0  0  0  0
  145.2355  135.6835  152.8482 N   0  0  0  0  0  0  0  0  0  0  0  0
  145.1848  136.4124  153.9967 C   0  0  0  0  0  0  0  0  0  0  0  0
  144.5340  135.8784  155.0642 N   0  0  0  0  0  0  0  0  0  0  0  0
  144.4524  136.5457  156.2179 C   0  0  0  0  0  0  0  0  0  0  0  0
  144.9401  137.7488  156.5197 N   0  0  0  0  0  0  0  0  0  0  0  0
  145.5867  138.3022  155.4544 C   0  0  0  0  0  0  0  0  0  0  0  0
  145.7517  137.7121  154.1665 C   0  0  0  0  0  0  0  0  0  0  0  0
  146.4517  138.5886  153.3440 N   0  0  0  0  0  0  0  0  0  0  0  0
  146.6899  139.6256  154.0980 C   0  0  0  0  0  0  0  0  0  0  0  0
  146.2132  139.5354  155.3853 N   0  0  0  0  0  0  0  0  0  0  0  0
  146.3270  140.5304  156.4140 C   0  0  0  0  0  0  0  0  0  0  0  0
  147.2939  141.7049  156.2628 C   0  0  0  0  0  0  0  0  0  0  0  0
  147.5191  141.7058  157.7918 C   0  0  0  0  0  0  0  0  0  0  0  0
  148.9757  141.9166  158.2373 C   0  0  0  0  0  0  0  0  0  0  0  0
  149.2937  143.2916  158.3128 O   0  0  0  0  0  0  0  0  0  0  0  0
  146.6036  142.6571  158.5884 C   0  0  0  0  0  0  0  0  0  0  0  0
  146.8762  142.5977  159.9742 O   0  0  0  0  0  0  0  0  0  0  0  0
  147.0468  140.2345  157.7315 C   0  0  0  0  0  0  0  0  0  0  0  0
  144.8404  133.7097  153.4451 H   0  0  0  0  0  0  0  0  0  0  0  0
  146.1813  133.5771  151.5062 H   0  0  0  0  0  0  0  0  0  0  0  0
  142.5069  133.6466  152.4664 H   0  0  0  0  0  0  0  0  0  0  0  0
  142.7120  135.2756  151.8376 H   0  0  0  0  0  0  0  0  0  0  0  0
  142.6573  134.9960  153.5686 H   0  0  0  0  0  0  0  0  0  0  0  0
  145.6312  131.1978  151.4197 H   0  0  0  0  0  0  0  0  0  0  0  0
  143.9893  130.7112  151.0020 H   0  0  0  0  0  0  0  0  0  0  0  0
  144.2784  131.6094  152.4691 H   0  0  0  0  0  0  0  0  0  0  0  0
  145.4452  133.3305  148.8763 H   0  0  0  0  0  0  0  0  0  0  0  0
  145.1543  131.6292  149.0689 H   0  0  0  0  0  0  0  0  0  0  0  0
  143.3759  131.9429  147.6580 H   0  0  0  0  0  0  0  0  0  0  0  0
  142.5368  132.7857  148.9377 H   0  0  0  0  0  0  0  0  0  0  0  0
  144.3428  134.4211  147.8379 H   0  0  0  0  0  0  0  0  0  0  0  0
  146.0122  135.1954  149.7390 H   0  0  0  0  0  0  0  0  0  0  0  0
  144.2850  135.4216  150.0166 H   0  0  0  0  0  0  0  0  0  0  0  0
  146.5730  136.5954  151.5289 H   0  0  0  0  0  0  0  0  0  0  0  0
  144.9114  137.1843  151.3842 H   0  0  0  0  0  0  0  0  0  0  0  0
  143.9211  136.0432  157.0131 H   0  0  0  0  0  0  0  0  0  0  0  0
  147.2217  140.4914  153.7307 H   0  0  0  0  0  0  0  0  0  0  0  0
  145.3188  140.8952  156.6166 H   0  0  0  0  0  0  0  0  0  0  0  0
  148.1917  141.4406  155.7008 H   0  0  0  0  0  0  0  0  0  0  0  0
  146.8405  142.6137  155.8657 H   0  0  0  0  0  0  0  0  0  0  0  0
  149.1725  141.4525  159.2041 H   0  0  0  0  0  0  0  0  0  0  0  0
  149.6668  141.4548  157.5316 H   0  0  0  0  0  0  0  0  0  0  0  0
  149.3272  143.6404  157.4352 H   0  0  0  0  0  0  0  0  0  0  0  0
  146.7120  143.6891  158.2540 H   0  0  0  0  0  0  0  0  0  0  0  0
  145.5529  142.4039  158.4461 H   0  0  0  0  0  0  0  0  0  0  0  0
  146.5638  143.3942  160.3756 H   0  0  0  0  0  0  0  0  0  0  0  0
  146.3859  139.9273  158.5426 H   0  0  0  0  0  0  0  0  0  0  0  0
  147.8712  139.5288  157.6177 H   0  0  0  0  0  0  0  0  0  0  0  0
  143.4372  133.0351  150.7381 H   0  0  0  0  0  0  0  0  0  0  0  0
  1  2  1  0  0  0  0
  1 31  1  0  0  0  0
  1 32  1  0  0  0  0
  1 33  1  0  0  0  0
  2 29  1  0  0  0  0
  2 11  1  0  0  0  0
  2  3  1  0  0  0  0
  3 30  1  0  0  0  0
  3  4  1  0  0  0  0
  3  9  1  0  0  0  0
  4  5  1  0  0  0  0
  4  6  1  0  0  0  0
  4 59  1  0  0  0  0
  5 34  1  0  0  0  0
  5 35  1  0  0  0  0
  5 36  1  0  0  0  0
  6  7  1  0  0  0  0
  6 37  1  0  0  0  0
  6 38  1  0  0  0  0
  7  8  1  0  0  0  0
  7 39  1  0  0  0  0
  7 40  1  0  0  0  0
  8 41  1  0  0  0  0
  9 10  1  0  0  0  0
  9 42  1  0  0  0  0
  9 43  1  0  0  0  0
 10 11  1  0  0  0  0
 10 44  1  0  0  0  0
 10 45  1  0  0  0  0
 11 12  1  0  0  0  0
 12 17  1  0  0  0  0
 12 13  2  0  0  0  0
 13 14  1  0  0  0  0
 14 15  2  0  0  0  0
 14 46  1  0  0  0  0
 15 16  1  0  0  0  0
 16 20  1  0  0  0  0
 16 17  2  0  0  0  0
 17 18  1  0  0  0  0
 18 19  2  0  0  0  0
 19 20  1  0  0  0  0
 19 47  1  0  0  0  0
 20 21  1  0  0  0  0
 21 28  1  0  0  0  0
 21 22  1  0  0  0  0
 21 48  1  0  0  0  0
 22 23  1  0  0  0  0
 22 49  1  0  0  0  0
 22 50  1  0  0  0  0
 23 24  1  0  0  0  0
 23 26  1  0  0  0  0
 23 28  1  0  0  0  0
 24 25  1  0  0  0  0
 24 51  1  0  0  0  0
 24 52  1  0  0  0  0
 25 53  1  0  0  0  0
 26 27  1  0  0  0  0
 26 54  1  0  0  0  0
 26 55  1  0  0  0  0
 27 56  1  0  0  0  0
 28 57  1  0  0  0  0
 28 58  1  0  0  0  0
M  CHG  1   4   1
M  END
> <s_m_source_file>
AV-unprocessed.smi

> <i_m_source_file_index>
215

> <i_lp_mmshare_version>
43012

> <i_f3d_flags>
0

> <s_epik_input>
W09IXVtDSDJdW0NIMl1OKFtDSDNdKVtDQEBIXShbQ0BIXTFbQ0gzXSlbQ0gyXVtDSDJdTjFjKG5bY0hdbjIpYyhjMjMpbltjSF1uM1tDSF0oW0NIMl00KVtDSDJdQzQoW0NIMl1bT0hdKVtDSDJdW09IXQ==

> <s_epik_cmdline>
J2VwaWtfcHl0aG9uJywgJy1waCcsICc3LjAnLCAnLXRuJywgJzgnLCAnLW1hJywgJzIwMCcsICctbWV0YWxfYmluZGluZycsICctaW1hZScsICc8aW5maWxlLm1hZT4nLCAnLW9tYWUnLCAnPG91dGZpbGUubWFlPic=

> <r_lp_tautomer_probability>
1

> <r_epik_Ionization_Penalty>
0.0036237

> <r_epik_Ionization_Penalty_Charging>
0.0032725

> <r_epik_Ionization_Penalty_Neutral>
0.000351196

> <r_epik_State_Penalty>
-0

> <r_epik_Charging_Adjusted_Penalty>
0.0032725

> <i_epik_Tot_Q>
1

> <i_epik_Tot_abs_Q>
1

> <r_epik_Metal_State_Penalty>
-0

> <b_epik_Metal_Only>
0

> <s_lp_Force_Field>
OPLS_2005

> <r_lp_Energy>
66.6502

> <b_lp_Chiralities_Consistent>
1

> <s_lp_Variant>
AV-unprocessed.smi:215-4

> <Gold.Version>
5.8.1

> <Gold.Id.Protein>
6NUR|6NUR_protein|mol2

> <Gold.PLP.Fitness>
45.6181

> <Gold.PLP.PLP>
-36.0396

> <Gold.PLP.part.hbond>
-7.4272

> <Gold.PLP.part.metal>
0.0000

> <Gold.PLP.part.buried>
-4.5262

> <Gold.PLP.part.nonpolar>
-24.7204

> <Gold.PLP.part.repulsive>
0.2892

> <Gold.PLP.ligand.clash>
0.0000

> <Gold.PLP.ligand.torsion>
1.8892

> <Gold.PLP.Chemscore.Hbond>
4.1875

> <Gold.PLP.Chemscore.CHOScore>
0.0000

> <Gold.PLP.Chemscore.Metal>
0.0000

> <Gold.Chemscore.Hbonds>
donor molecule, donor type, donor heavy atom, donor atom, acceptor molecule, acceptor atom, score
      L1  H     8    41       P1  7921  1.00
      L1  H    25    53       P1  8028  0.81
      P1  H  6933  6944       L1    27  0.30
      P1  H  6934  6946       L1    27  0.94
      P1  H 10192 10197       L1     8  1.00

> <Gold.PLP.Chemscore.Internal.Correction>
0.7943

> <Gold.Rescore>
     Score         DG    S(hbond)    S(metal)    S(lipo)     H(rot)  DE(clash)    DE(int)     intcor
     11.75     -14.82       3.68        0.00      72.69       4.48       0.39       2.68       ----

> <Gold.Chemscore.Fitness>
11.7539

> <Gold.Chemscore.DG>
-14.8236

> <Gold.Chemscore.ZeroCoef>
-5.4800

> <Gold.Chemscore.Hbond>
3.6839

> <Gold.Chemscore.Metal>
0.0000

> <Gold.Chemscore.Lipo>
72.6917

> <Gold.Chemscore.Internal_Hbond>
0.0000

> <Gold.Chemscore.DEClash>
0.3941

> <Gold.Chemscore.DEInternal>
2.6756

> <Gold.Chemscore.Rot>
4.4787

> <Gold.Chemscore.Internal.Correction>
   9.000000E+99

> <Gold.Chemscore.Hbonds>
donor molecule, donor type, donor heavy atom, donor atom, acceptor molecule, acceptor atom, score
      L1  H     8    41       P1  7921  0.96
      L1  H    25    53       P1  8028  0.36
      P1  H  6933  6944       L1    27  0.03
      P1  H  6934  6946       L1    27  0.84
      P1  H 10192 10197       L1     8  0.88

> <Gold.Chemscore.Hbond.Weighted>
-12.3041

> <Gold.Chemscore.Metal.Weighted>
-0.0000

> <Gold.Chemscore.Lipo.Weighted>
-8.5049

> <Gold.Chemscore.Internal_Hbond.Weighted>
0.0000

> <Gold.Chemscore.DEClash.Weighted>
0.3941

> <Gold.Chemscore.DEInternal.Weighted>
2.6756

> <Gold.Chemscore.Rot.Weighted>
11.4655

> <Gold.Chemscore.Internal.Correction.Weighted>
   9.000000E+99

> <Gold.Protein.RotatedTorsions>
[ 6907 6896 6895 6894 ] final -144.26 input  -60.11 | X-H torsion
[ 7974 7965 7964 7962 ] final  -54.40 input  175.53 | X-H torsion
[ 8008 7997 7996 7995 ] final  -29.83 input   59.86 | X-H torsion
[ 10167 10162 10161 10158 ] final -155.96 input  -65.29 | X-H torsion
[ 10718 10713 10712 10709 ] final  -81.32 input   66.30 | X-H torsion
[ 10763 10752 10751 10750 ] final   39.80 input  -60.55 | X-H torsion
[ 11005 11000 10999 10996 ] final   90.19 input  -57.11 | X-H torsion

> <Gold.Protein.ActiveResidues>
 VAL166  LYS551  ARG553  GLY616  TRP617  ASP618  TYR619  PRO620  LYS621  CYS622 
 ASP623  PHE694  ASN695  SER759  ASP760  ASP761  ALA762  ILE779  LEU786  VAL792 
 PHE793  MET794  SER795  GLU796  ALA797  LYS798  CYS799  TRP800  GLU811  SER814 

> <Gold.Protein.RotatedAtoms>
  151.1116  133.5169  159.2605 H   0  0  0  0  0  0  0  0  0  0  0  0  # atno 6907 bound_to 6896
  151.1961  135.0422  159.8863 H   0  0  0  0  0  0  0  0  0  0  0  0  # atno 6908 bound_to 6896
  152.5450  134.0950  159.8346 H   0  0  0  0  0  0  0  0  0  0  0  0  # atno 6909 bound_to 6896
  145.8859  140.8108  142.9816 H   0  0  0  0  0  0  0  0  0  0  0  0  # atno 7974 bound_to 7965
  154.4274  140.1808  156.1310 H   0  0  0  0  0  0  0  0  0  0  0  0  # atno 8008 bound_to 7997
  156.0068  140.3354  155.6875 H   0  0  0  0  0  0  0  0  0  0  0  0  # atno 8009 bound_to 7997
  155.6167  140.0655  157.2681 H   0  0  0  0  0  0  0  0  0  0  0  0  # atno 8010 bound_to 7997
  139.6889  143.9454  152.2375 H   0  0  0  0  0  0  0  0  0  0  0  0  # atno 10167 bound_to 10162
  156.0053  130.4600  150.3934 H   0  0  0  0  0  0  0  0  0  0  0  0  # atno 10718 bound_to 10713
  152.9956  135.6210  154.2523 H   0  0  0  0  0  0  0  0  0  0  0  0  # atno 10763 bound_to 10752
  154.2261  135.2794  155.2909 H   0  0  0  0  0  0  0  0  0  0  0  0  # atno 10764 bound_to 10752
  154.5488  135.5739  153.6962 H   0  0  0  0  0  0  0  0  0  0  0  0  # atno 10765 bound_to 10752
  139.8861  134.8598  156.3249 H   0  0  0  0  0  0  0  0  0  0  0  0  # atno 11005 bound_to 11000
  144.6728  140.1455  143.7434 LP  0  0  0  0  0  0  0  0  0  0  0  0  # atno 17320 bound_to 7965
  145.8967  139.2406  143.1518 LP  0  0  0  0  0  0  0  0  0  0  0  0  # atno 17321 bound_to 7965
  139.9265  144.6768  150.8407 LP  0  0  0  0  0  0  0  0  0  0  0  0  # atno 17342 bound_to 10162
  140.7676  143.3338  151.2352 LP  0  0  0  0  0  0  0  0  0  0  0  0  # atno 17343 bound_to 10162
  157.2007  131.0437  151.2652 LP  0  0  0  0  0  0  0  0  0  0  0  0  # atno 17370 bound_to 10713
  157.3978  130.7317  149.6744 LP  0  0  0  0  0  0  0  0  0  0  0  0  # atno 17371 bound_to 10713
  140.9762  133.7296  156.0605 LP  0  0  0  0  0  0  0  0  0  0  0  0  # atno 17394 bound_to 11000
  140.7808  134.3727  157.5487 LP  0  0  0  0  0  0  0  0  0  0  0  0  # atno 17395 bound_to 11000

$$$$
