AV-unprocessed.smi:1035|AV-procd|sdf|4515|dock9
  -GOLD-   22720 2523D 1   1.00000     0.00000
 Structure written by MMmdl.
 42 43  0  0  0  0  0  0  0  0  1 V2000
  151.5886  144.9298  159.4972 C   0  0  0  0  0  0  0  0  0  0  0  0
  152.1674  143.8787  160.4281 C   0  0  0  0  0  0  0  0  0  0  0  0
  152.4078  144.1458  161.7302 C   0  0  0  0  0  0  0  0  0  0  0  0
  152.9624  143.1432  162.6067 C   0  0  0  0  0  0  0  0  0  0  0  0
  153.2332  141.9342  162.0950 C   0  0  0  0  0  0  0  0  0  0  0  0
  152.9897  141.6291  160.7429 N   0  0  0  0  0  0  0  0  0  0  0  0
  153.3325  140.2683  160.2943 C   0  0  0  0  0  0  0  0  0  0  0  0
  154.8259  139.9359  160.4279 C   0  0  0  0  0  0  0  0  0  0  0  0
  155.5579  139.8837  159.4382 O   0  0  0  0  0  0  0  0  0  0  0  0
  155.2678  139.7244  161.6752 N   0  0  0  0  0  0  0  0  0  0  0  0
  156.6456  139.3934  162.0175 C   0  0  0  0  0  0  0  0  0  0  0  0
  156.7206  138.5640  163.3109 C   0  0  0  0  0  0  0  0  0  0  0  0
  155.5885  137.5578  163.4589 C   0  0  0  0  0  0  0  0  0  0  0  0
  155.4197  136.5401  162.5920 C   0  0  0  0  0  0  0  0  0  0  0  0
  154.3211  135.4975  162.7037 C   0  0  0  0  0  0  0  0  0  0  0  0
  153.6362  135.5132  164.0807 C   0  0  0  0  0  0  0  0  0  0  0  0
  153.3589  136.9484  164.5447 C   0  0  0  0  0  0  0  0  0  0  0  0
  154.6597  137.7644  164.6499 C   0  0  0  0  0  0  0  0  0  0  0  0
  152.4661  142.5460  159.8709 C   0  0  0  0  0  0  0  0  0  0  0  0
  152.2601  142.2643  158.6886 O   0  0  0  0  0  0  0  0  0  0  0  0
  151.4025  145.8676  160.0217 H   0  0  0  0  0  0  0  0  0  0  0  0
  150.6434  144.5872  159.0749 H   0  0  0  0  0  0  0  0  0  0  0  0
  152.2784  145.1341  158.6777 H   0  0  0  0  0  0  0  0  0  0  0  0
  152.1865  145.1252  162.1293 H   0  0  0  0  0  0  0  0  0  0  0  0
  153.1583  143.3623  163.6461 H   0  0  0  0  0  0  0  0  0  0  0  0
  153.6564  141.1311  162.6810 H   0  0  0  0  0  0  0  0  0  0  0  0
  152.7674  139.5264  160.8604 H   0  0  0  0  0  0  0  0  0  0  0  0
  153.0260  140.1261  159.2560 H   0  0  0  0  0  0  0  0  0  0  0  0
  154.6068  139.7853  162.4362 H   0  0  0  0  0  0  0  0  0  0  0  0
  157.1004  138.8456  161.1909 H   0  0  0  0  0  0  0  0  0  0  0  0
  157.2203  140.3130  162.1392 H   0  0  0  0  0  0  0  0  0  0  0  0
  157.6694  138.0280  163.3494 H   0  0  0  0  0  0  0  0  0  0  0  0
  156.7200  139.2383  164.1686 H   0  0  0  0  0  0  0  0  0  0  0  0
  156.0876  136.4353  161.7494 H   0  0  0  0  0  0  0  0  0  0  0  0
  153.5910  135.6923  161.9174 H   0  0  0  0  0  0  0  0  0  0  0  0
  154.7406  134.5100  162.5097 H   0  0  0  0  0  0  0  0  0  0  0  0
  152.7095  134.9397  164.0429 H   0  0  0  0  0  0  0  0  0  0  0  0
  154.2764  135.0186  164.8125 H   0  0  0  0  0  0  0  0  0  0  0  0
  152.6839  137.4293  163.8352 H   0  0  0  0  0  0  0  0  0  0  0  0
  152.8438  136.9441  165.5057 H   0  0  0  0  0  0  0  0  0  0  0  0
  155.1992  137.4810  165.5542 H   0  0  0  0  0  0  0  0  0  0  0  0
  154.4174  138.8234  164.7454 H   0  0  0  0  0  0  0  0  0  0  0  0
  1  2  1  0  0  0  0
  1 21  1  0  0  0  0
  1 22  1  0  0  0  0
  1 23  1  0  0  0  0
  2 19  1  0  0  0  0
  2  3  2  0  0  0  0
  3  4  1  0  0  0  0
  3 24  1  0  0  0  0
  4  5  2  0  0  0  0
  4 25  1  0  0  0  0
  5  6  1  0  0  0  0
  5 26  1  0  0  0  0
  6  7  1  0  0  0  0
  6 19  1  0  0  0  0
  7  8  1  0  0  0  0
  7 27  1  0  0  0  0
  7 28  1  0  0  0  0
  8  9  2  0  0  0  0
  8 10  1  0  0  0  0
 10 11  1  0  0  0  0
 10 29  1  0  0  0  0
 11 12  1  0  0  0  0
 11 30  1  0  0  0  0
 11 31  1  0  0  0  0
 12 13  1  0  0  0  0
 12 32  1  0  0  0  0
 12 33  1  0  0  0  0
 13 18  1  0  0  0  0
 13 14  2  0  0  0  0
 14 15  1  0  0  0  0
 14 34  1  0  0  0  0
 15 16  1  0  0  0  0
 15 35  1  0  0  0  0
 15 36  1  0  0  0  0
 16 17  1  0  0  0  0
 16 37  1  0  0  0  0
 16 38  1  0  0  0  0
 17 18  1  0  0  0  0
 17 39  1  0  0  0  0
 17 40  1  0  0  0  0
 18 41  1  0  0  0  0
 18 42  1  0  0  0  0
 19 20  2  0  0  0  0
M  END
> <s_m_source_file>
AV-unprocessed.smi

> <i_m_source_file_index>
1035

> <i_lp_mmshare_version>
43012

> <i_f3d_flags>
0

> <s_epik_input>
W0NIM11jMVtjSF1bY0hdW2NIXW4oYzE9TylbQ0gyXUMoPU8pW05IXVtDSDJdW0NIMl1DMj1bQ0hdW0NIMl1bQ0gyXVtDSDJdW0NIMl0y

> <s_epik_cmdline>
J2VwaWtfcHl0aG9uJywgJy1waCcsICc3LjAnLCAnLXRuJywgJzgnLCAnLW1hJywgJzIwMCcsICctbWV0YWxfYmluZGluZycsICctaW1hZScsICc8aW5maWxlLm1hZT4nLCAnLW9tYWUnLCAnPG91dGZpbGUubWFlPic=

> <r_lp_tautomer_probability>
1

> <r_epik_Ionization_Penalty>
7.80073e-07

> <r_epik_Ionization_Penalty_Charging>
7.6197e-07

> <r_epik_Ionization_Penalty_Neutral>
1.81035e-08

> <r_epik_State_Penalty>
-0

> <r_epik_Charging_Adjusted_Penalty>
7.6197e-07

> <i_epik_Tot_Q>
0

> <i_epik_Tot_abs_Q>
0

> <r_epik_Metal_State_Penalty>
-0

> <b_epik_Metal_Only>
0

> <s_lp_Force_Field>
OPLS_2005

> <r_lp_Energy>
17.5966

> <b_lp_Chiralities_Consistent>
1

> <s_lp_Variant>
AV-unprocessed.smi:1035-1

> <Gold.Version>
5.8.1

> <Gold.Id.Protein>
6NUR|6NUR_protein|mol2

> <Gold.PLP.Fitness>
48.4109

> <Gold.PLP.PLP>
-46.3480

> <Gold.PLP.part.hbond>
-1.0000

> <Gold.PLP.part.metal>
0.0000

> <Gold.PLP.part.buried>
-5.7345

> <Gold.PLP.part.nonpolar>
-38.6050

> <Gold.PLP.part.repulsive>
0.0062

> <Gold.PLP.ligand.clash>
0.0000

> <Gold.PLP.ligand.torsion>
0.4799

> <Gold.PLP.Chemscore.Hbond>
1.0000

> <Gold.PLP.Chemscore.CHOScore>
0.0000

> <Gold.PLP.Chemscore.Metal>
0.0000

> <Gold.Chemscore.Hbonds>
donor molecule, donor type, donor heavy atom, donor atom, acceptor molecule, acceptor atom, score
      P1  H  7997  8010       L1     9  0.83

> <Gold.PLP.Chemscore.Internal.Correction>
0.0227

> <Gold.Rescore>
     Score         DG    S(hbond)    S(metal)    S(lipo)     H(rot)  DE(clash)    DE(int)     intcor
     17.32     -17.94       0.97        0.00     114.39       1.63       0.01       0.62       ----

> <Gold.Chemscore.Fitness>
17.3154

> <Gold.Chemscore.DG>
-17.9405

> <Gold.Chemscore.ZeroCoef>
-5.4800

> <Gold.Chemscore.Hbond>
0.9738

> <Gold.Chemscore.Metal>
0.0000

> <Gold.Chemscore.Lipo>
114.3914

> <Gold.Chemscore.Internal_Hbond>
0.0000

> <Gold.Chemscore.DEClash>
0.0082

> <Gold.Chemscore.DEInternal>
0.6169

> <Gold.Chemscore.Rot>
1.6311

> <Gold.Chemscore.Internal.Correction>
   9.000000E+99

> <Gold.Chemscore.Hbonds>
donor molecule, donor type, donor heavy atom, donor atom, acceptor molecule, acceptor atom, score
      P1  H  7997  8010       L1     9  0.80

> <Gold.Chemscore.Hbond.Weighted>
-3.2525

> <Gold.Chemscore.Metal.Weighted>
-0.0000

> <Gold.Chemscore.Lipo.Weighted>
-13.3838

> <Gold.Chemscore.Internal_Hbond.Weighted>
0.0000

> <Gold.Chemscore.DEClash.Weighted>
0.0082

> <Gold.Chemscore.DEInternal.Weighted>
0.6169

> <Gold.Chemscore.Rot.Weighted>
4.1757

> <Gold.Chemscore.Internal.Correction.Weighted>
   9.000000E+99

> <Gold.Protein.RotatedTorsions>
[ 6907 6896 6895 6894 ] final -155.47 input  -60.11 | X-H torsion
[ 7974 7965 7964 7962 ] final  126.83 input  175.53 | X-H torsion
[ 8008 7997 7996 7995 ] final  -27.33 input   59.86 | X-H torsion
[ 10167 10162 10161 10158 ] final -174.77 input  -65.29 | X-H torsion
[ 10718 10713 10712 10709 ] final   21.44 input   66.30 | X-H torsion
[ 10763 10752 10751 10750 ] final   15.21 input  -60.55 | X-H torsion
[ 11005 11000 10999 10996 ] final  -25.66 input  -57.11 | X-H torsion

> <Gold.Protein.ActiveResidues>
 VAL166  LYS551  ARG553  GLY616  TRP617  ASP618  TYR619  PRO620  LYS621  CYS622 
 ASP623  PHE694  ASN695  SER759  ASP760  ASP761  ALA762  ILE779  LEU786  VAL792 
 PHE793  MET794  SER795  GLU796  ALA797  LYS798  CYS799  TRP800  GLU811  SER814 

> <Gold.Protein.RotatedAtoms>
  151.2729  133.4246  159.2622 H   0  0  0  0  0  0  0  0  0  0  0  0  # atno 6907 bound_to 6896
  151.0429  134.9620  159.8181 H   0  0  0  0  0  0  0  0  0  0  0  0  # atno 6908 bound_to 6896
  152.5368  134.2687  159.9015 H   0  0  0  0  0  0  0  0  0  0  0  0  # atno 6909 bound_to 6896
  145.0573  139.3833  143.5023 H   0  0  0  0  0  0  0  0  0  0  0  0  # atno 7974 bound_to 7965
  154.4382  140.1875  156.0915 H   0  0  0  0  0  0  0  0  0  0  0  0  # atno 8008 bound_to 7997
  156.0362  140.3325  155.7167 H   0  0  0  0  0  0  0  0  0  0  0  0  # atno 8009 bound_to 7997
  155.5767  140.0618  157.2784 H   0  0  0  0  0  0  0  0  0  0  0  0  # atno 8010 bound_to 7997
  139.5616  144.1856  152.1247 H   0  0  0  0  0  0  0  0  0  0  0  0  # atno 10167 bound_to 10162
  157.1385  130.6622  149.5974 H   0  0  0  0  0  0  0  0  0  0  0  0  # atno 10718 bound_to 10713
  153.1547  135.6785  153.8829 H   0  0  0  0  0  0  0  0  0  0  0  0  # atno 10763 bound_to 10752
  153.8244  135.3126  155.3414 H   0  0  0  0  0  0  0  0  0  0  0  0  # atno 10764 bound_to 10752
  154.7889  135.4846  154.0095 H   0  0  0  0  0  0  0  0  0  0  0  0  # atno 10765 bound_to 10752
  140.8958  133.7557  156.0480 H   0  0  0  0  0  0  0  0  0  0  0  0  # atno 11005 bound_to 11000
  146.3522  140.0254  142.8655 LP  0  0  0  0  0  0  0  0  0  0  0  0  # atno 17320 bound_to 7965
  145.1452  140.9593  143.4465 LP  0  0  0  0  0  0  0  0  0  0  0  0  # atno 17321 bound_to 7965
  140.1371  144.5236  150.6767 LP  0  0  0  0  0  0  0  0  0  0  0  0  # atno 17342 bound_to 10162
  140.6896  143.2368  151.5167 LP  0  0  0  0  0  0  0  0  0  0  0  0  # atno 17343 bound_to 10162
  155.9793  130.4786  150.6708 LP  0  0  0  0  0  0  0  0  0  0  0  0  # atno 17370 bound_to 10713
  157.4328  131.0851  151.1021 LP  0  0  0  0  0  0  0  0  0  0  0  0  # atno 17371 bound_to 10713
  140.8291  134.3200  157.5355 LP  0  0  0  0  0  0  0  0  0  0  0  0  # atno 17394 bound_to 11000
  139.8735  134.9353  156.3629 LP  0  0  0  0  0  0  0  0  0  0  0  0  # atno 17395 bound_to 11000

$$$$
