AV-unprocessed.smi:405|AV-procd|sdf|2498|dock2
  -GOLD-   2262022443D 1   1.00000     0.00000
 Structure written by MMmdl.
 46 47  0  0  0  0  0  0  0  0  1 V2000
  146.9146  133.5843  162.2705 C   0  0  0  0  0  0  0  0  0  0  0  0
  146.7478  135.0800  161.9284 C   0  0  0  0  0  0  0  0  0  0  0  0
  145.2984  135.4936  162.2489 C   0  0  0  0  0  0  0  0  0  0  0  0
  147.6972  135.9141  162.8148 C   0  0  0  0  0  0  0  0  0  0  0  0
  146.9979  135.3372  160.4151 C   0  0  0  0  0  0  0  0  0  0  0  0
  147.0136  136.8096  159.9821 C   0  0  0  0  0  0  0  0  0  0  0  0
  146.4990  137.6725  160.6930 O   0  0  0  0  0  0  0  0  0  0  0  0
  147.5795  137.0754  158.7954 N   0  0  0  0  0  0  0  0  0  0  0  0
  147.6439  138.3920  158.1710 C   0  0  0  0  0  0  0  0  0  0  0  0
  146.9268  138.4672  156.8269 C   0  0  0  0  0  0  0  0  0  0  0  0
  145.5565  138.1387  156.7521 C   0  0  0  0  0  0  0  0  0  0  0  0
  144.8987  138.2121  155.5108 C   0  0  0  0  0  0  0  0  0  0  0  0
  145.6409  138.6137  154.3852 C   0  0  0  0  0  0  0  0  0  0  0  0
  146.9507  138.9322  154.4391 N   0  0  0  0  0  0  0  0  0  0  0  0
  147.5865  138.8626  155.6340 C   0  0  0  0  0  0  0  0  0  0  0  0
  148.9500  139.1957  155.6570 N   0  0  0  0  0  0  0  0  0  0  0  0
  149.7617  138.3818  154.7614 C   0  0  0  0  0  0  0  0  0  0  0  0
  151.2516  138.6914  154.9832 C   0  0  0  0  0  0  0  0  0  0  0  0
  151.4809  140.0876  154.8107 O   0  0  0  0  0  0  0  0  0  0  0  0
  150.7314  140.8746  155.7331 C   0  0  0  0  0  0  0  0  0  0  0  0
  149.2283  140.6197  155.5276 C   0  0  0  0  0  0  0  0  0  0  0  0
  146.6617  133.3869  163.3127 H   0  0  0  0  0  0  0  0  0  0  0  0
  147.9393  133.2435  162.1195 H   0  0  0  0  0  0  0  0  0  0  0  0
  146.2662  132.9618  161.6531 H   0  0  0  0  0  0  0  0  0  0  0  0
  144.5813  134.9181  161.6624 H   0  0  0  0  0  0  0  0  0  0  0  0
  145.1290  136.5486  162.0303 H   0  0  0  0  0  0  0  0  0  0  0  0
  145.0604  135.3356  163.3015 H   0  0  0  0  0  0  0  0  0  0  0  0
  147.4406  135.8164  163.8702 H   0  0  0  0  0  0  0  0  0  0  0  0
  147.6464  136.9738  162.5619 H   0  0  0  0  0  0  0  0  0  0  0  0
  148.7355  135.5985  162.7119 H   0  0  0  0  0  0  0  0  0  0  0  0
  147.9393  134.8741  160.1141 H   0  0  0  0  0  0  0  0  0  0  0  0
  146.2276  134.8344  159.8285 H   0  0  0  0  0  0  0  0  0  0  0  0
  147.9746  136.3055  158.2752 H   0  0  0  0  0  0  0  0  0  0  0  0
  147.2455  139.1415  158.8567 H   0  0  0  0  0  0  0  0  0  0  0  0
  148.6928  138.6472  158.0190 H   0  0  0  0  0  0  0  0  0  0  0  0
  145.0137  137.8310  157.6338 H   0  0  0  0  0  0  0  0  0  0  0  0
  143.8509  137.9658  155.4237 H   0  0  0  0  0  0  0  0  0  0  0  0
  145.1705  138.6815  153.4154 H   0  0  0  0  0  0  0  0  0  0  0  0
  149.5672  137.3237  154.9399 H   0  0  0  0  0  0  0  0  0  0  0  0
  149.4884  138.5898  153.7259 H   0  0  0  0  0  0  0  0  0  0  0  0
  151.5685  138.3802  155.9799 H   0  0  0  0  0  0  0  0  0  0  0  0
  151.8609  138.1391  154.2677 H   0  0  0  0  0  0  0  0  0  0  0  0
  151.0291  140.6364  156.7554 H   0  0  0  0  0  0  0  0  0  0  0  0
  150.9600  141.9281  155.5716 H   0  0  0  0  0  0  0  0  0  0  0  0
  148.9250  140.9686  154.5396 H   0  0  0  0  0  0  0  0  0  0  0  0
  148.6472  141.1785  156.2621 H   0  0  0  0  0  0  0  0  0  0  0  0
  1  2  1  0  0  0  0
  1 22  1  0  0  0  0
  1 23  1  0  0  0  0
  1 24  1  0  0  0  0
  2  3  1  0  0  0  0
  2  4  1  0  0  0  0
  2  5  1  0  0  0  0
  3 25  1  0  0  0  0
  3 26  1  0  0  0  0
  3 27  1  0  0  0  0
  4 28  1  0  0  0  0
  4 29  1  0  0  0  0
  4 30  1  0  0  0  0
  5  6  1  0  0  0  0
  5 31  1  0  0  0  0
  5 32  1  0  0  0  0
  6  7  2  0  0  0  0
  6  8  1  0  0  0  0
  8  9  1  0  0  0  0
  8 33  1  0  0  0  0
  9 10  1  0  0  0  0
  9 34  1  0  0  0  0
  9 35  1  0  0  0  0
 10 15  1  0  0  0  0
 10 11  2  0  0  0  0
 11 12  1  0  0  0  0
 11 36  1  0  0  0  0
 12 13  2  0  0  0  0
 12 37  1  0  0  0  0
 13 14  1  0  0  0  0
 13 38  1  0  0  0  0
 14 15  2  0  0  0  0
 15 16  1  0  0  0  0
 16 21  1  0  0  0  0
 16 17  1  0  0  0  0
 17 18  1  0  0  0  0
 17 39  1  0  0  0  0
 17 40  1  0  0  0  0
 18 19  1  0  0  0  0
 18 41  1  0  0  0  0
 18 42  1  0  0  0  0
 19 20  1  0  0  0  0
 20 21  1  0  0  0  0
 20 43  1  0  0  0  0
 20 44  1  0  0  0  0
 21 45  1  0  0  0  0
 21 46  1  0  0  0  0
M  END
> <s_m_source_file>
AV-unprocessed.smi

> <i_m_source_file_index>
405

> <i_lp_mmshare_version>
43012

> <i_f3d_flags>
0

> <s_epik_input>
W0NIM11DKFtDSDNdKShbQ0gzXSlbQ0gyXUMoPU8pW05IXVtDSDJdYzFbY0hdW2NIXVtjSF1uYzFOMltDSDJdW0NIMl1PW0NIMl1bQ0gyXTI=

> <s_epik_cmdline>
J2VwaWtfcHl0aG9uJywgJy1waCcsICc3LjAnLCAnLXRuJywgJzgnLCAnLW1hJywgJzIwMCcsICctbWV0YWxfYmluZGluZycsICctaW1hZScsICc8aW5maWxlLm1hZT4nLCAnLW9tYWUnLCAnPG91dGZpbGUubWFlPic=

> <r_lp_tautomer_probability>
1

> <r_epik_Ionization_Penalty>
0.00557636

> <r_epik_Ionization_Penalty_Charging>
0

> <r_epik_Ionization_Penalty_Neutral>
0.00557636

> <r_epik_State_Penalty>
0.00408419

> <r_epik_Charging_Adjusted_Penalty>
0.00408419

> <i_epik_Tot_Q>
0

> <i_epik_Tot_abs_Q>
0

> <r_epik_Metal_State_Penalty>
-0

> <b_epik_Metal_Only>
0

> <s_lp_Force_Field>
OPLS_2005

> <r_lp_Energy>
19.7271

> <b_lp_Chiralities_Consistent>
1

> <s_lp_Variant>
AV-unprocessed.smi:405-1

> <Gold.Version>
5.8.1

> <Gold.Id.Protein>
6NUR|6NUR_protein|mol2

> <Gold.PLP.Fitness>
35.0289

> <Gold.PLP.PLP>
-26.8110

> <Gold.PLP.part.hbond>
-1.8708

> <Gold.PLP.part.metal>
0.0000

> <Gold.PLP.part.buried>
-3.7725

> <Gold.PLP.part.nonpolar>
-22.3247

> <Gold.PLP.part.repulsive>
0.3149

> <Gold.PLP.ligand.clash>
0.0000

> <Gold.PLP.ligand.torsion>
0.4684

> <Gold.PLP.Chemscore.Hbond>
2.0000

> <Gold.PLP.Chemscore.CHOScore>
0.9971

> <Gold.PLP.Chemscore.Metal>
0.0000

> <Gold.Chemscore.Hbonds>
donor molecule, donor type, donor heavy atom, donor atom, acceptor molecule, acceptor atom, score
      P1  H  6934  6947       L1     7  0.98
      P1  H  7989  7998       L1    19  1.00
      L1  C    13    38       P1 10175  1.00

> <Gold.PLP.Chemscore.Internal.Correction>
0.1632

> <Gold.Rescore>
     Score         DG    S(hbond)    S(metal)    S(lipo)     H(rot)  DE(clash)    DE(int)     intcor
     13.44     -15.23       1.86        0.00      65.57       1.62       0.00       1.79       ----

> <Gold.Chemscore.Fitness>
13.4374

> <Gold.Chemscore.DG>
-15.2315

> <Gold.Chemscore.ZeroCoef>
-5.4800

> <Gold.Chemscore.Hbond>
1.8616

> <Gold.Chemscore.Metal>
0.0000

> <Gold.Chemscore.Lipo>
65.5717

> <Gold.Chemscore.Internal_Hbond>
0.0000

> <Gold.Chemscore.DEClash>
0.0000

> <Gold.Chemscore.DEInternal>
1.7941

> <Gold.Chemscore.Rot>
1.6164

> <Gold.Chemscore.Internal.Correction>
   9.000000E+99

> <Gold.Chemscore.Hbonds>
donor molecule, donor type, donor heavy atom, donor atom, acceptor molecule, acceptor atom, score
      P1  H  6934  6947       L1     7  0.91
      P1  H  7989  7998       L1    19  0.65

> <Gold.Chemscore.Hbond.Weighted>
-6.2178

> <Gold.Chemscore.Metal.Weighted>
-0.0000

> <Gold.Chemscore.Lipo.Weighted>
-7.6719

> <Gold.Chemscore.Internal_Hbond.Weighted>
0.0000

> <Gold.Chemscore.DEClash.Weighted>
0.0000

> <Gold.Chemscore.DEInternal.Weighted>
1.7941

> <Gold.Chemscore.Rot.Weighted>
4.1381

> <Gold.Chemscore.Internal.Correction.Weighted>
   9.000000E+99

> <Gold.Protein.RotatedTorsions>
[ 6907 6896 6895 6894 ] final   -6.33 input  -60.11 | X-H torsion
[ 7974 7965 7964 7962 ] final  160.25 input  175.53 | X-H torsion
[ 8008 7997 7996 7995 ] final   20.90 input   59.86 | X-H torsion
[ 10167 10162 10161 10158 ] final   54.06 input  -65.29 | X-H torsion
[ 10718 10713 10712 10709 ] final   32.96 input   66.30 | X-H torsion
[ 10763 10752 10751 10750 ] final  148.38 input  -60.55 | X-H torsion
[ 11005 11000 10999 10996 ] final -147.58 input  -57.11 | X-H torsion

> <Gold.Protein.ActiveResidues>
 VAL166  LYS551  ARG553  GLY616  TRP617  ASP618  TYR619  PRO620  LYS621  CYS622 
 ASP623  PHE694  ASN695  SER759  ASP760  ASP761  ALA762  ILE779  LEU786  VAL792 
 PHE793  MET794  SER795  GLU796  ALA797  LYS798  CYS799  TRP800  GLU811  SER814 

> <Gold.Protein.RotatedAtoms>
  151.4673  135.1043  159.9741 H   0  0  0  0  0  0  0  0  0  0  0  0  # atno 6907 bound_to 6896
  152.4830  133.8297  159.7107 H   0  0  0  0  0  0  0  0  0  0  0  0  # atno 6908 bound_to 6896
  150.8916  133.7175  159.2930 H   0  0  0  0  0  0  0  0  0  0  0  0  # atno 6909 bound_to 6896
  144.7747  139.7730  143.6283 H   0  0  0  0  0  0  0  0  0  0  0  0  # atno 7974 bound_to 7965
  154.9425  140.3055  155.5114 H   0  0  0  0  0  0  0  0  0  0  0  0  # atno 8008 bound_to 7997
  156.2994  140.2334  156.4432 H   0  0  0  0  0  0  0  0  0  0  0  0  # atno 8009 bound_to 7997
  154.8132  140.0427  157.1346 H   0  0  0  0  0  0  0  0  0  0  0  0  # atno 8010 bound_to 7997
  140.2342  144.3654  150.6403 H   0  0  0  0  0  0  0  0  0  0  0  0  # atno 10167 bound_to 10162
  157.2918  130.7306  149.6615 H   0  0  0  0  0  0  0  0  0  0  0  0  # atno 10718 bound_to 10713
  154.0538  135.2879  155.3336 H   0  0  0  0  0  0  0  0  0  0  0  0  # atno 10763 bound_to 10752
  154.6852  135.5248  153.8320 H   0  0  0  0  0  0  0  0  0  0  0  0  # atno 10764 bound_to 10752
  153.0550  135.6591  154.0732 H   0  0  0  0  0  0  0  0  0  0  0  0  # atno 10765 bound_to 10752
  140.7702  134.3198  157.5077 H   0  0  0  0  0  0  0  0  0  0  0  0  # atno 11005 bound_to 11000
  146.1918  139.5163  142.9800 LP  0  0  0  0  0  0  0  0  0  0  0  0  # atno 17320 bound_to 7965
  145.6221  141.0320  143.1909 LP  0  0  0  0  0  0  0  0  0  0  0  0  # atno 17321 bound_to 7965
  140.6162  143.2172  151.6786 LP  0  0  0  0  0  0  0  0  0  0  0  0  # atno 17342 bound_to 10162
  139.5099  144.3560  152.0608 LP  0  0  0  0  0  0  0  0  0  0  0  0  # atno 17343 bound_to 10162
  155.9667  130.4306  150.4885 LP  0  0  0  0  0  0  0  0  0  0  0  0  # atno 17370 bound_to 10713
  157.2849  131.0614  151.2173 LP  0  0  0  0  0  0  0  0  0  0  0  0  # atno 17371 bound_to 10713
  139.8757  134.9256  156.3378 LP  0  0  0  0  0  0  0  0  0  0  0  0  # atno 17394 bound_to 11000
  140.9581  133.7406  156.0364 LP  0  0  0  0  0  0  0  0  0  0  0  0  # atno 17395 bound_to 11000

$$$$
