AV-unprocessed.smi:1749|AV-procd|sdf|7049|dock8
  -GOLD-   22720 8263D 1   1.00000     0.00000
 Structure written by MMmdl.
 31 32  0  0  0  0  0  0  0  0  2 V2000
  151.9594  145.5780  159.6602 C   0  0  0  0  0  0  0  0  0  0  0  0
  152.1788  144.2466  158.9280 C   0  0  1  0  0  0  0  0  0  0  0  0
  152.2534  143.0655  159.9145 C   0  0  0  0  0  0  0  0  0  0  0  0
  152.4770  141.7340  159.1811 C   0  0  0  0  0  0  0  0  0  0  0  0
  151.3900  141.4921  158.1232 C   0  0  0  0  0  0  0  0  0  0  0  0
  151.3075  142.6622  157.1262 C   0  0  1  0  0  0  0  0  0  0  0  0
  150.2286  142.4102  156.1753 N   0  0  0  0  0  0  0  0  0  0  0  0
  150.1690  141.4067  155.2776 C   0  0  0  0  0  0  0  0  0  0  0  0
  151.1086  140.6157  155.2048 O   0  0  0  0  0  0  0  0  0  0  0  0
  149.0624  141.3222  154.4927 N   0  5  0  0  0  0  0  0  0  0  0  0
  147.8668  141.8131  154.8686 C   0  0  0  0  0  0  0  0  0  0  0  0
  147.5422  142.0157  156.1557 N   0  0  0  0  0  0  0  0  0  0  0  0
  146.2604  142.5224  156.3221 N   0  0  0  0  0  0  0  0  0  0  0  0
  145.6523  142.7003  155.1497 C   0  0  0  0  0  0  0  0  0  0  0  0
  146.5897  142.2652  153.7364 S   0  0  0  0  0  0  0  0  0  0  0  0
  151.0872  143.9971  157.8686 C   0  0  0  0  0  0  0  0  0  0  0  0
  151.0138  145.5818  160.2030 H   0  0  0  0  0  0  0  0  0  0  0  0
  151.9443  146.4127  158.9588 H   0  0  0  0  0  0  0  0  0  0  0  0
  152.7571  145.7664  160.3790 H   0  0  0  0  0  0  0  0  0  0  0  0
  153.1370  144.3126  158.4104 H   0  0  0  0  0  0  0  0  0  0  0  0
  153.0592  143.2273  160.6312 H   0  0  0  0  0  0  0  0  0  0  0  0
  151.3308  143.0100  160.4942 H   0  0  0  0  0  0  0  0  0  0  0  0
  153.4572  141.7394  158.7026 H   0  0  0  0  0  0  0  0  0  0  0  0
  152.4871  140.9121  159.8974 H   0  0  0  0  0  0  0  0  0  0  0  0
  151.5943  140.5616  157.5920 H   0  0  0  0  0  0  0  0  0  0  0  0
  150.4266  141.3599  158.6186 H   0  0  0  0  0  0  0  0  0  0  0  0
  152.2527  142.7105  156.5822 H   0  0  0  0  0  0  0  0  0  0  0  0
  149.4475  143.0491  156.2028 H   0  0  0  0  0  0  0  0  0  0  0  0
  144.6464  143.0912  155.1163 H   0  0  0  0  0  0  0  0  0  0  0  0
  150.1065  143.9933  158.3472 H   0  0  0  0  0  0  0  0  0  0  0  0
  151.0767  144.8215  157.1545 H   0  0  0  0  0  0  0  0  0  0  0  0
  1  2  1  0  0  0  0
  1 17  1  0  0  0  0
  1 18  1  0  0  0  0
  1 19  1  0  0  0  0
  2 16  1  0  0  0  0
  2  3  1  0  0  0  0
  2 20  1  0  0  0  0
  3  4  1  0  0  0  0
  3 21  1  0  0  0  0
  3 22  1  0  0  0  0
  4  5  1  0  0  0  0
  4 23  1  0  0  0  0
  4 24  1  0  0  0  0
  5  6  1  0  0  0  0
  5 25  1  0  0  0  0
  5 26  1  0  0  0  0
  6  7  1  0  0  0  0
  6 16  1  0  0  0  0
  6 27  1  0  0  0  0
  7  8  1  0  0  0  0
  7 28  1  0  0  0  0
  8  9  2  0  0  0  0
  8 10  1  0  0  0  0
 10 11  1  0  0  0  0
 11 15  1  0  0  0  0
 11 12  2  0  0  0  0
 12 13  1  0  0  0  0
 13 14  2  0  0  0  0
 14 15  1  0  0  0  0
 14 29  1  0  0  0  0
 16 30  1  0  0  0  0
 16 31  1  0  0  0  0
M  CHG  1  10  -1
M  END
> <s_m_source_file>
AV-unprocessed.smi

> <i_m_source_file_index>
1749

> <i_lp_mmshare_version>
43012

> <i_f3d_flags>
0

> <s_epik_input>
W0NIM11bQ0BASF0xW0NIMl1bQ0gyXVtDSDJdW0NASF0oW0NIMl0xKVtOSF1DKD1PKVtOSF1jMm5uW2NIXXMy

> <s_epik_cmdline>
J2VwaWtfcHl0aG9uJywgJy1waCcsICc3LjAnLCAnLXRuJywgJzgnLCAnLW1hJywgJzIwMCcsICctbWV0YWxfYmluZGluZycsICctaW1hZScsICc8aW5maWxlLm1hZT4nLCAnLW9tYWUnLCAnPG91dGZpbGUubWFlPic=

> <r_lp_tautomer_probability>
1

> <r_epik_Ionization_Penalty>
4.55442

> <r_epik_Ionization_Penalty_Charging>
4.5081

> <r_epik_Ionization_Penalty_Neutral>
0.0463156

> <r_epik_State_Penalty>
4.50781

> <r_epik_Charging_Adjusted_Penalty>
9.01591

> <i_epik_Tot_Q>
-1

> <i_epik_Tot_abs_Q>
1

> <r_epik_Metal_State_Penalty>
0.823335

> <b_epik_Metal_Only>
1

> <s_lp_Force_Field>
OPLS_2005

> <r_lp_Energy>
8.86437

> <b_lp_Chiralities_Consistent>
1

> <s_lp_Variant>
AV-unprocessed.smi:1749-6

> <Gold.Version>
5.8.1

> <Gold.Id.Protein>
6NUR|6NUR_protein|mol2

> <Gold.PLP.Fitness>
40.7543

> <Gold.PLP.PLP>
-35.9503

> <Gold.PLP.part.hbond>
-2.0000

> <Gold.PLP.part.metal>
0.0000

> <Gold.PLP.part.buried>
-3.7338

> <Gold.PLP.part.nonpolar>
-29.8399

> <Gold.PLP.part.repulsive>
0.6971

> <Gold.PLP.ligand.clash>
0.0000

> <Gold.PLP.ligand.torsion>
0.2899

> <Gold.PLP.Chemscore.Hbond>
1.7920

> <Gold.PLP.Chemscore.CHOScore>
0.0000

> <Gold.PLP.Chemscore.Metal>
0.0000

> <Gold.Chemscore.Hbonds>
donor molecule, donor type, donor heavy atom, donor atom, acceptor molecule, acceptor atom, score
      L1  H     7    28       P1  8028  0.86
      P1  H  7989  7998       L1     9  0.90

> <Gold.PLP.Chemscore.Internal.Correction>
0.0078

> <Gold.Rescore>
     Score         DG    S(hbond)    S(metal)    S(lipo)     H(rot)  DE(clash)    DE(int)     intcor
     15.71     -17.63       1.40        0.00      85.72       1.00       0.06       1.86       ----

> <Gold.Chemscore.Fitness>
15.7074

> <Gold.Chemscore.DG>
-17.6310

> <Gold.Chemscore.ZeroCoef>
-5.4800

> <Gold.Chemscore.Hbond>
1.4018

> <Gold.Chemscore.Metal>
0.0000

> <Gold.Chemscore.Lipo>
85.7190

> <Gold.Chemscore.Internal_Hbond>
0.0000

> <Gold.Chemscore.DEClash>
0.0639

> <Gold.Chemscore.DEInternal>
1.8597

> <Gold.Chemscore.Rot>
1.0000

> <Gold.Chemscore.Internal.Correction>
   9.000000E+99

> <Gold.Chemscore.Hbonds>
donor molecule, donor type, donor heavy atom, donor atom, acceptor molecule, acceptor atom, score
      L1  H     7    28       P1  8028  0.85
      P1  H  7989  7998       L1     9  0.26

> <Gold.Chemscore.Hbond.Weighted>
-4.6819

> <Gold.Chemscore.Metal.Weighted>
-0.0000

> <Gold.Chemscore.Lipo.Weighted>
-10.0291

> <Gold.Chemscore.Internal_Hbond.Weighted>
0.0000

> <Gold.Chemscore.DEClash.Weighted>
0.0639

> <Gold.Chemscore.DEInternal.Weighted>
1.8597

> <Gold.Chemscore.Rot.Weighted>
2.5600

> <Gold.Chemscore.Internal.Correction.Weighted>
   9.000000E+99

> <Gold.Protein.RotatedTorsions>
[ 6907 6896 6895 6894 ] final -166.46 input  -60.11 | X-H torsion
[ 7974 7965 7964 7962 ] final    5.42 input  175.53 | X-H torsion
[ 8008 7997 7996 7995 ] final  -23.29 input   59.86 | X-H torsion
[ 10167 10162 10161 10158 ] final  -76.12 input  -65.29 | X-H torsion
[ 10718 10713 10712 10709 ] final  116.46 input   66.30 | X-H torsion
[ 10763 10752 10751 10750 ] final  170.61 input  -60.55 | X-H torsion
[ 11005 11000 10999 10996 ] final  -65.47 input  -57.11 | X-H torsion

> <Gold.Protein.ActiveResidues>
 VAL166  LYS551  ARG553  GLY616  TRP617  ASP618  TYR619  PRO620  LYS621  CYS622 
 ASP623  PHE694  ASN695  SER759  ASP760  ASP761  ALA762  ILE779  LEU786  VAL792 
 PHE793  MET794  SER795  GLU796  ALA797  LYS798  CYS799  TRP800  GLU811  SER814 

> <Gold.Protein.RotatedAtoms>
  151.4440  133.3635  159.2785 H   0  0  0  0  0  0  0  0  0  0  0  0  # atno 6907 bound_to 6896
  150.9138  134.8556  159.7454 H   0  0  0  0  0  0  0  0  0  0  0  0  # atno 6908 bound_to 6896
  152.4946  134.4372  159.9583 H   0  0  0  0  0  0  0  0  0  0  0  0  # atno 6909 bound_to 6896
  146.2440  140.0386  142.8384 H   0  0  0  0  0  0  0  0  0  0  0  0  # atno 7974 bound_to 7965
  154.4594  140.1984  156.0288 H   0  0  0  0  0  0  0  0  0  0  0  0  # atno 8008 bound_to 7997
  156.0810  140.3271  155.7665 H   0  0  0  0  0  0  0  0  0  0  0  0  # atno 8009 bound_to 7997
  155.5111  140.0562  157.2914 H   0  0  0  0  0  0  0  0  0  0  0  0  # atno 8010 bound_to 7997
  140.4884  143.2386  151.7947 H   0  0  0  0  0  0  0  0  0  0  0  0  # atno 10167 bound_to 10162
  157.6159  131.1025  150.7476 H   0  0  0  0  0  0  0  0  0  0  0  0  # atno 10718 bound_to 10713
  154.4001  135.2755  155.2102 H   0  0  0  0  0  0  0  0  0  0  0  0  # atno 10763 bound_to 10752
  154.4131  135.6018  153.5968 H   0  0  0  0  0  0  0  0  0  0  0  0  # atno 10764 bound_to 10752
  152.9831  135.5954  154.4268 H   0  0  0  0  0  0  0  0  0  0  0  0  # atno 10765 bound_to 10752
  141.1455  133.6682  156.5991 H   0  0  0  0  0  0  0  0  0  0  0  0  # atno 11005 bound_to 11000
  145.1090  140.9393  143.4668 LP  0  0  0  0  0  0  0  0  0  0  0  0  # atno 17320 bound_to 7965
  145.0596  139.3116  143.5887 LP  0  0  0  0  0  0  0  0  0  0  0  0  # atno 17321 bound_to 7965
  139.4846  144.4682  151.9458 LP  0  0  0  0  0  0  0  0  0  0  0  0  # atno 17342 bound_to 10162
  140.3768  144.2786  150.5913 LP  0  0  0  0  0  0  0  0  0  0  0  0  # atno 17343 bound_to 10162
  156.7843  130.4869  149.5395 LP  0  0  0  0  0  0  0  0  0  0  0  0  # atno 17370 bound_to 10713
  156.1281  130.6158  151.0293 LP  0  0  0  0  0  0  0  0  0  0  0  0  # atno 17371 bound_to 10713
  140.3703  134.7612  157.4594 LP  0  0  0  0  0  0  0  0  0  0  0  0  # atno 17394 bound_to 11000
  140.0716  134.5854  155.8636 LP  0  0  0  0  0  0  0  0  0  0  0  0  # atno 17395 bound_to 11000

$$$$
