AV-unprocessed.smi:148|AV-procd|sdf|1206|dock4
  -GOLD-   2262018373D 1   1.00000     0.00000
 Structure written by MMmdl.
 63 67  0  0  0  0  0  0  0  0  1 V2000
  151.9218  137.3613  153.7203 O   0  0  0  0  0  0  0  0  0  0  0  0
  151.6895  137.8521  155.0240 C   0  0  0  0  0  0  0  0  0  0  0  0
  150.1777  138.0369  155.2945 C   0  0  2  0  0  0  0  0  0  0  0  0
  149.4983  138.8719  154.1774 C   0  0  0  0  0  0  0  0  0  0  0  0
  148.0998  138.5278  153.9918 N   0  0  0  0  0  0  0  0  0  0  0  0
  147.2273  139.0728  153.0757 C   0  0  0  0  0  0  0  0  0  0  0  0
  146.0185  138.5806  153.0967 N   0  0  0  0  0  0  0  0  0  0  0  0
  146.0617  137.6327  154.1105 C   0  0  0  0  0  0  0  0  0  0  0  0
  145.1184  136.7179  154.6460 C   0  0  0  0  0  0  0  0  0  0  0  0
  143.8582  136.6329  154.1675 N   0  0  0  0  0  0  0  0  0  0  0  0
  142.9314  137.3116  155.0764 C   0  0  0  0  0  0  0  0  0  0  0  0
  141.5595  137.5147  154.4269 C   0  0  0  0  0  0  0  0  0  0  0  0
  141.0056  136.1699  153.9546 C   0  0  0  0  0  0  0  0  0  0  0  0
  142.0105  135.4926  153.0140 C   0  0  0  0  0  0  0  0  0  0  0  0
  143.4146  135.3178  153.6574 C   0  0  1  0  0  0  0  0  0  0  0  0
  144.4052  134.6566  152.6345 C   0  0  1  0  0  0  0  0  0  0  0  0
  143.8377  133.5425  151.7251 C   0  0  0  0  0  0  0  0  0  0  0  0
  144.7126  133.4950  150.4642 C   0  0  0  0  0  0  0  0  0  0  0  0
  145.6725  134.6824  150.5669 C   0  0  0  0  0  0  0  0  0  0  0  0
  145.0466  135.6131  151.6059 C   0  0  1  0  0  0  0  0  0  0  0  0
  144.0702  136.4122  150.9604 O   0  0  0  0  0  0  0  0  0  0  0  0
  145.5158  135.9124  155.6665 N   0  0  0  0  0  0  0  0  0  0  0  0
  146.7685  135.9923  156.1266 C   0  0  0  0  0  0  0  0  0  0  0  0
  147.7608  136.7856  155.7153 N   0  0  0  0  0  0  0  0  0  0  0  0
  147.3582  137.5946  154.6933 C   0  0  0  0  0  0  0  0  0  0  0  0
  149.9068  138.5840  156.7233 C   0  0  2  0  0  0  0  0  0  0  0  0
  150.3895  140.0104  156.9922 C   0  0  0  0  0  0  0  0  0  0  0  0
  151.0917  139.9199  158.3485 C   0  0  0  0  0  0  0  0  0  0  0  0
  150.5834  138.7300  158.9304 O   0  0  0  0  0  0  0  0  0  0  0  0
  150.4939  137.7753  157.8867 C   0  0  0  0  0  0  0  0  0  0  0  0
  151.1311  136.9480  153.4090 H   0  0  0  0  0  0  0  0  0  0  0  0
  152.1351  137.1731  155.7514 H   0  0  0  0  0  0  0  0  0  0  0  0
  152.2226  138.7989  155.1062 H   0  0  0  0  0  0  0  0  0  0  0  0
  149.7305  137.0421  155.2603 H   0  0  0  0  0  0  0  0  0  0  0  0
  149.5452  139.9384  154.3931 H   0  0  0  0  0  0  0  0  0  0  0  0
  150.0083  138.7281  153.2252 H   0  0  0  0  0  0  0  0  0  0  0  0
  147.5209  139.8435  152.3779 H   0  0  0  0  0  0  0  0  0  0  0  0
  142.8188  136.7230  155.9882 H   0  0  0  0  0  0  0  0  0  0  0  0
  143.3382  138.2804  155.3715 H   0  0  0  0  0  0  0  0  0  0  0  0
  140.8728  137.9775  155.1361 H   0  0  0  0  0  0  0  0  0  0  0  0
  141.6475  138.1987  153.5818 H   0  0  0  0  0  0  0  0  0  0  0  0
  140.8113  135.5258  154.8131 H   0  0  0  0  0  0  0  0  0  0  0  0
  140.0512  136.3132  153.4470 H   0  0  0  0  0  0  0  0  0  0  0  0
  141.5887  134.5335  152.7180 H   0  0  0  0  0  0  0  0  0  0  0  0
  142.0999  136.0830  152.1008 H   0  0  0  0  0  0  0  0  0  0  0  0
  143.3086  134.6516  154.5150 H   0  0  0  0  0  0  0  0  0  0  0  0
  145.2277  134.2235  153.2068 H   0  0  0  0  0  0  0  0  0  0  0  0
  143.8328  132.5669  152.2069 H   0  0  0  0  0  0  0  0  0  0  0  0
  142.8096  133.7738  151.4437 H   0  0  0  0  0  0  0  0  0  0  0  0
  145.2611  132.5553  150.3894 H   0  0  0  0  0  0  0  0  0  0  0  0
  144.0882  133.5802  149.5742 H   0  0  0  0  0  0  0  0  0  0  0  0
  146.6374  134.3317  150.9358 H   0  0  0  0  0  0  0  0  0  0  0  0
  145.8500  135.1671  149.6059 H   0  0  0  0  0  0  0  0  0  0  0  0
  145.8005  136.2608  152.0548 H   0  0  0  0  0  0  0  0  0  0  0  0
  144.4413  137.2655  150.7962 H   0  0  0  0  0  0  0  0  0  0  0  0
  147.0120  135.3211  156.9370 H   0  0  0  0  0  0  0  0  0  0  0  0
  148.8272  138.6089  156.8779 H   0  0  0  0  0  0  0  0  0  0  0  0
  151.0568  140.4053  156.2269 H   0  0  0  0  0  0  0  0  0  0  0  0
  149.5347  140.6856  157.0488 H   0  0  0  0  0  0  0  0  0  0  0  0
  152.1703  139.8223  158.2163 H   0  0  0  0  0  0  0  0  0  0  0  0
  150.9022  140.7882  158.9799 H   0  0  0  0  0  0  0  0  0  0  0  0
  149.8645  136.9315  158.1705 H   0  0  0  0  0  0  0  0  0  0  0  0
  151.4938  137.3981  157.6746 H   0  0  0  0  0  0  0  0  0  0  0  0
  1  2  1  0  0  0  0
  1 31  1  0  0  0  0
  2  3  1  0  0  0  0
  2 32  1  0  0  0  0
  2 33  1  0  0  0  0
  3  4  1  0  0  0  0
  3 26  1  0  0  0  0
  3 34  1  0  0  0  0
  4  5  1  0  0  0  0
  4 35  1  0  0  0  0
  4 36  1  0  0  0  0
  5 25  1  0  0  0  0
  5  6  1  0  0  0  0
  6  7  2  0  0  0  0
  6 37  1  0  0  0  0
  7  8  1  0  0  0  0
  8 25  2  0  0  0  0
  8  9  1  0  0  0  0
  9 10  1  0  0  0  0
  9 22  2  0  0  0  0
 10 15  1  0  0  0  0
 10 11  1  0  0  0  0
 11 12  1  0  0  0  0
 11 38  1  0  0  0  0
 11 39  1  0  0  0  0
 12 13  1  0  0  0  0
 12 40  1  0  0  0  0
 12 41  1  0  0  0  0
 13 14  1  0  0  0  0
 13 42  1  0  0  0  0
 13 43  1  0  0  0  0
 14 15  1  0  0  0  0
 14 44  1  0  0  0  0
 14 45  1  0  0  0  0
 15 16  1  0  0  0  0
 15 46  1  0  0  0  0
 16 20  1  0  0  0  0
 16 17  1  0  0  0  0
 16 47  1  0  0  0  0
 17 18  1  0  0  0  0
 17 48  1  0  0  0  0
 17 49  1  0  0  0  0
 18 19  1  0  0  0  0
 18 50  1  0  0  0  0
 18 51  1  0  0  0  0
 19 20  1  0  0  0  0
 19 52  1  0  0  0  0
 19 53  1  0  0  0  0
 20 21  1  0  0  0  0
 20 54  1  0  0  0  0
 21 55  1  0  0  0  0
 22 23  1  0  0  0  0
 23 24  2  0  0  0  0
 23 56  1  0  0  0  0
 24 25  1  0  0  0  0
 26 30  1  0  0  0  0
 26 27  1  0  0  0  0
 26 57  1  0  0  0  0
 27 28  1  0  0  0  0
 27 58  1  0  0  0  0
 27 59  1  0  0  0  0
 28 29  1  0  0  0  0
 28 60  1  0  0  0  0
 28 61  1  0  0  0  0
 29 30  1  0  0  0  0
 30 62  1  0  0  0  0
 30 63  1  0  0  0  0
M  END
> <s_m_source_file>
AV-unprocessed.smi

> <i_m_source_file_index>
148

> <i_lp_mmshare_version>
43012

> <i_f3d_flags>
0

> <s_epik_input>
W0NIMl0xT1tDSDJdW0NIMl1bQ0BIXTFbQ0BIXShbQ0gyXVtPSF0pW0NIMl1uKFtjSF1uMiljKGMyMyluW2NIXW5jM040W0NIMl1bQ0gyXVtDSDJdW0NIMl1bQ0BIXTRbQ0BASF01W0NIMl1bQ0gyXVtDSDJdW0NASF01W09IXQ==

> <s_epik_cmdline>
J2VwaWtfcHl0aG9uJywgJy1waCcsICc3LjAnLCAnLXRuJywgJzgnLCAnLW1hJywgJzIwMCcsICctbWV0YWxfYmluZGluZycsICctaW1hZScsICc8aW5maWxlLm1hZT4nLCAnLW9tYWUnLCAnPG91dGZpbGUubWFlPic=

> <r_lp_tautomer_probability>
1

> <r_epik_Ionization_Penalty>
0.00556303

> <r_epik_Ionization_Penalty_Charging>
0

> <r_epik_Ionization_Penalty_Neutral>
0.00556303

> <r_epik_State_Penalty>
0.00401767

> <r_epik_Charging_Adjusted_Penalty>
0.00401767

> <i_epik_Tot_Q>
0

> <i_epik_Tot_abs_Q>
0

> <r_epik_Metal_State_Penalty>
-0

> <b_epik_Metal_Only>
0

> <s_lp_Force_Field>
OPLS_2005

> <r_lp_Energy>
71.7906

> <b_lp_Chiralities_Consistent>
1

> <s_lp_Variant>
AV-unprocessed.smi:148-5

> <Gold.Version>
5.8.1

> <Gold.Id.Protein>
6NUR|6NUR_protein|mol2

> <Gold.PLP.Fitness>
41.4833

> <Gold.PLP.PLP>
-34.0168

> <Gold.PLP.part.hbond>
-3.2335

> <Gold.PLP.part.metal>
0.0000

> <Gold.PLP.part.buried>
-5.7815

> <Gold.PLP.part.nonpolar>
-26.0188

> <Gold.PLP.part.repulsive>
0.3467

> <Gold.PLP.ligand.clash>
0.0000

> <Gold.PLP.ligand.torsion>
0.9487

> <Gold.PLP.Chemscore.Hbond>
1.8849

> <Gold.PLP.Chemscore.CHOScore>
1.0000

> <Gold.PLP.Chemscore.Metal>
0.0000

> <Gold.Chemscore.Hbonds>
donor molecule, donor type, donor heavy atom, donor atom, acceptor molecule, acceptor atom, score
      L1  H     1    31       P1  7949  0.26
      L1  H    21    55       P1 10171  0.61
      P1  H 10752 10763       L1     1  1.00
      L1  C     6    37       P1  7957  0.97

> <Gold.PLP.Chemscore.Internal.Correction>
0.7090

> <Gold.Rescore>
     Score         DG    S(hbond)    S(metal)    S(lipo)     H(rot)  DE(clash)    DE(int)     intcor
      8.36     -12.01       1.65        0.00      81.33       3.32       0.16       3.49       ----

> <Gold.Chemscore.Fitness>
8.3605

> <Gold.Chemscore.DG>
-12.0056

> <Gold.Chemscore.ZeroCoef>
-5.4800

> <Gold.Chemscore.Hbond>
1.6497

> <Gold.Chemscore.Metal>
0.0000

> <Gold.Chemscore.Lipo>
81.3284

> <Gold.Chemscore.Internal_Hbond>
0.0000

> <Gold.Chemscore.DEClash>
0.1562

> <Gold.Chemscore.DEInternal>
3.4888

> <Gold.Chemscore.Rot>
3.3203

> <Gold.Chemscore.Internal.Correction>
   9.000000E+99

> <Gold.Chemscore.Hbonds>
donor molecule, donor type, donor heavy atom, donor atom, acceptor molecule, acceptor atom, score
      L1  H     1    31       P1  7949  0.11
      L1  H    21    55       P1 10171  0.60
      P1  H 10752 10763       L1     1  0.15

> <Gold.Chemscore.Hbond.Weighted>
-5.5101

> <Gold.Chemscore.Metal.Weighted>
-0.0000

> <Gold.Chemscore.Lipo.Weighted>
-9.5154

> <Gold.Chemscore.Internal_Hbond.Weighted>
0.0000

> <Gold.Chemscore.DEClash.Weighted>
0.1562

> <Gold.Chemscore.DEInternal.Weighted>
3.4888

> <Gold.Chemscore.Rot.Weighted>
8.5000

> <Gold.Chemscore.Internal.Correction.Weighted>
   9.000000E+99

> <Gold.Protein.RotatedTorsions>
[ 6907 6896 6895 6894 ] final   41.88 input  -60.11 | X-H torsion
[ 7974 7965 7964 7962 ] final -135.82 input  175.53 | X-H torsion
[ 8008 7997 7996 7995 ] final   -2.22 input   59.86 | X-H torsion
[ 10167 10162 10161 10158 ] final  -92.01 input  -65.29 | X-H torsion
[ 10718 10713 10712 10709 ] final  176.54 input   66.30 | X-H torsion
[ 10763 10752 10751 10750 ] final   15.42 input  -60.55 | X-H torsion
[ 11005 11000 10999 10996 ] final  -46.14 input  -57.11 | X-H torsion

> <Gold.Protein.ActiveResidues>
 VAL166  LYS551  ARG553  GLY616  TRP617  ASP618  TYR619  PRO620  LYS621  CYS622 
 ASP623  PHE694  ASN695  SER759  ASP760  ASP761  ALA762  ILE779  LEU786  VAL792 
 PHE793  MET794  SER795  GLU796  ALA797  LYS798  CYS799  TRP800  GLU811  SER814 

> <Gold.Protein.RotatedAtoms>
  152.2008  134.8589  160.0507 H   0  0  0  0  0  0  0  0  0  0  0  0  # atno 6907 bound_to 6896
  151.9443  133.3642  159.3985 H   0  0  0  0  0  0  0  0  0  0  0  0  # atno 6908 bound_to 6896
  150.6954  134.4330  159.5301 H   0  0  0  0  0  0  0  0  0  0  0  0  # atno 6909 bound_to 6896
  144.8980  140.6733  143.5103 H   0  0  0  0  0  0  0  0  0  0  0  0  # atno 7974 bound_to 7965
  154.6381  140.2540  155.7354 H   0  0  0  0  0  0  0  0  0  0  0  0  # atno 8008 bound_to 7997
  156.2515  140.2893  156.0683 H   0  0  0  0  0  0  0  0  0  0  0  0  # atno 8009 bound_to 7997
  155.1639  140.0385  157.2838 H   0  0  0  0  0  0  0  0  0  0  0  0  # atno 8010 bound_to 7997
  140.3391  143.2952  151.9856 H   0  0  0  0  0  0  0  0  0  0  0  0  # atno 10167 bound_to 10162
  156.9186  130.9933  151.3008 H   0  0  0  0  0  0  0  0  0  0  0  0  # atno 10718 bound_to 10713
  153.1527  135.6781  153.8859 H   0  0  0  0  0  0  0  0  0  0  0  0  # atno 10763 bound_to 10752
  153.8280  135.3121  155.3417 H   0  0  0  0  0  0  0  0  0  0  0  0  # atno 10764 bound_to 10752
  154.7874  135.4854  154.0063 H   0  0  0  0  0  0  0  0  0  0  0  0  # atno 10765 bound_to 10752
  141.0560  133.6725  156.3113 H   0  0  0  0  0  0  0  0  0  0  0  0  # atno 11005 bound_to 11000
  145.3665  139.1669  143.4355 LP  0  0  0  0  0  0  0  0  0  0  0  0  # atno 17320 bound_to 7965
  146.3092  140.3733  142.8676 LP  0  0  0  0  0  0  0  0  0  0  0  0  # atno 17321 bound_to 7965
  139.4843  144.6172  151.7324 LP  0  0  0  0  0  0  0  0  0  0  0  0  # atno 17342 bound_to 10162
  140.5326  144.0706  150.6059 LP  0  0  0  0  0  0  0  0  0  0  0  0  # atno 17343 bound_to 10162
  157.5922  130.8452  149.8676 LP  0  0  0  0  0  0  0  0  0  0  0  0  # atno 17370 bound_to 10713
  156.0502  130.3719  150.1220 LP  0  0  0  0  0  0  0  0  0  0  0  0  # atno 17371 bound_to 10713
  140.5963  134.5600  157.5509 LP  0  0  0  0  0  0  0  0  0  0  0  0  # atno 17394 bound_to 11000
  139.9390  134.7821  156.0726 LP  0  0  0  0  0  0  0  0  0  0  0  0  # atno 17395 bound_to 11000

$$$$
