AV-unprocessed.smi:40|AV-procd|sdf|382|dock6
  -GOLD-   2262016243D 1   1.00000     0.00000
 Structure written by MMmdl.
 47 48  0  0  0  0  0  0  0  0  1 V2000
  152.2091  145.7226  159.3331 C   0  0  0  0  0  0  0  0  0  0  0  0
  151.9004  144.2313  159.5203 C   0  0  0  0  0  0  0  0  0  0  0  0
  153.1454  143.3677  159.7804 C   0  0  0  0  0  0  0  0  0  0  0  0
  152.8236  141.9667  160.3313 C   0  0  0  0  0  0  0  0  0  0  0  0
  153.9036  140.9281  159.9995 C   0  0  0  0  0  0  0  0  0  0  0  0
  154.0289  140.0228  161.0829 O   0  0  0  0  0  0  0  0  0  0  0  0
  154.1450  138.7007  160.8613 C   0  0  0  0  0  0  0  0  0  0  0  0
  154.4100  138.2051  159.7663 O   0  0  0  0  0  0  0  0  0  0  0  0
  153.9597  137.9422  162.0867 N   0  0  0  0  0  0  0  0  0  0  0  0
  154.0037  136.5988  162.2585 C   0  0  0  0  0  0  0  0  0  0  0  0
  154.1032  135.7613  161.2377 N   0  0  0  0  0  0  0  0  0  0  0  0
  154.1643  134.4004  161.3679 C   0  0  0  0  0  0  0  0  0  0  0  0
  154.2196  133.6750  160.3759 O   0  0  0  0  0  0  0  0  0  0  0  0
  154.1491  133.8730  162.6800 N   0  0  0  0  0  0  0  0  0  0  0  0
  154.2007  132.3749  162.8658 C   0  0  1  0  0  0  0  0  0  0  0  0
  155.1905  132.0703  163.8058 O   0  0  0  0  0  0  0  0  0  0  0  0
  154.6591  131.2206  164.8166 C   0  0  1  0  0  0  0  0  0  0  0  0
  155.4080  131.4381  166.1366 C   0  0  0  0  0  0  0  0  0  0  0  0
  153.1791  131.5959  164.8661 C   0  0  2  0  0  0  0  0  0  0  0  0
  152.3720  130.5896  165.4476 O   0  0  0  0  0  0  0  0  0  0  0  0
  152.8541  131.8588  163.4001 C   0  0  2  0  0  0  0  0  0  0  0  0
  152.4500  130.6897  162.7109 O   0  0  0  0  0  0  0  0  0  0  0  0
  154.0501  134.7327  163.7643 C   0  0  0  0  0  0  0  0  0  0  0  0
  153.9850  136.0723  163.6062 C   0  0  0  0  0  0  0  0  0  0  0  0
  153.8968  136.8867  164.6722 F   0  0  0  0  0  0  0  0  0  0  0  0
  154.4871  131.9544  161.9002 H   0  0  0  0  0  0  0  0  0  0  0  0
  154.7729  130.1879  164.4824 H   0  0  0  0  0  0  0  0  0  0  0  0
  153.0534  132.5217  165.4295 H   0  0  0  0  0  0  0  0  0  0  0  0
  152.0706  132.6095  163.2863 H   0  0  0  0  0  0  0  0  0  0  0  0
  151.3007  146.2770  159.0968 H   0  0  0  0  0  0  0  0  0  0  0  0
  152.9145  145.8792  158.5168 H   0  0  0  0  0  0  0  0  0  0  0  0
  152.6345  146.1618  160.2352 H   0  0  0  0  0  0  0  0  0  0  0  0
  151.1834  144.1012  160.3315 H   0  0  0  0  0  0  0  0  0  0  0  0
  151.4053  143.8654  158.6202 H   0  0  0  0  0  0  0  0  0  0  0  0
  153.6873  143.2651  158.8398 H   0  0  0  0  0  0  0  0  0  0  0  0
  153.8203  143.8882  160.4607 H   0  0  0  0  0  0  0  0  0  0  0  0
  152.7154  142.0170  161.4145 H   0  0  0  0  0  0  0  0  0  0  0  0
  151.8631  141.6266  159.9422 H   0  0  0  0  0  0  0  0  0  0  0  0
  153.6478  140.3883  159.0868 H   0  0  0  0  0  0  0  0  0  0  0  0
  154.8579  141.4284  159.8296 H   0  0  0  0  0  0  0  0  0  0  0  0
  153.7470  138.5058  162.8969 H   0  0  0  0  0  0  0  0  0  0  0  0
  155.0027  130.8031  166.9246 H   0  0  0  0  0  0  0  0  0  0  0  0
  155.3323  132.4737  166.4689 H   0  0  0  0  0  0  0  0  0  0  0  0
  156.4661  131.1998  166.0276 H   0  0  0  0  0  0  0  0  0  0  0  0
  151.5703  130.9874  165.7509 H   0  0  0  0  0  0  0  0  0  0  0  0
  152.9316  129.9554  163.0598 H   0  0  0  0  0  0  0  0  0  0  0  0
  154.0213  134.3399  164.7699 H   0  0  0  0  0  0  0  0  0  0  0  0
  1  2  1  0  0  0  0
  1 30  1  0  0  0  0
  1 31  1  0  0  0  0
  1 32  1  0  0  0  0
  2  3  1  0  0  0  0
  2 33  1  0  0  0  0
  2 34  1  0  0  0  0
  3  4  1  0  0  0  0
  3 35  1  0  0  0  0
  3 36  1  0  0  0  0
  4  5  1  0  0  0  0
  4 37  1  0  0  0  0
  4 38  1  0  0  0  0
  5  6  1  0  0  0  0
  5 39  1  0  0  0  0
  5 40  1  0  0  0  0
  6  7  1  0  0  0  0
  7  8  2  0  0  0  0
  7  9  1  0  0  0  0
  9 10  1  0  0  0  0
  9 41  1  0  0  0  0
 10 24  1  0  0  0  0
 10 11  2  0  0  0  0
 11 12  1  0  0  0  0
 12 13  2  0  0  0  0
 12 14  1  0  0  0  0
 14 15  1  0  0  0  0
 14 23  1  0  0  0  0
 15 26  1  0  0  0  0
 15 21  1  0  0  0  0
 15 16  1  0  0  0  0
 16 17  1  0  0  0  0
 17 27  1  0  0  0  0
 17 18  1  0  0  0  0
 17 19  1  0  0  0  0
 18 42  1  0  0  0  0
 18 43  1  0  0  0  0
 18 44  1  0  0  0  0
 19 28  1  0  0  0  0
 19 20  1  0  0  0  0
 19 21  1  0  0  0  0
 20 45  1  0  0  0  0
 21 29  1  0  0  0  0
 21 22  1  0  0  0  0
 22 46  1  0  0  0  0
 23 24  2  0  0  0  0
 23 47  1  0  0  0  0
 24 25  1  0  0  0  0
M  END
> <s_m_source_file>
AV-unprocessed.smi

> <i_m_source_file_index>
40

> <i_lp_mmshare_version>
43012

> <i_f3d_flags>
0

> <s_epik_input>
W0NIM11bQ0gyXVtDSDJdW0NIMl1bQ0gyXU9DKD1PKVtOSF1jMW5jKD1PKW4oW2NIXWMxRilbQ0BASF0yT1tDQEhdKFtDSDNdKVtDQEBIXShbT0hdKVtDQEhdMltPSF0=

> <s_epik_cmdline>
J2VwaWtfcHl0aG9uJywgJy1waCcsICc3LjAnLCAnLXRuJywgJzgnLCAnLW1hJywgJzIwMCcsICctbWV0YWxfYmluZGluZycsICctaW1hZScsICc8aW5maWxlLm1hZT4nLCAnLW9tYWUnLCAnPG91dGZpbGUubWFlPic=

> <r_lp_tautomer_probability>
1

> <r_epik_Ionization_Penalty>
2.29506e-06

> <r_epik_Ionization_Penalty_Charging>
8.26867e-09

> <r_epik_Ionization_Penalty_Neutral>
2.2868e-06

> <r_epik_State_Penalty>
-0

> <r_epik_Charging_Adjusted_Penalty>
8.26867e-09

> <i_epik_Tot_Q>
0

> <i_epik_Tot_abs_Q>
0

> <r_epik_Metal_State_Penalty>
-0

> <b_epik_Metal_Only>
0

> <s_epik_Chemistry_Notes>
This compound has an ester and may undergo hydrolysis at high or low pH. This compound contains an acetal/aminal-like group ( X-CH(R)-Y where X, Y are N, S, or O) that may be acid/base labile, releasing an aldehyde.

> <s_lp_Force_Field>
OPLS_2005

> <r_lp_Energy>
35.629

> <b_lp_Chiralities_Consistent>
1

> <s_lp_Variant>
AV-unprocessed.smi:40-16

> <Gold.Version>
5.8.1

> <Gold.Id.Protein>
6NUR|6NUR_protein|mol2

> <Gold.PLP.Fitness>
43.1465

> <Gold.PLP.PLP>
-44.2723

> <Gold.PLP.part.hbond>
-0.4978

> <Gold.PLP.part.metal>
0.0000

> <Gold.PLP.part.buried>
-4.1300

> <Gold.PLP.part.nonpolar>
-40.4455

> <Gold.PLP.part.repulsive>
0.0073

> <Gold.PLP.ligand.clash>
0.0000

> <Gold.PLP.ligand.torsion>
1.0914

> <Gold.PLP.Chemscore.Hbond>
0.3185

> <Gold.PLP.Chemscore.CHOScore>
0.0000

> <Gold.PLP.Chemscore.Metal>
0.0000

> <Gold.Chemscore.Hbonds>
donor molecule, donor type, donor heavy atom, donor atom, acceptor molecule, acceptor atom, score
      P1  H  6896  6907       L1    13  0.85

> <Gold.PLP.Chemscore.Internal.Correction>
0.1014

> <Gold.Rescore>
     Score         DG    S(hbond)    S(metal)    S(lipo)     H(rot)  DE(clash)    DE(int)     intcor
      6.45      -8.91       0.44        0.00      97.65       3.70       0.30       2.15       ----

> <Gold.Chemscore.Fitness>
6.4545

> <Gold.Chemscore.DG>
-8.9108

> <Gold.Chemscore.ZeroCoef>
-5.4800

> <Gold.Chemscore.Hbond>
0.4393

> <Gold.Chemscore.Metal>
0.0000

> <Gold.Chemscore.Lipo>
97.6467

> <Gold.Chemscore.Internal_Hbond>
0.0000

> <Gold.Chemscore.DEClash>
0.3026

> <Gold.Chemscore.DEInternal>
2.1537

> <Gold.Chemscore.Rot>
3.6957

> <Gold.Chemscore.Internal.Correction>
   9.000000E+99

> <Gold.Chemscore.Hbonds>
donor molecule, donor type, donor heavy atom, donor atom, acceptor molecule, acceptor atom, score
      P1  H  6896  6907       L1    13  0.14

> <Gold.Chemscore.Hbond.Weighted>
-1.4671

> <Gold.Chemscore.Metal.Weighted>
-0.0000

> <Gold.Chemscore.Lipo.Weighted>
-11.4247

> <Gold.Chemscore.Internal_Hbond.Weighted>
0.0000

> <Gold.Chemscore.DEClash.Weighted>
0.3026

> <Gold.Chemscore.DEInternal.Weighted>
2.1537

> <Gold.Chemscore.Rot.Weighted>
9.4610

> <Gold.Chemscore.Internal.Correction.Weighted>
   9.000000E+99

> <Gold.Protein.RotatedTorsions>
[ 6907 6896 6895 6894 ] final  102.70 input  -60.11 | X-H torsion
[ 7974 7965 7964 7962 ] final   -2.76 input  175.53 | X-H torsion
[ 8008 7997 7996 7995 ] final    1.03 input   59.86 | X-H torsion
[ 10167 10162 10161 10158 ] final  169.20 input  -65.29 | X-H torsion
[ 10718 10713 10712 10709 ] final -143.52 input   66.30 | X-H torsion
[ 10763 10752 10751 10750 ] final   60.40 input  -60.55 | X-H torsion
[ 11005 11000 10999 10996 ] final  165.26 input  -57.11 | X-H torsion

> <Gold.Protein.ActiveResidues>
 VAL166  LYS551  ARG553  GLY616  TRP617  ASP618  TYR619  PRO620  LYS621  CYS622 
 ASP623  PHE694  ASN695  SER759  ASP760  ASP761  ALA762  ILE779  LEU786  VAL792 
 PHE793  MET794  SER795  GLU796  ALA797  LYS798  CYS799  TRP800  GLU811  SER814 

> <Gold.Protein.RotatedAtoms>
  152.5316  133.9936  159.7861 H   0  0  0  0  0  0  0  0  0  0  0  0  # atno 6907 bound_to 6896
  151.0167  133.5906  159.2683 H   0  0  0  0  0  0  0  0  0  0  0  0  # atno 6908 bound_to 6896
  151.2961  135.0762  159.9275 H   0  0  0  0  0  0  0  0  0  0  0  0  # atno 6909 bound_to 6896
  146.2400  140.1619  142.8332 H   0  0  0  0  0  0  0  0  0  0  0  0  # atno 7974 bound_to 7965
  154.6749  140.2620  155.6968 H   0  0  0  0  0  0  0  0  0  0  0  0  # atno 8008 bound_to 7997
  156.2674  140.2822  156.1195 H   0  0  0  0  0  0  0  0  0  0  0  0  # atno 8009 bound_to 7997
  155.1114  140.0375  157.2715 H   0  0  0  0  0  0  0  0  0  0  0  0  # atno 8010 bound_to 7997
  139.4986  144.3732  151.9703 H   0  0  0  0  0  0  0  0  0  0  0  0  # atno 10167 bound_to 10162
  156.3590  130.7728  151.1893 H   0  0  0  0  0  0  0  0  0  0  0  0  # atno 10718 bound_to 10713
  152.9920  135.5537  154.5867 H   0  0  0  0  0  0  0  0  0  0  0  0  # atno 10763 bound_to 10752
  154.5237  135.2809  155.1242 H   0  0  0  0  0  0  0  0  0  0  0  0  # atno 10764 bound_to 10752
  154.2585  135.6385  153.5318 H   0  0  0  0  0  0  0  0  0  0  0  0  # atno 10765 bound_to 10752
  140.2543  134.7953  157.3531 H   0  0  0  0  0  0  0  0  0  0  0  0  # atno 11005 bound_to 11000
  145.0082  140.8691  143.5240 LP  0  0  0  0  0  0  0  0  0  0  0  0  # atno 17320 bound_to 7965
  145.1649  139.2437  143.5372 LP  0  0  0  0  0  0  0  0  0  0  0  0  # atno 17321 bound_to 7965
  140.3168  144.3475  150.6019 LP  0  0  0  0  0  0  0  0  0  0  0  0  # atno 17342 bound_to 10162
  140.5755  143.2177  151.7523 LP  0  0  0  0  0  0  0  0  0  0  0  0  # atno 17343 bound_to 10162
  157.7471  131.0405  150.4603 LP  0  0  0  0  0  0  0  0  0  0  0  0  # atno 17370 bound_to 10713
  156.4811  130.4074  149.6461 LP  0  0  0  0  0  0  0  0  0  0  0  0  # atno 17371 bound_to 10713
  140.1527  134.4829  155.7949 LP  0  0  0  0  0  0  0  0  0  0  0  0  # atno 17394 bound_to 11000
  141.2198  133.6869  156.7407 LP  0  0  0  0  0  0  0  0  0  0  0  0  # atno 17395 bound_to 11000

$$$$
