AV-unprocessed.smi:129|AV-procd|sdf|1157|dock7
  -GOLD-   2262018293D 1   1.00000     0.00000
 Structure written by MMmdl.
 58 61  0  0  0  0  0  0  0  0  1 V2000
  154.1093  141.0451  160.4189 C   0  0  0  0  0  0  0  0  0  0  0  0
  152.9414  141.1031  159.6131 O   0  0  0  0  0  0  0  0  0  0  0  0
  152.4522  142.3439  159.2552 C   0  0  0  0  0  0  0  0  0  0  0  0
  153.1047  143.5625  159.5744 C   0  0  0  0  0  0  0  0  0  0  0  0
  152.5561  144.7953  159.1758 C   0  0  0  0  0  0  0  0  0  0  0  0
  151.3549  144.8282  158.4477 C   0  0  0  0  0  0  0  0  0  0  0  0
  150.6971  143.6283  158.1241 C   0  0  0  0  0  0  0  0  0  0  0  0
  151.2317  142.3839  158.5382 C   0  0  0  0  0  0  0  0  0  0  0  0
  150.6139  141.1416  158.2217 N   0  0  0  0  0  0  0  0  0  0  0  0
  149.4231  140.9202  157.6325 C   0  0  0  0  0  0  0  0  0  0  0  0
  148.6753  141.7993  157.2042 O   0  0  0  0  0  0  0  0  0  0  0  0
  149.0549  139.4722  157.4703 C   0  0  0  0  0  0  0  0  0  0  0  0
  147.9391  139.1143  156.6825 C   0  0  0  0  0  0  0  0  0  0  0  0
  147.5633  137.7645  156.5466 C   0  0  0  0  0  0  0  0  0  0  0  0
  148.2942  136.7478  157.1935 C   0  0  0  0  0  0  0  0  0  0  0  0
  147.8327  135.4135  157.0288 N   0  0  0  0  0  0  0  0  0  0  0  0
  148.3407  134.2737  157.5319 C   0  0  0  0  0  0  0  0  0  0  0  0
  149.3638  134.2060  158.2144 O   0  0  0  0  0  0  0  0  0  0  0  0
  147.5573  133.0017  157.1689 C   0  0  0  0  0  0  0  0  0  0  0  0
  147.7553  132.5596  155.7710 N   0  0  0  0  0  0  0  0  0  0  0  0
  148.8475  131.7065  155.4757 C   0  0  0  0  0  0  0  0  0  0  0  0
  149.6266  131.3382  156.3560 O   0  0  0  0  0  0  0  0  0  0  0  0
  148.9719  131.3036  154.0797 C   0  0  0  0  0  0  0  0  0  0  0  0
  149.9886  130.5086  153.7051 F   0  0  0  0  0  0  0  0  0  0  0  0
  148.0824  131.7177  153.1541 C   0  0  0  0  0  0  0  0  0  0  0  0
  147.0082  132.5343  153.4603 N   0  0  0  0  0  0  0  0  0  0  0  0
  146.0125  132.9837  152.4113 C   0  0  2  0  0  0  0  0  0  0  0  0
  145.2744  131.7723  151.8097 C   0  0  0  0  0  0  0  0  0  0  0  0
  145.4623  131.9702  150.3184 C   0  0  0  0  0  0  0  0  0  0  0  0
  146.7860  132.7173  150.2628 C   0  0  0  0  0  0  0  0  0  0  0  0
  146.6829  133.6169  151.3586 O   0  0  0  0  0  0  0  0  0  0  0  0
  146.8280  132.9797  154.7879 C   0  0  0  0  0  0  0  0  0  0  0  0
  145.8795  133.7112  155.0809 O   0  0  0  0  0  0  0  0  0  0  0  0
  149.4002  137.1040  158.0019 C   0  0  0  0  0  0  0  0  0  0  0  0
  149.7762  138.4548  158.1369 C   0  0  0  0  0  0  0  0  0  0  0  0
  154.3631  140.0023  160.6084 H   0  0  0  0  0  0  0  0  0  0  0  0
  153.9517  141.5264  161.3849 H   0  0  0  0  0  0  0  0  0  0  0  0
  154.9626  141.5056  159.9192 H   0  0  0  0  0  0  0  0  0  0  0  0
  154.0327  143.5803  160.1253 H   0  0  0  0  0  0  0  0  0  0  0  0
  153.0623  145.7168  159.4229 H   0  0  0  0  0  0  0  0  0  0  0  0
  150.9398  145.7738  158.1313 H   0  0  0  0  0  0  0  0  0  0  0  0
  149.7892  143.6857  157.5438 H   0  0  0  0  0  0  0  0  0  0  0  0
  151.0876  140.3230  158.5753 H   0  0  0  0  0  0  0  0  0  0  0  0
  147.3613  139.8738  156.1757 H   0  0  0  0  0  0  0  0  0  0  0  0
  146.7057  137.5131  155.9396 H   0  0  0  0  0  0  0  0  0  0  0  0
  147.0444  135.3049  156.4075 H   0  0  0  0  0  0  0  0  0  0  0  0
  147.8378  132.2120  157.8678 H   0  0  0  0  0  0  0  0  0  0  0  0
  146.5007  133.1750  157.3791 H   0  0  0  0  0  0  0  0  0  0  0  0
  148.2350  131.3856  152.1388 H   0  0  0  0  0  0  0  0  0  0  0  0
  145.3606  133.7019  152.9116 H   0  0  0  0  0  0  0  0  0  0  0  0
  145.7454  130.8425  152.1330 H   0  0  0  0  0  0  0  0  0  0  0  0
  144.2271  131.7630  152.1126 H   0  0  0  0  0  0  0  0  0  0  0  0
  145.4769  131.0332  149.7615 H   0  0  0  0  0  0  0  0  0  0  0  0
  144.6636  132.5960  149.9182 H   0  0  0  0  0  0  0  0  0  0  0  0
  147.6236  132.0346  150.4112 H   0  0  0  0  0  0  0  0  0  0  0  0
  146.9346  133.2459  149.3212 H   0  0  0  0  0  0  0  0  0  0  0  0
  149.9640  136.3620  158.5457 H   0  0  0  0  0  0  0  0  0  0  0  0
  150.6170  138.6989  158.7702 H   0  0  0  0  0  0  0  0  0  0  0  0
  1  2  1  0  0  0  0
  1 36  1  0  0  0  0
  1 37  1  0  0  0  0
  1 38  1  0  0  0  0
  2  3  1  0  0  0  0
  3  8  1  0  0  0  0
  3  4  2  0  0  0  0
  4  5  1  0  0  0  0
  4 39  1  0  0  0  0
  5  6  2  0  0  0  0
  5 40  1  0  0  0  0
  6  7  1  0  0  0  0
  6 41  1  0  0  0  0
  7  8  2  0  0  0  0
  7 42  1  0  0  0  0
  8  9  1  0  0  0  0
  9 10  1  0  0  0  0
  9 43  1  0  0  0  0
 10 11  2  0  0  0  0
 10 12  1  0  0  0  0
 12 35  1  0  0  0  0
 12 13  2  0  0  0  0
 13 14  1  0  0  0  0
 13 44  1  0  0  0  0
 14 15  2  0  0  0  0
 14 45  1  0  0  0  0
 15 16  1  0  0  0  0
 15 34  1  0  0  0  0
 16 17  1  0  0  0  0
 16 46  1  0  0  0  0
 17 18  2  0  0  0  0
 17 19  1  0  0  0  0
 19 20  1  0  0  0  0
 19 47  1  0  0  0  0
 19 48  1  0  0  0  0
 20 32  1  0  0  0  0
 20 21  1  0  0  0  0
 21 22  2  0  0  0  0
 21 23  1  0  0  0  0
 23 24  1  0  0  0  0
 23 25  2  0  0  0  0
 25 26  1  0  0  0  0
 25 49  1  0  0  0  0
 26 27  1  0  0  0  0
 26 32  1  0  0  0  0
 27 31  1  0  0  0  0
 27 28  1  0  0  0  0
 27 50  1  0  0  0  0
 28 29  1  0  0  0  0
 28 51  1  0  0  0  0
 28 52  1  0  0  0  0
 29 30  1  0  0  0  0
 29 53  1  0  0  0  0
 29 54  1  0  0  0  0
 30 31  1  0  0  0  0
 30 55  1  0  0  0  0
 30 56  1  0  0  0  0
 32 33  2  0  0  0  0
 34 35  2  0  0  0  0
 34 57  1  0  0  0  0
 35 58  1  0  0  0  0
M  END
> <s_m_source_file>
AV-unprocessed.smi

> <i_m_source_file_index>
129

> <i_lp_mmshare_version>
43012

> <i_f3d_flags>
0

> <s_epik_input>
W0NIM11PYzFbY0hdW2NIXVtjSF1bY0hdYzFbTkhdQyg9TyljMltjSF1bY0hdYyhbY0hdW2NIXTIpW05IXUMoPU8pW0NIMl1uM2MoPU8pYyhGKVtjSF1uKGMzPU8pW0NAQEhdNFtDSDJdW0NIMl1bQ0gyXU80

> <s_epik_cmdline>
J2VwaWtfcHl0aG9uJywgJy1waCcsICc3LjAnLCAnLXRuJywgJzgnLCAnLW1hJywgJzIwMCcsICctbWV0YWxfYmluZGluZycsICctaW1hZScsICc8aW5maWxlLm1hZT4nLCAnLW9tYWUnLCAnPG91dGZpbGUubWFlPic=

> <r_lp_tautomer_probability>
1

> <r_epik_Ionization_Penalty>
2.57954e-06

> <r_epik_Ionization_Penalty_Charging>
3.88729e-08

> <r_epik_Ionization_Penalty_Neutral>
2.54066e-06

> <r_epik_State_Penalty>
-0

> <r_epik_Charging_Adjusted_Penalty>
3.88729e-08

> <i_epik_Tot_Q>
0

> <i_epik_Tot_abs_Q>
0

> <r_epik_Metal_State_Penalty>
-0

> <b_epik_Metal_Only>
0

> <s_epik_Chemistry_Notes>
This compound contains an acetal/aminal-like group ( X-CH(R)-Y where X, Y are N, S, or O) that may be acid/base labile, releasing an aldehyde.

> <s_lp_Force_Field>
OPLS_2005

> <r_lp_Energy>
50.6218

> <b_lp_Chiralities_Consistent>
1

> <s_lp_Variant>
AV-unprocessed.smi:129-1

> <Gold.Version>
5.8.1

> <Gold.Id.Protein>
6NUR|6NUR_protein|mol2

> <Gold.PLP.Fitness>
48.9263

> <Gold.PLP.PLP>
-44.1574

> <Gold.PLP.part.hbond>
-1.0000

> <Gold.PLP.part.metal>
0.0000

> <Gold.PLP.part.buried>
-7.8166

> <Gold.PLP.part.nonpolar>
-34.2890

> <Gold.PLP.part.repulsive>
0.5668

> <Gold.PLP.ligand.clash>
0.0000

> <Gold.PLP.ligand.torsion>
0.6581

> <Gold.PLP.Chemscore.Hbond>
1.0000

> <Gold.PLP.Chemscore.CHOScore>
1.0000

> <Gold.PLP.Chemscore.Metal>
0.0000

> <Gold.Chemscore.Hbonds>
donor molecule, donor type, donor heavy atom, donor atom, acceptor molecule, acceptor atom, score
      P1  H  6896  6909       L1    18  1.00
      L1  C    25    49       P1 10747  1.00

> <Gold.PLP.Chemscore.Internal.Correction>
0.0851

> <Gold.Rescore>
     Score         DG    S(hbond)    S(metal)    S(lipo)     H(rot)  DE(clash)    DE(int)     intcor
     14.76     -18.21       0.99        0.00     123.08       1.94       0.13       3.31       ----

> <Gold.Chemscore.Fitness>
14.7644

> <Gold.Chemscore.DG>
-18.2107

> <Gold.Chemscore.ZeroCoef>
-5.4800

> <Gold.Chemscore.Hbond>
0.9893

> <Gold.Chemscore.Metal>
0.0000

> <Gold.Chemscore.Lipo>
123.0808

> <Gold.Chemscore.Internal_Hbond>
0.0000

> <Gold.Chemscore.DEClash>
0.1324

> <Gold.Chemscore.DEInternal>
3.3139

> <Gold.Chemscore.Rot>
1.9430

> <Gold.Chemscore.Internal.Correction>
   9.000000E+99

> <Gold.Chemscore.Hbonds>
donor molecule, donor type, donor heavy atom, donor atom, acceptor molecule, acceptor atom, score
      P1  H  6896  6909       L1    18  1.00

> <Gold.Chemscore.Hbond.Weighted>
-3.3044

> <Gold.Chemscore.Metal.Weighted>
-0.0000

> <Gold.Chemscore.Lipo.Weighted>
-14.4005

> <Gold.Chemscore.Internal_Hbond.Weighted>
0.0000

> <Gold.Chemscore.DEClash.Weighted>
0.1324

> <Gold.Chemscore.DEInternal.Weighted>
3.3139

> <Gold.Chemscore.Rot.Weighted>
4.9741

> <Gold.Chemscore.Internal.Correction.Weighted>
   9.000000E+99

> <Gold.Protein.RotatedTorsions>
[ 6907 6896 6895 6894 ] final   18.33 input  -60.11 | X-H torsion
[ 7974 7965 7964 7962 ] final  -49.43 input  175.53 | X-H torsion
[ 8008 7997 7996 7995 ] final   43.85 input   59.86 | X-H torsion
[ 10167 10162 10161 10158 ] final  129.78 input  -65.29 | X-H torsion
[ 10718 10713 10712 10709 ] final   75.94 input   66.30 | X-H torsion
[ 10763 10752 10751 10750 ] final  -84.75 input  -60.55 | X-H torsion
[ 11005 11000 10999 10996 ] final -135.79 input  -57.11 | X-H torsion

> <Gold.Protein.ActiveResidues>
 VAL166  LYS551  ARG553  GLY616  TRP617  ASP618  TYR619  PRO620  LYS621  CYS622 
 ASP623  PHE694  ASN695  SER759  ASP760  ASP761  ALA762  ILE779  LEU786  VAL792 
 PHE793  MET794  SER795  GLU796  ALA797  LYS798  CYS799  TRP800  GLU811  SER814 

> <Gold.Protein.RotatedAtoms>
  151.8635  135.0515  160.0471 H   0  0  0  0  0  0  0  0  0  0  0  0  # atno 6907 bound_to 6896
  152.2644  133.5321  159.5409 H   0  0  0  0  0  0  0  0  0  0  0  0  # atno 6908 bound_to 6896
  150.7128  134.0701  159.3904 H   0  0  0  0  0  0  0  0  0  0  0  0  # atno 6909 bound_to 6896
  145.9406  140.7665  142.9554 H   0  0  0  0  0  0  0  0  0  0  0  0  # atno 7974 bound_to 7965
  155.3095  140.3390  155.4244 H   0  0  0  0  0  0  0  0  0  0  0  0  # atno 8008 bound_to 7997
  156.1962  140.1716  156.8031 H   0  0  0  0  0  0  0  0  0  0  0  0  # atno 8009 bound_to 7997
  154.5502  140.0707  156.8639 H   0  0  0  0  0  0  0  0  0  0  0  0  # atno 8010 bound_to 7997
  139.5461  144.6774  151.4469 H   0  0  0  0  0  0  0  0  0  0  0  0  # atno 10167 bound_to 10162
  157.6654  130.9750  150.1425 H   0  0  0  0  0  0  0  0  0  0  0  0  # atno 10718 bound_to 10713
  154.6032  135.5509  153.7395 H   0  0  0  0  0  0  0  0  0  0  0  0  # atno 10763 bound_to 10752
  153.0163  135.6371  154.1685 H   0  0  0  0  0  0  0  0  0  0  0  0  # atno 10764 bound_to 10752
  154.1624  135.2896  155.3085 H   0  0  0  0  0  0  0  0  0  0  0  0  # atno 10765 bound_to 10752
  140.8865  134.1866  157.4556 H   0  0  0  0  0  0  0  0  0  0  0  0  # atno 11005 bound_to 11000
  144.6778  140.2274  143.7359 LP  0  0  0  0  0  0  0  0  0  0  0  0  # atno 17320 bound_to 7965
  145.8305  139.2083  143.1886 LP  0  0  0  0  0  0  0  0  0  0  0  0  # atno 17321 bound_to 7965
  140.6709  143.8295  150.6998 LP  0  0  0  0  0  0  0  0  0  0  0  0  # atno 17342 bound_to 10162
  140.1719  143.4187  152.1995 LP  0  0  0  0  0  0  0  0  0  0  0  0  # atno 17343 bound_to 10162
  156.2244  130.3676  149.8518 LP  0  0  0  0  0  0  0  0  0  0  0  0  # atno 17370 bound_to 10713
  156.6362  130.8686  151.3505 LP  0  0  0  0  0  0  0  0  0  0  0  0  # atno 17371 bound_to 10713
  139.8725  134.9840  156.5221 LP  0  0  0  0  0  0  0  0  0  0  0  0  # atno 17394 bound_to 11000
  140.8399  133.8213  155.9064 LP  0  0  0  0  0  0  0  0  0  0  0  0  # atno 17395 bound_to 11000

$$$$
