AV-unprocessed.smi:2604|AV-procd|sdf|10190|dock6
  -GOLD-   2272014203D 1   1.00000     0.00000
 Structure written by MMmdl.
 26 27  0  0  0  0  0  0  0  0  2 V2000
  152.2428  143.7875  160.4239 C   0  0  0  0  0  0  0  0  0  0  0  0
  151.9447  145.1421  160.1766 C   0  0  0  0  0  0  0  0  0  0  0  0
  151.4857  145.5945  158.9900 N   0  0  0  0  0  0  0  0  0  0  0  0
  151.3020  144.6967  157.9986 C   0  0  0  0  0  0  0  0  0  0  0  0
  151.5626  143.3161  158.1397 C   0  0  0  0  0  0  0  0  0  0  0  0
  151.3422  142.3682  156.9721 C   0  0  1  0  0  0  0  0  0  0  0  0
  151.7758  140.9289  157.3327 C   0  0  0  0  0  0  0  0  0  0  0  0
  151.5957  140.0285  156.1757 N   0  3  0  0  0  0  0  0  0  0  0  0
  150.2065  140.0726  155.6788 C   0  0  0  0  0  0  0  0  0  0  0  0
  149.8143  141.5227  155.3423 C   0  0  0  0  0  0  0  0  0  0  0  0
  149.9470  142.3587  156.5314 N   0  0  0  0  0  0  0  0  0  0  0  0
  152.0491  142.8580  159.3842 C   0  0  0  0  0  0  0  0  0  0  0  0
  152.6115  143.4704  161.3882 H   0  0  0  0  0  0  0  0  0  0  0  0
  152.0806  145.8817  160.9517 H   0  0  0  0  0  0  0  0  0  0  0  0
  150.9362  145.0944  157.0633 H   0  0  0  0  0  0  0  0  0  0  0  0
  151.9521  142.7265  156.1409 H   0  0  0  0  0  0  0  0  0  0  0  0
  152.8255  140.9107  157.6273 H   0  0  0  0  0  0  0  0  0  0  0  0
  151.2000  140.5486  158.1778 H   0  0  0  0  0  0  0  0  0  0  0  0
  152.2143  140.3250  155.4346 H   0  0  0  0  0  0  0  0  0  0  0  0
  150.1243  139.4413  154.7937 H   0  0  0  0  0  0  0  0  0  0  0  0
  149.5352  139.6577  156.4322 H   0  0  0  0  0  0  0  0  0  0  0  0
  150.4346  141.9181  154.5366 H   0  0  0  0  0  0  0  0  0  0  0  0
  148.7806  141.5605  154.9982 H   0  0  0  0  0  0  0  0  0  0  0  0
  149.6526  143.3020  156.3189 H   0  0  0  0  0  0  0  0  0  0  0  0
  152.2725  141.8130  159.5424 H   0  0  0  0  0  0  0  0  0  0  0  0
  151.8284  139.0833  156.4447 H   0  0  0  0  0  0  0  0  0  0  0  0
  1 12  1  0  0  0  0
  1  2  2  0  0  0  0
  1 13  1  0  0  0  0
  2  3  1  0  0  0  0
  2 14  1  0  0  0  0
  3  4  2  0  0  0  0
  4  5  1  0  0  0  0
  4 15  1  0  0  0  0
  5  6  1  0  0  0  0
  5 12  2  0  0  0  0
  6 11  1  0  0  0  0
  6  7  1  0  0  0  0
  6 16  1  0  0  0  0
  7  8  1  0  0  0  0
  7 17  1  0  0  0  0
  7 18  1  0  0  0  0
  8  9  1  0  0  0  0
  8 19  1  0  0  0  0
  8 26  1  0  0  0  0
  9 10  1  0  0  0  0
  9 20  1  0  0  0  0
  9 21  1  0  0  0  0
 10 11  1  0  0  0  0
 10 22  1  0  0  0  0
 10 23  1  0  0  0  0
 11 24  1  0  0  0  0
 12 25  1  0  0  0  0
M  CHG  1   8   1
M  END
> <s_m_source_file>
AV-unprocessed.smi

> <i_m_source_file_index>
2604

> <i_lp_mmshare_version>
43012

> <i_f3d_flags>
0

> <s_epik_input>
W2NIXTFbY0hdW2NIXW5bY0hdYzFbQ0BASF0yW0NIMl1bTkhdW0NIMl1bQ0gyXVtOSF0y

> <s_epik_cmdline>
J2VwaWtfcHl0aG9uJywgJy1waCcsICc3LjAnLCAnLXRuJywgJzgnLCAnLW1hJywgJzIwMCcsICctbWV0YWxfYmluZGluZycsICctaW1hZScsICc8aW5maWxlLm1hZT4nLCAnLW9tYWUnLCAnPG91dGZpbGUubWFlPic=

> <r_epik_Ionization_Penalty>
0.0181456

> <r_epik_Ionization_Penalty_Charging>
0.010317

> <r_epik_Ionization_Penalty_Neutral>
0.00782861

> <r_epik_State_Penalty>
0.306622

> <r_epik_Charging_Adjusted_Penalty>
0.316939

> <i_epik_Tot_Q>
1

> <i_epik_Tot_abs_Q>
1

> <r_epik_Metal_State_Penalty>
0.302658

> <b_epik_Metal_Only>
0

> <s_lp_Force_Field>
OPLS_2005

> <r_lp_Energy>
10.6943

> <b_lp_Chiralities_Consistent>
1

> <s_lp_Variant>
AV-unprocessed.smi:2604-2

> <Gold.Version>
5.8.1

> <Gold.Id.Protein>
6NUR|6NUR_protein|mol2

> <Gold.PLP.Fitness>
34.4182

> <Gold.PLP.PLP>
-28.4294

> <Gold.PLP.part.hbond>
-2.0000

> <Gold.PLP.part.metal>
0.0000

> <Gold.PLP.part.buried>
-4.6396

> <Gold.PLP.part.nonpolar>
-21.7361

> <Gold.PLP.part.repulsive>
0.2767

> <Gold.PLP.ligand.clash>
0.0000

> <Gold.PLP.ligand.torsion>
0.0096

> <Gold.PLP.Chemscore.Hbond>
1.0000

> <Gold.PLP.Chemscore.CHOScore>
1.0000

> <Gold.PLP.Chemscore.Metal>
0.0000

> <Gold.Chemscore.Hbonds>
donor molecule, donor type, donor heavy atom, donor atom, acceptor molecule, acceptor atom, score
      L1  H    11    24       P1  8028  1.00
      L1  C     4    15       P1  8028  1.00

> <Gold.PLP.Chemscore.Internal.Correction>
0.0081

> <Gold.Rescore>
     Score         DG    S(hbond)    S(metal)    S(lipo)     H(rot)  DE(clash)    DE(int)     intcor
     16.22     -16.31       0.99        0.00      86.15       1.00       0.01       0.08       ----

> <Gold.Chemscore.Fitness>
16.2174

> <Gold.Chemscore.DG>
-16.3086

> <Gold.Chemscore.ZeroCoef>
-5.4800

> <Gold.Chemscore.Hbond>
0.9907

> <Gold.Chemscore.Metal>
0.0000

> <Gold.Chemscore.Lipo>
86.1509

> <Gold.Chemscore.Internal_Hbond>
0.0000

> <Gold.Chemscore.DEClash>
0.0126

> <Gold.Chemscore.DEInternal>
0.0786

> <Gold.Chemscore.Rot>
1.0000

> <Gold.Chemscore.Internal.Correction>
   9.000000E+99

> <Gold.Chemscore.Hbonds>
donor molecule, donor type, donor heavy atom, donor atom, acceptor molecule, acceptor atom, score
      L1  H    11    24       P1  8028  1.00

> <Gold.Chemscore.Hbond.Weighted>
-3.3090

> <Gold.Chemscore.Metal.Weighted>
-0.0000

> <Gold.Chemscore.Lipo.Weighted>
-10.0797

> <Gold.Chemscore.Internal_Hbond.Weighted>
0.0000

> <Gold.Chemscore.DEClash.Weighted>
0.0126

> <Gold.Chemscore.DEInternal.Weighted>
0.0786

> <Gold.Chemscore.Rot.Weighted>
2.5600

> <Gold.Chemscore.Internal.Correction.Weighted>
   9.000000E+99

> <Gold.Protein.RotatedTorsions>
[ 6907 6896 6895 6894 ] final  158.12 input  -60.11 | X-H torsion
[ 7974 7965 7964 7962 ] final   14.74 input  175.53 | X-H torsion
[ 8008 7997 7996 7995 ] final  119.56 input   59.86 | X-H torsion
[ 10167 10162 10161 10158 ] final  161.39 input  -65.29 | X-H torsion
[ 10718 10713 10712 10709 ] final   45.73 input   66.30 | X-H torsion
[ 10763 10752 10751 10750 ] final  167.00 input  -60.55 | X-H torsion
[ 11005 11000 10999 10996 ] final  -72.60 input  -57.11 | X-H torsion

> <Gold.Protein.ActiveResidues>
 VAL166  LYS551  ARG553  GLY616  TRP617  ASP618  TYR619  PRO620  LYS621  CYS622 
 ASP623  PHE694  ASN695  SER759  ASP760  ASP761  ALA762  ILE779  LEU786  VAL792 
 PHE793  MET794  SER795  GLU796  ALA797  LYS798  CYS799  TRP800  GLU811  SER814 

> <Gold.Protein.RotatedAtoms>
  152.0051  133.3840  159.4196 H   0  0  0  0  0  0  0  0  0  0  0  0  # atno 6907 bound_to 6896
  150.6905  134.3792  159.5035 H   0  0  0  0  0  0  0  0  0  0  0  0  # atno 6908 bound_to 6896
  152.1544  134.8962  160.0596 H   0  0  0  0  0  0  0  0  0  0  0  0  # atno 6909 bound_to 6896
  146.2297  139.8997  142.8541 H   0  0  0  0  0  0  0  0  0  0  0  0  # atno 7974 bound_to 7965
  156.2602  140.2850  156.1011 H   0  0  0  0  0  0  0  0  0  0  0  0  # atno 8008 bound_to 7997
  155.1359  140.0394  157.2804 H   0  0  0  0  0  0  0  0  0  0  0  0  # atno 8009 bound_to 7997
  154.6565  140.2557  155.7161 H   0  0  0  0  0  0  0  0  0  0  0  0  # atno 8010 bound_to 7997
  139.4849  144.4541  151.8791 H   0  0  0  0  0  0  0  0  0  0  0  0  # atno 10167 bound_to 10162
  157.4407  130.8079  149.7691 H   0  0  0  0  0  0  0  0  0  0  0  0  # atno 10718 bound_to 10713
  154.3473  135.2753  155.2390 H   0  0  0  0  0  0  0  0  0  0  0  0  # atno 10763 bound_to 10752
  154.4635  135.5901  153.6275 H   0  0  0  0  0  0  0  0  0  0  0  0  # atno 10764 bound_to 10752
  152.9852  135.6071  154.3680 H   0  0  0  0  0  0  0  0  0  0  0  0  # atno 10765 bound_to 10752
  141.1611  133.6852  156.7084 H   0  0  0  0  0  0  0  0  0  0  0  0  # atno 11005 bound_to 11000
  145.2335  140.9982  143.3977 LP  0  0  0  0  0  0  0  0  0  0  0  0  # atno 17320 bound_to 7965
  144.9510  139.4083  143.6402 LP  0  0  0  0  0  0  0  0  0  0  0  0  # atno 17321 bound_to 7965
  140.4000  144.2506  150.5893 LP  0  0  0  0  0  0  0  0  0  0  0  0  # atno 17342 bound_to 10162
  140.5066  143.2302  151.8598 LP  0  0  0  0  0  0  0  0  0  0  0  0  # atno 17343 bound_to 10162
  155.9947  130.3916  150.2846 LP  0  0  0  0  0  0  0  0  0  0  0  0  # atno 17370 bound_to 10713
  157.1011  131.0196  151.3085 LP  0  0  0  0  0  0  0  0  0  0  0  0  # atno 17371 bound_to 10713
  140.2905  134.8244  157.4013 LP  0  0  0  0  0  0  0  0  0  0  0  0  # atno 17394 bound_to 11000
  140.1351  134.5045  155.8075 LP  0  0  0  0  0  0  0  0  0  0  0  0  # atno 17395 bound_to 11000

$$$$
