AV-unprocessed.smi:1381|AV-procd|sdf|5605|dock5
  -GOLD-   22720 5213D 1   1.00000     0.00000
 Structure written by MMmdl.
 43 44  0  0  0  0  0  0  0  0  2 V2000
  152.9661  136.9439  156.8218 C   0  0  0  0  0  0  0  0  0  0  0  0
  152.0938  137.7564  155.9275 C   0  0  0  0  0  0  0  0  0  0  0  0
  150.9308  137.4839  155.2635 C   0  0  0  0  0  0  0  0  0  0  0  0
  150.6491  138.7062  154.5977 C   0  0  0  0  0  0  0  0  0  0  0  0
  149.4972  138.8418  153.7812 N   0  0  0  0  0  0  0  0  0  0  0  0
  148.2392  138.4710  154.0742 C   0  0  0  0  0  0  0  0  0  0  0  0
  147.8805  137.9444  155.1281 O   0  0  0  0  0  0  0  0  0  0  0  0
  147.3996  138.7442  153.0650 N   0  0  0  0  0  0  0  0  0  0  0  0
  145.9672  138.4709  153.0797 C   0  0  0  0  0  0  0  0  0  0  0  0
  145.5324  137.6635  151.8414 C   0  0  0  0  0  0  0  0  0  0  0  0
  145.7171  136.2023  152.0247 N   0  3  1  0  0  0  0  0  0  0  0  0
  145.3928  135.7611  153.4020 C   0  0  0  0  0  0  0  0  0  0  0  0
  145.6548  134.2518  153.5633 C   0  0  1  0  0  0  0  0  0  0  0  0
  145.2602  133.7418  154.9537 C   0  0  0  0  0  0  0  0  0  0  0  0
  144.8896  133.5423  152.5954 O   0  0  0  0  0  0  0  0  0  0  0  0
  145.2435  133.8844  151.2599 C   0  0  1  0  0  0  0  0  0  0  0  0
  144.4279  133.0020  150.3086 C   0  0  0  0  0  0  0  0  0  0  0  0
  144.9739  135.3843  151.0345 C   0  0  0  0  0  0  0  0  0  0  0  0
  151.5564  139.6409  154.8351 N   0  0  0  0  0  0  0  0  0  0  0  0
  152.4876  139.0365  155.6879 O   0  0  0  0  0  0  0  0  0  0  0  0
  152.4944  135.9919  157.0658 H   0  0  0  0  0  0  0  0  0  0  0  0
  153.1630  137.4723  157.7547 H   0  0  0  0  0  0  0  0  0  0  0  0
  153.9221  136.7344  156.3421 H   0  0  0  0  0  0  0  0  0  0  0  0
  150.3751  136.5581  155.2567 H   0  0  0  0  0  0  0  0  0  0  0  0
  149.6487  139.2682  152.8792 H   0  0  0  0  0  0  0  0  0  0  0  0
  147.7748  139.1792  152.2345 H   0  0  0  0  0  0  0  0  0  0  0  0
  145.7144  137.9530  154.0052 H   0  0  0  0  0  0  0  0  0  0  0  0
  145.4403  139.4250  153.1043 H   0  0  0  0  0  0  0  0  0  0  0  0
  144.4770  137.8709  151.6576 H   0  0  0  0  0  0  0  0  0  0  0  0
  146.0688  137.9886  150.9488 H   0  0  0  0  0  0  0  0  0  0  0  0
  145.9994  136.3163  154.1187 H   0  0  0  0  0  0  0  0  0  0  0  0
  144.3482  135.9896  153.6207 H   0  0  0  0  0  0  0  0  0  0  0  0
  146.7145  134.0433  153.4058 H   0  0  0  0  0  0  0  0  0  0  0  0
  145.8271  134.2499  155.7343 H   0  0  0  0  0  0  0  0  0  0  0  0
  145.4538  132.6728  155.0461 H   0  0  0  0  0  0  0  0  0  0  0  0
  144.2000  133.9058  155.1495 H   0  0  0  0  0  0  0  0  0  0  0  0
  146.3032  133.6741  151.1044 H   0  0  0  0  0  0  0  0  0  0  0  0
  144.6720  133.2165  149.2679 H   0  0  0  0  0  0  0  0  0  0  0  0
  143.3574  133.1619  150.4411 H   0  0  0  0  0  0  0  0  0  0  0  0
  144.6311  131.9457  150.4864 H   0  0  0  0  0  0  0  0  0  0  0  0
  143.9057  135.5909  151.1204 H   0  0  0  0  0  0  0  0  0  0  0  0
  145.2692  135.6537  150.0212 H   0  0  0  0  0  0  0  0  0  0  0  0
  146.7001  136.0138  151.8899 H   0  0  0  0  0  0  0  0  0  0  0  0
  1  2  1  0  0  0  0
  1 21  1  0  0  0  0
  1 22  1  0  0  0  0
  1 23  1  0  0  0  0
  2 20  1  0  0  0  0
  2  3  2  0  0  0  0
  3  4  1  0  0  0  0
  3 24  1  0  0  0  0
  4  5  1  0  0  0  0
  4 19  2  0  0  0  0
  5  6  1  0  0  0  0
  5 25  1  0  0  0  0
  6  7  2  0  0  0  0
  6  8  1  0  0  0  0
  8  9  1  0  0  0  0
  8 26  1  0  0  0  0
  9 10  1  0  0  0  0
  9 27  1  0  0  0  0
  9 28  1  0  0  0  0
 10 11  1  0  0  0  0
 10 29  1  0  0  0  0
 10 30  1  0  0  0  0
 11 18  1  0  0  0  0
 11 12  1  0  0  0  0
 11 43  1  0  0  0  0
 12 13  1  0  0  0  0
 12 31  1  0  0  0  0
 12 32  1  0  0  0  0
 13 14  1  0  0  0  0
 13 15  1  0  0  0  0
 13 33  1  0  0  0  0
 14 34  1  0  0  0  0
 14 35  1  0  0  0  0
 14 36  1  0  0  0  0
 15 16  1  0  0  0  0
 16 17  1  0  0  0  0
 16 18  1  0  0  0  0
 16 37  1  0  0  0  0
 17 38  1  0  0  0  0
 17 39  1  0  0  0  0
 17 40  1  0  0  0  0
 18 41  1  0  0  0  0
 18 42  1  0  0  0  0
 19 20  1  0  0  0  0
M  CHG  1  11   1
M  END
> <s_m_source_file>
AV-unprocessed.smi

> <i_m_source_file_index>
1381

> <i_lp_mmshare_version>
43012

> <i_f3d_flags>
0

> <s_epik_input>
W0NIM11jMVtjSF1jKG5vMSlbTkhdQyg9TylbTkhdW0NIMl1bQ0gyXU4yW0NIMl1bQ0BASF0oW0NIM10pT1tDQEBIXShbQ0gzXSlbQ0gyXTI=

> <s_epik_cmdline>
J2VwaWtfcHl0aG9uJywgJy1waCcsICc3LjAnLCAnLXRuJywgJzgnLCAnLW1hJywgJzIwMCcsICctbWV0YWxfYmluZGluZycsICctaW1hZScsICc8aW5maWxlLm1hZT4nLCAnLW9tYWUnLCAnPG91dGZpbGUubWFlPic=

> <r_epik_Ionization_Penalty>
0.707076

> <r_epik_Ionization_Penalty_Charging>
0.707039

> <r_epik_Ionization_Penalty_Neutral>
3.6548e-05

> <r_epik_State_Penalty>
0.730276

> <r_epik_Charging_Adjusted_Penalty>
1.43732

> <i_epik_Tot_Q>
1

> <i_epik_Tot_abs_Q>
1

> <r_epik_Metal_State_Penalty>
0.743132

> <b_epik_Metal_Only>
0

> <s_lp_Force_Field>
OPLS_2005

> <r_lp_Energy>
11.2606

> <b_lp_Chiralities_Consistent>
1

> <s_lp_Variant>
AV-unprocessed.smi:1381-4

> <Gold.Version>
5.8.1

> <Gold.Id.Protein>
6NUR|6NUR_protein|mol2

> <Gold.PLP.Fitness>
46.2446

> <Gold.PLP.PLP>
-30.1137

> <Gold.PLP.part.hbond>
-6.0000

> <Gold.PLP.part.metal>
0.0000

> <Gold.PLP.part.buried>
-2.4931

> <Gold.PLP.part.nonpolar>
-22.4558

> <Gold.PLP.part.repulsive>
0.4566

> <Gold.PLP.ligand.clash>
0.0000

> <Gold.PLP.ligand.torsion>
0.7420

> <Gold.PLP.Chemscore.Hbond>
5.8664

> <Gold.PLP.Chemscore.CHOScore>
0.0000

> <Gold.PLP.Chemscore.Metal>
0.0000

> <Gold.Chemscore.Hbonds>
donor molecule, donor type, donor heavy atom, donor atom, acceptor molecule, acceptor atom, score
      L1  H     5    25       P1  7957  1.00
      L1  H     8    26       P1  7957  0.40
      L1  H    11    43       P1  7948  0.98
      P1  H  7989  7998       L1    19  1.00
      P1  H  7997  8009       L1    20  0.50

> <Gold.PLP.Chemscore.Internal.Correction>
0.0158

> <Gold.Rescore>
     Score         DG    S(hbond)    S(metal)    S(lipo)     H(rot)  DE(clash)    DE(int)     intcor
     21.00     -22.95       4.49        0.00      56.25       1.61       0.54       1.41       ----

> <Gold.Chemscore.Fitness>
21.0007

> <Gold.Chemscore.DG>
-22.9496

> <Gold.Chemscore.ZeroCoef>
-5.4800

> <Gold.Chemscore.Hbond>
4.4924

> <Gold.Chemscore.Metal>
0.0000

> <Gold.Chemscore.Lipo>
56.2538

> <Gold.Chemscore.Internal_Hbond>
0.0000

> <Gold.Chemscore.DEClash>
0.5436

> <Gold.Chemscore.DEInternal>
1.4052

> <Gold.Chemscore.Rot>
1.6081

> <Gold.Chemscore.Internal.Correction>
   9.000000E+99

> <Gold.Chemscore.Hbonds>
donor molecule, donor type, donor heavy atom, donor atom, acceptor molecule, acceptor atom, score
      L1  H     5    25       P1  7957  0.99
      L1  H     8    26       P1  7957  0.39
      L1  H    11    43       P1  7948  0.48
      P1  H  7989  7998       L1    19  0.82
      P1  H  7997  8009       L1    20  0.47

> <Gold.Chemscore.Hbond.Weighted>
-15.0046

> <Gold.Chemscore.Metal.Weighted>
-0.0000

> <Gold.Chemscore.Lipo.Weighted>
-6.5817

> <Gold.Chemscore.Internal_Hbond.Weighted>
0.0000

> <Gold.Chemscore.DEClash.Weighted>
0.5436

> <Gold.Chemscore.DEInternal.Weighted>
1.4052

> <Gold.Chemscore.Rot.Weighted>
4.1167

> <Gold.Chemscore.Internal.Correction.Weighted>
   9.000000E+99

> <Gold.Protein.RotatedTorsions>
[ 6907 6896 6895 6894 ] final -168.46 input  -60.11 | X-H torsion
[ 7974 7965 7964 7962 ] final   21.15 input  175.53 | X-H torsion
[ 8008 7997 7996 7995 ] final -147.13 input   59.86 | X-H torsion
[ 10167 10162 10161 10158 ] final -151.46 input  -65.29 | X-H torsion
[ 10718 10713 10712 10709 ] final -138.20 input   66.30 | X-H torsion
[ 10763 10752 10751 10750 ] final  118.39 input  -60.55 | X-H torsion
[ 11005 11000 10999 10996 ] final   17.87 input  -57.11 | X-H torsion

> <Gold.Protein.ActiveResidues>
 VAL166  LYS551  ARG553  GLY616  TRP617  ASP618  TYR619  PRO620  LYS621  CYS622 
 ASP623  PHE694  ASN695  SER759  ASP760  ASP761  ALA762  ILE779  LEU786  VAL792 
 PHE793  MET794  SER795  GLU796  ALA797  LYS798  CYS799  TRP800  GLU811  SER814 

> <Gold.Protein.RotatedAtoms>
  151.4759  133.3558  159.2830 H   0  0  0  0  0  0  0  0  0  0  0  0  # atno 6907 bound_to 6896
  150.8929  134.8337  159.7317 H   0  0  0  0  0  0  0  0  0  0  0  0  # atno 6908 bound_to 6896
  152.4834  134.4671  159.9675 H   0  0  0  0  0  0  0  0  0  0  0  0  # atno 6909 bound_to 6896
  146.2083  139.8067  142.8709 H   0  0  0  0  0  0  0  0  0  0  0  0  # atno 7974 bound_to 7965
  155.5705  140.0634  157.2807 H   0  0  0  0  0  0  0  0  0  0  0  0  # atno 8008 bound_to 7997
  154.4362  140.1869  156.0920 H   0  0  0  0  0  0  0  0  0  0  0  0  # atno 8009 bound_to 7997
  156.0379  140.3299  155.7215 H   0  0  0  0  0  0  0  0  0  0  0  0  # atno 8010 bound_to 7997
  139.7265  143.8875  152.2521 H   0  0  0  0  0  0  0  0  0  0  0  0  # atno 10167 bound_to 10162
  156.2967  130.7406  151.1446 H   0  0  0  0  0  0  0  0  0  0  0  0  # atno 10718 bound_to 10713
  153.5669  135.3510  155.2822 H   0  0  0  0  0  0  0  0  0  0  0  0  # atno 10763 bound_to 10752
  154.8687  135.4150  154.2768 H   0  0  0  0  0  0  0  0  0  0  0  0  # atno 10764 bound_to 10752
  153.3526  135.7056  153.6846 H   0  0  0  0  0  0  0  0  0  0  0  0  # atno 10765 bound_to 10752
  140.4312  134.1418  155.7681 H   0  0  0  0  0  0  0  0  0  0  0  0  # atno 11005 bound_to 11000
  145.3239  141.0250  143.3485 LP  0  0  0  0  0  0  0  0  0  0  0  0  # atno 17320 bound_to 7965
  144.8847  139.4855  143.6706 LP  0  0  0  0  0  0  0  0  0  0  0  0  # atno 17321 bound_to 7965
  139.8786  144.7030  150.8904 LP  0  0  0  0  0  0  0  0  0  0  0  0  # atno 17342 bound_to 10162
  140.7763  143.3680  151.1703 LP  0  0  0  0  0  0  0  0  0  0  0  0  # atno 17343 bound_to 10162
  157.7357  131.0569  150.5454 LP  0  0  0  0  0  0  0  0  0  0  0  0  # atno 17370 bound_to 10713
  156.5577  130.4247  149.6078 LP  0  0  0  0  0  0  0  0  0  0  0  0  # atno 17371 bound_to 10713
  141.1745  133.8542  157.1466 LP  0  0  0  0  0  0  0  0  0  0  0  0  # atno 17394 bound_to 11000
  140.0133  134.9978  157.0441 LP  0  0  0  0  0  0  0  0  0  0  0  0  # atno 17395 bound_to 11000

$$$$
