AV-unprocessed.smi:886|AV-procd|sdf|4048|dock4
  -GOLD-   22720 1533D 1   1.00000     0.00000
 Structure written by MMmdl.
 35 37  0  0  0  0  0  0  0  0  1 V2000
  155.3698  140.6652  161.1351 C   0  0  0  0  0  0  0  0  0  0  0  0
  154.3469  141.5480  160.5965 N   0  0  0  0  0  0  0  0  0  0  0  0
  153.7355  141.3635  159.4163 C   0  0  0  0  0  0  0  0  0  0  0  0
  153.9725  140.4084  158.6755 O   0  0  0  0  0  0  0  0  0  0  0  0
  152.6959  142.3967  159.0626 C   0  0  0  0  0  0  0  0  0  0  0  0
  152.7134  143.6528  159.7137 C   0  0  0  0  0  0  0  0  0  0  0  0
  151.7622  144.6289  159.3680 C   0  0  0  0  0  0  0  0  0  0  0  0
  150.8223  144.3171  158.3712 C   0  0  0  0  0  0  0  0  0  0  0  0
  150.7921  143.1297  157.7338 N   0  0  0  0  0  0  0  0  0  0  0  0
  151.7062  142.1830  158.0593 C   0  0  0  0  0  0  0  0  0  0  0  0
  151.6204  140.9545  157.3802 N   0  0  0  0  0  0  0  0  0  0  0  0
  151.3359  140.9172  155.9486 C   0  0  2  0  0  0  0  0  0  0  0  0
  149.9669  141.5063  155.6001 C   0  0  0  0  0  0  0  0  0  0  0  0
  149.3204  140.3598  154.8105 C   0  0  2  0  0  0  0  0  0  0  0  0
  148.8854  139.2149  155.7350 C   0  0  0  0  0  0  0  0  0  0  0  0
  150.2284  138.5900  156.1066 C   0  0  0  0  0  0  0  0  0  0  0  0
  151.2199  139.4967  155.3575 C   0  0  1  0  0  0  0  0  0  0  0  0
  150.4594  139.7811  154.1955 O   0  0  0  0  0  0  0  0  0  0  0  0
  155.7173  141.0420  162.0969 H   0  0  0  0  0  0  0  0  0  0  0  0
  156.2262  140.6065  160.4621 H   0  0  0  0  0  0  0  0  0  0  0  0
  154.9746  139.6598  161.2856 H   0  0  0  0  0  0  0  0  0  0  0  0
  154.0849  142.3478  161.1546 H   0  0  0  0  0  0  0  0  0  0  0  0
  153.4518  143.8778  160.4699 H   0  0  0  0  0  0  0  0  0  0  0  0
  151.7558  145.5939  159.8527 H   0  0  0  0  0  0  0  0  0  0  0  0
  150.0754  145.0394  158.0774 H   0  0  0  0  0  0  0  0  0  0  0  0
  152.1622  140.1882  157.7536 H   0  0  0  0  0  0  0  0  0  0  0  0
  152.1006  141.4781  155.4092 H   0  0  0  0  0  0  0  0  0  0  0  0
  149.3728  141.7879  156.4707 H   0  0  0  0  0  0  0  0  0  0  0  0
  150.0856  142.3907  154.9733 H   0  0  0  0  0  0  0  0  0  0  0  0
  148.5468  140.6829  154.1136 H   0  0  0  0  0  0  0  0  0  0  0  0
  148.3297  139.5709  156.6031 H   0  0  0  0  0  0  0  0  0  0  0  0
  148.2631  138.4959  155.2010 H   0  0  0  0  0  0  0  0  0  0  0  0
  150.4022  138.5579  157.1821 H   0  0  0  0  0  0  0  0  0  0  0  0
  150.2866  137.5685  155.7290 H   0  0  0  0  0  0  0  0  0  0  0  0
  152.1803  139.0225  155.1534 H   0  0  0  0  0  0  0  0  0  0  0  0
  1  2  1  0  0  0  0
  1 19  1  0  0  0  0
  1 20  1  0  0  0  0
  1 21  1  0  0  0  0
  2  3  1  0  0  0  0
  2 22  1  0  0  0  0
  3  4  2  0  0  0  0
  3  5  1  0  0  0  0
  5 10  1  0  0  0  0
  5  6  2  0  0  0  0
  6  7  1  0  0  0  0
  6 23  1  0  0  0  0
  7  8  2  0  0  0  0
  7 24  1  0  0  0  0
  8  9  1  0  0  0  0
  8 25  1  0  0  0  0
  9 10  2  0  0  0  0
 10 11  1  0  0  0  0
 11 12  1  0  0  0  0
 11 26  1  0  0  0  0
 12 17  1  0  0  0  0
 12 13  1  0  0  0  0
 12 27  1  0  0  0  0
 13 14  1  0  0  0  0
 13 28  1  0  0  0  0
 13 29  1  0  0  0  0
 14 18  1  0  0  0  0
 14 15  1  0  0  0  0
 14 30  1  0  0  0  0
 15 16  1  0  0  0  0
 15 31  1  0  0  0  0
 15 32  1  0  0  0  0
 16 17  1  0  0  0  0
 16 33  1  0  0  0  0
 16 34  1  0  0  0  0
 17 18  1  0  0  0  0
 17 35  1  0  0  0  0
M  END
> <s_m_source_file>
AV-unprocessed.smi

> <i_m_source_file_index>
886

> <i_lp_mmshare_version>
43012

> <i_f3d_flags>
0

> <s_epik_input>
W0NIM11bTkhdQyg9TyljMVtjSF1bY0hdW2NIXW5jMVtOSF1bQ0BIXShbQ0gyXVtDQEhdMjMpW0NASF0oTzMpW0NIMl1bQ0gyXTI=

> <s_epik_cmdline>
J2VwaWtfcHl0aG9uJywgJy1waCcsICc3LjAnLCAnLXRuJywgJzgnLCAnLW1hJywgJzIwMCcsICctbWV0YWxfYmluZGluZycsICctaW1hZScsICc8aW5maWxlLm1hZT4nLCAnLW9tYWUnLCAnPG91dGZpbGUubWFlPic=

> <r_lp_tautomer_probability>
1

> <r_epik_Ionization_Penalty>
0.0065447

> <r_epik_Ionization_Penalty_Charging>
0

> <r_epik_Ionization_Penalty_Neutral>
0.0065447

> <r_epik_State_Penalty>
0.00484214

> <r_epik_Charging_Adjusted_Penalty>
0.00484214

> <i_epik_Tot_Q>
0

> <i_epik_Tot_abs_Q>
0

> <r_epik_Metal_State_Penalty>
-0

> <b_epik_Metal_Only>
0

> <s_lp_Force_Field>
OPLS_2005

> <r_lp_Energy>
46.6605

> <b_lp_Chiralities_Consistent>
1

> <s_lp_Variant>
AV-unprocessed.smi:886-1

> <Gold.Version>
5.8.1

> <Gold.Id.Protein>
6NUR|6NUR_protein|mol2

> <Gold.PLP.Fitness>
43.7845

> <Gold.PLP.PLP>
-36.2355

> <Gold.PLP.part.hbond>
-2.0000

> <Gold.PLP.part.metal>
0.0000

> <Gold.PLP.part.buried>
-4.7772

> <Gold.PLP.part.nonpolar>
-30.0211

> <Gold.PLP.part.repulsive>
0.4680

> <Gold.PLP.ligand.clash>
0.0000

> <Gold.PLP.ligand.torsion>
0.4624

> <Gold.PLP.Chemscore.Hbond>
1.9280

> <Gold.PLP.Chemscore.CHOScore>
0.8917

> <Gold.PLP.Chemscore.Metal>
0.0000

> <Gold.Chemscore.Hbonds>
donor molecule, donor type, donor heavy atom, donor atom, acceptor molecule, acceptor atom, score
      P1  H  7989  7998       L1    18  0.80
      P1  H  7997  8010       L1     4  0.78
      L1  C     8    25       P1  8028  0.18
      L1  C     8    25       P1  8029  0.77

> <Gold.PLP.Chemscore.Internal.Correction>
0.0147

> <Gold.Rescore>
     Score         DG    S(hbond)    S(metal)    S(lipo)     H(rot)  DE(clash)    DE(int)     intcor
     16.91     -18.76       1.57        0.00      90.54       1.00       0.01       1.83       ----

> <Gold.Chemscore.Fitness>
16.9130

> <Gold.Chemscore.DG>
-18.7615

> <Gold.Chemscore.ZeroCoef>
-5.4800

> <Gold.Chemscore.Hbond>
1.5714

> <Gold.Chemscore.Metal>
0.0000

> <Gold.Chemscore.Lipo>
90.5395

> <Gold.Chemscore.Internal_Hbond>
0.0000

> <Gold.Chemscore.DEClash>
0.0137

> <Gold.Chemscore.DEInternal>
1.8349

> <Gold.Chemscore.Rot>
1.0000

> <Gold.Chemscore.Internal.Correction>
   9.000000E+99

> <Gold.Chemscore.Hbonds>
donor molecule, donor type, donor heavy atom, donor atom, acceptor molecule, acceptor atom, score
      P1  H  7989  7998       L1    18  0.11
      P1  H  7997  8010       L1     4  0.78

> <Gold.Chemscore.Hbond.Weighted>
-5.2484

> <Gold.Chemscore.Metal.Weighted>
-0.0000

> <Gold.Chemscore.Lipo.Weighted>
-10.5931

> <Gold.Chemscore.Internal_Hbond.Weighted>
0.0000

> <Gold.Chemscore.DEClash.Weighted>
0.0137

> <Gold.Chemscore.DEInternal.Weighted>
1.8349

> <Gold.Chemscore.Rot.Weighted>
2.5600

> <Gold.Chemscore.Internal.Correction.Weighted>
   9.000000E+99

> <Gold.Protein.RotatedTorsions>
[ 6907 6896 6895 6894 ] final -136.08 input  -60.11 | X-H torsion
[ 7974 7965 7964 7962 ] final  111.55 input  175.53 | X-H torsion
[ 8008 7997 7996 7995 ] final   21.00 input   59.86 | X-H torsion
[ 10167 10162 10161 10158 ] final   94.08 input  -65.29 | X-H torsion
[ 10718 10713 10712 10709 ] final  -50.06 input   66.30 | X-H torsion
[ 10763 10752 10751 10750 ] final   79.14 input  -60.55 | X-H torsion
[ 11005 11000 10999 10996 ] final   84.76 input  -57.11 | X-H torsion

> <Gold.Protein.ActiveResidues>
 VAL166  LYS551  ARG553  GLY616  TRP617  ASP618  TYR619  PRO620  LYS621  CYS622 
 ASP623  PHE694  ASN695  SER759  ASP760  ASP761  ALA762  ILE779  LEU786  VAL792 
 PHE793  MET794  SER795  GLU796  ALA797  LYS798  CYS799  TRP800  GLU811  SER814 

> <Gold.Protein.RotatedAtoms>
  151.0057  133.6013  159.2688 H   0  0  0  0  0  0  0  0  0  0  0  0  # atno 6907 bound_to 6896
  151.3184  135.0811  159.9306 H   0  0  0  0  0  0  0  0  0  0  0  0  # atno 6908 bound_to 6896
  152.5286  133.9709  159.7815 H   0  0  0  0  0  0  0  0  0  0  0  0  # atno 6909 bound_to 6896
  145.2408  139.2780  143.4119 H   0  0  0  0  0  0  0  0  0  0  0  0  # atno 7974 bound_to 7965
  154.9441  140.3057  155.5106 H   0  0  0  0  0  0  0  0  0  0  0  0  # atno 8008 bound_to 7997
  156.2993  140.2331  156.4450 H   0  0  0  0  0  0  0  0  0  0  0  0  # atno 8009 bound_to 7997
  154.8117  140.0428  157.1336 H   0  0  0  0  0  0  0  0  0  0  0  0  # atno 8010 bound_to 7997
  139.8118  144.6770  150.9631 H   0  0  0  0  0  0  0  0  0  0  0  0  # atno 10167 bound_to 10162
  156.1835  130.4151  149.9472 H   0  0  0  0  0  0  0  0  0  0  0  0  # atno 10718 bound_to 10713
  153.0929  135.4851  154.8724 H   0  0  0  0  0  0  0  0  0  0  0  0  # atno 10763 bound_to 10752
  154.7291  135.3056  154.8924 H   0  0  0  0  0  0  0  0  0  0  0  0  # atno 10764 bound_to 10752
  153.9565  135.6817  153.4798 H   0  0  0  0  0  0  0  0  0  0  0  0  # atno 10765 bound_to 10752
  139.8991  134.8239  156.2489 H   0  0  0  0  0  0  0  0  0  0  0  0  # atno 11005 bound_to 11000
  146.3329  140.2770  142.8608 LP  0  0  0  0  0  0  0  0  0  0  0  0  # atno 17320 bound_to 7965
  144.9591  140.8257  143.5524 LP  0  0  0  0  0  0  0  0  0  0  0  0  # atno 17321 bound_to 7965
  140.7817  143.4178  151.0890 LP  0  0  0  0  0  0  0  0  0  0  0  0  # atno 17342 bound_to 10162
  139.7844  143.8309  152.3142 LP  0  0  0  0  0  0  0  0  0  0  0  0  # atno 17343 bound_to 10162
  156.7235  130.9016  151.3620 LP  0  0  0  0  0  0  0  0  0  0  0  0  # atno 17370 bound_to 10713
  157.6884  130.9208  150.0447 LP  0  0  0  0  0  0  0  0  0  0  0  0  # atno 17371 bound_to 10713
  141.0236  133.7027  156.1310 LP  0  0  0  0  0  0  0  0  0  0  0  0  # atno 17394 bound_to 11000
  140.7198  134.4371  157.5576 LP  0  0  0  0  0  0  0  0  0  0  0  0  # atno 17395 bound_to 11000

$$$$
