AV-unprocessed.smi:2221|AV-procd|sdf|8983|dock4
  -GOLD-   2272012193D 1   1.00000     0.00000
 Structure written by MMmdl.
 53 54  0  0  0  0  0  0  0  0  2 V2000
  151.6917  145.6601  160.5807 C   0  0  0  0  0  0  0  0  0  0  0  0
  151.6503  144.2655  159.9926 C   0  0  0  0  0  0  0  0  0  0  0  0
  152.2780  143.1873  160.6454 C   0  0  0  0  0  0  0  0  0  0  0  0
  152.2062  141.9146  160.0465 C   0  0  0  0  0  0  0  0  0  0  0  0
  152.8569  140.7128  160.6990 C   0  0  0  0  0  0  0  0  0  0  0  0
  151.5637  141.6840  158.8813 N   0  0  0  0  0  0  0  0  0  0  0  0
  150.9561  142.7150  158.2435 C   0  0  0  0  0  0  0  0  0  0  0  0
  150.2627  142.5786  157.0114 N   0  0  0  0  0  0  0  0  0  0  0  0
  149.7516  141.4601  156.4678 C   0  0  0  0  0  0  0  0  0  0  0  0
  149.7703  140.3422  156.9840 O   0  0  0  0  0  0  0  0  0  0  0  0
  149.2032  141.7060  155.2691 N   0  0  0  0  0  0  0  0  0  0  0  0
  148.5559  140.7036  154.4305 C   0  0  0  0  0  0  0  0  0  0  0  0
  147.0520  140.9933  154.2554 C   0  0  0  0  0  0  0  0  0  0  0  0
  146.3247  139.8542  153.6413 N   0  3  2  0  0  0  0  0  0  0  0  0
  145.7527  138.9382  154.6568 C   0  0  0  0  0  0  0  0  0  0  0  0
  144.8713  137.8624  154.0028 C   0  0  0  0  0  0  0  0  0  0  0  0
  145.6373  137.0399  152.9362 C   0  0  1  0  0  0  0  0  0  0  0  0
  144.7403  136.0976  152.2407 N   0  0  0  0  0  0  0  0  0  0  0  0
  143.4379  136.6937  151.9490 C   0  0  0  0  0  0  0  0  0  0  0  0
  145.2901  135.6599  150.9590 C   0  0  0  0  0  0  0  0  0  0  0  0
  146.2881  138.0334  151.9411 C   0  0  0  0  0  0  0  0  0  0  0  0
  147.1342  139.1023  152.6509 C   0  0  0  0  0  0  0  0  0  0  0  0
  150.9826  144.0238  158.7750 C   0  0  0  0  0  0  0  0  0  0  0  0
  152.0599  145.6454  161.6069 H   0  0  0  0  0  0  0  0  0  0  0  0
  150.6948  146.1015  160.5841 H   0  0  0  0  0  0  0  0  0  0  0  0
  152.3489  146.2982  159.9898 H   0  0  0  0  0  0  0  0  0  0  0  0
  152.8008  143.3303  161.5801 H   0  0  0  0  0  0  0  0  0  0  0  0
  153.6843  141.0186  161.3400 H   0  0  0  0  0  0  0  0  0  0  0  0
  153.2484  140.0262  159.9474 H   0  0  0  0  0  0  0  0  0  0  0  0
  152.1297  140.1771  161.3092 H   0  0  0  0  0  0  0  0  0  0  0  0
  150.1523  143.4297  156.4805 H   0  0  0  0  0  0  0  0  0  0  0  0
  149.2268  142.6523  154.9175 H   0  0  0  0  0  0  0  0  0  0  0  0
  149.0525  140.6573  153.4597 H   0  0  0  0  0  0  0  0  0  0  0  0
  148.7136  139.7366  154.9063 H   0  0  0  0  0  0  0  0  0  0  0  0
  146.5924  141.2570  155.2091 H   0  0  0  0  0  0  0  0  0  0  0  0
  146.9429  141.8666  153.6109 H   0  0  0  0  0  0  0  0  0  0  0  0
  146.5587  138.4719  155.2259 H   0  0  0  0  0  0  0  0  0  0  0  0
  145.1494  139.5045  155.3675 H   0  0  0  0  0  0  0  0  0  0  0  0
  144.4991  137.2210  154.8009 H   0  0  0  0  0  0  0  0  0  0  0  0
  143.9989  138.3364  153.5500 H   0  0  0  0  0  0  0  0  0  0  0  0
  146.4266  136.4722  153.4320 H   0  0  0  0  0  0  0  0  0  0  0  0
  142.8241  136.0121  151.3590 H   0  0  0  0  0  0  0  0  0  0  0  0
  143.5430  137.6240  151.3888 H   0  0  0  0  0  0  0  0  0  0  0  0
  142.8736  136.8970  152.8578 H   0  0  0  0  0  0  0  0  0  0  0  0
  144.5738  135.0352  150.4233 H   0  0  0  0  0  0  0  0  0  0  0  0
  146.1828  135.0502  151.0895 H   0  0  0  0  0  0  0  0  0  0  0  0
  145.5391  136.5101  150.3222 H   0  0  0  0  0  0  0  0  0  0  0  0
  146.9420  137.5164  151.2399 H   0  0  0  0  0  0  0  0  0  0  0  0
  145.5152  138.5221  151.3457 H   0  0  0  0  0  0  0  0  0  0  0  0
  147.5424  139.7786  151.9009 H   0  0  0  0  0  0  0  0  0  0  0  0
  147.9851  138.6363  153.1504 H   0  0  0  0  0  0  0  0  0  0  0  0
  150.4958  144.8373  158.2566 H   0  0  0  0  0  0  0  0  0  0  0  0
  145.5389  140.2517  153.1462 H   0  0  0  0  0  0  0  0  0  0  0  0
  1  2  1  0  0  0  0
  1 24  1  0  0  0  0
  1 25  1  0  0  0  0
  1 26  1  0  0  0  0
  2 23  1  0  0  0  0
  2  3  2  0  0  0  0
  3  4  1  0  0  0  0
  3 27  1  0  0  0  0
  4  5  1  0  0  0  0
  4  6  2  0  0  0  0
  5 28  1  0  0  0  0
  5 29  1  0  0  0  0
  5 30  1  0  0  0  0
  6  7  1  0  0  0  0
  7  8  1  0  0  0  0
  7 23  2  0  0  0  0
  8  9  1  0  0  0  0
  8 31  1  0  0  0  0
  9 10  2  0  0  0  0
  9 11  1  0  0  0  0
 11 12  1  0  0  0  0
 11 32  1  0  0  0  0
 12 13  1  0  0  0  0
 12 33  1  0  0  0  0
 12 34  1  0  0  0  0
 13 14  1  0  0  0  0
 13 35  1  0  0  0  0
 13 36  1  0  0  0  0
 14 22  1  0  0  0  0
 14 15  1  0  0  0  0
 14 53  1  0  0  0  0
 15 16  1  0  0  0  0
 15 37  1  0  0  0  0
 15 38  1  0  0  0  0
 16 17  1  0  0  0  0
 16 39  1  0  0  0  0
 16 40  1  0  0  0  0
 17 18  1  0  0  0  0
 17 21  1  0  0  0  0
 17 41  1  0  0  0  0
 18 19  1  0  0  0  0
 18 20  1  0  0  0  0
 19 42  1  0  0  0  0
 19 43  1  0  0  0  0
 19 44  1  0  0  0  0
 20 45  1  0  0  0  0
 20 46  1  0  0  0  0
 20 47  1  0  0  0  0
 21 22  1  0  0  0  0
 21 48  1  0  0  0  0
 21 49  1  0  0  0  0
 22 50  1  0  0  0  0
 22 51  1  0  0  0  0
 23 52  1  0  0  0  0
M  CHG  1  14   1
M  END
> <s_m_source_file>
AV-unprocessed.smi

> <i_m_source_file_index>
2221

> <i_lp_mmshare_version>
43012

> <i_f3d_flags>
0

> <s_epik_input>
W0NIM11jMVtjSF1jKFtDSDNdKW5jKFtjSF0xKVtOSF1DKD1PKVtOSF1bQ0gyXVtDSDJdTjJbQ0gyXVtDSDJdW0NIXShOKFtDSDNdKVtDSDNdKVtDSDJdW0NIMl0y

> <s_epik_cmdline>
J2VwaWtfcHl0aG9uJywgJy1waCcsICc3LjAnLCAnLXRuJywgJzgnLCAnLW1hJywgJzIwMCcsICctbWV0YWxfYmluZGluZycsICctaW1hZScsICc8aW5maWxlLm1hZT4nLCAnLW9tYWUnLCAnPG91dGZpbGUubWFlPic=

> <r_epik_Ionization_Penalty>
1.32168

> <r_epik_Ionization_Penalty_Charging>
0.00219175

> <r_epik_Ionization_Penalty_Neutral>
1.31949

> <r_epik_State_Penalty>
1.51166

> <r_epik_Charging_Adjusted_Penalty>
1.51385

> <i_epik_Tot_Q>
1

> <i_epik_Tot_abs_Q>
1

> <r_epik_Metal_State_Penalty>
1.51167

> <b_epik_Metal_Only>
0

> <s_lp_Force_Field>
OPLS_2005

> <r_lp_Energy>
22.6933

> <b_lp_Chiralities_Consistent>
1

> <s_lp_Variant>
AV-unprocessed.smi:2221-4

> <Gold.Version>
5.8.1

> <Gold.Id.Protein>
6NUR|6NUR_protein|mol2

> <Gold.PLP.Fitness>
57.8795

> <Gold.PLP.PLP>
-48.2330

> <Gold.PLP.part.hbond>
-3.0000

> <Gold.PLP.part.metal>
0.0000

> <Gold.PLP.part.buried>
-4.6519

> <Gold.PLP.part.nonpolar>
-42.2565

> <Gold.PLP.part.repulsive>
0.4122

> <Gold.PLP.ligand.clash>
0.0000

> <Gold.PLP.ligand.torsion>
0.8685

> <Gold.PLP.Chemscore.Hbond>
3.7680

> <Gold.PLP.Chemscore.CHOScore>
0.0000

> <Gold.PLP.Chemscore.Metal>
0.0000

> <Gold.Chemscore.Hbonds>
donor molecule, donor type, donor heavy atom, donor atom, acceptor molecule, acceptor atom, score
      L1  H     8    31       P1  8028  0.94
      L1  H    11    32       P1  8028  0.43
      L1  H    14    53       P1 10175  2.00

> <Gold.PLP.Chemscore.Internal.Correction>
0.0796

> <Gold.Rescore>
     Score         DG    S(hbond)    S(metal)    S(lipo)     H(rot)  DE(clash)    DE(int)     intcor
     21.66     -23.70       2.92        0.00     107.52       1.61       0.12       1.92       ----

> <Gold.Chemscore.Fitness>
21.6610

> <Gold.Chemscore.DG>
-23.6968

> <Gold.Chemscore.ZeroCoef>
-5.4800

> <Gold.Chemscore.Hbond>
2.9231

> <Gold.Chemscore.Metal>
0.0000

> <Gold.Chemscore.Lipo>
107.5218

> <Gold.Chemscore.Internal_Hbond>
0.0000

> <Gold.Chemscore.DEClash>
0.1168

> <Gold.Chemscore.DEInternal>
1.9190

> <Gold.Chemscore.Rot>
1.6119

> <Gold.Chemscore.Internal.Correction>
   9.000000E+99

> <Gold.Chemscore.Hbonds>
donor molecule, donor type, donor heavy atom, donor atom, acceptor molecule, acceptor atom, score
      L1  H     8    31       P1  8028  0.89
      L1  H    11    32       P1  8028  0.43
      L1  H    14    53       P1 10175  0.95

> <Gold.Chemscore.Hbond.Weighted>
-9.7631

> <Gold.Chemscore.Metal.Weighted>
-0.0000

> <Gold.Chemscore.Lipo.Weighted>
-12.5800

> <Gold.Chemscore.Internal_Hbond.Weighted>
0.0000

> <Gold.Chemscore.DEClash.Weighted>
0.1168

> <Gold.Chemscore.DEInternal.Weighted>
1.9190

> <Gold.Chemscore.Rot.Weighted>
4.1264

> <Gold.Chemscore.Internal.Correction.Weighted>
   9.000000E+99

> <Gold.Protein.RotatedTorsions>
[ 6907 6896 6895 6894 ] final  -54.68 input  -60.11 | X-H torsion
[ 7974 7965 7964 7962 ] final -162.17 input  175.53 | X-H torsion
[ 8008 7997 7996 7995 ] final  -18.21 input   59.86 | X-H torsion
[ 10167 10162 10161 10158 ] final -119.61 input  -65.29 | X-H torsion
[ 10718 10713 10712 10709 ] final  -78.41 input   66.30 | X-H torsion
[ 10763 10752 10751 10750 ] final   53.01 input  -60.55 | X-H torsion
[ 11005 11000 10999 10996 ] final  105.83 input  -57.11 | X-H torsion

> <Gold.Protein.ActiveResidues>
 VAL166  LYS551  ARG553  GLY616  TRP617  ASP618  TYR619  PRO620  LYS621  CYS622 
 ASP623  PHE694  ASN695  SER759  ASP760  ASP761  ALA762  ILE779  LEU786  VAL792 
 PHE793  MET794  SER795  GLU796  ALA797  LYS798  CYS799  TRP800  GLU811  SER814 

> <Gold.Protein.RotatedAtoms>
  150.8317  134.7573  159.6858 H   0  0  0  0  0  0  0  0  0  0  0  0  # atno 6907 bound_to 6896
  152.4421  134.5567  159.9892 H   0  0  0  0  0  0  0  0  0  0  0  0  # atno 6908 bound_to 6896
  151.5726  133.3350  159.3028 H   0  0  0  0  0  0  0  0  0  0  0  0  # atno 6909 bound_to 6896
  144.7366  140.3291  143.6156 H   0  0  0  0  0  0  0  0  0  0  0  0  # atno 7974 bound_to 7965
  154.4922  140.2122  155.9523 H   0  0  0  0  0  0  0  0  0  0  0  0  # atno 8008 bound_to 7997
  156.1321  140.3195  155.8334 H   0  0  0  0  0  0  0  0  0  0  0  0  # atno 8009 bound_to 7997
  155.4276  140.0501  157.3012 H   0  0  0  0  0  0  0  0  0  0  0  0  # atno 8010 bound_to 7997
  140.0447  143.5118  152.2112 H   0  0  0  0  0  0  0  0  0  0  0  0  # atno 10167 bound_to 10162
  156.0118  130.4517  150.3492 H   0  0  0  0  0  0  0  0  0  0  0  0  # atno 10718 bound_to 10713
  152.9792  135.5793  154.4672 H   0  0  0  0  0  0  0  0  0  0  0  0  # atno 10763 bound_to 10752
  154.4240  135.2772  155.1959 H   0  0  0  0  0  0  0  0  0  0  0  0  # atno 10764 bound_to 10752
  154.3695  135.6171  153.5786 H   0  0  0  0  0  0  0  0  0  0  0  0  # atno 10765 bound_to 10752
  139.8806  134.9349  156.5574 H   0  0  0  0  0  0  0  0  0  0  0  0  # atno 11005 bound_to 11000
  145.7490  139.1787  143.2332 LP  0  0  0  0  0  0  0  0  0  0  0  0  # atno 17320 bound_to 7965
  146.1076  140.7468  142.9519 LP  0  0  0  0  0  0  0  0  0  0  0  0  # atno 17321 bound_to 7965
  139.5991  144.7577  151.3215 LP  0  0  0  0  0  0  0  0  0  0  0  0  # atno 17342 bound_to 10162
  140.7244  143.7045  150.7818 LP  0  0  0  0  0  0  0  0  0  0  0  0  # atno 17343 bound_to 10162
  157.1585  131.0339  151.2852 LP  0  0  0  0  0  0  0  0  0  0  0  0  # atno 17370 bound_to 10713
  157.4331  130.7502  149.7006 LP  0  0  0  0  0  0  0  0  0  0  0  0  # atno 17371 bound_to 10713
  140.8195  133.8365  155.8882 LP  0  0  0  0  0  0  0  0  0  0  0  0  # atno 17394 bound_to 11000
  140.9432  134.1874  157.4782 LP  0  0  0  0  0  0  0  0  0  0  0  0  # atno 17395 bound_to 11000

$$$$
