AV-unprocessed.smi:150|AV-procd|sdf|1242|dock4
  -GOLD-   2262018463D 1   1.00000     0.00000
 Structure written by MMmdl.
 55 57  0  0  0  0  0  0  0  0  1 V2000
  151.1070  143.0196  157.3922 C   0  0  0  0  0  0  0  0  0  0  0  0
  150.3772  141.7322  156.9706 C   0  0  0  0  0  0  0  0  0  0  0  0
  150.0173  140.8985  158.2101 C   0  0  0  0  0  0  0  0  0  0  0  0
  151.1990  140.8859  155.9710 C   0  0  0  0  0  0  0  0  0  0  0  0
  150.5339  139.5640  155.5012 C   0  0  2  0  0  0  0  0  0  0  0  0
  151.3606  138.8138  154.4270 C   0  0  0  0  0  0  0  0  0  0  0  0
  150.8705  137.4985  154.2733 O   0  0  0  0  0  0  0  0  0  0  0  0
  149.1302  139.7650  155.1031 N   0  0  0  0  0  0  0  0  0  0  0  0
  148.8280  140.9046  154.2421 C   0  0  0  0  0  0  0  0  0  0  0  0
  148.2384  138.7422  155.0023 C   0  0  0  0  0  0  0  0  0  0  0  0
  148.1729  137.7900  155.9698 N   0  0  0  0  0  0  0  0  0  0  0  0
  147.3110  136.7745  155.8673 C   0  0  0  0  0  0  0  0  0  0  0  0
  146.4382  136.5169  154.8923 N   0  0  0  0  0  0  0  0  0  0  0  0
  146.5003  137.4628  153.9124 C   0  0  0  0  0  0  0  0  0  0  0  0
  147.3609  138.5974  153.8890 C   0  0  0  0  0  0  0  0  0  0  0  0
  147.1269  139.3411  152.7378 N   0  0  0  0  0  0  0  0  0  0  0  0
  146.1880  138.6825  152.1160 C   0  0  0  0  0  0  0  0  0  0  0  0
  145.7596  137.5360  152.7455 N   0  0  0  0  0  0  0  0  0  0  0  0
  144.7323  136.6182  152.2767 C   0  0  0  0  0  0  0  0  0  0  0  0
  145.2859  135.3327  151.6118 C   0  0  0  0  0  0  0  0  0  0  0  0
  146.2545  135.7222  150.6537 O   0  0  0  0  0  0  0  0  0  0  0  0
  145.9745  134.4414  152.6653 C   0  0  0  0  0  0  0  0  0  0  0  0
  146.3842  133.0729  152.0930 C   0  0  0  0  0  0  0  0  0  0  0  0
  145.2520  132.4245  151.5268 O   0  0  0  0  0  0  0  0  0  0  0  0
  144.7042  133.1401  150.4267 C   0  0  0  0  0  0  0  0  0  0  0  0
  144.1913  134.5148  150.8914 C   0  0  0  0  0  0  0  0  0  0  0  0
  152.0847  142.7987  157.8217 H   0  0  0  0  0  0  0  0  0  0  0  0
  150.5333  143.5666  158.1409 H   0  0  0  0  0  0  0  0  0  0  0  0
  151.2564  143.6962  156.5517 H   0  0  0  0  0  0  0  0  0  0  0  0
  149.4360  142.0211  156.5049 H   0  0  0  0  0  0  0  0  0  0  0  0
  150.9114  140.5751  158.7443 H   0  0  0  0  0  0  0  0  0  0  0  0
  149.4528  140.0067  157.9359 H   0  0  0  0  0  0  0  0  0  0  0  0
  149.4033  141.4716  158.9054 H   0  0  0  0  0  0  0  0  0  0  0  0
  151.4238  141.5116  155.1063 H   0  0  0  0  0  0  0  0  0  0  0  0
  152.1643  140.6571  156.4223 H   0  0  0  0  0  0  0  0  0  0  0  0
  150.4864  138.9064  156.3684 H   0  0  0  0  0  0  0  0  0  0  0  0
  151.3765  139.3178  153.4624 H   0  0  0  0  0  0  0  0  0  0  0  0
  152.4002  138.7210  154.7363 H   0  0  0  0  0  0  0  0  0  0  0  0
  151.6066  136.9080  154.2227 H   0  0  0  0  0  0  0  0  0  0  0  0
  148.1447  141.5889  154.7446 H   0  0  0  0  0  0  0  0  0  0  0  0
  148.3695  140.5845  153.3052 H   0  0  0  0  0  0  0  0  0  0  0  0
  149.7303  141.4637  153.9937 H   0  0  0  0  0  0  0  0  0  0  0  0
  147.3242  136.0663  156.6826 H   0  0  0  0  0  0  0  0  0  0  0  0
  145.7834  139.0142  151.1708 H   0  0  0  0  0  0  0  0  0  0  0  0
  144.0885  136.3627  153.1199 H   0  0  0  0  0  0  0  0  0  0  0  0
  144.1021  137.1594  151.5695 H   0  0  0  0  0  0  0  0  0  0  0  0
  147.0624  135.9169  151.1036 H   0  0  0  0  0  0  0  0  0  0  0  0
  146.8447  134.9476  153.0855 H   0  0  0  0  0  0  0  0  0  0  0  0
  145.2895  134.2729  153.4976 H   0  0  0  0  0  0  0  0  0  0  0  0
  147.1711  133.1768  151.3444 H   0  0  0  0  0  0  0  0  0  0  0  0
  146.7864  132.4434  152.8870 H   0  0  0  0  0  0  0  0  0  0  0  0
  145.4507  133.2446  149.6380 H   0  0  0  0  0  0  0  0  0  0  0  0
  143.8827  132.5600  150.0064 H   0  0  0  0  0  0  0  0  0  0  0  0
  143.3531  134.3598  151.5720 H   0  0  0  0  0  0  0  0  0  0  0  0
  143.7954  135.0626  150.0356 H   0  0  0  0  0  0  0  0  0  0  0  0
  1  2  1  0  0  0  0
  1 27  1  0  0  0  0
  1 28  1  0  0  0  0
  1 29  1  0  0  0  0
  2  3  1  0  0  0  0
  2  4  1  0  0  0  0
  2 30  1  0  0  0  0
  3 31  1  0  0  0  0
  3 32  1  0  0  0  0
  3 33  1  0  0  0  0
  4  5  1  0  0  0  0
  4 34  1  0  0  0  0
  4 35  1  0  0  0  0
  5  6  1  0  0  0  0
  5  8  1  0  0  0  0
  5 36  1  0  0  0  0
  6  7  1  0  0  0  0
  6 37  1  0  0  0  0
  6 38  1  0  0  0  0
  7 39  1  0  0  0  0
  8  9  1  0  0  0  0
  8 10  1  0  0  0  0
  9 40  1  0  0  0  0
  9 41  1  0  0  0  0
  9 42  1  0  0  0  0
 10 15  1  0  0  0  0
 10 11  2  0  0  0  0
 11 12  1  0  0  0  0
 12 13  2  0  0  0  0
 12 43  1  0  0  0  0
 13 14  1  0  0  0  0
 14 18  1  0  0  0  0
 14 15  2  0  0  0  0
 15 16  1  0  0  0  0
 16 17  2  0  0  0  0
 17 18  1  0  0  0  0
 17 44  1  0  0  0  0
 18 19  1  0  0  0  0
 19 20  1  0  0  0  0
 19 45  1  0  0  0  0
 19 46  1  0  0  0  0
 20 26  1  0  0  0  0
 20 21  1  0  0  0  0
 20 22  1  0  0  0  0
 21 47  1  0  0  0  0
 22 23  1  0  0  0  0
 22 48  1  0  0  0  0
 22 49  1  0  0  0  0
 23 24  1  0  0  0  0
 23 50  1  0  0  0  0
 23 51  1  0  0  0  0
 24 25  1  0  0  0  0
 25 26  1  0  0  0  0
 25 52  1  0  0  0  0
 25 53  1  0  0  0  0
 26 54  1  0  0  0  0
 26 55  1  0  0  0  0
M  END
> <s_m_source_file>
AV-unprocessed.smi

> <i_m_source_file_index>
150

> <i_lp_mmshare_version>
43012

> <i_f3d_flags>
0

> <s_epik_input>
W0NIM11bQ0hdKFtDSDNdKVtDSDJdW0NASF0oW0NIMl1bT0hdKU4oW0NIM10pYyhuW2NIXW4xKWMoYzEyKW5bY0hdbjJbQ0gyXUMzKFtPSF0pW0NIMl1bQ0gyXU9bQ0gyXVtDSDJdMw==

> <s_epik_cmdline>
J2VwaWtfcHl0aG9uJywgJy1waCcsICc3LjAnLCAnLXRuJywgJzgnLCAnLW1hJywgJzIwMCcsICctbWV0YWxfYmluZGluZycsICctaW1hZScsICc8aW5maWxlLm1hZT4nLCAnLW9tYWUnLCAnPG91dGZpbGUubWFlPic=

> <r_lp_tautomer_probability>
1

> <r_epik_Ionization_Penalty>
0.00548416

> <r_epik_Ionization_Penalty_Charging>
0

> <r_epik_Ionization_Penalty_Neutral>
0.00548416

> <r_epik_State_Penalty>
0.0038135

> <r_epik_Charging_Adjusted_Penalty>
0.0038135

> <i_epik_Tot_Q>
0

> <i_epik_Tot_abs_Q>
0

> <r_epik_Metal_State_Penalty>
-0

> <b_epik_Metal_Only>
0

> <s_lp_Force_Field>
OPLS_2005

> <r_lp_Energy>
31.7552

> <b_lp_Chiralities_Consistent>
1

> <s_lp_Variant>
AV-unprocessed.smi:150-1

> <Gold.Version>
5.8.1

> <Gold.Id.Protein>
6NUR|6NUR_protein|mol2

> <Gold.PLP.Fitness>
41.0824

> <Gold.PLP.PLP>
-36.4839

> <Gold.PLP.part.hbond>
-3.4166

> <Gold.PLP.part.metal>
0.0000

> <Gold.PLP.part.buried>
-1.4796

> <Gold.PLP.part.nonpolar>
-33.3556

> <Gold.PLP.part.repulsive>
1.8509

> <Gold.PLP.ligand.clash>
0.0000

> <Gold.PLP.ligand.torsion>
1.3147

> <Gold.PLP.Chemscore.Hbond>
0.9913

> <Gold.PLP.Chemscore.CHOScore>
1.0415

> <Gold.PLP.Chemscore.Metal>
0.0000

> <Gold.Chemscore.Hbonds>
donor molecule, donor type, donor heavy atom, donor atom, acceptor molecule, acceptor atom, score
      L1  H    21    47       P1  7948  1.00
      L1  C    17    44       P1 10171  1.00
      L1  C    17    44       P1 10175  0.06

> <Gold.PLP.Chemscore.Internal.Correction>
1.1299

> <Gold.Rescore>
     Score         DG    S(hbond)    S(metal)    S(lipo)     H(rot)  DE(clash)    DE(int)     intcor
      4.54      -9.61       0.98        0.00      81.65       3.40       0.40       4.67       ----

> <Gold.Chemscore.Fitness>
4.5394

> <Gold.Chemscore.DG>
-9.6093

> <Gold.Chemscore.ZeroCoef>
-5.4800

> <Gold.Chemscore.Hbond>
0.9818

> <Gold.Chemscore.Metal>
0.0000

> <Gold.Chemscore.Lipo>
81.6486

> <Gold.Chemscore.Internal_Hbond>
0.0000

> <Gold.Chemscore.DEClash>
0.4036

> <Gold.Chemscore.DEInternal>
4.6663

> <Gold.Chemscore.Rot>
3.3995

> <Gold.Chemscore.Internal.Correction>
   9.000000E+99

> <Gold.Chemscore.Hbonds>
donor molecule, donor type, donor heavy atom, donor atom, acceptor molecule, acceptor atom, score
      L1  H    21    47       P1  7948  0.92

> <Gold.Chemscore.Hbond.Weighted>
-3.2792

> <Gold.Chemscore.Metal.Weighted>
-0.0000

> <Gold.Chemscore.Lipo.Weighted>
-9.5529

> <Gold.Chemscore.Internal_Hbond.Weighted>
0.0000

> <Gold.Chemscore.DEClash.Weighted>
0.4036

> <Gold.Chemscore.DEInternal.Weighted>
4.6663

> <Gold.Chemscore.Rot.Weighted>
8.7028

> <Gold.Chemscore.Internal.Correction.Weighted>
   9.000000E+99

> <Gold.Protein.RotatedTorsions>
[ 6907 6896 6895 6894 ] final  123.54 input  -60.11 | X-H torsion
[ 7974 7965 7964 7962 ] final  -24.52 input  175.53 | X-H torsion
[ 8008 7997 7996 7995 ] final  -25.29 input   59.86 | X-H torsion
[ 10167 10162 10161 10158 ] final  154.90 input  -65.29 | X-H torsion
[ 10718 10713 10712 10709 ] final  154.09 input   66.30 | X-H torsion
[ 10763 10752 10751 10750 ] final -147.16 input  -60.55 | X-H torsion
[ 11005 11000 10999 10996 ] final -140.99 input  -57.11 | X-H torsion

> <Gold.Protein.ActiveResidues>
 VAL166  LYS551  ARG553  GLY616  TRP617  ASP618  TYR619  PRO620  LYS621  CYS622 
 ASP623  PHE694  ASN695  SER759  ASP760  ASP761  ALA762  ILE779  LEU786  VAL792 
 PHE793  MET794  SER795  GLU796  ALA797  LYS798  CYS799  TRP800  GLU811  SER814 

> <Gold.Protein.RotatedAtoms>
  152.4153  133.7029  159.6433 H   0  0  0  0  0  0  0  0  0  0  0  0  # atno 6907 bound_to 6896
  150.8031  133.8550  159.3225 H   0  0  0  0  0  0  0  0  0  0  0  0  # atno 6908 bound_to 6896
  151.6282  135.1027  160.0167 H   0  0  0  0  0  0  0  0  0  0  0  0  # atno 6909 bound_to 6896
  146.1549  140.4763  142.8595 H   0  0  0  0  0  0  0  0  0  0  0  0  # atno 7974 bound_to 7965
  154.4483  140.1930  156.0596 H   0  0  0  0  0  0  0  0  0  0  0  0  # atno 8008 bound_to 7997
  156.0592  140.3299  155.7415 H   0  0  0  0  0  0  0  0  0  0  0  0  # atno 8009 bound_to 7997
  155.5437  140.0588  157.2855 H   0  0  0  0  0  0  0  0  0  0  0  0  # atno 8010 bound_to 7997
  139.4822  144.5146  151.7971 H   0  0  0  0  0  0  0  0  0  0  0  0  # atno 10167 bound_to 10162
  157.2362  131.0749  151.1822 H   0  0  0  0  0  0  0  0  0  0  0  0  # atno 10718 bound_to 10713
  154.8300  135.3367  154.6774 H   0  0  0  0  0  0  0  0  0  0  0  0  # atno 10763 bound_to 10752
  153.7395  135.6947  153.4975 H   0  0  0  0  0  0  0  0  0  0  0  0  # atno 10764 bound_to 10752
  153.2254  135.4434  155.0487 H   0  0  0  0  0  0  0  0  0  0  0  0  # atno 10765 bound_to 10752
  140.8368  134.2450  157.4830 H   0  0  0  0  0  0  0  0  0  0  0  0  # atno 11005 bound_to 11000
  144.7951  140.6106  143.6516 LP  0  0  0  0  0  0  0  0  0  0  0  0  # atno 17320 bound_to 7965
  145.4732  139.1501  143.3802 LP  0  0  0  0  0  0  0  0  0  0  0  0  # atno 17321 bound_to 7965
  140.4653  144.1664  150.5911 LP  0  0  0  0  0  0  0  0  0  0  0  0  # atno 17342 bound_to 10162
  140.4440  143.2514  151.9435 LP  0  0  0  0  0  0  0  0  0  0  0  0  # atno 17343 bound_to 10162
  157.3427  130.7041  149.6391 LP  0  0  0  0  0  0  0  0  0  0  0  0  # atno 17370 bound_to 10713
  155.9672  130.4275  150.4748 LP  0  0  0  0  0  0  0  0  0  0  0  0  # atno 17371 bound_to 10713
  139.8704  134.9615  156.4397 LP  0  0  0  0  0  0  0  0  0  0  0  0  # atno 17394 bound_to 11000
  140.8939  133.7828  155.9602 LP  0  0  0  0  0  0  0  0  0  0  0  0  # atno 17395 bound_to 11000

$$$$
