AV-unprocessed.smi:72|AV-procd|sdf|699|dock6
  -GOLD-   2262017 13D 1   1.00000     0.00000
 Structure written by MMmdl.
 30 31  0  0  0  0  0  0  0  0  2 V2000
  148.3107  134.0119  154.2861 N   0  0  0  0  0  0  0  0  0  0  0  0
  148.9851  134.9438  155.0473 C   0  0  0  0  0  0  0  0  0  0  0  0
  149.5121  136.0450  154.3961 N   0  3  0  0  0  0  0  0  0  0  0  0
  150.1869  137.0398  154.9880 C   0  0  0  0  0  0  0  0  0  0  0  0
  150.3696  137.0005  156.2920 N   0  0  0  0  0  0  0  0  0  0  0  0
  151.1281  138.0873  157.0015 C   0  0  2  0  0  0  0  0  0  0  0  0
  150.2358  139.1280  157.2593 O   0  0  0  0  0  0  0  0  0  0  0  0
  150.8148  140.3717  156.8805 C   0  0  2  0  0  0  0  0  0  0  0  0
  149.7347  141.4288  156.5909 C   0  0  0  0  0  0  0  0  0  0  0  0
  150.3397  142.6681  156.2917 O   0  0  0  0  0  0  0  0  0  0  0  0
  151.7120  139.9974  155.6938 C   0  0  2  0  0  0  0  0  0  0  0  0
  150.9616  139.8996  154.4961 O   0  0  0  0  0  0  0  0  0  0  0  0
  152.2442  138.6286  156.0923 C   0  0  1  0  0  0  0  0  0  0  0  0
  153.4616  138.7575  156.7983 O   0  0  0  0  0  0  0  0  0  0  0  0
  149.8908  135.8972  157.0426 C   0  0  0  0  0  0  0  0  0  0  0  0
  150.0965  135.8317  158.2540 O   0  0  0  0  0  0  0  0  0  0  0  0
  149.1936  134.9072  156.3346 N   0  0  0  0  0  0  0  0  0  0  0  0
  151.4767  137.6607  157.9438 H   0  0  0  0  0  0  0  0  0  0  0  0
  151.4592  140.7095  157.6946 H   0  0  0  0  0  0  0  0  0  0  0  0
  152.5077  140.7268  155.5354 H   0  0  0  0  0  0  0  0  0  0  0  0
  152.4161  137.9785  155.2324 H   0  0  0  0  0  0  0  0  0  0  0  0
  147.8966  133.1755  154.6737 H   0  0  0  0  0  0  0  0  0  0  0  0
  148.1802  134.0867  153.2874 H   0  0  0  0  0  0  0  0  0  0  0  0
  150.5734  137.8531  154.3867 H   0  0  0  0  0  0  0  0  0  0  0  0
  149.1479  141.1357  155.7199 H   0  0  0  0  0  0  0  0  0  0  0  0
  149.0452  141.5373  157.4287 H   0  0  0  0  0  0  0  0  0  0  0  0
  149.6698  143.2703  156.0047 H   0  0  0  0  0  0  0  0  0  0  0  0
  151.1380  139.0595  154.1001 H   0  0  0  0  0  0  0  0  0  0  0  0
  153.4664  138.1358  157.5105 H   0  0  0  0  0  0  0  0  0  0  0  0
  149.3772  136.0998  153.3967 H   0  0  0  0  0  0  0  0  0  0  0  0
  1  2  1  0  0  0  0
  1 22  1  0  0  0  0
  1 23  1  0  0  0  0
  2 17  2  0  0  0  0
  2  3  1  0  0  0  0
  3  4  2  0  0  0  0
  3 30  1  0  0  0  0
  4  5  1  0  0  0  0
  4 24  1  0  0  0  0
  5  6  1  0  0  0  0
  5 15  1  0  0  0  0
  6 18  1  0  0  0  0
  6 13  1  0  0  0  0
  6  7  1  0  0  0  0
  7  8  1  0  0  0  0
  8 19  1  0  0  0  0
  8  9  1  0  0  0  0
  8 11  1  0  0  0  0
  9 10  1  0  0  0  0
  9 25  1  0  0  0  0
  9 26  1  0  0  0  0
 10 27  1  0  0  0  0
 11 20  1  0  0  0  0
 11 12  1  0  0  0  0
 11 13  1  0  0  0  0
 12 28  1  0  0  0  0
 13 21  1  0  0  0  0
 13 14  1  0  0  0  0
 14 29  1  0  0  0  0
 15 16  2  0  0  0  0
 15 17  1  0  0  0  0
M  CHG  1   3   1
M  END
> <s_m_source_file>
AV-unprocessed.smi

> <i_m_source_file_index>
72

> <i_lp_mmshare_version>
43012

> <i_f3d_flags>
0

> <s_epik_input>
W05IMl1jMW5bY0hdbihjKD1PKW4xKVtDQEBIXTJPW0NASF0oW0NIMl1bT0hdKVtDQEBIXShbT0hdKVtDQEhdMltPSF0=

> <s_epik_cmdline>
J2VwaWtfcHl0aG9uJywgJy1waCcsICc3LjAnLCAnLXRuJywgJzgnLCAnLW1hJywgJzIwMCcsICctbWV0YWxfYmluZGluZycsICctaW1hZScsICc8aW5maWxlLm1hZT4nLCAnLW9tYWUnLCAnPG91dGZpbGUubWFlPic=

> <r_lp_tautomer_probability>
4.77166e-05

> <r_epik_Ionization_Penalty>
0.104979

> <r_epik_Ionization_Penalty_Charging>
0.0999619

> <r_epik_Ionization_Penalty_Neutral>
0.00501745

> <r_epik_State_Penalty>
2.51541

> <r_epik_Charging_Adjusted_Penalty>
2.61537

> <i_epik_Tot_Q>
1

> <i_epik_Tot_abs_Q>
1

> <r_epik_Metal_State_Penalty>
3.53763

> <b_epik_Metal_Only>
0

> <s_epik_Chemistry_Notes>
This compound contains an acetal/aminal-like group ( X-CH(R)-Y where X, Y are N, S, or O) that may be acid/base labile, releasing an aldehyde.

> <s_lp_Force_Field>
OPLS_2005

> <r_lp_Energy>
28.7493

> <b_lp_Chiralities_Consistent>
1

> <s_lp_Variant>
AV-unprocessed.smi:72-37

> <Gold.Version>
5.8.1

> <Gold.Id.Protein>
6NUR|6NUR_protein|mol2

> <Gold.PLP.Fitness>
35.4509

> <Gold.PLP.PLP>
-18.8854

> <Gold.PLP.part.hbond>
-5.0000

> <Gold.PLP.part.metal>
0.0000

> <Gold.PLP.part.buried>
-3.5638

> <Gold.PLP.part.nonpolar>
-10.4091

> <Gold.PLP.part.repulsive>
0.0449

> <Gold.PLP.ligand.clash>
0.0000

> <Gold.PLP.ligand.torsion>
0.6886

> <Gold.PLP.Chemscore.Hbond>
5.9760

> <Gold.PLP.Chemscore.CHOScore>
0.0000

> <Gold.PLP.Chemscore.Metal>
0.0000

> <Gold.Chemscore.Hbonds>
donor molecule, donor type, donor heavy atom, donor atom, acceptor molecule, acceptor atom, score
      L1  H     3    30       P1  7948  2.00
      L1  H    10    27       P1  8028  1.00
      P1  H  6896  6908       L1    16  0.94
      P1  H  7989  7998       L1    12  1.00
      P1  H  7997  8009       L1    14  1.00

> <Gold.PLP.Chemscore.Internal.Correction>
0.0147

> <Gold.Rescore>
     Score         DG    S(hbond)    S(metal)    S(lipo)     H(rot)  DE(clash)    DE(int)     intcor
     11.49     -13.16       4.59        0.00      23.87       4.08       0.02       1.64       ----

> <Gold.Chemscore.Fitness>
11.4912

> <Gold.Chemscore.DG>
-13.1551

> <Gold.Chemscore.ZeroCoef>
-5.4800

> <Gold.Chemscore.Hbond>
4.5875

> <Gold.Chemscore.Metal>
0.0000

> <Gold.Chemscore.Lipo>
23.8737

> <Gold.Chemscore.Internal_Hbond>
0.0000

> <Gold.Chemscore.DEClash>
0.0234

> <Gold.Chemscore.DEInternal>
1.6405

> <Gold.Chemscore.Rot>
4.0783

> <Gold.Chemscore.Internal.Correction>
   9.000000E+99

> <Gold.Chemscore.Hbonds>
donor molecule, donor type, donor heavy atom, donor atom, acceptor molecule, acceptor atom, score
      L1  H     3    30       P1  7948  0.58
      L1  H    10    27       P1  8028  1.00
      P1  H  6896  6908       L1    16  0.91
      P1  H  7989  7998       L1    12  0.18
      P1  H  7997  8009       L1    14  0.93

> <Gold.Chemscore.Hbond.Weighted>
-15.3223

> <Gold.Chemscore.Metal.Weighted>
-0.0000

> <Gold.Chemscore.Lipo.Weighted>
-2.7932

> <Gold.Chemscore.Internal_Hbond.Weighted>
0.0000

> <Gold.Chemscore.DEClash.Weighted>
0.0234

> <Gold.Chemscore.DEInternal.Weighted>
1.6405

> <Gold.Chemscore.Rot.Weighted>
10.4404

> <Gold.Chemscore.Internal.Correction.Weighted>
   9.000000E+99

> <Gold.Protein.RotatedTorsions>
[ 6907 6896 6895 6894 ] final -176.41 input  -60.11 | X-H torsion
[ 7974 7965 7964 7962 ] final  114.70 input  175.53 | X-H torsion
[ 8008 7997 7996 7995 ] final  178.52 input   59.86 | X-H torsion
[ 10167 10162 10161 10158 ] final   67.27 input  -65.29 | X-H torsion
[ 10718 10713 10712 10709 ] final  -48.08 input   66.30 | X-H torsion
[ 10763 10752 10751 10750 ] final -128.84 input  -60.55 | X-H torsion
[ 11005 11000 10999 10996 ] final   -2.10 input  -57.11 | X-H torsion

> <Gold.Protein.ActiveResidues>
 VAL166  LYS551  ARG553  GLY616  TRP617  ASP618  TYR619  PRO620  LYS621  CYS622 
 ASP623  PHE694  ASN695  SER759  ASP760  ASP761  ALA762  ILE779  LEU786  VAL792 
 PHE793  MET794  SER795  GLU796  ALA797  LYS798  CYS799  TRP800  GLU811  SER814 

> <Gold.Protein.RotatedAtoms>
  151.6043  133.3353  159.3053 H   0  0  0  0  0  0  0  0  0  0  0  0  # atno 6907 bound_to 6896
  150.8191  134.7392  159.6767 H   0  0  0  0  0  0  0  0  0  0  0  0  # atno 6908 bound_to 6896
  152.4285  134.5828  160.0004 H   0  0  0  0  0  0  0  0  0  0  0  0  # atno 6909 bound_to 6896
  145.2012  139.2951  143.4317 H   0  0  0  0  0  0  0  0  0  0  0  0  # atno 7974 bound_to 7965
  156.0537  140.1331  157.0021 H   0  0  0  0  0  0  0  0  0  0  0  0  # atno 8008 bound_to 7997
  154.4447  140.1005  156.6485 H   0  0  0  0  0  0  0  0  0  0  0  0  # atno 8009 bound_to 7997
  155.5484  140.3462  155.4465 H   0  0  0  0  0  0  0  0  0  0  0  0  # atno 8010 bound_to 7997
  140.0913  144.4985  150.7097 H   0  0  0  0  0  0  0  0  0  0  0  0  # atno 10167 bound_to 10162
  156.2022  130.4157  149.9225 H   0  0  0  0  0  0  0  0  0  0  0  0  # atno 10718 bound_to 10713
  154.8757  135.3915  154.3822 H   0  0  0  0  0  0  0  0  0  0  0  0  # atno 10763 bound_to 10752
  153.4568  135.7029  153.6080 H   0  0  0  0  0  0  0  0  0  0  0  0  # atno 10764 bound_to 10752
  153.4596  135.3815  155.2299 H   0  0  0  0  0  0  0  0  0  0  0  0  # atno 10765 bound_to 10752
  140.6546  133.9374  155.8400 H   0  0  0  0  0  0  0  0  0  0  0  0  # atno 11005 bound_to 11000
  146.3417  140.2257  142.8592 LP  0  0  0  0  0  0  0  0  0  0  0  0  # atno 17320 bound_to 7965
  144.9946  140.8578  143.5318 LP  0  0  0  0  0  0  0  0  0  0  0  0  # atno 17321 bound_to 7965
  140.7027  143.2446  151.4818 LP  0  0  0  0  0  0  0  0  0  0  0  0  # atno 17342 bound_to 10162
  139.5723  144.1900  152.1854 LP  0  0  0  0  0  0  0  0  0  0  0  0  # atno 17343 bound_to 10162
  156.6931  130.8903  151.3590 LP  0  0  0  0  0  0  0  0  0  0  0  0  # atno 17370 bound_to 10713
  157.6992  130.9315  150.0735 LP  0  0  0  0  0  0  0  0  0  0  0  0  # atno 17371 bound_to 10713
  141.0511  134.0483  157.3782 LP  0  0  0  0  0  0  0  0  0  0  0  0  # atno 17394 bound_to 11000
  139.9034  135.0172  156.7374 LP  0  0  0  0  0  0  0  0  0  0  0  0  # atno 17395 bound_to 11000

$$$$
