AV-unprocessed.smi:2866|AV-procd|sdf|11019|dock5
  -GOLD-   2272015483D 1   1.00000     0.00000
 Structure written by MMmdl.
 41 43  0  0  0  0  0  0  0  0  1 V2000
  153.1024  142.9216  161.1932 C   0  0  0  0  0  0  0  0  0  0  0  0
  152.4411  142.5508  159.8774 C   0  0  0  0  0  0  0  0  0  0  0  0
  152.8184  141.3510  159.2330 C   0  0  0  0  0  0  0  0  0  0  0  0
  152.2274  140.9700  158.0085 C   0  0  0  0  0  0  0  0  0  0  0  0
  152.4418  139.8563  157.2143 N   0  0  0  0  0  0  0  0  0  0  0  0
  151.5929  140.0730  156.2136 C   0  0  0  0  0  0  0  0  0  0  0  0
  150.8498  141.1953  156.2681 N   0  0  0  0  0  0  0  0  0  0  0  0
  149.8618  141.6426  155.3027 C   0  0  0  0  0  0  0  0  0  0  0  0
  149.1837  140.4704  154.5686 C   0  0  2  0  0  0  0  0  0  0  0  0
  150.0830  139.9166  153.6260 O   0  0  0  0  0  0  0  0  0  0  0  0
  147.8847  140.9065  153.8646 C   0  0  0  0  0  0  0  0  0  0  0  0
  147.1967  139.7961  153.2288 N   0  0  0  0  0  0  0  0  0  0  0  0
  147.0665  139.5298  151.8832 C   0  0  0  0  0  0  0  0  0  0  0  0
  146.3351  138.3830  151.7660 C   0  0  0  0  0  0  0  0  0  0  0  0
  146.0579  138.0089  153.1132 C   0  0  0  0  0  0  0  0  0  0  0  0
  145.2802  136.8191  153.6114 C   0  0  0  0  0  0  0  0  0  0  0  0
  145.8429  135.6882  153.1854 F   0  0  0  0  0  0  0  0  0  0  0  0
  145.2612  136.8126  154.9442 F   0  0  0  0  0  0  0  0  0  0  0  0
  144.0276  136.8716  153.1589 F   0  0  0  0  0  0  0  0  0  0  0  0
  146.5832  138.8604  153.9840 N   0  0  0  0  0  0  0  0  0  0  0  0
  151.2402  141.8287  157.4425 C   0  0  0  0  0  0  0  0  0  0  0  0
  150.8577  143.0256  158.0729 C   0  0  0  0  0  0  0  0  0  0  0  0
  151.4589  143.3918  159.2953 C   0  0  0  0  0  0  0  0  0  0  0  0
  151.0398  144.6870  159.9680 C   0  0  0  0  0  0  0  0  0  0  0  0
  153.8091  142.1556  161.5137 H   0  0  0  0  0  0  0  0  0  0  0  0
  152.3553  143.0355  161.9789 H   0  0  0  0  0  0  0  0  0  0  0  0
  153.6480  143.8603  161.0941 H   0  0  0  0  0  0  0  0  0  0  0  0
  153.5674  140.7109  159.6756 H   0  0  0  0  0  0  0  0  0  0  0  0
  151.5023  139.3733  155.3955 H   0  0  0  0  0  0  0  0  0  0  0  0
  149.1166  142.2373  155.8322 H   0  0  0  0  0  0  0  0  0  0  0  0
  150.3459  142.3109  154.5888 H   0  0  0  0  0  0  0  0  0  0  0  0
  148.9453  139.6901  155.2924 H   0  0  0  0  0  0  0  0  0  0  0  0
  149.6443  139.8597  152.7909 H   0  0  0  0  0  0  0  0  0  0  0  0
  147.2007  141.3538  154.5868 H   0  0  0  0  0  0  0  0  0  0  0  0
  148.0934  141.6740  153.1173 H   0  0  0  0  0  0  0  0  0  0  0  0
  147.4972  140.1729  151.1299 H   0  0  0  0  0  0  0  0  0  0  0  0
  146.0402  137.8853  150.8541 H   0  0  0  0  0  0  0  0  0  0  0  0
  150.1076  143.6558  157.6188 H   0  0  0  0  0  0  0  0  0  0  0  0
  150.2850  145.2131  159.3829 H   0  0  0  0  0  0  0  0  0  0  0  0
  151.8960  145.3517  160.0840 H   0  0  0  0  0  0  0  0  0  0  0  0
  150.6194  144.4870  160.9538 H   0  0  0  0  0  0  0  0  0  0  0  0
  1  2  1  0  0  0  0
  1 25  1  0  0  0  0
  1 26  1  0  0  0  0
  1 27  1  0  0  0  0
  2 23  1  0  0  0  0
  2  3  2  0  0  0  0
  3  4  1  0  0  0  0
  3 28  1  0  0  0  0
  4 21  2  0  0  0  0
  4  5  1  0  0  0  0
  5  6  2  0  0  0  0
  6  7  1  0  0  0  0
  6 29  1  0  0  0  0
  7  8  1  0  0  0  0
  7 21  1  0  0  0  0
  8  9  1  0  0  0  0
  8 30  1  0  0  0  0
  8 31  1  0  0  0  0
  9 10  1  0  0  0  0
  9 11  1  0  0  0  0
  9 32  1  0  0  0  0
 10 33  1  0  0  0  0
 11 12  1  0  0  0  0
 11 34  1  0  0  0  0
 11 35  1  0  0  0  0
 12 20  1  0  0  0  0
 12 13  1  0  0  0  0
 13 14  2  0  0  0  0
 13 36  1  0  0  0  0
 14 15  1  0  0  0  0
 14 37  1  0  0  0  0
 15 16  1  0  0  0  0
 15 20  2  0  0  0  0
 16 17  1  0  0  0  0
 16 18  1  0  0  0  0
 16 19  1  0  0  0  0
 21 22  1  0  0  0  0
 22 23  2  0  0  0  0
 22 38  1  0  0  0  0
 23 24  1  0  0  0  0
 24 39  1  0  0  0  0
 24 40  1  0  0  0  0
 24 41  1  0  0  0  0
M  END
> <s_m_source_file>
AV-unprocessed.smi

> <i_m_source_file_index>
2866

> <i_lp_mmshare_version>
43012

> <i_f3d_flags>
0

> <s_epik_input>
W0NIM11jKFtjSF0xKWMoW0NIM10pW2NIXWMoYzEyKW4oW2NIXW4yKVtDSDJdW0NASF0oW09IXSlbQ0gyXW4zW2NIXVtjSF1jKG4zKUMoRikoRilG

> <s_epik_cmdline>
J2VwaWtfcHl0aG9uJywgJy1waCcsICc3LjAnLCAnLXRuJywgJzgnLCAnLW1hJywgJzIwMCcsICctbWV0YWxfYmluZGluZycsICctaW1hZScsICc8aW5maWxlLm1hZT4nLCAnLW9tYWUnLCAnPG91dGZpbGUubWFlPic=

> <r_lp_tautomer_probability>
1

> <r_epik_Ionization_Penalty>
0.1021

> <r_epik_Ionization_Penalty_Charging>
0

> <r_epik_Ionization_Penalty_Neutral>
0.1021

> <r_epik_State_Penalty>
0.0920694

> <r_epik_Charging_Adjusted_Penalty>
0.0920694

> <i_epik_Tot_Q>
0

> <i_epik_Tot_abs_Q>
0

> <r_epik_Metal_State_Penalty>
0.0784291

> <b_epik_Metal_Only>
0

> <s_lp_Force_Field>
OPLS_2005

> <r_lp_Energy>
11.3604

> <b_lp_Chiralities_Consistent>
1

> <s_lp_Variant>
AV-unprocessed.smi:2866-1

> <Gold.Version>
5.8.1

> <Gold.Id.Protein>
6NUR|6NUR_protein|mol2

> <Gold.PLP.Fitness>
57.1195

> <Gold.PLP.PLP>
-48.1480

> <Gold.PLP.part.hbond>
-2.8793

> <Gold.PLP.part.metal>
0.0000

> <Gold.PLP.part.buried>
0.9412

> <Gold.PLP.part.nonpolar>
-45.9535

> <Gold.PLP.part.repulsive>
0.1558

> <Gold.PLP.ligand.clash>
0.0007

> <Gold.PLP.ligand.torsion>
0.6049

> <Gold.PLP.Chemscore.Hbond>
2.7680

> <Gold.PLP.Chemscore.CHOScore>
0.6094

> <Gold.PLP.Chemscore.Metal>
0.0000

> <Gold.Chemscore.Hbonds>
donor molecule, donor type, donor heavy atom, donor atom, acceptor molecule, acceptor atom, score
      L1  H    10    33       P1  7957  1.00
      P1  H  7989  7998       L1    10  0.77
      P1  H  7997  8009       L1     5  1.00
      L1  C    13    36       P1  7957  0.64

> <Gold.PLP.Chemscore.Internal.Correction>
0.0497

> <Gold.Rescore>
     Score         DG    S(hbond)    S(metal)    S(lipo)     H(rot)  DE(clash)    DE(int)     intcor
     19.05     -20.65       2.42        0.00     113.48       2.42       0.28       1.32       ----

> <Gold.Chemscore.Fitness>
19.0453

> <Gold.Chemscore.DG>
-20.6494

> <Gold.Chemscore.ZeroCoef>
-5.4800

> <Gold.Chemscore.Hbond>
2.4246

> <Gold.Chemscore.Metal>
0.0000

> <Gold.Chemscore.Lipo>
113.4834

> <Gold.Chemscore.Internal_Hbond>
0.0000

> <Gold.Chemscore.DEClash>
0.2840

> <Gold.Chemscore.DEInternal>
1.3201

> <Gold.Chemscore.Rot>
2.4243

> <Gold.Chemscore.Internal.Correction>
   9.000000E+99

> <Gold.Chemscore.Hbonds>
donor molecule, donor type, donor heavy atom, donor atom, acceptor molecule, acceptor atom, score
      L1  H    10    33       P1  7957  0.95
      P1  H  7989  7998       L1    10  0.49
      P1  H  7997  8009       L1     5  0.28

> <Gold.Chemscore.Hbond.Weighted>
-8.0982

> <Gold.Chemscore.Metal.Weighted>
-0.0000

> <Gold.Chemscore.Lipo.Weighted>
-13.2776

> <Gold.Chemscore.Internal_Hbond.Weighted>
0.0000

> <Gold.Chemscore.DEClash.Weighted>
0.2840

> <Gold.Chemscore.DEInternal.Weighted>
1.3201

> <Gold.Chemscore.Rot.Weighted>
6.2063

> <Gold.Chemscore.Internal.Correction.Weighted>
   9.000000E+99

> <Gold.Protein.RotatedTorsions>
[ 6907 6896 6895 6894 ] final  104.84 input  -60.11 | X-H torsion
[ 7974 7965 7964 7962 ] final  -96.80 input  175.53 | X-H torsion
[ 8008 7997 7996 7995 ] final  178.32 input   59.86 | X-H torsion
[ 10167 10162 10161 10158 ] final   -4.93 input  -65.29 | X-H torsion
[ 10718 10713 10712 10709 ] final  112.43 input   66.30 | X-H torsion
[ 10763 10752 10751 10750 ] final   64.69 input  -60.55 | X-H torsion
[ 11005 11000 10999 10996 ] final -176.99 input  -57.11 | X-H torsion

> <Gold.Protein.ActiveResidues>
 VAL166  LYS551  ARG553  GLY616  TRP617  ASP618  TYR619  PRO620  LYS621  CYS622 
 ASP623  PHE694  ASN695  SER759  ASP760  ASP761  ALA762  ILE779  LEU786  VAL792 
 PHE793  MET794  SER795  GLU796  ALA797  LYS798  CYS799  TRP800  GLU811  SER814 

> <Gold.Protein.RotatedAtoms>
  152.5251  133.9617  159.7720 H   0  0  0  0  0  0  0  0  0  0  0  0  # atno 6907 bound_to 6896
  150.9906  133.6145  159.2716 H   0  0  0  0  0  0  0  0  0  0  0  0  # atno 6908 bound_to 6896
  151.3289  135.0843  159.9385 H   0  0  0  0  0  0  0  0  0  0  0  0  # atno 6909 bound_to 6896
  145.3421  140.9461  143.2602 H   0  0  0  0  0  0  0  0  0  0  0  0  # atno 7974 bound_to 7965
  156.0559  140.1336  156.9997 H   0  0  0  0  0  0  0  0  0  0  0  0  # atno 8008 bound_to 7997
  154.4457  140.1001  156.6516 H   0  0  0  0  0  0  0  0  0  0  0  0  # atno 8009 bound_to 7997
  155.5452  140.3461  155.4458 H   0  0  0  0  0  0  0  0  0  0  0  0  # atno 8010 bound_to 7997
  140.6945  143.6366  150.8473 H   0  0  0  0  0  0  0  0  0  0  0  0  # atno 10167 bound_to 10162
  157.6393  131.0967  150.6894 H   0  0  0  0  0  0  0  0  0  0  0  0  # atno 10718 bound_to 10713
  153.0066  135.5384  154.6550 H   0  0  0  0  0  0  0  0  0  0  0  0  # atno 10763 bound_to 10752
  154.5772  135.2847  155.0770 H   0  0  0  0  0  0  0  0  0  0  0  0  # atno 10764 bound_to 10752
  154.1913  135.6499  153.5113 H   0  0  0  0  0  0  0  0  0  0  0  0  # atno 10765 bound_to 10752
  140.4459  134.6388  157.4779 H   0  0  0  0  0  0  0  0  0  0  0  0  # atno 11005 bound_to 11000
  144.8782  139.4940  143.6735 LP  0  0  0  0  0  0  0  0  0  0  0  0  # atno 17320 bound_to 7965
  146.3003  139.7406  142.9096 LP  0  0  0  0  0  0  0  0  0  0  0  0  # atno 17321 bound_to 7965
  140.0083  143.5670  152.2849 LP  0  0  0  0  0  0  0  0  0  0  0  0  # atno 17342 bound_to 10162
  139.6384  144.7652  151.2389 LP  0  0  0  0  0  0  0  0  0  0  0  0  # atno 17343 bound_to 10162
  156.7220  130.4683  149.5520 LP  0  0  0  0  0  0  0  0  0  0  0  0  # atno 17370 bound_to 10713
  156.1659  130.6405  151.0777 LP  0  0  0  0  0  0  0  0  0  0  0  0  # atno 17371 bound_to 10713
  140.0039  134.6794  155.9487 LP  0  0  0  0  0  0  0  0  0  0  0  0  # atno 17394 bound_to 11000
  141.1685  133.6537  156.4566 LP  0  0  0  0  0  0  0  0  0  0  0  0  # atno 17395 bound_to 11000

$$$$
