AV-unprocessed.smi:794|AV-procd|sdf|3756|dock6
  -GOLD-   22720 1193D 1   1.00000     0.00000
 Structure written by MMmdl.
 41 43  0  0  0  0  0  0  0  0  1 V2000
  153.4555  141.1813  160.5790 C   0  0  0  0  0  0  0  0  0  0  0  0
  152.4981  142.1448  159.9479 C   0  0  0  0  0  0  0  0  0  0  0  0
  151.8858  141.8156  158.7350 N   0  0  0  0  0  0  0  0  0  0  0  0
  151.0626  142.7774  158.3057 C   0  0  0  0  0  0  0  0  0  0  0  0
  150.3106  142.7113  157.1036 N   0  0  0  0  0  0  0  0  0  0  0  0
  150.0997  141.6445  156.3131 C   0  0  0  0  0  0  0  0  0  0  0  0
  150.5408  140.5125  156.5142 O   0  0  0  0  0  0  0  0  0  0  0  0
  149.3360  141.9677  155.2598 N   0  0  0  0  0  0  0  0  0  0  0  0
  148.8906  141.0409  154.2215 C   0  0  2  0  0  0  0  0  0  0  0  0
  147.5147  141.4702  153.6657 C   0  0  1  0  0  0  0  0  0  0  0  0
  147.2665  140.7309  152.3387 C   0  0  0  0  0  0  0  0  0  0  0  0
  147.0005  139.2878  152.8071 C   0  0  0  0  0  0  0  0  0  0  0  0
  147.1359  139.3907  154.3420 C   0  0  2  0  0  0  0  0  0  0  0  0
  146.5326  140.7660  154.5976 C   0  0  0  0  0  0  0  0  0  0  0  0
  148.6021  139.6227  154.7792 C   0  0  1  0  0  0  0  0  0  0  0  0
  149.5951  138.5335  154.3299 C   0  0  0  0  0  0  0  0  0  0  0  0
  150.9201  138.9548  154.5721 O   0  0  0  0  0  0  0  0  0  0  0  0
  150.9862  144.1672  159.3746 S   0  0  0  0  0  0  0  0  0  0  0  0
  152.1262  143.3765  160.4353 C   0  0  0  0  0  0  0  0  0  0  0  0
  152.5848  144.0335  161.6944 C   0  0  0  0  0  0  0  0  0  0  0  0
  154.4266  141.6469  160.7474 H   0  0  0  0  0  0  0  0  0  0  0  0
  153.6170  140.3032  159.9528 H   0  0  0  0  0  0  0  0  0  0  0  0
  153.0832  140.8338  161.5428 H   0  0  0  0  0  0  0  0  0  0  0  0
  149.8799  143.5769  156.8141 H   0  0  0  0  0  0  0  0  0  0  0  0
  149.0232  142.9238  155.1760 H   0  0  0  0  0  0  0  0  0  0  0  0
  149.6216  141.0140  153.4109 H   0  0  0  0  0  0  0  0  0  0  0  0
  147.3840  142.5501  153.5861 H   0  0  0  0  0  0  0  0  0  0  0  0
  146.3918  141.1340  151.8264 H   0  0  0  0  0  0  0  0  0  0  0  0
  148.1139  140.7993  151.6554 H   0  0  0  0  0  0  0  0  0  0  0  0
  145.9887  138.9850  152.5342 H   0  0  0  0  0  0  0  0  0  0  0  0
  147.6838  138.5667  152.3602 H   0  0  0  0  0  0  0  0  0  0  0  0
  146.6478  138.5756  154.8772 H   0  0  0  0  0  0  0  0  0  0  0  0
  146.6105  141.0895  155.6369 H   0  0  0  0  0  0  0  0  0  0  0  0
  145.4929  140.8515  154.2758 H   0  0  0  0  0  0  0  0  0  0  0  0
  148.6053  139.6479  155.8711 H   0  0  0  0  0  0  0  0  0  0  0  0
  149.4225  137.6108  154.8843 H   0  0  0  0  0  0  0  0  0  0  0  0
  149.4874  138.3033  153.2700 H   0  0  0  0  0  0  0  0  0  0  0  0
  151.2511  138.4926  155.3270 H   0  0  0  0  0  0  0  0  0  0  0  0
  152.3626  143.4088  162.5597 H   0  0  0  0  0  0  0  0  0  0  0  0
  152.0940  144.9960  161.8403 H   0  0  0  0  0  0  0  0  0  0  0  0
  153.6609  144.2054  161.6695 H   0  0  0  0  0  0  0  0  0  0  0  0
  1  2  1  0  0  0  0
  1 21  1  0  0  0  0
  1 22  1  0  0  0  0
  1 23  1  0  0  0  0
  2 19  2  0  0  0  0
  2  3  1  0  0  0  0
  3  4  2  0  0  0  0
  4  5  1  0  0  0  0
  4 18  1  0  0  0  0
  5  6  1  0  0  0  0
  5 24  1  0  0  0  0
  6  7  2  0  0  0  0
  6  8  1  0  0  0  0
  8  9  1  0  0  0  0
  8 25  1  0  0  0  0
  9 15  1  0  0  0  0
  9 10  1  0  0  0  0
  9 26  1  0  0  0  0
 10 14  1  0  0  0  0
 10 11  1  0  0  0  0
 10 27  1  0  0  0  0
 11 12  1  0  0  0  0
 11 28  1  0  0  0  0
 11 29  1  0  0  0  0
 12 13  1  0  0  0  0
 12 30  1  0  0  0  0
 12 31  1  0  0  0  0
 13 14  1  0  0  0  0
 13 15  1  0  0  0  0
 13 32  1  0  0  0  0
 14 33  1  0  0  0  0
 14 34  1  0  0  0  0
 15 16  1  0  0  0  0
 15 35  1  0  0  0  0
 16 17  1  0  0  0  0
 16 36  1  0  0  0  0
 16 37  1  0  0  0  0
 17 38  1  0  0  0  0
 18 19  1  0  0  0  0
 19 20  1  0  0  0  0
 20 39  1  0  0  0  0
 20 40  1  0  0  0  0
 20 41  1  0  0  0  0
M  END
> <s_m_source_file>
AV-unprocessed.smi

> <i_m_source_file_index>
794

> <i_lp_mmshare_version>
43012

> <i_f3d_flags>
0

> <s_epik_input>
W0NIM11jMW5jKHNjMVtDSDNdKVtOSF1DKD1PKVtOSF1bQ0BIXShbQ0BASF0yMylbQ0BIXShbQ0gyXVtPSF0pW0NAQEhdKFtDSDJdMylbQ0gyXVtDSDJdMg==

> <s_epik_cmdline>
J2VwaWtfcHl0aG9uJywgJy1waCcsICc3LjAnLCAnLXRuJywgJzgnLCAnLW1hJywgJzIwMCcsICctbWV0YWxfYmluZGluZycsICctaW1hZScsICc8aW5maWxlLm1hZT4nLCAnLW9tYWUnLCAnPG91dGZpbGUubWFlPic=

> <r_lp_tautomer_probability>
0.999

> <r_epik_Ionization_Penalty>
0.000713029

> <r_epik_Ionization_Penalty_Charging>
0

> <r_epik_Ionization_Penalty_Neutral>
0.000713029

> <r_epik_State_Penalty>
0.000177984

> <r_epik_Charging_Adjusted_Penalty>
0.000177984

> <i_epik_Tot_Q>
0

> <i_epik_Tot_abs_Q>
0

> <r_epik_Metal_State_Penalty>
-0

> <b_epik_Metal_Only>
0

> <s_lp_Force_Field>
OPLS_2005

> <r_lp_Energy>
47.5891

> <b_lp_Chiralities_Consistent>
1

> <s_lp_Variant>
AV-unprocessed.smi:794-1

> <Gold.Version>
5.8.1

> <Gold.Id.Protein>
6NUR|6NUR_protein|mol2

> <Gold.PLP.Fitness>
47.3039

> <Gold.PLP.PLP>
-39.1991

> <Gold.PLP.part.hbond>
-3.0000

> <Gold.PLP.part.metal>
0.0000

> <Gold.PLP.part.buried>
-4.0003

> <Gold.PLP.part.nonpolar>
-31.7518

> <Gold.PLP.part.repulsive>
0.2050

> <Gold.PLP.ligand.clash>
0.0112

> <Gold.PLP.ligand.torsion>
0.4403

> <Gold.PLP.Chemscore.Hbond>
2.9920

> <Gold.PLP.Chemscore.CHOScore>
0.0000

> <Gold.PLP.Chemscore.Metal>
0.0000

> <Gold.Chemscore.Hbonds>
donor molecule, donor type, donor heavy atom, donor atom, acceptor molecule, acceptor atom, score
      L1  H     5    24       P1  8028  1.00
      L1  H     8    25       P1  8028  1.00
      P1  H  7989  7998       L1    17  0.32

> <Gold.PLP.Chemscore.Internal.Correction>
0.0206

> <Gold.Rescore>
     Score         DG    S(hbond)    S(metal)    S(lipo)     H(rot)  DE(clash)    DE(int)     intcor
     18.25     -22.31       2.78        0.00     103.36       1.78       0.86       3.20       ----

> <Gold.Chemscore.Fitness>
18.2544

> <Gold.Chemscore.DG>
-22.3084

> <Gold.Chemscore.ZeroCoef>
-5.4800

> <Gold.Chemscore.Hbond>
2.7818

> <Gold.Chemscore.Metal>
0.0000

> <Gold.Chemscore.Lipo>
103.3614

> <Gold.Chemscore.Internal_Hbond>
0.0000

> <Gold.Chemscore.DEClash>
0.8580

> <Gold.Chemscore.DEInternal>
3.1959

> <Gold.Chemscore.Rot>
1.7798

> <Gold.Chemscore.Internal.Correction>
   9.000000E+99

> <Gold.Chemscore.Hbonds>
donor molecule, donor type, donor heavy atom, donor atom, acceptor molecule, acceptor atom, score
      L1  H     5    24       P1  8028  0.98
      L1  H     8    25       P1  8028  0.99
      P1  H  7989  7998       L1    17  0.31

> <Gold.Chemscore.Hbond.Weighted>
-9.2913

> <Gold.Chemscore.Metal.Weighted>
-0.0000

> <Gold.Chemscore.Lipo.Weighted>
-12.0933

> <Gold.Chemscore.Internal_Hbond.Weighted>
0.0000

> <Gold.Chemscore.DEClash.Weighted>
0.8580

> <Gold.Chemscore.DEInternal.Weighted>
3.1959

> <Gold.Chemscore.Rot.Weighted>
4.5562

> <Gold.Chemscore.Internal.Correction.Weighted>
   9.000000E+99

> <Gold.Protein.RotatedTorsions>
[ 6907 6896 6895 6894 ] final  122.27 input  -60.11 | X-H torsion
[ 7974 7965 7964 7962 ] final  164.52 input  175.53 | X-H torsion
[ 8008 7997 7996 7995 ] final  137.29 input   59.86 | X-H torsion
[ 10167 10162 10161 10158 ] final  -73.28 input  -65.29 | X-H torsion
[ 10718 10713 10712 10709 ] final -160.79 input   66.30 | X-H torsion
[ 10763 10752 10751 10750 ] final   87.65 input  -60.55 | X-H torsion
[ 11005 11000 10999 10996 ] final   39.35 input  -57.11 | X-H torsion

> <Gold.Protein.ActiveResidues>
 VAL166  LYS551  ARG553  GLY616  TRP617  ASP618  TYR619  PRO620  LYS621  CYS622 
 ASP623  PHE694  ASN695  SER759  ASP760  ASP761  ALA762  ILE779  LEU786  VAL792 
 PHE793  MET794  SER795  GLU796  ALA797  LYS798  CYS799  TRP800  GLU811  SER814 

> <Gold.Protein.RotatedAtoms>
  152.4256  133.7189  159.6521 H   0  0  0  0  0  0  0  0  0  0  0  0  # atno 6907 bound_to 6896
  150.8132  133.8372  159.3178 H   0  0  0  0  0  0  0  0  0  0  0  0  # atno 6908 bound_to 6896
  151.6076  135.1045  160.0125 H   0  0  0  0  0  0  0  0  0  0  0  0  # atno 6909 bound_to 6896
  144.7541  139.8338  143.6356 H   0  0  0  0  0  0  0  0  0  0  0  0  # atno 7974 bound_to 7965
  156.3002  140.2423  156.3886 H   0  0  0  0  0  0  0  0  0  0  0  0  # atno 8008 bound_to 7997
  154.8635  140.0419  157.1700 H   0  0  0  0  0  0  0  0  0  0  0  0  # atno 8009 bound_to 7997
  154.8871  140.2958  155.5395 H   0  0  0  0  0  0  0  0  0  0  0  0  # atno 8010 bound_to 7997
  140.5123  143.2343  151.7571 H   0  0  0  0  0  0  0  0  0  0  0  0  # atno 10167 bound_to 10162
  156.5871  130.8754  151.2880 H   0  0  0  0  0  0  0  0  0  0  0  0  # atno 10718 bound_to 10713
  153.1690  135.4535  154.9876 H   0  0  0  0  0  0  0  0  0  0  0  0  # atno 10763 bound_to 10752
  154.7952  135.3235  154.7686 H   0  0  0  0  0  0  0  0  0  0  0  0  # atno 10764 bound_to 10752
  153.8164  135.6950  153.4888 H   0  0  0  0  0  0  0  0  0  0  0  0  # atno 10765 bound_to 10752
  140.2037  134.3839  155.8083 H   0  0  0  0  0  0  0  0  0  0  0  0  # atno 11005 bound_to 11000
  146.1530  139.4619  143.0036 LP  0  0  0  0  0  0  0  0  0  0  0  0  # atno 17320 bound_to 7965
  145.6839  141.0183  143.1591 LP  0  0  0  0  0  0  0  0  0  0  0  0  # atno 17321 bound_to 7965
  139.4899  144.4372  151.9805 LP  0  0  0  0  0  0  0  0  0  0  0  0  # atno 17342 bound_to 10162
  140.3465  144.3140  150.5957 LP  0  0  0  0  0  0  0  0  0  0  0  0  # atno 17343 bound_to 10162
  157.7313  130.9698  150.1872 LP  0  0  0  0  0  0  0  0  0  0  0  0  # atno 17370 bound_to 10713
  156.2582  130.3708  149.8159 LP  0  0  0  0  0  0  0  0  0  0  0  0  # atno 17371 bound_to 10713
  141.2227  133.7107  156.8301 LP  0  0  0  0  0  0  0  0  0  0  0  0  # atno 17394 bound_to 11000
  140.2026  134.8886  157.3186 LP  0  0  0  0  0  0  0  0  0  0  0  0  # atno 17395 bound_to 11000

$$$$
