AV-unprocessed.smi:1455|AV-procd|sdf|5916|dock3
  -GOLD-   22720 6 03D 1   1.00000     0.00000
 Structure written by MMmdl.
 31 32  0  0  0  0  0  0  0  0  2 V2000
  152.5282  140.5275  157.7100 O   0  0  0  0  0  0  0  0  0  0  0  0
  151.6626  141.3110  157.3210 C   0  0  0  0  0  0  0  0  0  0  0  0
  150.5987  140.8172  156.3251 C   0  0  0  0  0  0  0  0  0  0  0  0
  150.7492  139.4114  155.9064 N   0  0  0  0  0  0  0  0  0  0  0  0
  149.7203  138.5176  156.2523 C   0  0  0  0  0  0  0  0  0  0  0  0
  149.7609  137.2176  155.9036 C   0  0  0  0  0  0  0  0  0  0  0  0
  150.9126  136.7417  155.1475 C   0  0  0  0  0  0  0  0  0  0  0  0
  150.9680  135.5574  154.8225 O   0  0  0  0  0  0  0  0  0  0  0  0
  151.8835  137.6483  154.8327 N   0  5  0  0  0  0  0  0  0  0  0  0
  151.8271  138.9685  155.1909 C   0  0  0  0  0  0  0  0  0  0  0  0
  152.7084  139.7720  154.8858 O   0  0  0  0  0  0  0  0  0  0  0  0
  151.5965  142.5863  157.7381 N   0  0  0  0  0  0  0  0  0  0  0  0
  152.5092  143.2183  158.6846 C   0  0  0  0  0  0  0  0  0  0  0  0
  152.3077  142.6769  160.1156 C   0  0  0  0  0  0  0  0  0  0  0  0
  152.1359  143.9025  161.0153 C   0  0  0  0  0  0  0  0  0  0  0  0
  151.5414  144.9665  160.0978 C   0  0  0  0  0  0  0  0  0  0  0  0
  152.2386  144.7317  158.7581 C   0  0  0  0  0  0  0  0  0  0  0  0
  149.6124  140.9815  156.7618 H   0  0  0  0  0  0  0  0  0  0  0  0
  150.6296  141.4681  155.4502 H   0  0  0  0  0  0  0  0  0  0  0  0
  148.9012  138.9527  156.8059 H   0  0  0  0  0  0  0  0  0  0  0  0
  148.9603  136.5449  156.1738 H   0  0  0  0  0  0  0  0  0  0  0  0
  150.8568  143.1630  157.3630 H   0  0  0  0  0  0  0  0  0  0  0  0
  153.5382  143.0585  158.3575 H   0  0  0  0  0  0  0  0  0  0  0  0
  151.4058  142.0650  160.1735 H   0  0  0  0  0  0  0  0  0  0  0  0
  153.1402  142.0505  160.4374 H   0  0  0  0  0  0  0  0  0  0  0  0
  151.5104  143.7003  161.8853 H   0  0  0  0  0  0  0  0  0  0  0  0
  153.1107  144.2333  161.3755 H   0  0  0  0  0  0  0  0  0  0  0  0
  150.4687  144.8011  159.9882 H   0  0  0  0  0  0  0  0  0  0  0  0
  151.6876  145.9785  160.4759 H   0  0  0  0  0  0  0  0  0  0  0  0
  153.1893  145.2663  158.7521 H   0  0  0  0  0  0  0  0  0  0  0  0
  151.6544  145.1098  157.9177 H   0  0  0  0  0  0  0  0  0  0  0  0
  1  2  2  0  0  0  0
  2  3  1  0  0  0  0
  2 12  1  0  0  0  0
  3  4  1  0  0  0  0
  3 18  1  0  0  0  0
  3 19  1  0  0  0  0
  4 10  1  0  0  0  0
  4  5  1  0  0  0  0
  5  6  2  0  0  0  0
  5 20  1  0  0  0  0
  6  7  1  0  0  0  0
  6 21  1  0  0  0  0
  7  8  2  0  0  0  0
  7  9  1  0  0  0  0
  9 10  1  0  0  0  0
 10 11  2  0  0  0  0
 12 13  1  0  0  0  0
 12 22  1  0  0  0  0
 13 17  1  0  0  0  0
 13 14  1  0  0  0  0
 13 23  1  0  0  0  0
 14 15  1  0  0  0  0
 14 24  1  0  0  0  0
 14 25  1  0  0  0  0
 15 16  1  0  0  0  0
 15 26  1  0  0  0  0
 15 27  1  0  0  0  0
 16 17  1  0  0  0  0
 16 28  1  0  0  0  0
 16 29  1  0  0  0  0
 17 30  1  0  0  0  0
 17 31  1  0  0  0  0
M  CHG  1   9  -1
M  END
> <s_m_source_file>
AV-unprocessed.smi

> <i_m_source_file_index>
1455

> <i_lp_mmshare_version>
43012

> <i_f3d_flags>
0

> <s_epik_input>
W0NIMl0xW0NIMl1bQ0gyXVtDSDJdW0NIXTFbTkhdQyg9TylbQ0gyXW4yW2NIXVtjSF1jKD1PKVtuSF1jMj1P

> <s_epik_cmdline>
J2VwaWtfcHl0aG9uJywgJy1waCcsICc3LjAnLCAnLXRuJywgJzgnLCAnLW1hJywgJzIwMCcsICctbWV0YWxfYmluZGluZycsICctaW1hZScsICc8aW5maWxlLm1hZT4nLCAnLW9tYWUnLCAnPG91dGZpbGUubWFlPic=

> <r_lp_tautomer_probability>
0.999537

> <r_epik_Ionization_Penalty>
3.09122

> <r_epik_Ionization_Penalty_Charging>
2.83991e-08

> <r_epik_Ionization_Penalty_Neutral>
3.09122

> <r_epik_State_Penalty>
3.09028

> <r_epik_Charging_Adjusted_Penalty>
3.09028

> <i_epik_Tot_Q>
-1

> <i_epik_Tot_abs_Q>
1

> <r_epik_Metal_State_Penalty>
0.460928

> <b_epik_Metal_Only>
1

> <s_lp_Force_Field>
OPLS_2005

> <r_lp_Energy>
25.8803

> <b_lp_Chiralities_Consistent>
1

> <s_lp_Variant>
AV-unprocessed.smi:1455-2

> <Gold.Version>
5.8.1

> <Gold.Id.Protein>
6NUR|6NUR_protein|mol2

> <Gold.PLP.Fitness>
41.6362

> <Gold.PLP.PLP>
-35.3396

> <Gold.PLP.part.hbond>
-4.6084

> <Gold.PLP.part.metal>
0.0000

> <Gold.PLP.part.buried>
-3.4386

> <Gold.PLP.part.nonpolar>
-27.8887

> <Gold.PLP.part.repulsive>
0.3092

> <Gold.PLP.ligand.clash>
0.0000

> <Gold.PLP.ligand.torsion>
0.1028

> <Gold.PLP.Chemscore.Hbond>
2.1659

> <Gold.PLP.Chemscore.CHOScore>
0.0000

> <Gold.PLP.Chemscore.Metal>
0.0000

> <Gold.Chemscore.Hbonds>
donor molecule, donor type, donor heavy atom, donor atom, acceptor molecule, acceptor atom, score
      P1  H  7989  7998       L1    11  0.47
      P1  H  7997  8009       L1    11  0.94
      P1  H 10752 10765       L1     8  0.70

> <Gold.PLP.Chemscore.Internal.Correction>
0.0045

> <Gold.Rescore>
     Score         DG    S(hbond)    S(metal)    S(lipo)     H(rot)  DE(clash)    DE(int)     intcor
     15.44     -15.79       1.86        0.00      71.87       1.69       0.14       0.21       ----

> <Gold.Chemscore.Fitness>
15.4378

> <Gold.Chemscore.DG>
-15.7852

> <Gold.Chemscore.ZeroCoef>
-5.4800

> <Gold.Chemscore.Hbond>
1.8611

> <Gold.Chemscore.Metal>
0.0000

> <Gold.Chemscore.Lipo>
71.8730

> <Gold.Chemscore.Internal_Hbond>
0.0000

> <Gold.Chemscore.DEClash>
0.1367

> <Gold.Chemscore.DEInternal>
0.2107

> <Gold.Chemscore.Rot>
1.6875

> <Gold.Chemscore.Internal.Correction>
   9.000000E+99

> <Gold.Chemscore.Hbonds>
donor molecule, donor type, donor heavy atom, donor atom, acceptor molecule, acceptor atom, score
      P1  H  7989  7998       L1    11  0.10
      P1  H  7997  8009       L1    11  0.90
      P1  H 10752 10765       L1     8  0.07

> <Gold.Chemscore.Hbond.Weighted>
-6.2161

> <Gold.Chemscore.Metal.Weighted>
-0.0000

> <Gold.Chemscore.Lipo.Weighted>
-8.4091

> <Gold.Chemscore.Internal_Hbond.Weighted>
0.0000

> <Gold.Chemscore.DEClash.Weighted>
0.1367

> <Gold.Chemscore.DEInternal.Weighted>
0.2107

> <Gold.Chemscore.Rot.Weighted>
4.3200

> <Gold.Chemscore.Internal.Correction.Weighted>
   9.000000E+99

> <Gold.Protein.RotatedTorsions>
[ 6907 6896 6895 6894 ] final   52.13 input  -60.11 | X-H torsion
[ 7974 7965 7964 7962 ] final -102.10 input  175.53 | X-H torsion
[ 8008 7997 7996 7995 ] final -135.54 input   59.86 | X-H torsion
[ 10167 10162 10161 10158 ] final  123.16 input  -65.29 | X-H torsion
[ 10718 10713 10712 10709 ] final  -92.65 input   66.30 | X-H torsion
[ 10763 10752 10751 10750 ] final -170.70 input  -60.55 | X-H torsion
[ 11005 11000 10999 10996 ] final -131.73 input  -57.11 | X-H torsion

> <Gold.Protein.ActiveResidues>
 VAL166  LYS551  ARG553  GLY616  TRP617  ASP618  TYR619  PRO620  LYS621  CYS622 
 ASP623  PHE694  ASN695  SER759  ASP760  ASP761  ALA762  ILE779  LEU786  VAL792 
 PHE793  MET794  SER795  GLU796  ALA797  LYS798  CYS799  TRP800  GLU811  SER814 

> <Gold.Protein.RotatedAtoms>
  152.3200  134.7392  160.0315 H   0  0  0  0  0  0  0  0  0  0  0  0  # atno 6907 bound_to 6896
  151.7843  133.3347  159.3489 H   0  0  0  0  0  0  0  0  0  0  0  0  # atno 6908 bound_to 6896
  150.7365  134.5832  159.5994 H   0  0  0  0  0  0  0  0  0  0  0  0  # atno 6909 bound_to 6896
  145.2730  140.9304  143.2975 H   0  0  0  0  0  0  0  0  0  0  0  0  # atno 7974 bound_to 7965
  155.3804  140.0493  157.3043 H   0  0  0  0  0  0  0  0  0  0  0  0  # atno 8008 bound_to 7997
  154.5085  140.2183  155.9165 H   0  0  0  0  0  0  0  0  0  0  0  0  # atno 8009 bound_to 7997
  156.1555  140.3127  155.8724 H   0  0  0  0  0  0  0  0  0  0  0  0  # atno 8010 bound_to 7997
  139.5816  144.6988  151.3514 H   0  0  0  0  0  0  0  0  0  0  0  0  # atno 10167 bound_to 10162
  156.0004  130.4995  150.5657 H   0  0  0  0  0  0  0  0  0  0  0  0  # atno 10718 bound_to 10713
  154.6386  135.2895  155.0130 H   0  0  0  0  0  0  0  0  0  0  0  0  # atno 10763 bound_to 10752
  154.1265  135.6540  153.4917 H   0  0  0  0  0  0  0  0  0  0  0  0  # atno 10764 bound_to 10752
  153.0315  135.5300  154.7244 H   0  0  0  0  0  0  0  0  0  0  0  0  # atno 10765 bound_to 10752
  140.9233  134.1416  157.4296 H   0  0  0  0  0  0  0  0  0  0  0  0  # atno 11005 bound_to 11000
  144.9318  139.4289  143.6491 LP  0  0  0  0  0  0  0  0  0  0  0  0  # atno 17320 bound_to 7965
  146.3240  139.8233  142.8922 LP  0  0  0  0  0  0  0  0  0  0  0  0  # atno 17321 bound_to 7965
  140.7093  143.7432  150.7538 LP  0  0  0  0  0  0  0  0  0  0  0  0  # atno 17342 bound_to 10162
  140.0965  143.4828  152.2449 LP  0  0  0  0  0  0  0  0  0  0  0  0  # atno 17343 bound_to 10162
  157.3560  131.0741  151.1675 LP  0  0  0  0  0  0  0  0  0  0  0  0  # atno 17370 bound_to 10713
  157.2476  130.6598  149.5917 LP  0  0  0  0  0  0  0  0  0  0  0  0  # atno 17371 bound_to 10713
  139.8780  134.9979  156.5872 LP  0  0  0  0  0  0  0  0  0  0  0  0  # atno 17394 bound_to 11000
  140.7959  133.8544  155.8685 LP  0  0  0  0  0  0  0  0  0  0  0  0  # atno 17395 bound_to 11000

$$$$
