AV-unprocessed.smi:951|AV-procd|sdf|4252|dock9
  -GOLD-   22720 2163D 1   1.00000     0.00000
 Structure written by MMmdl.
 51 53  0  0  0  0  0  0  0  0  1 V2000
  150.5442  137.9021  159.5268 O   0  0  0  0  0  0  0  0  0  0  0  0
  149.9239  138.0993  158.4810 C   0  0  0  0  0  0  0  0  0  0  0  0
  150.0505  139.2174  157.7525 N   0  0  0  0  0  0  0  0  0  0  0  0
  150.9095  140.3376  158.1089 C   0  0  0  0  0  0  0  0  0  0  0  0
  150.2393  141.6701  157.7465 C   0  0  0  0  0  0  0  0  0  0  0  0
  150.9537  142.8589  158.3611 C   0  0  0  0  0  0  0  0  0  0  0  0
  151.6672  143.7689  157.5517 C   0  0  0  0  0  0  0  0  0  0  0  0
  152.3083  144.8586  158.1723 C   0  0  0  0  0  0  0  0  0  0  0  0
  152.2105  144.9966  159.5703 C   0  0  0  0  0  0  0  0  0  0  0  0
  151.4723  144.0349  160.2888 C   0  0  0  0  0  0  0  0  0  0  0  0
  150.8548  142.9859  159.7038 N   0  0  0  0  0  0  0  0  0  0  0  0
  148.9583  137.0316  157.9301 C   0  0  1  0  0  0  0  0  0  0  0  0
  149.5830  136.3554  156.6994 C   0  0  0  0  0  0  0  0  0  0  0  0
  149.0044  134.9550  156.6963 C   0  0  0  0  0  0  0  0  0  0  0  0
  148.7553  134.6379  158.1696 C   0  0  0  0  0  0  0  0  0  0  0  0
  148.6473  135.9268  158.8612 N   0  0  0  0  0  0  0  0  0  0  0  0
  148.2309  136.0755  160.1462 C   0  0  0  0  0  0  0  0  0  0  0  0
  148.0156  137.1869  160.6310 O   0  0  0  0  0  0  0  0  0  0  0  0
  148.0086  134.8211  161.0277 C   0  0  0  0  0  0  0  0  0  0  0  0
  146.9292  133.8830  160.4384 C   0  0  0  0  0  0  0  0  0  0  0  0
  145.4940  134.3869  160.6720 C   0  0  0  0  0  0  0  0  0  0  0  0
  145.2289  134.6198  162.1662 C   0  0  0  0  0  0  0  0  0  0  0  0
  146.2402  135.6100  162.7611 C   0  0  0  0  0  0  0  0  0  0  0  0
  147.6930  135.1591  162.5077 C   0  0  0  0  0  0  0  0  0  0  0  0
  149.5113  139.3001  156.9028 H   0  0  0  0  0  0  0  0  0  0  0  0
  151.1208  140.3058  159.1792 H   0  0  0  0  0  0  0  0  0  0  0  0
  151.8634  140.2406  157.5878 H   0  0  0  0  0  0  0  0  0  0  0  0
  150.2153  141.7948  156.6626 H   0  0  0  0  0  0  0  0  0  0  0  0
  149.1998  141.6668  158.0778 H   0  0  0  0  0  0  0  0  0  0  0  0
  151.7217  143.6383  156.4806 H   0  0  0  0  0  0  0  0  0  0  0  0
  152.8642  145.5756  157.5865 H   0  0  0  0  0  0  0  0  0  0  0  0
  152.6886  145.8199  160.0800 H   0  0  0  0  0  0  0  0  0  0  0  0
  151.3749  144.1100  161.3618 H   0  0  0  0  0  0  0  0  0  0  0  0
  148.0111  137.4966  157.6503 H   0  0  0  0  0  0  0  0  0  0  0  0
  149.3708  136.8936  155.7749 H   0  0  0  0  0  0  0  0  0  0  0  0
  150.6682  136.2840  156.7954 H   0  0  0  0  0  0  0  0  0  0  0  0
  148.0530  134.9624  156.1627 H   0  0  0  0  0  0  0  0  0  0  0  0
  149.6525  134.2260  156.2091 H   0  0  0  0  0  0  0  0  0  0  0  0
  147.8615  134.0242  158.2902 H   0  0  0  0  0  0  0  0  0  0  0  0
  149.6066  134.0878  158.5730 H   0  0  0  0  0  0  0  0  0  0  0  0
  148.9409  134.2610  161.0646 H   0  0  0  0  0  0  0  0  0  0  0  0
  147.0940  133.7380  159.3700 H   0  0  0  0  0  0  0  0  0  0  0  0
  147.0349  132.8958  160.8898 H   0  0  0  0  0  0  0  0  0  0  0  0
  145.3239  135.3106  160.1179 H   0  0  0  0  0  0  0  0  0  0  0  0
  144.7811  133.6607  160.2805 H   0  0  0  0  0  0  0  0  0  0  0  0
  144.2147  134.9929  162.3110 H   0  0  0  0  0  0  0  0  0  0  0  0
  145.2886  133.6707  162.7004 H   0  0  0  0  0  0  0  0  0  0  0  0
  146.0685  136.6020  162.3447 H   0  0  0  0  0  0  0  0  0  0  0  0
  146.0708  135.7060  163.8337 H   0  0  0  0  0  0  0  0  0  0  0  0
  147.8886  134.2734  163.1133 H   0  0  0  0  0  0  0  0  0  0  0  0
  148.3811  135.9222  162.8742 H   0  0  0  0  0  0  0  0  0  0  0  0
  1  2  2  0  0  0  0
  2  3  1  0  0  0  0
  2 12  1  0  0  0  0
  3  4  1  0  0  0  0
  3 25  1  0  0  0  0
  4  5  1  0  0  0  0
  4 26  1  0  0  0  0
  4 27  1  0  0  0  0
  5  6  1  0  0  0  0
  5 28  1  0  0  0  0
  5 29  1  0  0  0  0
  6 11  1  0  0  0  0
  6  7  2  0  0  0  0
  7  8  1  0  0  0  0
  7 30  1  0  0  0  0
  8  9  2  0  0  0  0
  8 31  1  0  0  0  0
  9 10  1  0  0  0  0
  9 32  1  0  0  0  0
 10 11  2  0  0  0  0
 10 33  1  0  0  0  0
 12 16  1  0  0  0  0
 12 13  1  0  0  0  0
 12 34  1  0  0  0  0
 13 14  1  0  0  0  0
 13 35  1  0  0  0  0
 13 36  1  0  0  0  0
 14 15  1  0  0  0  0
 14 37  1  0  0  0  0
 14 38  1  0  0  0  0
 15 16  1  0  0  0  0
 15 39  1  0  0  0  0
 15 40  1  0  0  0  0
 16 17  1  0  0  0  0
 17 18  2  0  0  0  0
 17 19  1  0  0  0  0
 19 24  1  0  0  0  0
 19 20  1  0  0  0  0
 19 41  1  0  0  0  0
 20 21  1  0  0  0  0
 20 42  1  0  0  0  0
 20 43  1  0  0  0  0
 21 22  1  0  0  0  0
 21 44  1  0  0  0  0
 21 45  1  0  0  0  0
 22 23  1  0  0  0  0
 22 46  1  0  0  0  0
 22 47  1  0  0  0  0
 23 24  1  0  0  0  0
 23 48  1  0  0  0  0
 23 49  1  0  0  0  0
 24 50  1  0  0  0  0
 24 51  1  0  0  0  0
M  END
> <s_m_source_file>
AV-unprocessed.smi

> <i_m_source_file_index>
951

> <i_lp_mmshare_version>
43012

> <i_f3d_flags>
0

> <s_epik_input>
bjFbY0hdW2NIXVtjSF1bY0hdYzFbQ0gyXVtDSDJdW05IXUMoPU8pW0NAQEhdMltDSDJdW0NIMl1bQ0gyXU4yQyg9TylbQ0hdM1tDSDJdW0NIMl1bQ0gyXVtDSDJdW0NIMl0z

> <s_epik_cmdline>
J2VwaWtfcHl0aG9uJywgJy1waCcsICc3LjAnLCAnLXRuJywgJzgnLCAnLW1hJywgJzIwMCcsICctbWV0YWxfYmluZGluZycsICctaW1hZScsICc8aW5maWxlLm1hZT4nLCAnLW9tYWUnLCAnPG91dGZpbGUubWFlPic=

> <r_epik_Ionization_Penalty>
0.0265505

> <r_epik_Ionization_Penalty_Charging>
0

> <r_epik_Ionization_Penalty_Neutral>
0.0265505

> <r_epik_State_Penalty>
0.02168

> <r_epik_Charging_Adjusted_Penalty>
0.02168

> <i_epik_Tot_Q>
0

> <i_epik_Tot_abs_Q>
0

> <r_epik_Metal_State_Penalty>
0.020746

> <b_epik_Metal_Only>
0

> <s_lp_Force_Field>
OPLS_2005

> <r_lp_Energy>
20.7073

> <b_lp_Chiralities_Consistent>
1

> <s_lp_Variant>
AV-unprocessed.smi:951-2

> <Gold.Version>
5.8.1

> <Gold.Id.Protein>
6NUR|6NUR_protein|mol2

> <Gold.PLP.Fitness>
45.6384

> <Gold.PLP.PLP>
-42.0112

> <Gold.PLP.part.hbond>
-4.0000

> <Gold.PLP.part.metal>
0.0000

> <Gold.PLP.part.buried>
-6.5198

> <Gold.PLP.part.nonpolar>
-31.5117

> <Gold.PLP.part.repulsive>
0.1235

> <Gold.PLP.ligand.clash>
0.0000

> <Gold.PLP.ligand.torsion>
0.6094

> <Gold.PLP.Chemscore.Hbond>
1.5840

> <Gold.PLP.Chemscore.CHOScore>
0.0000

> <Gold.PLP.Chemscore.Metal>
0.0000

> <Gold.Chemscore.Hbonds>
donor molecule, donor type, donor heavy atom, donor atom, acceptor molecule, acceptor atom, score
      P1  H  6931  6943       L1    18  0.80
      P1  H  6934  6947       L1    18  0.75

> <Gold.PLP.Chemscore.Internal.Correction>
0.0940

> <Gold.Rescore>
     Score         DG    S(hbond)    S(metal)    S(lipo)     H(rot)  DE(clash)    DE(int)     intcor
     16.67     -20.79       1.56        0.00     120.38       1.55       0.08       4.04       ----

> <Gold.Chemscore.Fitness>
16.6687

> <Gold.Chemscore.DG>
-20.7945

> <Gold.Chemscore.ZeroCoef>
-5.4800

> <Gold.Chemscore.Hbond>
1.5567

> <Gold.Chemscore.Metal>
0.0000

> <Gold.Chemscore.Lipo>
120.3821

> <Gold.Chemscore.Internal_Hbond>
0.0000

> <Gold.Chemscore.DEClash>
0.0848

> <Gold.Chemscore.DEInternal>
4.0410

> <Gold.Chemscore.Rot>
1.5506

> <Gold.Chemscore.Internal.Correction>
   9.000000E+99

> <Gold.Chemscore.Hbonds>
donor molecule, donor type, donor heavy atom, donor atom, acceptor molecule, acceptor atom, score
      P1  H  6931  6943       L1    18  0.79
      P1  H  6934  6947       L1    18  0.70

> <Gold.Chemscore.Hbond.Weighted>
-5.1992

> <Gold.Chemscore.Metal.Weighted>
-0.0000

> <Gold.Chemscore.Lipo.Weighted>
-14.0847

> <Gold.Chemscore.Internal_Hbond.Weighted>
0.0000

> <Gold.Chemscore.DEClash.Weighted>
0.0848

> <Gold.Chemscore.DEInternal.Weighted>
4.0410

> <Gold.Chemscore.Rot.Weighted>
3.9695

> <Gold.Chemscore.Internal.Correction.Weighted>
   9.000000E+99

> <Gold.Protein.RotatedTorsions>
[ 6907 6896 6895 6894 ] final  -38.55 input  -60.11 | X-H torsion
[ 7974 7965 7964 7962 ] final -174.71 input  175.53 | X-H torsion
[ 8008 7997 7996 7995 ] final  -15.72 input   59.86 | X-H torsion
[ 10167 10162 10161 10158 ] final -133.52 input  -65.29 | X-H torsion
[ 10718 10713 10712 10709 ] final -161.80 input   66.30 | X-H torsion
[ 10763 10752 10751 10750 ] final  -11.49 input  -60.55 | X-H torsion
[ 11005 11000 10999 10996 ] final  141.98 input  -57.11 | X-H torsion

> <Gold.Protein.ActiveResidues>
 VAL166  LYS551  ARG553  GLY616  TRP617  ASP618  TYR619  PRO620  LYS621  CYS622 
 ASP623  PHE694  ASN695  SER759  ASP760  ASP761  ALA762  ILE779  LEU786  VAL792 
 PHE793  MET794  SER795  GLU796  ALA797  LYS798  CYS799  TRP800  GLU811  SER814 

> <Gold.Protein.RotatedAtoms>
  151.0011  134.9322  159.7953 H   0  0  0  0  0  0  0  0  0  0  0  0  # atno 6907 bound_to 6896
  152.5278  134.3153  159.9138 H   0  0  0  0  0  0  0  0  0  0  0  0  # atno 6908 bound_to 6896
  151.3159  133.4019  159.2685 H   0  0  0  0  0  0  0  0  0  0  0  0  # atno 6909 bound_to 6896
  144.7131  140.1430  143.6390 H   0  0  0  0  0  0  0  0  0  0  0  0  # atno 7974 bound_to 7965
  154.5108  140.2189  155.9160 H   0  0  0  0  0  0  0  0  0  0  0  0  # atno 8008 bound_to 7997
  156.1550  140.3154  155.8677 H   0  0  0  0  0  0  0  0  0  0  0  0  # atno 8009 bound_to 7997
  155.3864  140.0475  157.3033 H   0  0  0  0  0  0  0  0  0  0  0  0  # atno 8010 bound_to 7997
  139.8974  143.6648  152.2601 H   0  0  0  0  0  0  0  0  0  0  0  0  # atno 10167 bound_to 10162
  156.6013  130.8812  151.2914 H   0  0  0  0  0  0  0  0  0  0  0  0  # atno 10718 bound_to 10713
  153.4846  135.7017  153.5918 H   0  0  0  0  0  0  0  0  0  0  0  0  # atno 10763 bound_to 10752
  153.4117  135.3847  155.2054 H   0  0  0  0  0  0  0  0  0  0  0  0  # atno 10764 bound_to 10752
  154.8720  135.3906  154.4299 H   0  0  0  0  0  0  0  0  0  0  0  0  # atno 10765 bound_to 10752
  140.0442  134.9289  157.0900 H   0  0  0  0  0  0  0  0  0  0  0  0  # atno 11005 bound_to 11000
  145.9185  139.2530  143.1395 LP  0  0  0  0  0  0  0  0  0  0  0  0  # atno 17320 bound_to 7965
  145.9645  140.8810  143.0194 LP  0  0  0  0  0  0  0  0  0  0  0  0  # atno 17321 bound_to 7965
  139.7055  144.7628  151.1200 LP  0  0  0  0  0  0  0  0  0  0  0  0  # atno 17342 bound_to 10162
  140.7714  143.5400  150.9324 LP  0  0  0  0  0  0  0  0  0  0  0  0  # atno 17343 bound_to 10162
  157.7278  130.9649  150.1717 LP  0  0  0  0  0  0  0  0  0  0  0  0  # atno 17370 bound_to 10713
  156.2466  130.3696  149.8278 LP  0  0  0  0  0  0  0  0  0  0  0  0  # atno 17371 bound_to 10713
  140.4019  134.2073  155.7163 LP  0  0  0  0  0  0  0  0  0  0  0  0  # atno 17394 bound_to 11000
  141.1899  133.8229  157.0940 LP  0  0  0  0  0  0  0  0  0  0  0  0  # atno 17395 bound_to 11000

$$$$
