AV-unprocessed.smi:760|AV-procd|sdf|3628|dock3
  -GOLD-   22720 1 23D 1   1.00000     0.00000
 Structure written by MMmdl.
 44 45  0  0  0  0  0  0  0  0  2 V2000
  149.5557  133.2210  153.3817 C   0  0  0  0  0  0  0  0  0  0  0  0
  149.8815  133.8018  154.5484 C   0  0  0  0  0  0  0  0  0  0  0  0
  151.1458  133.4296  155.3028 C   0  0  0  0  0  0  0  0  0  0  0  0
  149.0176  134.8908  155.1664 C   0  0  0  0  0  0  0  0  0  0  0  0
  149.2800  136.2344  154.5867 N   0  3  2  0  0  0  0  0  0  0  0  0
  150.7042  136.6279  154.7447 C   0  0  0  0  0  0  0  0  0  0  0  0
  151.0083  137.9453  154.0109 C   0  0  0  0  0  0  0  0  0  0  0  0
  150.0857  139.0874  154.4758 C   0  0  2  0  0  0  0  0  0  0  0  0
  150.3956  139.5149  155.8401 N   0  0  0  0  0  0  0  0  0  0  0  0
  150.8492  140.7294  156.1834 C   0  0  0  0  0  0  0  0  0  0  0  0
  151.0592  141.6301  155.3713 O   0  0  0  0  0  0  0  0  0  0  0  0
  151.0448  140.8232  157.5087 N   0  0  0  0  0  0  0  0  0  0  0  0
  151.5163  141.9511  158.2264 C   0  0  0  0  0  0  0  0  0  0  0  0
  152.5805  142.0412  159.1685 C   0  0  0  0  0  0  0  0  0  0  0  0
  152.7114  143.2795  159.6206 N   0  0  0  0  0  0  0  0  0  0  0  0
  151.7470  143.9898  158.9868 N   0  0  0  0  0  0  0  0  0  0  0  0
  151.6130  145.4051  159.2586 C   0  0  0  0  0  0  0  0  0  0  0  0
  151.0015  143.2088  158.1264 C   0  0  0  0  0  0  0  0  0  0  0  0
  148.6190  138.6399  154.3659 C   0  0  0  0  0  0  0  0  0  0  0  0
  148.3594  137.2968  155.0734 C   0  0  0  0  0  0  0  0  0  0  0  0
  150.1788  132.4561  152.9411 H   0  0  0  0  0  0  0  0  0  0  0  0
  148.6595  133.5021  152.8480 H   0  0  0  0  0  0  0  0  0  0  0  0
  151.8149  134.2886  155.3559 H   0  0  0  0  0  0  0  0  0  0  0  0
  151.6799  132.6201  154.8038 H   0  0  0  0  0  0  0  0  0  0  0  0
  150.9285  133.1100  156.3208 H   0  0  0  0  0  0  0  0  0  0  0  0
  147.9604  134.6351  155.0789 H   0  0  0  0  0  0  0  0  0  0  0  0
  149.2407  134.9148  156.2340 H   0  0  0  0  0  0  0  0  0  0  0  0
  150.9429  136.7208  155.8054 H   0  0  0  0  0  0  0  0  0  0  0  0
  151.3486  135.8438  154.3454 H   0  0  0  0  0  0  0  0  0  0  0  0
  152.0557  138.2172  154.1475 H   0  0  0  0  0  0  0  0  0  0  0  0
  150.8757  137.7933  152.9388 H   0  0  0  0  0  0  0  0  0  0  0  0
  150.2255  139.9442  153.8139 H   0  0  0  0  0  0  0  0  0  0  0  0
  150.2472  138.8401  156.5762 H   0  0  0  0  0  0  0  0  0  0  0  0
  150.8384  140.0045  158.0615 H   0  0  0  0  0  0  0  0  0  0  0  0
  153.2507  141.2785  159.5361 H   0  0  0  0  0  0  0  0  0  0  0  0
  150.6285  145.7532  158.9448 H   0  0  0  0  0  0  0  0  0  0  0  0
  152.3771  145.9574  158.7112 H   0  0  0  0  0  0  0  0  0  0  0  0
  151.7297  145.5942  160.3265 H   0  0  0  0  0  0  0  0  0  0  0  0
  150.1905  143.6075  157.5346 H   0  0  0  0  0  0  0  0  0  0  0  0
  147.9574  139.4089  154.7669 H   0  0  0  0  0  0  0  0  0  0  0  0
  148.3577  138.5386  153.3114 H   0  0  0  0  0  0  0  0  0  0  0  0
  147.3261  137.0141  154.8795 H   0  0  0  0  0  0  0  0  0  0  0  0
  148.4646  137.4068  156.1537 H   0  0  0  0  0  0  0  0  0  0  0  0
  149.1207  136.1478  153.5929 H   0  0  0  0  0  0  0  0  0  0  0  0
  1  2  2  0  0  0  0
  1 21  1  0  0  0  0
  1 22  1  0  0  0  0
  2  3  1  0  0  0  0
  2  4  1  0  0  0  0
  3 23  1  0  0  0  0
  3 24  1  0  0  0  0
  3 25  1  0  0  0  0
  4  5  1  0  0  0  0
  4 26  1  0  0  0  0
  4 27  1  0  0  0  0
  5 20  1  0  0  0  0
  5  6  1  0  0  0  0
  5 44  1  0  0  0  0
  6  7  1  0  0  0  0
  6 28  1  0  0  0  0
  6 29  1  0  0  0  0
  7  8  1  0  0  0  0
  7 30  1  0  0  0  0
  7 31  1  0  0  0  0
  8  9  1  0  0  0  0
  8 19  1  0  0  0  0
  8 32  1  0  0  0  0
  9 10  1  0  0  0  0
  9 33  1  0  0  0  0
 10 11  2  0  0  0  0
 10 12  1  0  0  0  0
 12 13  1  0  0  0  0
 12 34  1  0  0  0  0
 13 18  2  0  0  0  0
 13 14  1  0  0  0  0
 14 15  2  0  0  0  0
 14 35  1  0  0  0  0
 15 16  1  0  0  0  0
 16 17  1  0  0  0  0
 16 18  1  0  0  0  0
 17 36  1  0  0  0  0
 17 37  1  0  0  0  0
 17 38  1  0  0  0  0
 18 39  1  0  0  0  0
 19 20  1  0  0  0  0
 19 40  1  0  0  0  0
 19 41  1  0  0  0  0
 20 42  1  0  0  0  0
 20 43  1  0  0  0  0
M  CHG  1   5   1
M  END
> <s_m_source_file>
AV-unprocessed.smi

> <i_m_source_file_index>
760

> <i_lp_mmshare_version>
43012

> <i_f3d_flags>
0

> <s_epik_input>
W0NIMl09QyhbQ0gzXSlbQ0gyXU4xW0NIMl1bQ0gyXVtDSF0oW0NIMl1bQ0gyXTEpW05IXUMoPU8pW05IXWMyW2NIXW5uKFtDSDNdKVtjSF0y

> <s_epik_cmdline>
J2VwaWtfcHl0aG9uJywgJy1waCcsICc3LjAnLCAnLXRuJywgJzgnLCAnLW1hJywgJzIwMCcsICctbWV0YWxfYmluZGluZycsICctaW1hZScsICc8aW5maWxlLm1hZT4nLCAnLW9tYWUnLCAnPG91dGZpbGUubWFlPic=

> <r_lp_tautomer_probability>
1

> <r_epik_Ionization_Penalty>
0.0194996

> <r_epik_Ionization_Penalty_Charging>
0.0193505

> <r_epik_Ionization_Penalty_Neutral>
0.000149098

> <r_epik_State_Penalty>
0.0154499

> <r_epik_Charging_Adjusted_Penalty>
0.0348004

> <i_epik_Tot_Q>
1

> <i_epik_Tot_abs_Q>
1

> <r_epik_Metal_State_Penalty>
0.0154507

> <b_epik_Metal_Only>
0

> <s_lp_Force_Field>
OPLS_2005

> <r_lp_Energy>
20.0822

> <b_lp_Chiralities_Consistent>
1

> <s_lp_Variant>
AV-unprocessed.smi:760-2

> <Gold.Version>
5.8.1

> <Gold.Id.Protein>
6NUR|6NUR_protein|mol2

> <Gold.PLP.Fitness>
44.1510

> <Gold.PLP.PLP>
-35.6662

> <Gold.PLP.part.hbond>
-2.0000

> <Gold.PLP.part.metal>
0.0000

> <Gold.PLP.part.buried>
-0.2380

> <Gold.PLP.part.nonpolar>
-33.4415

> <Gold.PLP.part.repulsive>
0.1957

> <Gold.PLP.ligand.clash>
0.0000

> <Gold.PLP.ligand.torsion>
0.7995

> <Gold.PLP.Chemscore.Hbond>
2.3520

> <Gold.PLP.Chemscore.CHOScore>
1.0000

> <Gold.PLP.Chemscore.Metal>
0.0000

> <Gold.Chemscore.Hbonds>
donor molecule, donor type, donor heavy atom, donor atom, acceptor molecule, acceptor atom, score
      L1  H     5    44       P1  7948  2.00
      P1  H  7989  7998       L1    11  0.31
      L1  C    18    39       P1  8028  1.00

> <Gold.PLP.Chemscore.Internal.Correction>
0.0278

> <Gold.Rescore>
     Score         DG    S(hbond)    S(metal)    S(lipo)     H(rot)  DE(clash)    DE(int)     intcor
     14.35     -16.84       1.30        0.00      89.98       1.38       1.63       0.86       ----

> <Gold.Chemscore.Fitness>
14.3465

> <Gold.Chemscore.DG>
-16.8397

> <Gold.Chemscore.ZeroCoef>
-5.4800

> <Gold.Chemscore.Hbond>
1.3030

> <Gold.Chemscore.Metal>
0.0000

> <Gold.Chemscore.Lipo>
89.9844

> <Gold.Chemscore.Internal_Hbond>
0.0000

> <Gold.Chemscore.DEClash>
1.6282

> <Gold.Chemscore.DEInternal>
0.8650

> <Gold.Chemscore.Rot>
1.3752

> <Gold.Chemscore.Internal.Correction>
   9.000000E+99

> <Gold.Chemscore.Hbonds>
donor molecule, donor type, donor heavy atom, donor atom, acceptor molecule, acceptor atom, score
      L1  H     5    44       P1  7948  0.94
      P1  H  7989  7998       L1    11  0.25

> <Gold.Chemscore.Hbond.Weighted>
-4.3519

> <Gold.Chemscore.Metal.Weighted>
-0.0000

> <Gold.Chemscore.Lipo.Weighted>
-10.5282

> <Gold.Chemscore.Internal_Hbond.Weighted>
0.0000

> <Gold.Chemscore.DEClash.Weighted>
1.6282

> <Gold.Chemscore.DEInternal.Weighted>
0.8650

> <Gold.Chemscore.Rot.Weighted>
3.5204

> <Gold.Chemscore.Internal.Correction.Weighted>
   9.000000E+99

> <Gold.Protein.RotatedTorsions>
[ 6907 6896 6895 6894 ] final  156.75 input  -60.11 | X-H torsion
[ 7974 7965 7964 7962 ] final  118.79 input  175.53 | X-H torsion
[ 8008 7997 7996 7995 ] final   11.19 input   59.86 | X-H torsion
[ 10167 10162 10161 10158 ] final -167.45 input  -65.29 | X-H torsion
[ 10718 10713 10712 10709 ] final  -37.47 input   66.30 | X-H torsion
[ 10763 10752 10751 10750 ] final -155.54 input  -60.55 | X-H torsion
[ 11005 11000 10999 10996 ] final  -38.57 input  -57.11 | X-H torsion

> <Gold.Protein.ActiveResidues>
 VAL166  LYS551  ARG553  GLY616  TRP617  ASP618  TYR619  PRO620  LYS621  CYS622 
 ASP623  PHE694  ASN695  SER759  ASP760  ASP761  ALA762  ILE779  LEU786  VAL792 
 PHE793  MET794  SER795  GLU796  ALA797  LYS798  CYS799  TRP800  GLU811  SER814 

> <Gold.Protein.RotatedAtoms>
  152.0251  133.3914  159.4273 H   0  0  0  0  0  0  0  0  0  0  0  0  # atno 6907 bound_to 6896
  150.6887  134.3583  159.4948 H   0  0  0  0  0  0  0  0  0  0  0  0  # atno 6908 bound_to 6896
  152.1362  134.9097  160.0607 H   0  0  0  0  0  0  0  0  0  0  0  0  # atno 6909 bound_to 6896
  145.1509  139.3211  143.4567 H   0  0  0  0  0  0  0  0  0  0  0  0  # atno 7974 bound_to 7965
  154.8036  140.2856  155.5903 H   0  0  0  0  0  0  0  0  0  0  0  0  # atno 8008 bound_to 7997
  156.2980  140.2582  156.2839 H   0  0  0  0  0  0  0  0  0  0  0  0  # atno 8009 bound_to 7997
  154.9529  140.0379  157.2142 H   0  0  0  0  0  0  0  0  0  0  0  0  # atno 8010 bound_to 7997
  139.6048  144.0935  152.1782 H   0  0  0  0  0  0  0  0  0  0  0  0  # atno 10167 bound_to 10162
  156.3148  130.4257  149.8015 H   0  0  0  0  0  0  0  0  0  0  0  0  # atno 10718 bound_to 10713
  154.7780  135.3165  154.8051 H   0  0  0  0  0  0  0  0  0  0  0  0  # atno 10763 bound_to 10752
  153.8770  135.6838  153.4774 H   0  0  0  0  0  0  0  0  0  0  0  0  # atno 10764 bound_to 10752
  153.1408  135.4740  154.9429 H   0  0  0  0  0  0  0  0  0  0  0  0  # atno 10765 bound_to 10752
  141.0037  133.6942  156.2070 H   0  0  0  0  0  0  0  0  0  0  0  0  # atno 11005 bound_to 11000
  146.3494  140.1583  142.8591 LP  0  0  0  0  0  0  0  0  0  0  0  0  # atno 17320 bound_to 7965
  145.0431  140.8961  143.5040 LP  0  0  0  0  0  0  0  0  0  0  0  0  # atno 17321 bound_to 7965
  140.0539  144.5910  150.7314 LP  0  0  0  0  0  0  0  0  0  0  0  0  # atno 17342 bound_to 10162
  140.7277  143.2654  151.4063 LP  0  0  0  0  0  0  0  0  0  0  0  0  # atno 17343 bound_to 10162
  156.5345  130.8272  151.3248 LP  0  0  0  0  0  0  0  0  0  0  0  0  # atno 17370 bound_to 10713
  157.7399  130.9840  150.2344 LP  0  0  0  0  0  0  0  0  0  0  0  0  # atno 17371 bound_to 10713
  140.6847  134.4729  157.5589 LP  0  0  0  0  0  0  0  0  0  0  0  0  # atno 17394 bound_to 11000
  139.9052  134.8465  156.1735 LP  0  0  0  0  0  0  0  0  0  0  0  0  # atno 17395 bound_to 11000

$$$$
