AV-unprocessed.smi:2777|AV-procd|sdf|10708|dock2
  -GOLD-   2272015143D 1   1.00000     0.00000
 Structure written by MMmdl.
 31 32  0  0  0  0  0  0  0  0  1 V2000
  154.7828  139.7533  160.7157 C   0  0  0  0  0  0  0  0  0  0  0  0
  153.7805  140.7992  160.4365 N   0  0  0  0  0  0  0  0  0  0  0  0
  153.0759  140.7251  159.2635 C   0  0  0  0  0  0  0  0  0  0  0  0
  153.2098  139.8411  158.4170 O   0  0  0  0  0  0  0  0  0  0  0  0
  152.1097  141.8136  159.0814 C   0  0  0  0  0  0  0  0  0  0  0  0
  151.9282  142.7967  159.9961 C   0  0  0  0  0  0  0  0  0  0  0  0
  150.9531  143.6985  159.5855 N   0  0  0  0  0  0  0  0  0  0  0  0
  150.5884  143.1948  158.4060 C   0  0  0  0  0  0  0  0  0  0  0  0
  151.2296  142.0695  158.0297 N   0  0  0  0  0  0  0  0  0  0  0  0
  151.0102  141.3343  156.7930 C   0  0  0  0  0  0  0  0  0  0  0  0
  149.5693  140.7974  156.6677 C   0  0  2  0  0  0  0  0  0  0  0  0
  149.3579  139.7456  157.5905 O   0  0  0  0  0  0  0  0  0  0  0  0
  149.2427  140.2975  155.2477 C   0  0  0  0  0  0  0  0  0  0  0  0
  148.0152  139.7783  155.2142 F   0  0  0  0  0  0  0  0  0  0  0  0
  149.2781  141.3238  154.3977 F   0  0  0  0  0  0  0  0  0  0  0  0
  150.1266  139.3824  154.8478 F   0  0  0  0  0  0  0  0  0  0  0  0
  152.7069  142.7780  161.1794 N   0  0  0  0  0  0  0  0  0  0  0  0
  152.4800  143.8567  162.1456 C   0  0  0  0  0  0  0  0  0  0  0  0
  153.6309  141.7848  161.3978 C   0  0  0  0  0  0  0  0  0  0  0  0
  154.3106  141.7723  162.4277 O   0  0  0  0  0  0  0  0  0  0  0  0
  154.8813  138.9916  159.9416 H   0  0  0  0  0  0  0  0  0  0  0  0
  154.5354  139.2260  161.6386 H   0  0  0  0  0  0  0  0  0  0  0  0
  155.7717  140.1978  160.8387 H   0  0  0  0  0  0  0  0  0  0  0  0
  149.8285  143.6591  157.7947 H   0  0  0  0  0  0  0  0  0  0  0  0
  151.2240  142.0073  155.9619 H   0  0  0  0  0  0  0  0  0  0  0  0
  151.7384  140.5284  156.7147 H   0  0  0  0  0  0  0  0  0  0  0  0
  148.8727  141.5966  156.9246 H   0  0  0  0  0  0  0  0  0  0  0  0
  150.1534  139.6124  158.0825 H   0  0  0  0  0  0  0  0  0  0  0  0
  153.1071  143.8046  163.0360 H   0  0  0  0  0  0  0  0  0  0  0  0
  151.4418  143.8433  162.4793 H   0  0  0  0  0  0  0  0  0  0  0  0
  152.6668  144.8224  161.6747 H   0  0  0  0  0  0  0  0  0  0  0  0
  1  2  1  0  0  0  0
  1 21  1  0  0  0  0
  1 22  1  0  0  0  0
  1 23  1  0  0  0  0
  2 19  1  0  0  0  0
  2  3  1  0  0  0  0
  3  4  2  0  0  0  0
  3  5  1  0  0  0  0
  5  9  1  0  0  0  0
  5  6  2  0  0  0  0
  6  7  1  0  0  0  0
  6 17  1  0  0  0  0
  7  8  2  0  0  0  0
  8  9  1  0  0  0  0
  8 24  1  0  0  0  0
  9 10  1  0  0  0  0
 10 11  1  0  0  0  0
 10 25  1  0  0  0  0
 10 26  1  0  0  0  0
 11 12  1  0  0  0  0
 11 13  1  0  0  0  0
 11 27  1  0  0  0  0
 12 28  1  0  0  0  0
 13 14  1  0  0  0  0
 13 15  1  0  0  0  0
 13 16  1  0  0  0  0
 17 18  1  0  0  0  0
 17 19  1  0  0  0  0
 18 29  1  0  0  0  0
 18 30  1  0  0  0  0
 18 31  1  0  0  0  0
 19 20  2  0  0  0  0
M  END
> <s_m_source_file>
AV-unprocessed.smi

> <i_m_source_file_index>
2777

> <i_lp_mmshare_version>
43012

> <i_f3d_flags>
0

> <s_epik_input>
Tz1jMW4oW0NIM10pYyg9TyluKFtDSDNdKWMoYzEyKW5bY0hdbjJbQ0gyXVtDQEhdKFtPSF0pQyhGKShGKUY=

> <s_epik_cmdline>
J2VwaWtfcHl0aG9uJywgJy1waCcsICc3LjAnLCAnLXRuJywgJzgnLCAnLW1hJywgJzIwMCcsICctbWV0YWxfYmluZGluZycsICctaW1hZScsICc8aW5maWxlLm1hZT4nLCAnLW9tYWUnLCAnPG91dGZpbGUubWFlPic=

> <r_epik_Ionization_Penalty>
0.000551612

> <r_epik_Ionization_Penalty_Charging>
2.619e-09

> <r_epik_Ionization_Penalty_Neutral>
0.00055161

> <r_epik_State_Penalty>
0.000345115

> <r_epik_Charging_Adjusted_Penalty>
0.000345118

> <i_epik_Tot_Q>
0

> <i_epik_Tot_abs_Q>
0

> <r_epik_Metal_State_Penalty>
-0

> <b_epik_Metal_Only>
0

> <s_lp_Force_Field>
OPLS_2005

> <r_lp_Energy>
33.5503

> <b_lp_Chiralities_Consistent>
1

> <s_lp_Variant>
AV-unprocessed.smi:2777-1

> <Gold.Version>
5.8.1

> <Gold.Id.Protein>
6NUR|6NUR_protein|mol2

> <Gold.PLP.Fitness>
46.5028

> <Gold.PLP.PLP>
-40.6389

> <Gold.PLP.part.hbond>
-2.0000

> <Gold.PLP.part.metal>
0.0000

> <Gold.PLP.part.buried>
-3.6570

> <Gold.PLP.part.nonpolar>
-34.9640

> <Gold.PLP.part.repulsive>
0.0757

> <Gold.PLP.ligand.clash>
0.0000

> <Gold.PLP.ligand.torsion>
0.1271

> <Gold.PLP.Chemscore.Hbond>
1.0000

> <Gold.PLP.Chemscore.CHOScore>
1.0344

> <Gold.PLP.Chemscore.Metal>
0.0000

> <Gold.Chemscore.Hbonds>
donor molecule, donor type, donor heavy atom, donor atom, acceptor molecule, acceptor atom, score
      P1  H  7997  8008       L1     4  1.00
      L1  C     8    24       P1  8028  0.97

> <Gold.PLP.Chemscore.Internal.Correction>
0.0148

> <Gold.Rescore>
     Score         DG    S(hbond)    S(metal)    S(lipo)     H(rot)  DE(clash)    DE(int)     intcor
      8.10      -8.25       0.97        0.00      44.03       2.20       0.08       0.06       ----

> <Gold.Chemscore.Fitness>
8.1004

> <Gold.Chemscore.DG>
-8.2454

> <Gold.Chemscore.ZeroCoef>
-5.4800

> <Gold.Chemscore.Hbond>
0.9694

> <Gold.Chemscore.Metal>
0.0000

> <Gold.Chemscore.Lipo>
44.0304

> <Gold.Chemscore.Internal_Hbond>
0.0000

> <Gold.Chemscore.DEClash>
0.0828

> <Gold.Chemscore.DEInternal>
0.0621

> <Gold.Chemscore.Rot>
2.1969

> <Gold.Chemscore.Internal.Correction>
   9.000000E+99

> <Gold.Chemscore.Hbonds>
donor molecule, donor type, donor heavy atom, donor atom, acceptor molecule, acceptor atom, score
      P1  H  7997  8008       L1     4  0.91

> <Gold.Chemscore.Hbond.Weighted>
-3.2378

> <Gold.Chemscore.Metal.Weighted>
-0.0000

> <Gold.Chemscore.Lipo.Weighted>
-5.1516

> <Gold.Chemscore.Internal_Hbond.Weighted>
0.0000

> <Gold.Chemscore.DEClash.Weighted>
0.0828

> <Gold.Chemscore.DEInternal.Weighted>
0.0621

> <Gold.Chemscore.Rot.Weighted>
5.6239

> <Gold.Chemscore.Internal.Correction.Weighted>
   9.000000E+99

> <Gold.Protein.RotatedTorsions>
[ 6907 6896 6895 6894 ] final  -32.00 input  -60.11 | X-H torsion
[ 7974 7965 7964 7962 ] final -100.85 input  175.53 | X-H torsion
[ 8008 7997 7996 7995 ] final  -75.61 input   59.86 | X-H torsion
[ 10167 10162 10161 10158 ] final   17.19 input  -65.29 | X-H torsion
[ 10718 10713 10712 10709 ] final -108.13 input   66.30 | X-H torsion
[ 10763 10752 10751 10750 ] final  -88.92 input  -60.55 | X-H torsion
[ 11005 11000 10999 10996 ] final -108.68 input  -57.11 | X-H torsion

> <Gold.Protein.ActiveResidues>
 VAL166  LYS551  ARG553  GLY616  TRP617  ASP618  TYR619  PRO620  LYS621  CYS622 
 ASP623  PHE694  ASN695  SER759  ASP760  ASP761  ALA762  ILE779  LEU786  VAL792 
 PHE793  MET794  SER795  GLU796  ALA797  LYS798  CYS799  TRP800  GLU811  SER814 

> <Gold.Protein.RotatedAtoms>
  151.0846  134.9879  159.8372 H   0  0  0  0  0  0  0  0  0  0  0  0  # atno 6907 bound_to 6896
  152.5423  134.2140  159.8771 H   0  0  0  0  0  0  0  0  0  0  0  0  # atno 6908 bound_to 6896
  151.2172  133.4479  159.2633 H   0  0  0  0  0  0  0  0  0  0  0  0  # atno 6909 bound_to 6896
  145.2892  140.9348  143.2887 H   0  0  0  0  0  0  0  0  0  0  0  0  # atno 7974 bound_to 7965
  154.5432  140.0741  156.8545 H   0  0  0  0  0  0  0  0  0  0  0  0  # atno 8008 bound_to 7997
  155.3140  140.3392  155.4225 H   0  0  0  0  0  0  0  0  0  0  0  0  # atno 8009 bound_to 7997
  156.1894  140.1680  156.8109 H   0  0  0  0  0  0  0  0  0  0  0  0  # atno 8010 bound_to 7997
  140.5744  143.9101  150.6738 H   0  0  0  0  0  0  0  0  0  0  0  0  # atno 10167 bound_to 10162
  156.0470  130.5697  150.7918 H   0  0  0  0  0  0  0  0  0  0  0  0  # atno 10718 bound_to 10713
  154.6497  135.5359  153.7887 H   0  0  0  0  0  0  0  0  0  0  0  0  # atno 10763 bound_to 10752
  153.0379  135.6479  154.1035 H   0  0  0  0  0  0  0  0  0  0  0  0  # atno 10764 bound_to 10752
  154.0953  135.2937  155.3243 H   0  0  0  0  0  0  0  0  0  0  0  0  # atno 10765 bound_to 10752
  141.0888  133.9091  157.2123 H   0  0  0  0  0  0  0  0  0  0  0  0  # atno 11005 bound_to 11000
  144.9187  139.4439  143.6552 LP  0  0  0  0  0  0  0  0  0  0  0  0  # atno 17320 bound_to 7965
  146.3190  139.8035  142.8960 LP  0  0  0  0  0  0  0  0  0  0  0  0  # atno 17321 bound_to 7965
  140.2584  143.3541  152.1344 LP  0  0  0  0  0  0  0  0  0  0  0  0  # atno 17342 bound_to 10162
  139.5134  144.6932  151.5701 LP  0  0  0  0  0  0  0  0  0  0  0  0  # atno 17343 bound_to 10162
  157.5356  131.0938  150.9896 LP  0  0  0  0  0  0  0  0  0  0  0  0  # atno 17370 bound_to 10713
  157.0192  130.5667  149.5329 LP  0  0  0  0  0  0  0  0  0  0  0  0  # atno 17371 bound_to 10713
  139.9711  135.0128  156.9514 LP  0  0  0  0  0  0  0  0  0  0  0  0  # atno 17394 bound_to 11000
  140.5299  134.0823  155.7313 LP  0  0  0  0  0  0  0  0  0  0  0  0  # atno 17395 bound_to 11000

$$$$
