AV-unprocessed.smi:2711|AV-procd|sdf|10473|dock4
  -GOLD-   2272014513D 1   1.00000     0.00000
 Structure written by MMmdl.
 33 34  0  0  0  0  0  0  0  0  2 V2000
  145.6579  134.6833  162.4169 C   0  0  0  0  0  0  0  0  0  0  0  0
  146.7377  135.3687  161.6503 C   0  0  0  0  0  0  0  0  0  0  0  0
  147.2097  136.6435  161.8277 C   0  0  0  0  0  0  0  0  0  0  0  0
  148.2323  136.9918  160.9438 N   0  0  0  0  0  0  0  0  0  0  0  0
  148.5604  136.0096  160.0978 C   0  0  0  0  0  0  0  0  0  0  0  0
  149.5132  136.1393  159.1602 N   0  5  0  0  0  0  0  0  0  0  0  0
  149.8849  137.3692  158.7377 C   0  0  0  0  0  0  0  0  0  0  0  0
  149.1579  138.3612  158.6445 O   0  0  0  0  0  0  0  0  0  0  0  0
  151.1805  137.4553  158.4012 N   0  0  0  0  0  0  0  0  0  0  0  0
  151.8626  138.6522  157.9116 C   0  0  0  0  0  0  0  0  0  0  0  0
  153.1224  139.0158  158.7195 C   0  0  0  0  0  0  0  0  0  0  0  0
  154.0254  138.1891  158.8599 O   0  0  0  0  0  0  0  0  0  0  0  0
  153.2049  140.2572  159.2418 N   0  0  0  0  0  0  0  0  0  0  0  0
  154.3139  140.7760  160.0415 C   0  0  0  0  0  0  0  0  0  0  0  0
  153.8278  142.1119  160.6046 C   0  0  0  0  0  0  0  0  0  0  0  0
  152.7705  142.5724  159.6109 C   0  0  0  0  0  0  0  0  0  0  0  0
  152.1662  141.2726  159.0793 C   0  0  0  0  0  0  0  0  0  0  0  0
  147.5783  134.5647  160.3520 S   0  0  0  0  0  0  0  0  0  0  0  0
  146.0350  134.3217  163.3734 H   0  0  0  0  0  0  0  0  0  0  0  0
  145.2643  133.8297  161.8646 H   0  0  0  0  0  0  0  0  0  0  0  0
  144.8303  135.3645  162.6149 H   0  0  0  0  0  0  0  0  0  0  0  0
  146.8770  137.3697  162.5545 H   0  0  0  0  0  0  0  0  0  0  0  0
  151.7396  136.6209  158.5004 H   0  0  0  0  0  0  0  0  0  0  0  0
  152.1532  138.4722  156.8766 H   0  0  0  0  0  0  0  0  0  0  0  0
  151.1638  139.4900  157.9013 H   0  0  0  0  0  0  0  0  0  0  0  0
  154.6026  140.0949  160.8432 H   0  0  0  0  0  0  0  0  0  0  0  0
  155.1785  140.9285  159.3938 H   0  0  0  0  0  0  0  0  0  0  0  0
  153.3656  141.9511  161.5796 H   0  0  0  0  0  0  0  0  0  0  0  0
  154.6335  142.8356  160.7321 H   0  0  0  0  0  0  0  0  0  0  0  0
  152.0271  143.2328  160.0579 H   0  0  0  0  0  0  0  0  0  0  0  0
  153.2502  143.1134  158.7940 H   0  0  0  0  0  0  0  0  0  0  0  0
  151.8534  141.3767  158.0392 H   0  0  0  0  0  0  0  0  0  0  0  0
  151.2943  140.9850  159.6688 H   0  0  0  0  0  0  0  0  0  0  0  0
  1  2  1  0  0  0  0
  1 19  1  0  0  0  0
  1 20  1  0  0  0  0
  1 21  1  0  0  0  0
  2 18  1  0  0  0  0
  2  3  2  0  0  0  0
  3  4  1  0  0  0  0
  3 22  1  0  0  0  0
  4  5  2  0  0  0  0
  5  6  1  0  0  0  0
  5 18  1  0  0  0  0
  6  7  1  0  0  0  0
  7  8  2  0  0  0  0
  7  9  1  0  0  0  0
  9 10  1  0  0  0  0
  9 23  1  0  0  0  0
 10 11  1  0  0  0  0
 10 24  1  0  0  0  0
 10 25  1  0  0  0  0
 11 12  2  0  0  0  0
 11 13  1  0  0  0  0
 13 17  1  0  0  0  0
 13 14  1  0  0  0  0
 14 15  1  0  0  0  0
 14 26  1  0  0  0  0
 14 27  1  0  0  0  0
 15 16  1  0  0  0  0
 15 28  1  0  0  0  0
 15 29  1  0  0  0  0
 16 17  1  0  0  0  0
 16 30  1  0  0  0  0
 16 31  1  0  0  0  0
 17 32  1  0  0  0  0
 17 33  1  0  0  0  0
M  CHG  1   6  -1
M  END
> <s_m_source_file>
AV-unprocessed.smi

> <i_m_source_file_index>
2711

> <i_lp_mmshare_version>
43012

> <i_f3d_flags>
0

> <s_epik_input>
W0NIM11jMVtjSF1uYyhzMSlbTkhdQyg9TylbTkhdW0NIMl1DKD1PKU4yW0NIMl1bQ0gyXVtDSDJdW0NIMl0y

> <s_epik_cmdline>
J2VwaWtfcHl0aG9uJywgJy1waCcsICc3LjAnLCAnLXRuJywgJzgnLCAnLW1hJywgJzIwMCcsICctbWV0YWxfYmluZGluZycsICctaW1hZScsICc8aW5maWxlLm1hZT4nLCAnLW9tYWUnLCAnPG91dGZpbGUubWFlPic=

> <r_lp_tautomer_probability>
1

> <r_epik_Ionization_Penalty>
6.8506

> <r_epik_Ionization_Penalty_Charging>
5.74941

> <r_epik_Ionization_Penalty_Neutral>
1.10119

> <r_epik_State_Penalty>
5.74937

> <r_epik_Charging_Adjusted_Penalty>
11.4988

> <i_epik_Tot_Q>
-1

> <i_epik_Tot_abs_Q>
1

> <r_epik_Metal_State_Penalty>
1.72493

> <b_epik_Metal_Only>
1

> <s_lp_Force_Field>
OPLS_2005

> <r_lp_Energy>
20.4432

> <b_lp_Chiralities_Consistent>
1

> <s_lp_Variant>
AV-unprocessed.smi:2711-2

> <Gold.Version>
5.8.1

> <Gold.Id.Protein>
6NUR|6NUR_protein|mol2

> <Gold.PLP.Fitness>
44.3091

> <Gold.PLP.PLP>
-36.0109

> <Gold.PLP.part.hbond>
-3.3124

> <Gold.PLP.part.metal>
0.0000

> <Gold.PLP.part.buried>
-4.8750

> <Gold.PLP.part.nonpolar>
-28.0748

> <Gold.PLP.part.repulsive>
0.1121

> <Gold.PLP.ligand.clash>
0.0000

> <Gold.PLP.ligand.torsion>
0.3683

> <Gold.PLP.Chemscore.Hbond>
3.0000

> <Gold.PLP.Chemscore.CHOScore>
0.0000

> <Gold.PLP.Chemscore.Metal>
0.0000

> <Gold.Chemscore.Hbonds>
donor molecule, donor type, donor heavy atom, donor atom, acceptor molecule, acceptor atom, score
      P1  H  6896  6907       L1     6  2.00
      P1  H  6931  6943       L1     4  1.00
      P1  H  6934  6947       L1     4  0.05

> <Gold.PLP.Chemscore.Internal.Correction>
0.0348

> <Gold.Rescore>
     Score         DG    S(hbond)    S(metal)    S(lipo)     H(rot)  DE(clash)    DE(int)     intcor
     14.95     -16.87       1.74        0.00      76.28       1.31       0.06       1.86       ----

> <Gold.Chemscore.Fitness>
14.9541

> <Gold.Chemscore.DG>
-16.8732

> <Gold.Chemscore.ZeroCoef>
-5.4800

> <Gold.Chemscore.Hbond>
1.7397

> <Gold.Chemscore.Metal>
0.0000

> <Gold.Chemscore.Lipo>
76.2811

> <Gold.Chemscore.Internal_Hbond>
0.0000

> <Gold.Chemscore.DEClash>
0.0580

> <Gold.Chemscore.DEInternal>
1.8612

> <Gold.Chemscore.Rot>
1.3056

> <Gold.Chemscore.Internal.Correction>
   9.000000E+99

> <Gold.Chemscore.Hbonds>
donor molecule, donor type, donor heavy atom, donor atom, acceptor molecule, acceptor atom, score
      P1  H  6896  6907       L1     6  0.39
      P1  H  6931  6943       L1     4  0.24

> <Gold.Chemscore.Hbond.Weighted>
-5.8106

> <Gold.Chemscore.Metal.Weighted>
-0.0000

> <Gold.Chemscore.Lipo.Weighted>
-8.9249

> <Gold.Chemscore.Internal_Hbond.Weighted>
0.0000

> <Gold.Chemscore.DEClash.Weighted>
0.0580

> <Gold.Chemscore.DEInternal.Weighted>
1.8612

> <Gold.Chemscore.Rot.Weighted>
3.3422

> <Gold.Chemscore.Internal.Correction.Weighted>
   9.000000E+99

> <Gold.Protein.RotatedTorsions>
[ 6907 6896 6895 6894 ] final  -50.73 input  -60.11 | X-H torsion
[ 7974 7965 7964 7962 ] final  158.15 input  175.53 | X-H torsion
[ 8008 7997 7996 7995 ] final  -55.72 input   59.86 | X-H torsion
[ 10167 10162 10161 10158 ] final   64.67 input  -65.29 | X-H torsion
[ 10718 10713 10712 10709 ] final   34.32 input   66.30 | X-H torsion
[ 10763 10752 10751 10750 ] final  -36.02 input  -60.55 | X-H torsion
[ 11005 11000 10999 10996 ] final   -5.26 input  -57.11 | X-H torsion

> <Gold.Protein.ActiveResidues>
 VAL166  LYS551  ARG553  GLY616  TRP617  ASP618  TYR619  PRO620  LYS621  CYS622 
 ASP623  PHE694  ASN695  SER759  ASP760  ASP761  ALA762  ILE779  LEU786  VAL792 
 PHE793  MET794  SER795  GLU796  ALA797  LYS798  CYS799  TRP800  GLU811  SER814 

> <Gold.Protein.RotatedAtoms>
  150.8679  134.8047  159.7132 H   0  0  0  0  0  0  0  0  0  0  0  0  # atno 6907 bound_to 6896
  152.4694  134.4994  159.9730 H   0  0  0  0  0  0  0  0  0  0  0  0  # atno 6908 bound_to 6896
  151.5087  133.3451  159.2917 H   0  0  0  0  0  0  0  0  0  0  0  0  # atno 6909 bound_to 6896
  144.7862  139.7438  143.6240 H   0  0  0  0  0  0  0  0  0  0  0  0  # atno 7974 bound_to 7965
  154.4204  140.1146  156.5522 H   0  0  0  0  0  0  0  0  0  0  0  0  # atno 8008 bound_to 7997
  155.6398  140.3496  155.4692 H   0  0  0  0  0  0  0  0  0  0  0  0  # atno 8009 bound_to 7997
  155.9880  140.1173  157.0655 H   0  0  0  0  0  0  0  0  0  0  0  0  # atno 8010 bound_to 7997
  140.1197  144.4743  150.6928 H   0  0  0  0  0  0  0  0  0  0  0  0  # atno 10167 bound_to 10162
  157.3088  130.7388  149.6712 H   0  0  0  0  0  0  0  0  0  0  0  0  # atno 10718 bound_to 10713
  153.8729  135.6829  153.4773 H   0  0  0  0  0  0  0  0  0  0  0  0  # atno 10763 bound_to 10752
  153.1277  135.4711  154.9297 H   0  0  0  0  0  0  0  0  0  0  0  0  # atno 10764 bound_to 10752
  154.7705  135.3237  154.8149 H   0  0  0  0  0  0  0  0  0  0  0  0  # atno 10765 bound_to 10752
  140.6892  133.9086  155.8607 H   0  0  0  0  0  0  0  0  0  0  0  0  # atno 11005 bound_to 11000
  146.2095  139.5442  142.9690 LP  0  0  0  0  0  0  0  0  0  0  0  0  # atno 17320 bound_to 7965
  145.5915  141.0369  143.2068 LP  0  0  0  0  0  0  0  0  0  0  0  0  # atno 17321 bound_to 7965
  140.6879  143.2360  151.5211 LP  0  0  0  0  0  0  0  0  0  0  0  0  # atno 17342 bound_to 10162
  139.5575  144.2239  152.1637 LP  0  0  0  0  0  0  0  0  0  0  0  0  # atno 17343 bound_to 10162
  155.9676  130.4257  150.4668 LP  0  0  0  0  0  0  0  0  0  0  0  0  # atno 17370 bound_to 10713
  157.2663  131.0577  151.2288 LP  0  0  0  0  0  0  0  0  0  0  0  0  # atno 17371 bound_to 10713
  141.0255  134.0829  157.4073 LP  0  0  0  0  0  0  0  0  0  0  0  0  # atno 17394 bound_to 11000
  139.8928  135.0127  156.6867 LP  0  0  0  0  0  0  0  0  0  0  0  0  # atno 17395 bound_to 11000

$$$$
