AV-unprocessed.smi:1586|AV-procd|sdf|6380|dock10
  -GOLD-   22720 7 13D 1   1.00000     0.00000
 Structure written by MMmdl.
 46 47  0  0  0  0  0  0  0  0  3 V2000
  145.8508  142.6696  156.3994 C   0  0  0  0  0  0  0  0  0  0  0  0
  147.1010  142.1745  157.1406 C   0  0  0  0  0  0  0  0  0  0  0  0
  148.2770  142.0345  156.2465 N   0  3  0  0  0  0  0  0  0  0  0  0
  148.0488  141.0449  155.1652 C   0  0  0  0  0  0  0  0  0  0  0  0
  149.2739  140.9710  154.2299 C   0  0  0  0  0  0  0  0  0  0  0  0
  150.4948  140.5983  154.9566 N   0  0  0  0  0  0  0  0  0  0  0  0
  150.5317  139.2071  155.4591 C   0  0  1  0  0  0  0  0  0  0  0  0
  150.2551  138.1956  154.3258 C   0  0  0  0  0  0  0  0  0  0  0  0
  151.8781  138.8665  156.1435 C   0  0  0  0  0  0  0  0  0  0  0  0
  151.9367  139.3706  157.5115 N   0  0  0  0  0  0  0  0  0  0  0  0
  153.0036  139.2980  158.3172 C   0  0  0  0  0  0  0  0  0  0  0  0
  154.0429  138.7726  157.9118 O   0  0  0  0  0  0  0  0  0  0  0  0
  152.7994  139.8392  159.5401 N   0  5  0  0  0  0  0  0  0  0  0  0
  152.4205  141.1211  159.6578 C   0  0  0  0  0  0  0  0  0  0  0  0
  152.7011  141.9772  160.7574 C   0  0  0  0  0  0  0  0  0  0  0  0
  152.1243  143.1593  160.3886 C   0  0  0  0  0  0  0  0  0  0  0  0
  152.0254  144.4886  161.0557 C   0  0  0  0  0  0  0  0  0  0  0  0
  151.5473  143.0403  159.1626 O   0  0  0  0  0  0  0  0  0  0  0  0
  151.7460  141.7341  158.6995 N   0  0  0  0  0  0  0  0  0  0  0  0
  150.7172  141.6381  155.9706 C   0  0  0  0  0  0  0  0  0  0  0  0
  149.5409  141.7323  156.9650 C   0  0  0  0  0  0  0  0  0  0  0  0
  144.9874  142.6696  157.0651 H   0  0  0  0  0  0  0  0  0  0  0  0
  145.6125  142.0261  155.5520 H   0  0  0  0  0  0  0  0  0  0  0  0
  145.9707  143.6870  156.0281 H   0  0  0  0  0  0  0  0  0  0  0  0
  147.3410  142.8358  157.9744 H   0  0  0  0  0  0  0  0  0  0  0  0
  146.8678  141.2013  157.5746 H   0  0  0  0  0  0  0  0  0  0  0  0
  147.8154  140.0676  155.5892 H   0  0  0  0  0  0  0  0  0  0  0  0
  147.1771  141.3459  154.5830 H   0  0  0  0  0  0  0  0  0  0  0  0
  149.0847  140.2915  153.4007 H   0  0  0  0  0  0  0  0  0  0  0  0
  149.4315  141.9461  153.7668 H   0  0  0  0  0  0  0  0  0  0  0  0
  149.7527  139.0731  156.2085 H   0  0  0  0  0  0  0  0  0  0  0  0
  150.4256  137.1741  154.6662 H   0  0  0  0  0  0  0  0  0  0  0  0
  150.9046  138.3661  153.4664 H   0  0  0  0  0  0  0  0  0  0  0  0
  149.2214  138.2332  153.9838 H   0  0  0  0  0  0  0  0  0  0  0  0
  152.0681  137.7932  156.1349 H   0  0  0  0  0  0  0  0  0  0  0  0
  152.6972  139.3081  155.5738 H   0  0  0  0  0  0  0  0  0  0  0  0
  151.1013  139.8034  157.8776 H   0  0  0  0  0  0  0  0  0  0  0  0
  153.2358  141.7572  161.6689 H   0  0  0  0  0  0  0  0  0  0  0  0
  153.0115  144.9417  161.1579 H   0  0  0  0  0  0  0  0  0  0  0  0
  151.5935  144.3886  162.0514 H   0  0  0  0  0  0  0  0  0  0  0  0
  151.3977  145.1713  160.4825 H   0  0  0  0  0  0  0  0  0  0  0  0
  151.6562  141.4817  156.4986 H   0  0  0  0  0  0  0  0  0  0  0  0
  150.8362  142.5965  155.4632 H   0  0  0  0  0  0  0  0  0  0  0  0
  149.7568  142.5242  157.6811 H   0  0  0  0  0  0  0  0  0  0  0  0
  149.4387  140.8127  157.5425 H   0  0  0  0  0  0  0  0  0  0  0  0
  148.4062  142.9255  155.7885 H   0  0  0  0  0  0  0  0  0  0  0  0
  1  2  1  0  0  0  0
  1 22  1  0  0  0  0
  1 23  1  0  0  0  0
  1 24  1  0  0  0  0
  2  3  1  0  0  0  0
  2 25  1  0  0  0  0
  2 26  1  0  0  0  0
  3 21  1  0  0  0  0
  3  4  1  0  0  0  0
  3 46  1  0  0  0  0
  4  5  1  0  0  0  0
  4 27  1  0  0  0  0
  4 28  1  0  0  0  0
  5  6  1  0  0  0  0
  5 29  1  0  0  0  0
  5 30  1  0  0  0  0
  6  7  1  0  0  0  0
  6 20  1  0  0  0  0
  7  8  1  0  0  0  0
  7  9  1  0  0  0  0
  7 31  1  0  0  0  0
  8 32  1  0  0  0  0
  8 33  1  0  0  0  0
  8 34  1  0  0  0  0
  9 10  1  0  0  0  0
  9 35  1  0  0  0  0
  9 36  1  0  0  0  0
 10 11  1  0  0  0  0
 10 37  1  0  0  0  0
 11 12  2  0  0  0  0
 11 13  1  0  0  0  0
 13 14  1  0  0  0  0
 14 19  2  0  0  0  0
 14 15  1  0  0  0  0
 15 16  2  0  0  0  0
 15 38  1  0  0  0  0
 16 17  1  0  0  0  0
 16 18  1  0  0  0  0
 17 39  1  0  0  0  0
 17 40  1  0  0  0  0
 17 41  1  0  0  0  0
 18 19  1  0  0  0  0
 20 21  1  0  0  0  0
 20 42  1  0  0  0  0
 20 43  1  0  0  0  0
 21 44  1  0  0  0  0
 21 45  1  0  0  0  0
M  CHG  1   3   1
M  CHG  1  13  -1
M  END
> <s_m_source_file>
AV-unprocessed.smi

> <i_m_source_file_index>
1586

> <i_lp_mmshare_version>
43012

> <i_f3d_flags>
0

> <s_epik_input>
W0NIM11bQ0gyXU4xW0NIMl1bQ0gyXU4oW0NIMl1bQ0gyXTEpW0NASF0oW0NIM10pW0NIMl1bTkhdQyg9TylbTkhdYzJbY0hdYyhbQ0gzXSlvbjI=

> <s_epik_cmdline>
J2VwaWtfcHl0aG9uJywgJy1waCcsICc3LjAnLCAnLXRuJywgJzgnLCAnLW1hJywgJzIwMCcsICctbWV0YWxfYmluZGluZycsICctaW1hZScsICc8aW5maWxlLm1hZT4nLCAnLW9tYWUnLCAnPG91dGZpbGUubWFlPic=

> <r_epik_Ionization_Penalty>
6.66134

> <r_epik_Ionization_Penalty_Charging>
6.66063

> <r_epik_Ionization_Penalty_Neutral>
0.000714131

> <r_epik_State_Penalty>
6.77843

> <r_epik_Charging_Adjusted_Penalty>
13.4391

> <i_epik_Tot_Q>
0

> <i_epik_Tot_abs_Q>
2

> <r_epik_Metal_State_Penalty>
2.70494

> <b_epik_Metal_Only>
1

> <s_lp_Force_Field>
OPLS_2005

> <r_lp_Energy>
15.0096

> <b_lp_Chiralities_Consistent>
1

> <s_lp_Variant>
AV-unprocessed.smi:1586-8

> <Gold.Version>
5.8.1

> <Gold.Id.Protein>
6NUR|6NUR_protein|mol2

> <Gold.PLP.Fitness>
45.3571

> <Gold.PLP.PLP>
-35.4966

> <Gold.PLP.part.hbond>
-3.0000

> <Gold.PLP.part.metal>
0.0000

> <Gold.PLP.part.buried>
-4.0490

> <Gold.PLP.part.nonpolar>
-27.8310

> <Gold.PLP.part.repulsive>
0.1948

> <Gold.PLP.ligand.clash>
0.0000

> <Gold.PLP.ligand.torsion>
0.9590

> <Gold.PLP.Chemscore.Hbond>
3.8816

> <Gold.PLP.Chemscore.CHOScore>
0.0000

> <Gold.PLP.Chemscore.Metal>
0.0000

> <Gold.Chemscore.Hbonds>
donor molecule, donor type, donor heavy atom, donor atom, acceptor molecule, acceptor atom, score
      L1  H     3    46       P1  8028  2.00
      P1  H  7989  7998       L1     6  0.67
      P1  H  7997  8008       L1    12  1.00

> <Gold.PLP.Chemscore.Internal.Correction>
0.1337

> <Gold.Rescore>
     Score         DG    S(hbond)    S(metal)    S(lipo)     H(rot)  DE(clash)    DE(int)     intcor
     13.57     -16.41       1.71        0.00      82.41       1.73       0.16       2.68       ----

> <Gold.Chemscore.Fitness>
13.5690

> <Gold.Chemscore.DG>
-16.4100

> <Gold.Chemscore.ZeroCoef>
-5.4800

> <Gold.Chemscore.Hbond>
1.7077

> <Gold.Chemscore.Metal>
0.0000

> <Gold.Chemscore.Lipo>
82.4140

> <Gold.Chemscore.Internal_Hbond>
0.0000

> <Gold.Chemscore.DEClash>
0.1601

> <Gold.Chemscore.DEInternal>
2.6810

> <Gold.Chemscore.Rot>
1.7250

> <Gold.Chemscore.Internal.Correction>
   9.000000E+99

> <Gold.Chemscore.Hbonds>
donor molecule, donor type, donor heavy atom, donor atom, acceptor molecule, acceptor atom, score
      L1  H     3    46       P1  8028  0.97
      P1  H  7989  7998       L1     6  0.04
      P1  H  7997  8008       L1    12  0.29

> <Gold.Chemscore.Hbond.Weighted>
-5.7037

> <Gold.Chemscore.Metal.Weighted>
-0.0000

> <Gold.Chemscore.Lipo.Weighted>
-9.6424

> <Gold.Chemscore.Internal_Hbond.Weighted>
0.0000

> <Gold.Chemscore.DEClash.Weighted>
0.1601

> <Gold.Chemscore.DEInternal.Weighted>
2.6810

> <Gold.Chemscore.Rot.Weighted>
4.4161

> <Gold.Chemscore.Internal.Correction.Weighted>
   9.000000E+99

> <Gold.Protein.RotatedTorsions>
[ 6907 6896 6895 6894 ] final -163.69 input  -60.11 | X-H torsion
[ 7974 7965 7964 7962 ] final  103.71 input  175.53 | X-H torsion
[ 8008 7997 7996 7995 ] final  -93.66 input   59.86 | X-H torsion
[ 10167 10162 10161 10158 ] final  124.77 input  -65.29 | X-H torsion
[ 10718 10713 10712 10709 ] final -110.49 input   66.30 | X-H torsion
[ 10763 10752 10751 10750 ] final   74.67 input  -60.55 | X-H torsion
[ 11005 11000 10999 10996 ] final  163.61 input  -57.11 | X-H torsion

> <Gold.Protein.ActiveResidues>
 VAL166  LYS551  ARG553  GLY616  TRP617  ASP618  TYR619  PRO620  LYS621  CYS622 
 ASP623  PHE694  ASN695  SER759  ASP760  ASP761  ALA762  ILE779  LEU786  VAL792 
 PHE793  MET794  SER795  GLU796  ALA797  LYS798  CYS799  TRP800  GLU811  SER814 

> <Gold.Protein.RotatedAtoms>
  151.4000  133.3760  159.2730 H   0  0  0  0  0  0  0  0  0  0  0  0  # atno 6907 bound_to 6896
  150.9441  134.8848  159.7641 H   0  0  0  0  0  0  0  0  0  0  0  0  # atno 6908 bound_to 6896
  152.5084  134.3952  159.9450 H   0  0  0  0  0  0  0  0  0  0  0  0  # atno 6909 bound_to 6896
  145.3424  139.2459  143.3602 H   0  0  0  0  0  0  0  0  0  0  0  0  # atno 7974 bound_to 7965
  154.7386  140.0496  157.0790 H   0  0  0  0  0  0  0  0  0  0  0  0  # atno 8008 bound_to 7997
  155.0208  140.3147  155.4775 H   0  0  0  0  0  0  0  0  0  0  0  0  # atno 8009 bound_to 7997
  156.2859  140.2167  156.5326 H   0  0  0  0  0  0  0  0  0  0  0  0  # atno 8010 bound_to 7997
  139.5723  144.6945  151.3746 H   0  0  0  0  0  0  0  0  0  0  0  0  # atno 10167 bound_to 10162
  156.0594  130.5818  150.8244 H   0  0  0  0  0  0  0  0  0  0  0  0  # atno 10718 bound_to 10713
  153.0602  135.5017  154.8077 H   0  0  0  0  0  0  0  0  0  0  0  0  # atno 10763 bound_to 10752
  154.6871  135.2978  154.9534 H   0  0  0  0  0  0  0  0  0  0  0  0  # atno 10764 bound_to 10752
  154.0301  135.6731  153.4832 H   0  0  0  0  0  0  0  0  0  0  0  0  # atno 10765 bound_to 10752
  140.2375  134.8076  157.3379 H   0  0  0  0  0  0  0  0  0  0  0  0  # atno 11005 bound_to 11000
  146.3002  140.4024  142.8707 LP  0  0  0  0  0  0  0  0  0  0  0  0  # atno 17320 bound_to 7965
  144.8780  140.7362  143.6004 LP  0  0  0  0  0  0  0  0  0  0  0  0  # atno 17321 bound_to 7965
  140.7007  143.7639  150.7398 LP  0  0  0  0  0  0  0  0  0  0  0  0  # atno 17342 bound_to 10162
  140.1148  143.4666  152.2348 LP  0  0  0  0  0  0  0  0  0  0  0  0  # atno 17343 bound_to 10162
  157.5590  131.0945  150.9587 LP  0  0  0  0  0  0  0  0  0  0  0  0  # atno 17370 bound_to 10713
  156.9829  130.5534  149.5297 LP  0  0  0  0  0  0  0  0  0  0  0  0  # atno 17371 bound_to 10713
  140.1687  134.4637  155.7846 LP  0  0  0  0  0  0  0  0  0  0  0  0  # atno 17394 bound_to 11000
  141.2213  133.6932  156.7669 LP  0  0  0  0  0  0  0  0  0  0  0  0  # atno 17395 bound_to 11000

$$$$
