AV-unprocessed.smi:532|AV-procd|sdf|2850|dock1
  -GOLD-   2262023343D 1   1.00000     0.00000
 Structure written by MMmdl.
 49 51  0  0  0  0  0  0  0  0  1 V2000
  143.5872  133.9098  157.9601 C   0  0  0  0  0  0  0  0  0  0  0  0
  143.9118  135.2815  157.8180 O   0  0  0  0  0  0  0  0  0  0  0  0
  145.1946  135.5897  158.3353 C   0  0  0  0  0  0  0  0  0  0  0  0
  146.2283  134.6581  157.6920 C   0  0  0  0  0  0  0  0  0  0  0  0
  147.5772  135.1933  157.8132 N   0  0  0  0  0  0  0  0  0  0  0  0
  148.2739  135.4582  158.9474 C   0  0  0  0  0  0  0  0  0  0  0  0
  147.7192  135.2369  160.2044 N   0  0  0  0  0  0  0  0  0  0  0  0
  148.0953  136.0215  161.3814 C   0  0  0  0  0  0  0  0  0  0  0  0
  146.9500  136.2033  162.4032 C   0  0  1  0  0  0  0  0  0  0  0  0
  145.8970  137.2309  161.9567 C   0  0  0  0  0  0  0  0  0  0  0  0
  146.3318  134.8443  162.7739 C   0  0  0  0  0  0  0  0  0  0  0  0
  145.9735  134.0349  161.5174 C   0  0  2  0  0  0  0  0  0  0  0  0
  145.4257  132.6483  161.8816 C   0  0  0  0  0  0  0  0  0  0  0  0
  147.2060  133.9286  160.6017 C   0  0  0  0  0  0  0  0  0  0  0  0
  149.5080  135.9310  158.7517 N   0  0  0  0  0  0  0  0  0  0  0  0
  149.5982  135.9856  157.3683 C   0  0  0  0  0  0  0  0  0  0  0  0
  148.4507  135.5525  156.7882 C   0  0  0  0  0  0  0  0  0  0  0  0
  148.2689  135.5119  155.3329 C   0  0  0  0  0  0  0  0  0  0  0  0
  147.2329  135.1346  154.7901 O   0  0  0  0  0  0  0  0  0  0  0  0
  149.3607  135.9369  154.6514 N   0  0  0  0  0  0  0  0  0  0  0  0
  150.5458  136.3832  155.1708 C   0  0  0  0  0  0  0  0  0  0  0  0
  151.4475  136.7391  154.4126 O   0  0  0  0  0  0  0  0  0  0  0  0
  150.6714  136.4125  156.5381 N   0  0  0  0  0  0  0  0  0  0  0  0
  151.8954  136.8752  157.1950 C   0  0  0  0  0  0  0  0  0  0  0  0
  149.2912  135.9258  153.6444 H   0  0  0  0  0  0  0  0  0  0  0  0
  142.5951  133.7230  157.5491 H   0  0  0  0  0  0  0  0  0  0  0  0
  143.5784  133.6136  159.0098 H   0  0  0  0  0  0  0  0  0  0  0  0
  144.2971  133.2786  157.4239 H   0  0  0  0  0  0  0  0  0  0  0  0
  145.4435  136.6313  158.1265 H   0  0  0  0  0  0  0  0  0  0  0  0
  145.1997  135.4655  159.4186 H   0  0  0  0  0  0  0  0  0  0  0  0
  146.1950  133.6706  158.1506 H   0  0  0  0  0  0  0  0  0  0  0  0
  145.9984  134.4981  156.6390 H   0  0  0  0  0  0  0  0  0  0  0  0
  148.9353  135.5193  161.8629 H   0  0  0  0  0  0  0  0  0  0  0  0
  148.4687  136.9956  161.0633 H   0  0  0  0  0  0  0  0  0  0  0  0
  147.3959  136.6116  163.3107 H   0  0  0  0  0  0  0  0  0  0  0  0
  145.3787  136.9196  161.0517 H   0  0  0  0  0  0  0  0  0  0  0  0
  146.3550  138.2008  161.7631 H   0  0  0  0  0  0  0  0  0  0  0  0
  145.1428  137.3774  162.7301 H   0  0  0  0  0  0  0  0  0  0  0  0
  147.0498  134.2793  163.3705 H   0  0  0  0  0  0  0  0  0  0  0  0
  145.4532  134.9838  163.4048 H   0  0  0  0  0  0  0  0  0  0  0  0
  145.1890  134.5623  160.9731 H   0  0  0  0  0  0  0  0  0  0  0  0
  146.1679  132.0570  162.4191 H   0  0  0  0  0  0  0  0  0  0  0  0
  145.1400  132.0930  160.9878 H   0  0  0  0  0  0  0  0  0  0  0  0
  144.5421  132.7295  162.5150 H   0  0  0  0  0  0  0  0  0  0  0  0
  146.9478  133.3653  159.7040 H   0  0  0  0  0  0  0  0  0  0  0  0
  148.0017  133.3717  161.0984 H   0  0  0  0  0  0  0  0  0  0  0  0
  152.6822  137.1820  156.5052 H   0  0  0  0  0  0  0  0  0  0  0  0
  152.3028  136.0819  157.8228 H   0  0  0  0  0  0  0  0  0  0  0  0
  151.6723  137.7286  157.8359 H   0  0  0  0  0  0  0  0  0  0  0  0
  1  2  1  0  0  0  0
  1 26  1  0  0  0  0
  1 27  1  0  0  0  0
  1 28  1  0  0  0  0
  2  3  1  0  0  0  0
  3  4  1  0  0  0  0
  3 29  1  0  0  0  0
  3 30  1  0  0  0  0
  4  5  1  0  0  0  0
  4 31  1  0  0  0  0
  4 32  1  0  0  0  0
  5 17  1  0  0  0  0
  5  6  1  0  0  0  0
  6  7  1  0  0  0  0
  6 15  2  0  0  0  0
  7 14  1  0  0  0  0
  7  8  1  0  0  0  0
  8  9  1  0  0  0  0
  8 33  1  0  0  0  0
  8 34  1  0  0  0  0
  9 10  1  0  0  0  0
  9 11  1  0  0  0  0
  9 35  1  0  0  0  0
 10 36  1  0  0  0  0
 10 37  1  0  0  0  0
 10 38  1  0  0  0  0
 11 12  1  0  0  0  0
 11 39  1  0  0  0  0
 11 40  1  0  0  0  0
 12 13  1  0  0  0  0
 12 14  1  0  0  0  0
 12 41  1  0  0  0  0
 13 42  1  0  0  0  0
 13 43  1  0  0  0  0
 13 44  1  0  0  0  0
 14 45  1  0  0  0  0
 14 46  1  0  0  0  0
 15 16  1  0  0  0  0
 16 23  1  0  0  0  0
 16 17  2  0  0  0  0
 17 18  1  0  0  0  0
 18 19  2  0  0  0  0
 18 20  1  0  0  0  0
 20 25  1  0  0  0  0
 20 21  1  0  0  0  0
 21 22  2  0  0  0  0
 21 23  1  0  0  0  0
 23 24  1  0  0  0  0
 24 47  1  0  0  0  0
 24 48  1  0  0  0  0
 24 49  1  0  0  0  0
M  END
> <s_m_source_file>
AV-unprocessed.smi

> <i_m_source_file_index>
532

> <i_lp_mmshare_version>
43012

> <i_f3d_flags>
0

> <s_epik_input>
W0NIM11uMWMoPU8pW25IXWMoPU8pYyhjMTIpbihbQ0gyXVtDSDJdT1tDSDNdKWMobjIpTjNbQ0gyXVtDQEBIXShbQ0gzXSlbQ0gyXVtDQEBIXShbQ0gzXSlbQ0gyXTM=

> <s_epik_cmdline>
J2VwaWtfcHl0aG9uJywgJy1waCcsICc3LjAnLCAnLXRuJywgJzgnLCAnLW1hJywgJzIwMCcsICctbWV0YWxfYmluZGluZycsICctaW1hZScsICc8aW5maWxlLm1hZT4nLCAnLW9tYWUnLCAnPG91dGZpbGUubWFlPic=

> <r_lp_tautomer_probability>
1

> <r_epik_Ionization_Penalty>
0.000642525

> <r_epik_Ionization_Penalty_Charging>
0.000121571

> <r_epik_Ionization_Penalty_Neutral>
0.000520954

> <r_epik_State_Penalty>
-0

> <r_epik_Charging_Adjusted_Penalty>
0.000121571

> <i_epik_Tot_Q>
0

> <i_epik_Tot_abs_Q>
0

> <r_epik_Metal_State_Penalty>
0.0931709

> <b_epik_Metal_Only>
0

> <s_lp_Force_Field>
OPLS_2005

> <r_lp_Energy>
43.7667

> <b_lp_Chiralities_Consistent>
1

> <s_lp_Variant>
AV-unprocessed.smi:532-3

> <Gold.Version>
5.8.1

> <Gold.Id.Protein>
6NUR|6NUR_protein|mol2

> <Gold.PLP.Fitness>
36.5653

> <Gold.PLP.PLP>
-28.2555

> <Gold.PLP.part.hbond>
-3.0000

> <Gold.PLP.part.metal>
0.0000

> <Gold.PLP.part.buried>
-5.1122

> <Gold.PLP.part.nonpolar>
-20.9309

> <Gold.PLP.part.repulsive>
0.3024

> <Gold.PLP.ligand.clash>
0.0000

> <Gold.PLP.ligand.torsion>
0.8007

> <Gold.PLP.Chemscore.Hbond>
3.0000

> <Gold.PLP.Chemscore.CHOScore>
0.0000

> <Gold.PLP.Chemscore.Metal>
0.0000

> <Gold.Chemscore.Hbonds>
donor molecule, donor type, donor heavy atom, donor atom, acceptor molecule, acceptor atom, score
      L1  H    20    25       P1  7948  1.00
      P1  H  6896  6909       L1    15  1.00
      P1  H 10752 10764       L1    22  1.00

> <Gold.PLP.Chemscore.Internal.Correction>
0.9112

> <Gold.Rescore>
     Score         DG    S(hbond)    S(metal)    S(lipo)     H(rot)  DE(clash)    DE(int)     intcor
     17.80     -18.68       2.84        0.00      63.05       1.43       0.09       0.79       ----

> <Gold.Chemscore.Fitness>
17.7959

> <Gold.Chemscore.DG>
-18.6762

> <Gold.Chemscore.ZeroCoef>
-5.4800

> <Gold.Chemscore.Hbond>
2.8403

> <Gold.Chemscore.Metal>
0.0000

> <Gold.Chemscore.Lipo>
63.0474

> <Gold.Chemscore.Internal_Hbond>
0.0000

> <Gold.Chemscore.DEClash>
0.0872

> <Gold.Chemscore.DEInternal>
0.7931

> <Gold.Chemscore.Rot>
1.4324

> <Gold.Chemscore.Internal.Correction>
   9.000000E+99

> <Gold.Chemscore.Hbonds>
donor molecule, donor type, donor heavy atom, donor atom, acceptor molecule, acceptor atom, score
      L1  H    20    25       P1  7948  0.70
      P1  H  6896  6909       L1    15  0.65
      P1  H 10752 10764       L1    22  0.94

> <Gold.Chemscore.Hbond.Weighted>
-9.4865

> <Gold.Chemscore.Metal.Weighted>
-0.0000

> <Gold.Chemscore.Lipo.Weighted>
-7.3765

> <Gold.Chemscore.Internal_Hbond.Weighted>
0.0000

> <Gold.Chemscore.DEClash.Weighted>
0.0872

> <Gold.Chemscore.DEInternal.Weighted>
0.7931

> <Gold.Chemscore.Rot.Weighted>
3.6669

> <Gold.Chemscore.Internal.Correction.Weighted>
   9.000000E+99

> <Gold.Protein.RotatedTorsions>
[ 6907 6896 6895 6894 ] final   62.70 input  -60.11 | X-H torsion
[ 7974 7965 7964 7962 ] final   50.37 input  175.53 | X-H torsion
[ 8008 7997 7996 7995 ] final  151.27 input   59.86 | X-H torsion
[ 10167 10162 10161 10158 ] final  -76.54 input  -65.29 | X-H torsion
[ 10718 10713 10712 10709 ] final   49.42 input   66.30 | X-H torsion
[ 10763 10752 10751 10750 ] final  -76.02 input  -60.55 | X-H torsion
[ 11005 11000 10999 10996 ] final  -96.48 input  -57.11 | X-H torsion

> <Gold.Protein.ActiveResidues>
 VAL166  LYS551  ARG553  GLY616  TRP617  ASP618  TYR619  PRO620  LYS621  CYS622 
 ASP623  PHE694  ASN695  SER759  ASP760  ASP761  ALA762  ILE779  LEU786  VAL792 
 PHE793  MET794  SER795  GLU796  ALA797  LYS798  CYS799  TRP800  GLU811  SER814 

> <Gold.Protein.RotatedAtoms>
  152.4193  134.5984  159.9993 H   0  0  0  0  0  0  0  0  0  0  0  0  # atno 6907 bound_to 6896
  151.6138  133.3339  159.3081 H   0  0  0  0  0  0  0  0  0  0  0  0  # atno 6908 bound_to 6896
  150.8082  134.7258  159.6729 H   0  0  0  0  0  0  0  0  0  0  0  0  # atno 6909 bound_to 6896
  146.0018  139.4448  143.0010 H   0  0  0  0  0  0  0  0  0  0  0  0  # atno 7974 bound_to 7965
  156.2681  140.2052  156.6148 H   0  0  0  0  0  0  0  0  0  0  0  0  # atno 8008 bound_to 7997
  154.6803  140.0540  157.0282 H   0  0  0  0  0  0  0  0  0  0  0  0  # atno 8009 bound_to 7997
  155.1010  140.3206  155.4550 H   0  0  0  0  0  0  0  0  0  0  0  0  # atno 8010 bound_to 7997
  140.4848  143.2393  151.8001 H   0  0  0  0  0  0  0  0  0  0  0  0  # atno 10167 bound_to 10162
  157.4785  130.8300  149.8066 H   0  0  0  0  0  0  0  0  0  0  0  0  # atno 10718 bound_to 10713
  154.4943  135.5811  153.6483 H   0  0  0  0  0  0  0  0  0  0  0  0  # atno 10763 bound_to 10752
  152.9867  135.6120  154.3084 H   0  0  0  0  0  0  0  0  0  0  0  0  # atno 10764 bound_to 10752
  154.2986  135.2847  155.2601 H   0  0  0  0  0  0  0  0  0  0  0  0  # atno 10765 bound_to 10752
  141.1410  133.8101  157.0577 H   0  0  0  0  0  0  0  0  0  0  0  0  # atno 11005 bound_to 11000
  145.7475  140.9985  143.1268 LP  0  0  0  0  0  0  0  0  0  0  0  0  # atno 17320 bound_to 7965
  144.6922  139.9174  143.7466 LP  0  0  0  0  0  0  0  0  0  0  0  0  # atno 17321 bound_to 7965
  139.4840  144.4726  151.9406 LP  0  0  0  0  0  0  0  0  0  0  0  0  # atno 17342 bound_to 10162
  140.3812  144.2734  150.5908 LP  0  0  0  0  0  0  0  0  0  0  0  0  # atno 17343 bound_to 10162
  156.0109  130.3834  150.2268 LP  0  0  0  0  0  0  0  0  0  0  0  0  # atno 17370 bound_to 10713
  157.0453  131.0047  151.3270 LP  0  0  0  0  0  0  0  0  0  0  0  0  # atno 17371 bound_to 10713
  140.0591  134.9764  157.1273 LP  0  0  0  0  0  0  0  0  0  0  0  0  # atno 17394 bound_to 11000
  140.3875  134.2220  155.7167 LP  0  0  0  0  0  0  0  0  0  0  0  0  # atno 17395 bound_to 11000

$$$$
