AV-unprocessed.smi:66|AV-procd|sdf|623|dock5
  -GOLD-   2262016513D 1   1.00000     0.00000
 Structure written by MMmdl.
 28 30  0  0  0  0  0  0  0  0  2 V2000
  152.2503  138.0783  159.0513 O   0  0  0  0  0  0  0  0  0  0  0  0
  152.5716  139.1967  158.5937 C   0  0  0  0  0  0  0  0  0  0  0  0
  153.7437  139.6127  158.4557 O   0  5  0  0  0  0  0  0  0  0  0  0
  151.4247  140.1289  158.1753 C   0  0  2  0  0  0  0  0  0  0  0  0
  150.5431  139.5198  157.0621 C   0  0  0  0  0  0  0  0  0  0  0  0
  150.3976  140.6429  156.0351 C   0  0  2  0  0  0  0  0  0  0  0  0
  150.2402  140.1555  154.7194 O   0  0  0  0  0  0  0  0  0  0  0  0
  151.6903  141.4307  156.2133 C   0  0  0  0  0  0  0  0  0  0  0  0
  151.9379  141.3990  157.6518 N   0  0  0  0  0  0  0  0  0  0  0  0
  151.7317  142.5518  158.4442 C   0  0  0  0  0  0  0  0  0  0  0  0
  151.0227  143.5962  157.9507 N   0  0  0  0  0  0  0  0  0  0  0  0
  150.8448  144.6722  158.7284 C   0  0  0  0  0  0  0  0  0  0  0  0
  151.2787  144.8945  159.9784 N   0  0  0  0  0  0  0  0  0  0  0  0
  151.9862  143.8757  160.4840 C   0  0  0  0  0  0  0  0  0  0  0  0
  152.5605  143.8286  161.7472 N   0  0  0  0  0  0  0  0  0  0  0  0
  153.1382  142.6282  161.7422 C   0  0  0  0  0  0  0  0  0  0  0  0
  152.9996  141.9041  160.6201 N   0  0  0  0  0  0  0  0  0  0  0  0
  152.2426  142.6764  159.7543 C   0  0  0  0  0  0  0  0  0  0  0  0
  153.3719  140.9759  160.4666 H   0  0  0  0  0  0  0  0  0  0  0  0
  150.7903  140.3198  159.0424 H   0  0  0  0  0  0  0  0  0  0  0  0
  151.0243  138.6535  156.6035 H   0  0  0  0  0  0  0  0  0  0  0  0
  149.5751  139.1883  157.4390 H   0  0  0  0  0  0  0  0  0  0  0  0
  149.5455  141.2729  156.2946 H   0  0  0  0  0  0  0  0  0  0  0  0
  149.5374  139.5234  154.7198 H   0  0  0  0  0  0  0  0  0  0  0  0
  152.5215  140.9186  155.7258 H   0  0  0  0  0  0  0  0  0  0  0  0
  151.6312  142.4222  155.7644 H   0  0  0  0  0  0  0  0  0  0  0  0
  150.2710  145.4735  158.2870 H   0  0  0  0  0  0  0  0  0  0  0  0
  153.6877  142.2567  162.5945 H   0  0  0  0  0  0  0  0  0  0  0  0
  1  2  2  0  0  0  0
  2  3  1  0  0  0  0
  2  4  1  0  0  0  0
  4  9  1  0  0  0  0
  4  5  1  0  0  0  0
  4 20  1  0  0  0  0
  5  6  1  0  0  0  0
  5 21  1  0  0  0  0
  5 22  1  0  0  0  0
  6  7  1  0  0  0  0
  6  8  1  0  0  0  0
  6 23  1  0  0  0  0
  7 24  1  0  0  0  0
  8  9  1  0  0  0  0
  8 25  1  0  0  0  0
  8 26  1  0  0  0  0
  9 10  1  0  0  0  0
 10 18  1  0  0  0  0
 10 11  2  0  0  0  0
 11 12  1  0  0  0  0
 12 13  2  0  0  0  0
 12 27  1  0  0  0  0
 13 14  1  0  0  0  0
 14 18  2  0  0  0  0
 14 15  1  0  0  0  0
 15 16  2  0  0  0  0
 16 17  1  0  0  0  0
 16 28  1  0  0  0  0
 17 19  1  0  0  0  0
 17 18  1  0  0  0  0
M  CHG  1   3  -1
M  END
> <s_m_source_file>
AV-unprocessed.smi

> <i_m_source_file_index>
66

> <i_lp_mmshare_version>
43012

> <i_f3d_flags>
0

> <s_epik_input>
Tz1DKFtPSF0pW0NAQEhdMVtDSDJdW0NAQEhdKFtPSF0pW0NIMl1OMWMobltjSF1uMiljKGMyMylbbkhdW2NIXW4z

> <s_epik_cmdline>
J2VwaWtfcHl0aG9uJywgJy1waCcsICc3LjAnLCAnLXRuJywgJzgnLCAnLW1hJywgJzIwMCcsICctbWV0YWxfYmluZGluZycsICctaW1hZScsICc8aW5maWxlLm1hZT4nLCAnLW9tYWUnLCAnPG91dGZpbGUubWFlPic=

> <r_lp_tautomer_probability>
0.0419193

> <r_epik_Ionization_Penalty>
0.0157405

> <r_epik_Ionization_Penalty_Charging>
0.000248217

> <r_epik_Ionization_Penalty_Neutral>
0.0154923

> <r_epik_State_Penalty>
1.99742

> <r_epik_Charging_Adjusted_Penalty>
1.99767

> <i_epik_Tot_Q>
-1

> <i_epik_Tot_abs_Q>
1

> <r_epik_Metal_State_Penalty>
2.31035

> <b_epik_Metal_Only>
0

> <s_lp_Force_Field>
OPLS_2005

> <r_lp_Energy>
22.103

> <b_lp_Chiralities_Consistent>
1

> <s_lp_Variant>
AV-unprocessed.smi:66-7

> <Gold.Version>
5.8.1

> <Gold.Id.Protein>
6NUR|6NUR_protein|mol2

> <Gold.PLP.Fitness>
38.9523

> <Gold.PLP.PLP>
-27.1282

> <Gold.PLP.part.hbond>
-2.0000

> <Gold.PLP.part.metal>
0.0000

> <Gold.PLP.part.buried>
-6.3471

> <Gold.PLP.part.nonpolar>
-17.6840

> <Gold.PLP.part.repulsive>
0.5087

> <Gold.PLP.ligand.clash>
0.0000

> <Gold.PLP.ligand.torsion>
0.1892

> <Gold.PLP.Chemscore.Hbond>
3.0000

> <Gold.PLP.Chemscore.CHOScore>
0.9927

> <Gold.PLP.Chemscore.Metal>
0.0000

> <Gold.Chemscore.Hbonds>
donor molecule, donor type, donor heavy atom, donor atom, acceptor molecule, acceptor atom, score
      P1  H  7989  7998       L1     7  1.00
      P1  H  7997  8009       L1     3  2.00
      L1  C    12    27       P1  8029  0.82

> <Gold.PLP.Chemscore.Internal.Correction>
0.2244

> <Gold.Rescore>
     Score         DG    S(hbond)    S(metal)    S(lipo)     H(rot)  DE(clash)    DE(int)     intcor
      7.89      -9.49       1.98        0.00      31.91       2.48       1.46       0.14       ----

> <Gold.Chemscore.Fitness>
7.8864

> <Gold.Chemscore.DG>
-9.4908

> <Gold.Chemscore.ZeroCoef>
-5.4800

> <Gold.Chemscore.Hbond>
1.9808

> <Gold.Chemscore.Metal>
0.0000

> <Gold.Chemscore.Lipo>
31.9133

> <Gold.Chemscore.Internal_Hbond>
0.0000

> <Gold.Chemscore.DEClash>
1.4594

> <Gold.Chemscore.DEInternal>
0.1449

> <Gold.Chemscore.Rot>
2.4762

> <Gold.Chemscore.Internal.Correction>
   9.000000E+99

> <Gold.Chemscore.Hbonds>
donor molecule, donor type, donor heavy atom, donor atom, acceptor molecule, acceptor atom, score
      P1  H  7989  7998       L1     7  0.79
      P1  H  7997  8009       L1     3  0.99

> <Gold.Chemscore.Hbond.Weighted>
-6.6160

> <Gold.Chemscore.Metal.Weighted>
-0.0000

> <Gold.Chemscore.Lipo.Weighted>
-3.7339

> <Gold.Chemscore.Internal_Hbond.Weighted>
0.0000

> <Gold.Chemscore.DEClash.Weighted>
1.4594

> <Gold.Chemscore.DEInternal.Weighted>
0.1449

> <Gold.Chemscore.Rot.Weighted>
6.3391

> <Gold.Chemscore.Internal.Correction.Weighted>
   9.000000E+99

> <Gold.Protein.RotatedTorsions>
[ 6907 6896 6895 6894 ] final  151.94 input  -60.11 | X-H torsion
[ 7974 7965 7964 7962 ] final  -58.41 input  175.53 | X-H torsion
[ 8008 7997 7996 7995 ] final  154.26 input   59.86 | X-H torsion
[ 10167 10162 10161 10158 ] final -129.88 input  -65.29 | X-H torsion
[ 10718 10713 10712 10709 ] final   -1.11 input   66.30 | X-H torsion
[ 10763 10752 10751 10750 ] final  168.26 input  -60.55 | X-H torsion
[ 11005 11000 10999 10996 ] final   -9.44 input  -57.11 | X-H torsion

> <Gold.Protein.ActiveResidues>
 VAL166  LYS551  ARG553  GLY616  TRP617  ASP618  TYR619  PRO620  LYS621  CYS622 
 ASP623  PHE694  ASN695  SER759  ASP760  ASP761  ALA762  ILE779  LEU786  VAL792 
 PHE793  MET794  SER795  GLU796  ALA797  LYS798  CYS799  TRP800  GLU811  SER814 

> <Gold.Protein.RotatedAtoms>
  152.0937  133.4213  159.4555 H   0  0  0  0  0  0  0  0  0  0  0  0  # atno 6907 bound_to 6896
  150.6863  134.2842  159.4649 H   0  0  0  0  0  0  0  0  0  0  0  0  # atno 6908 bound_to 6896
  152.0695  134.9542  160.0625 H   0  0  0  0  0  0  0  0  0  0  0  0  # atno 6909 bound_to 6896
  145.8396  140.8426  143.0041 H   0  0  0  0  0  0  0  0  0  0  0  0  # atno 7974 bound_to 7965
  156.2540  140.1971  156.6619 H   0  0  0  0  0  0  0  0  0  0  0  0  # atno 8008 bound_to 7997
  154.6458  140.0578  156.9924 H   0  0  0  0  0  0  0  0  0  0  0  0  # atno 8009 bound_to 7997
  155.1493  140.3250  155.4437 H   0  0  0  0  0  0  0  0  0  0  0  0  # atno 8010 bound_to 7997
  139.9351  143.6227  152.2519 H   0  0  0  0  0  0  0  0  0  0  0  0  # atno 10167 bound_to 10162
  156.8104  130.5422  149.5709 H   0  0  0  0  0  0  0  0  0  0  0  0  # atno 10718 bound_to 10713
  154.3659  135.2753  155.2294 H   0  0  0  0  0  0  0  0  0  0  0  0  # atno 10763 bound_to 10752
  154.4462  135.5942  153.6165 H   0  0  0  0  0  0  0  0  0  0  0  0  # atno 10764 bound_to 10752
  152.9841  135.6030  154.3885 H   0  0  0  0  0  0  0  0  0  0  0  0  # atno 10765 bound_to 10752
  140.7341  133.8724  155.8916 H   0  0  0  0  0  0  0  0  0  0  0  0  # atno 11005 bound_to 11000
  144.6734  140.0793  143.7470 LP  0  0  0  0  0  0  0  0  0  0  0  0  # atno 17320 bound_to 7965
  145.9480  139.2714  143.1229 LP  0  0  0  0  0  0  0  0  0  0  0  0  # atno 17321 bound_to 7965
  139.6750  144.7659  151.1713 LP  0  0  0  0  0  0  0  0  0  0  0  0  # atno 17342 bound_to 10162
  140.7626  143.5809  150.8896 LP  0  0  0  0  0  0  0  0  0  0  0  0  # atno 17343 bound_to 10162
  156.1048  130.5996  150.9952 LP  0  0  0  0  0  0  0  0  0  0  0  0  # atno 17370 bound_to 10713
  157.6509  131.0897  150.8054 LP  0  0  0  0  0  0  0  0  0  0  0  0  # atno 17371 bound_to 10713
  140.9895  134.1298  157.4421 LP  0  0  0  0  0  0  0  0  0  0  0  0  # atno 17394 bound_to 11000
  139.8820  135.0036  156.6196 LP  0  0  0  0  0  0  0  0  0  0  0  0  # atno 17395 bound_to 11000

$$$$
