AV-unprocessed.smi:2853|AV-procd|sdf|10973|dock2
  -GOLD-   2272015423D 1   1.00000     0.00000
 Structure written by MMmdl.
 43 44  0  0  0  0  0  0  0  0  1 V2000
  149.3465  129.4767  154.8451 C   0  0  0  0  0  0  0  0  0  0  0  0
  149.0831  130.8995  154.4886 C   0  0  0  0  0  0  0  0  0  0  0  0
  148.1566  131.2841  153.6123 N   0  0  0  0  0  0  0  0  0  0  0  0
  148.1097  132.6715  153.4468 C   0  0  0  0  0  0  0  0  0  0  0  0
  147.1125  133.2510  152.4812 C   0  0  0  0  0  0  0  0  0  0  0  0
  145.6794  132.7168  152.6833 C   0  0  0  0  0  0  0  0  0  0  0  0
  145.6021  131.1844  152.5703 C   0  0  0  0  0  0  0  0  0  0  0  0
  144.7039  133.3846  151.7028 C   0  0  0  0  0  0  0  0  0  0  0  0
  149.0234  133.3633  154.2127 C   0  0  0  0  0  0  0  0  0  0  0  0
  149.1791  134.7140  154.1942 N   0  0  0  0  0  0  0  0  0  0  0  0
  149.7896  135.5126  155.0866 C   0  0  0  0  0  0  0  0  0  0  0  0
  150.2391  135.1546  156.1748 O   0  0  0  0  0  0  0  0  0  0  0  0
  149.8338  136.7787  154.6381 N   0  0  0  0  0  0  0  0  0  0  0  0
  150.4089  137.9631  155.2905 C   0  0  1  0  0  0  0  0  0  0  0  0
  149.6963  138.1346  156.6450 C   0  0  0  0  0  0  0  0  0  0  0  0
  151.9306  137.8569  155.4930 C   0  0  0  0  0  0  0  0  0  0  0  0
  152.5035  139.0026  154.6607 C   0  0  0  0  0  0  0  0  0  0  0  0
  151.4572  139.9582  154.6511 O   0  0  0  0  0  0  0  0  0  0  0  0
  150.2519  139.2410  154.4374 C   0  0  0  0  0  0  0  0  0  0  0  0
  149.9728  132.2441  155.1789 S   0  0  0  0  0  0  0  0  0  0  0  0
  148.6035  128.8217  154.3891 H   0  0  0  0  0  0  0  0  0  0  0  0
  149.3067  129.3497  155.9270 H   0  0  0  0  0  0  0  0  0  0  0  0
  150.3353  129.1823  154.4935 H   0  0  0  0  0  0  0  0  0  0  0  0
  147.1051  134.3366  152.5884 H   0  0  0  0  0  0  0  0  0  0  0  0
  147.4274  133.0686  151.4531 H   0  0  0  0  0  0  0  0  0  0  0  0
  145.3581  132.9916  153.6892 H   0  0  0  0  0  0  0  0  0  0  0  0
  145.9467  130.8413  151.5942 H   0  0  0  0  0  0  0  0  0  0  0  0
  144.5785  130.8327  152.7037 H   0  0  0  0  0  0  0  0  0  0  0  0
  146.2118  130.6951  153.3299 H   0  0  0  0  0  0  0  0  0  0  0  0
  144.9620  133.1548  150.6684 H   0  0  0  0  0  0  0  0  0  0  0  0
  144.7131  134.4692  151.8153 H   0  0  0  0  0  0  0  0  0  0  0  0
  143.6812  133.0470  151.8735 H   0  0  0  0  0  0  0  0  0  0  0  0
  148.8114  135.1731  153.3739 H   0  0  0  0  0  0  0  0  0  0  0  0
  149.4252  136.9469  153.7306 H   0  0  0  0  0  0  0  0  0  0  0  0
  150.0547  139.0192  157.1731 H   0  0  0  0  0  0  0  0  0  0  0  0
  149.8627  137.2733  157.2931 H   0  0  0  0  0  0  0  0  0  0  0  0
  148.6191  138.2467  156.5152 H   0  0  0  0  0  0  0  0  0  0  0  0
  152.1925  138.0106  156.5406 H   0  0  0  0  0  0  0  0  0  0  0  0
  152.3540  136.8948  155.2027 H   0  0  0  0  0  0  0  0  0  0  0  0
  153.4200  139.4129  155.0851 H   0  0  0  0  0  0  0  0  0  0  0  0
  152.7133  138.6797  153.6400 H   0  0  0  0  0  0  0  0  0  0  0  0
  150.1644  139.0305  153.3711 H   0  0  0  0  0  0  0  0  0  0  0  0
  149.3854  139.8402  154.7190 H   0  0  0  0  0  0  0  0  0  0  0  0
  1  2  1  0  0  0  0
  1 21  1  0  0  0  0
  1 22  1  0  0  0  0
  1 23  1  0  0  0  0
  2 20  1  0  0  0  0
  2  3  2  0  0  0  0
  3  4  1  0  0  0  0
  4  5  1  0  0  0  0
  4  9  2  0  0  0  0
  5  6  1  0  0  0  0
  5 24  1  0  0  0  0
  5 25  1  0  0  0  0
  6  7  1  0  0  0  0
  6  8  1  0  0  0  0
  6 26  1  0  0  0  0
  7 27  1  0  0  0  0
  7 28  1  0  0  0  0
  7 29  1  0  0  0  0
  8 30  1  0  0  0  0
  8 31  1  0  0  0  0
  8 32  1  0  0  0  0
  9 10  1  0  0  0  0
  9 20  1  0  0  0  0
 10 11  1  0  0  0  0
 10 33  1  0  0  0  0
 11 12  2  0  0  0  0
 11 13  1  0  0  0  0
 13 14  1  0  0  0  0
 13 34  1  0  0  0  0
 14 19  1  0  0  0  0
 14 15  1  0  0  0  0
 14 16  1  0  0  0  0
 15 35  1  0  0  0  0
 15 36  1  0  0  0  0
 15 37  1  0  0  0  0
 16 17  1  0  0  0  0
 16 38  1  0  0  0  0
 16 39  1  0  0  0  0
 17 18  1  0  0  0  0
 17 40  1  0  0  0  0
 17 41  1  0  0  0  0
 18 19  1  0  0  0  0
 19 42  1  0  0  0  0
 19 43  1  0  0  0  0
M  END
> <s_m_source_file>
AV-unprocessed.smi

> <i_m_source_file_index>
2853

> <i_lp_mmshare_version>
43012

> <i_f3d_flags>
0

> <s_epik_input>
W0NIM11jMW5jKFtDSDJdW0NIXShbQ0gzXSlbQ0gzXSljKHMxKVtOSF1DKD1PKVtOSF1bQ0BAXTIoW0NIM10pW0NIMl1bQ0gyXU9bQ0gyXTI=

> <s_epik_cmdline>
J2VwaWtfcHl0aG9uJywgJy1waCcsICc3LjAnLCAnLXRuJywgJzgnLCAnLW1hJywgJzIwMCcsICctbWV0YWxfYmluZGluZycsICctaW1hZScsICc8aW5maWxlLm1hZT4nLCAnLW9tYWUnLCAnPG91dGZpbGUubWFlPic=

> <r_epik_Ionization_Penalty>
0.000723394

> <r_epik_Ionization_Penalty_Charging>
0

> <r_epik_Ionization_Penalty_Neutral>
0.000723394

> <r_epik_State_Penalty>
0.000446791

> <r_epik_Charging_Adjusted_Penalty>
0.000446791

> <i_epik_Tot_Q>
0

> <i_epik_Tot_abs_Q>
0

> <r_epik_Metal_State_Penalty>
-0

> <b_epik_Metal_Only>
0

> <s_lp_Force_Field>
OPLS_2005

> <r_lp_Energy>
15.1609

> <b_lp_Chiralities_Consistent>
1

> <s_lp_Variant>
AV-unprocessed.smi:2853-1

> <Gold.Version>
5.8.1

> <Gold.Id.Protein>
6NUR|6NUR_protein|mol2

> <Gold.PLP.Fitness>
44.1524

> <Gold.PLP.PLP>
-35.4785

> <Gold.PLP.part.hbond>
-3.0000

> <Gold.PLP.part.metal>
0.0000

> <Gold.PLP.part.buried>
-4.7238

> <Gold.PLP.part.nonpolar>
-28.8120

> <Gold.PLP.part.repulsive>
0.6633

> <Gold.PLP.ligand.clash>
0.0000

> <Gold.PLP.ligand.torsion>
0.1839

> <Gold.PLP.Chemscore.Hbond>
3.0000

> <Gold.PLP.Chemscore.CHOScore>
0.0000

> <Gold.PLP.Chemscore.Metal>
0.0000

> <Gold.Chemscore.Hbonds>
donor molecule, donor type, donor heavy atom, donor atom, acceptor molecule, acceptor atom, score
      L1  H    10    33       P1  7948  1.00
      L1  H    13    34       P1  7948  0.95
      P1  H  7989  7998       L1    18  0.86

> <Gold.PLP.Chemscore.Internal.Correction>
0.0417

> <Gold.Rescore>
     Score         DG    S(hbond)    S(metal)    S(lipo)     H(rot)  DE(clash)    DE(int)     intcor
     16.11     -17.63       1.99        0.00      74.89       1.28       0.01       1.51       ----

> <Gold.Chemscore.Fitness>
16.1129

> <Gold.Chemscore.DG>
-17.6325

> <Gold.Chemscore.ZeroCoef>
-5.4800

> <Gold.Chemscore.Hbond>
1.9926

> <Gold.Chemscore.Metal>
0.0000

> <Gold.Chemscore.Lipo>
74.8864

> <Gold.Chemscore.Internal_Hbond>
0.0000

> <Gold.Chemscore.DEClash>
0.0093

> <Gold.Chemscore.DEInternal>
1.5103

> <Gold.Chemscore.Rot>
1.2753

> <Gold.Chemscore.Internal.Correction>
   9.000000E+99

> <Gold.Chemscore.Hbonds>
donor molecule, donor type, donor heavy atom, donor atom, acceptor molecule, acceptor atom, score
      L1  H    10    33       P1  7948  0.63
      L1  H    13    34       P1  7948  0.80
      P1  H  7989  7998       L1    18  0.38

> <Gold.Chemscore.Hbond.Weighted>
-6.6554

> <Gold.Chemscore.Metal.Weighted>
-0.0000

> <Gold.Chemscore.Lipo.Weighted>
-8.7617

> <Gold.Chemscore.Internal_Hbond.Weighted>
0.0000

> <Gold.Chemscore.DEClash.Weighted>
0.0093

> <Gold.Chemscore.DEInternal.Weighted>
1.5103

> <Gold.Chemscore.Rot.Weighted>
3.2646

> <Gold.Chemscore.Internal.Correction.Weighted>
   9.000000E+99

> <Gold.Protein.RotatedTorsions>
[ 6907 6896 6895 6894 ] final -138.77 input  -60.11 | X-H torsion
[ 7974 7965 7964 7962 ] final  -20.26 input  175.53 | X-H torsion
[ 8008 7997 7996 7995 ] final -118.90 input   59.86 | X-H torsion
[ 10167 10162 10161 10158 ] final   49.60 input  -65.29 | X-H torsion
[ 10718 10713 10712 10709 ] final   31.53 input   66.30 | X-H torsion
[ 10763 10752 10751 10750 ] final  -56.86 input  -60.55 | X-H torsion
[ 11005 11000 10999 10996 ] final  -77.60 input  -57.11 | X-H torsion

> <Gold.Protein.ActiveResidues>
 VAL166  LYS551  ARG553  GLY616  TRP617  ASP618  TYR619  PRO620  LYS621  CYS622 
 ASP623  PHE694  ASN695  SER759  ASP760  ASP761  ALA762  ILE779  LEU786  VAL792 
 PHE793  MET794  SER795  GLU796  ALA797  LYS798  CYS799  TRP800  GLU811  SER814 

> <Gold.Protein.RotatedAtoms>
  151.0392  133.5721  159.2652 H   0  0  0  0  0  0  0  0  0  0  0  0  # atno 6907 bound_to 6896
  151.2774  135.0702  159.9166 H   0  0  0  0  0  0  0  0  0  0  0  0  # atno 6908 bound_to 6896
  152.5361  134.0112  159.7993 H   0  0  0  0  0  0  0  0  0  0  0  0  # atno 6909 bound_to 6896
  146.1798  140.4177  142.8499 H   0  0  0  0  0  0  0  0  0  0  0  0  # atno 7974 bound_to 7965
  155.1070  140.0396  157.2713 H   0  0  0  0  0  0  0  0  0  0  0  0  # atno 8008 bound_to 7997
  154.6714  140.2613  155.6977 H   0  0  0  0  0  0  0  0  0  0  0  0  # atno 8009 bound_to 7997
  156.2660  140.2797  156.1224 H   0  0  0  0  0  0  0  0  0  0  0  0  # atno 8010 bound_to 7997
  140.2812  144.3154  150.6264 H   0  0  0  0  0  0  0  0  0  0  0  0  # atno 10167 bound_to 10162
  157.2736  130.7220  149.6518 H   0  0  0  0  0  0  0  0  0  0  0  0  # atno 10718 bound_to 10713
  154.2134  135.6390  153.5122 H   0  0  0  0  0  0  0  0  0  0  0  0  # atno 10763 bound_to 10752
  152.9985  135.5479  154.6191 H   0  0  0  0  0  0  0  0  0  0  0  0  # atno 10764 bound_to 10752
  154.5633  135.2911  155.0871 H   0  0  0  0  0  0  0  0  0  0  0  0  # atno 10765 bound_to 10752
  141.1661  133.7029  156.7845 H   0  0  0  0  0  0  0  0  0  0  0  0  # atno 11005 bound_to 11000
  144.8296  140.6684  143.6300 LP  0  0  0  0  0  0  0  0  0  0  0  0  # atno 17320 bound_to 7965
  145.4109  139.1580  143.4126 LP  0  0  0  0  0  0  0  0  0  0  0  0  # atno 17321 bound_to 7965
  140.5810  143.2173  151.7429 LP  0  0  0  0  0  0  0  0  0  0  0  0  # atno 17342 bound_to 10162
  139.4962  144.4080  152.0111 LP  0  0  0  0  0  0  0  0  0  0  0  0  # atno 17343 bound_to 10162
  155.9663  130.4360  150.5114 LP  0  0  0  0  0  0  0  0  0  0  0  0  # atno 17370 bound_to 10713
  157.3044  131.0651  151.2046 LP  0  0  0  0  0  0  0  0  0  0  0  0  # atno 17371 bound_to 10713
  140.2370  134.8642  157.3535 LP  0  0  0  0  0  0  0  0  0  0  0  0  # atno 17394 bound_to 11000
  140.1834  134.4462  155.7758 LP  0  0  0  0  0  0  0  0  0  0  0  0  # atno 17395 bound_to 11000

$$$$
