AV-unprocessed.smi:3228|AV-procd|sdf|12322|dock1
  -GOLD-   2272018173D 1   1.00000     0.00000
 Structure written by MMmdl.
 31 32  0  0  0  0  0  0  0  0  1 V2000
  144.7578  137.2287  152.1771 O   0  0  0  0  0  0  0  0  0  0  0  0
  145.9484  136.9306  152.0787 C   0  0  0  0  0  0  0  0  0  0  0  0
  146.9469  137.7516  152.4348 N   0  0  0  0  0  0  0  0  0  0  0  0
  146.7727  139.0964  152.9744 C   0  0  0  0  0  0  0  0  0  0  0  0
  148.1212  139.7722  153.2934 C   0  0  1  0  0  0  0  0  0  0  0  0
  147.9925  141.2272  153.7742 C   0  0  0  0  0  0  0  0  0  0  0  0
  149.1708  141.4790  154.7289 C   0  0  0  0  0  0  0  0  0  0  0  0
  149.9164  140.1461  154.8556 C   0  0  0  0  0  0  0  0  0  0  0  0
  148.9052  139.0863  154.4171 C   0  0  2  0  0  0  0  0  0  0  0  0
  149.5529  137.9096  153.9790 O   0  0  0  0  0  0  0  0  0  0  0  0
  146.4220  135.7625  151.6102 N   0  0  0  0  0  0  0  0  0  0  0  0
  145.6879  134.6547  151.1101 C   0  0  0  0  0  0  0  0  0  0  0  0
  144.3530  134.6077  151.0291 N   0  0  0  0  0  0  0  0  0  0  0  0
  143.9023  133.3994  150.4913 C   0  0  0  0  0  0  0  0  0  0  0  0
  144.9147  132.5307  150.1680 C   0  0  0  0  0  0  0  0  0  0  0  0
  146.4839  133.2002  150.5273 S   0  0  0  0  0  0  0  0  0  0  0  0
  147.8957  137.4257  152.3230 H   0  0  0  0  0  0  0  0  0  0  0  0
  146.2233  139.6858  152.2400 H   0  0  0  0  0  0  0  0  0  0  0  0
  146.1459  139.0595  153.8668 H   0  0  0  0  0  0  0  0  0  0  0  0
  148.7448  139.7716  152.3970 H   0  0  0  0  0  0  0  0  0  0  0  0
  147.9892  141.9252  152.9364 H   0  0  0  0  0  0  0  0  0  0  0  0
  147.0563  141.3685  154.3161 H   0  0  0  0  0  0  0  0  0  0  0  0
  149.8307  142.2645  154.3594 H   0  0  0  0  0  0  0  0  0  0  0  0
  148.7969  141.7984  155.7023 H   0  0  0  0  0  0  0  0  0  0  0  0
  150.7702  140.1501  154.1759 H   0  0  0  0  0  0  0  0  0  0  0  0
  150.2981  139.9711  155.8620 H   0  0  0  0  0  0  0  0  0  0  0  0
  148.2404  138.8470  155.2484 H   0  0  0  0  0  0  0  0  0  0  0  0
  149.0667  137.5503  153.2528 H   0  0  0  0  0  0  0  0  0  0  0  0
  147.4257  135.6576  151.5979 H   0  0  0  0  0  0  0  0  0  0  0  0
  142.8404  133.2415  150.3731 H   0  0  0  0  0  0  0  0  0  0  0  0
  144.8325  131.5421  149.7414 H   0  0  0  0  0  0  0  0  0  0  0  0
  1  2  2  0  0  0  0
  2  3  1  0  0  0  0
  2 11  1  0  0  0  0
  3  4  1  0  0  0  0
  3 17  1  0  0  0  0
  4  5  1  0  0  0  0
  4 18  1  0  0  0  0
  4 19  1  0  0  0  0
  5  9  1  0  0  0  0
  5  6  1  0  0  0  0
  5 20  1  0  0  0  0
  6  7  1  0  0  0  0
  6 21  1  0  0  0  0
  6 22  1  0  0  0  0
  7  8  1  0  0  0  0
  7 23  1  0  0  0  0
  7 24  1  0  0  0  0
  8  9  1  0  0  0  0
  8 25  1  0  0  0  0
  8 26  1  0  0  0  0
  9 10  1  0  0  0  0
  9 27  1  0  0  0  0
 10 28  1  0  0  0  0
 11 12  1  0  0  0  0
 11 29  1  0  0  0  0
 12 16  1  0  0  0  0
 12 13  2  0  0  0  0
 13 14  1  0  0  0  0
 14 15  2  0  0  0  0
 14 30  1  0  0  0  0
 15 16  1  0  0  0  0
 15 31  1  0  0  0  0
M  END
> <s_m_source_file>
AV-unprocessed.smi

> <i_m_source_file_index>
3228

> <i_lp_mmshare_version>
43012

> <i_f3d_flags>
0

> <s_epik_input>
czFbY0hdW2NIXW5jMVtOSF1DKD1PKVtOSF1bQ0gyXVtDQEBIXTJbQ0gyXVtDSDJdW0NIMl1bQ0BIXTJbT0hd

> <s_epik_cmdline>
J2VwaWtfcHl0aG9uJywgJy1waCcsICc3LjAnLCAnLXRuJywgJzgnLCAnLW1hJywgJzIwMCcsICctbWV0YWxfYmluZGluZycsICctaW1hZScsICc8aW5maWxlLm1hZT4nLCAnLW9tYWUnLCAnPG91dGZpbGUubWFlPic=

> <r_lp_tautomer_probability>
0.999

> <r_epik_Ionization_Penalty>
0.000399498

> <r_epik_Ionization_Penalty_Charging>
0

> <r_epik_Ionization_Penalty_Neutral>
0.000399498

> <r_epik_State_Penalty>
0.000177984

> <r_epik_Charging_Adjusted_Penalty>
0.000177984

> <i_epik_Tot_Q>
0

> <i_epik_Tot_abs_Q>
0

> <r_epik_Metal_State_Penalty>
0.0060793

> <b_epik_Metal_Only>
0

> <s_lp_Force_Field>
OPLS_2005

> <r_lp_Energy>
21.0821

> <b_lp_Chiralities_Consistent>
1

> <s_lp_Variant>
AV-unprocessed.smi:3228-4

> <Gold.Version>
5.8.1

> <Gold.Id.Protein>
6NUR|6NUR_protein|mol2

> <Gold.PLP.Fitness>
40.4833

> <Gold.PLP.PLP>
-28.7212

> <Gold.PLP.part.hbond>
-3.0000

> <Gold.PLP.part.metal>
0.0000

> <Gold.PLP.part.buried>
-0.2194

> <Gold.PLP.part.nonpolar>
-26.5256

> <Gold.PLP.part.repulsive>
0.7982

> <Gold.PLP.ligand.clash>
0.0000

> <Gold.PLP.ligand.torsion>
0.0115

> <Gold.PLP.Chemscore.Hbond>
2.9280

> <Gold.PLP.Chemscore.CHOScore>
1.0000

> <Gold.PLP.Chemscore.Metal>
0.0000

> <Gold.Chemscore.Hbonds>
donor molecule, donor type, donor heavy atom, donor atom, acceptor molecule, acceptor atom, score
      L1  H     3    17       P1  7948  0.99
      L1  H    10    28       P1  7948  0.94
      L1  H    11    29       P1  7948  1.00
      L1  C    14    30       P1 10186  1.00

> <Gold.PLP.Chemscore.Internal.Correction>
0.0012

> <Gold.Rescore>
     Score         DG    S(hbond)    S(metal)    S(lipo)     H(rot)  DE(clash)    DE(int)     intcor
     14.49     -17.88       2.79        0.00      67.27       1.88       1.29       2.10       ----

> <Gold.Chemscore.Fitness>
14.4857

> <Gold.Chemscore.DG>
-17.8761

> <Gold.Chemscore.ZeroCoef>
-5.4800

> <Gold.Chemscore.Hbond>
2.7948

> <Gold.Chemscore.Metal>
0.0000

> <Gold.Chemscore.Lipo>
67.2715

> <Gold.Chemscore.Internal_Hbond>
0.0000

> <Gold.Chemscore.DEClash>
1.2876

> <Gold.Chemscore.DEInternal>
2.1028

> <Gold.Chemscore.Rot>
1.8786

> <Gold.Chemscore.Internal.Correction>
   9.000000E+99

> <Gold.Chemscore.Hbonds>
donor molecule, donor type, donor heavy atom, donor atom, acceptor molecule, acceptor atom, score
      L1  H     3    17       P1  7948  0.94
      L1  H    10    28       P1  7948  0.91
      L1  H    11    29       P1  7948  0.95

> <Gold.Chemscore.Hbond.Weighted>
-9.3345

> <Gold.Chemscore.Metal.Weighted>
-0.0000

> <Gold.Chemscore.Lipo.Weighted>
-7.8708

> <Gold.Chemscore.Internal_Hbond.Weighted>
0.0000

> <Gold.Chemscore.DEClash.Weighted>
1.2876

> <Gold.Chemscore.DEInternal.Weighted>
2.1028

> <Gold.Chemscore.Rot.Weighted>
4.8091

> <Gold.Chemscore.Internal.Correction.Weighted>
   9.000000E+99

> <Gold.Protein.RotatedTorsions>
[ 6907 6896 6895 6894 ] final  -20.85 input  -60.11 | X-H torsion
[ 7974 7965 7964 7962 ] final   -6.67 input  175.53 | X-H torsion
[ 8008 7997 7996 7995 ] final  159.94 input   59.86 | X-H torsion
[ 10167 10162 10161 10158 ] final  -31.30 input  -65.29 | X-H torsion
[ 10718 10713 10712 10709 ] final   92.06 input   66.30 | X-H torsion
[ 10763 10752 10751 10750 ] final   90.92 input  -60.55 | X-H torsion
[ 11005 11000 10999 10996 ] final   54.70 input  -57.11 | X-H torsion

> <Gold.Protein.ActiveResidues>
 VAL166  LYS551  ARG553  GLY616  TRP617  ASP618  TYR619  PRO620  LYS621  CYS622 
 ASP623  PHE694  ASN695  SER759  ASP760  ASP761  ALA762  ILE779  LEU786  VAL792 
 PHE793  MET794  SER795  GLU796  ALA797  LYS798  CYS799  TRP800  GLU811  SER814 

> <Gold.Protein.RotatedAtoms>
  151.2421  135.0592  159.9028 H   0  0  0  0  0  0  0  0  0  0  0  0  # atno 6907 bound_to 6896
  152.5392  134.0423  159.8083 H   0  0  0  0  0  0  0  0  0  0  0  0  # atno 6908 bound_to 6896
  151.0619  133.5488  159.2665 H   0  0  0  0  0  0  0  0  0  0  0  0  # atno 6909 bound_to 6896
  146.2325  140.2205  142.8337 H   0  0  0  0  0  0  0  0  0  0  0  0  # atno 7974 bound_to 7965
  156.2206  140.1818  156.7486 H   0  0  0  0  0  0  0  0  0  0  0  0  # atno 8008 bound_to 7997
  154.5859  140.0658  156.9199 H   0  0  0  0  0  0  0  0  0  0  0  0  # atno 8009 bound_to 7997
  155.2421  140.3322  155.4293 H   0  0  0  0  0  0  0  0  0  0  0  0  # atno 8010 bound_to 7997
  140.7238  143.3782  151.1651 H   0  0  0  0  0  0  0  0  0  0  0  0  # atno 10167 bound_to 10162
  157.6959  131.0429  150.3824 H   0  0  0  0  0  0  0  0  0  0  0  0  # atno 10718 bound_to 10713
  153.2027  135.4416  155.0285 H   0  0  0  0  0  0  0  0  0  0  0  0  # atno 10763 bound_to 10752
  154.8156  135.3313  154.7188 H   0  0  0  0  0  0  0  0  0  0  0  0  # atno 10764 bound_to 10752
  153.7632  135.6990  153.4977 H   0  0  0  0  0  0  0  0  0  0  0  0  # atno 10765 bound_to 10752
  140.0666  134.5528  155.9093 H   0  0  0  0  0  0  0  0  0  0  0  0  # atno 11005 bound_to 11000
  144.9636  140.8299  143.5498 LP  0  0  0  0  0  0  0  0  0  0  0  0  # atno 17320 bound_to 7965
  145.2178  139.2173  143.5109 LP  0  0  0  0  0  0  0  0  0  0  0  0  # atno 17321 bound_to 7965
  139.7366  143.8990  152.3036 LP  0  0  0  0  0  0  0  0  0  0  0  0  # atno 17342 bound_to 10162
  139.8797  144.7024  150.8892 LP  0  0  0  0  0  0  0  0  0  0  0  0  # atno 17343 bound_to 10162
  156.4236  130.3958  149.6808 LP  0  0  0  0  0  0  0  0  0  0  0  0  # atno 17370 bound_to 10713
  156.4050  130.7694  151.2704 LP  0  0  0  0  0  0  0  0  0  0  0  0  # atno 17371 bound_to 10713
  141.1995  133.6607  156.5847 LP  0  0  0  0  0  0  0  0  0  0  0  0  # atno 17394 bound_to 11000
  140.3690  134.7622  157.4586 LP  0  0  0  0  0  0  0  0  0  0  0  0  # atno 17395 bound_to 11000

$$$$
