AV-unprocessed.smi:1778|AV-procd|sdf|7180|dock5
  -GOLD-   22720 8423D 1   1.00000     0.00000
 Structure written by MMmdl.
 34 35  0  0  0  0  0  0  0  0  1 V2000
  151.1782  138.3100  154.6188 C   0  0  0  0  0  0  0  0  0  0  0  0
  150.2838  139.5165  154.5950 C   0  0  0  0  0  0  0  0  0  0  0  0
  150.7960  140.7042  154.8694 N   0  0  0  0  0  0  0  0  0  0  0  0
  149.7344  141.6098  154.7821 O   0  0  0  0  0  0  0  0  0  0  0  0
  148.6102  140.9229  154.4556 C   0  0  0  0  0  0  0  0  0  0  0  0
  147.3535  141.7143  154.3212 C   0  0  0  0  0  0  0  0  0  0  0  0
  148.8867  139.5902  154.3210 C   0  0  0  0  0  0  0  0  0  0  0  0
  147.9389  138.4702  153.9747 C   0  0  0  0  0  0  0  0  0  0  0  0
  148.1846  137.2826  154.9046 C   0  0  0  0  0  0  0  0  0  0  0  0
  148.0411  137.4113  156.1200 O   0  0  0  0  0  0  0  0  0  0  0  0
  148.5562  136.1336  154.3198 N   0  0  0  0  0  0  0  0  0  0  0  0
  148.8599  134.8926  155.0231 C   0  0  1  0  0  0  0  0  0  0  0  0
  149.4335  133.8160  154.0796 C   0  0  0  0  0  0  0  0  0  0  0  0
  150.0717  132.7095  154.9281 C   0  0  0  0  0  0  0  0  0  0  0  0
  150.6927  133.5272  156.4465 S   0  0  0  0  0  0  0  0  0  0  0  0
  150.0769  132.8876  157.6190 O   0  0  0  0  0  0  0  0  0  0  0  0
  152.1507  133.6960  156.3547 O   0  0  0  0  0  0  0  0  0  0  0  0
  149.8850  135.1427  156.1378 C   0  0  0  0  0  0  0  0  0  0  0  0
  151.3514  137.9751  155.6415 H   0  0  0  0  0  0  0  0  0  0  0  0
  152.1479  138.5263  154.1697 H   0  0  0  0  0  0  0  0  0  0  0  0
  150.7412  137.4775  154.0680 H   0  0  0  0  0  0  0  0  0  0  0  0
  146.6229  141.4046  155.0686 H   0  0  0  0  0  0  0  0  0  0  0  0
  146.9106  141.5702  153.3359 H   0  0  0  0  0  0  0  0  0  0  0  0
  147.5422  142.7799  154.4535 H   0  0  0  0  0  0  0  0  0  0  0  0
  146.8998  138.7871  154.0725 H   0  0  0  0  0  0  0  0  0  0  0  0
  148.0564  138.1478  152.9397 H   0  0  0  0  0  0  0  0  0  0  0  0
  148.6455  136.1226  153.3141 H   0  0  0  0  0  0  0  0  0  0  0  0
  147.9512  134.5003  155.4842 H   0  0  0  0  0  0  0  0  0  0  0  0
  148.6731  133.4148  153.4086 H   0  0  0  0  0  0  0  0  0  0  0  0
  150.2061  134.2635  153.4526 H   0  0  0  0  0  0  0  0  0  0  0  0
  149.3250  131.9726  155.2250 H   0  0  0  0  0  0  0  0  0  0  0  0
  150.8847  132.1948  154.4159 H   0  0  0  0  0  0  0  0  0  0  0  0
  150.6585  135.8419  155.8179 H   0  0  0  0  0  0  0  0  0  0  0  0
  149.4337  135.5196  157.0559 H   0  0  0  0  0  0  0  0  0  0  0  0
  1  2  1  0  0  0  0
  1 19  1  0  0  0  0
  1 20  1  0  0  0  0
  1 21  1  0  0  0  0
  2  7  1  0  0  0  0
  2  3  2  0  0  0  0
  3  4  1  0  0  0  0
  4  5  1  0  0  0  0
  5  6  1  0  0  0  0
  5  7  2  0  0  0  0
  6 22  1  0  0  0  0
  6 23  1  0  0  0  0
  6 24  1  0  0  0  0
  7  8  1  0  0  0  0
  8  9  1  0  0  0  0
  8 25  1  0  0  0  0
  8 26  1  0  0  0  0
  9 10  2  0  0  0  0
  9 11  1  0  0  0  0
 11 12  1  0  0  0  0
 11 27  1  0  0  0  0
 12 18  1  0  0  0  0
 12 13  1  0  0  0  0
 12 28  1  0  0  0  0
 13 14  1  0  0  0  0
 13 29  1  0  0  0  0
 13 30  1  0  0  0  0
 14 15  1  0  0  0  0
 14 31  1  0  0  0  0
 14 32  1  0  0  0  0
 15 16  2  0  0  0  0
 15 17  2  0  0  0  0
 15 18  1  0  0  0  0
 18 33  1  0  0  0  0
 18 34  1  0  0  0  0
M  END
> <s_m_source_file>
AV-unprocessed.smi

> <i_m_source_file_index>
1778

> <i_lp_mmshare_version>
43012

> <i_f3d_flags>
0

> <s_epik_input>
W0NIM11jMW5vYyhbQ0gzXSljMVtDSDJdQyg9TylbTkhdW0NAQEhdKFtDSDJdMilbQ0gyXVtDSDJdUzIoPU8pPU8=

> <s_epik_cmdline>
J2VwaWtfcHl0aG9uJywgJy1waCcsICc3LjAnLCAnLXRuJywgJzgnLCAnLW1hJywgJzIwMCcsICctbWV0YWxfYmluZGluZycsICctaW1hZScsICc8aW5maWxlLm1hZT4nLCAnLW9tYWUnLCAnPG91dGZpbGUubWFlPic=

> <r_lp_tautomer_probability>
1

> <r_epik_Ionization_Penalty>
1.26334e-07

> <r_epik_Ionization_Penalty_Charging>
0

> <r_epik_Ionization_Penalty_Neutral>
1.26334e-07

> <r_epik_State_Penalty>
-0

> <r_epik_Charging_Adjusted_Penalty>
0

> <i_epik_Tot_Q>
0

> <i_epik_Tot_abs_Q>
0

> <r_epik_Metal_State_Penalty>
-0

> <b_epik_Metal_Only>
0

> <s_lp_Force_Field>
OPLS_2005

> <r_lp_Energy>
-2.84578

> <b_lp_Chiralities_Consistent>
1

> <s_lp_Variant>
AV-unprocessed.smi:1778-2

> <Gold.Version>
5.8.1

> <Gold.Id.Protein>
6NUR|6NUR_protein|mol2

> <Gold.PLP.Fitness>
34.9841

> <Gold.PLP.PLP>
-26.7959

> <Gold.PLP.part.hbond>
-4.9740

> <Gold.PLP.part.metal>
0.0000

> <Gold.PLP.part.buried>
0.0588

> <Gold.PLP.part.nonpolar>
-21.8739

> <Gold.PLP.part.repulsive>
0.2719

> <Gold.PLP.ligand.clash>
0.0000

> <Gold.PLP.ligand.torsion>
0.2480

> <Gold.PLP.Chemscore.Hbond>
2.8940

> <Gold.PLP.Chemscore.CHOScore>
0.0000

> <Gold.PLP.Chemscore.Metal>
0.0000

> <Gold.Chemscore.Hbonds>
donor molecule, donor type, donor heavy atom, donor atom, acceptor molecule, acceptor atom, score
      L1  H    11    27       P1  7948  0.88
      P1  H  6896  6907       L1    16  1.00
      P1  H  7989  7998       L1     3  0.82
      P1  H 10752 10763       L1    17  0.10

> <Gold.PLP.Chemscore.Internal.Correction>
0.0022

> <Gold.Rescore>
     Score         DG    S(hbond)    S(metal)    S(lipo)     H(rot)  DE(clash)    DE(int)     intcor
     15.23     -18.53       3.06        0.00      57.20       1.51       1.77       1.53       ----

> <Gold.Chemscore.Fitness>
15.2259

> <Gold.Chemscore.DG>
-18.5321

> <Gold.Chemscore.ZeroCoef>
-5.4800

> <Gold.Chemscore.Hbond>
3.0578

> <Gold.Chemscore.Metal>
0.0000

> <Gold.Chemscore.Lipo>
57.1970

> <Gold.Chemscore.Internal_Hbond>
0.0000

> <Gold.Chemscore.DEClash>
1.7731

> <Gold.Chemscore.DEInternal>
1.5331

> <Gold.Chemscore.Rot>
1.5051

> <Gold.Chemscore.Internal.Correction>
   9.000000E+99

> <Gold.Chemscore.Hbonds>
donor molecule, donor type, donor heavy atom, donor atom, acceptor molecule, acceptor atom, score
      L1  H    11    27       P1  7948  0.84
      P1  H  6896  6907       L1    16  0.61
      P1  H  7989  7998       L1     3  0.08
      P1  H 10752 10763       L1    17  0.10

> <Gold.Chemscore.Hbond.Weighted>
-10.2132

> <Gold.Chemscore.Metal.Weighted>
-0.0000

> <Gold.Chemscore.Lipo.Weighted>
-6.6921

> <Gold.Chemscore.Internal_Hbond.Weighted>
0.0000

> <Gold.Chemscore.DEClash.Weighted>
1.7731

> <Gold.Chemscore.DEInternal.Weighted>
1.5331

> <Gold.Chemscore.Rot.Weighted>
3.8531

> <Gold.Chemscore.Internal.Correction.Weighted>
   9.000000E+99

> <Gold.Protein.RotatedTorsions>
[ 6907 6896 6895 6894 ] final -117.99 input  -60.11 | X-H torsion
[ 7974 7965 7964 7962 ] final  -10.49 input  175.53 | X-H torsion
[ 8008 7997 7996 7995 ] final  161.56 input   59.86 | X-H torsion
[ 10167 10162 10161 10158 ] final   80.57 input  -65.29 | X-H torsion
[ 10718 10713 10712 10709 ] final   88.27 input   66.30 | X-H torsion
[ 10763 10752 10751 10750 ] final   99.52 input  -60.55 | X-H torsion
[ 11005 11000 10999 10996 ] final   18.73 input  -57.11 | X-H torsion

> <Gold.Protein.ActiveResidues>
 VAL166  LYS551  ARG553  GLY616  TRP617  ASP618  TYR619  PRO620  LYS621  CYS622 
 ASP623  PHE694  ASN695  SER759  ASP760  ASP761  ALA762  ILE779  LEU786  VAL792 
 PHE793  MET794  SER795  GLU796  ALA797  LYS798  CYS799  TRP800  GLU811  SER814 

> <Gold.Protein.RotatedAtoms>
  150.8182  133.8300  159.3150 H   0  0  0  0  0  0  0  0  0  0  0  0  # atno 6907 bound_to 6896
  151.6065  135.1042  160.0081 H   0  0  0  0  0  0  0  0  0  0  0  0  # atno 6908 bound_to 6896
  152.4272  133.7175  159.6571 H   0  0  0  0  0  0  0  0  0  0  0  0  # atno 6909 bound_to 6896
  146.2219  140.2771  142.8360 H   0  0  0  0  0  0  0  0  0  0  0  0  # atno 7974 bound_to 7965
  156.2094  140.1774  156.7728 H   0  0  0  0  0  0  0  0  0  0  0  0  # atno 8008 bound_to 7997
  154.5701  140.0684  156.8981 H   0  0  0  0  0  0  0  0  0  0  0  0  # atno 8009 bound_to 7997
  155.2688  140.3341  155.4269 H   0  0  0  0  0  0  0  0  0  0  0  0  # atno 8010 bound_to 7997
  139.9483  144.6043  150.8185 H   0  0  0  0  0  0  0  0  0  0  0  0  # atno 10167 bound_to 10162
  157.6947  131.0288  150.3249 H   0  0  0  0  0  0  0  0  0  0  0  0  # atno 10718 bound_to 10713
  153.3024  135.4111  155.1264 H   0  0  0  0  0  0  0  0  0  0  0  0  # atno 10763 bound_to 10752
  154.8553  135.3544  154.5834 H   0  0  0  0  0  0  0  0  0  0  0  0  # atno 10764 bound_to 10752
  153.6259  135.7062  153.5351 H   0  0  0  0  0  0  0  0  0  0  0  0  # atno 10765 bound_to 10752
  140.4215  134.1513  155.7673 H   0  0  0  0  0  0  0  0  0  0  0  0  # atno 11005 bound_to 11000
  144.9224  140.7883  143.5740 LP  0  0  0  0  0  0  0  0  0  0  0  0  # atno 17320 bound_to 7965
  145.2709  139.1955  143.4842 LP  0  0  0  0  0  0  0  0  0  0  0  0  # atno 17321 bound_to 7965
  140.7590  143.3120  151.2822 LP  0  0  0  0  0  0  0  0  0  0  0  0  # atno 17342 bound_to 10162
  139.6648  144.0124  152.2716 LP  0  0  0  0  0  0  0  0  0  0  0  0  # atno 17343 bound_to 10162
  156.3731  130.3867  149.7160 LP  0  0  0  0  0  0  0  0  0  0  0  0  # atno 17370 bound_to 10713
  156.4568  130.7933  151.2953 LP  0  0  0  0  0  0  0  0  0  0  0  0  # atno 17371 bound_to 10713
  141.1782  133.8470  157.1350 LP  0  0  0  0  0  0  0  0  0  0  0  0  # atno 17394 bound_to 11000
  140.0196  134.9951  157.0565 LP  0  0  0  0  0  0  0  0  0  0  0  0  # atno 17395 bound_to 11000

$$$$
