AV-unprocessed.smi:203|AV-procd|sdf|1589|dock7
  -GOLD-   2262019483D 1   1.00000     0.00000
 Structure written by MMmdl.
 57 61  0  0  0  0  0  0  0  0  1 V2000
  150.0672  129.6824  162.9567 O   0  0  0  0  0  0  0  0  0  0  0  0
  149.1990  129.9686  162.1357 C   0  0  0  0  0  0  0  0  0  0  0  0
  149.4413  130.8729  160.9397 C   0  0  0  0  0  0  0  0  0  0  0  0
  148.0275  131.1080  160.3688 C   0  0  2  0  0  0  0  0  0  0  0  0
  147.4949  132.5662  160.5407 C   0  0  1  0  0  0  0  0  0  0  0  0
  147.5263  133.0468  162.0161 C   0  0  0  0  0  0  0  0  0  0  0  0
  147.0019  134.4814  162.1590 C   0  0  0  0  0  0  0  0  0  0  0  0
  147.7983  135.4192  161.2460 C   0  0  0  0  0  0  0  0  0  0  0  0
  147.7404  134.9258  159.7947 C   0  0  0  0  0  0  0  0  0  0  0  0
  148.1961  133.5400  159.6841 N   0  0  0  0  0  0  0  0  0  0  0  0
  148.3409  133.1960  158.3848 C   0  0  0  0  0  0  0  0  0  0  0  0
  149.5994  132.9484  157.9459 N   0  0  0  0  0  0  0  0  0  0  0  0
  149.8034  132.5903  156.6744 C   0  0  0  0  0  0  0  0  0  0  0  0
  148.9076  132.4278  155.6979 N   0  0  0  0  0  0  0  0  0  0  0  0
  147.6420  132.6861  156.1368 C   0  0  0  0  0  0  0  0  0  0  0  0
  147.2706  133.0745  157.4542 C   0  0  0  0  0  0  0  0  0  0  0  0
  145.8938  133.2504  157.5275 N   0  0  0  0  0  0  0  0  0  0  0  0
  145.4752  132.9847  156.3201 C   0  0  0  0  0  0  0  0  0  0  0  0
  146.4581  132.6362  155.4223 N   0  0  0  0  0  0  0  0  0  0  0  0
  146.2720  132.2957  154.0231 C   0  0  0  0  0  0  0  0  0  0  0  0
  146.5841  133.4809  153.0840 C   0  0  1  0  0  0  0  0  0  0  0  0
  147.9776  133.6012  152.8792 O   0  0  0  0  0  0  0  0  0  0  0  0
  145.8901  133.4040  151.7081 C   0  0  2  0  0  0  0  0  0  0  0  0
  144.3597  133.4374  151.7689 C   0  0  0  0  0  0  0  0  0  0  0  0
  143.9200  132.6327  150.5532 C   0  0  0  0  0  0  0  0  0  0  0  0
  145.2213  132.0655  149.9847 C   0  0  0  0  0  0  0  0  0  0  0  0
  146.1499  132.1720  151.0517 O   0  0  0  0  0  0  0  0  0  0  0  0
  147.1408  130.0466  161.0549 C   0  0  0  0  0  0  0  0  0  0  0  0
  147.9375  129.5436  162.1570 N   0  0  0  0  0  0  0  0  0  0  0  0
  149.9490  131.7924  161.2320 H   0  0  0  0  0  0  0  0  0  0  0  0
  150.0737  130.3535  160.2191 H   0  0  0  0  0  0  0  0  0  0  0  0
  148.0382  130.8582  159.3075 H   0  0  0  0  0  0  0  0  0  0  0  0
  146.4495  132.5674  160.2302 H   0  0  0  0  0  0  0  0  0  0  0  0
  146.9327  132.3909  162.6517 H   0  0  0  0  0  0  0  0  0  0  0  0
  148.5437  133.0079  162.4055 H   0  0  0  0  0  0  0  0  0  0  0  0
  145.9439  134.5170  161.8962 H   0  0  0  0  0  0  0  0  0  0  0  0
  147.0795  134.8095  163.1957 H   0  0  0  0  0  0  0  0  0  0  0  0
  147.4044  136.4336  161.3122 H   0  0  0  0  0  0  0  0  0  0  0  0
  148.8364  135.4635  161.5778 H   0  0  0  0  0  0  0  0  0  0  0  0
  146.7182  135.0037  159.4218 H   0  0  0  0  0  0  0  0  0  0  0  0
  148.3572  135.5716  159.1676 H   0  0  0  0  0  0  0  0  0  0  0  0
  150.8319  132.4069  156.4005 H   0  0  0  0  0  0  0  0  0  0  0  0
  144.4308  133.0375  156.0484 H   0  0  0  0  0  0  0  0  0  0  0  0
  146.9052  131.4391  153.7893 H   0  0  0  0  0  0  0  0  0  0  0  0
  145.2422  131.9630  153.8912 H   0  0  0  0  0  0  0  0  0  0  0  0
  146.2732  134.4071  153.5690 H   0  0  0  0  0  0  0  0  0  0  0  0
  148.1801  134.5139  152.7392 H   0  0  0  0  0  0  0  0  0  0  0  0
  146.2265  134.2226  151.0680 H   0  0  0  0  0  0  0  0  0  0  0  0
  143.9909  132.9563  152.6749 H   0  0  0  0  0  0  0  0  0  0  0  0
  143.9742  134.4572  151.7578 H   0  0  0  0  0  0  0  0  0  0  0  0
  143.2445  131.8317  150.8556 H   0  0  0  0  0  0  0  0  0  0  0  0
  143.4022  133.2478  149.8166 H   0  0  0  0  0  0  0  0  0  0  0  0
  145.1185  131.0343  149.6464 H   0  0  0  0  0  0  0  0  0  0  0  0
  145.5698  132.6681  149.1443 H   0  0  0  0  0  0  0  0  0  0  0  0
  146.1851  130.4399  161.4012 H   0  0  0  0  0  0  0  0  0  0  0  0
  146.9282  129.2214  160.3741 H   0  0  0  0  0  0  0  0  0  0  0  0
  147.5601  128.9301  162.8651 H   0  0  0  0  0  0  0  0  0  0  0  0
  1  2  2  0  0  0  0
  2 29  1  0  0  0  0
  2  3  1  0  0  0  0
  3  4  1  0  0  0  0
  3 30  1  0  0  0  0
  3 31  1  0  0  0  0
  4  5  1  0  0  0  0
  4 28  1  0  0  0  0
  4 32  1  0  0  0  0
  5 10  1  0  0  0  0
  5  6  1  0  0  0  0
  5 33  1  0  0  0  0
  6  7  1  0  0  0  0
  6 34  1  0  0  0  0
  6 35  1  0  0  0  0
  7  8  1  0  0  0  0
  7 36  1  0  0  0  0
  7 37  1  0  0  0  0
  8  9  1  0  0  0  0
  8 38  1  0  0  0  0
  8 39  1  0  0  0  0
  9 10  1  0  0  0  0
  9 40  1  0  0  0  0
  9 41  1  0  0  0  0
 10 11  1  0  0  0  0
 11 16  1  0  0  0  0
 11 12  2  0  0  0  0
 12 13  1  0  0  0  0
 13 14  2  0  0  0  0
 13 42  1  0  0  0  0
 14 15  1  0  0  0  0
 15 19  1  0  0  0  0
 15 16  2  0  0  0  0
 16 17  1  0  0  0  0
 17 18  2  0  0  0  0
 18 19  1  0  0  0  0
 18 43  1  0  0  0  0
 19 20  1  0  0  0  0
 20 21  1  0  0  0  0
 20 44  1  0  0  0  0
 20 45  1  0  0  0  0
 21 22  1  0  0  0  0
 21 23  1  0  0  0  0
 21 46  1  0  0  0  0
 22 47  1  0  0  0  0
 23 27  1  0  0  0  0
 23 24  1  0  0  0  0
 23 48  1  0  0  0  0
 24 25  1  0  0  0  0
 24 49  1  0  0  0  0
 24 50  1  0  0  0  0
 25 26  1  0  0  0  0
 25 51  1  0  0  0  0
 25 52  1  0  0  0  0
 26 27  1  0  0  0  0
 26 53  1  0  0  0  0
 26 54  1  0  0  0  0
 28 29  1  0  0  0  0
 28 55  1  0  0  0  0
 28 56  1  0  0  0  0
 29 57  1  0  0  0  0
M  END
> <s_m_source_file>
AV-unprocessed.smi

> <i_m_source_file_index>
203

> <i_lp_mmshare_version>
43012

> <i_f3d_flags>
0

> <s_epik_input>
Tz1DMVtDSDJdW0NASF0oW0NIMl1bTkhdMSlbQ0BASF0yW0NIMl1bQ0gyXVtDSDJdW0NIMl1OMmMobltjSF1uMyljKGMzNCluW2NIXW40W0NIMl1bQ0BIXShbT0hdKVtDQEBIXTVbQ0gyXVtDSDJdW0NIMl1PNQ==

> <s_epik_cmdline>
J2VwaWtfcHl0aG9uJywgJy1waCcsICc3LjAnLCAnLXRuJywgJzgnLCAnLW1hJywgJzIwMCcsICctbWV0YWxfYmluZGluZycsICctaW1hZScsICc8aW5maWxlLm1hZT4nLCAnLW9tYWUnLCAnPG91dGZpbGUubWFlPic=

> <r_lp_tautomer_probability>
1

> <r_epik_Ionization_Penalty>
0.00175146

> <r_epik_Ionization_Penalty_Charging>
0

> <r_epik_Ionization_Penalty_Neutral>
0.00175146

> <r_epik_State_Penalty>
0.00109045

> <r_epik_Charging_Adjusted_Penalty>
0.00109045

> <i_epik_Tot_Q>
0

> <i_epik_Tot_abs_Q>
0

> <r_epik_Metal_State_Penalty>
-0

> <b_epik_Metal_Only>
0

> <s_lp_Force_Field>
OPLS_2005

> <r_lp_Energy>
57.3309

> <b_lp_Chiralities_Consistent>
1

> <s_lp_Variant>
AV-unprocessed.smi:203-8

> <Gold.Version>
5.8.1

> <Gold.Id.Protein>
6NUR|6NUR_protein|mol2

> <Gold.PLP.Fitness>
42.1142

> <Gold.PLP.PLP>
-34.3358

> <Gold.PLP.part.hbond>
-2.0000

> <Gold.PLP.part.metal>
0.0000

> <Gold.PLP.part.buried>
-6.7951

> <Gold.PLP.part.nonpolar>
-26.6873

> <Gold.PLP.part.repulsive>
0.2080

> <Gold.PLP.ligand.clash>
0.0000

> <Gold.PLP.ligand.torsion>
0.7380

> <Gold.PLP.Chemscore.Hbond>
2.0000

> <Gold.PLP.Chemscore.CHOScore>
1.0000

> <Gold.PLP.Chemscore.Metal>
0.0000

> <Gold.Chemscore.Hbonds>
donor molecule, donor type, donor heavy atom, donor atom, acceptor molecule, acceptor atom, score
      L1  H    22    47       P1  7948  0.99
      P1  H  6896  6907       L1    12  1.00
      L1  C    18    43       P1 10957  1.00

> <Gold.PLP.Chemscore.Internal.Correction>
0.2545

> <Gold.Rescore>
     Score         DG    S(hbond)    S(metal)    S(lipo)     H(rot)  DE(clash)    DE(int)     intcor
     13.22     -13.99       1.71        0.00      83.38       2.72       0.00       0.77       ----

> <Gold.Chemscore.Fitness>
13.2200

> <Gold.Chemscore.DG>
-13.9903

> <Gold.Chemscore.ZeroCoef>
-5.4800

> <Gold.Chemscore.Hbond>
1.7098

> <Gold.Chemscore.Metal>
0.0000

> <Gold.Chemscore.Lipo>
83.3787

> <Gold.Chemscore.Internal_Hbond>
0.0000

> <Gold.Chemscore.DEClash>
0.0015

> <Gold.Chemscore.DEInternal>
0.7688

> <Gold.Chemscore.Rot>
2.7171

> <Gold.Chemscore.Internal.Correction>
   9.000000E+99

> <Gold.Chemscore.Hbonds>
donor molecule, donor type, donor heavy atom, donor atom, acceptor molecule, acceptor atom, score
      L1  H    22    47       P1  7948  0.41
      P1  H  6896  6907       L1    12  0.83

> <Gold.Chemscore.Hbond.Weighted>
-5.7107

> <Gold.Chemscore.Metal.Weighted>
-0.0000

> <Gold.Chemscore.Lipo.Weighted>
-9.7553

> <Gold.Chemscore.Internal_Hbond.Weighted>
0.0000

> <Gold.Chemscore.DEClash.Weighted>
0.0015

> <Gold.Chemscore.DEInternal.Weighted>
0.7688

> <Gold.Chemscore.Rot.Weighted>
6.9557

> <Gold.Chemscore.Internal.Correction.Weighted>
   9.000000E+99

> <Gold.Protein.RotatedTorsions>
[ 6907 6896 6895 6894 ] final -145.52 input  -60.11 | X-H torsion
[ 7974 7965 7964 7962 ] final -134.59 input  175.53 | X-H torsion
[ 8008 7997 7996 7995 ] final  104.20 input   59.86 | X-H torsion
[ 10167 10162 10161 10158 ] final  -60.57 input  -65.29 | X-H torsion
[ 10718 10713 10712 10709 ] final -132.53 input   66.30 | X-H torsion
[ 10763 10752 10751 10750 ] final  125.20 input  -60.55 | X-H torsion
[ 11005 11000 10999 10996 ] final -120.29 input  -57.11 | X-H torsion

> <Gold.Protein.ActiveResidues>
 VAL166  LYS551  ARG553  GLY616  TRP617  ASP618  TYR619  PRO620  LYS621  CYS622 
 ASP623  PHE694  ASN695  SER759  ASP760  ASP761  ALA762  ILE779  LEU786  VAL792 
 PHE793  MET794  SER795  GLU796  ALA797  LYS798  CYS799  TRP800  GLU811  SER814 

> <Gold.Protein.RotatedAtoms>
  151.1289  133.5050  159.2599 H   0  0  0  0  0  0  0  0  0  0  0  0  # atno 6907 bound_to 6896
  151.1779  135.0347  159.8789 H   0  0  0  0  0  0  0  0  0  0  0  0  # atno 6908 bound_to 6896
  152.5459  134.1145  159.8426 H   0  0  0  0  0  0  0  0  0  0  0  0  # atno 6909 bound_to 6896
  144.9089  140.6870  143.5037 H   0  0  0  0  0  0  0  0  0  0  0  0  # atno 7974 bound_to 7965
  156.1552  140.3152  155.8713 H   0  0  0  0  0  0  0  0  0  0  0  0  # atno 8008 bound_to 7997
  155.3893  140.0492  157.3058 H   0  0  0  0  0  0  0  0  0  0  0  0  # atno 8009 bound_to 7997
  154.5094  140.2159  155.9197 H   0  0  0  0  0  0  0  0  0  0  0  0  # atno 8010 bound_to 7997
  140.6062  143.2374  151.5815 H   0  0  0  0  0  0  0  0  0  0  0  0  # atno 10167 bound_to 10162
  156.2355  130.7064  151.0903 H   0  0  0  0  0  0  0  0  0  0  0  0  # atno 10718 bound_to 10713
  153.6734  135.3326  155.3159 H   0  0  0  0  0  0  0  0  0  0  0  0  # atno 10763 bound_to 10752
  154.8485  135.4392  154.1681 H   0  0  0  0  0  0  0  0  0  0  0  0  # atno 10764 bound_to 10752
  153.2678  135.6997  153.7588 H   0  0  0  0  0  0  0  0  0  0  0  0  # atno 10765 bound_to 10752
  141.0154  134.0203  157.3357 H   0  0  0  0  0  0  0  0  0  0  0  0  # atno 11005 bound_to 11000
  145.3488  139.1712  143.4446 LP  0  0  0  0  0  0  0  0  0  0  0  0  # atno 17320 bound_to 7965
  146.3148  140.3537  142.8658 LP  0  0  0  0  0  0  0  0  0  0  0  0  # atno 17321 bound_to 7965
  139.5327  144.2870  152.1183 LP  0  0  0  0  0  0  0  0  0  0  0  0  # atno 17342 bound_to 10162
  140.2060  144.4611  150.6408 LP  0  0  0  0  0  0  0  0  0  0  0  0  # atno 17343 bound_to 10162
  157.7152  131.0713  150.6352 LP  0  0  0  0  0  0  0  0  0  0  0  0  # atno 17370 bound_to 10713
  156.6422  130.4461  149.5748 LP  0  0  0  0  0  0  0  0  0  0  0  0  # atno 17371 bound_to 10713
  139.9114  135.0190  156.7706 LP  0  0  0  0  0  0  0  0  0  0  0  0  # atno 17394 bound_to 11000
  140.6664  133.9599  155.7832 LP  0  0  0  0  0  0  0  0  0  0  0  0  # atno 17395 bound_to 11000

$$$$
