AV-unprocessed.smi:1586|AV-procd|sdf|6379|dock7
  -GOLD-   22720 7 13D 1   1.00000     0.00000
 Structure written by MMmdl.
 46 47  0  0  0  0  0  0  0  0  3 V2000
  142.6528  135.0007  152.8547 C   0  0  0  0  0  0  0  0  0  0  0  0
  143.8402  134.2696  152.2126 C   0  0  0  0  0  0  0  0  0  0  0  0
  144.5789  133.4195  153.1791 N   0  3  0  0  0  0  0  0  0  0  0  0
  145.2297  134.2186  154.2463 C   0  0  0  0  0  0  0  0  0  0  0  0
  145.9627  133.2980  155.2449 C   0  0  0  0  0  0  0  0  0  0  0  0
  146.9961  132.4885  154.5831 N   0  0  0  0  0  0  0  0  0  0  0  0
  148.1535  133.2416  154.0456 C   0  0  2  0  0  0  0  0  0  0  0  0
  148.8996  132.4009  152.9813 C   0  0  0  0  0  0  0  0  0  0  0  0
  149.1203  133.6756  155.1809 C   0  0  0  0  0  0  0  0  0  0  0  0
  150.0967  134.6659  154.7333 N   0  0  0  0  0  0  0  0  0  0  0  0
  150.4341  135.8000  155.3642 C   0  0  0  0  0  0  0  0  0  0  0  0
  149.9012  136.0932  156.4366 O   0  0  0  0  0  0  0  0  0  0  0  0
  151.3802  136.5165  154.7152 N   0  5  0  0  0  0  0  0  0  0  0  0
  151.5593  137.8154  155.0008 C   0  0  0  0  0  0  0  0  0  0  0  0
  150.5917  138.6837  155.5761 C   0  0  0  0  0  0  0  0  0  0  0  0
  151.2599  139.8705  155.6805 C   0  0  0  0  0  0  0  0  0  0  0  0
  150.8622  141.2134  156.1910 C   0  0  0  0  0  0  0  0  0  0  0  0
  152.5318  139.7383  155.2170 O   0  0  0  0  0  0  0  0  0  0  0  0
  152.7172  138.4180  154.7894 N   0  0  0  0  0  0  0  0  0  0  0  0
  146.2827  131.6532  153.6057 C   0  0  0  0  0  0  0  0  0  0  0  0
  145.5592  132.5047  152.5400 C   0  0  0  0  0  0  0  0  0  0  0  0
  142.1943  135.6854  152.1410 H   0  0  0  0  0  0  0  0  0  0  0  0
  142.9704  135.5878  153.7168 H   0  0  0  0  0  0  0  0  0  0  0  0
  141.8760  134.3106  153.1827 H   0  0  0  0  0  0  0  0  0  0  0  0
  143.5089  133.6696  151.3637 H   0  0  0  0  0  0  0  0  0  0  0  0
  144.5197  135.0230  151.8121 H   0  0  0  0  0  0  0  0  0  0  0  0
  145.9101  134.9515  153.8108 H   0  0  0  0  0  0  0  0  0  0  0  0
  144.4674  134.7856  154.7815 H   0  0  0  0  0  0  0  0  0  0  0  0
  146.3720  133.8728  156.0730 H   0  0  0  0  0  0  0  0  0  0  0  0
  145.2393  132.6260  155.7093 H   0  0  0  0  0  0  0  0  0  0  0  0
  147.8009  134.1481  153.5559 H   0  0  0  0  0  0  0  0  0  0  0  0
  149.7858  132.9127  152.6088 H   0  0  0  0  0  0  0  0  0  0  0  0
  148.2933  132.2119  152.0970 H   0  0  0  0  0  0  0  0  0  0  0  0
  149.2229  131.4417  153.3872 H   0  0  0  0  0  0  0  0  0  0  0  0
  148.5856  134.1746  155.9864 H   0  0  0  0  0  0  0  0  0  0  0  0
  149.6052  132.8051  155.6260 H   0  0  0  0  0  0  0  0  0  0  0  0
  150.5640  134.4761  153.8590 H   0  0  0  0  0  0  0  0  0  0  0  0
  149.5730  138.4695  155.8623 H   0  0  0  0  0  0  0  0  0  0  0  0
  150.6931  141.1810  157.2672 H   0  0  0  0  0  0  0  0  0  0  0  0
  149.9416  141.5494  155.7138 H   0  0  0  0  0  0  0  0  0  0  0  0
  151.6358  141.9555  155.9921 H   0  0  0  0  0  0  0  0  0  0  0  0
  146.9481  130.9316  153.1359 H   0  0  0  0  0  0  0  0  0  0  0  0
  145.5489  131.0454  154.1369 H   0  0  0  0  0  0  0  0  0  0  0  0
  145.0425  131.8333  151.8550 H   0  0  0  0  0  0  0  0  0  0  0  0
  146.2709  133.0703  151.9377 H   0  0  0  0  0  0  0  0  0  0  0  0
  143.8953  132.8383  153.6425 H   0  0  0  0  0  0  0  0  0  0  0  0
  1  2  1  0  0  0  0
  1 22  1  0  0  0  0
  1 23  1  0  0  0  0
  1 24  1  0  0  0  0
  2  3  1  0  0  0  0
  2 25  1  0  0  0  0
  2 26  1  0  0  0  0
  3 21  1  0  0  0  0
  3  4  1  0  0  0  0
  3 46  1  0  0  0  0
  4  5  1  0  0  0  0
  4 27  1  0  0  0  0
  4 28  1  0  0  0  0
  5  6  1  0  0  0  0
  5 29  1  0  0  0  0
  5 30  1  0  0  0  0
  6  7  1  0  0  0  0
  6 20  1  0  0  0  0
  7  8  1  0  0  0  0
  7  9  1  0  0  0  0
  7 31  1  0  0  0  0
  8 32  1  0  0  0  0
  8 33  1  0  0  0  0
  8 34  1  0  0  0  0
  9 10  1  0  0  0  0
  9 35  1  0  0  0  0
  9 36  1  0  0  0  0
 10 11  1  0  0  0  0
 10 37  1  0  0  0  0
 11 12  2  0  0  0  0
 11 13  1  0  0  0  0
 13 14  1  0  0  0  0
 14 19  2  0  0  0  0
 14 15  1  0  0  0  0
 15 16  2  0  0  0  0
 15 38  1  0  0  0  0
 16 17  1  0  0  0  0
 16 18  1  0  0  0  0
 17 39  1  0  0  0  0
 17 40  1  0  0  0  0
 17 41  1  0  0  0  0
 18 19  1  0  0  0  0
 20 21  1  0  0  0  0
 20 42  1  0  0  0  0
 20 43  1  0  0  0  0
 21 44  1  0  0  0  0
 21 45  1  0  0  0  0
M  CHG  1   3   1
M  CHG  1  13  -1
M  END
> <s_m_source_file>
AV-unprocessed.smi

> <i_m_source_file_index>
1586

> <i_lp_mmshare_version>
43012

> <i_f3d_flags>
0

> <s_epik_input>
W0NIM11bQ0gyXU4xW0NIMl1bQ0gyXU4oW0NIMl1bQ0gyXTEpW0NASF0oW0NIM10pW0NIMl1bTkhdQyg9TylbTkhdYzJbY0hdYyhbQ0gzXSlvbjI=

> <s_epik_cmdline>
J2VwaWtfcHl0aG9uJywgJy1waCcsICc3LjAnLCAnLXRuJywgJzgnLCAnLW1hJywgJzIwMCcsICctbWV0YWxfYmluZGluZycsICctaW1hZScsICc8aW5maWxlLm1hZT4nLCAnLW9tYWUnLCAnPG91dGZpbGUubWFlPic=

> <r_epik_Ionization_Penalty>
6.66134

> <r_epik_Ionization_Penalty_Charging>
6.66063

> <r_epik_Ionization_Penalty_Neutral>
0.000714131

> <r_epik_State_Penalty>
6.77843

> <r_epik_Charging_Adjusted_Penalty>
13.4391

> <i_epik_Tot_Q>
0

> <i_epik_Tot_abs_Q>
2

> <r_epik_Metal_State_Penalty>
2.70494

> <b_epik_Metal_Only>
1

> <s_lp_Force_Field>
OPLS_2005

> <r_lp_Energy>
11.4851

> <b_lp_Chiralities_Consistent>
1

> <s_lp_Variant>
AV-unprocessed.smi:1586-7

> <Gold.Version>
5.8.1

> <Gold.Id.Protein>
6NUR|6NUR_protein|mol2

> <Gold.PLP.Fitness>
44.3030

> <Gold.PLP.PLP>
-30.6607

> <Gold.PLP.part.hbond>
-4.2228

> <Gold.PLP.part.metal>
0.0000

> <Gold.PLP.part.buried>
-5.1784

> <Gold.PLP.part.nonpolar>
-21.0100

> <Gold.PLP.part.repulsive>
0.3285

> <Gold.PLP.ligand.clash>
0.0000

> <Gold.PLP.ligand.torsion>
0.7543

> <Gold.PLP.Chemscore.Hbond>
5.0000

> <Gold.PLP.Chemscore.CHOScore>
0.0000

> <Gold.PLP.Chemscore.Metal>
0.0000

> <Gold.Chemscore.Hbonds>
donor molecule, donor type, donor heavy atom, donor atom, acceptor molecule, acceptor atom, score
      L1  H     3    46       P1 10957  2.00
      P1  H  7989  7998       L1    18  0.03
      P1  H  7997  8008       L1    18  0.89
      P1  H 10752 10763       L1    13  2.00

> <Gold.PLP.Chemscore.Internal.Correction>
0.1509

> <Gold.Rescore>
     Score         DG    S(hbond)    S(metal)    S(lipo)     H(rot)  DE(clash)    DE(int)     intcor
     13.77     -16.10       2.66        0.00      52.60       1.73       0.06       2.27       ----

> <Gold.Chemscore.Fitness>
13.7726

> <Gold.Chemscore.DG>
-16.1020

> <Gold.Chemscore.ZeroCoef>
-5.4800

> <Gold.Chemscore.Hbond>
2.6599

> <Gold.Chemscore.Metal>
0.0000

> <Gold.Chemscore.Lipo>
52.5987

> <Gold.Chemscore.Internal_Hbond>
0.0000

> <Gold.Chemscore.DEClash>
0.0595

> <Gold.Chemscore.DEInternal>
2.2699

> <Gold.Chemscore.Rot>
1.7250

> <Gold.Chemscore.Internal.Correction>
   9.000000E+99

> <Gold.Chemscore.Hbonds>
donor molecule, donor type, donor heavy atom, donor atom, acceptor molecule, acceptor atom, score
      L1  H     3    46       P1 10957  0.76
      P1  H  7997  8008       L1    18  0.26
      P1  H 10752 10763       L1    13  0.81

> <Gold.Chemscore.Hbond.Weighted>
-8.8840

> <Gold.Chemscore.Metal.Weighted>
-0.0000

> <Gold.Chemscore.Lipo.Weighted>
-6.1540

> <Gold.Chemscore.Internal_Hbond.Weighted>
0.0000

> <Gold.Chemscore.DEClash.Weighted>
0.0595

> <Gold.Chemscore.DEInternal.Weighted>
2.2699

> <Gold.Chemscore.Rot.Weighted>
4.4161

> <Gold.Chemscore.Internal.Correction.Weighted>
   9.000000E+99

> <Gold.Protein.RotatedTorsions>
[ 6907 6896 6895 6894 ] final   62.06 input  -60.11 | X-H torsion
[ 7974 7965 7964 7962 ] final  171.49 input  175.53 | X-H torsion
[ 8008 7997 7996 7995 ] final  -22.77 input   59.86 | X-H torsion
[ 10167 10162 10161 10158 ] final   84.25 input  -65.29 | X-H torsion
[ 10718 10713 10712 10709 ] final  126.74 input   66.30 | X-H torsion
[ 10763 10752 10751 10750 ] final   39.58 input  -60.55 | X-H torsion
[ 11005 11000 10999 10996 ] final   82.01 input  -57.11 | X-H torsion

> <Gold.Protein.ActiveResidues>
 VAL166  LYS551  ARG553  GLY616  TRP617  ASP618  TYR619  PRO620  LYS621  CYS622 
 ASP623  PHE694  ASN695  SER759  ASP760  ASP761  ALA762  ILE779  LEU786  VAL792 
 PHE793  MET794  SER795  GLU796  ALA797  LYS798  CYS799  TRP800  GLU811  SER814 

> <Gold.Protein.RotatedAtoms>
  152.4140  134.6074  160.0016 H   0  0  0  0  0  0  0  0  0  0  0  0  # atno 6907 bound_to 6896
  151.6242  133.3331  159.3102 H   0  0  0  0  0  0  0  0  0  0  0  0  # atno 6908 bound_to 6896
  150.8030  134.7176  159.6684 H   0  0  0  0  0  0  0  0  0  0  0  0  # atno 6909 bound_to 6896
  144.7293  139.9358  143.6426 H   0  0  0  0  0  0  0  0  0  0  0  0  # atno 7974 bound_to 7965
  154.4624  140.1998  156.0209 H   0  0  0  0  0  0  0  0  0  0  0  0  # atno 8008 bound_to 7997
  156.0865  140.3264  155.7731 H   0  0  0  0  0  0  0  0  0  0  0  0  # atno 8009 bound_to 7997
  155.5027  140.0555  157.2927 H   0  0  0  0  0  0  0  0  0  0  0  0  # atno 8010 bound_to 7997
  139.9100  144.6278  150.8548 H   0  0  0  0  0  0  0  0  0  0  0  0  # atno 10167 bound_to 10162
  157.5393  131.1097  150.8885 H   0  0  0  0  0  0  0  0  0  0  0  0  # atno 10718 bound_to 10713
  152.9963  135.6216  154.2488 H   0  0  0  0  0  0  0  0  0  0  0  0  # atno 10763 bound_to 10752
  154.2227  135.2795  155.2920 H   0  0  0  0  0  0  0  0  0  0  0  0  # atno 10764 bound_to 10752
  154.5515  135.5732  153.6984 H   0  0  0  0  0  0  0  0  0  0  0  0  # atno 10765 bound_to 10752
  139.9078  134.8039  156.2117 H   0  0  0  0  0  0  0  0  0  0  0  0  # atno 11005 bound_to 11000
  146.0822  139.3810  143.0457 LP  0  0  0  0  0  0  0  0  0  0  0  0  # atno 17320 bound_to 7965
  145.7825  140.9850  143.1092 LP  0  0  0  0  0  0  0  0  0  0  0  0  # atno 17321 bound_to 7965
  140.7687  143.3373  151.2282 LP  0  0  0  0  0  0  0  0  0  0  0  0  # atno 17342 bound_to 10162
  139.6951  143.9627  152.2878 LP  0  0  0  0  0  0  0  0  0  0  0  0  # atno 17343 bound_to 10162
  156.9442  130.5396  149.5281 LP  0  0  0  0  0  0  0  0  0  0  0  0  # atno 17370 bound_to 10713
  156.0483  130.5557  150.8932 LP  0  0  0  0  0  0  0  0  0  0  0  0  # atno 17371 bound_to 10713
  141.0461  133.6912  156.1686 LP  0  0  0  0  0  0  0  0  0  0  0  0  # atno 17394 bound_to 11000
  140.6882  134.4694  157.5589 LP  0  0  0  0  0  0  0  0  0  0  0  0  # atno 17395 bound_to 11000

$$$$
