AV-unprocessed.smi:2510|AV-procd|sdf|9873|dock5
  -GOLD-   2272013503D 1   1.00000     0.00000
 Structure written by MMmdl.
 48 49  0  0  0  0  0  0  0  0  1 V2000
  149.9451  136.6097  157.8119 C   0  0  0  0  0  0  0  0  0  0  0  0
  149.8124  135.4549  156.8050 C   0  0  0  0  0  0  0  0  0  0  0  0
  149.5557  135.8885  155.3404 C   0  0  0  0  0  0  0  0  0  0  0  0
  149.3733  134.6262  154.4615 C   0  0  0  0  0  0  0  0  0  0  0  0
  148.2051  133.7139  154.8669 C   0  0  0  0  0  0  0  0  0  0  0  0
  148.5002  137.0297  155.2147 C   0  0  2  0  0  0  0  0  0  0  0  0
  147.7653  137.0189  153.9504 N   0  0  0  0  0  0  0  0  0  0  0  0
  146.4290  137.0674  153.8401 C   0  0  0  0  0  0  0  0  0  0  0  0
  145.6746  137.2161  154.8010 O   0  0  0  0  0  0  0  0  0  0  0  0
  145.8573  136.8991  152.4311 C   0  0  0  0  0  0  0  0  0  0  0  0
  144.9845  135.6725  152.3734 C   0  0  0  0  0  0  0  0  0  0  0  0
  144.5452  134.9629  151.2161 C   0  0  0  0  0  0  0  0  0  0  0  0
  143.8166  133.9202  151.7147 C   0  0  0  0  0  0  0  0  0  0  0  0
  143.0978  132.8053  151.0350 C   0  0  0  0  0  0  0  0  0  0  0  0
  143.8424  134.0532  153.0837 N   0  0  0  0  0  0  0  0  0  0  0  0
  144.5497  135.1205  153.4980 N   0  0  0  0  0  0  0  0  0  0  0  0
  149.6386  138.0662  155.2070 C   0  0  2  0  0  0  0  0  0  0  0  0
  149.5339  139.3290  154.3551 C   0  0  0  0  0  0  0  0  0  0  0  0
  150.5613  136.9195  154.7700 C   0  0  1  0  0  0  0  0  0  0  0  0
  151.8225  136.8772  155.4211 O   0  0  0  0  0  0  0  0  0  0  0  0
  152.6438  137.9906  155.1177 C   0  0  0  0  0  0  0  0  0  0  0  0
  143.3893  133.4315  153.7385 H   0  0  0  0  0  0  0  0  0  0  0  0
  150.2400  136.2300  158.7901 H   0  0  0  0  0  0  0  0  0  0  0  0
  149.0035  137.1413  157.9461 H   0  0  0  0  0  0  0  0  0  0  0  0
  150.6984  137.3328  157.5002 H   0  0  0  0  0  0  0  0  0  0  0  0
  150.7330  134.8734  156.8600 H   0  0  0  0  0  0  0  0  0  0  0  0
  149.0399  134.7680  157.1495 H   0  0  0  0  0  0  0  0  0  0  0  0
  149.2829  134.8923  153.4085 H   0  0  0  0  0  0  0  0  0  0  0  0
  150.2682  134.0066  154.5136 H   0  0  0  0  0  0  0  0  0  0  0  0
  148.2243  132.7910  154.2874 H   0  0  0  0  0  0  0  0  0  0  0  0
  147.2388  134.1839  154.6881 H   0  0  0  0  0  0  0  0  0  0  0  0
  148.2611  133.4418  155.9211 H   0  0  0  0  0  0  0  0  0  0  0  0
  147.8573  137.1414  156.0891 H   0  0  0  0  0  0  0  0  0  0  0  0
  148.3080  136.8993  153.1073 H   0  0  0  0  0  0  0  0  0  0  0  0
  145.2932  137.7910  152.1544 H   0  0  0  0  0  0  0  0  0  0  0  0
  146.6799  136.8165  151.7199 H   0  0  0  0  0  0  0  0  0  0  0  0
  144.7478  135.1809  150.1778 H   0  0  0  0  0  0  0  0  0  0  0  0
  143.3481  132.7708  149.9745 H   0  0  0  0  0  0  0  0  0  0  0  0
  142.0185  132.9301  151.1229 H   0  0  0  0  0  0  0  0  0  0  0  0
  143.3662  131.8447  151.4751 H   0  0  0  0  0  0  0  0  0  0  0  0
  149.8634  138.3332  156.2411 H   0  0  0  0  0  0  0  0  0  0  0  0
  149.4892  139.0964  153.2909 H   0  0  0  0  0  0  0  0  0  0  0  0
  150.3917  139.9830  154.5093 H   0  0  0  0  0  0  0  0  0  0  0  0
  148.6400  139.8997  154.6069 H   0  0  0  0  0  0  0  0  0  0  0  0
  150.6450  136.8435  153.6834 H   0  0  0  0  0  0  0  0  0  0  0  0
  153.6082  137.8769  155.6124 H   0  0  0  0  0  0  0  0  0  0  0  0
  152.1980  138.9212  155.4684 H   0  0  0  0  0  0  0  0  0  0  0  0
  152.8234  138.0688  154.0449 H   0  0  0  0  0  0  0  0  0  0  0  0
  1  2  1  0  0  0  0
  1 23  1  0  0  0  0
  1 24  1  0  0  0  0
  1 25  1  0  0  0  0
  2  3  1  0  0  0  0
  2 26  1  0  0  0  0
  2 27  1  0  0  0  0
  3 19  1  0  0  0  0
  3  4  1  0  0  0  0
  3  6  1  0  0  0  0
  4  5  1  0  0  0  0
  4 28  1  0  0  0  0
  4 29  1  0  0  0  0
  5 30  1  0  0  0  0
  5 31  1  0  0  0  0
  5 32  1  0  0  0  0
  6  7  1  0  0  0  0
  6 17  1  0  0  0  0
  6 33  1  0  0  0  0
  7  8  1  0  0  0  0
  7 34  1  0  0  0  0
  8  9  2  0  0  0  0
  8 10  1  0  0  0  0
 10 11  1  0  0  0  0
 10 35  1  0  0  0  0
 10 36  1  0  0  0  0
 11 16  2  0  0  0  0
 11 12  1  0  0  0  0
 12 13  2  0  0  0  0
 12 37  1  0  0  0  0
 13 14  1  0  0  0  0
 13 15  1  0  0  0  0
 14 38  1  0  0  0  0
 14 39  1  0  0  0  0
 14 40  1  0  0  0  0
 15 22  1  0  0  0  0
 15 16  1  0  0  0  0
 17 18  1  0  0  0  0
 17 19  1  0  0  0  0
 17 41  1  0  0  0  0
 18 42  1  0  0  0  0
 18 43  1  0  0  0  0
 18 44  1  0  0  0  0
 19 20  1  0  0  0  0
 19 45  1  0  0  0  0
 20 21  1  0  0  0  0
 21 46  1  0  0  0  0
 21 47  1  0  0  0  0
 21 48  1  0  0  0  0
M  END
> <s_m_source_file>
AV-unprocessed.smi

> <i_m_source_file_index>
2510

> <i_lp_mmshare_version>
43012

> <i_f3d_flags>
0

> <s_epik_input>
W0NIM11PW0NAQEhdMVtDQEhdKFtDSDNdKVtDQEBIXShDMShbQ0gyXVtDSDNdKVtDSDJdW0NIM10pW05IXUMoPU8pW0NIMl1jMltjSF1jKFtDSDNdKVtuSF1uMg==

> <s_epik_cmdline>
J2VwaWtfcHl0aG9uJywgJy1waCcsICc3LjAnLCAnLXRuJywgJzgnLCAnLW1hJywgJzIwMCcsICctbWV0YWxfYmluZGluZycsICctaW1hZScsICc8aW5maWxlLm1hZT4nLCAnLW9tYWUnLCAnPG91dGZpbGUubWFlPic=

> <r_lp_tautomer_probability>
0.5

> <r_epik_Ionization_Penalty>
9.73156e-05

> <r_epik_Ionization_Penalty_Charging>
0

> <r_epik_Ionization_Penalty_Neutral>
9.73156e-05

> <r_epik_State_Penalty>
0.41068

> <r_epik_Charging_Adjusted_Penalty>
0.41068

> <i_epik_Tot_Q>
0

> <i_epik_Tot_abs_Q>
0

> <r_epik_Metal_State_Penalty>
0.410699

> <b_epik_Metal_Only>
0

> <s_lp_Force_Field>
OPLS_2005

> <r_lp_Energy>
25.1692

> <b_lp_Chiralities_Consistent>
1

> <s_lp_Variant>
AV-unprocessed.smi:2510-4

> <Gold.Version>
5.8.1

> <Gold.Id.Protein>
6NUR|6NUR_protein|mol2

> <Gold.PLP.Fitness>
36.0367

> <Gold.PLP.PLP>
-27.5379

> <Gold.PLP.part.hbond>
-2.8465

> <Gold.PLP.part.metal>
0.0000

> <Gold.PLP.part.buried>
-1.6369

> <Gold.PLP.part.nonpolar>
-23.2693

> <Gold.PLP.part.repulsive>
0.1751

> <Gold.PLP.ligand.clash>
0.0000

> <Gold.PLP.ligand.torsion>
0.5145

> <Gold.PLP.Chemscore.Hbond>
2.9760

> <Gold.PLP.Chemscore.CHOScore>
0.0000

> <Gold.PLP.Chemscore.Metal>
0.0000

> <Gold.Chemscore.Hbonds>
donor molecule, donor type, donor heavy atom, donor atom, acceptor molecule, acceptor atom, score
      L1  H     7    34       P1  7948  1.00
      L1  H    15    22       P1 10957  0.84
      P1  H 10752 10765       L1    20  0.80

> <Gold.PLP.Chemscore.Internal.Correction>
0.5998

> <Gold.Rescore>
     Score         DG    S(hbond)    S(metal)    S(lipo)     H(rot)  DE(clash)    DE(int)     intcor
     15.09     -18.52       2.70        0.00      73.84       1.81       0.21       3.22       ----

> <Gold.Chemscore.Fitness>
15.0922

> <Gold.Chemscore.DG>
-18.5173

> <Gold.Chemscore.ZeroCoef>
-5.4800

> <Gold.Chemscore.Hbond>
2.7042

> <Gold.Chemscore.Metal>
0.0000

> <Gold.Chemscore.Lipo>
73.8417

> <Gold.Chemscore.Internal_Hbond>
0.0000

> <Gold.Chemscore.DEClash>
0.2071

> <Gold.Chemscore.DEInternal>
3.2180

> <Gold.Chemscore.Rot>
1.8102

> <Gold.Chemscore.Internal.Correction>
   9.000000E+99

> <Gold.Chemscore.Hbonds>
donor molecule, donor type, donor heavy atom, donor atom, acceptor molecule, acceptor atom, score
      L1  H     7    34       P1  7948  0.95
      L1  H    15    22       P1 10957  0.82
      P1  H 10752 10765       L1    20  0.10

> <Gold.Chemscore.Hbond.Weighted>
-9.0319

> <Gold.Chemscore.Metal.Weighted>
-0.0000

> <Gold.Chemscore.Lipo.Weighted>
-8.6395

> <Gold.Chemscore.Internal_Hbond.Weighted>
0.0000

> <Gold.Chemscore.DEClash.Weighted>
0.2071

> <Gold.Chemscore.DEInternal.Weighted>
3.2180

> <Gold.Chemscore.Rot.Weighted>
4.6341

> <Gold.Chemscore.Internal.Correction.Weighted>
   9.000000E+99

> <Gold.Protein.RotatedTorsions>
[ 6907 6896 6895 6894 ] final  -52.23 input  -60.11 | X-H torsion
[ 7974 7965 7964 7962 ] final   28.68 input  175.53 | X-H torsion
[ 8008 7997 7996 7995 ] final -150.50 input   59.86 | X-H torsion
[ 10167 10162 10161 10158 ] final -170.70 input  -65.29 | X-H torsion
[ 10718 10713 10712 10709 ] final  -28.44 input   66.30 | X-H torsion
[ 10763 10752 10751 10750 ] final -170.78 input  -60.55 | X-H torsion
[ 11005 11000 10999 10996 ] final  -69.50 input  -57.11 | X-H torsion

> <Gold.Protein.ActiveResidues>
 VAL166  LYS551  ARG553  GLY616  TRP617  ASP618  TYR619  PRO620  LYS621  CYS622 
 ASP623  PHE694  ASN695  SER759  ASP760  ASP761  ALA762  ILE779  LEU786  VAL792 
 PHE793  MET794  SER795  GLU796  ALA797  LYS798  CYS799  TRP800  GLU811  SER814 

> <Gold.Protein.RotatedAtoms>
  150.8537  134.7870  159.7028 H   0  0  0  0  0  0  0  0  0  0  0  0  # atno 6907 bound_to 6896
  152.4595  134.5213  159.9793 H   0  0  0  0  0  0  0  0  0  0  0  0  # atno 6908 bound_to 6896
  151.5329  133.3408  159.2957 H   0  0  0  0  0  0  0  0  0  0  0  0  # atno 6909 bound_to 6896
  146.1715  139.7024  142.8964 H   0  0  0  0  0  0  0  0  0  0  0  0  # atno 7974 bound_to 7965
  155.6245  140.0685  157.2668 H   0  0  0  0  0  0  0  0  0  0  0  0  # atno 8008 bound_to 7997
  154.4221  140.1778  156.1456 H   0  0  0  0  0  0  0  0  0  0  0  0  # atno 8009 bound_to 7997
  155.9982  140.3338  155.6823 H   0  0  0  0  0  0  0  0  0  0  0  0  # atno 8010 bound_to 7997
  139.5846  144.1348  152.1558 H   0  0  0  0  0  0  0  0  0  0  0  0  # atno 10167 bound_to 10162
  156.4253  130.4434  149.7155 H   0  0  0  0  0  0  0  0  0  0  0  0  # atno 10718 bound_to 10713
  154.6377  135.2894  155.0141 H   0  0  0  0  0  0  0  0  0  0  0  0  # atno 10763 bound_to 10752
  154.1278  135.6538  153.4920 H   0  0  0  0  0  0  0  0  0  0  0  0  # atno 10764 bound_to 10752
  153.0311  135.5303  154.7231 H   0  0  0  0  0  0  0  0  0  0  0  0  # atno 10765 bound_to 10752
  141.1555  133.6766  156.6609 H   0  0  0  0  0  0  0  0  0  0  0  0  # atno 11005 bound_to 11000
  145.4327  141.0416  143.2902 LP  0  0  0  0  0  0  0  0  0  0  0  0  # atno 17320 bound_to 7965
  144.8171  139.5858  143.7003 LP  0  0  0  0  0  0  0  0  0  0  0  0  # atno 17321 bound_to 7965
  140.0908  144.5622  150.7056 LP  0  0  0  0  0  0  0  0  0  0  0  0  # atno 17342 bound_to 10162
  140.7119  143.2512  151.4554 LP  0  0  0  0  0  0  0  0  0  0  0  0  # atno 17343 bound_to 10162
  156.4080  130.7708  151.2719 LP  0  0  0  0  0  0  0  0  0  0  0  0  # atno 17370 bound_to 10713
  157.7508  131.0220  150.3773 LP  0  0  0  0  0  0  0  0  0  0  0  0  # atno 17371 bound_to 10713
  140.3248  134.7978  157.4280 LP  0  0  0  0  0  0  0  0  0  0  0  0  # atno 17394 bound_to 11000
  140.1066  134.5401  155.8303 LP  0  0  0  0  0  0  0  0  0  0  0  0  # atno 17395 bound_to 11000

$$$$
