AV-unprocessed.smi:1840|AV-procd|sdf|7495|dock3
  -GOLD-   22720 9193D 1   1.00000     0.00000
 Structure written by MMmdl.
 43 44  0  0  0  0  0  0  0  0  1 V2000
  146.6606  141.9681  154.5870 C   0  0  0  0  0  0  0  0  0  0  0  0
  147.8606  141.1664  155.1087 C   0  0  1  0  0  0  0  0  0  0  0  0
  148.6322  140.4915  153.9541 C   0  0  0  0  0  0  0  0  0  0  0  0
  149.7554  139.6962  154.4204 N   0  0  0  0  0  0  0  0  0  0  0  0
  149.8945  138.3243  154.4133 C   0  0  0  0  0  0  0  0  0  0  0  0
  151.1058  138.0360  154.9735 C   0  0  0  0  0  0  0  0  0  0  0  0
  151.6432  139.3141  155.2937 C   0  0  0  0  0  0  0  0  0  0  0  0
  150.8353  140.3062  154.9567 N   0  0  0  0  0  0  0  0  0  0  0  0
  148.7367  142.0574  155.8690 N   0  0  0  0  0  0  0  0  0  0  0  0
  149.3085  141.7654  157.0467 C   0  0  0  0  0  0  0  0  0  0  0  0
  149.1156  140.7205  157.6690 O   0  0  0  0  0  0  0  0  0  0  0  0
  150.1405  142.7355  157.4493 N   0  0  0  0  0  0  0  0  0  0  0  0
  150.9656  142.6871  158.6545 C   0  0  1  0  0  0  0  0  0  0  0  0
  151.8031  141.3897  158.6597 C   0  0  0  0  0  0  0  0  0  0  0  0
  152.7309  141.3195  159.8807 C   0  0  0  0  0  0  0  0  0  0  0  0
  153.6382  142.5548  159.9530 C   0  0  0  0  0  0  0  0  0  0  0  0
  152.8088  143.8477  159.9644 C   0  0  0  0  0  0  0  0  0  0  0  0
  151.8710  143.9410  158.7431 C   0  0  2  0  0  0  0  0  0  0  0  0
  151.0618  145.2500  158.7827 C   0  0  0  0  0  0  0  0  0  0  0  0
  145.9688  141.3261  154.0409 H   0  0  0  0  0  0  0  0  0  0  0  0
  146.9766  142.7652  153.9129 H   0  0  0  0  0  0  0  0  0  0  0  0
  146.1064  142.4251  155.4075 H   0  0  0  0  0  0  0  0  0  0  0  0
  147.4658  140.3879  155.7642 H   0  0  0  0  0  0  0  0  0  0  0  0
  147.9666  139.8307  153.3973 H   0  0  0  0  0  0  0  0  0  0  0  0
  148.9916  141.2390  153.2444 H   0  0  0  0  0  0  0  0  0  0  0  0
  149.1246  137.6753  154.0227 H   0  0  0  0  0  0  0  0  0  0  0  0
  151.5405  137.0606  155.1338 H   0  0  0  0  0  0  0  0  0  0  0  0
  152.5900  139.5489  155.7573 H   0  0  0  0  0  0  0  0  0  0  0  0
  148.9642  142.9425  155.4398 H   0  0  0  0  0  0  0  0  0  0  0  0
  150.2352  143.5541  156.8665 H   0  0  0  0  0  0  0  0  0  0  0  0
  150.3123  142.6812  159.5296 H   0  0  0  0  0  0  0  0  0  0  0  0
  151.1485  140.5172  158.6526 H   0  0  0  0  0  0  0  0  0  0  0  0
  152.4000  141.3319  157.7483 H   0  0  0  0  0  0  0  0  0  0  0  0
  152.1338  141.2490  160.7907 H   0  0  0  0  0  0  0  0  0  0  0  0
  153.3367  140.4139  159.8363 H   0  0  0  0  0  0  0  0  0  0  0  0
  154.2624  142.5059  160.8457 H   0  0  0  0  0  0  0  0  0  0  0  0
  154.3177  142.5618  159.0998 H   0  0  0  0  0  0  0  0  0  0  0  0
  152.2221  143.8931  160.8830 H   0  0  0  0  0  0  0  0  0  0  0  0
  153.4797  144.7071  159.9861 H   0  0  0  0  0  0  0  0  0  0  0  0
  152.4972  143.9705  157.8498 H   0  0  0  0  0  0  0  0  0  0  0  0
  150.3814  145.2675  159.6346 H   0  0  0  0  0  0  0  0  0  0  0  0
  150.4669  145.3843  157.8792 H   0  0  0  0  0  0  0  0  0  0  0  0
  151.7201  146.1150  158.8665 H   0  0  0  0  0  0  0  0  0  0  0  0
  1  2  1  0  0  0  0
  1 20  1  0  0  0  0
  1 21  1  0  0  0  0
  1 22  1  0  0  0  0
  2  3  1  0  0  0  0
  2  9  1  0  0  0  0
  2 23  1  0  0  0  0
  3  4  1  0  0  0  0
  3 24  1  0  0  0  0
  3 25  1  0  0  0  0
  4  8  1  0  0  0  0
  4  5  1  0  0  0  0
  5  6  2  0  0  0  0
  5 26  1  0  0  0  0
  6  7  1  0  0  0  0
  6 27  1  0  0  0  0
  7  8  2  0  0  0  0
  7 28  1  0  0  0  0
  9 10  1  0  0  0  0
  9 29  1  0  0  0  0
 10 11  2  0  0  0  0
 10 12  1  0  0  0  0
 12 13  1  0  0  0  0
 12 30  1  0  0  0  0
 13 18  1  0  0  0  0
 13 14  1  0  0  0  0
 13 31  1  0  0  0  0
 14 15  1  0  0  0  0
 14 32  1  0  0  0  0
 14 33  1  0  0  0  0
 15 16  1  0  0  0  0
 15 34  1  0  0  0  0
 15 35  1  0  0  0  0
 16 17  1  0  0  0  0
 16 36  1  0  0  0  0
 16 37  1  0  0  0  0
 17 18  1  0  0  0  0
 17 38  1  0  0  0  0
 17 39  1  0  0  0  0
 18 19  1  0  0  0  0
 18 40  1  0  0  0  0
 19 41  1  0  0  0  0
 19 42  1  0  0  0  0
 19 43  1  0  0  0  0
M  END
> <s_m_source_file>
AV-unprocessed.smi

> <i_m_source_file_index>
1840

> <i_lp_mmshare_version>
43012

> <i_f3d_flags>
0

> <s_epik_input>
bjFbY0hdW2NIXVtjSF1uMVtDSDJdW0NAQEhdKFtDSDNdKVtOSF1DKD1PKVtOSF1bQ0BASF0yW0NIMl1bQ0gyXVtDSDJdW0NIMl1bQ0BIXTJbQ0gzXQ==

> <s_epik_cmdline>
J2VwaWtfcHl0aG9uJywgJy1waCcsICc3LjAnLCAnLXRuJywgJzgnLCAnLW1hJywgJzIwMCcsICctbWV0YWxfYmluZGluZycsICctaW1hZScsICc8aW5maWxlLm1hZT4nLCAnLW9tYWUnLCAnPG91dGZpbGUubWFlPic=

> <r_lp_tautomer_probability>
1

> <r_epik_Ionization_Penalty>
7.38659e-05

> <r_epik_Ionization_Penalty_Charging>
0

> <r_epik_Ionization_Penalty_Neutral>
7.38659e-05

> <r_epik_State_Penalty>
-0

> <r_epik_Charging_Adjusted_Penalty>
0

> <i_epik_Tot_Q>
0

> <i_epik_Tot_abs_Q>
0

> <r_epik_Metal_State_Penalty>
-0

> <b_epik_Metal_Only>
0

> <s_lp_Force_Field>
OPLS_2005

> <r_lp_Energy>
7.84096

> <b_lp_Chiralities_Consistent>
1

> <s_lp_Variant>
AV-unprocessed.smi:1840-8

> <Gold.Version>
5.8.1

> <Gold.Id.Protein>
6NUR|6NUR_protein|mol2

> <Gold.PLP.Fitness>
52.4408

> <Gold.PLP.PLP>
-42.9818

> <Gold.PLP.part.hbond>
-3.0000

> <Gold.PLP.part.metal>
0.0000

> <Gold.PLP.part.buried>
-3.9828

> <Gold.PLP.part.nonpolar>
-37.3990

> <Gold.PLP.part.repulsive>
0.1975

> <Gold.PLP.ligand.clash>
0.0000

> <Gold.PLP.ligand.torsion>
0.3592

> <Gold.PLP.Chemscore.Hbond>
2.3917

> <Gold.PLP.Chemscore.CHOScore>
0.9959

> <Gold.PLP.Chemscore.Metal>
0.0000

> <Gold.Chemscore.Hbonds>
donor molecule, donor type, donor heavy atom, donor atom, acceptor molecule, acceptor atom, score
      L1  H     9    29       P1  8028  0.88
      L1  H    12    30       P1  8028  0.50
      P1  H  7989  7998       L1     8  1.00
      L1  C     5    26       P1  7948  0.86

> <Gold.PLP.Chemscore.Internal.Correction>
0.0145

> <Gold.Rescore>
     Score         DG    S(hbond)    S(metal)    S(lipo)     H(rot)  DE(clash)    DE(int)     intcor
     21.68     -22.37       2.49        0.00     107.27       1.56       0.02       0.67       ----

> <Gold.Chemscore.Fitness>
21.6765

> <Gold.Chemscore.DG>
-22.3688

> <Gold.Chemscore.ZeroCoef>
-5.4800

> <Gold.Chemscore.Hbond>
2.4929

> <Gold.Chemscore.Metal>
0.0000

> <Gold.Chemscore.Lipo>
107.2662

> <Gold.Chemscore.Internal_Hbond>
0.0000

> <Gold.Chemscore.DEClash>
0.0186

> <Gold.Chemscore.DEInternal>
0.6736

> <Gold.Chemscore.Rot>
1.5576

> <Gold.Chemscore.Internal.Correction>
   9.000000E+99

> <Gold.Chemscore.Hbonds>
donor molecule, donor type, donor heavy atom, donor atom, acceptor molecule, acceptor atom, score
      L1  H     9    29       P1  8028  0.87
      L1  H    12    30       P1  8028  0.50
      P1  H  7989  7998       L1     8  0.08

> <Gold.Chemscore.Hbond.Weighted>
-8.3262

> <Gold.Chemscore.Metal.Weighted>
-0.0000

> <Gold.Chemscore.Lipo.Weighted>
-12.5501

> <Gold.Chemscore.Internal_Hbond.Weighted>
0.0000

> <Gold.Chemscore.DEClash.Weighted>
0.0186

> <Gold.Chemscore.DEInternal.Weighted>
0.6736

> <Gold.Chemscore.Rot.Weighted>
3.9875

> <Gold.Chemscore.Internal.Correction.Weighted>
   9.000000E+99

> <Gold.Protein.RotatedTorsions>
[ 6907 6896 6895 6894 ] final   69.88 input  -60.11 | X-H torsion
[ 7974 7965 7964 7962 ] final   93.18 input  175.53 | X-H torsion
[ 8008 7997 7996 7995 ] final   72.83 input   59.86 | X-H torsion
[ 10167 10162 10161 10158 ] final  -34.24 input  -65.29 | X-H torsion
[ 10718 10713 10712 10709 ] final  -82.79 input   66.30 | X-H torsion
[ 10763 10752 10751 10750 ] final  173.09 input  -60.55 | X-H torsion
[ 11005 11000 10999 10996 ] final  -61.49 input  -57.11 | X-H torsion

> <Gold.Protein.ActiveResidues>
 VAL166  LYS551  ARG553  GLY616  TRP617  ASP618  TYR619  PRO620  LYS621  CYS622 
 ASP623  PHE694  ASN695  SER759  ASP760  ASP761  ALA762  ILE779  LEU786  VAL792 
 PHE793  MET794  SER795  GLU796  ALA797  LYS798  CYS799  TRP800  GLU811  SER814 

> <Gold.Protein.RotatedAtoms>
  152.4714  134.4950  159.9706 H   0  0  0  0  0  0  0  0  0  0  0  0  # atno 6907 bound_to 6896
  151.4976  133.3505  159.2871 H   0  0  0  0  0  0  0  0  0  0  0  0  # atno 6908 bound_to 6896
  150.8727  134.8131  159.7228 H   0  0  0  0  0  0  0  0  0  0  0  0  # atno 6909 bound_to 6896
  145.4823  139.2278  143.2875 H   0  0  0  0  0  0  0  0  0  0  0  0  # atno 7974 bound_to 7965
  155.7747  140.3483  155.5265 H   0  0  0  0  0  0  0  0  0  0  0  0  # atno 8008 bound_to 7997
  155.8787  140.0998  157.1521 H   0  0  0  0  0  0  0  0  0  0  0  0  # atno 8009 bound_to 7997
  154.4023  140.1326  156.4157 H   0  0  0  0  0  0  0  0  0  0  0  0  # atno 8010 bound_to 7997
  140.7189  143.3562  151.2054 H   0  0  0  0  0  0  0  0  0  0  0  0  # atno 10167 bound_to 10162
  156.0027  130.4645  150.4159 H   0  0  0  0  0  0  0  0  0  0  0  0  # atno 10718 bound_to 10713
  154.4352  135.2760  155.1885 H   0  0  0  0  0  0  0  0  0  0  0  0  # atno 10763 bound_to 10752
  154.3775  135.6095  153.5776 H   0  0  0  0  0  0  0  0  0  0  0  0  # atno 10764 bound_to 10752
  152.9838  135.5872  154.4670 H   0  0  0  0  0  0  0  0  0  0  0  0  # atno 10765 bound_to 10752
  141.1326  133.6630  156.5383 H   0  0  0  0  0  0  0  0  0  0  0  0  # atno 11005 bound_to 11000
  146.2333  140.5611  142.8966 LP  0  0  0  0  0  0  0  0  0  0  0  0  # atno 17320 bound_to 7965
  144.7881  140.5978  143.6560 LP  0  0  0  0  0  0  0  0  0  0  0  0  # atno 17321 bound_to 7965
  139.7104  143.9386  152.2945 LP  0  0  0  0  0  0  0  0  0  0  0  0  # atno 17342 bound_to 10162
  139.9109  144.6857  150.8563 LP  0  0  0  0  0  0  0  0  0  0  0  0  # atno 17343 bound_to 10162
  157.2219  131.0484  151.2542 LP  0  0  0  0  0  0  0  0  0  0  0  0  # atno 17370 bound_to 10713
  157.3793  130.7222  149.6619 LP  0  0  0  0  0  0  0  0  0  0  0  0  # atno 17371 bound_to 10713
  140.4160  134.7230  157.4863 LP  0  0  0  0  0  0  0  0  0  0  0  0  # atno 17394 bound_to 11000
  140.0393  134.6290  155.9001 LP  0  0  0  0  0  0  0  0  0  0  0  0  # atno 17395 bound_to 11000

$$$$
