AV-unprocessed.smi:1768|AV-procd|sdf|7149|dock3
  -GOLD-   22720 8383D 1   1.00000     0.00000
 Structure written by MMmdl.
 32 33  0  0  0  0  0  0  0  0  2 V2000
  148.5870  141.1110  154.1984 C   0  0  0  0  0  0  0  0  0  0  0  0
  149.5595  140.5659  155.1871 C   0  0  0  0  0  0  0  0  0  0  0  0
  150.7440  140.0624  154.8319 N   0  0  0  0  0  0  0  0  0  0  0  0
  151.4734  139.6213  155.9266 N   0  0  0  0  0  0  0  0  0  0  0  0
  150.8369  139.8059  157.0920 C   0  0  0  0  0  0  0  0  0  0  0  0
  151.3733  139.4453  158.2696 N   0  5  0  0  0  0  0  0  0  0  0  0
  152.5392  139.9963  158.6784 C   0  0  0  0  0  0  0  0  0  0  0  0
  153.6725  139.6020  158.3934 O   0  0  0  0  0  0  0  0  0  0  0  0
  152.3815  141.0690  159.4671 N   0  0  0  0  0  0  0  0  0  0  0  0
  153.4503  141.8742  160.0545 C   0  0  2  0  0  0  0  0  0  0  0  0
  153.7411  141.3838  161.4841 C   0  0  0  0  0  0  0  0  0  0  0  0
  153.0388  143.3587  160.0200 C   0  0  1  0  0  0  0  0  0  0  0  0
  152.7232  143.9053  158.6262 C   0  0  0  0  0  0  0  0  0  0  0  0
  151.7627  145.0540  158.8951 C   0  0  0  0  0  0  0  0  0  0  0  0
  151.3290  144.8463  160.3482 C   0  0  0  0  0  0  0  0  0  0  0  0
  151.8039  143.5536  160.6930 O   0  0  0  0  0  0  0  0  0  0  0  0
  149.2413  140.5354  156.9133 S   0  0  0  0  0  0  0  0  0  0  0  0
  148.8911  142.1114  153.8902 H   0  0  0  0  0  0  0  0  0  0  0  0
  147.5911  141.1669  154.6383 H   0  0  0  0  0  0  0  0  0  0  0  0
  148.5434  140.4692  153.3182 H   0  0  0  0  0  0  0  0  0  0  0  0
  151.4353  141.3564  159.6691 H   0  0  0  0  0  0  0  0  0  0  0  0
  154.3546  141.7586  159.4543 H   0  0  0  0  0  0  0  0  0  0  0  0
  154.5587  141.9435  161.9382 H   0  0  0  0  0  0  0  0  0  0  0  0
  154.0290  140.3321  161.4900 H   0  0  0  0  0  0  0  0  0  0  0  0
  152.8659  141.4919  162.1254 H   0  0  0  0  0  0  0  0  0  0  0  0
  153.8012  143.9782  160.4969 H   0  0  0  0  0  0  0  0  0  0  0  0
  153.6167  144.2204  158.0864 H   0  0  0  0  0  0  0  0  0  0  0  0
  152.2202  143.1443  158.0278 H   0  0  0  0  0  0  0  0  0  0  0  0
  152.2494  146.0221  158.7732 H   0  0  0  0  0  0  0  0  0  0  0  0
  150.9130  145.0167  158.2125 H   0  0  0  0  0  0  0  0  0  0  0  0
  151.7989  145.5858  160.9980 H   0  0  0  0  0  0  0  0  0  0  0  0
  150.2488  144.9156  160.4782 H   0  0  0  0  0  0  0  0  0  0  0  0
  1  2  1  0  0  0  0
  1 18  1  0  0  0  0
  1 19  1  0  0  0  0
  1 20  1  0  0  0  0
  2 17  1  0  0  0  0
  2  3  2  0  0  0  0
  3  4  1  0  0  0  0
  4  5  2  0  0  0  0
  5  6  1  0  0  0  0
  5 17  1  0  0  0  0
  6  7  1  0  0  0  0
  7  8  2  0  0  0  0
  7  9  1  0  0  0  0
  9 10  1  0  0  0  0
  9 21  1  0  0  0  0
 10 11  1  0  0  0  0
 10 12  1  0  0  0  0
 10 22  1  0  0  0  0
 11 23  1  0  0  0  0
 11 24  1  0  0  0  0
 11 25  1  0  0  0  0
 12 16  1  0  0  0  0
 12 13  1  0  0  0  0
 12 26  1  0  0  0  0
 13 14  1  0  0  0  0
 13 27  1  0  0  0  0
 13 28  1  0  0  0  0
 14 15  1  0  0  0  0
 14 29  1  0  0  0  0
 14 30  1  0  0  0  0
 15 16  1  0  0  0  0
 15 31  1  0  0  0  0
 15 32  1  0  0  0  0
M  CHG  1   6  -1
M  END
> <s_m_source_file>
AV-unprocessed.smi

> <i_m_source_file_index>
1768

> <i_lp_mmshare_version>
43012

> <i_f3d_flags>
0

> <s_epik_input>
W0NIM11jMW5uYyhzMSlbTkhdQyg9TylbTkhdW0NASF0oW0NIM10pW0NAQEhdMltDSDJdW0NIMl1bQ0gyXU8y

> <s_epik_cmdline>
J2VwaWtfcHl0aG9uJywgJy1waCcsICc3LjAnLCAnLXRuJywgJzgnLCAnLW1hJywgJzIwMCcsICctbWV0YWxfYmluZGluZycsICctaW1hZScsICc8aW5maWxlLm1hZT4nLCAnLW9tYWUnLCAnPG91dGZpbGUubWFlPic=

> <r_lp_tautomer_probability>
1

> <r_epik_Ionization_Penalty>
4.3376

> <r_epik_Ionization_Penalty_Charging>
4.19392

> <r_epik_Ionization_Penalty_Neutral>
0.143681

> <r_epik_State_Penalty>
4.19342

> <r_epik_Charging_Adjusted_Penalty>
8.38735

> <i_epik_Tot_Q>
-1

> <i_epik_Tot_abs_Q>
1

> <r_epik_Metal_State_Penalty>
0.686065

> <b_epik_Metal_Only>
1

> <s_lp_Force_Field>
OPLS_2005

> <r_lp_Energy>
16.4236

> <b_lp_Chiralities_Consistent>
1

> <s_lp_Variant>
AV-unprocessed.smi:1768-7

> <Gold.Version>
5.8.1

> <Gold.Id.Protein>
6NUR|6NUR_protein|mol2

> <Gold.PLP.Fitness>
40.9772

> <Gold.PLP.PLP>
-38.2379

> <Gold.PLP.part.hbond>
-2.0000

> <Gold.PLP.part.metal>
0.0000

> <Gold.PLP.part.buried>
-5.6919

> <Gold.PLP.part.nonpolar>
-30.9238

> <Gold.PLP.part.repulsive>
0.2935

> <Gold.PLP.ligand.clash>
0.0000

> <Gold.PLP.ligand.torsion>
1.6487

> <Gold.PLP.Chemscore.Hbond>
2.0000

> <Gold.PLP.Chemscore.CHOScore>
0.0000

> <Gold.PLP.Chemscore.Metal>
0.0000

> <Gold.Chemscore.Hbonds>
donor molecule, donor type, donor heavy atom, donor atom, acceptor molecule, acceptor atom, score
      P1  H  7989  7998       L1     3  1.00
      P1  H  7997  8009       L1     8  1.00

> <Gold.PLP.Chemscore.Internal.Correction>
0.0367

> <Gold.Rescore>
     Score         DG    S(hbond)    S(metal)    S(lipo)     H(rot)  DE(clash)    DE(int)     intcor
     17.61     -19.24       1.95        0.00      89.77       1.28       0.01       1.62       ----

> <Gold.Chemscore.Fitness>
17.6131

> <Gold.Chemscore.DG>
-19.2372

> <Gold.Chemscore.ZeroCoef>
-5.4800

> <Gold.Chemscore.Hbond>
1.9536

> <Gold.Chemscore.Metal>
0.0000

> <Gold.Chemscore.Lipo>
89.7677

> <Gold.Chemscore.Internal_Hbond>
0.0000

> <Gold.Chemscore.DEClash>
0.0089

> <Gold.Chemscore.DEInternal>
1.6153

> <Gold.Chemscore.Rot>
1.2776

> <Gold.Chemscore.Internal.Correction>
   9.000000E+99

> <Gold.Chemscore.Hbonds>
donor molecule, donor type, donor heavy atom, donor atom, acceptor molecule, acceptor atom, score
      P1  H  7989  7998       L1     3  0.92
      P1  H  7997  8009       L1     8  0.99

> <Gold.Chemscore.Hbond.Weighted>
-6.5250

> <Gold.Chemscore.Metal.Weighted>
-0.0000

> <Gold.Chemscore.Lipo.Weighted>
-10.5028

> <Gold.Chemscore.Internal_Hbond.Weighted>
0.0000

> <Gold.Chemscore.DEClash.Weighted>
0.0089

> <Gold.Chemscore.DEInternal.Weighted>
1.6153

> <Gold.Chemscore.Rot.Weighted>
3.2706

> <Gold.Chemscore.Internal.Correction.Weighted>
   9.000000E+99

> <Gold.Protein.RotatedTorsions>
[ 6907 6896 6895 6894 ] final  -10.31 input  -60.11 | X-H torsion
[ 7974 7965 7964 7962 ] final  -35.97 input  175.53 | X-H torsion
[ 8008 7997 7996 7995 ] final  135.07 input   59.86 | X-H torsion
[ 10167 10162 10161 10158 ] final  -42.39 input  -65.29 | X-H torsion
[ 10718 10713 10712 10709 ] final   62.79 input   66.30 | X-H torsion
[ 10763 10752 10751 10750 ] final  134.51 input  -60.55 | X-H torsion
[ 11005 11000 10999 10996 ] final   54.72 input  -57.11 | X-H torsion

> <Gold.Protein.ActiveResidues>
 VAL166  LYS551  ARG553  GLY616  TRP617  ASP618  TYR619  PRO620  LYS621  CYS622 
 ASP623  PHE694  ASN695  SER759  ASP760  ASP761  ALA762  ILE779  LEU786  VAL792 
 PHE793  MET794  SER795  GLU796  ALA797  LYS798  CYS799  TRP800  GLU811  SER814 

> <Gold.Protein.RotatedAtoms>
  151.4039  135.0975  159.9564 H   0  0  0  0  0  0  0  0  0  0  0  0  # atno 6907 bound_to 6896
  152.5041  133.8862  159.7381 H   0  0  0  0  0  0  0  0  0  0  0  0  # atno 6908 bound_to 6896
  150.9342  133.6675  159.2832 H   0  0  0  0  0  0  0  0  0  0  0  0  # atno 6909 bound_to 6896
  146.0701  140.6223  142.8956 H   0  0  0  0  0  0  0  0  0  0  0  0  # atno 7974 bound_to 7965
  156.3002  140.2480  156.3520 H   0  0  0  0  0  0  0  0  0  0  0  0  # atno 8008 bound_to 7997
  154.8956  140.0408  157.1883 H   0  0  0  0  0  0  0  0  0  0  0  0  # atno 8009 bound_to 7997
  154.8552  140.2912  155.5577 H   0  0  0  0  0  0  0  0  0  0  0  0  # atno 8010 bound_to 7997
  140.6971  143.3040  151.3202 H   0  0  0  0  0  0  0  0  0  0  0  0  # atno 10167 bound_to 10162
  157.5925  130.9069  149.9632 H   0  0  0  0  0  0  0  0  0  0  0  0  # atno 10718 bound_to 10713
  153.8247  135.3111  155.3413 H   0  0  0  0  0  0  0  0  0  0  0  0  # atno 10763 bound_to 10752
  154.7998  135.4733  154.0251 H   0  0  0  0  0  0  0  0  0  0  0  0  # atno 10764 bound_to 10752
  153.1671  135.6871  153.8749 H   0  0  0  0  0  0  0  0  0  0  0  0  # atno 10765 bound_to 10752
  140.0664  134.5531  155.9095 H   0  0  0  0  0  0  0  0  0  0  0  0  # atno 11005 bound_to 11000
  144.7226  140.4424  143.6996 LP  0  0  0  0  0  0  0  0  0  0  0  0  # atno 17320 bound_to 7965
  145.6406  139.1549  143.2917 LP  0  0  0  0  0  0  0  0  0  0  0  0  # atno 17321 bound_to 7965
  139.6439  144.0487  152.2576 LP  0  0  0  0  0  0  0  0  0  0  0  0  # atno 17342 bound_to 10162
  140.0002  144.6299  150.7737 LP  0  0  0  0  0  0  0  0  0  0  0  0  # atno 17343 bound_to 10162
  156.0982  130.3657  150.0266 LP  0  0  0  0  0  0  0  0  0  0  0  0  # atno 17370 bound_to 10713
  156.8386  130.9417  151.3633 LP  0  0  0  0  0  0  0  0  0  0  0  0  # atno 17371 bound_to 10713
  141.1994  133.6607  156.5843 LP  0  0  0  0  0  0  0  0  0  0  0  0  # atno 17394 bound_to 11000
  140.3693  134.7620  157.4587 LP  0  0  0  0  0  0  0  0  0  0  0  0  # atno 17395 bound_to 11000

$$$$
