AV-unprocessed.smi:1654|AV-procd|sdf|6643|dock1
  -GOLD-   22720 7343D 1   1.00000     0.00000
 Structure written by MMmdl.
 39 40  0  0  0  0  0  0  0  0  2 V2000
  153.7586  136.4149  157.4985 O   0  0  0  0  0  0  0  0  0  0  0  0
  152.8493  137.4063  158.0963 S   0  0  0  0  0  0  0  0  0  0  0  0
  151.8777  136.9332  159.0965 O   0  0  0  0  0  0  0  0  0  0  0  0
  153.5838  138.7792  158.5503 N   0  5  0  0  0  0  0  0  0  0  0  0
  152.7815  139.8535  159.1068 C   0  0  0  0  0  0  0  0  0  0  0  0
  153.6951  140.8761  159.8124 C   0  0  0  0  0  0  0  0  0  0  0  0
  153.1608  142.3025  159.7810 C   0  0  0  0  0  0  0  0  0  0  0  0
  153.0759  143.0215  158.5686 C   0  0  0  0  0  0  0  0  0  0  0  0
  152.5883  144.3424  158.5925 C   0  0  0  0  0  0  0  0  0  0  0  0
  152.2084  144.8941  159.8320 C   0  0  0  0  0  0  0  0  0  0  0  0
  152.2900  144.2215  161.0000 N   0  0  0  0  0  0  0  0  0  0  0  0
  152.7577  142.9547  160.9680 C   0  0  0  0  0  0  0  0  0  0  0  0
  151.9304  138.0648  156.7703 N   0  0  0  0  0  0  0  0  0  0  0  0
  150.7759  138.9354  157.0636 C   0  0  0  0  0  0  0  0  0  0  0  0
  150.8811  140.2498  156.2754 C   0  0  0  0  0  0  0  0  0  0  0  0
  150.2616  140.2158  154.8665 C   0  0  0  0  0  0  0  0  0  0  0  0
  150.4093  138.8950  154.0891 C   0  0  0  0  0  0  0  0  0  0  0  0
  151.7595  138.1825  154.2669 C   0  0  0  0  0  0  0  0  0  0  0  0
  151.8233  137.2876  155.5196 C   0  0  0  0  0  0  0  0  0  0  0  0
  152.2073  140.3656  158.3339 H   0  0  0  0  0  0  0  0  0  0  0  0
  152.0511  139.4762  159.8235 H   0  0  0  0  0  0  0  0  0  0  0  0
  153.8415  140.5849  160.8537 H   0  0  0  0  0  0  0  0  0  0  0  0
  154.6848  140.8671  159.3534 H   0  0  0  0  0  0  0  0  0  0  0  0
  153.3775  142.5681  157.6356 H   0  0  0  0  0  0  0  0  0  0  0  0
  152.5077  144.9186  157.6828 H   0  0  0  0  0  0  0  0  0  0  0  0
  151.8306  145.9044  159.8870 H   0  0  0  0  0  0  0  0  0  0  0  0
  152.8119  142.4458  161.9193 H   0  0  0  0  0  0  0  0  0  0  0  0
  149.8401  138.4123  156.8637 H   0  0  0  0  0  0  0  0  0  0  0  0
  150.7563  139.1730  158.1258 H   0  0  0  0  0  0  0  0  0  0  0  0
  150.3917  141.0441  156.8396 H   0  0  0  0  0  0  0  0  0  0  0  0
  151.9288  140.5482  156.2110 H   0  0  0  0  0  0  0  0  0  0  0  0
  149.1984  140.4482  154.9381 H   0  0  0  0  0  0  0  0  0  0  0  0
  150.6992  141.0273  154.2839 H   0  0  0  0  0  0  0  0  0  0  0  0
  149.6038  138.2133  154.3646 H   0  0  0  0  0  0  0  0  0  0  0  0
  150.2557  139.1087  153.0308 H   0  0  0  0  0  0  0  0  0  0  0  0
  151.9120  137.5389  153.4000 H   0  0  0  0  0  0  0  0  0  0  0  0
  152.5844  138.8963  154.2536 H   0  0  0  0  0  0  0  0  0  0  0  0
  152.6841  136.6272  155.4230 H   0  0  0  0  0  0  0  0  0  0  0  0
  150.9552  136.6300  155.5764 H   0  0  0  0  0  0  0  0  0  0  0  0
  1  2  2  0  0  0  0
  2  3  2  0  0  0  0
  2  4  1  0  0  0  0
  2 13  1  0  0  0  0
  4  5  1  0  0  0  0
  5  6  1  0  0  0  0
  5 20  1  0  0  0  0
  5 21  1  0  0  0  0
  6  7  1  0  0  0  0
  6 22  1  0  0  0  0
  6 23  1  0  0  0  0
  7 12  1  0  0  0  0
  7  8  2  0  0  0  0
  8  9  1  0  0  0  0
  8 24  1  0  0  0  0
  9 10  2  0  0  0  0
  9 25  1  0  0  0  0
 10 11  1  0  0  0  0
 10 26  1  0  0  0  0
 11 12  2  0  0  0  0
 12 27  1  0  0  0  0
 13 19  1  0  0  0  0
 13 14  1  0  0  0  0
 14 15  1  0  0  0  0
 14 28  1  0  0  0  0
 14 29  1  0  0  0  0
 15 16  1  0  0  0  0
 15 30  1  0  0  0  0
 15 31  1  0  0  0  0
 16 17  1  0  0  0  0
 16 32  1  0  0  0  0
 16 33  1  0  0  0  0
 17 18  1  0  0  0  0
 17 34  1  0  0  0  0
 17 35  1  0  0  0  0
 18 19  1  0  0  0  0
 18 36  1  0  0  0  0
 18 37  1  0  0  0  0
 19 38  1  0  0  0  0
 19 39  1  0  0  0  0
M  CHG  1   4  -1
M  END
> <s_m_source_file>
AV-unprocessed.smi

> <i_m_source_file_index>
1654

> <i_lp_mmshare_version>
43012

> <i_f3d_flags>
0

> <s_epik_input>
W0NIMl0xW0NIMl1bQ0gyXVtDSDJdW0NIMl1bQ0gyXU4xUyg9TykoPU8pW05IXVtDSDJdW0NIMl1jMltjSF1bY0hdW2NIXW5bY0hdMg==

> <s_epik_cmdline>
J2VwaWtfcHl0aG9uJywgJy1waCcsICc3LjAnLCAnLXRuJywgJzgnLCAnLW1hJywgJzIwMCcsICctbWV0YWxfYmluZGluZycsICctaW1hZScsICc8aW5maWxlLm1hZT4nLCAnLW9tYWUnLCAnPG91dGZpbGUubWFlPic=

> <r_lp_tautomer_probability>
1

> <r_epik_Ionization_Penalty>
3.13138

> <r_epik_Ionization_Penalty_Charging>
3.10426

> <r_epik_Ionization_Penalty_Neutral>
0.027117

> <r_epik_State_Penalty>
3.10111

> <r_epik_Charging_Adjusted_Penalty>
6.20538

> <i_epik_Tot_Q>
-1

> <i_epik_Tot_abs_Q>
1

> <r_epik_Metal_State_Penalty>
0.464106

> <b_epik_Metal_Only>
1

> <s_lp_Force_Field>
OPLS_2005

> <r_lp_Energy>
12.7892

> <b_lp_Chiralities_Consistent>
1

> <s_lp_Variant>
AV-unprocessed.smi:1654-2

> <Gold.Version>
5.8.1

> <Gold.Id.Protein>
6NUR|6NUR_protein|mol2

> <Gold.PLP.Fitness>
51.0465

> <Gold.PLP.PLP>
-40.7444

> <Gold.PLP.part.hbond>
-3.0000

> <Gold.PLP.part.metal>
0.0000

> <Gold.PLP.part.buried>
-6.8075

> <Gold.PLP.part.nonpolar>
-32.6115

> <Gold.PLP.part.repulsive>
0.1554

> <Gold.PLP.ligand.clash>
0.0000

> <Gold.PLP.ligand.torsion>
1.9387

> <Gold.PLP.Chemscore.Hbond>
3.6878

> <Gold.PLP.Chemscore.CHOScore>
0.0000

> <Gold.PLP.Chemscore.Metal>
0.0000

> <Gold.Chemscore.Hbonds>
donor molecule, donor type, donor heavy atom, donor atom, acceptor molecule, acceptor atom, score
      P1  H  6896  6907       L1     3  1.00
      P1  H  7997  8009       L1     4  0.88
      P1  H 10752 10765       L1     1  0.19

> <Gold.PLP.Chemscore.Internal.Correction>
3.1161

> <Gold.Rescore>
     Score         DG    S(hbond)    S(metal)    S(lipo)     H(rot)  DE(clash)    DE(int)     intcor
     20.91     -22.85       2.30        0.00     110.59       1.27       0.00       1.94       ----

> <Gold.Chemscore.Fitness>
20.9089

> <Gold.Chemscore.DG>
-22.8464

> <Gold.Chemscore.ZeroCoef>
-5.4800

> <Gold.Chemscore.Hbond>
2.3020

> <Gold.Chemscore.Metal>
0.0000

> <Gold.Chemscore.Lipo>
110.5882

> <Gold.Chemscore.Internal_Hbond>
0.0000

> <Gold.Chemscore.DEClash>
0.0000

> <Gold.Chemscore.DEInternal>
1.9376

> <Gold.Chemscore.Rot>
1.2738

> <Gold.Chemscore.Internal.Correction>
   9.000000E+99

> <Gold.Chemscore.Hbonds>
donor molecule, donor type, donor heavy atom, donor atom, acceptor molecule, acceptor atom, score
      P1  H  6896  6907       L1     3  0.92
      P1  H  7997  8009       L1     4  0.06
      P1  H 10752 10765       L1     1  0.21

> <Gold.Chemscore.Hbond.Weighted>
-7.6887

> <Gold.Chemscore.Metal.Weighted>
-0.0000

> <Gold.Chemscore.Lipo.Weighted>
-12.9388

> <Gold.Chemscore.Internal_Hbond.Weighted>
0.0000

> <Gold.Chemscore.DEClash.Weighted>
0.0000

> <Gold.Chemscore.DEInternal.Weighted>
1.9376

> <Gold.Chemscore.Rot.Weighted>
3.2610

> <Gold.Chemscore.Internal.Correction.Weighted>
   9.000000E+99

> <Gold.Protein.RotatedTorsions>
[ 6907 6896 6895 6894 ] final    5.25 input  -60.11 | X-H torsion
[ 7974 7965 7964 7962 ] final  120.15 input  175.53 | X-H torsion
[ 8008 7997 7996 7995 ] final  154.13 input   59.86 | X-H torsion
[ 10167 10162 10161 10158 ] final   -0.27 input  -65.29 | X-H torsion
[ 10718 10713 10712 10709 ] final -123.93 input   66.30 | X-H torsion
[ 10763 10752 10751 10750 ] final -105.49 input  -60.55 | X-H torsion
[ 11005 11000 10999 10996 ] final -122.28 input  -57.11 | X-H torsion

> <Gold.Protein.ActiveResidues>
 VAL166  LYS551  ARG553  GLY616  TRP617  ASP618  TYR619  PRO620  LYS621  CYS622 
 ASP623  PHE694  ASN695  SER759  ASP760  ASP761  ALA762  ILE779  LEU786  VAL792 
 PHE793  MET794  SER795  GLU796  ALA797  LYS798  CYS799  TRP800  GLU811  SER814 

> <Gold.Protein.RotatedAtoms>
  151.6544  135.0997  160.0166 H   0  0  0  0  0  0  0  0  0  0  0  0  # atno 6907 bound_to 6896
  152.3982  133.6774  159.6303 H   0  0  0  0  0  0  0  0  0  0  0  0  # atno 6908 bound_to 6896
  150.7886  133.8753  159.3311 H   0  0  0  0  0  0  0  0  0  0  0  0  # atno 6909 bound_to 6896
  145.1346  139.3306  143.4647 H   0  0  0  0  0  0  0  0  0  0  0  0  # atno 7974 bound_to 7965
  156.2546  140.1975  156.6599 H   0  0  0  0  0  0  0  0  0  0  0  0  # atno 8008 bound_to 7997
  154.6472  140.0576  156.9940 H   0  0  0  0  0  0  0  0  0  0  0  0  # atno 8009 bound_to 7997
  155.1472  140.3248  155.4442 H   0  0  0  0  0  0  0  0  0  0  0  0  # atno 8010 bound_to 7997
  140.6760  143.6914  150.8024 H   0  0  0  0  0  0  0  0  0  0  0  0  # atno 10167 bound_to 10162
  156.1544  130.6557  150.9960 H   0  0  0  0  0  0  0  0  0  0  0  0  # atno 10718 bound_to 10713
  154.7950  135.4747  154.0140 H   0  0  0  0  0  0  0  0  0  0  0  0  # atno 10763 bound_to 10752
  153.1689  135.6821  153.8643 H   0  0  0  0  0  0  0  0  0  0  0  0  # atno 10764 bound_to 10752
  153.8231  135.3201  155.3390 H   0  0  0  0  0  0  0  0  0  0  0  0  # atno 10765 bound_to 10752
  141.0007  134.0407  157.3541 H   0  0  0  0  0  0  0  0  0  0  0  0  # atno 11005 bound_to 11000
  146.3511  140.1358  142.8596 LP  0  0  0  0  0  0  0  0  0  0  0  0  # atno 17320 bound_to 7965
  145.0598  140.9079  143.4945 LP  0  0  0  0  0  0  0  0  0  0  0  0  # atno 17321 bound_to 7965
  140.0607  143.5157  152.2629 LP  0  0  0  0  0  0  0  0  0  0  0  0  # atno 17342 bound_to 10162
  139.6053  144.7594  151.3077 LP  0  0  0  0  0  0  0  0  0  0  0  0  # atno 17343 bound_to 10162
  157.6683  131.0867  150.7675 LP  0  0  0  0  0  0  0  0  0  0  0  0  # atno 17370 bound_to 10713
  156.7741  130.4838  149.5413 LP  0  0  0  0  0  0  0  0  0  0  0  0  # atno 17371 bound_to 10713
  139.9037  135.0173  156.7388 LP  0  0  0  0  0  0  0  0  0  0  0  0  # atno 17394 bound_to 11000
  140.6894  133.9403  155.7957 LP  0  0  0  0  0  0  0  0  0  0  0  0  # atno 17395 bound_to 11000

$$$$
