AV-unprocessed.smi:107|AV-procd|sdf|1013|dock2
  -GOLD-   2262018 13D 1   1.00000     0.00000
 Structure written by MMmdl.
 31 32  0  0  0  0  0  0  0  0  1 V2000
  150.1088  143.7448  158.6967 C   0  0  0  0  0  0  0  0  0  0  0  0
  151.0688  142.5674  158.6565 C   0  0  0  0  0  0  0  0  0  0  0  0
  150.8533  141.4792  157.8740 C   0  0  0  0  0  0  0  0  0  0  0  0
  151.7105  140.3895  157.8144 N   0  0  0  0  0  0  0  0  0  0  0  0
  151.4086  139.2068  156.9220 C   0  0  2  0  0  0  0  0  0  0  0  0
  152.5506  138.9644  155.9295 C   0  0  0  0  0  0  0  0  0  0  0  0
  151.8024  138.6005  154.6624 C   0  0  1  0  0  0  0  0  0  0  0  0
  151.5363  137.2108  154.6222 O   0  0  0  0  0  0  0  0  0  0  0  0
  150.5218  139.4377  154.7926 C   0  0  1  0  0  0  0  0  0  0  0  0
  149.2925  138.9586  154.0012 C   0  0  0  0  0  0  0  0  0  0  0  0
  148.9887  137.6197  154.3301 O   0  0  0  0  0  0  0  0  0  0  0  0
  150.2467  139.4740  156.1911 O   0  0  0  0  0  0  0  0  0  0  0  0
  152.8913  140.3971  158.5862 C   0  0  0  0  0  0  0  0  0  0  0  0
  153.7141  139.4826  158.5658 O   0  0  0  0  0  0  0  0  0  0  0  0
  153.1117  141.5122  159.3930 N   0  0  0  0  0  0  0  0  0  0  0  0
  152.2700  142.6227  159.4940 C   0  0  0  0  0  0  0  0  0  0  0  0
  152.5725  143.5480  160.2458 O   0  0  0  0  0  0  0  0  0  0  0  0
  153.9540  141.5202  159.9497 H   0  0  0  0  0  0  0  0  0  0  0  0
  149.2540  143.5921  158.0372 H   0  0  0  0  0  0  0  0  0  0  0  0
  150.6142  144.6588  158.3830 H   0  0  0  0  0  0  0  0  0  0  0  0
  149.7285  143.8926  159.7081 H   0  0  0  0  0  0  0  0  0  0  0  0
  149.9651  141.4668  157.2608 H   0  0  0  0  0  0  0  0  0  0  0  0
  151.2003  138.3447  157.5572 H   0  0  0  0  0  0  0  0  0  0  0  0
  153.1085  139.8897  155.7776 H   0  0  0  0  0  0  0  0  0  0  0  0
  153.2364  138.1961  156.2886 H   0  0  0  0  0  0  0  0  0  0  0  0
  152.3679  138.8663  153.7687 H   0  0  0  0  0  0  0  0  0  0  0  0
  150.7056  137.0530  155.0450 H   0  0  0  0  0  0  0  0  0  0  0  0
  150.7537  140.4608  154.4930 H   0  0  0  0  0  0  0  0  0  0  0  0
  148.4239  139.5908  154.1858 H   0  0  0  0  0  0  0  0  0  0  0  0
  149.4984  139.0087  152.9317 H   0  0  0  0  0  0  0  0  0  0  0  0
  148.8323  137.1419  153.5297 H   0  0  0  0  0  0  0  0  0  0  0  0
  1  2  1  0  0  0  0
  1 19  1  0  0  0  0
  1 20  1  0  0  0  0
  1 21  1  0  0  0  0
  2 16  1  0  0  0  0
  2  3  2  0  0  0  0
  3  4  1  0  0  0  0
  3 22  1  0  0  0  0
  4  5  1  0  0  0  0
  4 13  1  0  0  0  0
  5 12  1  0  0  0  0
  5  6  1  0  0  0  0
  5 23  1  0  0  0  0
  6  7  1  0  0  0  0
  6 24  1  0  0  0  0
  6 25  1  0  0  0  0
  7  8  1  0  0  0  0
  7  9  1  0  0  0  0
  7 26  1  0  0  0  0
  8 27  1  0  0  0  0
  9 10  1  0  0  0  0
  9 12  1  0  0  0  0
  9 28  1  0  0  0  0
 10 11  1  0  0  0  0
 10 29  1  0  0  0  0
 10 30  1  0  0  0  0
 11 31  1  0  0  0  0
 13 14  2  0  0  0  0
 13 15  1  0  0  0  0
 15 18  1  0  0  0  0
 15 16  1  0  0  0  0
 16 17  2  0  0  0  0
M  END
> <s_m_source_file>
AV-unprocessed.smi

> <i_m_source_file_index>
107

> <i_lp_mmshare_version>
43012

> <i_f3d_flags>
0

> <s_epik_input>
Tz1jMVtuSF1jKD1PKW4oW2NIXWMxW0NIM10pW0NAQEhdMltDSDJdW0NAQEhdKFtPSF0pW0NASF0oTzIpW0NIMl1bT0hd

> <s_epik_cmdline>
J2VwaWtfcHl0aG9uJywgJy1waCcsICc3LjAnLCAnLXRuJywgJzgnLCAnLW1hJywgJzIwMCcsICctbWV0YWxfYmluZGluZycsICctaW1hZScsICc8aW5maWxlLm1hZT4nLCAnLW9tYWUnLCAnPG91dGZpbGUubWFlPic=

> <r_lp_tautomer_probability>
0.999537

> <r_epik_Ionization_Penalty>
0.00121888

> <r_epik_Ionization_Penalty_Charging>
0.00121876

> <r_epik_Ionization_Penalty_Neutral>
1.19946e-07

> <r_epik_State_Penalty>
0.000805124

> <r_epik_Charging_Adjusted_Penalty>
0.00202389

> <i_epik_Tot_Q>
0

> <i_epik_Tot_abs_Q>
0

> <r_epik_Metal_State_Penalty>
0.662472

> <b_epik_Metal_Only>
0

> <s_epik_Chemistry_Notes>
This compound contains an acetal/aminal-like group ( X-CH(R)-Y where X, Y are N, S, or O) that may be acid/base labile, releasing an aldehyde.

> <s_lp_Force_Field>
OPLS_2005

> <r_lp_Energy>
27.6975

> <b_lp_Chiralities_Consistent>
1

> <s_lp_Variant>
AV-unprocessed.smi:107-1

> <Gold.Version>
5.8.1

> <Gold.Id.Protein>
6NUR|6NUR_protein|mol2

> <Gold.PLP.Fitness>
36.5375

> <Gold.PLP.PLP>
-27.6342

> <Gold.PLP.part.hbond>
-3.0000

> <Gold.PLP.part.metal>
0.0000

> <Gold.PLP.part.buried>
-1.7083

> <Gold.PLP.part.nonpolar>
-22.3183

> <Gold.PLP.part.repulsive>
0.1026

> <Gold.PLP.ligand.clash>
0.0000

> <Gold.PLP.ligand.torsion>
0.0363

> <Gold.PLP.Chemscore.Hbond>
2.9913

> <Gold.PLP.Chemscore.CHOScore>
0.0000

> <Gold.PLP.Chemscore.Metal>
0.0000

> <Gold.Chemscore.Hbonds>
donor molecule, donor type, donor heavy atom, donor atom, acceptor molecule, acceptor atom, score
      L1  H    11    31       P1  7948  1.00
      P1  H  7997  8010       L1    14  1.00
      P1  H 10752 10765       L1     8  0.81

> <Gold.PLP.Chemscore.Internal.Correction>
0.0021

> <Gold.Rescore>
     Score         DG    S(hbond)    S(metal)    S(lipo)     H(rot)  DE(clash)    DE(int)     intcor
     11.69     -13.41       2.67        0.00      51.17       2.73       0.29       1.43       ----

> <Gold.Chemscore.Fitness>
11.6907

> <Gold.Chemscore.DG>
-13.4059

> <Gold.Chemscore.ZeroCoef>
-5.4800

> <Gold.Chemscore.Hbond>
2.6694

> <Gold.Chemscore.Metal>
0.0000

> <Gold.Chemscore.Lipo>
51.1708

> <Gold.Chemscore.Internal_Hbond>
0.0000

> <Gold.Chemscore.DEClash>
0.2898

> <Gold.Chemscore.DEInternal>
1.4254

> <Gold.Chemscore.Rot>
2.7253

> <Gold.Chemscore.Internal.Correction>
   9.000000E+99

> <Gold.Chemscore.Hbonds>
donor molecule, donor type, donor heavy atom, donor atom, acceptor molecule, acceptor atom, score
      L1  H    11    31       P1  7948  1.00
      P1  H  7997  8010       L1    14  0.44
      P1  H 10752 10765       L1     8  0.78

> <Gold.Chemscore.Hbond.Weighted>
-8.9158

> <Gold.Chemscore.Metal.Weighted>
-0.0000

> <Gold.Chemscore.Lipo.Weighted>
-5.9870

> <Gold.Chemscore.Internal_Hbond.Weighted>
0.0000

> <Gold.Chemscore.DEClash.Weighted>
0.2898

> <Gold.Chemscore.DEInternal.Weighted>
1.4254

> <Gold.Chemscore.Rot.Weighted>
6.9769

> <Gold.Chemscore.Internal.Correction.Weighted>
   9.000000E+99

> <Gold.Protein.RotatedTorsions>
[ 6907 6896 6895 6894 ] final  106.98 input  -60.11 | X-H torsion
[ 7974 7965 7964 7962 ] final -113.07 input  175.53 | X-H torsion
[ 8008 7997 7996 7995 ] final    6.64 input   59.86 | X-H torsion
[ 10167 10162 10161 10158 ] final  -60.34 input  -65.29 | X-H torsion
[ 10718 10713 10712 10709 ] final  118.93 input   66.30 | X-H torsion
[ 10763 10752 10751 10750 ] final  167.82 input  -60.55 | X-H torsion
[ 11005 11000 10999 10996 ] final  109.32 input  -57.11 | X-H torsion

> <Gold.Protein.ActiveResidues>
 VAL166  LYS551  ARG553  GLY616  TRP617  ASP618  TYR619  PRO620  LYS621  CYS622 
 ASP623  PHE694  ASN695  SER759  ASP760  ASP761  ALA762  ILE779  LEU786  VAL792 
 PHE793  MET794  SER795  GLU796  ALA797  LYS798  CYS799  TRP800  GLU811  SER814 

> <Gold.Protein.RotatedAtoms>
  152.5172  133.9301  159.7576 H   0  0  0  0  0  0  0  0  0  0  0  0  # atno 6907 bound_to 6896
  150.9653  133.6393  159.2754 H   0  0  0  0  0  0  0  0  0  0  0  0  # atno 6908 bound_to 6896
  151.3623  135.0912  159.9491 H   0  0  0  0  0  0  0  0  0  0  0  0  # atno 6909 bound_to 6896
  145.1365  140.8754  143.3727 H   0  0  0  0  0  0  0  0  0  0  0  0  # atno 7974 bound_to 7965
  154.7437  140.2753  155.6351 H   0  0  0  0  0  0  0  0  0  0  0  0  # atno 8008 bound_to 7997
  156.2879  140.2692  156.2097 H   0  0  0  0  0  0  0  0  0  0  0  0  # atno 8009 bound_to 7997
  155.0226  140.0371  157.2433 H   0  0  0  0  0  0  0  0  0  0  0  0  # atno 8010 bound_to 7997
  140.6077  143.2378  151.5782 H   0  0  0  0  0  0  0  0  0  0  0  0  # atno 10167 bound_to 10162
  157.5997  131.1053  150.7824 H   0  0  0  0  0  0  0  0  0  0  0  0  # atno 10718 bound_to 10713
  154.3595  135.2753  155.2328 H   0  0  0  0  0  0  0  0  0  0  0  0  # atno 10763 bound_to 10752
  154.4522  135.5928  153.6203 H   0  0  0  0  0  0  0  0  0  0  0  0  # atno 10764 bound_to 10752
  152.9844  135.6044  154.3814 H   0  0  0  0  0  0  0  0  0  0  0  0  # atno 10765 bound_to 10752
  139.8860  134.9455  156.6107 H   0  0  0  0  0  0  0  0  0  0  0  0  # atno 11005 bound_to 11000
  145.0579  139.3129  143.5895 LP  0  0  0  0  0  0  0  0  0  0  0  0  # atno 17320 bound_to 7965
  146.3509  140.0010  142.8676 LP  0  0  0  0  0  0  0  0  0  0  0  0  # atno 17321 bound_to 7965
  139.5337  144.2841  152.1206 LP  0  0  0  0  0  0  0  0  0  0  0  0  # atno 17342 bound_to 10162
  140.2034  144.4635  150.6420 LP  0  0  0  0  0  0  0  0  0  0  0  0  # atno 17343 bound_to 10162
  156.8226  130.4989  149.5341 LP  0  0  0  0  0  0  0  0  0  0  0  0  # atno 17370 bound_to 10713
  156.1067  130.6010  150.9982 LP  0  0  0  0  0  0  0  0  0  0  0  0  # atno 17371 bound_to 10713
  140.7814  133.8657  155.8570 LP  0  0  0  0  0  0  0  0  0  0  0  0  # atno 17394 bound_to 11000
  140.9757  134.1472  157.4538 LP  0  0  0  0  0  0  0  0  0  0  0  0  # atno 17395 bound_to 11000

$$$$
