AV-unprocessed.smi:2013|AV-procd|sdf|8160|dock3
  -GOLD-   2272010403D 1   1.00000     0.00000
 Structure written by MMmdl.
 50 51  0  0  0  0  0  0  0  0  1 V2000
  152.7181  138.5068  154.5575 C   0  0  0  0  0  0  0  0  0  0  0  0
  151.4369  139.3403  154.7625 C   0  0  0  0  0  0  0  0  0  0  0  0
  151.2736  139.7561  156.2346 C   0  0  0  0  0  0  0  0  0  0  0  0
  150.1173  138.7652  154.1538 C   0  0  1  0  0  0  0  0  0  0  0  0
  149.5679  137.5199  154.9081 C   0  0  0  0  0  0  0  0  0  0  0  0
  150.0111  136.2624  154.3156 N   0  0  0  0  0  0  0  0  0  0  0  0
  149.5529  135.0490  154.6565 C   0  0  0  0  0  0  0  0  0  0  0  0
  148.7411  134.8630  155.5640 O   0  0  0  0  0  0  0  0  0  0  0  0
  150.1028  133.8652  153.8517 C   0  0  0  0  0  0  0  0  0  0  0  0
  149.0341  133.0409  153.2742 N   0  0  0  0  0  0  0  0  0  0  0  0
  147.9870  133.6444  152.6020 C   0  0  0  0  0  0  0  0  0  0  0  0
  146.9790  132.9562  152.0229 C   0  0  0  0  0  0  0  0  0  0  0  0
  146.9373  131.4997  152.0773 C   0  0  0  0  0  0  0  0  0  0  0  0
  146.0449  130.8355  151.5491 O   0  0  0  0  0  0  0  0  0  0  0  0
  148.0143  130.9088  152.7811 N   0  0  0  0  0  0  0  0  0  0  0  0
  148.0799  129.4655  152.8822 C   0  0  0  0  0  0  0  0  0  0  0  0
  149.0702  131.6333  153.3760 C   0  0  0  0  0  0  0  0  0  0  0  0
  149.9984  131.0677  153.9599 O   0  0  0  0  0  0  0  0  0  0  0  0
  149.0986  139.7743  153.8026 N   0  0  0  0  0  0  0  0  0  0  0  0
  147.8347  139.1831  153.3667 C   0  0  0  0  0  0  0  0  0  0  0  0
  146.8438  140.2524  152.8779 C   0  0  0  0  0  0  0  0  0  0  0  0
  146.6261  141.2058  153.9124 O   0  0  0  0  0  0  0  0  0  0  0  0
  147.8286  141.8415  154.3332 C   0  0  0  0  0  0  0  0  0  0  0  0
  148.8336  140.7851  154.8248 C   0  0  0  0  0  0  0  0  0  0  0  0
  152.7437  137.6123  155.1752 H   0  0  0  0  0  0  0  0  0  0  0  0
  153.5942  139.0945  154.8328 H   0  0  0  0  0  0  0  0  0  0  0  0
  152.8569  138.2081  153.5194 H   0  0  0  0  0  0  0  0  0  0  0  0
  151.6233  140.2719  154.2268 H   0  0  0  0  0  0  0  0  0  0  0  0
  151.1374  138.8898  156.8827 H   0  0  0  0  0  0  0  0  0  0  0  0
  150.4111  140.4104  156.3648 H   0  0  0  0  0  0  0  0  0  0  0  0
  152.1517  140.2967  156.5889 H   0  0  0  0  0  0  0  0  0  0  0  0
  150.4578  138.3750  153.1934 H   0  0  0  0  0  0  0  0  0  0  0  0
  149.8906  137.5257  155.9488 H   0  0  0  0  0  0  0  0  0  0  0  0
  148.4782  137.5223  154.9340 H   0  0  0  0  0  0  0  0  0  0  0  0
  150.6830  136.3237  153.5642 H   0  0  0  0  0  0  0  0  0  0  0  0
  150.7668  134.2204  153.0613 H   0  0  0  0  0  0  0  0  0  0  0  0
  150.7258  133.2636  154.5144 H   0  0  0  0  0  0  0  0  0  0  0  0
  147.9749  134.7223  152.5285 H   0  0  0  0  0  0  0  0  0  0  0  0
  146.1941  133.4907  151.5082 H   0  0  0  0  0  0  0  0  0  0  0  0
  148.2751  129.2106  153.9256 H   0  0  0  0  0  0  0  0  0  0  0  0
  148.8932  129.1384  152.2324 H   0  0  0  0  0  0  0  0  0  0  0  0
  147.1380  129.0078  152.5809 H   0  0  0  0  0  0  0  0  0  0  0  0
  148.0145  138.4683  152.5632 H   0  0  0  0  0  0  0  0  0  0  0  0
  147.3733  138.6282  154.1834 H   0  0  0  0  0  0  0  0  0  0  0  0
  147.2230  140.7522  151.9854 H   0  0  0  0  0  0  0  0  0  0  0  0
  145.8923  139.7935  152.6088 H   0  0  0  0  0  0  0  0  0  0  0  0
  148.2498  142.4186  153.5086 H   0  0  0  0  0  0  0  0  0  0  0  0
  147.5987  142.5462  155.1322 H   0  0  0  0  0  0  0  0  0  0  0  0
  148.4395  140.3147  155.7260 H   0  0  0  0  0  0  0  0  0  0  0  0
  149.7480  141.2959  155.1080 H   0  0  0  0  0  0  0  0  0  0  0  0
  1  2  1  0  0  0  0
  1 25  1  0  0  0  0
  1 26  1  0  0  0  0
  1 27  1  0  0  0  0
  2  3  1  0  0  0  0
  2  4  1  0  0  0  0
  2 28  1  0  0  0  0
  3 29  1  0  0  0  0
  3 30  1  0  0  0  0
  3 31  1  0  0  0  0
  4  5  1  0  0  0  0
  4 19  1  0  0  0  0
  4 32  1  0  0  0  0
  5  6  1  0  0  0  0
  5 33  1  0  0  0  0
  5 34  1  0  0  0  0
  6  7  1  0  0  0  0
  6 35  1  0  0  0  0
  7  8  2  0  0  0  0
  7  9  1  0  0  0  0
  9 10  1  0  0  0  0
  9 36  1  0  0  0  0
  9 37  1  0  0  0  0
 10 17  1  0  0  0  0
 10 11  1  0  0  0  0
 11 12  2  0  0  0  0
 11 38  1  0  0  0  0
 12 13  1  0  0  0  0
 12 39  1  0  0  0  0
 13 14  2  0  0  0  0
 13 15  1  0  0  0  0
 15 16  1  0  0  0  0
 15 17  1  0  0  0  0
 16 40  1  0  0  0  0
 16 41  1  0  0  0  0
 16 42  1  0  0  0  0
 17 18  2  0  0  0  0
 19 24  1  0  0  0  0
 19 20  1  0  0  0  0
 20 21  1  0  0  0  0
 20 43  1  0  0  0  0
 20 44  1  0  0  0  0
 21 22  1  0  0  0  0
 21 45  1  0  0  0  0
 21 46  1  0  0  0  0
 22 23  1  0  0  0  0
 23 24  1  0  0  0  0
 23 47  1  0  0  0  0
 23 48  1  0  0  0  0
 24 49  1  0  0  0  0
 24 50  1  0  0  0  0
M  END
> <s_m_source_file>
AV-unprocessed.smi

> <i_m_source_file_index>
2013

> <i_lp_mmshare_version>
43012

> <i_f3d_flags>
0

> <s_epik_input>
W0NIMl0xW0NIMl1PW0NIMl1bQ0gyXU4xW0NASF0oW0NIXShbQ0gzXSlbQ0gzXSlbQ0gyXVtOSF1DKD1PKVtDSDJdbjJbY0hdW2NIXWMoPU8pbihbQ0gzXSljMj1P

> <s_epik_cmdline>
J2VwaWtfcHl0aG9uJywgJy1waCcsICc3LjAnLCAnLXRuJywgJzgnLCAnLW1hJywgJzIwMCcsICctbWV0YWxfYmluZGluZycsICctaW1hZScsICc8aW5maWxlLm1hZT4nLCAnLW9tYWUnLCAnPG91dGZpbGUubWFlPic=

> <r_lp_tautomer_probability>
1

> <r_epik_Ionization_Penalty>
0.45351

> <r_epik_Ionization_Penalty_Charging>
1.24653e-08

> <r_epik_Ionization_Penalty_Neutral>
0.45351

> <r_epik_State_Penalty>
0.456487

> <r_epik_Charging_Adjusted_Penalty>
0.456487

> <i_epik_Tot_Q>
0

> <i_epik_Tot_abs_Q>
0

> <r_epik_Metal_State_Penalty>
0.456449

> <b_epik_Metal_Only>
0

> <s_lp_Force_Field>
OPLS_2005

> <r_lp_Energy>
45.5307

> <b_lp_Chiralities_Consistent>
1

> <s_lp_Variant>
AV-unprocessed.smi:2013-4

> <Gold.Version>
5.8.1

> <Gold.Id.Protein>
6NUR|6NUR_protein|mol2

> <Gold.PLP.Fitness>
39.5051

> <Gold.PLP.PLP>
-38.6240

> <Gold.PLP.part.hbond>
-1.0000

> <Gold.PLP.part.metal>
0.0000

> <Gold.PLP.part.buried>
-2.6867

> <Gold.PLP.part.nonpolar>
-37.5001

> <Gold.PLP.part.repulsive>
2.4798

> <Gold.PLP.ligand.clash>
0.0018

> <Gold.PLP.ligand.torsion>
1.3782

> <Gold.PLP.Chemscore.Hbond>
0.0000

> <Gold.PLP.Chemscore.CHOScore>
1.0000

> <Gold.PLP.Chemscore.Metal>
0.0000

> <Gold.Chemscore.Hbonds>
donor molecule, donor type, donor heavy atom, donor atom, acceptor molecule, acceptor atom, score
      L1  H     6    35       P1  7949  0.37
      L1  C    11    38       P1  7948  0.62

> <Gold.PLP.Chemscore.Internal.Correction>
0.6393

> <Gold.Rescore>
     Score         DG    S(hbond)    S(metal)    S(lipo)     H(rot)  DE(clash)    DE(int)     intcor
      7.26      -8.85       0.00        0.00      77.01       2.20       0.09       1.50       ----

> <Gold.Chemscore.Fitness>
7.2596

> <Gold.Chemscore.DG>
-8.8477

> <Gold.Chemscore.ZeroCoef>
-5.4800

> <Gold.Chemscore.Hbond>
0.0000

> <Gold.Chemscore.Metal>
0.0000

> <Gold.Chemscore.Lipo>
77.0055

> <Gold.Chemscore.Internal_Hbond>
0.0000

> <Gold.Chemscore.DEClash>
0.0924

> <Gold.Chemscore.DEInternal>
1.4957

> <Gold.Chemscore.Rot>
2.2039

> <Gold.Chemscore.Internal.Correction>
   9.000000E+99

> <Gold.Chemscore.Hbonds>
donor molecule, donor type, donor heavy atom, donor atom, acceptor molecule, acceptor atom, score
      L1  H     6    35       P1  7949  0.02

> <Gold.Chemscore.Hbond.Weighted>
-0.0000

> <Gold.Chemscore.Metal.Weighted>
-0.0000

> <Gold.Chemscore.Lipo.Weighted>
-9.0096

> <Gold.Chemscore.Internal_Hbond.Weighted>
0.0000

> <Gold.Chemscore.DEClash.Weighted>
0.0924

> <Gold.Chemscore.DEInternal.Weighted>
1.4957

> <Gold.Chemscore.Rot.Weighted>
5.6420

> <Gold.Chemscore.Internal.Correction.Weighted>
   9.000000E+99

> <Gold.Protein.RotatedTorsions>
[ 6907 6896 6895 6894 ] final -179.70 input  -60.11 | X-H torsion
[ 7974 7965 7964 7962 ] final -112.60 input  175.53 | X-H torsion
[ 8008 7997 7996 7995 ] final  -11.94 input   59.86 | X-H torsion
[ 10167 10162 10161 10158 ] final  122.04 input  -65.29 | X-H torsion
[ 10718 10713 10712 10709 ] final  -81.26 input   66.30 | X-H torsion
[ 10763 10752 10751 10750 ] final  158.27 input  -60.55 | X-H torsion
[ 11005 11000 10999 10996 ] final  100.84 input  -57.11 | X-H torsion

> <Gold.Protein.ActiveResidues>
 VAL166  LYS551  ARG553  GLY616  TRP617  ASP618  TYR619  PRO620  LYS621  CYS622 
 ASP623  PHE694  ASN695  SER759  ASP760  ASP761  ALA762  ILE779  LEU786  VAL792 
 PHE793  MET794  SER795  GLU796  ALA797  LYS798  CYS799  TRP800  GLU811  SER814 

> <Gold.Protein.RotatedAtoms>
  151.6577  133.3318  159.3166 H   0  0  0  0  0  0  0  0  0  0  0  0  # atno 6907 bound_to 6896
  150.7929  134.6970  159.6538 H   0  0  0  0  0  0  0  0  0  0  0  0  # atno 6908 bound_to 6896
  152.4011  134.6288  160.0121 H   0  0  0  0  0  0  0  0  0  0  0  0  # atno 6909 bound_to 6896
  145.1421  140.8783  143.3696 H   0  0  0  0  0  0  0  0  0  0  0  0  # atno 7974 bound_to 7965
  154.5420  140.2289  155.8625 H   0  0  0  0  0  0  0  0  0  0  0  0  # atno 8008 bound_to 7997
  156.1867  140.3087  155.9215 H   0  0  0  0  0  0  0  0  0  0  0  0  # atno 8009 bound_to 7997
  155.3238  140.0442  157.3031 H   0  0  0  0  0  0  0  0  0  0  0  0  # atno 8010 bound_to 7997
  139.5883  144.7015  151.3354 H   0  0  0  0  0  0  0  0  0  0  0  0  # atno 10167 bound_to 10162
  156.0054  130.4598  150.3926 H   0  0  0  0  0  0  0  0  0  0  0  0  # atno 10718 bound_to 10713
  154.2134  135.2785  155.2950 H   0  0  0  0  0  0  0  0  0  0  0  0  # atno 10763 bound_to 10752
  154.5760  135.5604  153.7143 H   0  0  0  0  0  0  0  0  0  0  0  0  # atno 10764 bound_to 10752
  153.0059  135.6333  154.2273 H   0  0  0  0  0  0  0  0  0  0  0  0  # atno 10765 bound_to 10752
  139.8772  134.9157  156.4816 H   0  0  0  0  0  0  0  0  0  0  0  0  # atno 11005 bound_to 11000
  145.0521  139.3173  143.5923 LP  0  0  0  0  0  0  0  0  0  0  0  0  # atno 17320 bound_to 7965
  146.3504  139.9933  142.8683 LP  0  0  0  0  0  0  0  0  0  0  0  0  # atno 17321 bound_to 7965
  140.7151  143.7289  150.7639 LP  0  0  0  0  0  0  0  0  0  0  0  0  # atno 17342 bound_to 10162
  140.0838  143.4943  152.2515 LP  0  0  0  0  0  0  0  0  0  0  0  0  # atno 17343 bound_to 10162
  157.1999  131.0435  151.2656 LP  0  0  0  0  0  0  0  0  0  0  0  0  # atno 17370 bound_to 10713
  157.3985  130.7320  149.6749 LP  0  0  0  0  0  0  0  0  0  0  0  0  # atno 17371 bound_to 10713
  140.8723  133.7979  155.9377 LP  0  0  0  0  0  0  0  0  0  0  0  0  # atno 17394 bound_to 11000
  140.8940  134.2460  157.5079 LP  0  0  0  0  0  0  0  0  0  0  0  0  # atno 17395 bound_to 11000

$$$$
