AV-unprocessed.smi:1033|AV-procd|sdf|4500|dock1
  -GOLD-   22720 2493D 1   1.00000     0.00000
 Structure written by MMmdl.
 57 59  0  0  0  0  0  0  0  0  3 V2000
  152.2617  143.7345  160.9509 C   0  0  0  0  0  0  0  0  0  0  0  0
  152.0659  142.8668  159.7192 C   0  0  0  0  0  0  0  0  0  0  0  0
  151.2021  143.3272  158.7001 C   0  0  0  0  0  0  0  0  0  0  0  0
  151.0421  142.5104  157.5871 C   0  0  0  0  0  0  0  0  0  0  0  0
  150.2728  142.6779  156.4340 N   0  3  0  0  0  0  0  0  0  0  0  0
  150.4389  141.6021  155.6161 C   0  0  0  0  0  0  0  0  0  0  0  0
  151.3018  140.7475  156.2307 N   0  0  0  0  0  0  0  0  0  0  0  0
  151.8205  139.4500  155.7727 C   0  0  0  0  0  0  0  0  0  0  0  0
  150.8506  138.2835  156.0462 C   0  0  2  0  0  0  0  0  0  0  0  0
  151.4818  137.3273  156.8754 O   0  0  0  0  0  0  0  0  0  0  0  0
  150.4140  137.5917  154.7390 C   0  0  0  0  0  0  0  0  0  0  0  0
  149.0698  138.0224  154.2766 N   0  3  0  0  0  0  0  0  0  0  0  0
  149.0463  139.4490  153.8611 C   0  0  0  0  0  0  0  0  0  0  0  0
  147.6512  139.8344  153.3269 C   0  0  0  0  0  0  0  0  0  0  0  0
  146.5759  139.5850  154.2864 N   0  0  0  0  0  0  0  0  0  0  0  0
  146.5867  140.5330  155.4103 C   0  0  0  0  0  0  0  0  0  0  0  0
  146.1741  141.9890  155.0960 C   0  0  1  0  0  0  0  0  0  0  0  0
  147.0553  142.6945  154.0535 C   0  0  0  0  0  0  0  0  0  0  0  0
  144.8135  142.0540  154.7203 O   0  0  0  0  0  0  0  0  0  0  0  0
  146.6210  138.1723  154.6712 C   0  0  0  0  0  0  0  0  0  0  0  0
  147.9823  137.7416  155.2520 C   0  0  0  0  0  0  0  0  0  0  0  0
  151.7066  141.2742  157.4638 C   0  0  0  0  0  0  0  0  0  0  0  0
  152.5614  140.8062  158.4595 C   0  0  0  0  0  0  0  0  0  0  0  0
  152.7369  141.6221  159.6002 C   0  0  0  0  0  0  0  0  0  0  0  0
  153.6620  141.1362  160.7031 C   0  0  0  0  0  0  0  0  0  0  0  0
  151.6605  144.6428  160.8988 H   0  0  0  0  0  0  0  0  0  0  0  0
  153.3062  144.0315  161.0478 H   0  0  0  0  0  0  0  0  0  0  0  0
  151.9699  143.1941  161.8516 H   0  0  0  0  0  0  0  0  0  0  0  0
  150.6883  144.2739  158.7836 H   0  0  0  0  0  0  0  0  0  0  0  0
  149.9719  141.4559  154.6524 H   0  0  0  0  0  0  0  0  0  0  0  0
  151.9953  139.5402  154.6997 H   0  0  0  0  0  0  0  0  0  0  0  0
  152.7970  139.2716  156.2240 H   0  0  0  0  0  0  0  0  0  0  0  0
  149.9844  138.6757  156.5782 H   0  0  0  0  0  0  0  0  0  0  0  0
  151.8407  137.7722  157.6284 H   0  0  0  0  0  0  0  0  0  0  0  0
  151.1405  137.7769  153.9465 H   0  0  0  0  0  0  0  0  0  0  0  0
  150.4137  136.5128  154.9040 H   0  0  0  0  0  0  0  0  0  0  0  0
  149.3331  140.0857  154.6990 H   0  0  0  0  0  0  0  0  0  0  0  0
  149.7862  139.6118  153.0766 H   0  0  0  0  0  0  0  0  0  0  0  0
  147.6457  140.8829  153.0273 H   0  0  0  0  0  0  0  0  0  0  0  0
  147.4533  139.2662  152.4169 H   0  0  0  0  0  0  0  0  0  0  0  0
  145.9953  140.1573  156.2452 H   0  0  0  0  0  0  0  0  0  0  0  0
  147.6092  140.5812  155.7870 H   0  0  0  0  0  0  0  0  0  0  0  0
  146.2456  142.5546  156.0255 H   0  0  0  0  0  0  0  0  0  0  0  0
  148.1050  142.6648  154.3467 H   0  0  0  0  0  0  0  0  0  0  0  0
  146.7721  143.7424  153.9487 H   0  0  0  0  0  0  0  0  0  0  0  0
  146.9704  142.2322  153.0697 H   0  0  0  0  0  0  0  0  0  0  0  0
  144.7434  141.8353  153.8036 H   0  0  0  0  0  0  0  0  0  0  0  0
  145.8234  137.9409  155.3751 H   0  0  0  0  0  0  0  0  0  0  0  0
  146.4100  137.5623  153.7915 H   0  0  0  0  0  0  0  0  0  0  0  0
  147.9434  136.6767  155.4775 H   0  0  0  0  0  0  0  0  0  0  0  0
  148.1810  138.2528  156.1946 H   0  0  0  0  0  0  0  0  0  0  0  0
  153.0706  139.8578  158.3738 H   0  0  0  0  0  0  0  0  0  0  0  0
  154.1167  140.1779  160.4500 H   0  0  0  0  0  0  0  0  0  0  0  0
  153.1113  141.0079  161.6351 H   0  0  0  0  0  0  0  0  0  0  0  0
  154.4674  141.8515  160.8713 H   0  0  0  0  0  0  0  0  0  0  0  0
  148.8670  137.4850  153.4454 H   0  0  0  0  0  0  0  0  0  0  0  0
  149.6801  143.4692  156.2170 H   0  0  0  0  0  0  0  0  0  0  0  0
  1  2  1  0  0  0  0
  1 26  1  0  0  0  0
  1 27  1  0  0  0  0
  1 28  1  0  0  0  0
  2 24  1  0  0  0  0
  2  3  2  0  0  0  0
  3  4  1  0  0  0  0
  3 29  1  0  0  0  0
  4 22  2  0  0  0  0
  4  5  1  0  0  0  0
  5  6  2  0  0  0  0
  5 57  1  0  0  0  0
  6  7  1  0  0  0  0
  6 30  1  0  0  0  0
  7  8  1  0  0  0  0
  7 22  1  0  0  0  0
  8  9  1  0  0  0  0
  8 31  1  0  0  0  0
  8 32  1  0  0  0  0
  9 10  1  0  0  0  0
  9 11  1  0  0  0  0
  9 33  1  0  0  0  0
 10 34  1  0  0  0  0
 11 12  1  0  0  0  0
 11 35  1  0  0  0  0
 11 36  1  0  0  0  0
 12 21  1  0  0  0  0
 12 13  1  0  0  0  0
 12 56  1  0  0  0  0
 13 14  1  0  0  0  0
 13 37  1  0  0  0  0
 13 38  1  0  0  0  0
 14 15  1  0  0  0  0
 14 39  1  0  0  0  0
 14 40  1  0  0  0  0
 15 16  1  0  0  0  0
 15 20  1  0  0  0  0
 16 17  1  0  0  0  0
 16 41  1  0  0  0  0
 16 42  1  0  0  0  0
 17 18  1  0  0  0  0
 17 19  1  0  0  0  0
 17 43  1  0  0  0  0
 18 44  1  0  0  0  0
 18 45  1  0  0  0  0
 18 46  1  0  0  0  0
 19 47  1  0  0  0  0
 20 21  1  0  0  0  0
 20 48  1  0  0  0  0
 20 49  1  0  0  0  0
 21 50  1  0  0  0  0
 21 51  1  0  0  0  0
 22 23  1  0  0  0  0
 23 24  2  0  0  0  0
 23 52  1  0  0  0  0
 24 25  1  0  0  0  0
 25 53  1  0  0  0  0
 25 54  1  0  0  0  0
 25 55  1  0  0  0  0
M  CHG  1   5   1
M  CHG  1  12   1
M  END
> <s_m_source_file>
AV-unprocessed.smi

> <i_m_source_file_index>
1033

> <i_lp_mmshare_version>
43012

> <i_f3d_flags>
0

> <s_epik_input>
W0NIM11jKFtjSF0xKWMoW0NIM10pW2NIXWMoYzEyKW4oW2NIXW4yKVtDSDJdW0NASF0oW09IXSlbQ0gyXU4zW0NIMl1bQ0gyXU4oW0NIMl1bQ0gyXTMpW0NIMl1bQ0BIXShbQ0gzXSlbT0hd

> <s_epik_cmdline>
J2VwaWtfcHl0aG9uJywgJy1waCcsICc3LjAnLCAnLXRuJywgJzgnLCAnLW1hJywgJzIwMCcsICctbWV0YWxfYmluZGluZycsICctaW1hZScsICc8aW5maWxlLm1hZT4nLCAnLW9tYWUnLCAnPG91dGZpbGUubWFlPic=

> <r_epik_Ionization_Penalty>
1.22049

> <r_epik_Ionization_Penalty_Charging>
1.17952

> <r_epik_Ionization_Penalty_Neutral>
0.0409743

> <r_epik_State_Penalty>
1.61468

> <r_epik_Charging_Adjusted_Penalty>
2.7942

> <i_epik_Tot_Q>
2

> <i_epik_Tot_abs_Q>
2

> <r_epik_Metal_State_Penalty>
5.63169

> <b_epik_Metal_Only>
0

> <s_lp_Force_Field>
OPLS_2005

> <r_lp_Energy>
46.6999

> <b_lp_Chiralities_Consistent>
1

> <s_lp_Variant>
AV-unprocessed.smi:1033-11

> <Gold.Version>
5.8.1

> <Gold.Id.Protein>
6NUR|6NUR_protein|mol2

> <Gold.PLP.Fitness>
56.3743

> <Gold.PLP.PLP>
-44.2800

> <Gold.PLP.part.hbond>
-2.9273

> <Gold.PLP.part.metal>
0.0000

> <Gold.PLP.part.buried>
-4.2424

> <Gold.PLP.part.nonpolar>
-37.5292

> <Gold.PLP.part.repulsive>
0.1785

> <Gold.PLP.ligand.clash>
0.0000

> <Gold.PLP.ligand.torsion>
1.7430

> <Gold.PLP.Chemscore.Hbond>
5.0000

> <Gold.PLP.Chemscore.CHOScore>
0.0000

> <Gold.PLP.Chemscore.Metal>
0.0000

> <Gold.Chemscore.Hbonds>
donor molecule, donor type, donor heavy atom, donor atom, acceptor molecule, acceptor atom, score
      L1  H     5    57       P1  8028  2.00
      L1  H    12    56       P1  7948  2.00
      L1  H    19    47       P1 10175  0.30

> <Gold.PLP.Chemscore.Internal.Correction>
0.5803

> <Gold.Rescore>
     Score         DG    S(hbond)    S(metal)    S(lipo)     H(rot)  DE(clash)    DE(int)     intcor
     19.12     -21.03       2.95        0.00     117.44       3.15       0.01       1.89       ----

> <Gold.Chemscore.Fitness>
19.1241

> <Gold.Chemscore.DG>
-21.0266

> <Gold.Chemscore.ZeroCoef>
-5.4800

> <Gold.Chemscore.Hbond>
2.9537

> <Gold.Chemscore.Metal>
0.0000

> <Gold.Chemscore.Lipo>
117.4447

> <Gold.Chemscore.Internal_Hbond>
0.0000

> <Gold.Chemscore.DEClash>
0.0098

> <Gold.Chemscore.DEInternal>
1.8927

> <Gold.Chemscore.Rot>
3.1483

> <Gold.Chemscore.Internal.Correction>
   9.000000E+99

> <Gold.Chemscore.Hbonds>
donor molecule, donor type, donor heavy atom, donor atom, acceptor molecule, acceptor atom, score
      L1  H     5    57       P1  8028  0.98
      L1  H    12    56       P1  7948  0.96
      L1  H    19    47       P1 10175  0.01

> <Gold.Chemscore.Hbond.Weighted>
-9.8653

> <Gold.Chemscore.Metal.Weighted>
-0.0000

> <Gold.Chemscore.Lipo.Weighted>
-13.7410

> <Gold.Chemscore.Internal_Hbond.Weighted>
0.0000

> <Gold.Chemscore.DEClash.Weighted>
0.0098

> <Gold.Chemscore.DEInternal.Weighted>
1.8927

> <Gold.Chemscore.Rot.Weighted>
8.0597

> <Gold.Chemscore.Internal.Correction.Weighted>
   9.000000E+99

> <Gold.Protein.RotatedTorsions>
[ 6907 6896 6895 6894 ] final  115.42 input  -60.11 | X-H torsion
[ 7974 7965 7964 7962 ] final -128.68 input  175.53 | X-H torsion
[ 8008 7997 7996 7995 ] final -158.83 input   59.86 | X-H torsion
[ 10167 10162 10161 10158 ] final -179.66 input  -65.29 | X-H torsion
[ 10718 10713 10712 10709 ] final   -4.16 input   66.30 | X-H torsion
[ 10763 10752 10751 10750 ] final  114.60 input  -60.55 | X-H torsion
[ 11005 11000 10999 10996 ] final  112.95 input  -57.11 | X-H torsion

> <Gold.Protein.ActiveResidues>
 VAL166  LYS551  ARG553  GLY616  TRP617  ASP618  TYR619  PRO620  LYS621  CYS622 
 ASP623  PHE694  ASN695  SER759  ASP760  ASP761  ALA762  ILE779  LEU786  VAL792 
 PHE793  MET794  SER795  GLU796  ALA797  LYS798  CYS799  TRP800  GLU811  SER814 

> <Gold.Protein.RotatedAtoms>
  152.4742  133.8100  159.6998 H   0  0  0  0  0  0  0  0  0  0  0  0  # atno 6907 bound_to 6896
  150.8749  133.7443  159.2956 H   0  0  0  0  0  0  0  0  0  0  0  0  # atno 6908 bound_to 6896
  151.4966  135.1063  159.9870 H   0  0  0  0  0  0  0  0  0  0  0  0  # atno 6909 bound_to 6896
  144.9646  140.7483  143.4708 H   0  0  0  0  0  0  0  0  0  0  0  0  # atno 7974 bound_to 7965
  155.7534  140.0829  157.2190 H   0  0  0  0  0  0  0  0  0  0  0  0  # atno 8008 bound_to 7997
  154.4010  140.1556  156.2806 H   0  0  0  0  0  0  0  0  0  0  0  0  # atno 8009 bound_to 7997
  155.8909  140.3415  155.5958 H   0  0  0  0  0  0  0  0  0  0  0  0  # atno 8010 bound_to 7997
  139.5376  144.2453  152.0827 H   0  0  0  0  0  0  0  0  0  0  0  0  # atno 10167 bound_to 10162
  156.7654  130.5283  149.5777 H   0  0  0  0  0  0  0  0  0  0  0  0  # atno 10718 bound_to 10713
  153.5097  135.3620  155.2580 H   0  0  0  0  0  0  0  0  0  0  0  0  # atno 10763 bound_to 10752
  154.8743  135.4019  154.3383 H   0  0  0  0  0  0  0  0  0  0  0  0  # atno 10764 bound_to 10752
  153.4034  135.7075  153.6476 H   0  0  0  0  0  0  0  0  0  0  0  0  # atno 10765 bound_to 10752
  139.8940  134.9540  156.6664 H   0  0  0  0  0  0  0  0  0  0  0  0  # atno 11005 bound_to 11000
  145.2648  139.1978  143.4872 LP  0  0  0  0  0  0  0  0  0  0  0  0  # atno 17320 bound_to 7965
  146.3364  140.2585  142.8601 LP  0  0  0  0  0  0  0  0  0  0  0  0  # atno 17321 bound_to 7965
  140.1926  144.4736  150.6471 LP  0  0  0  0  0  0  0  0  0  0  0  0  # atno 17342 bound_to 10162
  140.6590  143.2246  151.5900 LP  0  0  0  0  0  0  0  0  0  0  0  0  # atno 17343 bound_to 10162
  156.1312  130.6179  151.0336 LP  0  0  0  0  0  0  0  0  0  0  0  0  # atno 17370 bound_to 10713
  157.6716  131.0860  150.7599 LP  0  0  0  0  0  0  0  0  0  0  0  0  # atno 17371 bound_to 10713
  140.7407  133.8980  155.8276 LP  0  0  0  0  0  0  0  0  0  0  0  0  # atno 17394 bound_to 11000
  141.0080  134.1060  157.4251 LP  0  0  0  0  0  0  0  0  0  0  0  0  # atno 17395 bound_to 11000

$$$$
