AV-unprocessed.smi:2715|AV-procd|sdf|10482|dock7
  -GOLD-   2272014523D 1   1.00000     0.00000
 Structure written by MMmdl.
 38 39  0  0  0  0  0  0  0  0  1 V2000
  150.3754  133.7106  155.7775 C   0  0  0  0  0  0  0  0  0  0  0  0
  150.0635  135.1362  155.4758 C   0  0  0  0  0  0  0  0  0  0  0  0
  150.9166  135.9666  154.8708 N   0  0  0  0  0  0  0  0  0  0  0  0
  150.3912  137.2529  154.7046 C   0  0  0  0  0  0  0  0  0  0  0  0
  151.2156  138.3212  154.0457 C   0  0  0  0  0  0  0  0  0  0  0  0
  152.0110  139.1050  155.0909 C   0  0  0  0  0  0  0  0  0  0  0  0
  153.1118  139.5721  154.8004 O   0  0  0  0  0  0  0  0  0  0  0  0
  151.4468  139.2289  156.3032 N   0  0  0  0  0  0  0  0  0  0  0  0
  152.0320  139.9109  157.4541 C   0  0  0  0  0  0  0  0  0  0  0  0
  151.5474  141.3685  157.5600 C   0  0  0  0  0  0  0  0  0  0  0  0
  151.9944  142.0673  158.8347 C   0  0  0  0  0  0  0  0  0  0  0  0
  151.8064  143.3875  159.0280 C   0  0  0  0  0  0  0  0  0  0  0  0
  152.1946  144.1265  160.2963 C   0  0  0  0  0  0  0  0  0  0  0  0
  152.4946  143.1674  161.4603 C   0  0  0  0  0  0  0  0  0  0  0  0
  153.3562  141.9873  160.9946 C   0  0  0  0  0  0  0  0  0  0  0  0
  152.6521  141.1821  159.8879 C   0  0  0  0  0  0  0  0  0  0  0  0
  149.1126  137.3803  155.1892 C   0  0  0  0  0  0  0  0  0  0  0  0
  148.5270  135.8921  155.8797 S   0  0  0  0  0  0  0  0  0  0  0  0
  151.4431  133.5190  155.6655 H   0  0  0  0  0  0  0  0  0  0  0  0
  149.8287  133.0583  155.0964 H   0  0  0  0  0  0  0  0  0  0  0  0
  150.0842  133.4729  156.8007 H   0  0  0  0  0  0  0  0  0  0  0  0
  151.9068  137.8913  153.3195 H   0  0  0  0  0  0  0  0  0  0  0  0
  150.5756  139.0083  153.4906 H   0  0  0  0  0  0  0  0  0  0  0  0
  150.5377  138.8111  156.4400 H   0  0  0  0  0  0  0  0  0  0  0  0
  151.8372  139.3690  158.3809 H   0  0  0  0  0  0  0  0  0  0  0  0
  153.1142  139.9016  157.3246 H   0  0  0  0  0  0  0  0  0  0  0  0
  151.9134  141.9407  156.7070 H   0  0  0  0  0  0  0  0  0  0  0  0
  150.4589  141.3921  157.4931 H   0  0  0  0  0  0  0  0  0  0  0  0
  151.3499  143.9847  158.2520 H   0  0  0  0  0  0  0  0  0  0  0  0
  153.0679  144.7413  160.0766 H   0  0  0  0  0  0  0  0  0  0  0  0
  151.3891  144.8061  160.5757 H   0  0  0  0  0  0  0  0  0  0  0  0
  152.9894  143.7051  162.2695 H   0  0  0  0  0  0  0  0  0  0  0  0
  151.5575  142.7859  161.8686 H   0  0  0  0  0  0  0  0  0  0  0  0
  154.3083  142.3656  160.6198 H   0  0  0  0  0  0  0  0  0  0  0  0
  153.5936  141.3345  161.8349 H   0  0  0  0  0  0  0  0  0  0  0  0
  151.8852  140.5460  160.3297 H   0  0  0  0  0  0  0  0  0  0  0  0
  153.3719  140.5179  159.4090 H   0  0  0  0  0  0  0  0  0  0  0  0
  148.4838  138.2584  155.1847 H   0  0  0  0  0  0  0  0  0  0  0  0
  1  2  1  0  0  0  0
  1 19  1  0  0  0  0
  1 20  1  0  0  0  0
  1 21  1  0  0  0  0
  2 18  1  0  0  0  0
  2  3  2  0  0  0  0
  3  4  1  0  0  0  0
  4  5  1  0  0  0  0
  4 17  2  0  0  0  0
  5  6  1  0  0  0  0
  5 22  1  0  0  0  0
  5 23  1  0  0  0  0
  6  7  2  0  0  0  0
  6  8  1  0  0  0  0
  8  9  1  0  0  0  0
  8 24  1  0  0  0  0
  9 10  1  0  0  0  0
  9 25  1  0  0  0  0
  9 26  1  0  0  0  0
 10 11  1  0  0  0  0
 10 27  1  0  0  0  0
 10 28  1  0  0  0  0
 11 16  1  0  0  0  0
 11 12  2  0  0  0  0
 12 13  1  0  0  0  0
 12 29  1  0  0  0  0
 13 14  1  0  0  0  0
 13 30  1  0  0  0  0
 13 31  1  0  0  0  0
 14 15  1  0  0  0  0
 14 32  1  0  0  0  0
 14 33  1  0  0  0  0
 15 16  1  0  0  0  0
 15 34  1  0  0  0  0
 15 35  1  0  0  0  0
 16 36  1  0  0  0  0
 16 37  1  0  0  0  0
 17 18  1  0  0  0  0
 17 38  1  0  0  0  0
M  END
> <s_m_source_file>
AV-unprocessed.smi

> <i_m_source_file_index>
2715

> <i_lp_mmshare_version>
43012

> <i_f3d_flags>
0

> <s_epik_input>
W0NIM11jMW5jKFtjSF1zMSlbQ0gyXUMoPU8pW05IXVtDSDJdW0NIMl1DMj1bQ0hdW0NIMl1bQ0gyXVtDSDJdW0NIMl0y

> <s_epik_cmdline>
J2VwaWtfcHl0aG9uJywgJy1waCcsICc3LjAnLCAnLXRuJywgJzgnLCAnLW1hJywgJzIwMCcsICctbWV0YWxfYmluZGluZycsICctaW1hZScsICc8aW5maWxlLm1hZT4nLCAnLW9tYWUnLCAnPG91dGZpbGUubWFlPic=

> <r_lp_tautomer_probability>
1

> <r_epik_Ionization_Penalty>
5.73492e-05

> <r_epik_Ionization_Penalty_Charging>
0

> <r_epik_Ionization_Penalty_Neutral>
5.73492e-05

> <r_epik_State_Penalty>
-0

> <r_epik_Charging_Adjusted_Penalty>
0

> <i_epik_Tot_Q>
0

> <i_epik_Tot_abs_Q>
0

> <r_epik_Metal_State_Penalty>
-0

> <b_epik_Metal_Only>
0

> <s_lp_Force_Field>
OPLS_2005

> <r_lp_Energy>
6.36926

> <b_lp_Chiralities_Consistent>
1

> <s_lp_Variant>
AV-unprocessed.smi:2715-1

> <Gold.Version>
5.8.1

> <Gold.Id.Protein>
6NUR|6NUR_protein|mol2

> <Gold.PLP.Fitness>
43.4924

> <Gold.PLP.PLP>
-39.4419

> <Gold.PLP.part.hbond>
-3.0000

> <Gold.PLP.part.metal>
0.0000

> <Gold.PLP.part.buried>
-6.1040

> <Gold.PLP.part.nonpolar>
-30.8524

> <Gold.PLP.part.repulsive>
0.2650

> <Gold.PLP.ligand.clash>
0.0000

> <Gold.PLP.ligand.torsion>
1.0054

> <Gold.PLP.Chemscore.Hbond>
2.0138

> <Gold.PLP.Chemscore.CHOScore>
0.0000

> <Gold.PLP.Chemscore.Metal>
0.0000

> <Gold.Chemscore.Hbonds>
donor molecule, donor type, donor heavy atom, donor atom, acceptor molecule, acceptor atom, score
      P1  H  7997  8010       L1     7  1.00
      P1  H 10752 10764       L1     3  0.89

> <Gold.PLP.Chemscore.Internal.Correction>
0.0200

> <Gold.Rescore>
     Score         DG    S(hbond)    S(metal)    S(lipo)     H(rot)  DE(clash)    DE(int)     intcor
     20.09     -21.18       1.99        0.00     110.23       1.50       0.04       1.05       ----

> <Gold.Chemscore.Fitness>
20.0868

> <Gold.Chemscore.DG>
-21.1778

> <Gold.Chemscore.ZeroCoef>
-5.4800

> <Gold.Chemscore.Hbond>
1.9855

> <Gold.Chemscore.Metal>
0.0000

> <Gold.Chemscore.Lipo>
110.2341

> <Gold.Chemscore.Internal_Hbond>
0.0000

> <Gold.Chemscore.DEClash>
0.0405

> <Gold.Chemscore.DEInternal>
1.0505

> <Gold.Chemscore.Rot>
1.4965

> <Gold.Chemscore.Internal.Correction>
   9.000000E+99

> <Gold.Chemscore.Hbonds>
donor molecule, donor type, donor heavy atom, donor atom, acceptor molecule, acceptor atom, score
      P1  H  7997  8010       L1     7  1.00
      P1  H 10752 10764       L1     3  0.85

> <Gold.Chemscore.Hbond.Weighted>
-6.6315

> <Gold.Chemscore.Metal.Weighted>
-0.0000

> <Gold.Chemscore.Lipo.Weighted>
-12.8974

> <Gold.Chemscore.Internal_Hbond.Weighted>
0.0000

> <Gold.Chemscore.DEClash.Weighted>
0.0405

> <Gold.Chemscore.DEInternal.Weighted>
1.0505

> <Gold.Chemscore.Rot.Weighted>
3.8311

> <Gold.Chemscore.Internal.Correction.Weighted>
   9.000000E+99

> <Gold.Protein.RotatedTorsions>
[ 6907 6896 6895 6894 ] final -164.95 input  -60.11 | X-H torsion
[ 7974 7965 7964 7962 ] final   50.14 input  175.53 | X-H torsion
[ 8008 7997 7996 7995 ] final  111.68 input   59.86 | X-H torsion
[ 10167 10162 10161 10158 ] final  104.83 input  -65.29 | X-H torsion
[ 10718 10713 10712 10709 ] final -174.48 input   66.30 | X-H torsion
[ 10763 10752 10751 10750 ] final  -55.65 input  -60.55 | X-H torsion
[ 11005 11000 10999 10996 ] final -147.01 input  -57.11 | X-H torsion

> <Gold.Protein.ActiveResidues>
 VAL166  LYS551  ARG553  GLY616  TRP617  ASP618  TYR619  PRO620  LYS621  CYS622 
 ASP623  PHE694  ASN695  SER759  ASP760  ASP761  ALA762  ILE779  LEU786  VAL792 
 PHE793  MET794  SER795  GLU796  ALA797  LYS798  CYS799  TRP800  GLU811  SER814 

> <Gold.Protein.RotatedAtoms>
  151.4199  133.3701  159.2754 H   0  0  0  0  0  0  0  0  0  0  0  0  # atno 6907 bound_to 6896
  150.9301  134.8717  159.7556 H   0  0  0  0  0  0  0  0  0  0  0  0  # atno 6908 bound_to 6896
  152.5024  134.4144  159.9511 H   0  0  0  0  0  0  0  0  0  0  0  0  # atno 6909 bound_to 6896
  146.0040  139.4470  142.9997 H   0  0  0  0  0  0  0  0  0  0  0  0  # atno 7974 bound_to 7965
  156.2141  140.3014  155.9799 H   0  0  0  0  0  0  0  0  0  0  0  0  # atno 8008 bound_to 7997
  155.2650  140.0431  157.3018 H   0  0  0  0  0  0  0  0  0  0  0  0  # atno 8009 bound_to 7997
  154.5742  140.2357  155.8156 H   0  0  0  0  0  0  0  0  0  0  0  0  # atno 8010 bound_to 7997
  139.7144  144.7071  151.0974 H   0  0  0  0  0  0  0  0  0  0  0  0  # atno 10167 bound_to 10162
  156.7856  130.9499  151.3120 H   0  0  0  0  0  0  0  0  0  0  0  0  # atno 10718 bound_to 10713
  154.1942  135.6422  153.5068 H   0  0  0  0  0  0  0  0  0  0  0  0  # atno 10763 bound_to 10752
  153.0027  135.5436  154.6383 H   0  0  0  0  0  0  0  0  0  0  0  0  # atno 10764 bound_to 10752
  154.5779  135.2922  155.0735 H   0  0  0  0  0  0  0  0  0  0  0  0  # atno 10765 bound_to 10752
  140.7761  134.3133  157.5060 H   0  0  0  0  0  0  0  0  0  0  0  0  # atno 11005 bound_to 11000
  145.7444  140.9996  143.1284 LP  0  0  0  0  0  0  0  0  0  0  0  0  # atno 17320 bound_to 7965
  144.6929  139.9137  143.7464 LP  0  0  0  0  0  0  0  0  0  0  0  0  # atno 17321 bound_to 7965
  140.7740  143.5250  150.9491 LP  0  0  0  0  0  0  0  0  0  0  0  0  # atno 17342 bound_to 10162
  139.8935  143.6923  152.3142 LP  0  0  0  0  0  0  0  0  0  0  0  0  # atno 17343 bound_to 10162
  157.6625  130.8978  149.9861 LP  0  0  0  0  0  0  0  0  0  0  0  0  # atno 17370 bound_to 10713
  156.1190  130.3646  149.9919 LP  0  0  0  0  0  0  0  0  0  0  0  0  # atno 17371 bound_to 10713
  139.8749  134.9290  156.3466 LP  0  0  0  0  0  0  0  0  0  0  0  0  # atno 17394 bound_to 11000
  140.9527  133.7440  156.0294 LP  0  0  0  0  0  0  0  0  0  0  0  0  # atno 17395 bound_to 11000

$$$$
