AV-unprocessed.smi:38|AV-procd|sdf|339|dock8
  -GOLD-   2262016173D 1   1.00000     0.00000
 Structure written by MMmdl.
 28 29  0  0  0  0  0  0  0  0  1 V2000
  152.8560  140.9282  158.8851 O   0  0  0  0  0  0  0  0  0  0  0  0
  152.0570  140.9893  157.9527 C   0  0  0  0  0  0  0  0  0  0  0  0
  152.1834  140.1254  156.8608 N   0  0  0  0  0  0  0  0  0  0  0  0
  151.3443  140.0987  155.7450 C   0  0  0  0  0  0  0  0  0  0  0  0
  151.5438  139.2798  154.8489 O   0  0  0  0  0  0  0  0  0  0  0  0
  150.2834  141.0315  155.7149 N   0  0  0  0  0  0  0  0  0  0  0  0
  149.3435  141.0589  154.5316 C   0  0  1  0  0  0  0  0  0  0  0  0
  148.6481  139.7053  154.3535 C   0  0  0  0  0  0  0  0  0  0  0  0
  147.2401  140.1167  153.9715 C   0  0  2  0  0  0  0  0  0  0  0  0
  147.1376  140.3024  152.5721 O   0  0  0  0  0  0  0  0  0  0  0  0
  147.0658  141.4288  154.7498 C   0  0  2  0  0  0  0  0  0  0  0  0
  146.0069  142.4147  154.2265 C   0  0  0  0  0  0  0  0  0  0  0  0
  144.7211  142.0316  154.6662 O   0  0  0  0  0  0  0  0  0  0  0  0
  148.3601  142.0267  154.7575 O   0  0  0  0  0  0  0  0  0  0  0  0
  150.1118  141.9002  156.7844 C   0  0  0  0  0  0  0  0  0  0  0  0
  150.9304  141.9133  157.8626 C   0  0  0  0  0  0  0  0  0  0  0  0
  150.6990  142.7824  158.8611 F   0  0  0  0  0  0  0  0  0  0  0  0
  152.9442  139.4618  156.8831 H   0  0  0  0  0  0  0  0  0  0  0  0
  149.9096  141.3708  153.6528 H   0  0  0  0  0  0  0  0  0  0  0  0
  146.5050  139.3693  154.2718 H   0  0  0  0  0  0  0  0  0  0  0  0
  146.8302  141.1796  155.7856 H   0  0  0  0  0  0  0  0  0  0  0  0
  149.1581  139.0881  153.6128 H   0  0  0  0  0  0  0  0  0  0  0  0
  148.6330  139.1711  155.3048 H   0  0  0  0  0  0  0  0  0  0  0  0
  148.0106  140.3428  152.2113 H   0  0  0  0  0  0  0  0  0  0  0  0
  146.2133  143.4152  154.6071 H   0  0  0  0  0  0  0  0  0  0  0  0
  146.0214  142.4805  153.1385 H   0  0  0  0  0  0  0  0  0  0  0  0
  144.2880  141.5723  153.9628 H   0  0  0  0  0  0  0  0  0  0  0  0
  149.2892  142.5989  156.7712 H   0  0  0  0  0  0  0  0  0  0  0  0
  1  2  2  0  0  0  0
  2 16  1  0  0  0  0
  2  3  1  0  0  0  0
  3 18  1  0  0  0  0
  3  4  1  0  0  0  0
  4  5  2  0  0  0  0
  4  6  1  0  0  0  0
  6  7  1  0  0  0  0
  6 15  1  0  0  0  0
  7 19  1  0  0  0  0
  7 14  1  0  0  0  0
  7  8  1  0  0  0  0
  8  9  1  0  0  0  0
  8 22  1  0  0  0  0
  8 23  1  0  0  0  0
  9 20  1  0  0  0  0
  9 10  1  0  0  0  0
  9 11  1  0  0  0  0
 10 24  1  0  0  0  0
 11 21  1  0  0  0  0
 11 12  1  0  0  0  0
 11 14  1  0  0  0  0
 12 13  1  0  0  0  0
 12 25  1  0  0  0  0
 12 26  1  0  0  0  0
 13 27  1  0  0  0  0
 15 16  2  0  0  0  0
 15 28  1  0  0  0  0
 16 17  1  0  0  0  0
M  END
> <s_m_source_file>
AV-unprocessed.smi

> <i_m_source_file_index>
38

> <i_lp_mmshare_version>
43012

> <i_f3d_flags>
0

> <s_epik_input>
Tz1jMVtuSF1jKD1PKW4oW2NIXWMxRilbQ0BIXTJbQ0gyXVtDQEhdKFtPSF0pW0NASF0oTzIpW0NIMl1bT0hd

> <s_epik_cmdline>
J2VwaWtfcHl0aG9uJywgJy1waCcsICc3LjAnLCAnLXRuJywgJzgnLCAnLW1hJywgJzIwMCcsICctbWV0YWxfYmluZGluZycsICctaW1hZScsICc8aW5maWxlLm1hZT4nLCAnLW9tYWUnLCAnPG91dGZpbGUubWFlPic=

> <r_lp_tautomer_probability>
0.999537

> <r_epik_Ionization_Penalty>
0.0357432

> <r_epik_Ionization_Penalty_Charging>
0.0357431

> <r_epik_Ionization_Penalty_Neutral>
1.19946e-07

> <r_epik_State_Penalty>
0.0298169

> <r_epik_Charging_Adjusted_Penalty>
0.06556

> <i_epik_Tot_Q>
0

> <i_epik_Tot_abs_Q>
0

> <r_epik_Metal_State_Penalty>
2.348

> <b_epik_Metal_Only>
0

> <s_epik_Chemistry_Notes>
This compound contains an acetal/aminal-like group ( X-CH(R)-Y where X, Y are N, S, or O) that may be acid/base labile, releasing an aldehyde.

> <s_lp_Force_Field>
OPLS_2005

> <r_lp_Energy>
29.3974

> <b_lp_Chiralities_Consistent>
1

> <s_lp_Variant>
AV-unprocessed.smi:38-5

> <Gold.Version>
5.8.1

> <Gold.Id.Protein>
6NUR|6NUR_protein|mol2

> <Gold.PLP.Fitness>
37.5944

> <Gold.PLP.PLP>
-27.3700

> <Gold.PLP.part.hbond>
-3.0000

> <Gold.PLP.part.metal>
0.0000

> <Gold.PLP.part.buried>
-4.7091

> <Gold.PLP.part.nonpolar>
-22.7172

> <Gold.PLP.part.repulsive>
2.3219

> <Gold.PLP.ligand.clash>
0.0000

> <Gold.PLP.ligand.torsion>
0.2139

> <Gold.PLP.Chemscore.Hbond>
2.5500

> <Gold.PLP.Chemscore.CHOScore>
1.0000

> <Gold.PLP.Chemscore.Metal>
0.0000

> <Gold.Chemscore.Hbonds>
donor molecule, donor type, donor heavy atom, donor atom, acceptor molecule, acceptor atom, score
      L1  H    10    24       P1  7957  1.00
      L1  H    13    27       P1 10175  0.80
      P1  H  7989  7998       L1     5  0.39
      L1  C    15    28       P1  8028  1.00

> <Gold.PLP.Chemscore.Internal.Correction>
0.0022

> <Gold.Rescore>
     Score         DG    S(hbond)    S(metal)    S(lipo)     H(rot)  DE(clash)    DE(int)     intcor
      7.15      -8.65       2.05        0.00      32.35       2.91       0.25       1.24       ----

> <Gold.Chemscore.Fitness>
7.1530

> <Gold.Chemscore.DG>
-8.6464

> <Gold.Chemscore.ZeroCoef>
-5.4800

> <Gold.Chemscore.Hbond>
2.0484

> <Gold.Chemscore.Metal>
0.0000

> <Gold.Chemscore.Lipo>
32.3497

> <Gold.Chemscore.Internal_Hbond>
0.0000

> <Gold.Chemscore.DEClash>
0.2498

> <Gold.Chemscore.DEInternal>
1.2436

> <Gold.Chemscore.Rot>
2.9141

> <Gold.Chemscore.Internal.Correction>
   9.000000E+99

> <Gold.Chemscore.Hbonds>
donor molecule, donor type, donor heavy atom, donor atom, acceptor molecule, acceptor atom, score
      L1  H    10    24       P1  7957  1.00
      L1  H    13    27       P1 10175  0.12
      P1  H  7989  7998       L1     5  0.01

> <Gold.Chemscore.Hbond.Weighted>
-6.8416

> <Gold.Chemscore.Metal.Weighted>
-0.0000

> <Gold.Chemscore.Lipo.Weighted>
-3.7849

> <Gold.Chemscore.Internal_Hbond.Weighted>
0.0000

> <Gold.Chemscore.DEClash.Weighted>
0.2498

> <Gold.Chemscore.DEInternal.Weighted>
1.2436

> <Gold.Chemscore.Rot.Weighted>
7.4601

> <Gold.Chemscore.Internal.Correction.Weighted>
   9.000000E+99

> <Gold.Protein.RotatedTorsions>
[ 6907 6896 6895 6894 ] final   66.18 input  -60.11 | X-H torsion
[ 7974 7965 7964 7962 ] final  -46.99 input  175.53 | X-H torsion
[ 8008 7997 7996 7995 ] final   53.63 input   59.86 | X-H torsion
[ 10167 10162 10161 10158 ] final -106.65 input  -65.29 | X-H torsion
[ 10718 10713 10712 10709 ] final    1.32 input   66.30 | X-H torsion
[ 10763 10752 10751 10750 ] final   86.22 input  -60.55 | X-H torsion
[ 11005 11000 10999 10996 ] final    5.62 input  -57.11 | X-H torsion

> <Gold.Protein.ActiveResidues>
 VAL166  LYS551  ARG553  GLY616  TRP617  ASP618  TYR619  PRO620  LYS621  CYS622 
 ASP623  PHE694  ASN695  SER759  ASP760  ASP761  ALA762  ILE779  LEU786  VAL792 
 PHE793  MET794  SER795  GLU796  ALA797  LYS798  CYS799  TRP800  GLU811  SER814 

> <Gold.Protein.RotatedAtoms>
  152.4462  134.5489  159.9860 H   0  0  0  0  0  0  0  0  0  0  0  0  # atno 6907 bound_to 6896
  151.5574  133.3402  159.2972 H   0  0  0  0  0  0  0  0  0  0  0  0  # atno 6908 bound_to 6896
  150.8379  134.7692  159.6971 H   0  0  0  0  0  0  0  0  0  0  0  0  # atno 6909 bound_to 6896
  145.9662  140.7429  142.9433 H   0  0  0  0  0  0  0  0  0  0  0  0  # atno 7974 bound_to 7965
  155.4715  140.3465  155.4326 H   0  0  0  0  0  0  0  0  0  0  0  0  # atno 8008 bound_to 7997
  156.1097  140.1457  156.9384 H   0  0  0  0  0  0  0  0  0  0  0  0  # atno 8009 bound_to 7997
  154.4748  140.0888  156.7214 H   0  0  0  0  0  0  0  0  0  0  0  0  # atno 8010 bound_to 7997
  140.1855  143.3933  152.1248 H   0  0  0  0  0  0  0  0  0  0  0  0  # atno 10167 bound_to 10162
  156.8465  130.5539  149.5673 H   0  0  0  0  0  0  0  0  0  0  0  0  # atno 10718 bound_to 10713
  153.1549  135.4588  154.9690 H   0  0  0  0  0  0  0  0  0  0  0  0  # atno 10763 bound_to 10752
  154.7854  135.3202  154.7901 H   0  0  0  0  0  0  0  0  0  0  0  0  # atno 10764 bound_to 10752
  153.8400  135.6931  153.4858 H   0  0  0  0  0  0  0  0  0  0  0  0  # atno 10765 bound_to 10752
  140.5686  134.0124  155.8000 H   0  0  0  0  0  0  0  0  0  0  0  0  # atno 11005 bound_to 11000
  144.6826  140.2673  143.7311 LP  0  0  0  0  0  0  0  0  0  0  0  0  # atno 17320 bound_to 7965
  145.7970  139.1949  143.2070 LP  0  0  0  0  0  0  0  0  0  0  0  0  # atno 17321 bound_to 7965
  139.5278  144.7123  151.5166 LP  0  0  0  0  0  0  0  0  0  0  0  0  # atno 17342 bound_to 10162
  140.6491  143.8733  150.6767 LP  0  0  0  0  0  0  0  0  0  0  0  0  # atno 17343 bound_to 10162
  156.0852  130.5852  150.9635 LP  0  0  0  0  0  0  0  0  0  0  0  0  # atno 17370 bound_to 10713
  157.6327  131.0919  150.8409 LP  0  0  0  0  0  0  0  0  0  0  0  0  # atno 17371 bound_to 10713
  141.1070  133.9678  157.2979 LP  0  0  0  0  0  0  0  0  0  0  0  0  # atno 17394 bound_to 11000
  139.9372  135.0195  156.8595 LP  0  0  0  0  0  0  0  0  0  0  0  0  # atno 17395 bound_to 11000

$$$$
