AV-unprocessed.smi:3298|AV-procd|sdf|12642|dock3
  -GOLD-   2272018573D 1   1.00000     0.00000
 Structure written by MMmdl.
 35 36  0  0  0  0  0  0  0  0  1 V2000
  150.8793  138.5111  154.8936 C   0  0  0  0  0  0  0  0  0  0  0  0
  149.6939  139.3504  154.4642 C   0  0  0  0  0  0  0  0  0  0  0  0
  148.5117  138.7431  153.9893 C   0  0  0  0  0  0  0  0  0  0  0  0
  147.4296  139.5725  153.6043 C   0  0  0  0  0  0  0  0  0  0  0  0
  146.1842  139.1021  153.1014 N   0  0  0  0  0  0  0  0  0  0  0  0
  145.7332  137.8417  152.9704 C   0  0  0  0  0  0  0  0  0  0  0  0
  146.3449  136.8221  153.2875 O   0  0  0  0  0  0  0  0  0  0  0  0
  144.4991  137.8247  152.4455 N   0  0  0  0  0  0  0  0  0  0  0  0
  143.7208  136.6211  152.1694 C   0  0  2  0  0  0  0  0  0  0  0  0
  143.5939  135.7537  153.3938 C   0  0  0  0  0  0  0  0  0  0  0  0
  144.1188  134.5429  153.2214 C   0  0  0  0  0  0  0  0  0  0  0  0
  144.7279  134.3571  151.8562 C   0  0  1  0  0  0  0  0  0  0  0  0
  144.1597  133.1248  151.1327 C   0  0  0  0  0  0  0  0  0  0  0  0
  142.7494  133.1254  151.2018 O   0  0  0  0  0  0  0  0  0  0  0  0
  144.4267  135.7016  151.1421 C   0  0  0  0  0  0  0  0  0  0  0  0
  147.5999  140.9692  153.7039 C   0  0  0  0  0  0  0  0  0  0  0  0
  148.8217  141.4742  154.1902 C   0  0  0  0  0  0  0  0  0  0  0  0
  149.8513  140.6877  154.5664 N   0  0  0  0  0  0  0  0  0  0  0  0
  142.7237  136.8847  151.8121 H   0  0  0  0  0  0  0  0  0  0  0  0
  145.8039  134.2404  151.9924 H   0  0  0  0  0  0  0  0  0  0  0  0
  150.6837  137.4475  154.7548 H   0  0  0  0  0  0  0  0  0  0  0  0
  151.1015  138.6810  155.9475 H   0  0  0  0  0  0  0  0  0  0  0  0
  151.7621  138.7728  154.3095 H   0  0  0  0  0  0  0  0  0  0  0  0
  148.4660  137.6677  153.9262 H   0  0  0  0  0  0  0  0  0  0  0  0
  145.5363  139.8263  152.8287 H   0  0  0  0  0  0  0  0  0  0  0  0
  144.0666  138.7074  152.2154 H   0  0  0  0  0  0  0  0  0  0  0  0
  143.1125  136.1000  154.2967 H   0  0  0  0  0  0  0  0  0  0  0  0
  144.1363  133.7633  153.9689 H   0  0  0  0  0  0  0  0  0  0  0  0
  144.4525  133.1317  150.0823 H   0  0  0  0  0  0  0  0  0  0  0  0
  144.5439  132.2023  151.5699 H   0  0  0  0  0  0  0  0  0  0  0  0
  142.4172  133.7482  150.5735 H   0  0  0  0  0  0  0  0  0  0  0  0
  143.7749  135.5496  150.2806 H   0  0  0  0  0  0  0  0  0  0  0  0
  145.3466  136.1454  150.7587 H   0  0  0  0  0  0  0  0  0  0  0  0
  146.8093  141.6465  153.4159 H   0  0  0  0  0  0  0  0  0  0  0  0
  148.9760  142.5393  154.2788 H   0  0  0  0  0  0  0  0  0  0  0  0
  1  2  1  0  0  0  0
  1 21  1  0  0  0  0
  1 22  1  0  0  0  0
  1 23  1  0  0  0  0
  2 18  1  0  0  0  0
  2  3  2  0  0  0  0
  3  4  1  0  0  0  0
  3 24  1  0  0  0  0
  4  5  1  0  0  0  0
  4 16  2  0  0  0  0
  5  6  1  0  0  0  0
  5 25  1  0  0  0  0
  6  7  2  0  0  0  0
  6  8  1  0  0  0  0
  8  9  1  0  0  0  0
  8 26  1  0  0  0  0
  9 19  1  0  0  0  0
  9 15  1  0  0  0  0
  9 10  1  0  0  0  0
 10 11  2  0  0  0  0
 10 27  1  0  0  0  0
 11 12  1  0  0  0  0
 11 28  1  0  0  0  0
 12 20  1  0  0  0  0
 12 13  1  0  0  0  0
 12 15  1  0  0  0  0
 13 14  1  0  0  0  0
 13 29  1  0  0  0  0
 13 30  1  0  0  0  0
 14 31  1  0  0  0  0
 15 32  1  0  0  0  0
 15 33  1  0  0  0  0
 16 17  1  0  0  0  0
 16 34  1  0  0  0  0
 17 18  2  0  0  0  0
 17 35  1  0  0  0  0
M  END
> <s_m_source_file>
AV-unprocessed.smi

> <i_m_source_file_index>
3298

> <i_lp_mmshare_version>
43012

> <i_f3d_flags>
0

> <s_epik_input>
W0NIM11jMVtjSF1jKFtjSF1bY0hdbjEpW05IXUMoPU8pW05IXVtDQEBIXTJbQ0hdPVtDSF1bQ0BASF0oW0NIMl0yKVtDSDJdW09IXQ==

> <s_epik_cmdline>
J2VwaWtfcHl0aG9uJywgJy1waCcsICc3LjAnLCAnLXRuJywgJzgnLCAnLW1hJywgJzIwMCcsICctbWV0YWxfYmluZGluZycsICctaW1hZScsICc8aW5maWxlLm1hZT4nLCAnLW9tYWUnLCAnPG91dGZpbGUubWFlPic=

> <r_epik_Ionization_Penalty>
0.379275

> <r_epik_Ionization_Penalty_Charging>
0

> <r_epik_Ionization_Penalty_Neutral>
0.379275

> <r_epik_State_Penalty>
0.377195

> <r_epik_Charging_Adjusted_Penalty>
0.377195

> <i_epik_Tot_Q>
0

> <i_epik_Tot_abs_Q>
0

> <r_epik_Metal_State_Penalty>
0.22815

> <b_epik_Metal_Only>
0

> <s_lp_Force_Field>
OPLS_2005

> <r_lp_Energy>
21.788

> <b_lp_Chiralities_Consistent>
1

> <s_lp_Variant>
AV-unprocessed.smi:3298-3

> <Gold.Version>
5.8.1

> <Gold.Id.Protein>
6NUR|6NUR_protein|mol2

> <Gold.PLP.Fitness>
45.6027

> <Gold.PLP.PLP>
-31.7048

> <Gold.PLP.part.hbond>
-5.0000

> <Gold.PLP.part.metal>
0.0000

> <Gold.PLP.part.buried>
-3.1483

> <Gold.PLP.part.nonpolar>
-24.7668

> <Gold.PLP.part.repulsive>
1.1873

> <Gold.PLP.ligand.clash>
0.0000

> <Gold.PLP.ligand.torsion>
0.0746

> <Gold.PLP.Chemscore.Hbond>
3.6768

> <Gold.PLP.Chemscore.CHOScore>
1.0000

> <Gold.PLP.Chemscore.Metal>
0.0000

> <Gold.Chemscore.Hbonds>
donor molecule, donor type, donor heavy atom, donor atom, acceptor molecule, acceptor atom, score
      L1  H     5    25       P1 10175  1.00
      L1  H     8    26       P1 10175  1.00
      L1  H    14    31       P1 10186  0.99
      P1  H  7989  7998       L1    18  0.64
      L1  C    17    35       P1  8028  0.93

> <Gold.PLP.Chemscore.Internal.Correction>
0.0168

> <Gold.Rescore>
     Score         DG    S(hbond)    S(metal)    S(lipo)     H(rot)  DE(clash)    DE(int)     intcor
     16.78     -19.60       3.20        0.00      68.25       1.78       0.39       2.43       ----

> <Gold.Chemscore.Fitness>
16.7831

> <Gold.Chemscore.DG>
-19.5979

> <Gold.Chemscore.ZeroCoef>
-5.4800

> <Gold.Chemscore.Hbond>
3.2001

> <Gold.Chemscore.Metal>
0.0000

> <Gold.Chemscore.Lipo>
68.2507

> <Gold.Chemscore.Internal_Hbond>
0.0000

> <Gold.Chemscore.DEClash>
0.3890

> <Gold.Chemscore.DEInternal>
2.4257

> <Gold.Chemscore.Rot>
1.7796

> <Gold.Chemscore.Internal.Correction>
   9.000000E+99

> <Gold.Chemscore.Hbonds>
donor molecule, donor type, donor heavy atom, donor atom, acceptor molecule, acceptor atom, score
      L1  H     5    25       P1 10175  0.93
      L1  H     8    26       P1 10175  0.99
      L1  H    14    31       P1 10186  0.87
      P1  H  7989  7998       L1    18  0.13

> <Gold.Chemscore.Hbond.Weighted>
-10.6884

> <Gold.Chemscore.Metal.Weighted>
-0.0000

> <Gold.Chemscore.Lipo.Weighted>
-7.9853

> <Gold.Chemscore.Internal_Hbond.Weighted>
0.0000

> <Gold.Chemscore.DEClash.Weighted>
0.3890

> <Gold.Chemscore.DEInternal.Weighted>
2.4257

> <Gold.Chemscore.Rot.Weighted>
4.5558

> <Gold.Chemscore.Internal.Correction.Weighted>
   9.000000E+99

> <Gold.Protein.RotatedTorsions>
[ 6907 6896 6895 6894 ] final   73.53 input  -60.11 | X-H torsion
[ 7974 7965 7964 7962 ] final -169.40 input  175.53 | X-H torsion
[ 8008 7997 7996 7995 ] final -132.62 input   59.86 | X-H torsion
[ 10167 10162 10161 10158 ] final  -21.11 input  -65.29 | X-H torsion
[ 10718 10713 10712 10709 ] final   68.96 input   66.30 | X-H torsion
[ 10763 10752 10751 10750 ] final -175.05 input  -60.55 | X-H torsion
[ 11005 11000 10999 10996 ] final  -96.38 input  -57.11 | X-H torsion

> <Gold.Protein.ActiveResidues>
 VAL166  LYS551  ARG553  GLY616  TRP617  ASP618  TYR619  PRO620  LYS621  CYS622 
 ASP623  PHE694  ASN695  SER759  ASP760  ASP761  ALA762  ILE779  LEU786  VAL792 
 PHE793  MET794  SER795  GLU796  ALA797  LYS798  CYS799  TRP800  GLU811  SER814 

> <Gold.Protein.RotatedAtoms>
  152.4928  134.4407  159.9542 H   0  0  0  0  0  0  0  0  0  0  0  0  # atno 6907 bound_to 6896
  151.4391  133.3642  159.2787 H   0  0  0  0  0  0  0  0  0  0  0  0  # atno 6908 bound_to 6896
  150.9100  134.8540  159.7479 H   0  0  0  0  0  0  0  0  0  0  0  0  # atno 6909 bound_to 6896
  144.7186  140.2227  143.6314 H   0  0  0  0  0  0  0  0  0  0  0  0  # atno 7974 bound_to 7965
  155.3320  140.0467  157.3043 H   0  0  0  0  0  0  0  0  0  0  0  0  # atno 8008 bound_to 7997
  154.5323  140.2261  155.8748 H   0  0  0  0  0  0  0  0  0  0  0  0  # atno 8009 bound_to 7997
  156.1801  140.3076  155.9138 H   0  0  0  0  0  0  0  0  0  0  0  0  # atno 8010 bound_to 7997
  140.7280  143.4659  151.0315 H   0  0  0  0  0  0  0  0  0  0  0  0  # atno 10167 bound_to 10162
  157.6319  130.9401  150.0448 H   0  0  0  0  0  0  0  0  0  0  0  0  # atno 10718 bound_to 10713
  154.5890  135.2843  155.0655 H   0  0  0  0  0  0  0  0  0  0  0  0  # atno 10763 bound_to 10752
  154.1963  135.6432  153.5078 H   0  0  0  0  0  0  0  0  0  0  0  0  # atno 10764 bound_to 10752
  153.0114  135.5458  154.6569 H   0  0  0  0  0  0  0  0  0  0  0  0  # atno 10765 bound_to 10752
  141.1413  133.8094  157.0564 H   0  0  0  0  0  0  0  0  0  0  0  0  # atno 11005 bound_to 11000
  145.8486  139.2164  143.1785 LP  0  0  0  0  0  0  0  0  0  0  0  0  # atno 17320 bound_to 7965
  146.0281  140.8284  142.9889 LP  0  0  0  0  0  0  0  0  0  0  0  0  # atno 17321 bound_to 7965
  139.8347  143.7644  152.3180 LP  0  0  0  0  0  0  0  0  0  0  0  0  # atno 17342 bound_to 10162
  139.7772  144.7457  151.0140 LP  0  0  0  0  0  0  0  0  0  0  0  0  # atno 17343 bound_to 10162
  156.1528  130.3642  149.9412 LP  0  0  0  0  0  0  0  0  0  0  0  0  # atno 17370 bound_to 10713
  156.7428  130.9086  151.3633 LP  0  0  0  0  0  0  0  0  0  0  0  0  # atno 17371 bound_to 10713
  140.0599  134.9760  157.1286 LP  0  0  0  0  0  0  0  0  0  0  0  0  # atno 17394 bound_to 11000
  140.3864  134.2232  155.7168 LP  0  0  0  0  0  0  0  0  0  0  0  0  # atno 17395 bound_to 11000

$$$$
