AV-unprocessed.smi:155|AV-procd|sdf|1270|dock9
  -GOLD-   2262018533D 1   1.00000     0.00000
 Structure written by MMmdl.
 63 66  0  0  0  0  0  0  0  0  2 V2000
  145.8015  132.1271  150.8243 C   0  0  0  0  0  0  0  0  0  0  0  0
  145.1727  133.3443  150.3286 N   0  0  0  0  0  0  0  0  0  0  0  0
  143.7317  133.2211  150.5225 C   0  0  0  0  0  0  0  0  0  0  0  0
  145.7184  134.4941  151.0506 C   0  0  0  0  0  0  0  0  0  0  0  0
  145.1987  135.8347  150.4908 C   0  0  0  0  0  0  0  0  0  0  0  0
  144.8696  136.7939  151.5776 N   0  3  1  0  0  0  0  0  0  0  0  0
  143.5590  136.4945  152.2067 C   0  0  0  0  0  0  0  0  0  0  0  0
  143.0593  137.6122  153.1377 C   0  0  0  0  0  0  0  0  0  0  0  0
  143.7988  137.6626  154.4835 C   0  0  0  0  0  0  0  0  0  0  0  0
  145.0778  138.3734  154.4262 N   0  0  0  0  0  0  0  0  0  0  0  0
  145.5950  138.8633  155.5848 C   0  0  0  0  0  0  0  0  0  0  0  0
  145.2553  138.2656  156.7581 N   0  0  0  0  0  0  0  0  0  0  0  0
  145.7447  138.7166  157.9163 C   0  0  0  0  0  0  0  0  0  0  0  0
  146.5771  139.7364  158.1283 N   0  0  0  0  0  0  0  0  0  0  0  0
  146.9216  140.3458  156.9583 C   0  0  0  0  0  0  0  0  0  0  0  0
  146.4749  139.9837  155.6550 C   0  0  0  0  0  0  0  0  0  0  0  0
  147.0119  140.8582  154.7161 N   0  0  0  0  0  0  0  0  0  0  0  0
  147.7412  141.6784  155.4215 C   0  0  0  0  0  0  0  0  0  0  0  0
  147.7598  141.4319  156.7753 N   0  0  0  0  0  0  0  0  0  0  0  0
  148.4838  142.1874  157.7854 C   0  0  0  0  0  0  0  0  0  0  0  0
  150.0129  141.9371  157.8199 C   0  0  1  0  0  0  0  0  0  0  0  0
  150.6045  142.1973  156.5633 O   0  0  0  0  0  0  0  0  0  0  0  0
  150.8340  142.6673  158.9087 C   0  0  2  0  0  0  0  0  0  0  0  0
  151.0051  144.1671  158.6725 C   0  0  0  0  0  0  0  0  0  0  0  0
  152.1600  144.4868  159.5952 C   0  0  0  0  0  0  0  0  0  0  0  0
  153.0284  143.2347  159.4812 C   0  0  0  0  0  0  0  0  0  0  0  0
  152.1697  142.1894  159.0295 O   0  0  0  0  0  0  0  0  0  0  0  0
  145.9407  138.3223  153.2450 C   0  0  0  0  0  0  0  0  0  0  0  0
  145.9713  136.9455  152.5633 C   0  0  0  0  0  0  0  0  0  0  0  0
  146.8806  132.1603  150.6691 H   0  0  0  0  0  0  0  0  0  0  0  0
  145.4210  131.2536  150.2932 H   0  0  0  0  0  0  0  0  0  0  0  0
  145.6141  131.9875  151.8902 H   0  0  0  0  0  0  0  0  0  0  0  0
  143.1954  134.0759  150.1128 H   0  0  0  0  0  0  0  0  0  0  0  0
  143.4782  133.1324  151.5800 H   0  0  0  0  0  0  0  0  0  0  0  0
  143.3545  132.3349  150.0106 H   0  0  0  0  0  0  0  0  0  0  0  0
  145.4722  134.4096  152.1103 H   0  0  0  0  0  0  0  0  0  0  0  0
  146.8069  134.4767  150.9917 H   0  0  0  0  0  0  0  0  0  0  0  0
  145.9304  136.2576  149.8032 H   0  0  0  0  0  0  0  0  0  0  0  0
  144.3073  135.6639  149.8853 H   0  0  0  0  0  0  0  0  0  0  0  0
  142.8170  136.3738  151.4162 H   0  0  0  0  0  0  0  0  0  0  0  0
  143.6047  135.5411  152.7356 H   0  0  0  0  0  0  0  0  0  0  0  0
  143.0788  138.5824  152.6392 H   0  0  0  0  0  0  0  0  0  0  0  0
  142.0088  137.4116  153.3506 H   0  0  0  0  0  0  0  0  0  0  0  0
  143.1550  138.1794  155.1970 H   0  0  0  0  0  0  0  0  0  0  0  0
  143.9509  136.6563  154.8761 H   0  0  0  0  0  0  0  0  0  0  0  0
  145.4248  138.1829  158.7991 H   0  0  0  0  0  0  0  0  0  0  0  0
  148.2992  142.4857  154.9697 H   0  0  0  0  0  0  0  0  0  0  0  0
  148.2801  143.2468  157.6309 H   0  0  0  0  0  0  0  0  0  0  0  0
  148.0520  141.9435  158.7568 H   0  0  0  0  0  0  0  0  0  0  0  0
  150.1539  140.8676  157.9798 H   0  0  0  0  0  0  0  0  0  0  0  0
  150.1113  142.8793  156.1334 H   0  0  0  0  0  0  0  0  0  0  0  0
  150.3489  142.5364  159.8782 H   0  0  0  0  0  0  0  0  0  0  0  0
  151.2895  144.3745  157.6408 H   0  0  0  0  0  0  0  0  0  0  0  0
  150.1056  144.7393  158.9019 H   0  0  0  0  0  0  0  0  0  0  0  0
  152.6887  145.3998  159.3198 H   0  0  0  0  0  0  0  0  0  0  0  0
  151.7973  144.5983  160.6180 H   0  0  0  0  0  0  0  0  0  0  0  0
  153.8193  143.3762  158.7441 H   0  0  0  0  0  0  0  0  0  0  0  0
  153.4951  142.9761  160.4321 H   0  0  0  0  0  0  0  0  0  0  0  0
  145.6510  139.1025  152.5402 H   0  0  0  0  0  0  0  0  0  0  0  0
  146.9662  138.5453  153.5405 H   0  0  0  0  0  0  0  0  0  0  0  0
  145.9746  136.1294  153.2878 H   0  0  0  0  0  0  0  0  0  0  0  0
  146.9230  136.8757  152.0371 H   0  0  0  0  0  0  0  0  0  0  0  0
  144.7622  137.6872  151.1181 H   0  0  0  0  0  0  0  0  0  0  0  0
  1  2  1  0  0  0  0
  1 30  1  0  0  0  0
  1 31  1  0  0  0  0
  1 32  1  0  0  0  0
  2  3  1  0  0  0  0
  2  4  1  0  0  0  0
  3 33  1  0  0  0  0
  3 34  1  0  0  0  0
  3 35  1  0  0  0  0
  4  5  1  0  0  0  0
  4 36  1  0  0  0  0
  4 37  1  0  0  0  0
  5  6  1  0  0  0  0
  5 38  1  0  0  0  0
  5 39  1  0  0  0  0
  6 29  1  0  0  0  0
  6  7  1  0  0  0  0
  6 63  1  0  0  0  0
  7  8  1  0  0  0  0
  7 40  1  0  0  0  0
  7 41  1  0  0  0  0
  8  9  1  0  0  0  0
  8 42  1  0  0  0  0
  8 43  1  0  0  0  0
  9 10  1  0  0  0  0
  9 44  1  0  0  0  0
  9 45  1  0  0  0  0
 10 11  1  0  0  0  0
 10 28  1  0  0  0  0
 11 16  1  0  0  0  0
 11 12  2  0  0  0  0
 12 13  1  0  0  0  0
 13 14  2  0  0  0  0
 13 46  1  0  0  0  0
 14 15  1  0  0  0  0
 15 19  1  0  0  0  0
 15 16  2  0  0  0  0
 16 17  1  0  0  0  0
 17 18  2  0  0  0  0
 18 19  1  0  0  0  0
 18 47  1  0  0  0  0
 19 20  1  0  0  0  0
 20 21  1  0  0  0  0
 20 48  1  0  0  0  0
 20 49  1  0  0  0  0
 21 22  1  0  0  0  0
 21 23  1  0  0  0  0
 21 50  1  0  0  0  0
 22 51  1  0  0  0  0
 23 27  1  0  0  0  0
 23 24  1  0  0  0  0
 23 52  1  0  0  0  0
 24 25  1  0  0  0  0
 24 53  1  0  0  0  0
 24 54  1  0  0  0  0
 25 26  1  0  0  0  0
 25 55  1  0  0  0  0
 25 56  1  0  0  0  0
 26 27  1  0  0  0  0
 26 57  1  0  0  0  0
 26 58  1  0  0  0  0
 28 29  1  0  0  0  0
 28 59  1  0  0  0  0
 28 60  1  0  0  0  0
 29 61  1  0  0  0  0
 29 62  1  0  0  0  0
M  CHG  1   6   1
M  END
> <s_m_source_file>
AV-unprocessed.smi

> <i_m_source_file_index>
155

> <i_lp_mmshare_version>
43012

> <i_f3d_flags>
0

> <s_epik_input>
W0NIM11OKFtDSDNdKVtDSDJdW0NIMl1OMVtDSDJdW0NIMl1bQ0gyXU4oW0NIMl1bQ0gyXTEpYyhuW2NIXW4yKWMoYzIzKW5bY0hdbjNbQ0gyXVtDQEhdKFtPSF0pW0NAQEhdNFtDSDJdW0NIMl1bQ0gyXU80

> <s_epik_cmdline>
J2VwaWtfcHl0aG9uJywgJy1waCcsICc3LjAnLCAnLXRuJywgJzgnLCAnLW1hJywgJzIwMCcsICctbWV0YWxfYmluZGluZycsICctaW1hZScsICc8aW5maWxlLm1hZT4nLCAnLW9tYWUnLCAnPG91dGZpbGUubWFlPic=

> <r_epik_Ionization_Penalty>
0.0619615

> <r_epik_Ionization_Penalty_Charging>
0.0161638

> <r_epik_Ionization_Penalty_Neutral>
0.0457976

> <r_epik_State_Penalty>
0.403408

> <r_epik_Charging_Adjusted_Penalty>
0.419572

> <i_epik_Tot_Q>
1

> <i_epik_Tot_abs_Q>
1

> <r_epik_Metal_State_Penalty>
0.404222

> <b_epik_Metal_Only>
0

> <s_lp_Force_Field>
OPLS_2005

> <r_lp_Energy>
53.2961

> <b_lp_Chiralities_Consistent>
1

> <s_lp_Variant>
AV-unprocessed.smi:155-4

> <Gold.Version>
5.8.1

> <Gold.Id.Protein>
6NUR|6NUR_protein|mol2

> <Gold.PLP.Fitness>
48.9126

> <Gold.PLP.PLP>
-41.9409

> <Gold.PLP.part.hbond>
-3.0000

> <Gold.PLP.part.metal>
0.0000

> <Gold.PLP.part.buried>
-5.4418

> <Gold.PLP.part.nonpolar>
-33.9443

> <Gold.PLP.part.repulsive>
0.2602

> <Gold.PLP.ligand.clash>
0.0000

> <Gold.PLP.ligand.torsion>
1.1177

> <Gold.PLP.Chemscore.Hbond>
2.0000

> <Gold.PLP.Chemscore.CHOScore>
1.0000

> <Gold.PLP.Chemscore.Metal>
0.0000

> <Gold.Chemscore.Hbonds>
donor molecule, donor type, donor heavy atom, donor atom, acceptor molecule, acceptor atom, score
      L1  H     6    63       P1 10171  0.90
      L1  H    22    51       P1  8028  0.42
      L1  C    18    47       P1  8028  1.00

> <Gold.PLP.Chemscore.Internal.Correction>
0.2071

> <Gold.Rescore>
     Score         DG    S(hbond)    S(metal)    S(lipo)     H(rot)  DE(clash)    DE(int)     intcor
     16.14     -17.35       1.98        0.00     102.44       2.63       0.20       1.01       ----

> <Gold.Chemscore.Fitness>
16.1384

> <Gold.Chemscore.DG>
-17.3471

> <Gold.Chemscore.ZeroCoef>
-5.4800

> <Gold.Chemscore.Hbond>
1.9822

> <Gold.Chemscore.Metal>
0.0000

> <Gold.Chemscore.Lipo>
102.4395

> <Gold.Chemscore.Internal_Hbond>
0.0000

> <Gold.Chemscore.DEClash>
0.1996

> <Gold.Chemscore.DEInternal>
1.0091

> <Gold.Chemscore.Rot>
2.6324

> <Gold.Chemscore.Internal.Correction>
   9.000000E+99

> <Gold.Chemscore.Hbonds>
donor molecule, donor type, donor heavy atom, donor atom, acceptor molecule, acceptor atom, score
      L1  H     6    63       P1 10171  0.88
      L1  H    22    51       P1  8028  0.43

> <Gold.Chemscore.Hbond.Weighted>
-6.6205

> <Gold.Chemscore.Metal.Weighted>
-0.0000

> <Gold.Chemscore.Lipo.Weighted>
-11.9854

> <Gold.Chemscore.Internal_Hbond.Weighted>
0.0000

> <Gold.Chemscore.DEClash.Weighted>
0.1996

> <Gold.Chemscore.DEInternal.Weighted>
1.0091

> <Gold.Chemscore.Rot.Weighted>
6.7389

> <Gold.Chemscore.Internal.Correction.Weighted>
   9.000000E+99

> <Gold.Protein.RotatedTorsions>
[ 6907 6896 6895 6894 ] final   -4.41 input  -60.11 | X-H torsion
[ 7974 7965 7964 7962 ] final  -13.20 input  175.53 | X-H torsion
[ 8008 7997 7996 7995 ] final   69.35 input   59.86 | X-H torsion
[ 10167 10162 10161 10158 ] final  -35.74 input  -65.29 | X-H torsion
[ 10718 10713 10712 10709 ] final  -72.65 input   66.30 | X-H torsion
[ 10763 10752 10751 10750 ] final -158.55 input  -60.55 | X-H torsion
[ 11005 11000 10999 10996 ] final  156.36 input  -57.11 | X-H torsion

> <Gold.Protein.ActiveResidues>
 VAL166  LYS551  ARG553  GLY616  TRP617  ASP618  TYR619  PRO620  LYS621  CYS622 
 ASP623  PHE694  ASN695  SER759  ASP760  ASP761  ALA762  ILE779  LEU786  VAL792 
 PHE793  MET794  SER795  GLU796  ALA797  LYS798  CYS799  TRP800  GLU811  SER814 

> <Gold.Protein.RotatedAtoms>
  151.4981  135.1060  159.9821 H   0  0  0  0  0  0  0  0  0  0  0  0  # atno 6907 bound_to 6896
  152.4713  133.8032  159.6974 H   0  0  0  0  0  0  0  0  0  0  0  0  # atno 6908 bound_to 6896
  150.8724  133.7424  159.2983 H   0  0  0  0  0  0  0  0  0  0  0  0  # atno 6909 bound_to 6896
  146.2123  140.3168  142.8387 H   0  0  0  0  0  0  0  0  0  0  0  0  # atno 7974 bound_to 7965
  155.7222  140.3493  155.5021 H   0  0  0  0  0  0  0  0  0  0  0  0  # atno 8008 bound_to 7997
  155.9259  140.1075  157.1192 H   0  0  0  0  0  0  0  0  0  0  0  0  # atno 8009 bound_to 7997
  154.4077  140.1240  156.4726 H   0  0  0  0  0  0  0  0  0  0  0  0  # atno 8010 bound_to 7997
  140.7158  143.3456  151.2263 H   0  0  0  0  0  0  0  0  0  0  0  0  # atno 10167 bound_to 10162
  156.0312  130.4377  150.2624 H   0  0  0  0  0  0  0  0  0  0  0  0  # atno 10718 bound_to 10713
  154.7547  135.3101  154.8492 H   0  0  0  0  0  0  0  0  0  0  0  0  # atno 10763 bound_to 10752
  153.9269  135.6789  153.4750 H   0  0  0  0  0  0  0  0  0  0  0  0  # atno 10764 bound_to 10752
  153.1144  135.4851  154.9020 H   0  0  0  0  0  0  0  0  0  0  0  0  # atno 10765 bound_to 10752
  140.1667  134.8571  157.2641 H   0  0  0  0  0  0  0  0  0  0  0  0  # atno 11005 bound_to 11000
  144.8948  140.7570  143.5904 LP  0  0  0  0  0  0  0  0  0  0  0  0  # atno 17320 bound_to 7965
  145.3092  139.1824  143.4648 LP  0  0  0  0  0  0  0  0  0  0  0  0  # atno 17321 bound_to 7965
  139.6975  143.9589  152.2889 LP  0  0  0  0  0  0  0  0  0  0  0  0  # atno 17342 bound_to 10162
  139.9271  144.6764  150.8401 LP  0  0  0  0  0  0  0  0  0  0  0  0  # atno 17343 bound_to 10162
  157.0726  131.0121  151.3184 LP  0  0  0  0  0  0  0  0  0  0  0  0  # atno 17370 bound_to 10713
  157.4987  130.7867  149.7582 LP  0  0  0  0  0  0  0  0  0  0  0  0  # atno 17371 bound_to 10713
  140.2425  134.3778  155.7475 LP  0  0  0  0  0  0  0  0  0  0  0  0  # atno 17394 bound_to 11000
  141.2214  133.7273  156.8811 LP  0  0  0  0  0  0  0  0  0  0  0  0  # atno 17395 bound_to 11000

$$$$
