AV-unprocessed.smi:2274|AV-procd|sdf|9168|dock4
  -GOLD-   2272012383D 1   1.00000     0.00000
 Structure written by MMmdl.
 47 48  0  0  0  0  0  0  0  0  1 V2000
  153.8505  131.9756  162.7489 C   0  0  0  0  0  0  0  0  0  0  0  0
  154.1381  133.1386  163.7058 C   0  0  0  0  0  0  0  0  0  0  0  0
  154.4563  134.3582  162.9840 N   0  0  0  0  0  0  0  0  0  0  0  0
  155.1260  134.2670  161.8100 N   0  0  0  0  0  0  0  0  0  0  0  0
  155.2762  135.5129  161.3857 C   0  0  0  0  0  0  0  0  0  0  0  0
  156.0531  135.7605  160.1225 C   0  0  0  0  0  0  0  0  0  0  0  0
  154.6543  136.4235  162.2916 C   0  0  0  0  0  0  0  0  0  0  0  0
  154.6050  137.8389  162.2404 N   0  0  0  0  0  0  0  0  0  0  0  0
  154.2316  138.5904  161.1936 C   0  0  0  0  0  0  0  0  0  0  0  0
  153.8375  138.1479  160.1148 O   0  0  0  0  0  0  0  0  0  0  0  0
  154.3200  139.8983  161.4730 N   0  0  0  0  0  0  0  0  0  0  0  0
  153.9894  140.9752  160.5470 C   0  0  0  0  0  0  0  0  0  0  0  0
  153.0959  142.0383  161.2102 C   0  0  0  0  0  0  0  0  0  0  0  0
  152.4042  142.9581  160.1918 C   0  0  2  0  0  0  0  0  0  0  0  0
  153.4145  143.6092  159.2266 C   0  0  0  0  0  0  0  0  0  0  0  0
  152.7060  144.5833  158.2786 C   0  0  0  0  0  0  0  0  0  0  0  0
  151.8781  145.5842  159.0910 C   0  0  0  0  0  0  0  0  0  0  0  0
  150.9489  144.8422  160.0643 C   0  0  0  0  0  0  0  0  0  0  0  0
  151.7132  143.9827  160.9045 O   0  0  0  0  0  0  0  0  0  0  0  0
  154.1650  135.6694  163.3186 C   0  0  0  0  0  0  0  0  0  0  0  0
  153.4432  136.0519  164.5710 C   0  0  0  0  0  0  0  0  0  0  0  0
  153.6153  131.0669  163.3029 H   0  0  0  0  0  0  0  0  0  0  0  0
  154.7125  131.7651  162.1149 H   0  0  0  0  0  0  0  0  0  0  0  0
  153.0031  132.1992  162.1002 H   0  0  0  0  0  0  0  0  0  0  0  0
  153.2778  133.3199  164.3508 H   0  0  0  0  0  0  0  0  0  0  0  0
  154.9727  132.8886  164.3627 H   0  0  0  0  0  0  0  0  0  0  0  0
  156.5995  136.7024  160.1729 H   0  0  0  0  0  0  0  0  0  0  0  0
  155.3910  135.8003  159.2575 H   0  0  0  0  0  0  0  0  0  0  0  0
  156.7840  134.9712  159.9426 H   0  0  0  0  0  0  0  0  0  0  0  0
  154.7827  138.3214  163.1088 H   0  0  0  0  0  0  0  0  0  0  0  0
  154.6466  140.1701  162.3888 H   0  0  0  0  0  0  0  0  0  0  0  0
  154.9032  141.4290  160.1594 H   0  0  0  0  0  0  0  0  0  0  0  0
  153.4757  140.5346  159.6922 H   0  0  0  0  0  0  0  0  0  0  0  0
  152.3443  141.5527  161.8339 H   0  0  0  0  0  0  0  0  0  0  0  0
  153.7027  142.6478  161.8812 H   0  0  0  0  0  0  0  0  0  0  0  0
  151.6852  142.3703  159.6181 H   0  0  0  0  0  0  0  0  0  0  0  0
  154.1759  144.1442  159.7958 H   0  0  0  0  0  0  0  0  0  0  0  0
  153.9354  142.8435  158.6507 H   0  0  0  0  0  0  0  0  0  0  0  0
  153.4330  145.1063  157.6566 H   0  0  0  0  0  0  0  0  0  0  0  0
  152.0536  144.0293  157.6025 H   0  0  0  0  0  0  0  0  0  0  0  0
  152.5439  146.2404  159.6528 H   0  0  0  0  0  0  0  0  0  0  0  0
  151.2972  146.2229  158.4249 H   0  0  0  0  0  0  0  0  0  0  0  0
  150.4121  145.5571  160.6880 H   0  0  0  0  0  0  0  0  0  0  0  0
  150.1976  144.2655  159.5224 H   0  0  0  0  0  0  0  0  0  0  0  0
  153.1932  137.1127  164.5743 H   0  0  0  0  0  0  0  0  0  0  0  0
  154.0580  135.8492  165.4481 H   0  0  0  0  0  0  0  0  0  0  0  0
  152.5138  135.4911  164.6709 H   0  0  0  0  0  0  0  0  0  0  0  0
  1  2  1  0  0  0  0
  1 22  1  0  0  0  0
  1 23  1  0  0  0  0
  1 24  1  0  0  0  0
  2  3  1  0  0  0  0
  2 25  1  0  0  0  0
  2 26  1  0  0  0  0
  3 20  1  0  0  0  0
  3  4  1  0  0  0  0
  4  5  2  0  0  0  0
  5  6  1  0  0  0  0
  5  7  1  0  0  0  0
  6 27  1  0  0  0  0
  6 28  1  0  0  0  0
  6 29  1  0  0  0  0
  7  8  1  0  0  0  0
  7 20  2  0  0  0  0
  8  9  1  0  0  0  0
  8 30  1  0  0  0  0
  9 10  2  0  0  0  0
  9 11  1  0  0  0  0
 11 12  1  0  0  0  0
 11 31  1  0  0  0  0
 12 13  1  0  0  0  0
 12 32  1  0  0  0  0
 12 33  1  0  0  0  0
 13 14  1  0  0  0  0
 13 34  1  0  0  0  0
 13 35  1  0  0  0  0
 14 19  1  0  0  0  0
 14 15  1  0  0  0  0
 14 36  1  0  0  0  0
 15 16  1  0  0  0  0
 15 37  1  0  0  0  0
 15 38  1  0  0  0  0
 16 17  1  0  0  0  0
 16 39  1  0  0  0  0
 16 40  1  0  0  0  0
 17 18  1  0  0  0  0
 17 41  1  0  0  0  0
 17 42  1  0  0  0  0
 18 19  1  0  0  0  0
 18 43  1  0  0  0  0
 18 44  1  0  0  0  0
 20 21  1  0  0  0  0
 21 45  1  0  0  0  0
 21 46  1  0  0  0  0
 21 47  1  0  0  0  0
M  END
> <s_m_source_file>
AV-unprocessed.smi

> <i_m_source_file_index>
2274

> <i_lp_mmshare_version>
43012

> <i_f3d_flags>
0

> <s_epik_input>
W0NIM11bQ0gyXW4xbmMoW0NIM10pYyhjMVtDSDNdKVtOSF1DKD1PKVtOSF1bQ0gyXVtDSDJdW0NAQEhdMltDSDJdW0NIMl1bQ0gyXVtDSDJdTzI=

> <s_epik_cmdline>
J2VwaWtfcHl0aG9uJywgJy1waCcsICc3LjAnLCAnLXRuJywgJzgnLCAnLW1hJywgJzIwMCcsICctbWV0YWxfYmluZGluZycsICctaW1hZScsICc8aW5maWxlLm1hZT4nLCAnLW9tYWUnLCAnPG91dGZpbGUubWFlPic=

> <r_lp_tautomer_probability>
1

> <r_epik_Ionization_Penalty>
0.00368263

> <r_epik_Ionization_Penalty_Charging>
0

> <r_epik_Ionization_Penalty_Neutral>
0.00368263

> <r_epik_State_Penalty>
0.00259417

> <r_epik_Charging_Adjusted_Penalty>
0.00259417

> <i_epik_Tot_Q>
0

> <i_epik_Tot_abs_Q>
0

> <r_epik_Metal_State_Penalty>
-0

> <b_epik_Metal_Only>
0

> <s_lp_Force_Field>
OPLS_2005

> <r_lp_Energy>
11.6854

> <b_lp_Chiralities_Consistent>
1

> <s_lp_Variant>
AV-unprocessed.smi:2274-1

> <Gold.Version>
5.8.1

> <Gold.Id.Protein>
6NUR|6NUR_protein|mol2

> <Gold.PLP.Fitness>
44.4775

> <Gold.PLP.PLP>
-46.0033

> <Gold.PLP.part.hbond>
0.0000

> <Gold.PLP.part.metal>
0.0000

> <Gold.PLP.part.buried>
-1.5081

> <Gold.PLP.part.nonpolar>
-44.5084

> <Gold.PLP.part.repulsive>
0.1302

> <Gold.PLP.ligand.clash>
0.0000

> <Gold.PLP.ligand.torsion>
0.9313

> <Gold.PLP.Chemscore.Hbond>
0.0000

> <Gold.PLP.Chemscore.CHOScore>
0.0000

> <Gold.PLP.Chemscore.Metal>
0.0000

> <Gold.PLP.Chemscore.Internal.Correction>
0.3368

> <Gold.Rescore>
     Score         DG    S(hbond)    S(metal)    S(lipo)     H(rot)  DE(clash)    DE(int)     intcor
     15.16     -17.23       0.00        0.00     132.35       1.46       1.59       0.47       ----

> <Gold.Chemscore.Fitness>
15.1621

> <Gold.Chemscore.DG>
-17.2253

> <Gold.Chemscore.ZeroCoef>
-5.4800

> <Gold.Chemscore.Hbond>
0.0000

> <Gold.Chemscore.Metal>
0.0000

> <Gold.Chemscore.Lipo>
132.3466

> <Gold.Chemscore.Internal_Hbond>
0.0000

> <Gold.Chemscore.DEClash>
1.5899

> <Gold.Chemscore.DEInternal>
0.4732

> <Gold.Chemscore.Rot>
1.4606

> <Gold.Chemscore.Internal.Correction>
   9.000000E+99

> <Gold.Chemscore.Hbond.Weighted>
-0.0000

> <Gold.Chemscore.Metal.Weighted>
-0.0000

> <Gold.Chemscore.Lipo.Weighted>
-15.4845

> <Gold.Chemscore.Internal_Hbond.Weighted>
0.0000

> <Gold.Chemscore.DEClash.Weighted>
1.5899

> <Gold.Chemscore.DEInternal.Weighted>
0.4732

> <Gold.Chemscore.Rot.Weighted>
3.7393

> <Gold.Chemscore.Internal.Correction.Weighted>
   9.000000E+99

> <Gold.Protein.RotatedTorsions>
[ 6907 6896 6895 6894 ] final -159.96 input  -60.11 | X-H torsion
[ 7974 7965 7964 7962 ] final   94.06 input  175.53 | X-H torsion
[ 8008 7997 7996 7995 ] final   29.56 input   59.86 | X-H torsion
[ 10167 10162 10161 10158 ] final  -78.37 input  -65.29 | X-H torsion
[ 10718 10713 10712 10709 ] final    6.05 input   66.30 | X-H torsion
[ 10763 10752 10751 10750 ] final   52.66 input  -60.55 | X-H torsion
[ 11005 11000 10999 10996 ] final  -23.78 input  -57.11 | X-H torsion

> <Gold.Protein.ActiveResidues>
 VAL166  LYS551  ARG553  GLY616  TRP617  ASP618  TYR619  PRO620  LYS621  CYS622 
 ASP623  PHE694  ASN695  SER759  ASP760  ASP761  ALA762  ILE779  LEU786  VAL792 
 PHE793  MET794  SER795  GLU796  ALA797  LYS798  CYS799  TRP800  GLU811  SER814 

> <Gold.Protein.RotatedAtoms>
  151.3417  133.3960  159.2671 H   0  0  0  0  0  0  0  0  0  0  0  0  # atno 6907 bound_to 6896
  150.9872  134.9216  159.7889 H   0  0  0  0  0  0  0  0  0  0  0  0  # atno 6908 bound_to 6896
  152.5236  134.3382  159.9260 H   0  0  0  0  0  0  0  0  0  0  0  0  # atno 6909 bound_to 6896
  145.4707  139.2282  143.2937 H   0  0  0  0  0  0  0  0  0  0  0  0  # atno 7974 bound_to 7965
  155.0765  140.3206  155.4614 H   0  0  0  0  0  0  0  0  0  0  0  0  # atno 8008 bound_to 7997
  156.2778  140.2102  156.5838 H   0  0  0  0  0  0  0  0  0  0  0  0  # atno 8009 bound_to 7997
  154.7013  140.0507  157.0448 H   0  0  0  0  0  0  0  0  0  0  0  0  # atno 8010 bound_to 7997
  140.4688  143.2432  151.8237 H   0  0  0  0  0  0  0  0  0  0  0  0  # atno 10167 bound_to 10162
  156.9164  130.5775  149.5647 H   0  0  0  0  0  0  0  0  0  0  0  0  # atno 10718 bound_to 10713
  152.9790  135.5805  154.4615 H   0  0  0  0  0  0  0  0  0  0  0  0  # atno 10763 bound_to 10752
  154.4190  135.2771  155.1989 H   0  0  0  0  0  0  0  0  0  0  0  0  # atno 10764 bound_to 10752
  154.3747  135.6160  153.5812 H   0  0  0  0  0  0  0  0  0  0  0  0  # atno 10765 bound_to 10752
  140.8784  133.7671  156.0271 H   0  0  0  0  0  0  0  0  0  0  0  0  # atno 11005 bound_to 11000
  146.2398  140.5484  142.8939 LP  0  0  0  0  0  0  0  0  0  0  0  0  # atno 17320 bound_to 7965
  144.7947  140.6100  143.6518 LP  0  0  0  0  0  0  0  0  0  0  0  0  # atno 17321 bound_to 7965
  139.4815  144.4917  151.9176 LP  0  0  0  0  0  0  0  0  0  0  0  0  # atno 17342 bound_to 10162
  140.4003  144.2502  150.5893 LP  0  0  0  0  0  0  0  0  0  0  0  0  # atno 17343 bound_to 10162
  156.0512  130.5581  150.8992 LP  0  0  0  0  0  0  0  0  0  0  0  0  # atno 17370 bound_to 10713
  157.5935  131.0944  150.9079 LP  0  0  0  0  0  0  0  0  0  0  0  0  # atno 17371 bound_to 10713
  140.8491  134.2975  157.5283 LP  0  0  0  0  0  0  0  0  0  0  0  0  # atno 17394 bound_to 11000
  139.8717  134.9458  156.3920 LP  0  0  0  0  0  0  0  0  0  0  0  0  # atno 17395 bound_to 11000

$$$$
