AV-unprocessed.smi:1047|AV-procd|sdf|4593|dock1
  -GOLD-   22720 3 73D 1   1.00000     0.00000
 Structure written by MMmdl.
 55 57  0  0  0  0  0  0  0  0  1 V2000
  145.3633  131.7879  151.6595 C   0  0  0  0  0  0  0  0  0  0  0  0
  145.8838  132.8265  152.6632 C   0  0  0  0  0  0  0  0  0  0  0  0
  147.3073  132.7198  152.9781 N   0  0  0  0  0  0  0  0  0  0  0  0
  147.5988  131.4640  153.6600 C   0  0  0  0  0  0  0  0  0  0  0  0
  149.0907  131.3322  154.0076 C   0  0  0  0  0  0  0  0  0  0  0  0
  149.4931  132.4479  154.7949 O   0  0  0  0  0  0  0  0  0  0  0  0
  149.2839  133.6968  154.1393 C   0  0  2  0  0  0  0  0  0  0  0  0
  149.7581  134.8161  155.0771 C   0  0  0  0  0  0  0  0  0  0  0  0
  149.4552  136.1300  154.5195 N   0  0  0  0  0  0  0  0  0  0  0  0
  150.2986  137.1966  155.0490 C   0  0  0  0  0  0  0  0  0  0  0  0
  149.6354  138.5718  154.8662 C   0  0  2  0  0  0  0  0  0  0  0  0
  148.9029  138.5600  153.6555 O   0  0  0  0  0  0  0  0  0  0  0  0
  150.6775  139.7055  154.8103 C   0  0  0  0  0  0  0  0  0  0  0  0
  151.5138  139.7488  155.9968 N   0  0  0  0  0  0  0  0  0  0  0  0
  152.4343  138.8423  156.3784 C   0  0  0  0  0  0  0  0  0  0  0  0
  153.0958  139.0841  157.5065 N   0  0  0  0  0  0  0  0  0  0  0  0
  152.5391  140.2880  157.9033 C   0  0  0  0  0  0  0  0  0  0  0  0
  152.8068  141.0945  159.0310 C   0  0  0  0  0  0  0  0  0  0  0  0
  152.1052  142.3033  159.2407 C   0  0  0  0  0  0  0  0  0  0  0  0
  152.4273  143.1412  160.4657 C   0  0  0  0  0  0  0  0  0  0  0  0
  151.1159  142.7207  158.3142 C   0  0  0  0  0  0  0  0  0  0  0  0
  150.3450  144.0123  158.5222 C   0  0  0  0  0  0  0  0  0  0  0  0
  150.8384  141.9283  157.1805 C   0  0  0  0  0  0  0  0  0  0  0  0
  151.5443  140.7287  156.9823 C   0  0  0  0  0  0  0  0  0  0  0  0
  147.7848  133.8283  153.8026 C   0  0  0  0  0  0  0  0  0  0  0  0
  144.2810  131.8661  151.5562 H   0  0  0  0  0  0  0  0  0  0  0  0
  145.5914  130.7739  151.9893 H   0  0  0  0  0  0  0  0  0  0  0  0
  145.7929  131.9264  150.6678 H   0  0  0  0  0  0  0  0  0  0  0  0
  145.6578  133.8299  152.2994 H   0  0  0  0  0  0  0  0  0  0  0  0
  145.3102  132.7058  153.5833 H   0  0  0  0  0  0  0  0  0  0  0  0
  147.0087  131.3946  154.5753 H   0  0  0  0  0  0  0  0  0  0  0  0
  147.3000  130.6235  153.0325 H   0  0  0  0  0  0  0  0  0  0  0  0
  149.2703  130.4155  154.5693 H   0  0  0  0  0  0  0  0  0  0  0  0
  149.6968  131.2781  153.1018 H   0  0  0  0  0  0  0  0  0  0  0  0
  149.8613  133.7260  153.2129 H   0  0  0  0  0  0  0  0  0  0  0  0
  149.2633  134.7144  156.0437 H   0  0  0  0  0  0  0  0  0  0  0  0
  150.8286  134.7140  155.2610 H   0  0  0  0  0  0  0  0  0  0  0  0
  149.5418  136.0984  153.5081 H   0  0  0  0  0  0  0  0  0  0  0  0
  150.4664  137.0164  156.1116 H   0  0  0  0  0  0  0  0  0  0  0  0
  151.2816  137.1854  154.5756 H   0  0  0  0  0  0  0  0  0  0  0  0
  148.9475  138.7653  155.6912 H   0  0  0  0  0  0  0  0  0  0  0  0
  149.3878  139.0454  153.0059 H   0  0  0  0  0  0  0  0  0  0  0  0
  151.3266  139.5777  153.9433 H   0  0  0  0  0  0  0  0  0  0  0  0
  150.1868  140.6728  154.6921 H   0  0  0  0  0  0  0  0  0  0  0  0
  152.6329  137.9567  155.7925 H   0  0  0  0  0  0  0  0  0  0  0  0
  153.5596  140.7753  159.7368 H   0  0  0  0  0  0  0  0  0  0  0  0
  151.5494  143.2360  161.1048 H   0  0  0  0  0  0  0  0  0  0  0  0
  152.7521  144.1395  160.1713 H   0  0  0  0  0  0  0  0  0  0  0  0
  153.2252  142.6917  161.0575 H   0  0  0  0  0  0  0  0  0  0  0  0
  149.6080  144.1667  157.7335 H   0  0  0  0  0  0  0  0  0  0  0  0
  151.0223  144.8665  158.5209 H   0  0  0  0  0  0  0  0  0  0  0  0
  149.8151  143.9914  159.4749 H   0  0  0  0  0  0  0  0  0  0  0  0
  150.0903  142.2354  156.4647 H   0  0  0  0  0  0  0  0  0  0  0  0
  147.6264  134.7749  153.2867 H   0  0  0  0  0  0  0  0  0  0  0  0
  147.2073  133.8759  154.7273 H   0  0  0  0  0  0  0  0  0  0  0  0
  1  2  1  0  0  0  0
  1 26  1  0  0  0  0
  1 27  1  0  0  0  0
  1 28  1  0  0  0  0
  2  3  1  0  0  0  0
  2 29  1  0  0  0  0
  2 30  1  0  0  0  0
  3 25  1  0  0  0  0
  3  4  1  0  0  0  0
  4  5  1  0  0  0  0
  4 31  1  0  0  0  0
  4 32  1  0  0  0  0
  5  6  1  0  0  0  0
  5 33  1  0  0  0  0
  5 34  1  0  0  0  0
  6  7  1  0  0  0  0
  7  8  1  0  0  0  0
  7 25  1  0  0  0  0
  7 35  1  0  0  0  0
  8  9  1  0  0  0  0
  8 36  1  0  0  0  0
  8 37  1  0  0  0  0
  9 10  1  0  0  0  0
  9 38  1  0  0  0  0
 10 11  1  0  0  0  0
 10 39  1  0  0  0  0
 10 40  1  0  0  0  0
 11 12  1  0  0  0  0
 11 13  1  0  0  0  0
 11 41  1  0  0  0  0
 12 42  1  0  0  0  0
 13 14  1  0  0  0  0
 13 43  1  0  0  0  0
 13 44  1  0  0  0  0
 14 24  1  0  0  0  0
 14 15  1  0  0  0  0
 15 16  2  0  0  0  0
 15 45  1  0  0  0  0
 16 17  1  0  0  0  0
 17 24  2  0  0  0  0
 17 18  1  0  0  0  0
 18 19  2  0  0  0  0
 18 46  1  0  0  0  0
 19 20  1  0  0  0  0
 19 21  1  0  0  0  0
 20 47  1  0  0  0  0
 20 48  1  0  0  0  0
 20 49  1  0  0  0  0
 21 22  1  0  0  0  0
 21 23  2  0  0  0  0
 22 50  1  0  0  0  0
 22 51  1  0  0  0  0
 22 52  1  0  0  0  0
 23 24  1  0  0  0  0
 23 53  1  0  0  0  0
 25 54  1  0  0  0  0
 25 55  1  0  0  0  0
M  END
> <s_m_source_file>
AV-unprocessed.smi

> <i_m_source_file_index>
1047

> <i_lp_mmshare_version>
43012

> <i_f3d_flags>
0

> <s_epik_input>
W0NIM11bQ0gyXU4xW0NIMl1bQ0gyXU9bQ0BIXShbQ0gyXTEpW0NIMl1bTkhdW0NIMl1bQ0BIXShbT0hdKVtDSDJdbihbY0hdbjIpYyhjMjMpW2NIXWMoW0NIM10pYyhbY0hdMylbQ0gzXQ==

> <s_epik_cmdline>
J2VwaWtfcHl0aG9uJywgJy1waCcsICc3LjAnLCAnLXRuJywgJzgnLCAnLW1hJywgJzIwMCcsICctbWV0YWxfYmluZGluZycsICctaW1hZScsICc8aW5maWxlLm1hZT4nLCAnLW9tYWUnLCAnPG91dGZpbGUubWFlPic=

> <r_epik_Ionization_Penalty>
2.74124

> <r_epik_Ionization_Penalty_Charging>
0

> <r_epik_Ionization_Penalty_Neutral>
2.74124

> <r_epik_State_Penalty>
2.37482

> <r_epik_Charging_Adjusted_Penalty>
2.37482

> <i_epik_Tot_Q>
0

> <i_epik_Tot_abs_Q>
0

> <r_epik_Metal_State_Penalty>
2.25944

> <b_epik_Metal_Only>
0

> <s_lp_Force_Field>
OPLS_2005

> <r_lp_Energy>
33.9666

> <b_lp_Chiralities_Consistent>
1

> <s_lp_Variant>
AV-unprocessed.smi:1047-34

> <Gold.Version>
5.8.1

> <Gold.Id.Protein>
6NUR|6NUR_protein|mol2

> <Gold.PLP.Fitness>
52.0991

> <Gold.PLP.PLP>
-45.8902

> <Gold.PLP.part.hbond>
-4.0000

> <Gold.PLP.part.metal>
0.0000

> <Gold.PLP.part.buried>
-2.2561

> <Gold.PLP.part.nonpolar>
-39.2987

> <Gold.PLP.part.repulsive>
0.1742

> <Gold.PLP.ligand.clash>
0.0000

> <Gold.PLP.ligand.torsion>
0.6101

> <Gold.PLP.Chemscore.Hbond>
2.4420

> <Gold.PLP.Chemscore.CHOScore>
0.0000

> <Gold.PLP.Chemscore.Metal>
0.0000

> <Gold.Chemscore.Hbonds>
donor molecule, donor type, donor heavy atom, donor atom, acceptor molecule, acceptor atom, score
      L1  H     9    38       P1  7948  1.00
      L1  H    12    42       P1  7957  0.83
      P1  H  7997  8010       L1    16  0.40

> <Gold.PLP.Chemscore.Internal.Correction>
0.1030

> <Gold.Rescore>
     Score         DG    S(hbond)    S(metal)    S(lipo)     H(rot)  DE(clash)    DE(int)     intcor
     16.57     -18.79       1.67        0.00     121.21       2.52       0.79       1.43       ----

> <Gold.Chemscore.Fitness>
16.5686

> <Gold.Chemscore.DG>
-18.7924

> <Gold.Chemscore.ZeroCoef>
-5.4800

> <Gold.Chemscore.Hbond>
1.6740

> <Gold.Chemscore.Metal>
0.0000

> <Gold.Chemscore.Lipo>
121.2128

> <Gold.Chemscore.Internal_Hbond>
0.0000

> <Gold.Chemscore.DEClash>
0.7935

> <Gold.Chemscore.DEInternal>
1.4302

> <Gold.Chemscore.Rot>
2.5237

> <Gold.Chemscore.Internal.Correction>
   9.000000E+99

> <Gold.Chemscore.Hbonds>
donor molecule, donor type, donor heavy atom, donor atom, acceptor molecule, acceptor atom, score
      L1  H     9    38       P1  7948  0.39
      L1  H    12    42       P1  7957  0.78
      P1  H  7997  8010       L1    16  0.01

> <Gold.Chemscore.Hbond.Weighted>
-5.5912

> <Gold.Chemscore.Metal.Weighted>
-0.0000

> <Gold.Chemscore.Lipo.Weighted>
-14.1819

> <Gold.Chemscore.Internal_Hbond.Weighted>
0.0000

> <Gold.Chemscore.DEClash.Weighted>
0.7935

> <Gold.Chemscore.DEInternal.Weighted>
1.4302

> <Gold.Chemscore.Rot.Weighted>
6.4607

> <Gold.Chemscore.Internal.Correction.Weighted>
   9.000000E+99

> <Gold.Protein.RotatedTorsions>
[ 6907 6896 6895 6894 ] final  171.45 input  -60.11 | X-H torsion
[ 7974 7965 7964 7962 ] final  -92.74 input  175.53 | X-H torsion
[ 8008 7997 7996 7995 ] final   25.69 input   59.86 | X-H torsion
[ 10167 10162 10161 10158 ] final  125.29 input  -65.29 | X-H torsion
[ 10718 10713 10712 10709 ] final   25.54 input   66.30 | X-H torsion
[ 10763 10752 10751 10750 ] final  116.53 input  -60.55 | X-H torsion
[ 11005 11000 10999 10996 ] final  -49.22 input  -57.11 | X-H torsion

> <Gold.Protein.ActiveResidues>
 VAL166  LYS551  ARG553  GLY616  TRP617  ASP618  TYR619  PRO620  LYS621  CYS622 
 ASP623  PHE694  ASN695  SER759  ASP760  ASP761  ALA762  ILE779  LEU786  VAL792 
 PHE793  MET794  SER795  GLU796  ALA797  LYS798  CYS799  TRP800  GLU811  SER814 

> <Gold.Protein.RotatedAtoms>
  151.8000  133.3369  159.3523 H   0  0  0  0  0  0  0  0  0  0  0  0  # atno 6907 bound_to 6896
  150.7362  134.5762  159.5925 H   0  0  0  0  0  0  0  0  0  0  0  0  # atno 6908 bound_to 6896
  152.3149  134.7453  160.0379 H   0  0  0  0  0  0  0  0  0  0  0  0  # atno 6909 bound_to 6896
  145.3958  140.9532  143.2315 H   0  0  0  0  0  0  0  0  0  0  0  0  # atno 7974 bound_to 7965
  155.0156  140.3141  155.4813 H   0  0  0  0  0  0  0  0  0  0  0  0  # atno 8008 bound_to 7997
  156.2901  140.2206  156.5214 H   0  0  0  0  0  0  0  0  0  0  0  0  # atno 8009 bound_to 7997
  154.7496  140.0467  157.0870 H   0  0  0  0  0  0  0  0  0  0  0  0  # atno 8010 bound_to 7997
  139.5694  144.6930  151.3820 H   0  0  0  0  0  0  0  0  0  0  0  0  # atno 10167 bound_to 10162
  157.1947  130.6862  149.6164 H   0  0  0  0  0  0  0  0  0  0  0  0  # atno 10718 bound_to 10713
  153.5386  135.3563  155.2708 H   0  0  0  0  0  0  0  0  0  0  0  0  # atno 10763 bound_to 10752
  154.8720  135.4085  154.3069 H   0  0  0  0  0  0  0  0  0  0  0  0  # atno 10764 bound_to 10752
  153.3772  135.7066  153.6661 H   0  0  0  0  0  0  0  0  0  0  0  0  # atno 10765 bound_to 10752
  141.0746  133.6669  156.3554 H   0  0  0  0  0  0  0  0  0  0  0  0  # atno 11005 bound_to 11000
  144.8408  139.5474  143.6901 LP  0  0  0  0  0  0  0  0  0  0  0  0  # atno 17320 bound_to 7965
  146.2776  139.6792  142.9252 LP  0  0  0  0  0  0  0  0  0  0  0  0  # atno 17321 bound_to 7965
  140.6978  143.7706  150.7354 LP  0  0  0  0  0  0  0  0  0  0  0  0  # atno 17342 bound_to 10162
  140.1207  143.4614  152.2314 LP  0  0  0  0  0  0  0  0  0  0  0  0  # atno 17343 bound_to 10162
  155.9707  130.4603  150.6067 LP  0  0  0  0  0  0  0  0  0  0  0  0  # atno 17370 bound_to 10713
  157.3826  131.0783  151.1463 LP  0  0  0  0  0  0  0  0  0  0  0  0  # atno 17371 bound_to 10713
  140.5600  134.5943  157.5431 LP  0  0  0  0  0  0  0  0  0  0  0  0  # atno 17394 bound_to 11000
  139.9559  134.7536  156.0343 LP  0  0  0  0  0  0  0  0  0  0  0  0  # atno 17395 bound_to 11000

$$$$
