AV-unprocessed.smi:99|AV-procd|sdf|881|dock2
  -GOLD-   2262017353D 1   1.00000     0.00000
 Structure written by MMmdl.
 52 55  0  0  0  0  0  0  0  0  2 V2000
  143.4911  135.7788  153.4428 O   0  0  0  0  0  0  0  0  0  0  0  0
  144.4265  134.9774  153.4048 C   0  0  0  0  0  0  0  0  0  0  0  0
  145.4287  134.9547  154.3038 O   0  0  0  0  0  0  0  0  0  0  0  0
  145.4498  135.8692  155.3877 C   0  0  0  0  0  0  0  0  0  0  0  0
  146.8961  136.0212  155.8753 C   0  0  2  0  0  0  0  0  0  0  0  0
  147.7853  136.0467  154.7640 O   0  0  0  0  0  0  0  0  0  0  0  0
  149.0636  135.6308  155.1618 C   0  0  1  0  0  0  0  0  0  0  0  0
  150.0214  136.8042  155.0822 N   0  0  0  0  0  0  0  0  0  0  0  0
  149.5951  138.0617  154.6869 C   0  0  0  0  0  0  0  0  0  0  0  0
  150.4500  139.1030  154.6191 C   0  0  0  0  0  0  0  0  0  0  0  0
  151.8535  138.9031  154.9685 C   0  0  0  0  0  0  0  0  0  0  0  0
  152.6259  139.8570  154.8981 O   0  0  0  0  0  0  0  0  0  0  0  0
  152.2467  137.6570  155.3611 N   0  5  0  0  0  0  0  0  0  0  0  0
  151.3832  136.6023  155.4349 C   0  0  0  0  0  0  0  0  0  0  0  0
  151.7229  135.4760  155.7987 O   0  0  0  0  0  0  0  0  0  0  0  0
  148.9359  135.0446  156.5894 C   0  0  1  0  0  0  0  0  0  0  0  0
  149.3999  135.9327  157.5961 O   0  0  0  0  0  0  0  0  0  0  0  0
  147.4314  134.8382  156.6801 C   0  0  1  0  0  0  0  0  0  0  0  0
  146.9773  134.7784  158.0302 O   0  0  0  0  0  0  0  0  0  0  0  0
  147.4855  133.8814  158.9034 C   0  0  0  0  0  0  0  0  0  0  0  0
  147.9171  132.7737  158.5783 O   0  0  0  0  0  0  0  0  0  0  0  0
  147.4260  134.3546  160.3154 C   0  0  0  0  0  0  0  0  0  0  0  0
  147.3344  135.7415  160.5774 C   0  0  0  0  0  0  0  0  0  0  0  0
  147.3050  136.2203  161.9014 C   0  0  0  0  0  0  0  0  0  0  0  0
  147.3621  135.3179  162.9791 C   0  0  0  0  0  0  0  0  0  0  0  0
  147.4472  133.9356  162.7314 C   0  0  0  0  0  0  0  0  0  0  0  0
  147.4800  133.4546  161.4080 C   0  0  0  0  0  0  0  0  0  0  0  0
  144.5866  133.9435  152.3417 C   0  0  0  0  0  0  0  0  0  0  0  0
  145.8839  133.6030  151.8936 C   0  0  0  0  0  0  0  0  0  0  0  0
  146.0657  132.6124  150.9091 C   0  0  0  0  0  0  0  0  0  0  0  0
  144.9521  131.9510  150.3594 C   0  0  0  0  0  0  0  0  0  0  0  0
  143.6560  132.2835  150.7931 C   0  0  0  0  0  0  0  0  0  0  0  0
  143.4725  133.2749  151.7763 C   0  0  0  0  0  0  0  0  0  0  0  0
  145.0508  136.8419  155.0961 H   0  0  0  0  0  0  0  0  0  0  0  0
  144.8190  135.4797  156.1874 H   0  0  0  0  0  0  0  0  0  0  0  0
  147.0131  136.9506  156.4357 H   0  0  0  0  0  0  0  0  0  0  0  0
  149.4142  134.9063  154.4249 H   0  0  0  0  0  0  0  0  0  0  0  0
  148.5618  138.2307  154.4268 H   0  0  0  0  0  0  0  0  0  0  0  0
  150.1005  140.0770  154.3096 H   0  0  0  0  0  0  0  0  0  0  0  0
  149.4842  134.1050  156.6611 H   0  0  0  0  0  0  0  0  0  0  0  0
  150.1373  135.5328  158.0305 H   0  0  0  0  0  0  0  0  0  0  0  0
  147.1954  133.9179  156.1435 H   0  0  0  0  0  0  0  0  0  0  0  0
  147.2979  136.4539  159.7659 H   0  0  0  0  0  0  0  0  0  0  0  0
  147.2419  137.2819  162.0896 H   0  0  0  0  0  0  0  0  0  0  0  0
  147.3410  135.6854  163.9943 H   0  0  0  0  0  0  0  0  0  0  0  0
  147.4904  133.2418  163.5578 H   0  0  0  0  0  0  0  0  0  0  0  0
  147.5497  132.3880  161.2521 H   0  0  0  0  0  0  0  0  0  0  0  0
  146.7544  134.0933  152.3054 H   0  0  0  0  0  0  0  0  0  0  0  0
  147.0617  132.3583  150.5774 H   0  0  0  0  0  0  0  0  0  0  0  0
  145.0920  131.1888  149.6071 H   0  0  0  0  0  0  0  0  0  0  0  0
  142.8001  131.7737  150.3763 H   0  0  0  0  0  0  0  0  0  0  0  0
  142.4640  133.4992  152.0916 H   0  0  0  0  0  0  0  0  0  0  0  0
  1  2  2  0  0  0  0
  2  3  1  0  0  0  0
  2 28  1  0  0  0  0
  3  4  1  0  0  0  0
  4  5  1  0  0  0  0
  4 34  1  0  0  0  0
  4 35  1  0  0  0  0
  5 18  1  0  0  0  0
  5  6  1  0  0  0  0
  5 36  1  0  0  0  0
  6  7  1  0  0  0  0
  7  8  1  0  0  0  0
  7 16  1  0  0  0  0
  7 37  1  0  0  0  0
  8 14  1  0  0  0  0
  8  9  1  0  0  0  0
  9 10  2  0  0  0  0
  9 38  1  0  0  0  0
 10 11  1  0  0  0  0
 10 39  1  0  0  0  0
 11 12  2  0  0  0  0
 11 13  1  0  0  0  0
 13 14  1  0  0  0  0
 14 15  2  0  0  0  0
 16 17  1  0  0  0  0
 16 18  1  0  0  0  0
 16 40  1  0  0  0  0
 17 41  1  0  0  0  0
 18 19  1  0  0  0  0
 18 42  1  0  0  0  0
 19 20  1  0  0  0  0
 20 21  2  0  0  0  0
 20 22  1  0  0  0  0
 22 27  1  0  0  0  0
 22 23  2  0  0  0  0
 23 24  1  0  0  0  0
 23 43  1  0  0  0  0
 24 25  2  0  0  0  0
 24 44  1  0  0  0  0
 25 26  1  0  0  0  0
 25 45  1  0  0  0  0
 26 27  2  0  0  0  0
 26 46  1  0  0  0  0
 27 47  1  0  0  0  0
 28 33  1  0  0  0  0
 28 29  2  0  0  0  0
 29 30  1  0  0  0  0
 29 48  1  0  0  0  0
 30 31  2  0  0  0  0
 30 49  1  0  0  0  0
 31 32  1  0  0  0  0
 31 50  1  0  0  0  0
 32 33  2  0  0  0  0
 32 51  1  0  0  0  0
 33 52  1  0  0  0  0
M  CHG  1  13  -1
M  END
> <s_m_source_file>
AV-unprocessed.smi

> <i_m_source_file_index>
99

> <i_lp_mmshare_version>
43012

> <i_f3d_flags>
0

> <s_epik_input>
W2NIXTFbY0hdW2NIXVtjSF1bY0hdYzFDKD1PKU9bQ0gyXVtDQEBIXTJPW0NAQEhdKG4zW2NIXVtjSF1jKD1PKVtuSF1jMz1PKVtDQEBIXShbT0hdKVtDQEhdMk9DKD1PKWM0W2NIXVtjSF1bY0hdW2NIXVtjSF00

> <s_epik_cmdline>
J2VwaWtfcHl0aG9uJywgJy1waCcsICc3LjAnLCAnLXRuJywgJzgnLCAnLW1hJywgJzIwMCcsICctbWV0YWxfYmluZGluZycsICctaW1hZScsICc8aW5maWxlLm1hZT4nLCAnLW9tYWUnLCAnPG91dGZpbGUubWFlPic=

> <r_lp_tautomer_probability>
1

> <r_epik_Ionization_Penalty>
2.89159

> <r_epik_Ionization_Penalty_Charging>
2.1077e-08

> <r_epik_Ionization_Penalty_Neutral>
2.89159

> <r_epik_State_Penalty>
2.88671

> <r_epik_Charging_Adjusted_Penalty>
2.88671

> <i_epik_Tot_Q>
-1

> <i_epik_Tot_abs_Q>
1

> <r_epik_Metal_State_Penalty>
0.0727308

> <b_epik_Metal_Only>
1

> <s_epik_Chemistry_Notes>
This compound has an ester and may undergo hydrolysis at high or low pH. This compound contains an acetal/aminal-like group ( X-CH(R)-Y where X, Y are N, S, or O) that may be acid/base labile, releasing an aldehyde.

> <s_lp_Force_Field>
OPLS_2005

> <r_lp_Energy>
51.3472

> <b_lp_Chiralities_Consistent>
1

> <s_lp_Variant>
AV-unprocessed.smi:99-17

> <Gold.Version>
5.8.1

> <Gold.Id.Protein>
6NUR|6NUR_protein|mol2

> <Gold.PLP.Fitness>
51.7690

> <Gold.PLP.PLP>
-46.7986

> <Gold.PLP.part.hbond>
-3.6924

> <Gold.PLP.part.metal>
0.0000

> <Gold.PLP.part.buried>
-4.7740

> <Gold.PLP.part.nonpolar>
-40.1046

> <Gold.PLP.part.repulsive>
0.7476

> <Gold.PLP.ligand.clash>
0.0000

> <Gold.PLP.ligand.torsion>
1.3556

> <Gold.PLP.Chemscore.Hbond>
2.4009

> <Gold.PLP.Chemscore.CHOScore>
0.0000

> <Gold.PLP.Chemscore.Metal>
0.0000

> <Gold.Chemscore.Hbonds>
donor molecule, donor type, donor heavy atom, donor atom, acceptor molecule, acceptor atom, score
      P1  H  7989  7998       L1    12  0.48
      P1  H  7997  8008       L1    12  0.81
      P1  H 10752 10763       L1    15  0.90

> <Gold.PLP.Chemscore.Internal.Correction>
0.4791

> <Gold.Rescore>
     Score         DG    S(hbond)    S(metal)    S(lipo)     H(rot)  DE(clash)    DE(int)     intcor
     12.50     -15.21       1.78        0.00     101.06       3.13       0.94       1.77       ----

> <Gold.Chemscore.Fitness>
12.5023

> <Gold.Chemscore.DG>
-15.2127

> <Gold.Chemscore.ZeroCoef>
-5.4800

> <Gold.Chemscore.Hbond>
1.7764

> <Gold.Chemscore.Metal>
0.0000

> <Gold.Chemscore.Lipo>
101.0610

> <Gold.Chemscore.Internal_Hbond>
0.0000

> <Gold.Chemscore.DEClash>
0.9379

> <Gold.Chemscore.DEInternal>
1.7725

> <Gold.Chemscore.Rot>
3.1346

> <Gold.Chemscore.Internal.Correction>
   9.000000E+99

> <Gold.Chemscore.Hbonds>
donor molecule, donor type, donor heavy atom, donor atom, acceptor molecule, acceptor atom, score
      P1  H  7989  7998       L1    12  0.10
      P1  H  7997  8008       L1    12  0.80
      P1  H 10752 10763       L1    15  0.17

> <Gold.Chemscore.Hbond.Weighted>
-5.9331

> <Gold.Chemscore.Metal.Weighted>
-0.0000

> <Gold.Chemscore.Lipo.Weighted>
-11.8241

> <Gold.Chemscore.Internal_Hbond.Weighted>
0.0000

> <Gold.Chemscore.DEClash.Weighted>
0.9379

> <Gold.Chemscore.DEInternal.Weighted>
1.7725

> <Gold.Chemscore.Rot.Weighted>
8.0246

> <Gold.Chemscore.Internal.Correction.Weighted>
   9.000000E+99

> <Gold.Protein.RotatedTorsions>
[ 6907 6896 6895 6894 ] final  -10.59 input  -60.11 | X-H torsion
[ 7974 7965 7964 7962 ] final -162.57 input  175.53 | X-H torsion
[ 8008 7997 7996 7995 ] final  -18.72 input   59.86 | X-H torsion
[ 10167 10162 10161 10158 ] final   11.82 input  -65.29 | X-H torsion
[ 10718 10713 10712 10709 ] final   84.33 input   66.30 | X-H torsion
[ 10763 10752 10751 10750 ] final   93.30 input  -60.55 | X-H torsion
[ 11005 11000 10999 10996 ] final   72.22 input  -57.11 | X-H torsion

> <Gold.Protein.ActiveResidues>
 VAL166  LYS551  ARG553  GLY616  TRP617  ASP618  TYR619  PRO620  LYS621  CYS622 
 ASP623  PHE694  ASN695  SER759  ASP760  ASP761  ALA762  ILE779  LEU786  VAL792 
 PHE793  MET794  SER795  GLU796  ALA797  LYS798  CYS799  TRP800  GLU811  SER814 

> <Gold.Protein.RotatedAtoms>
  151.3996  135.0969  159.9551 H   0  0  0  0  0  0  0  0  0  0  0  0  # atno 6907 bound_to 6896
  152.5054  133.8901  159.7400 H   0  0  0  0  0  0  0  0  0  0  0  0  # atno 6908 bound_to 6896
  150.9372  133.6642  159.2826 H   0  0  0  0  0  0  0  0  0  0  0  0  # atno 6909 bound_to 6896
  144.7353  140.3234  143.6166 H   0  0  0  0  0  0  0  0  0  0  0  0  # atno 7974 bound_to 7965
  154.4886  140.2108  155.9599 H   0  0  0  0  0  0  0  0  0  0  0  0  # atno 8008 bound_to 7997
  156.1273  140.3203  155.8264 H   0  0  0  0  0  0  0  0  0  0  0  0  # atno 8009 bound_to 7997
  155.4361  140.0507  157.3005 H   0  0  0  0  0  0  0  0  0  0  0  0  # atno 8010 bound_to 7997
  140.6108  143.8412  150.7063 H   0  0  0  0  0  0  0  0  0  0  0  0  # atno 10167 bound_to 10162
  157.6896  131.0128  150.2656 H   0  0  0  0  0  0  0  0  0  0  0  0  # atno 10718 bound_to 10713
  153.2288  135.4330  155.0571 H   0  0  0  0  0  0  0  0  0  0  0  0  # atno 10763 bound_to 10752
  154.8286  135.3374  154.6819 H   0  0  0  0  0  0  0  0  0  0  0  0  # atno 10764 bound_to 10752
  153.7247  135.7015  153.5060 H   0  0  0  0  0  0  0  0  0  0  0  0  # atno 10765 bound_to 10752
  139.9502  134.7241  156.0881 H   0  0  0  0  0  0  0  0  0  0  0  0  # atno 11005 bound_to 11000
  145.7546  139.1804  143.2302 LP  0  0  0  0  0  0  0  0  0  0  0  0  # atno 17320 bound_to 7965
  146.1034  140.7516  142.9538 LP  0  0  0  0  0  0  0  0  0  0  0  0  # atno 17321 bound_to 7965
  140.1980  143.3982  152.1813 LP  0  0  0  0  0  0  0  0  0  0  0  0  # atno 17342 bound_to 10162
  139.5359  144.7209  151.4894 LP  0  0  0  0  0  0  0  0  0  0  0  0  # atno 17343 bound_to 10162
  156.3228  130.3788  149.7560 LP  0  0  0  0  0  0  0  0  0  0  0  0  # atno 17370 bound_to 10713
  156.5125  130.8178  151.3174 LP  0  0  0  0  0  0  0  0  0  0  0  0  # atno 17371 bound_to 10713
  141.1163  133.6627  156.3102 LP  0  0  0  0  0  0  0  0  0  0  0  0  # atno 17394 bound_to 11000
  140.5737  134.5814  157.5464 LP  0  0  0  0  0  0  0  0  0  0  0  0  # atno 17395 bound_to 11000

$$$$
