AV-unprocessed.smi:2928|AV-procd|sdf|11231|dock10
  -GOLD-   2272016123D 1   1.00000     0.00000
 Structure written by MMmdl.
 55 58  0  0  0  0  0  0  0  0  2 V2000
  147.1568  138.8626  152.6439 C   0  0  0  0  0  0  0  0  0  0  0  0
  148.3083  138.6039  153.5409 N   0  3  2  0  0  0  0  0  0  0  0  0
  147.9489  138.3344  154.9536 C   0  0  2  0  0  0  0  0  0  0  0  0
  147.4195  139.6106  155.6565 C   0  0  0  0  0  0  0  0  0  0  0  0
  148.3259  140.8462  155.5000 C   0  0  0  0  0  0  0  0  0  0  0  0
  148.9357  140.9662  154.0916 C   0  0  0  0  0  0  0  0  0  0  0  0
  149.3872  139.6181  153.4757 C   0  0  1  0  0  0  0  0  0  0  0  0
  150.6809  139.0191  154.0750 C   0  0  0  0  0  0  0  0  0  0  0  0
  150.5230  138.3090  155.4481 C   0  0  1  0  0  0  0  0  0  0  0  0
  150.8699  139.1652  156.5780 N   0  0  0  0  0  0  0  0  0  0  0  0
  151.8243  138.9251  157.4876 C   0  0  0  0  0  0  0  0  0  0  0  0
  152.5161  137.9072  157.4997 O   0  0  0  0  0  0  0  0  0  0  0  0
  151.9304  139.9502  158.3472 N   0  0  0  0  0  0  0  0  0  0  0  0
  152.8942  140.1414  159.3751 C   0  0  0  0  0  0  0  0  0  0  0  0
  153.5876  139.0694  159.9865 C   0  0  0  0  0  0  0  0  0  0  0  0
  154.5083  139.3484  161.0130 C   0  0  0  0  0  0  0  0  0  0  0  0
  154.6976  140.6883  161.3964 C   0  0  0  0  0  0  0  0  0  0  0  0
  154.0337  141.7188  160.8340 N   0  0  0  0  0  0  0  0  0  0  0  0
  153.1443  141.4555  159.8460 C   0  0  0  0  0  0  0  0  0  0  0  0
  152.4634  142.5431  159.2702 N   0  0  0  0  0  0  0  0  0  0  0  0
  151.6032  143.2949  160.1679 C   0  0  0  0  0  0  0  0  0  0  0  0
  151.2825  144.5950  159.4260 C   0  0  0  0  0  0  0  0  0  0  0  0
  152.4060  144.7474  158.3926 C   0  0  0  0  0  0  0  0  0  0  0  0
  153.3019  143.5238  158.6018 C   0  0  0  0  0  0  0  0  0  0  0  0
  149.1409  137.6384  155.6525 C   0  0  0  0  0  0  0  0  0  0  0  0
  146.6161  139.7689  152.9142 H   0  0  0  0  0  0  0  0  0  0  0  0
  146.4552  138.0288  152.6764 H   0  0  0  0  0  0  0  0  0  0  0  0
  147.4950  138.9669  151.6127 H   0  0  0  0  0  0  0  0  0  0  0  0
  147.1325  137.6104  154.9556 H   0  0  0  0  0  0  0  0  0  0  0  0
  146.4396  139.8532  155.2445 H   0  0  0  0  0  0  0  0  0  0  0  0
  147.2448  139.4130  156.7146 H   0  0  0  0  0  0  0  0  0  0  0  0
  147.7517  141.7461  155.7225 H   0  0  0  0  0  0  0  0  0  0  0  0
  149.1088  140.8413  156.2507 H   0  0  0  0  0  0  0  0  0  0  0  0
  148.1920  141.4177  153.4346 H   0  0  0  0  0  0  0  0  0  0  0  0
  149.7689  141.6695  154.1090 H   0  0  0  0  0  0  0  0  0  0  0  0
  149.6006  139.8070  152.4224 H   0  0  0  0  0  0  0  0  0  0  0  0
  151.0382  138.2679  153.3690 H   0  0  0  0  0  0  0  0  0  0  0  0
  151.4689  139.7726  154.1021 H   0  0  0  0  0  0  0  0  0  0  0  0
  151.2589  137.5028  155.4770 H   0  0  0  0  0  0  0  0  0  0  0  0
  150.3571  140.0311  156.6603 H   0  0  0  0  0  0  0  0  0  0  0  0
  151.3411  140.7485  158.1604 H   0  0  0  0  0  0  0  0  0  0  0  0
  153.4189  138.0433  159.6974 H   0  0  0  0  0  0  0  0  0  0  0  0
  155.0533  138.5523  161.4982 H   0  0  0  0  0  0  0  0  0  0  0  0
  155.3964  140.9392  162.1807 H   0  0  0  0  0  0  0  0  0  0  0  0
  150.6987  142.7346  160.4064 H   0  0  0  0  0  0  0  0  0  0  0  0
  152.1218  143.5135  161.1025 H   0  0  0  0  0  0  0  0  0  0  0  0
  150.3206  144.5142  158.9183 H   0  0  0  0  0  0  0  0  0  0  0  0
  151.2275  145.4432  160.1088 H   0  0  0  0  0  0  0  0  0  0  0  0
  151.9872  144.7430  157.3856 H   0  0  0  0  0  0  0  0  0  0  0  0
  152.9620  145.6769  158.5172 H   0  0  0  0  0  0  0  0  0  0  0  0
  154.1560  143.7875  159.2272 H   0  0  0  0  0  0  0  0  0  0  0  0
  153.6824  143.1371  157.6560 H   0  0  0  0  0  0  0  0  0  0  0  0
  148.9314  137.4916  156.7132 H   0  0  0  0  0  0  0  0  0  0  0  0
  149.2088  136.6317  155.2369 H   0  0  0  0  0  0  0  0  0  0  0  0
  148.7158  137.7475  153.1933 H   0  0  0  0  0  0  0  0  0  0  0  0
  1  2  1  0  0  0  0
  1 26  1  0  0  0  0
  1 27  1  0  0  0  0
  1 28  1  0  0  0  0
  2  7  1  0  0  0  0
  2  3  1  0  0  0  0
  2 55  1  0  0  0  0
  3 25  1  0  0  0  0
  3  4  1  0  0  0  0
  3 29  1  0  0  0  0
  4  5  1  0  0  0  0
  4 30  1  0  0  0  0
  4 31  1  0  0  0  0
  5  6  1  0  0  0  0
  5 32  1  0  0  0  0
  5 33  1  0  0  0  0
  6  7  1  0  0  0  0
  6 34  1  0  0  0  0
  6 35  1  0  0  0  0
  7  8  1  0  0  0  0
  7 36  1  0  0  0  0
  8  9  1  0  0  0  0
  8 37  1  0  0  0  0
  8 38  1  0  0  0  0
  9 10  1  0  0  0  0
  9 25  1  0  0  0  0
  9 39  1  0  0  0  0
 10 11  1  0  0  0  0
 10 40  1  0  0  0  0
 11 12  2  0  0  0  0
 11 13  1  0  0  0  0
 13 14  1  0  0  0  0
 13 41  1  0  0  0  0
 14 19  1  0  0  0  0
 14 15  2  0  0  0  0
 15 16  1  0  0  0  0
 15 42  1  0  0  0  0
 16 17  2  0  0  0  0
 16 43  1  0  0  0  0
 17 18  1  0  0  0  0
 17 44  1  0  0  0  0
 18 19  2  0  0  0  0
 19 20  1  0  0  0  0
 20 24  1  0  0  0  0
 20 21  1  0  0  0  0
 21 22  1  0  0  0  0
 21 45  1  0  0  0  0
 21 46  1  0  0  0  0
 22 23  1  0  0  0  0
 22 47  1  0  0  0  0
 22 48  1  0  0  0  0
 23 24  1  0  0  0  0
 23 49  1  0  0  0  0
 23 50  1  0  0  0  0
 24 51  1  0  0  0  0
 24 52  1  0  0  0  0
 25 53  1  0  0  0  0
 25 54  1  0  0  0  0
M  CHG  1   2   1
M  END
> <s_m_source_file>
AV-unprocessed.smi

> <i_m_source_file_index>
2928

> <i_lp_mmshare_version>
43012

> <i_f3d_flags>
0

> <s_epik_input>
W0NIMl0xW0NIMl1bQ0gyXVtDQEhdKE4oW0NIM10pW0NIXTEyKVtDSDJdW0NASF0oW0NIMl0yKVtOSF1DKD1PKVtOSF1jM1tjSF1bY0hdW2NIXW5jM040W0NIMl1bQ0gyXVtDSDJdW0NIMl00

> <s_epik_cmdline>
J2VwaWtfcHl0aG9uJywgJy1waCcsICc3LjAnLCAnLXRuJywgJzgnLCAnLW1hJywgJzIwMCcsICctbWV0YWxfYmluZGluZycsICctaW1hZScsICc8aW5maWxlLm1hZT4nLCAnLW9tYWUnLCAnPG91dGZpbGUubWFlPic=

> <r_lp_tautomer_probability>
1

> <r_epik_Ionization_Penalty>
0.07954

> <r_epik_Ionization_Penalty_Charging>
0.00089841

> <r_epik_Ionization_Penalty_Neutral>
0.0786416

> <r_epik_State_Penalty>
0.0689917

> <r_epik_Charging_Adjusted_Penalty>
0.0698901

> <i_epik_Tot_Q>
1

> <i_epik_Tot_abs_Q>
1

> <r_epik_Metal_State_Penalty>
0.0608947

> <b_epik_Metal_Only>
0

> <s_lp_Force_Field>
OPLS_2005

> <r_lp_Energy>
66.344

> <b_lp_Chiralities_Consistent>
1

> <s_lp_Variant>
AV-unprocessed.smi:2928-1

> <Gold.Version>
5.8.1

> <Gold.Id.Protein>
6NUR|6NUR_protein|mol2

> <Gold.PLP.Fitness>
42.4930

> <Gold.PLP.PLP>
-36.8382

> <Gold.PLP.part.hbond>
-1.6738

> <Gold.PLP.part.metal>
0.0000

> <Gold.PLP.part.buried>
1.4023

> <Gold.PLP.part.nonpolar>
-35.4944

> <Gold.PLP.part.repulsive>
0.1628

> <Gold.PLP.ligand.clash>
0.0000

> <Gold.PLP.ligand.torsion>
0.1828

> <Gold.PLP.Chemscore.Hbond>
1.9825

> <Gold.PLP.Chemscore.CHOScore>
0.0000

> <Gold.PLP.Chemscore.Metal>
0.0000

> <Gold.Chemscore.Hbonds>
donor molecule, donor type, donor heavy atom, donor atom, acceptor molecule, acceptor atom, score
      L1  H     2    55       P1  7948  2.00

> <Gold.PLP.Chemscore.Internal.Correction>
0.0729

> <Gold.Rescore>
     Score         DG    S(hbond)    S(metal)    S(lipo)     H(rot)  DE(clash)    DE(int)     intcor
     17.00     -20.13       0.94        0.00     124.26       1.18       1.76       1.38       ----

> <Gold.Chemscore.Fitness>
17.0003

> <Gold.Chemscore.DG>
-20.1336

> <Gold.Chemscore.ZeroCoef>
-5.4800

> <Gold.Chemscore.Hbond>
0.9372

> <Gold.Chemscore.Metal>
0.0000

> <Gold.Chemscore.Lipo>
124.2577

> <Gold.Chemscore.Internal_Hbond>
0.0000

> <Gold.Chemscore.DEClash>
1.7580

> <Gold.Chemscore.DEInternal>
1.3754

> <Gold.Chemscore.Rot>
1.1776

> <Gold.Chemscore.Internal.Correction>
   9.000000E+99

> <Gold.Chemscore.Hbonds>
donor molecule, donor type, donor heavy atom, donor atom, acceptor molecule, acceptor atom, score
      L1  H     2    55       P1  7948  0.93

> <Gold.Chemscore.Hbond.Weighted>
-3.1302

> <Gold.Chemscore.Metal.Weighted>
-0.0000

> <Gold.Chemscore.Lipo.Weighted>
-14.5382

> <Gold.Chemscore.Internal_Hbond.Weighted>
0.0000

> <Gold.Chemscore.DEClash.Weighted>
1.7580

> <Gold.Chemscore.DEInternal.Weighted>
1.3754

> <Gold.Chemscore.Rot.Weighted>
3.0147

> <Gold.Chemscore.Internal.Correction.Weighted>
   9.000000E+99

> <Gold.Protein.RotatedTorsions>
[ 6907 6896 6895 6894 ] final -139.54 input  -60.11 | X-H torsion
[ 7974 7965 7964 7962 ] final  -57.93 input  175.53 | X-H torsion
[ 8008 7997 7996 7995 ] final  -98.11 input   59.86 | X-H torsion
[ 10167 10162 10161 10158 ] final  -87.59 input  -65.29 | X-H torsion
[ 10718 10713 10712 10709 ] final  -18.32 input   66.30 | X-H torsion
[ 10763 10752 10751 10750 ] final  -53.34 input  -60.55 | X-H torsion
[ 11005 11000 10999 10996 ] final  -87.20 input  -57.11 | X-H torsion

> <Gold.Protein.ActiveResidues>
 VAL166  LYS551  ARG553  GLY616  TRP617  ASP618  TYR619  PRO620  LYS621  CYS622 
 ASP623  PHE694  ASN695  SER759  ASP760  ASP761  ALA762  ILE779  LEU786  VAL792 
 PHE793  MET794  SER795  GLU796  ALA797  LYS798  CYS799  TRP800  GLU811  SER814 

> <Gold.Protein.RotatedAtoms>
  151.0491  133.5640  159.2643 H   0  0  0  0  0  0  0  0  0  0  0  0  # atno 6907 bound_to 6896
  151.2657  135.0668  159.9125 H   0  0  0  0  0  0  0  0  0  0  0  0  # atno 6908 bound_to 6896
  152.5378  134.0229  159.8044 H   0  0  0  0  0  0  0  0  0  0  0  0  # atno 6909 bound_to 6896
  145.8452  140.8390  143.0014 H   0  0  0  0  0  0  0  0  0  0  0  0  # atno 7974 bound_to 7965
  154.7967  140.0458  157.1242 H   0  0  0  0  0  0  0  0  0  0  0  0  # atno 8008 bound_to 7997
  154.9526  140.3067  155.5048 H   0  0  0  0  0  0  0  0  0  0  0  0  # atno 8009 bound_to 7997
  156.2957  140.2285  156.4605 H   0  0  0  0  0  0  0  0  0  0  0  0  # atno 8010 bound_to 7997
  140.3829  143.2740  151.9361 H   0  0  0  0  0  0  0  0  0  0  0  0  # atno 10167 bound_to 10162
  156.5612  130.4726  149.6406 H   0  0  0  0  0  0  0  0  0  0  0  0  # atno 10718 bound_to 10713
  154.1573  135.6480  153.4977 H   0  0  0  0  0  0  0  0  0  0  0  0  # atno 10763 bound_to 10752
  153.0120  135.5352  154.6747 H   0  0  0  0  0  0  0  0  0  0  0  0  # atno 10764 bound_to 10752
  154.6051  135.2948  155.0465 H   0  0  0  0  0  0  0  0  0  0  0  0  # atno 10765 bound_to 10752
  141.1620  133.7497  156.9272 H   0  0  0  0  0  0  0  0  0  0  0  0  # atno 11005 bound_to 11000
  144.6731  140.0872  143.7467 LP  0  0  0  0  0  0  0  0  0  0  0  0  # atno 17320 bound_to 7965
  145.9420  139.2675  143.1263 LP  0  0  0  0  0  0  0  0  0  0  0  0  # atno 17321 bound_to 7965
  139.4794  144.5801  151.7947 LP  0  0  0  0  0  0  0  0  0  0  0  0  # atno 17342 bound_to 10162
  140.4918  144.1298  150.5952 LP  0  0  0  0  0  0  0  0  0  0  0  0  # atno 17343 bound_to 10162
  156.2797  130.7064  151.1885 LP  0  0  0  0  0  0  0  0  0  0  0  0  # atno 17370 bound_to 10713
  157.7368  131.0558  150.5392 LP  0  0  0  0  0  0  0  0  0  0  0  0  # atno 17371 bound_to 10713
  140.1411  134.9293  157.2468 LP  0  0  0  0  0  0  0  0  0  0  0  0  # atno 17394 bound_to 11000
  140.2835  134.3322  155.7336 LP  0  0  0  0  0  0  0  0  0  0  0  0  # atno 17395 bound_to 11000

$$$$
