AV-unprocessed.smi:3318|AV-procd|sdf|12763|dock6
  -GOLD-   2272019103D 1   1.00000     0.00000
 Structure written by MMmdl.
 45 46  0  0  0  0  0  0  0  0  3 V2000
  141.4481  140.8880  156.3752 C   0  0  0  0  0  0  0  0  0  0  0  0
  142.6997  141.4040  155.6570 C   0  0  0  0  0  0  0  0  0  0  0  0
  143.9236  140.5021  155.8947 C   0  0  0  0  0  0  0  0  0  0  0  0
  145.0781  140.8610  155.0311 N   0  3  2  0  0  0  0  0  0  0  0  0
  146.2635  139.9872  155.2396 C   0  0  0  0  0  0  0  0  0  0  0  0
  147.3870  140.3216  154.2416 C   0  0  0  0  0  0  0  0  0  0  0  0
  147.8004  141.8064  154.3011 C   0  0  2  0  0  0  0  0  0  0  0  0
  148.5424  142.1463  155.5390 N   0  3  0  0  0  0  0  0  0  0  0  0
  149.9593  141.7255  155.5645 C   0  0  0  0  0  0  0  0  0  0  0  0
  150.3553  141.2174  156.9578 C   0  0  0  0  0  0  0  0  0  0  0  0
  151.1303  142.2552  157.7471 C   0  0  0  0  0  0  0  0  0  0  0  0
  151.3554  143.5445  157.2195 C   0  0  0  0  0  0  0  0  0  0  0  0
  152.0773  144.4703  157.9977 C   0  0  0  0  0  0  0  0  0  0  0  0
  152.5413  144.0736  159.2667 C   0  0  0  0  0  0  0  0  0  0  0  0
  152.2623  142.7632  159.7035 C   0  0  0  0  0  0  0  0  0  0  0  0
  151.5707  141.8680  158.9652 N   0  0  0  0  0  0  0  0  0  0  0  0
  146.5468  142.6871  154.1549 C   0  0  0  0  0  0  0  0  0  0  0  0
  145.4372  142.2981  155.1497 C   0  0  0  0  0  0  0  0  0  0  0  0
  140.5954  141.5414  156.1880 H   0  0  0  0  0  0  0  0  0  0  0  0
  141.6006  140.8440  157.4540 H   0  0  0  0  0  0  0  0  0  0  0  0
  141.1812  139.8879  156.0327 H   0  0  0  0  0  0  0  0  0  0  0  0
  142.4782  141.4806  154.5929 H   0  0  0  0  0  0  0  0  0  0  0  0
  142.9168  142.4156  156.0020 H   0  0  0  0  0  0  0  0  0  0  0  0
  144.2172  140.6075  156.9402 H   0  0  0  0  0  0  0  0  0  0  0  0
  143.6649  139.4516  155.7525 H   0  0  0  0  0  0  0  0  0  0  0  0
  146.6229  140.0948  156.2641 H   0  0  0  0  0  0  0  0  0  0  0  0
  145.9892  138.9407  155.1133 H   0  0  0  0  0  0  0  0  0  0  0  0
  148.2416  139.6659  154.4052 H   0  0  0  0  0  0  0  0  0  0  0  0
  147.0348  140.0956  153.2340 H   0  0  0  0  0  0  0  0  0  0  0  0
  148.4592  142.0245  153.4590 H   0  0  0  0  0  0  0  0  0  0  0  0
  148.5343  143.1524  155.6323 H   0  0  0  0  0  0  0  0  0  0  0  0
  150.1286  140.9390  154.8292 H   0  0  0  0  0  0  0  0  0  0  0  0
  150.5895  142.5711  155.2850 H   0  0  0  0  0  0  0  0  0  0  0  0
  149.4645  140.9389  157.5232 H   0  0  0  0  0  0  0  0  0  0  0  0
  150.9577  140.3123  156.8683 H   0  0  0  0  0  0  0  0  0  0  0  0
  150.9866  143.8211  156.2426 H   0  0  0  0  0  0  0  0  0  0  0  0
  152.2714  145.4666  157.6278 H   0  0  0  0  0  0  0  0  0  0  0  0
  153.0980  144.7569  159.8911 H   0  0  0  0  0  0  0  0  0  0  0  0
  152.6026  142.4255  160.6713 H   0  0  0  0  0  0  0  0  0  0  0  0
  146.8065  143.7397  154.2750 H   0  0  0  0  0  0  0  0  0  0  0  0
  146.1592  142.5878  153.1399 H   0  0  0  0  0  0  0  0  0  0  0  0
  144.5576  142.9135  154.9558 H   0  0  0  0  0  0  0  0  0  0  0  0
  145.7510  142.5123  156.1724 H   0  0  0  0  0  0  0  0  0  0  0  0
  144.7717  140.7240  154.0780 H   0  0  0  0  0  0  0  0  0  0  0  0
  148.0646  141.7485  156.3348 H   0  0  0  0  0  0  0  0  0  0  0  0
  1  2  1  0  0  0  0
  1 19  1  0  0  0  0
  1 20  1  0  0  0  0
  1 21  1  0  0  0  0
  2  3  1  0  0  0  0
  2 22  1  0  0  0  0
  2 23  1  0  0  0  0
  3  4  1  0  0  0  0
  3 24  1  0  0  0  0
  3 25  1  0  0  0  0
  4 18  1  0  0  0  0
  4  5  1  0  0  0  0
  4 44  1  0  0  0  0
  5  6  1  0  0  0  0
  5 26  1  0  0  0  0
  5 27  1  0  0  0  0
  6  7  1  0  0  0  0
  6 28  1  0  0  0  0
  6 29  1  0  0  0  0
  7  8  1  0  0  0  0
  7 17  1  0  0  0  0
  7 30  1  0  0  0  0
  8  9  1  0  0  0  0
  8 31  1  0  0  0  0
  8 45  1  0  0  0  0
  9 10  1  0  0  0  0
  9 32  1  0  0  0  0
  9 33  1  0  0  0  0
 10 11  1  0  0  0  0
 10 34  1  0  0  0  0
 10 35  1  0  0  0  0
 11 16  1  0  0  0  0
 11 12  2  0  0  0  0
 12 13  1  0  0  0  0
 12 36  1  0  0  0  0
 13 14  2  0  0  0  0
 13 37  1  0  0  0  0
 14 15  1  0  0  0  0
 14 38  1  0  0  0  0
 15 16  2  0  0  0  0
 15 39  1  0  0  0  0
 17 18  1  0  0  0  0
 17 40  1  0  0  0  0
 17 41  1  0  0  0  0
 18 42  1  0  0  0  0
 18 43  1  0  0  0  0
M  CHG  1   4   1
M  CHG  1   8   1
M  END
> <s_m_source_file>
AV-unprocessed.smi

> <i_m_source_file_index>
3318

> <i_lp_mmshare_version>
43012

> <i_f3d_flags>
0

> <s_epik_input>
W0NIM11bQ0gyXVtDSDJdTjFbQ0gyXVtDSDJdW0NIXShbQ0gyXVtDSDJdMSlbTkhdW0NIMl1bQ0gyXWMyW2NIXVtjSF1bY0hdW2NIXW4y

> <s_epik_cmdline>
J2VwaWtfcHl0aG9uJywgJy1waCcsICc3LjAnLCAnLXRuJywgJzgnLCAnLW1hJywgJzIwMCcsICctbWV0YWxfYmluZGluZycsICctaW1hZScsICc8aW5maWxlLm1hZT4nLCAnLW9tYWUnLCAnPG91dGZpbGUubWFlPic=

> <r_epik_Ionization_Penalty>
0.0638186

> <r_epik_Ionization_Penalty_Charging>
0.0628538

> <r_epik_Ionization_Penalty_Neutral>
0.000964829

> <r_epik_State_Penalty>
0.0518488

> <r_epik_Charging_Adjusted_Penalty>
0.114703

> <i_epik_Tot_Q>
2

> <i_epik_Tot_abs_Q>
2

> <r_epik_Metal_State_Penalty>
0.0535981

> <b_epik_Metal_Only>
0

> <s_lp_Force_Field>
OPLS_2005

> <r_lp_Energy>
29.7366

> <b_lp_Chiralities_Consistent>
1

> <s_lp_Variant>
AV-unprocessed.smi:3318-2

> <Gold.Version>
5.8.1

> <Gold.Id.Protein>
6NUR|6NUR_protein|mol2

> <Gold.PLP.Fitness>
46.5621

> <Gold.PLP.PLP>
-36.0205

> <Gold.PLP.part.hbond>
-2.0000

> <Gold.PLP.part.metal>
0.0000

> <Gold.PLP.part.buried>
-4.0483

> <Gold.PLP.part.nonpolar>
-31.4923

> <Gold.PLP.part.repulsive>
0.1206

> <Gold.PLP.ligand.clash>
0.0000

> <Gold.PLP.ligand.torsion>
0.7708

> <Gold.PLP.Chemscore.Hbond>
4.0000

> <Gold.PLP.Chemscore.CHOScore>
0.0000

> <Gold.PLP.Chemscore.Metal>
0.0000

> <Gold.Chemscore.Hbonds>
donor molecule, donor type, donor heavy atom, donor atom, acceptor molecule, acceptor atom, score
      L1  H     4    44       P1 10175  2.00
      L1  H     8    31       P1  8028  2.00

> <Gold.PLP.Chemscore.Internal.Correction>
0.0832

> <Gold.Rescore>
     Score         DG    S(hbond)    S(metal)    S(lipo)     H(rot)  DE(clash)    DE(int)     intcor
     19.00     -19.77       1.97        0.00     100.02       1.55       0.09       0.68       ----

> <Gold.Chemscore.Fitness>
18.9967

> <Gold.Chemscore.DG>
-19.7706

> <Gold.Chemscore.ZeroCoef>
-5.4800

> <Gold.Chemscore.Hbond>
1.9655

> <Gold.Chemscore.Metal>
0.0000

> <Gold.Chemscore.Lipo>
100.0179

> <Gold.Chemscore.Internal_Hbond>
0.0000

> <Gold.Chemscore.DEClash>
0.0920

> <Gold.Chemscore.DEInternal>
0.6819

> <Gold.Chemscore.Rot>
1.5532

> <Gold.Chemscore.Internal.Correction>
   9.000000E+99

> <Gold.Chemscore.Hbonds>
donor molecule, donor type, donor heavy atom, donor atom, acceptor molecule, acceptor atom, score
      L1  H     4    44       P1 10175  0.97
      L1  H     8    31       P1  8028  0.98

> <Gold.Chemscore.Hbond.Weighted>
-6.5647

> <Gold.Chemscore.Metal.Weighted>
-0.0000

> <Gold.Chemscore.Lipo.Weighted>
-11.7021

> <Gold.Chemscore.Internal_Hbond.Weighted>
0.0000

> <Gold.Chemscore.DEClash.Weighted>
0.0920

> <Gold.Chemscore.DEInternal.Weighted>
0.6819

> <Gold.Chemscore.Rot.Weighted>
3.9762

> <Gold.Chemscore.Internal.Correction.Weighted>
   9.000000E+99

> <Gold.Protein.RotatedTorsions>
[ 6907 6896 6895 6894 ] final  123.94 input  -60.11 | X-H torsion
[ 7974 7965 7964 7962 ] final   78.33 input  175.53 | X-H torsion
[ 8008 7997 7996 7995 ] final -161.08 input   59.86 | X-H torsion
[ 10167 10162 10161 10158 ] final   85.02 input  -65.29 | X-H torsion
[ 10718 10713 10712 10709 ] final  168.79 input   66.30 | X-H torsion
[ 10763 10752 10751 10750 ] final -132.43 input  -60.55 | X-H torsion
[ 11005 11000 10999 10996 ] final  -13.68 input  -57.11 | X-H torsion

> <Gold.Protein.ActiveResidues>
 VAL166  LYS551  ARG553  GLY616  TRP617  ASP618  TYR619  PRO620  LYS621  CYS622 
 ASP623  PHE694  ASN695  SER759  ASP760  ASP761  ALA762  ILE779  LEU786  VAL792 
 PHE793  MET794  SER795  GLU796  ALA797  LYS798  CYS799  TRP800  GLU811  SER814 

> <Gold.Protein.RotatedAtoms>
  152.4119  133.6977  159.6405 H   0  0  0  0  0  0  0  0  0  0  0  0  # atno 6907 bound_to 6896
  150.7999  133.8608  159.3240 H   0  0  0  0  0  0  0  0  0  0  0  0  # atno 6908 bound_to 6896
  151.6348  135.1021  160.0180 H   0  0  0  0  0  0  0  0  0  0  0  0  # atno 6909 bound_to 6896
  145.6785  139.2517  143.1828 H   0  0  0  0  0  0  0  0  0  0  0  0  # atno 7974 bound_to 7965
  155.7870  140.0873  157.2029 H   0  0  0  0  0  0  0  0  0  0  0  0  # atno 8008 bound_to 7997
  154.3987  140.1497  156.3176 H   0  0  0  0  0  0  0  0  0  0  0  0  # atno 8009 bound_to 7997
  155.8597  140.3431  155.5751 H   0  0  0  0  0  0  0  0  0  0  0  0  # atno 8010 bound_to 7997
  139.9021  144.6323  150.8626 H   0  0  0  0  0  0  0  0  0  0  0  0  # atno 10167 bound_to 10162
  157.0320  131.0262  151.2741 H   0  0  0  0  0  0  0  0  0  0  0  0  # atno 10718 bound_to 10713
  154.8743  135.3798  154.4409 H   0  0  0  0  0  0  0  0  0  0  0  0  # atno 10763 bound_to 10752
  153.5094  135.7030  153.5794 H   0  0  0  0  0  0  0  0  0  0  0  0  # atno 10764 bound_to 10752
  153.4090  135.3929  155.2004 H   0  0  0  0  0  0  0  0  0  0  0  0  # atno 10765 bound_to 10752
  140.7786  133.8381  155.9271 H   0  0  0  0  0  0  0  0  0  0  0  0  # atno 11005 bound_to 11000
  146.0985  140.7572  142.9561 LP  0  0  0  0  0  0  0  0  0  0  0  0  # atno 17320 bound_to 7965
  144.7034  140.3749  143.7138 LP  0  0  0  0  0  0  0  0  0  0  0  0  # atno 17321 bound_to 7965
  140.7704  143.3429  151.2171 LP  0  0  0  0  0  0  0  0  0  0  0  0  # atno 17342 bound_to 10162
  139.7016  143.9523  152.2908 LP  0  0  0  0  0  0  0  0  0  0  0  0  # atno 17343 bound_to 10162
  157.5170  130.7974  149.7767 LP  0  0  0  0  0  0  0  0  0  0  0  0  # atno 17370 bound_to 10713
  156.0066  130.3852  150.2409 LP  0  0  0  0  0  0  0  0  0  0  0  0  # atno 17371 bound_to 10713
  140.9505  134.1785  157.4731 LP  0  0  0  0  0  0  0  0  0  0  0  0  # atno 17394 bound_to 11000
  139.8745  134.9907  156.5515 LP  0  0  0  0  0  0  0  0  0  0  0  0  # atno 17395 bound_to 11000

$$$$
