AV-unprocessed.smi:1244|AV-procd|sdf|5225|dock8
  -GOLD-   22720 4323D 1   1.00000     0.00000
 Structure written by MMmdl.
 55 57  0  0  0  0  0  0  0  0  2 V2000
  145.3945  135.0088  154.5719 C   0  0  0  0  0  0  0  0  0  0  0  0
  146.8806  135.2426  154.2795 C   0  0  1  0  0  0  0  0  0  0  0  0
  147.3846  136.5765  154.8615 C   0  0  0  0  0  0  0  0  0  0  0  0
  148.8383  136.7330  154.6200 N   0  3  1  0  0  0  0  0  0  0  0  0
  149.3600  138.0315  155.1131 C   0  0  0  0  0  0  0  0  0  0  0  0
  150.8879  138.0111  155.3021 C   0  0  0  0  0  0  0  0  0  0  0  0
  151.2908  138.8314  156.4382 N   0  0  0  0  0  0  0  0  0  0  0  0
  151.3026  140.1716  156.4467 C   0  0  0  0  0  0  0  0  0  0  0  0
  150.9574  140.8569  155.4842 O   0  0  0  0  0  0  0  0  0  0  0  0
  151.7244  140.6462  157.6308 N   0  0  0  0  0  0  0  0  0  0  0  0
  151.8177  142.0001  158.0629 C   0  0  0  0  0  0  0  0  0  0  0  0
  151.4235  143.0790  157.2331 C   0  0  0  0  0  0  0  0  0  0  0  0
  151.5976  144.3982  157.6852 C   0  0  0  0  0  0  0  0  0  0  0  0
  152.1779  144.5965  158.9485 C   0  0  0  0  0  0  0  0  0  0  0  0
  152.5726  143.5828  159.7438 N   0  0  0  0  0  0  0  0  0  0  0  0
  152.3973  142.3039  159.3290 C   0  0  0  0  0  0  0  0  0  0  0  0
  152.8199  141.2841  160.2131 N   0  0  0  0  0  0  0  0  0  0  0  0
  153.8288  140.3155  159.7974 C   0  0  0  0  0  0  0  0  0  0  0  0
  154.2924  139.6484  161.0890 C   0  0  0  0  0  0  0  0  0  0  0  0
  154.2315  140.7981  162.0898 C   0  0  0  0  0  0  0  0  0  0  0  0
  153.0361  141.6313  161.6147 C   0  0  0  0  0  0  0  0  0  0  0  0
  149.5778  135.5622  155.1530 C   0  0  0  0  0  0  0  0  0  0  0  0
  149.0131  134.2532  154.5691 C   0  0  1  0  0  0  0  0  0  0  0  0
  149.6943  133.0154  155.1628 C   0  0  0  0  0  0  0  0  0  0  0  0
  147.6217  134.1751  154.8597 O   0  0  0  0  0  0  0  0  0  0  0  0
  144.7803  135.7977  154.1376 H   0  0  0  0  0  0  0  0  0  0  0  0
  145.2014  134.9860  155.6449 H   0  0  0  0  0  0  0  0  0  0  0  0
  145.0597  134.0594  154.1533 H   0  0  0  0  0  0  0  0  0  0  0  0
  147.0257  135.2339  153.1977 H   0  0  0  0  0  0  0  0  0  0  0  0
  146.8445  137.4041  154.3999 H   0  0  0  0  0  0  0  0  0  0  0  0
  147.1869  136.6214  155.9339 H   0  0  0  0  0  0  0  0  0  0  0  0
  149.1207  138.8136  154.3907 H   0  0  0  0  0  0  0  0  0  0  0  0
  148.8510  138.3039  156.0393 H   0  0  0  0  0  0  0  0  0  0  0  0
  151.2610  136.9954  155.4381 H   0  0  0  0  0  0  0  0  0  0  0  0
  151.3776  138.4035  154.4104 H   0  0  0  0  0  0  0  0  0  0  0  0
  151.5835  138.3459  157.2738 H   0  0  0  0  0  0  0  0  0  0  0  0
  151.8991  139.9569  158.3475 H   0  0  0  0  0  0  0  0  0  0  0  0
  151.0123  142.9216  156.2481 H   0  0  0  0  0  0  0  0  0  0  0  0
  151.3049  145.2375  157.0720 H   0  0  0  0  0  0  0  0  0  0  0  0
  152.3358  145.5947  159.3292 H   0  0  0  0  0  0  0  0  0  0  0  0
  153.4190  139.5927  159.0918 H   0  0  0  0  0  0  0  0  0  0  0  0
  154.6748  140.8161  159.3248 H   0  0  0  0  0  0  0  0  0  0  0  0
  153.5908  138.8645  161.3778 H   0  0  0  0  0  0  0  0  0  0  0  0
  155.2847  139.2044  161.0060 H   0  0  0  0  0  0  0  0  0  0  0  0
  154.1299  140.4604  163.1216 H   0  0  0  0  0  0  0  0  0  0  0  0
  155.1437  141.3922  162.0194 H   0  0  0  0  0  0  0  0  0  0  0  0
  153.2149  142.6987  161.7514 H   0  0  0  0  0  0  0  0  0  0  0  0
  152.1474  141.3605  162.1848 H   0  0  0  0  0  0  0  0  0  0  0  0
  150.6368  135.6406  154.9086 H   0  0  0  0  0  0  0  0  0  0  0  0
  149.5026  135.5496  156.2417 H   0  0  0  0  0  0  0  0  0  0  0  0
  149.1550  134.2414  153.4869 H   0  0  0  0  0  0  0  0  0  0  0  0
  150.7656  133.0217  154.9610 H   0  0  0  0  0  0  0  0  0  0  0  0
  149.2817  132.1009  154.7364 H   0  0  0  0  0  0  0  0  0  0  0  0
  149.5572  132.9695  156.2436 H   0  0  0  0  0  0  0  0  0  0  0  0
  148.9592  136.7324  153.6171 H   0  0  0  0  0  0  0  0  0  0  0  0
  1  2  1  0  0  0  0
  1 26  1  0  0  0  0
  1 27  1  0  0  0  0
  1 28  1  0  0  0  0
  2 25  1  0  0  0  0
  2  3  1  0  0  0  0
  2 29  1  0  0  0  0
  3  4  1  0  0  0  0
  3 30  1  0  0  0  0
  3 31  1  0  0  0  0
  4  5  1  0  0  0  0
  4 22  1  0  0  0  0
  4 55  1  0  0  0  0
  5  6  1  0  0  0  0
  5 32  1  0  0  0  0
  5 33  1  0  0  0  0
  6  7  1  0  0  0  0
  6 34  1  0  0  0  0
  6 35  1  0  0  0  0
  7  8  1  0  0  0  0
  7 36  1  0  0  0  0
  8  9  2  0  0  0  0
  8 10  1  0  0  0  0
 10 11  1  0  0  0  0
 10 37  1  0  0  0  0
 11 16  1  0  0  0  0
 11 12  2  0  0  0  0
 12 13  1  0  0  0  0
 12 38  1  0  0  0  0
 13 14  2  0  0  0  0
 13 39  1  0  0  0  0
 14 15  1  0  0  0  0
 14 40  1  0  0  0  0
 15 16  2  0  0  0  0
 16 17  1  0  0  0  0
 17 21  1  0  0  0  0
 17 18  1  0  0  0  0
 18 19  1  0  0  0  0
 18 41  1  0  0  0  0
 18 42  1  0  0  0  0
 19 20  1  0  0  0  0
 19 43  1  0  0  0  0
 19 44  1  0  0  0  0
 20 21  1  0  0  0  0
 20 45  1  0  0  0  0
 20 46  1  0  0  0  0
 21 47  1  0  0  0  0
 21 48  1  0  0  0  0
 22 23  1  0  0  0  0
 22 49  1  0  0  0  0
 22 50  1  0  0  0  0
 23 24  1  0  0  0  0
 23 25  1  0  0  0  0
 23 51  1  0  0  0  0
 24 52  1  0  0  0  0
 24 53  1  0  0  0  0
 24 54  1  0  0  0  0
M  CHG  1   4   1
M  END
> <s_m_source_file>
AV-unprocessed.smi

> <i_m_source_file_index>
1244

> <i_lp_mmshare_version>
43012

> <i_f3d_flags>
0

> <s_epik_input>
W0NIM11bQ0BASF0xW0NIMl1OKFtDSDJdW0NASF0oTzEpW0NIM10pW0NIMl1bQ0gyXVtOSF1DKD1PKVtOSF1jMltjSF1bY0hdW2NIXW5jMk4zW0NIMl1bQ0gyXVtDSDJdW0NIMl0z

> <s_epik_cmdline>
J2VwaWtfcHl0aG9uJywgJy1waCcsICc3LjAnLCAnLXRuJywgJzgnLCAnLW1hJywgJzIwMCcsICctbWV0YWxfYmluZGluZycsICctaW1hZScsICc8aW5maWxlLm1hZT4nLCAnLW9tYWUnLCAnPG91dGZpbGUubWFlPic=

> <r_lp_tautomer_probability>
1

> <r_epik_Ionization_Penalty>
0.684913

> <r_epik_Ionization_Penalty_Charging>
0.602531

> <r_epik_Ionization_Penalty_Neutral>
0.0823829

> <r_epik_State_Penalty>
0.678827

> <r_epik_Charging_Adjusted_Penalty>
1.28136

> <i_epik_Tot_Q>
1

> <i_epik_Tot_abs_Q>
1

> <r_epik_Metal_State_Penalty>
0.67806

> <b_epik_Metal_Only>
0

> <s_lp_Force_Field>
OPLS_2005

> <r_lp_Energy>
42.8464

> <b_lp_Chiralities_Consistent>
1

> <s_lp_Variant>
AV-unprocessed.smi:1244-5

> <Gold.Version>
5.8.1

> <Gold.Id.Protein>
6NUR|6NUR_protein|mol2

> <Gold.PLP.Fitness>
49.1438

> <Gold.PLP.PLP>
-42.0619

> <Gold.PLP.part.hbond>
-2.0000

> <Gold.PLP.part.metal>
0.0000

> <Gold.PLP.part.buried>
-4.8667

> <Gold.PLP.part.nonpolar>
-34.8831

> <Gold.PLP.part.repulsive>
0.2792

> <Gold.PLP.ligand.clash>
0.0000

> <Gold.PLP.ligand.torsion>
0.7838

> <Gold.PLP.Chemscore.Hbond>
2.7613

> <Gold.PLP.Chemscore.CHOScore>
0.0000

> <Gold.PLP.Chemscore.Metal>
0.0000

> <Gold.Chemscore.Hbonds>
donor molecule, donor type, donor heavy atom, donor atom, acceptor molecule, acceptor atom, score
      L1  H     4    55       P1  7948  2.00
      P1  H  7989  7998       L1     9  0.66

> <Gold.PLP.Chemscore.Internal.Correction>
0.3657

> <Gold.Rescore>
     Score         DG    S(hbond)    S(metal)    S(lipo)     H(rot)  DE(clash)    DE(int)     intcor
     18.11     -20.76       1.80        0.00     114.27       1.60       0.52       2.14       ----

> <Gold.Chemscore.Fitness>
18.1054

> <Gold.Chemscore.DG>
-20.7567

> <Gold.Chemscore.ZeroCoef>
-5.4800

> <Gold.Chemscore.Hbond>
1.7957

> <Gold.Chemscore.Metal>
0.0000

> <Gold.Chemscore.Lipo>
114.2691

> <Gold.Chemscore.Internal_Hbond>
0.0000

> <Gold.Chemscore.DEClash>
0.5156

> <Gold.Chemscore.DEInternal>
2.1357

> <Gold.Chemscore.Rot>
1.5978

> <Gold.Chemscore.Internal.Correction>
   9.000000E+99

> <Gold.Chemscore.Hbonds>
donor molecule, donor type, donor heavy atom, donor atom, acceptor molecule, acceptor atom, score
      L1  H     4    55       P1  7948  1.00
      P1  H  7989  7998       L1     9  0.64

> <Gold.Chemscore.Hbond.Weighted>
-5.9977

> <Gold.Chemscore.Metal.Weighted>
-0.0000

> <Gold.Chemscore.Lipo.Weighted>
-13.3695

> <Gold.Chemscore.Internal_Hbond.Weighted>
0.0000

> <Gold.Chemscore.DEClash.Weighted>
0.5156

> <Gold.Chemscore.DEInternal.Weighted>
2.1357

> <Gold.Chemscore.Rot.Weighted>
4.0905

> <Gold.Chemscore.Internal.Correction.Weighted>
   9.000000E+99

> <Gold.Protein.RotatedTorsions>
[ 6907 6896 6895 6894 ] final  125.12 input  -60.11 | X-H torsion
[ 7974 7965 7964 7962 ] final  164.42 input  175.53 | X-H torsion
[ 8008 7997 7996 7995 ] final -132.95 input   59.86 | X-H torsion
[ 10167 10162 10161 10158 ] final   21.12 input  -65.29 | X-H torsion
[ 10718 10713 10712 10709 ] final  -85.01 input   66.30 | X-H torsion
[ 10763 10752 10751 10750 ] final -131.63 input  -60.55 | X-H torsion
[ 11005 11000 10999 10996 ] final   77.27 input  -57.11 | X-H torsion

> <Gold.Protein.ActiveResidues>
 VAL166  LYS551  ARG553  GLY616  TRP617  ASP618  TYR619  PRO620  LYS621  CYS622 
 ASP623  PHE694  ASN695  SER759  ASP760  ASP761  ALA762  ILE779  LEU786  VAL792 
 PHE793  MET794  SER795  GLU796  ALA797  LYS798  CYS799  TRP800  GLU811  SER814 

> <Gold.Protein.RotatedAtoms>
  152.4020  133.6832  159.6323 H   0  0  0  0  0  0  0  0  0  0  0  0  # atno 6907 bound_to 6896
  150.7910  133.8775  159.3285 H   0  0  0  0  0  0  0  0  0  0  0  0  # atno 6908 bound_to 6896
  151.6538  135.1000  160.0217 H   0  0  0  0  0  0  0  0  0  0  0  0  # atno 6909 bound_to 6896
  144.7546  139.8324  143.6354 H   0  0  0  0  0  0  0  0  0  0  0  0  # atno 7974 bound_to 7965
  155.3374  140.0470  157.3044 H   0  0  0  0  0  0  0  0  0  0  0  0  # atno 8008 bound_to 7997
  154.5295  140.2252  155.8794 H   0  0  0  0  0  0  0  0  0  0  0  0  # atno 8009 bound_to 7997
  156.1774  140.3082  155.9091 H   0  0  0  0  0  0  0  0  0  0  0  0  # atno 8010 bound_to 7997
  140.5451  143.9609  150.6542 H   0  0  0  0  0  0  0  0  0  0  0  0  # atno 10167 bound_to 10162
  156.0000  130.4717  150.4497 H   0  0  0  0  0  0  0  0  0  0  0  0  # atno 10718 bound_to 10713
  154.8749  135.3824  154.4278 H   0  0  0  0  0  0  0  0  0  0  0  0  # atno 10763 bound_to 10752
  153.4975  135.7030  153.5855 H   0  0  0  0  0  0  0  0  0  0  0  0  # atno 10764 bound_to 10752
  153.4201  135.3903  155.2073 H   0  0  0  0  0  0  0  0  0  0  0  0  # atno 10765 bound_to 10752
  139.9262  134.7669  156.1500 H   0  0  0  0  0  0  0  0  0  0  0  0  # atno 11005 bound_to 11000
  146.1540  139.4631  143.0031 LP  0  0  0  0  0  0  0  0  0  0  0  0  # atno 17320 bound_to 7965
  145.6825  141.0187  143.1599 LP  0  0  0  0  0  0  0  0  0  0  0  0  # atno 17321 bound_to 7965
  140.3020  143.3254  152.0962 LP  0  0  0  0  0  0  0  0  0  0  0  0  # atno 17342 bound_to 10162
  139.5004  144.6691  151.6286 LP  0  0  0  0  0  0  0  0  0  0  0  0  # atno 17343 bound_to 10162
  157.2531  131.0550  151.2367 LP  0  0  0  0  0  0  0  0  0  0  0  0  # atno 17370 bound_to 10713
  157.3509  130.7081  149.6440 LP  0  0  0  0  0  0  0  0  0  0  0  0  # atno 17371 bound_to 10713
  141.0821  133.6750  156.2357 LP  0  0  0  0  0  0  0  0  0  0  0  0  # atno 17394 bound_to 11000
  140.6330  134.5244  157.5561 LP  0  0  0  0  0  0  0  0  0  0  0  0  # atno 17395 bound_to 11000

$$$$
