AV-unprocessed.smi:827|AV-procd|sdf|3856|dock6
  -GOLD-   22720 1303D 1   1.00000     0.00000
 Structure written by MMmdl.
 46 47  0  0  0  0  0  0  0  0  1 V2000
  146.5448  132.8945  150.6110 C   0  0  0  0  0  0  0  0  0  0  0  0
  146.4153  134.0847  151.3811 O   0  0  0  0  0  0  0  0  0  0  0  0
  145.1641  134.4313  151.8548 C   0  0  0  0  0  0  0  0  0  0  0  0
  144.1156  133.6227  151.5588 N   0  0  0  0  0  0  0  0  0  0  0  0
  142.8929  133.9613  152.0169 C   0  0  0  0  0  0  0  0  0  0  0  0
  142.6494  135.1177  152.7805 C   0  0  0  0  0  0  0  0  0  0  0  0
  143.7351  135.9578  153.0894 C   0  0  0  0  0  0  0  0  0  0  0  0
  145.0277  135.6066  152.6302 C   0  0  0  0  0  0  0  0  0  0  0  0
  146.1876  136.3938  152.8709 N   0  0  0  0  0  0  0  0  0  0  0  0
  146.3625  137.3635  153.7843 C   0  0  0  0  0  0  0  0  0  0  0  0
  145.5140  137.7425  154.5919 O   0  0  0  0  0  0  0  0  0  0  0  0
  147.6045  137.8648  153.7281 N   0  0  0  0  0  0  0  0  0  0  0  0
  148.1240  138.9038  154.6089 C   0  0  0  0  0  0  0  0  0  0  0  0
  149.1078  139.8235  153.8595 C   0  0  0  0  0  0  0  0  0  0  0  0
  150.4446  139.8093  154.4514 N   0  0  0  0  0  0  0  0  0  0  0  0
  150.3915  140.1093  155.8882 C   0  0  0  0  0  0  0  0  0  0  0  0
  151.8052  140.0561  156.4998 C   0  0  0  0  0  0  0  0  0  0  0  0
  152.3684  138.7204  156.2803 N   0  0  0  0  0  0  0  0  0  0  0  0
  152.6772  137.8186  157.2424 C   0  0  0  0  0  0  0  0  0  0  0  0
  152.4834  138.1978  158.7122 C   0  0  0  0  0  0  0  0  0  0  0  0
  153.1099  136.6948  156.9867 O   0  0  0  0  0  0  0  0  0  0  0  0
  152.4564  138.4300  154.8471 C   0  0  0  0  0  0  0  0  0  0  0  0
  151.0405  138.4855  154.2417 C   0  0  0  0  0  0  0  0  0  0  0  0
  147.5874  132.7642  150.3216 H   0  0  0  0  0  0  0  0  0  0  0  0
  145.9519  132.9452  149.6966 H   0  0  0  0  0  0  0  0  0  0  0  0
  146.2481  132.0138  151.1824 H   0  0  0  0  0  0  0  0  0  0  0  0
  142.0835  133.2935  151.7618 H   0  0  0  0  0  0  0  0  0  0  0  0
  141.6518  135.3574  153.1177 H   0  0  0  0  0  0  0  0  0  0  0  0
  143.5537  136.8574  153.6570 H   0  0  0  0  0  0  0  0  0  0  0  0
  147.0041  136.1318  152.3382 H   0  0  0  0  0  0  0  0  0  0  0  0
  148.2386  137.4941  153.0355 H   0  0  0  0  0  0  0  0  0  0  0  0
  147.2801  139.4859  154.9803 H   0  0  0  0  0  0  0  0  0  0  0  0
  148.5866  138.4353  155.4778 H   0  0  0  0  0  0  0  0  0  0  0  0
  149.1639  139.5585  152.8024 H   0  0  0  0  0  0  0  0  0  0  0  0
  148.7142  140.8400  153.9050 H   0  0  0  0  0  0  0  0  0  0  0  0
  149.9772  141.1032  156.0532 H   0  0  0  0  0  0  0  0  0  0  0  0
  149.7357  139.4004  156.3966 H   0  0  0  0  0  0  0  0  0  0  0  0
  152.4486  140.7989  156.0252 H   0  0  0  0  0  0  0  0  0  0  0  0
  151.7549  140.3404  157.5496 H   0  0  0  0  0  0  0  0  0  0  0  0
  151.4400  138.4415  158.9143 H   0  0  0  0  0  0  0  0  0  0  0  0
  153.1059  139.0529  158.9762 H   0  0  0  0  0  0  0  0  0  0  0  0
  152.7634  137.3687  159.3630 H   0  0  0  0  0  0  0  0  0  0  0  0
  153.1051  139.1636  154.3656 H   0  0  0  0  0  0  0  0  0  0  0  0
  152.9013  137.4557  154.6416 H   0  0  0  0  0  0  0  0  0  0  0  0
  150.4100  137.7146  154.6889 H   0  0  0  0  0  0  0  0  0  0  0  0
  151.0962  138.2744  153.1731 H   0  0  0  0  0  0  0  0  0  0  0  0
  1  2  1  0  0  0  0
  1 24  1  0  0  0  0
  1 25  1  0  0  0  0
  1 26  1  0  0  0  0
  2  3  1  0  0  0  0
  3  8  1  0  0  0  0
  3  4  2  0  0  0  0
  4  5  1  0  0  0  0
  5  6  2  0  0  0  0
  5 27  1  0  0  0  0
  6  7  1  0  0  0  0
  6 28  1  0  0  0  0
  7  8  2  0  0  0  0
  7 29  1  0  0  0  0
  8  9  1  0  0  0  0
  9 10  1  0  0  0  0
  9 30  1  0  0  0  0
 10 11  2  0  0  0  0
 10 12  1  0  0  0  0
 12 13  1  0  0  0  0
 12 31  1  0  0  0  0
 13 14  1  0  0  0  0
 13 32  1  0  0  0  0
 13 33  1  0  0  0  0
 14 15  1  0  0  0  0
 14 34  1  0  0  0  0
 14 35  1  0  0  0  0
 15 23  1  0  0  0  0
 15 16  1  0  0  0  0
 16 17  1  0  0  0  0
 16 36  1  0  0  0  0
 16 37  1  0  0  0  0
 17 18  1  0  0  0  0
 17 38  1  0  0  0  0
 17 39  1  0  0  0  0
 18 19  1  0  0  0  0
 18 22  1  0  0  0  0
 19 20  1  0  0  0  0
 19 21  2  0  0  0  0
 20 40  1  0  0  0  0
 20 41  1  0  0  0  0
 20 42  1  0  0  0  0
 22 23  1  0  0  0  0
 22 43  1  0  0  0  0
 22 44  1  0  0  0  0
 23 45  1  0  0  0  0
 23 46  1  0  0  0  0
M  END
> <s_m_source_file>
AV-unprocessed.smi

> <i_m_source_file_index>
827

> <i_lp_mmshare_version>
43012

> <i_f3d_flags>
0

> <s_epik_input>
W0NIM11PYzFuW2NIXVtjSF1bY0hdYzFbTkhdQyg9TylbTkhdW0NIMl1bQ0gyXU4yW0NIMl1bQ0gyXU4oQyg9TylbQ0gzXSlbQ0gyXVtDSDJdMg==

> <s_epik_cmdline>
J2VwaWtfcHl0aG9uJywgJy1waCcsICc3LjAnLCAnLXRuJywgJzgnLCAnLW1hJywgJzIwMCcsICctbWV0YWxfYmluZGluZycsICctaW1hZScsICc8aW5maWxlLm1hZT4nLCAnLW9tYWUnLCAnPG91dGZpbGUubWFlPic=

> <r_lp_tautomer_probability>
1

> <r_epik_Ionization_Penalty>
0.251055

> <r_epik_Ionization_Penalty_Charging>
0

> <r_epik_Ionization_Penalty_Neutral>
0.251055

> <r_epik_State_Penalty>
0.242297

> <r_epik_Charging_Adjusted_Penalty>
0.242297

> <i_epik_Tot_Q>
0

> <i_epik_Tot_abs_Q>
0

> <r_epik_Metal_State_Penalty>
0.242294

> <b_epik_Metal_Only>
0

> <s_lp_Force_Field>
OPLS_2005

> <r_lp_Energy>
35.7173

> <b_lp_Chiralities_Consistent>
1

> <s_lp_Variant>
AV-unprocessed.smi:827-1

> <Gold.Version>
5.8.1

> <Gold.Id.Protein>
6NUR|6NUR_protein|mol2

> <Gold.PLP.Fitness>
43.3579

> <Gold.PLP.PLP>
-31.5984

> <Gold.PLP.part.hbond>
-4.0000

> <Gold.PLP.part.metal>
0.0000

> <Gold.PLP.part.buried>
-2.8932

> <Gold.PLP.part.nonpolar>
-25.3341

> <Gold.PLP.part.repulsive>
0.5381

> <Gold.PLP.ligand.clash>
0.0000

> <Gold.PLP.ligand.torsion>
0.6415

> <Gold.PLP.Chemscore.Hbond>
4.0000

> <Gold.PLP.Chemscore.CHOScore>
0.3294

> <Gold.PLP.Chemscore.Metal>
0.0000

> <Gold.Chemscore.Hbonds>
donor molecule, donor type, donor heavy atom, donor atom, acceptor molecule, acceptor atom, score
      L1  H     9    30       P1  7948  1.00
      L1  H    12    31       P1  7948  1.00
      P1  H  7989  7998       L1    15  1.00
      P1  H 10752 10764       L1    21  0.71
      L1  C     5    27       P1 10186  0.29

> <Gold.PLP.Chemscore.Internal.Correction>
0.0541

> <Gold.Rescore>
     Score         DG    S(hbond)    S(metal)    S(lipo)     H(rot)  DE(clash)    DE(int)     intcor
     16.80     -18.84       3.04        0.00      67.38       1.83       0.18       1.86       ----

> <Gold.Chemscore.Fitness>
16.7959

> <Gold.Chemscore.DG>
-18.8399

> <Gold.Chemscore.ZeroCoef>
-5.4800

> <Gold.Chemscore.Hbond>
3.0409

> <Gold.Chemscore.Metal>
0.0000

> <Gold.Chemscore.Lipo>
67.3763

> <Gold.Chemscore.Internal_Hbond>
0.0000

> <Gold.Chemscore.DEClash>
0.1828

> <Gold.Chemscore.DEInternal>
1.8613

> <Gold.Chemscore.Rot>
1.8280

> <Gold.Chemscore.Internal.Correction>
   9.000000E+99

> <Gold.Chemscore.Hbonds>
donor molecule, donor type, donor heavy atom, donor atom, acceptor molecule, acceptor atom, score
      L1  H     9    30       P1  7948  0.95
      L1  H    12    31       P1  7948  0.99
      P1  H  7989  7998       L1    15  0.18
      P1  H 10752 10764       L1    21  0.69

> <Gold.Chemscore.Hbond.Weighted>
-10.1564

> <Gold.Chemscore.Metal.Weighted>
-0.0000

> <Gold.Chemscore.Lipo.Weighted>
-7.8830

> <Gold.Chemscore.Internal_Hbond.Weighted>
0.0000

> <Gold.Chemscore.DEClash.Weighted>
0.1828

> <Gold.Chemscore.DEInternal.Weighted>
1.8613

> <Gold.Chemscore.Rot.Weighted>
4.6796

> <Gold.Chemscore.Internal.Correction.Weighted>
   9.000000E+99

> <Gold.Protein.RotatedTorsions>
[ 6907 6896 6895 6894 ] final  -73.10 input  -60.11 | X-H torsion
[ 7974 7965 7964 7962 ] final  -44.62 input  175.53 | X-H torsion
[ 8008 7997 7996 7995 ] final -178.05 input   59.86 | X-H torsion
[ 10167 10162 10161 10158 ] final  117.41 input  -65.29 | X-H torsion
[ 10718 10713 10712 10709 ] final -105.78 input   66.30 | X-H torsion
[ 10763 10752 10751 10750 ] final   -1.57 input  -60.55 | X-H torsion
[ 11005 11000 10999 10996 ] final  169.88 input  -57.11 | X-H torsion

> <Gold.Protein.ActiveResidues>
 VAL166  LYS551  ARG553  GLY616  TRP617  ASP618  TYR619  PRO620  LYS621  CYS622 
 ASP623  PHE694  ASN695  SER759  ASP760  ASP761  ALA762  ILE779  LEU786  VAL792 
 PHE793  MET794  SER795  GLU796  ALA797  LYS798  CYS799  TRP800  GLU811  SER814 

> <Gold.Protein.RotatedAtoms>
  150.7143  134.5065  159.5586 H   0  0  0  0  0  0  0  0  0  0  0  0  # atno 6907 bound_to 6896
  152.2651  134.7990  160.0433 H   0  0  0  0  0  0  0  0  0  0  0  0  # atno 6908 bound_to 6896
  151.8690  133.3436  159.3765 H   0  0  0  0  0  0  0  0  0  0  0  0  # atno 6909 bound_to 6896
  145.9902  140.7189  142.9321 H   0  0  0  0  0  0  0  0  0  0  0  0  # atno 7974 bound_to 7965
  156.0143  140.1247  157.0423 H   0  0  0  0  0  0  0  0  0  0  0  0  # atno 8008 bound_to 7997
  154.4287  140.1081  156.5943 H   0  0  0  0  0  0  0  0  0  0  0  0  # atno 8009 bound_to 7997
  155.6036  140.3471  155.4603 H   0  0  0  0  0  0  0  0  0  0  0  0  # atno 8010 bound_to 7997
  139.6181  144.7096  151.2695 H   0  0  0  0  0  0  0  0  0  0  0  0  # atno 10167 bound_to 10162
  156.0361  130.5580  150.7588 H   0  0  0  0  0  0  0  0  0  0  0  0  # atno 10718 bound_to 10713
  153.3466  135.6983  153.6823 H   0  0  0  0  0  0  0  0  0  0  0  0  # atno 10763 bound_to 10752
  153.5566  135.3543  155.2782 H   0  0  0  0  0  0  0  0  0  0  0  0  # atno 10764 bound_to 10752
  154.8646  135.4239  154.2692 H   0  0  0  0  0  0  0  0  0  0  0  0  # atno 10765 bound_to 10752
  140.3025  134.7584  157.3927 H   0  0  0  0  0  0  0  0  0  0  0  0  # atno 11005 bound_to 11000
  144.6886  140.3057  143.7256 LP  0  0  0  0  0  0  0  0  0  0  0  0  # atno 17320 bound_to 7965
  145.7641  139.1835  143.2250 LP  0  0  0  0  0  0  0  0  0  0  0  0  # atno 17321 bound_to 7965
  140.7364  143.6708  150.8083 LP  0  0  0  0  0  0  0  0  0  0  0  0  # atno 17342 bound_to 10162
  140.0315  143.5439  152.2758 LP  0  0  0  0  0  0  0  0  0  0  0  0  # atno 17343 bound_to 10162
  157.5113  131.0925  151.0195 LP  0  0  0  0  0  0  0  0  0  0  0  0  # atno 17370 bound_to 10713
  157.0550  130.5802  149.5376 LP  0  0  0  0  0  0  0  0  0  0  0  0  # atno 17371 bound_to 10713
  140.1097  134.5362  155.8277 LP  0  0  0  0  0  0  0  0  0  0  0  0  # atno 17394 bound_to 11000
  141.2125  133.6720  156.6665 LP  0  0  0  0  0  0  0  0  0  0  0  0  # atno 17395 bound_to 11000

$$$$
