AV-unprocessed.smi:2095|AV-procd|sdf|8557|dock7
  -GOLD-   2272011283D 1   1.00000     0.00000
 Structure written by MMmdl.
 42 43  0  0  0  0  0  0  0  0  2 V2000
  151.8156  145.3616  159.5719 C   0  0  0  0  0  0  0  0  0  0  0  0
  152.4605  143.9756  159.4307 C   0  0  1  0  0  0  0  0  0  0  0  0
  152.8021  143.3721  160.8043 C   0  0  0  0  0  0  0  0  0  0  0  0
  153.4207  141.9776  160.6375 C   0  0  0  0  0  0  0  0  0  0  0  0
  152.5043  141.0623  159.8096 C   0  0  0  0  0  0  0  0  0  0  0  0
  152.1997  141.6753  158.4898 N   0  3  1  0  0  0  0  0  0  0  0  0
  151.5245  140.7407  157.5429 C   0  0  2  0  0  0  0  0  0  0  0  0
  150.0789  140.4560  157.9944 C   0  0  0  0  0  0  0  0  0  0  0  0
  152.3336  139.4444  157.2792 C   0  0  0  0  0  0  0  0  0  0  0  0
  151.6857  138.5872  156.2934 N   0  0  0  0  0  0  0  0  0  0  0  0
  151.1051  139.0195  155.1637 C   0  0  0  0  0  0  0  0  0  0  0  0
  151.1154  140.1963  154.8035 O   0  0  0  0  0  0  0  0  0  0  0  0
  150.3757  137.9680  154.3288 C   0  0  0  0  0  0  0  0  0  0  0  0
  150.4096  136.6800  154.9950 N   0  0  0  0  0  0  0  0  0  0  0  0
  149.4240  135.8721  155.3910 C   0  0  0  0  0  0  0  0  0  0  0  0
  149.8921  134.7916  155.9968 N   0  0  0  0  0  0  0  0  0  0  0  0
  151.2641  134.9754  155.9541 N   0  0  0  0  0  0  0  0  0  0  0  0
  151.5775  136.0946  155.3613 N   0  0  0  0  0  0  0  0  0  0  0  0
  151.5575  143.0106  158.6369 C   0  0  0  0  0  0  0  0  0  0  0  0
  150.8775  145.3086  160.1253 H   0  0  0  0  0  0  0  0  0  0  0  0
  151.6016  145.7973  158.5955 H   0  0  0  0  0  0  0  0  0  0  0  0
  152.4755  146.0496  160.1012 H   0  0  0  0  0  0  0  0  0  0  0  0
  153.3911  144.1019  158.8750 H   0  0  0  0  0  0  0  0  0  0  0  0
  153.4930  144.0223  161.3423 H   0  0  0  0  0  0  0  0  0  0  0  0
  151.9010  143.3021  161.4152 H   0  0  0  0  0  0  0  0  0  0  0  0
  154.3916  142.0642  160.1476 H   0  0  0  0  0  0  0  0  0  0  0  0
  153.6067  141.5330  161.6157 H   0  0  0  0  0  0  0  0  0  0  0  0
  152.9968  140.0993  159.6704 H   0  0  0  0  0  0  0  0  0  0  0  0
  151.5792  140.8699  160.3544 H   0  0  0  0  0  0  0  0  0  0  0  0
  151.4330  141.2763  156.5969 H   0  0  0  0  0  0  0  0  0  0  0  0
  149.5156  139.9402  157.2160 H   0  0  0  0  0  0  0  0  0  0  0  0
  149.5461  141.3817  158.2137 H   0  0  0  0  0  0  0  0  0  0  0  0
  150.0453  139.8312  158.8866 H   0  0  0  0  0  0  0  0  0  0  0  0
  153.3478  139.6714  156.9489 H   0  0  0  0  0  0  0  0  0  0  0  0
  152.4295  138.8596  158.1941 H   0  0  0  0  0  0  0  0  0  0  0  0
  151.6302  137.6019  156.5088 H   0  0  0  0  0  0  0  0  0  0  0  0
  149.3354  138.2614  154.1811 H   0  0  0  0  0  0  0  0  0  0  0  0
  150.8321  137.8799  153.3416 H   0  0  0  0  0  0  0  0  0  0  0  0
  148.3739  136.0787  155.2451 H   0  0  0  0  0  0  0  0  0  0  0  0
  150.5976  142.9073  159.1447 H   0  0  0  0  0  0  0  0  0  0  0  0
  151.3542  143.4377  157.6552 H   0  0  0  0  0  0  0  0  0  0  0  0
  153.1028  141.8529  158.0737 H   0  0  0  0  0  0  0  0  0  0  0  0
  1  2  1  0  0  0  0
  1 20  1  0  0  0  0
  1 21  1  0  0  0  0
  1 22  1  0  0  0  0
  2 19  1  0  0  0  0
  2  3  1  0  0  0  0
  2 23  1  0  0  0  0
  3  4  1  0  0  0  0
  3 24  1  0  0  0  0
  3 25  1  0  0  0  0
  4  5  1  0  0  0  0
  4 26  1  0  0  0  0
  4 27  1  0  0  0  0
  5  6  1  0  0  0  0
  5 28  1  0  0  0  0
  5 29  1  0  0  0  0
  6  7  1  0  0  0  0
  6 19  1  0  0  0  0
  6 42  1  0  0  0  0
  7  8  1  0  0  0  0
  7  9  1  0  0  0  0
  7 30  1  0  0  0  0
  8 31  1  0  0  0  0
  8 32  1  0  0  0  0
  8 33  1  0  0  0  0
  9 10  1  0  0  0  0
  9 34  1  0  0  0  0
  9 35  1  0  0  0  0
 10 11  1  0  0  0  0
 10 36  1  0  0  0  0
 11 12  2  0  0  0  0
 11 13  1  0  0  0  0
 13 14  1  0  0  0  0
 13 37  1  0  0  0  0
 13 38  1  0  0  0  0
 14 18  1  0  0  0  0
 14 15  1  0  0  0  0
 15 16  2  0  0  0  0
 15 39  1  0  0  0  0
 16 17  1  0  0  0  0
 17 18  2  0  0  0  0
 19 40  1  0  0  0  0
 19 41  1  0  0  0  0
M  CHG  1   6   1
M  END
> <s_m_source_file>
AV-unprocessed.smi

> <i_m_source_file_index>
2095

> <i_lp_mmshare_version>
43012

> <i_f3d_flags>
0

> <s_epik_input>
W0NIM11bQ0BASF0xW0NIMl1bQ0gyXVtDSDJdTihbQ0gyXTEpW0NASF0oW0NIM10pW0NIMl1bTkhdQyg9TylbQ0gyXW4yW2NIXW5ubjI=

> <s_epik_cmdline>
J2VwaWtfcHl0aG9uJywgJy1waCcsICc3LjAnLCAnLXRuJywgJzgnLCAnLW1hJywgJzIwMCcsICctbWV0YWxfYmluZGluZycsICctaW1hZScsICc8aW5maWxlLm1hZT4nLCAnLW9tYWUnLCAnPG91dGZpbGUubWFlPic=

> <r_lp_tautomer_probability>
1

> <r_epik_Ionization_Penalty>
0.00268321

> <r_epik_Ionization_Penalty_Charging>
0.00267875

> <r_epik_Ionization_Penalty_Neutral>
4.46125e-06

> <r_epik_State_Penalty>
0.00186642

> <r_epik_Charging_Adjusted_Penalty>
0.00454517

> <i_epik_Tot_Q>
1

> <i_epik_Tot_abs_Q>
1

> <r_epik_Metal_State_Penalty>
-0

> <b_epik_Metal_Only>
0

> <s_lp_Force_Field>
OPLS_2005

> <r_lp_Energy>
21.2581

> <b_lp_Chiralities_Consistent>
1

> <s_lp_Variant>
AV-unprocessed.smi:2095-4

> <Gold.Version>
5.8.1

> <Gold.Id.Protein>
6NUR|6NUR_protein|mol2

> <Gold.PLP.Fitness>
42.2849

> <Gold.PLP.PLP>
-36.6416

> <Gold.PLP.part.hbond>
-2.9390

> <Gold.PLP.part.metal>
0.0000

> <Gold.PLP.part.buried>
-4.8399

> <Gold.PLP.part.nonpolar>
-29.8556

> <Gold.PLP.part.repulsive>
0.4146

> <Gold.PLP.ligand.clash>
0.0000

> <Gold.PLP.ligand.torsion>
0.1997

> <Gold.PLP.Chemscore.Hbond>
1.9760

> <Gold.PLP.Chemscore.CHOScore>
0.0000

> <Gold.PLP.Chemscore.Metal>
0.0000

> <Gold.Chemscore.Hbonds>
donor molecule, donor type, donor heavy atom, donor atom, acceptor molecule, acceptor atom, score
      P1  H  7989  7998       L1    12  1.00
      P1  H 10752 10764       L1    18  0.96

> <Gold.PLP.Chemscore.Internal.Correction>
0.1147

> <Gold.Rescore>
     Score         DG    S(hbond)    S(metal)    S(lipo)     H(rot)  DE(clash)    DE(int)     intcor
     12.10     -15.25       1.77        0.00      90.72       2.64       0.02       3.13       ----

> <Gold.Chemscore.Fitness>
12.0990

> <Gold.Chemscore.DG>
-15.2517

> <Gold.Chemscore.ZeroCoef>
-5.4800

> <Gold.Chemscore.Hbond>
1.7743

> <Gold.Chemscore.Metal>
0.0000

> <Gold.Chemscore.Lipo>
90.7176

> <Gold.Chemscore.Internal_Hbond>
0.0000

> <Gold.Chemscore.DEClash>
0.0234

> <Gold.Chemscore.DEInternal>
3.1293

> <Gold.Chemscore.Rot>
2.6439

> <Gold.Chemscore.Internal.Correction>
   9.000000E+99

> <Gold.Chemscore.Hbonds>
donor molecule, donor type, donor heavy atom, donor atom, acceptor molecule, acceptor atom, score
      P1  H  7989  7998       L1    12  0.96
      P1  H 10752 10764       L1    18  0.32

> <Gold.Chemscore.Hbond.Weighted>
-5.9262

> <Gold.Chemscore.Metal.Weighted>
-0.0000

> <Gold.Chemscore.Lipo.Weighted>
-10.6140

> <Gold.Chemscore.Internal_Hbond.Weighted>
0.0000

> <Gold.Chemscore.DEClash.Weighted>
0.0234

> <Gold.Chemscore.DEInternal.Weighted>
3.1293

> <Gold.Chemscore.Rot.Weighted>
6.7685

> <Gold.Chemscore.Internal.Correction.Weighted>
   9.000000E+99

> <Gold.Protein.RotatedTorsions>
[ 6907 6896 6895 6894 ] final  -80.43 input  -60.11 | X-H torsion
[ 7974 7965 7964 7962 ] final  170.91 input  175.53 | X-H torsion
[ 8008 7997 7996 7995 ] final   60.61 input   59.86 | X-H torsion
[ 10167 10162 10161 10158 ] final -149.28 input  -65.29 | X-H torsion
[ 10718 10713 10712 10709 ] final  -73.97 input   66.30 | X-H torsion
[ 10763 10752 10751 10750 ] final  -71.62 input  -60.55 | X-H torsion
[ 11005 11000 10999 10996 ] final  -14.98 input  -57.11 | X-H torsion

> <Gold.Protein.ActiveResidues>
 VAL166  LYS551  ARG553  GLY616  TRP617  ASP618  TYR619  PRO620  LYS621  CYS622 
 ASP623  PHE694  ASN695  SER759  ASP760  ASP761  ALA762  ILE779  LEU786  VAL792 
 PHE793  MET794  SER795  GLU796  ALA797  LYS798  CYS799  TRP800  GLU811  SER814 

> <Gold.Protein.RotatedAtoms>
  150.6930  134.3970  159.5101 H   0  0  0  0  0  0  0  0  0  0  0  0  # atno 6907 bound_to 6896
  152.1750  134.8800  160.0540 H   0  0  0  0  0  0  0  0  0  0  0  0  # atno 6908 bound_to 6896
  151.9812  133.3723  159.4145 H   0  0  0  0  0  0  0  0  0  0  0  0  # atno 6909 bound_to 6896
  144.7310  139.9272  143.6423 H   0  0  0  0  0  0  0  0  0  0  0  0  # atno 7974 bound_to 7965
  155.5850  140.3492  155.4551 H   0  0  0  0  0  0  0  0  0  0  0  0  # atno 8008 bound_to 7997
  156.0344  140.1282  157.0248 H   0  0  0  0  0  0  0  0  0  0  0  0  # atno 8009 bound_to 7997
  154.4365  140.1037  156.6132 H   0  0  0  0  0  0  0  0  0  0  0  0  # atno 8010 bound_to 7997
  139.7457  143.8595  152.2574 H   0  0  0  0  0  0  0  0  0  0  0  0  # atno 10167 bound_to 10162
  156.0260  130.4406  150.2823 H   0  0  0  0  0  0  0  0  0  0  0  0  # atno 10718 bound_to 10713
  154.4343  135.5956  153.6089 H   0  0  0  0  0  0  0  0  0  0  0  0  # atno 10763 bound_to 10752
  152.9801  135.5983  154.3800 H   0  0  0  0  0  0  0  0  0  0  0  0  # atno 10764 bound_to 10752
  154.3642  135.2841  155.2281 H   0  0  0  0  0  0  0  0  0  0  0  0  # atno 10765 bound_to 10752
  140.7919  133.8281  155.9388 H   0  0  0  0  0  0  0  0  0  0  0  0  # atno 11005 bound_to 11000
  146.0885  139.3874  143.0420 LP  0  0  0  0  0  0  0  0  0  0  0  0  # atno 17320 bound_to 7965
  145.7744  140.9883  143.1132 LP  0  0  0  0  0  0  0  0  0  0  0  0  # atno 17321 bound_to 7965
  139.8558  144.7142  150.9159 LP  0  0  0  0  0  0  0  0  0  0  0  0  # atno 17342 bound_to 10162
  140.7792  143.3860  151.1393 LP  0  0  0  0  0  0  0  0  0  0  0  0  # atno 17343 bound_to 10162
  157.0926  131.0174  151.3116 LP  0  0  0  0  0  0  0  0  0  0  0  0  # atno 17370 bound_to 10713
  157.4842  130.7783  149.7444 LP  0  0  0  0  0  0  0  0  0  0  0  0  # atno 17371 bound_to 10713
  140.9381  134.1936  157.4817 LP  0  0  0  0  0  0  0  0  0  0  0  0  # atno 17394 bound_to 11000
  139.8730  134.9860  156.5308 LP  0  0  0  0  0  0  0  0  0  0  0  0  # atno 17395 bound_to 11000

$$$$
