AV-unprocessed.smi:37|AV-procd|sdf|332|dock2
  -GOLD-   2262016163D 1   1.00000     0.00000
 Structure written by MMmdl.
 43 44  0  0  0  0  0  0  0  0  2 V2000
  147.2101  141.8732  154.0144 C   0  0  0  0  0  0  0  0  0  0  0  0
  148.2127  141.2685  155.0082 C   0  0  0  0  0  0  0  0  0  0  0  0
  147.5874  140.8767  156.3487 C   0  0  0  0  0  0  0  0  0  0  0  0
  147.0466  141.6973  157.0921 O   0  0  0  0  0  0  0  0  0  0  0  0
  147.7064  139.5635  156.5893 O   0  0  0  0  0  0  0  0  0  0  0  0
  147.2789  139.0299  157.8321 C   0  0  0  0  0  0  0  0  0  0  0  0
  147.7024  137.5585  157.9170 C   0  0  1  0  0  0  0  0  0  0  0  0
  148.7886  137.2834  157.0320 O   0  0  0  0  0  0  0  0  0  0  0  0
  149.7093  136.4165  157.6356 C   0  0  1  0  0  0  0  0  0  0  0  0
  151.0099  137.1525  157.8928 N   0  0  0  0  0  0  0  0  0  0  0  0
  151.0368  138.3700  158.5538 C   0  0  0  0  0  0  0  0  0  0  0  0
  152.1974  139.0186  158.7803 C   0  0  0  0  0  0  0  0  0  0  0  0
  152.1900  140.1982  159.4248 F   0  0  0  0  0  0  0  0  0  0  0  0
  153.4554  138.4330  158.3215 C   0  0  0  0  0  0  0  0  0  0  0  0
  154.5106  139.0308  158.5276 O   0  0  0  0  0  0  0  0  0  0  0  0
  153.4011  137.2319  157.6766 N   0  5  0  0  0  0  0  0  0  0  0  0
  152.2291  136.5701  157.4480 C   0  0  0  0  0  0  0  0  0  0  0  0
  152.1727  135.4814  156.8761 O   0  0  0  0  0  0  0  0  0  0  0  0
  149.0930  135.9552  158.9603 C   0  0  2  0  0  0  0  0  0  0  0  0
  148.0216  134.3018  158.6386 Br  0  0  0  0  0  0  0  0  0  0  0  0
  148.1919  137.1305  159.3000 C   0  0  2  0  0  0  0  0  0  0  0  0
  147.1136  136.7687  160.1522 O   0  0  0  0  0  0  0  0  0  0  0  0
  147.3334  136.5192  161.4543 C   0  0  0  0  0  0  0  0  0  0  0  0
  148.2427  136.9899  162.1376 O   0  0  0  0  0  0  0  0  0  0  0  0
  146.3066  135.5584  162.0484 C   0  0  0  0  0  0  0  0  0  0  0  0
  146.9553  134.2705  162.5731 C   0  0  0  0  0  0  0  0  0  0  0  0
  147.7059  142.1277  153.0776 H   0  0  0  0  0  0  0  0  0  0  0  0
  146.7606  142.7857  154.4079 H   0  0  0  0  0  0  0  0  0  0  0  0
  146.4073  141.1725  153.7821 H   0  0  0  0  0  0  0  0  0  0  0  0
  148.6733  140.3827  154.5700 H   0  0  0  0  0  0  0  0  0  0  0  0
  149.0168  141.9803  155.1968 H   0  0  0  0  0  0  0  0  0  0  0  0
  147.7403  139.5987  158.6403 H   0  0  0  0  0  0  0  0  0  0  0  0
  146.1975  139.1238  157.9384 H   0  0  0  0  0  0  0  0  0  0  0  0
  146.8765  136.9183  157.6018 H   0  0  0  0  0  0  0  0  0  0  0  0
  149.9665  135.6053  156.9527 H   0  0  0  0  0  0  0  0  0  0  0  0
  150.1224  138.8230  158.9020 H   0  0  0  0  0  0  0  0  0  0  0  0
  149.8413  135.7356  159.7225 H   0  0  0  0  0  0  0  0  0  0  0  0
  148.7866  137.9392  159.7284 H   0  0  0  0  0  0  0  0  0  0  0  0
  145.7776  136.0636  162.8570 H   0  0  0  0  0  0  0  0  0  0  0  0
  145.5652  135.3202  161.2855 H   0  0  0  0  0  0  0  0  0  0  0  0
  146.2065  133.6213  163.0270 H   0  0  0  0  0  0  0  0  0  0  0  0
  147.7093  134.4858  163.3309 H   0  0  0  0  0  0  0  0  0  0  0  0
  147.4352  133.7087  161.7710 H   0  0  0  0  0  0  0  0  0  0  0  0
  1  2  1  0  0  0  0
  1 27  1  0  0  0  0
  1 28  1  0  0  0  0
  1 29  1  0  0  0  0
  2  3  1  0  0  0  0
  2 30  1  0  0  0  0
  2 31  1  0  0  0  0
  3  4  2  0  0  0  0
  3  5  1  0  0  0  0
  5  6  1  0  0  0  0
  6  7  1  0  0  0  0
  6 32  1  0  0  0  0
  6 33  1  0  0  0  0
  7 21  1  0  0  0  0
  7  8  1  0  0  0  0
  7 34  1  0  0  0  0
  8  9  1  0  0  0  0
  9 10  1  0  0  0  0
  9 19  1  0  0  0  0
  9 35  1  0  0  0  0
 10 17  1  0  0  0  0
 10 11  1  0  0  0  0
 11 12  2  0  0  0  0
 11 36  1  0  0  0  0
 12 13  1  0  0  0  0
 12 14  1  0  0  0  0
 14 15  2  0  0  0  0
 14 16  1  0  0  0  0
 16 17  1  0  0  0  0
 17 18  2  0  0  0  0
 19 20  1  0  0  0  0
 19 21  1  0  0  0  0
 19 37  1  0  0  0  0
 21 22  1  0  0  0  0
 21 38  1  0  0  0  0
 22 23  1  0  0  0  0
 23 24  2  0  0  0  0
 23 25  1  0  0  0  0
 25 26  1  0  0  0  0
 25 39  1  0  0  0  0
 25 40  1  0  0  0  0
 26 41  1  0  0  0  0
 26 42  1  0  0  0  0
 26 43  1  0  0  0  0
M  CHG  1  16  -1
M  END
> <s_m_source_file>
AV-unprocessed.smi

> <i_m_source_file_index>
37

> <i_lp_mmshare_version>
43012

> <i_f3d_flags>
0

> <s_epik_input>
W0NIM11bQ0gyXUMoPU8pT1tDSDJdW0NAQEhdMU9bQ0BASF0objJbY0hdYyhGKWMoPU8pW25IXWMyPU8pW0NAQEhdKEJyKVtDQEhdMU9DKD1PKVtDSDJdW0NIM10=

> <s_epik_cmdline>
J2VwaWtfcHl0aG9uJywgJy1waCcsICc3LjAnLCAnLXRuJywgJzgnLCAnLW1hJywgJzIwMCcsICctbWV0YWxfYmluZGluZycsICctaW1hZScsICc8aW5maWxlLm1hZT4nLCAnLW9tYWUnLCAnPG91dGZpbGUubWFlPic=

> <r_epik_Ionization_Penalty>
1.08158

> <r_epik_Ionization_Penalty_Charging>
9.05154e-09

> <r_epik_Ionization_Penalty_Neutral>
1.08158

> <r_epik_State_Penalty>
1.13706

> <r_epik_Charging_Adjusted_Penalty>
1.13706

> <i_epik_Tot_Q>
-1

> <i_epik_Tot_abs_Q>
1

> <r_epik_Metal_State_Penalty>
0.00343535

> <b_epik_Metal_Only>
0

> <s_epik_Chemistry_Notes>
This compound has an ester and may undergo hydrolysis at high or low pH. This compound contains an acetal/aminal-like group ( X-CH(R)-Y where X, Y are N, S, or O) that may be acid/base labile, releasing an aldehyde.

> <s_lp_Force_Field>
OPLS_2005

> <r_lp_Energy>
34.595

> <b_lp_Chiralities_Consistent>
1

> <s_lp_Variant>
AV-unprocessed.smi:37-30

> <Gold.Version>
5.8.1

> <Gold.Id.Protein>
6NUR|6NUR_protein|mol2

> <Gold.PLP.Fitness>
37.5205

> <Gold.PLP.PLP>
-30.4412

> <Gold.PLP.part.hbond>
-2.9985

> <Gold.PLP.part.metal>
0.0000

> <Gold.PLP.part.buried>
-4.7959

> <Gold.PLP.part.nonpolar>
-23.5442

> <Gold.PLP.part.repulsive>
0.1008

> <Gold.PLP.ligand.clash>
0.0000

> <Gold.PLP.ligand.torsion>
1.1280

> <Gold.PLP.Chemscore.Hbond>
3.0000

> <Gold.PLP.Chemscore.CHOScore>
0.0000

> <Gold.PLP.Chemscore.Metal>
0.0000

> <Gold.Chemscore.Hbonds>
donor molecule, donor type, donor heavy atom, donor atom, acceptor molecule, acceptor atom, score
      P1  H  6931  6943       L1    24  0.91
      P1  H  7997  8010       L1    15  1.00
      P1  H 10752 10764       L1    18  1.00

> <Gold.PLP.Chemscore.Internal.Correction>
0.3354

> <Gold.Rescore>
     Score         DG    S(hbond)    S(metal)    S(lipo)     H(rot)  DE(clash)    DE(int)     intcor
     11.47     -12.46       2.95        0.00      47.06       3.27       0.01       0.99       ----

> <Gold.Chemscore.Fitness>
11.4656

> <Gold.Chemscore.DG>
-12.4635

> <Gold.Chemscore.ZeroCoef>
-5.4800

> <Gold.Chemscore.Hbond>
2.9464

> <Gold.Chemscore.Metal>
0.0000

> <Gold.Chemscore.Lipo>
47.0594

> <Gold.Chemscore.Internal_Hbond>
0.0000

> <Gold.Chemscore.DEClash>
0.0098

> <Gold.Chemscore.DEInternal>
0.9882

> <Gold.Chemscore.Rot>
3.2669

> <Gold.Chemscore.Internal.Correction>
   9.000000E+99

> <Gold.Chemscore.Hbonds>
donor molecule, donor type, donor heavy atom, donor atom, acceptor molecule, acceptor atom, score
      P1  H  6931  6943       L1    24  0.88
      P1  H  7997  8010       L1    15  0.65
      P1  H 10752 10764       L1    18  0.81

> <Gold.Chemscore.Hbond.Weighted>
-9.8409

> <Gold.Chemscore.Metal.Weighted>
-0.0000

> <Gold.Chemscore.Lipo.Weighted>
-5.5060

> <Gold.Chemscore.Internal_Hbond.Weighted>
0.0000

> <Gold.Chemscore.DEClash.Weighted>
0.0098

> <Gold.Chemscore.DEInternal.Weighted>
0.9882

> <Gold.Chemscore.Rot.Weighted>
8.3634

> <Gold.Chemscore.Internal.Correction.Weighted>
   9.000000E+99

> <Gold.Protein.RotatedTorsions>
[ 6907 6896 6895 6894 ] final   46.68 input  -60.11 | X-H torsion
[ 7974 7965 7964 7962 ] final  -40.40 input  175.53 | X-H torsion
[ 8008 7997 7996 7995 ] final   19.10 input   59.86 | X-H torsion
[ 10167 10162 10161 10158 ] final   -6.96 input  -65.29 | X-H torsion
[ 10718 10713 10712 10709 ] final -147.73 input   66.30 | X-H torsion
[ 10763 10752 10751 10750 ] final  -15.91 input  -60.55 | X-H torsion
[ 11005 11000 10999 10996 ] final   26.53 input  -57.11 | X-H torsion

> <Gold.Protein.ActiveResidues>
 VAL166  LYS551  ARG553  GLY616  TRP617  ASP618  TYR619  PRO620  LYS621  CYS622 
 ASP623  PHE694  ASN695  SER759  ASP760  ASP761  ALA762  ILE779  LEU786  VAL792 
 PHE793  MET794  SER795  GLU796  ALA797  LYS798  CYS799  TRP800  GLU811  SER814 

> <Gold.Protein.RotatedAtoms>
  152.2593  134.8051  160.0433 H   0  0  0  0  0  0  0  0  0  0  0  0  # atno 6907 bound_to 6896
  151.8703  133.3469  159.3741 H   0  0  0  0  0  0  0  0  0  0  0  0  # atno 6908 bound_to 6896
  150.7111  134.5046  159.5622 H   0  0  0  0  0  0  0  0  0  0  0  0  # atno 6909 bound_to 6896
  146.0308  140.6734  142.9133 H   0  0  0  0  0  0  0  0  0  0  0  0  # atno 7974 bound_to 7965
  154.9158  140.3020  155.5242 H   0  0  0  0  0  0  0  0  0  0  0  0  # atno 8008 bound_to 7997
  156.3012  140.2380  156.4138 H   0  0  0  0  0  0  0  0  0  0  0  0  # atno 8009 bound_to 7997
  154.8380  140.0415  157.1511 H   0  0  0  0  0  0  0  0  0  0  0  0  # atno 8010 bound_to 7997
  140.7014  143.6135  150.8681 H   0  0  0  0  0  0  0  0  0  0  0  0  # atno 10167 bound_to 10162
  156.4113  130.7983  151.2200 H   0  0  0  0  0  0  0  0  0  0  0  0  # atno 10718 bound_to 10713
  153.5506  135.7011  153.5593 H   0  0  0  0  0  0  0  0  0  0  0  0  # atno 10763 bound_to 10752
  153.3519  135.3993  155.1652 H   0  0  0  0  0  0  0  0  0  0  0  0  # atno 10764 bound_to 10752
  154.8662  135.3767  154.5017 H   0  0  0  0  0  0  0  0  0  0  0  0  # atno 10765 bound_to 10752
  140.3360  134.2385  155.7696 H   0  0  0  0  0  0  0  0  0  0  0  0  # atno 11005 bound_to 11000
  144.7029  140.3732  143.7141 LP  0  0  0  0  0  0  0  0  0  0  0  0  # atno 17320 bound_to 7965
  145.7044  139.1669  143.2574 LP  0  0  0  0  0  0  0  0  0  0  0  0  # atno 17321 bound_to 7965
  139.9857  143.5902  152.2927 LP  0  0  0  0  0  0  0  0  0  0  0  0  # atno 17342 bound_to 10162
  139.6539  144.7661  151.2094 LP  0  0  0  0  0  0  0  0  0  0  0  0  # atno 17343 bound_to 10162
  157.7507  131.0257  150.3929 LP  0  0  0  0  0  0  0  0  0  0  0  0  # atno 17370 bound_to 10713
  156.4228  130.3956  149.6813 LP  0  0  0  0  0  0  0  0  0  0  0  0  # atno 17371 bound_to 10713
  141.2051  133.7869  157.0251 LP  0  0  0  0  0  0  0  0  0  0  0  0  # atno 17394 bound_to 11000
  140.0820  134.9642  157.1640 LP  0  0  0  0  0  0  0  0  0  0  0  0  # atno 17395 bound_to 11000

$$$$
