AV-unprocessed.smi:2189|AV-procd|sdf|8886|dock5
  -GOLD-   2272012 83D 1   1.00000     0.00000
 Structure written by MMmdl.
 38 40  0  0  0  0  0  0  0  0  2 V2000
  151.0778  138.4399  157.0929 O   0  0  0  0  0  0  0  0  0  0  0  0
  150.3338  139.1210  157.8107 C   0  0  0  0  0  0  0  0  0  0  0  0
  149.0539  138.7868  158.1618 N   0  5  0  0  0  0  0  0  0  0  0  0
  148.5462  137.4241  158.3457 C   0  0  0  0  0  0  0  0  0  0  0  0
  149.4001  136.6703  159.3927 C   0  0  0  0  0  0  0  0  0  0  0  0
  148.6066  135.8598  160.4164 C   0  0  0  0  0  0  0  0  0  0  0  0
  148.0893  134.5882  160.0790 C   0  0  0  0  0  0  0  0  0  0  0  0
  147.3681  133.8711  161.0522 C   0  0  0  0  0  0  0  0  0  0  0  0
  147.1796  134.4517  162.3206 C   0  0  0  0  0  0  0  0  0  0  0  0
  147.7210  135.7303  162.5584 C   0  0  0  0  0  0  0  0  0  0  0  0
  148.4138  136.4274  161.6326 N   0  0  0  0  0  0  0  0  0  0  0  0
  150.8256  140.4140  158.3230 C   0  0  0  0  0  0  0  0  0  0  0  0
  150.1025  141.5330  158.0548 C   0  0  0  0  0  0  0  0  0  0  0  0
  150.5068  142.8331  158.5285 C   0  0  0  0  0  0  0  0  0  0  0  0
  151.6460  142.9211  159.2230 C   0  0  0  0  0  0  0  0  0  0  0  0
  152.4544  141.8217  159.5072 N   0  0  0  0  0  0  0  0  0  0  0  0
  153.7187  142.0885  160.1839 C   0  0  0  0  0  0  0  0  0  0  0  0
  153.9866  141.0316  161.2395 C   0  0  0  0  0  0  0  0  0  0  0  0
  154.1599  139.4539  160.3319 S   0  0  0  0  0  0  0  0  0  0  0  0
  155.2843  139.5898  159.3928 O   0  0  0  0  0  0  0  0  0  0  0  0
  154.1698  138.3604  161.3157 O   0  0  0  0  0  0  0  0  0  0  0  0
  152.7222  139.4372  159.4734 N   0  0  0  0  0  0  0  0  0  0  0  0
  152.0650  140.5070  159.1232 C   0  0  0  0  0  0  0  0  0  0  0  0
  147.5018  137.3965  158.6592 H   0  0  0  0  0  0  0  0  0  0  0  0
  148.5824  136.8705  157.4071 H   0  0  0  0  0  0  0  0  0  0  0  0
  150.0760  135.9904  158.8729 H   0  0  0  0  0  0  0  0  0  0  0  0
  150.0439  137.3756  159.9202 H   0  0  0  0  0  0  0  0  0  0  0  0
  148.2555  134.1674  159.0983 H   0  0  0  0  0  0  0  0  0  0  0  0
  146.9680  132.8932  160.8293 H   0  0  0  0  0  0  0  0  0  0  0  0
  146.6332  133.9301  163.0921 H   0  0  0  0  0  0  0  0  0  0  0  0
  147.5928  136.2072  163.5190 H   0  0  0  0  0  0  0  0  0  0  0  0
  149.1993  141.4824  157.4637 H   0  0  0  0  0  0  0  0  0  0  0  0
  149.9073  143.7083  158.3276 H   0  0  0  0  0  0  0  0  0  0  0  0
  152.0027  143.8672  159.6033 H   0  0  0  0  0  0  0  0  0  0  0  0
  154.5226  142.1174  159.4477 H   0  0  0  0  0  0  0  0  0  0  0  0
  153.7006  143.0671  160.6641 H   0  0  0  0  0  0  0  0  0  0  0  0
  154.9103  141.2264  161.7835 H   0  0  0  0  0  0  0  0  0  0  0  0
  153.1690  140.9503  161.9566 H   0  0  0  0  0  0  0  0  0  0  0  0
  1  2  2  0  0  0  0
  2  3  1  0  0  0  0
  2 12  1  0  0  0  0
  3  4  1  0  0  0  0
  4  5  1  0  0  0  0
  4 24  1  0  0  0  0
  4 25  1  0  0  0  0
  5  6  1  0  0  0  0
  5 26  1  0  0  0  0
  5 27  1  0  0  0  0
  6 11  1  0  0  0  0
  6  7  2  0  0  0  0
  7  8  1  0  0  0  0
  7 28  1  0  0  0  0
  8  9  2  0  0  0  0
  8 29  1  0  0  0  0
  9 10  1  0  0  0  0
  9 30  1  0  0  0  0
 10 11  2  0  0  0  0
 10 31  1  0  0  0  0
 12 23  1  0  0  0  0
 12 13  2  0  0  0  0
 13 14  1  0  0  0  0
 13 32  1  0  0  0  0
 14 15  2  0  0  0  0
 14 33  1  0  0  0  0
 15 16  1  0  0  0  0
 15 34  1  0  0  0  0
 16 23  1  0  0  0  0
 16 17  1  0  0  0  0
 17 18  1  0  0  0  0
 17 35  1  0  0  0  0
 17 36  1  0  0  0  0
 18 19  1  0  0  0  0
 18 37  1  0  0  0  0
 18 38  1  0  0  0  0
 19 20  2  0  0  0  0
 19 21  2  0  0  0  0
 19 22  1  0  0  0  0
 22 23  2  0  0  0  0
M  CHG  1   3  -1
M  END
> <s_m_source_file>
AV-unprocessed.smi

> <i_m_source_file_index>
2189

> <i_lp_mmshare_version>
43012

> <i_f3d_flags>
0

> <s_epik_input>
W0NIMl0xW0NIMl1TKD1PKSg9TylOPUMoTjEyKUMoPVtDSF1bQ0hdPVtDSF0yKUMoPU8pW05IXVtDSDJdW0NIMl1jM1tjSF1bY0hdW2NIXVtjSF1uMw==

> <s_epik_cmdline>
J2VwaWtfcHl0aG9uJywgJy1waCcsICc3LjAnLCAnLXRuJywgJzgnLCAnLW1hJywgJzIwMCcsICctbWV0YWxfYmluZGluZycsICctaW1hZScsICc8aW5maWxlLm1hZT4nLCAnLW9tYWUnLCAnPG91dGZpbGUubWFlPic=

> <r_epik_Ionization_Penalty>
5.6695

> <r_epik_Ionization_Penalty_Charging>
5.5942

> <r_epik_Ionization_Penalty_Neutral>
0.0753022

> <r_epik_State_Penalty>
5.60818

> <r_epik_Charging_Adjusted_Penalty>
11.2024

> <i_epik_Tot_Q>
-1

> <i_epik_Tot_abs_Q>
1

> <r_epik_Metal_State_Penalty>
1.61782

> <b_epik_Metal_Only>
1

> <s_lp_Force_Field>
OPLS_2005

> <r_lp_Energy>
39.8175

> <b_lp_Chiralities_Consistent>
1

> <s_lp_Variant>
AV-unprocessed.smi:2189-3

> <Gold.Version>
5.8.1

> <Gold.Id.Protein>
6NUR|6NUR_protein|mol2

> <Gold.PLP.Fitness>
46.8751

> <Gold.PLP.PLP>
-44.1193

> <Gold.PLP.part.hbond>
-2.7427

> <Gold.PLP.part.metal>
0.0000

> <Gold.PLP.part.buried>
-6.2949

> <Gold.PLP.part.nonpolar>
-35.7622

> <Gold.PLP.part.repulsive>
0.0000

> <Gold.PLP.ligand.clash>
0.0000

> <Gold.PLP.ligand.torsion>
1.8324

> <Gold.PLP.Chemscore.Hbond>
2.0000

> <Gold.PLP.Chemscore.CHOScore>
0.0000

> <Gold.PLP.Chemscore.Metal>
0.0000

> <Gold.Chemscore.Hbonds>
donor molecule, donor type, donor heavy atom, donor atom, acceptor molecule, acceptor atom, score
      P1  H  6931  6943       L1    11  1.00
      P1  H  7997  8010       L1    20  0.86

> <Gold.PLP.Chemscore.Internal.Correction>
0.4206

> <Gold.Rescore>
     Score         DG    S(hbond)    S(metal)    S(lipo)     H(rot)  DE(clash)    DE(int)     intcor
     17.37     -19.06       1.94        0.00      92.36       1.44       0.04       1.65       ----

> <Gold.Chemscore.Fitness>
17.3674

> <Gold.Chemscore.DG>
-19.0599

> <Gold.Chemscore.ZeroCoef>
-5.4800

> <Gold.Chemscore.Hbond>
1.9367

> <Gold.Chemscore.Metal>
0.0000

> <Gold.Chemscore.Lipo>
92.3610

> <Gold.Chemscore.Internal_Hbond>
0.0000

> <Gold.Chemscore.DEClash>
0.0402

> <Gold.Chemscore.DEInternal>
1.6522

> <Gold.Chemscore.Rot>
1.4433

> <Gold.Chemscore.Internal.Correction>
   9.000000E+99

> <Gold.Chemscore.Hbonds>
donor molecule, donor type, donor heavy atom, donor atom, acceptor molecule, acceptor atom, score
      P1  H  6931  6943       L1    11  0.94
      P1  H  7997  8010       L1    20  0.83

> <Gold.Chemscore.Hbond.Weighted>
-6.4685

> <Gold.Chemscore.Metal.Weighted>
-0.0000

> <Gold.Chemscore.Lipo.Weighted>
-10.8062

> <Gold.Chemscore.Internal_Hbond.Weighted>
0.0000

> <Gold.Chemscore.DEClash.Weighted>
0.0402

> <Gold.Chemscore.DEInternal.Weighted>
1.6522

> <Gold.Chemscore.Rot.Weighted>
3.6949

> <Gold.Chemscore.Internal.Correction.Weighted>
   9.000000E+99

> <Gold.Protein.RotatedTorsions>
[ 6907 6896 6895 6894 ] final  -86.14 input  -60.11 | X-H torsion
[ 7974 7965 7964 7962 ] final  148.12 input  175.53 | X-H torsion
[ 8008 7997 7996 7995 ] final  -21.20 input   59.86 | X-H torsion
[ 10167 10162 10161 10158 ] final  162.75 input  -65.29 | X-H torsion
[ 10718 10713 10712 10709 ] final  152.93 input   66.30 | X-H torsion
[ 10763 10752 10751 10750 ] final   99.95 input  -60.55 | X-H torsion
[ 11005 11000 10999 10996 ] final   67.63 input  -57.11 | X-H torsion

> <Gold.Protein.ActiveResidues>
 VAL166  LYS551  ARG553  GLY616  TRP617  ASP618  TYR619  PRO620  LYS621  CYS622 
 ASP623  PHE694  ASN695  SER759  ASP760  ASP761  ALA762  ILE779  LEU786  VAL792 
 PHE793  MET794  SER795  GLU796  ALA797  LYS798  CYS799  TRP800  GLU811  SER814 

> <Gold.Protein.RotatedAtoms>
  150.6868  134.3096  159.4740 H   0  0  0  0  0  0  0  0  0  0  0  0  # atno 6907 bound_to 6896
  152.0983  134.9357  160.0579 H   0  0  0  0  0  0  0  0  0  0  0  0  # atno 6908 bound_to 6896
  152.0646  133.4043  159.4469 H   0  0  0  0  0  0  0  0  0  0  0  0  # atno 6909 bound_to 6896
  144.8538  139.6114  143.5961 H   0  0  0  0  0  0  0  0  0  0  0  0  # atno 7974 bound_to 7965
  154.4720  140.2041  155.9970 H   0  0  0  0  0  0  0  0  0  0  0  0  # atno 8008 bound_to 7997
  156.1027  140.3241  155.7935 H   0  0  0  0  0  0  0  0  0  0  0  0  # atno 8009 bound_to 7997
  155.4769  140.0535  157.2963 H   0  0  0  0  0  0  0  0  0  0  0  0  # atno 8010 bound_to 7997
  139.4864  144.4406  151.8957 H   0  0  0  0  0  0  0  0  0  0  0  0  # atno 10167 bound_to 10162
  157.2513  131.0779  151.1728 H   0  0  0  0  0  0  0  0  0  0  0  0  # atno 10718 bound_to 10713
  153.3078  135.4096  155.1309 H   0  0  0  0  0  0  0  0  0  0  0  0  # atno 10763 bound_to 10752
  154.8567  135.3557  154.5764 H   0  0  0  0  0  0  0  0  0  0  0  0  # atno 10764 bound_to 10752
  153.6192  135.7065  153.5375 H   0  0  0  0  0  0  0  0  0  0  0  0  # atno 10765 bound_to 10752
  139.9759  134.6823  156.0354 H   0  0  0  0  0  0  0  0  0  0  0  0  # atno 11005 bound_to 11000
  146.2807  139.6869  142.9231 LP  0  0  0  0  0  0  0  0  0  0  0  0  # atno 17320 bound_to 7965
  145.4446  141.0424  143.2838 LP  0  0  0  0  0  0  0  0  0  0  0  0  # atno 17321 bound_to 7965
  140.3857  144.2679  150.5904 LP  0  0  0  0  0  0  0  0  0  0  0  0  # atno 17342 bound_to 10162
  140.5192  143.2270  151.8415 LP  0  0  0  0  0  0  0  0  0  0  0  0  # atno 17343 bound_to 10162
  157.3274  130.6968  149.6304 LP  0  0  0  0  0  0  0  0  0  0  0  0  # atno 17370 bound_to 10713
  155.9666  130.4317  150.4933 LP  0  0  0  0  0  0  0  0  0  0  0  0  # atno 17371 bound_to 10713
  141.1436  133.6560  156.3802 LP  0  0  0  0  0  0  0  0  0  0  0  0  # atno 17394 bound_to 11000
  140.5195  134.6318  157.5313 LP  0  0  0  0  0  0  0  0  0  0  0  0  # atno 17395 bound_to 11000

$$$$
