AV-unprocessed.smi:243|AV-procd|sdf|1857|dock3
  -GOLD-   2262020483D 1   1.00000     0.00000
 Structure written by MMmdl.
 58 61  0  0  0  0  0  0  0  0  2 V2000
  143.5601  132.4028  148.0396 C   0  0  0  0  0  0  0  0  0  0  0  0
  144.3404  133.3637  148.9475 C   0  0  0  0  0  0  0  0  0  0  0  0
  143.5693  133.7641  150.1553 N   0  3  1  0  0  0  0  0  0  0  0  0
  143.5070  132.7044  151.1933 C   0  0  0  0  0  0  0  0  0  0  0  0
  144.8490  132.5482  151.9269 C   0  0  0  0  0  0  0  0  0  0  0  0
  145.3074  133.8900  152.5418 C   0  0  1  0  0  0  0  0  0  0  0  0
  146.5567  133.7671  153.3091 N   0  0  0  0  0  0  0  0  0  0  0  0
  147.6603  133.0249  152.7088 C   0  0  0  0  0  0  0  0  0  0  0  0
  146.9425  134.6874  154.2333 C   0  0  0  0  0  0  0  0  0  0  0  0
  146.0250  135.5058  154.8120 N   0  0  0  0  0  0  0  0  0  0  0  0
  146.4017  136.4192  155.7110 C   0  0  0  0  0  0  0  0  0  0  0  0
  147.6259  136.6801  156.1710 N   0  0  0  0  0  0  0  0  0  0  0  0
  148.5542  135.8620  155.5977 C   0  0  0  0  0  0  0  0  0  0  0  0
  148.3016  134.8531  154.6252 C   0  0  0  0  0  0  0  0  0  0  0  0
  149.4919  134.2257  154.2772 N   0  0  0  0  0  0  0  0  0  0  0  0
  150.3955  134.8319  154.9973 C   0  0  0  0  0  0  0  0  0  0  0  0
  149.9184  135.8207  155.8280 N   0  0  0  0  0  0  0  0  0  0  0  0
  150.6998  136.6451  156.7377 C   0  0  0  0  0  0  0  0  0  0  0  0
  150.5763  138.1619  156.4578 C   0  0  1  0  0  0  0  0  0  0  0  0
  149.2812  138.5950  156.8379 O   0  0  0  0  0  0  0  0  0  0  0  0
  151.6005  138.9930  157.2194 C   0  0  0  0  0  0  0  0  0  0  0  0
  151.7783  140.2099  156.3212 C   0  0  0  0  0  0  0  0  0  0  0  0
  151.7536  139.6511  155.0185 O   0  0  0  0  0  0  0  0  0  0  0  0
  150.8199  138.5747  154.9910 C   0  0  0  0  0  0  0  0  0  0  0  0
  145.3115  135.0283  151.4834 C   0  0  2  0  0  0  0  0  0  0  0  0
  145.6143  136.3995  152.1131 C   0  0  0  0  0  0  0  0  0  0  0  0
  143.9546  135.0754  150.7440 C   0  0  0  0  0  0  0  0  0  0  0  0
  144.1946  132.0437  147.2290 H   0  0  0  0  0  0  0  0  0  0  0  0
  142.6959  132.8830  147.5815 H   0  0  0  0  0  0  0  0  0  0  0  0
  143.2100  131.5315  148.5941 H   0  0  0  0  0  0  0  0  0  0  0  0
  145.2484  132.8507  149.2666 H   0  0  0  0  0  0  0  0  0  0  0  0
  144.6691  134.2360  148.3830 H   0  0  0  0  0  0  0  0  0  0  0  0
  142.7282  132.9671  151.9106 H   0  0  0  0  0  0  0  0  0  0  0  0
  143.2015  131.7567  150.7485 H   0  0  0  0  0  0  0  0  0  0  0  0
  144.7429  131.7947  152.7077 H   0  0  0  0  0  0  0  0  0  0  0  0
  145.5914  132.1570  151.2330 H   0  0  0  0  0  0  0  0  0  0  0  0
  144.5485  134.1657  153.2757 H   0  0  0  0  0  0  0  0  0  0  0  0
  148.5439  133.6541  152.5926 H   0  0  0  0  0  0  0  0  0  0  0  0
  147.3921  132.6442  151.7232 H   0  0  0  0  0  0  0  0  0  0  0  0
  147.9253  132.1698  153.3306 H   0  0  0  0  0  0  0  0  0  0  0  0
  145.6093  137.0286  156.1197 H   0  0  0  0  0  0  0  0  0  0  0  0
  151.4420  134.5674  154.9480 H   0  0  0  0  0  0  0  0  0  0  0  0
  150.3837  136.4225  157.7578 H   0  0  0  0  0  0  0  0  0  0  0  0
  151.7432  136.3346  156.6682 H   0  0  0  0  0  0  0  0  0  0  0  0
  148.7522  138.6748  156.0586 H   0  0  0  0  0  0  0  0  0  0  0  0
  151.2937  139.2486  158.2344 H   0  0  0  0  0  0  0  0  0  0  0  0
  152.5494  138.4586  157.2837 H   0  0  0  0  0  0  0  0  0  0  0  0
  150.9475  140.9077  156.4362 H   0  0  0  0  0  0  0  0  0  0  0  0
  152.7086  140.7451  156.5125 H   0  0  0  0  0  0  0  0  0  0  0  0
  151.2600  137.7699  154.4038 H   0  0  0  0  0  0  0  0  0  0  0  0
  149.9016  138.8808  154.4876 H   0  0  0  0  0  0  0  0  0  0  0  0
  146.0823  134.8437  150.7376 H   0  0  0  0  0  0  0  0  0  0  0  0
  144.8874  136.6513  152.8857 H   0  0  0  0  0  0  0  0  0  0  0  0
  145.5890  137.1900  151.3625 H   0  0  0  0  0  0  0  0  0  0  0  0
  146.6041  136.4223  152.5694 H   0  0  0  0  0  0  0  0  0  0  0  0
  143.9645  135.8490  149.9769 H   0  0  0  0  0  0  0  0  0  0  0  0
  143.1720  135.3683  151.4457 H   0  0  0  0  0  0  0  0  0  0  0  0
  142.6191  133.8743  149.8302 H   0  0  0  0  0  0  0  0  0  0  0  0
  1  2  1  0  0  0  0
  1 28  1  0  0  0  0
  1 29  1  0  0  0  0
  1 30  1  0  0  0  0
  2  3  1  0  0  0  0
  2 31  1  0  0  0  0
  2 32  1  0  0  0  0
  3 27  1  0  0  0  0
  3  4  1  0  0  0  0
  3 58  1  0  0  0  0
  4  5  1  0  0  0  0
  4 33  1  0  0  0  0
  4 34  1  0  0  0  0
  5  6  1  0  0  0  0
  5 35  1  0  0  0  0
  5 36  1  0  0  0  0
  6  7  1  0  0  0  0
  6 25  1  0  0  0  0
  6 37  1  0  0  0  0
  7  8  1  0  0  0  0
  7  9  1  0  0  0  0
  8 38  1  0  0  0  0
  8 39  1  0  0  0  0
  8 40  1  0  0  0  0
  9 14  1  0  0  0  0
  9 10  2  0  0  0  0
 10 11  1  0  0  0  0
 11 12  2  0  0  0  0
 11 41  1  0  0  0  0
 12 13  1  0  0  0  0
 13 17  1  0  0  0  0
 13 14  2  0  0  0  0
 14 15  1  0  0  0  0
 15 16  2  0  0  0  0
 16 17  1  0  0  0  0
 16 42  1  0  0  0  0
 17 18  1  0  0  0  0
 18 19  1  0  0  0  0
 18 43  1  0  0  0  0
 18 44  1  0  0  0  0
 19 24  1  0  0  0  0
 19 20  1  0  0  0  0
 19 21  1  0  0  0  0
 20 45  1  0  0  0  0
 21 22  1  0  0  0  0
 21 46  1  0  0  0  0
 21 47  1  0  0  0  0
 22 23  1  0  0  0  0
 22 48  1  0  0  0  0
 22 49  1  0  0  0  0
 23 24  1  0  0  0  0
 24 50  1  0  0  0  0
 24 51  1  0  0  0  0
 25 26  1  0  0  0  0
 25 27  1  0  0  0  0
 25 52  1  0  0  0  0
 26 53  1  0  0  0  0
 26 54  1  0  0  0  0
 26 55  1  0  0  0  0
 27 56  1  0  0  0  0
 27 57  1  0  0  0  0
M  CHG  1   3   1
M  END
> <s_m_source_file>
AV-unprocessed.smi

> <i_m_source_file_index>
243

> <i_lp_mmshare_version>
43012

> <i_f3d_flags>
0

> <s_epik_input>
W0NIM11bQ0gyXU4xW0NIMl1bQ0gyXVtDQEhdKFtDQEBIXShbQ0gzXSlbQ0gyXTEpTihbQ0gzXSljKG5bY0hdbjIpYyhjMjMpbltjSF1uM1tDSDJdW0NAQF00KFtPSF0pW0NIMl1bQ0gyXU9bQ0gyXTQ=

> <s_epik_cmdline>
J2VwaWtfcHl0aG9uJywgJy1waCcsICc3LjAnLCAnLXRuJywgJzgnLCAnLW1hJywgJzIwMCcsICctbWV0YWxfYmluZGluZycsICctaW1hZScsICc8aW5maWxlLm1hZT4nLCAnLW9tYWUnLCAnPG91dGZpbGUubWFlPic=

> <r_lp_tautomer_probability>
1

> <r_epik_Ionization_Penalty>
0.00253099

> <r_epik_Ionization_Penalty_Charging>
0.00137877

> <r_epik_Ionization_Penalty_Neutral>
0.00115221

> <r_epik_State_Penalty>
-0

> <r_epik_Charging_Adjusted_Penalty>
0.00137877

> <i_epik_Tot_Q>
1

> <i_epik_Tot_abs_Q>
1

> <r_epik_Metal_State_Penalty>
-0

> <b_epik_Metal_Only>
0

> <s_lp_Force_Field>
OPLS_2005

> <r_lp_Energy>
46.501

> <b_lp_Chiralities_Consistent>
1

> <s_lp_Variant>
AV-unprocessed.smi:243-10

> <Gold.Version>
5.8.1

> <Gold.Id.Protein>
6NUR|6NUR_protein|mol2

> <Gold.PLP.Fitness>
38.8735

> <Gold.PLP.PLP>
-33.5834

> <Gold.PLP.part.hbond>
-2.0000

> <Gold.PLP.part.metal>
0.0000

> <Gold.PLP.part.buried>
-0.3327

> <Gold.PLP.part.nonpolar>
-32.0305

> <Gold.PLP.part.repulsive>
0.3305

> <Gold.PLP.ligand.clash>
2.9243

> <Gold.PLP.ligand.torsion>
0.8344

> <Gold.PLP.Chemscore.Hbond>
3.0000

> <Gold.PLP.Chemscore.CHOScore>
0.0000

> <Gold.PLP.Chemscore.Metal>
0.0000

> <Gold.Chemscore.Hbonds>
donor molecule, donor type, donor heavy atom, donor atom, acceptor molecule, acceptor atom, score
      L1  H     3    58       P1 10186  2.00
      P1  H  7989  7998       L1    23  1.00

> <Gold.PLP.Chemscore.Internal.Correction>
0.8833

> <Gold.Rescore>
     Score         DG    S(hbond)    S(metal)    S(lipo)     H(rot)  DE(clash)    DE(int)     intcor
     11.71     -16.56       1.94        0.00      88.20       2.24       0.35       4.51       ----

> <Gold.Chemscore.Fitness>
11.7062

> <Gold.Chemscore.DG>
-16.5612

> <Gold.Chemscore.ZeroCoef>
-5.4800

> <Gold.Chemscore.Hbond>
1.9435

> <Gold.Chemscore.Metal>
0.0000

> <Gold.Chemscore.Lipo>
88.1968

> <Gold.Chemscore.Internal_Hbond>
0.0000

> <Gold.Chemscore.DEClash>
0.3489

> <Gold.Chemscore.DEInternal>
4.5062

> <Gold.Chemscore.Rot>
2.2379

> <Gold.Chemscore.Internal.Correction>
   9.000000E+99

> <Gold.Chemscore.Hbonds>
donor molecule, donor type, donor heavy atom, donor atom, acceptor molecule, acceptor atom, score
      L1  H     3    58       P1 10186  1.00
      P1  H  7989  7998       L1    23  0.83

> <Gold.Chemscore.Hbond.Weighted>
-6.4913

> <Gold.Chemscore.Metal.Weighted>
-0.0000

> <Gold.Chemscore.Lipo.Weighted>
-10.3190

> <Gold.Chemscore.Internal_Hbond.Weighted>
0.0000

> <Gold.Chemscore.DEClash.Weighted>
0.3489

> <Gold.Chemscore.DEInternal.Weighted>
4.5062

> <Gold.Chemscore.Rot.Weighted>
5.7291

> <Gold.Chemscore.Internal.Correction.Weighted>
   9.000000E+99

> <Gold.Protein.RotatedTorsions>
[ 6907 6896 6895 6894 ] final -112.23 input  -60.11 | X-H torsion
[ 7974 7965 7964 7962 ] final   31.07 input  175.53 | X-H torsion
[ 8008 7997 7996 7995 ] final   35.21 input   59.86 | X-H torsion
[ 10167 10162 10161 10158 ] final  -81.46 input  -65.29 | X-H torsion
[ 10718 10713 10712 10709 ] final -161.91 input   66.30 | X-H torsion
[ 10763 10752 10751 10750 ] final  -73.08 input  -60.55 | X-H torsion
[ 11005 11000 10999 10996 ] final -144.93 input  -57.11 | X-H torsion

> <Gold.Protein.ActiveResidues>
 VAL166  LYS551  ARG553  GLY616  TRP617  ASP618  TYR619  PRO620  LYS621  CYS622 
 ASP623  PHE694  ASN695  SER759  ASP760  ASP761  ALA762  ILE779  LEU786  VAL792 
 PHE793  MET794  SER795  GLU796  ALA797  LYS798  CYS799  TRP800  GLU811  SER814 

> <Gold.Protein.RotatedAtoms>
  150.7744  133.9120  159.3372 H   0  0  0  0  0  0  0  0  0  0  0  0  # atno 6907 bound_to 6896
  151.6999  135.0930  160.0258 H   0  0  0  0  0  0  0  0  0  0  0  0  # atno 6908 bound_to 6896
  152.3774  133.6461  159.6170 H   0  0  0  0  0  0  0  0  0  0  0  0  # atno 6909 bound_to 6896
  146.1573  139.6705  142.9058 H   0  0  0  0  0  0  0  0  0  0  0  0  # atno 7974 bound_to 7965
  155.1674  140.3289  155.4399 H   0  0  0  0  0  0  0  0  0  0  0  0  # atno 8008 bound_to 7997
  156.2522  140.1949  156.6729 H   0  0  0  0  0  0  0  0  0  0  0  0  # atno 8009 bound_to 7997
  154.6361  140.0576  156.9777 H   0  0  0  0  0  0  0  0  0  0  0  0  # atno 8010 bound_to 7997
  140.4409  143.2515  151.8626 H   0  0  0  0  0  0  0  0  0  0  0  0  # atno 10167 bound_to 10162
  156.6029  130.8818  151.2918 H   0  0  0  0  0  0  0  0  0  0  0  0  # atno 10718 bound_to 10713
  154.4545  135.5909  153.6214 H   0  0  0  0  0  0  0  0  0  0  0  0  # atno 10763 bound_to 10752
  152.9817  135.6029  154.3563 H   0  0  0  0  0  0  0  0  0  0  0  0  # atno 10764 bound_to 10752
  154.3428  135.2841  155.2392 H   0  0  0  0  0  0  0  0  0  0  0  0  # atno 10765 bound_to 10752
  140.7974  134.2897  157.4991 H   0  0  0  0  0  0  0  0  0  0  0  0  # atno 11005 bound_to 11000
  145.4677  141.0435  143.2716 LP  0  0  0  0  0  0  0  0  0  0  0  0  # atno 17320 bound_to 7965
  144.7980  139.6197  143.7084 LP  0  0  0  0  0  0  0  0  0  0  0  0  # atno 17321 bound_to 7965
  139.4789  144.5230  151.8775 LP  0  0  0  0  0  0  0  0  0  0  0  0  # atno 17342 bound_to 10162
  140.4319  144.2104  150.5888 LP  0  0  0  0  0  0  0  0  0  0  0  0  # atno 17343 bound_to 10162
  157.7275  130.9643  150.1700 LP  0  0  0  0  0  0  0  0  0  0  0  0  # atno 17370 bound_to 10713
  156.2454  130.3695  149.8291 LP  0  0  0  0  0  0  0  0  0  0  0  0  # atno 17371 bound_to 10713
  139.8725  134.9410  156.3784 LP  0  0  0  0  0  0  0  0  0  0  0  0  # atno 17394 bound_to 11000
  140.9329  133.7567  156.0048 LP  0  0  0  0  0  0  0  0  0  0  0  0  # atno 17395 bound_to 11000

$$$$
