AV-unprocessed.smi:240|AV-procd|sdf|1831|dock6
  -GOLD-   2262020433D 1   1.00000     0.00000
 Structure written by MMmdl.
 55 59  0  0  0  0  0  0  0  0  1 V2000
  150.0094  140.5291  153.8228 O   0  0  0  0  0  0  0  0  0  0  0  0
  149.2008  141.4184  154.5655 C   0  0  1  0  0  0  0  0  0  0  0  0
  147.7211  141.2417  154.2274 C   0  0  0  0  0  0  0  0  0  0  0  0
  146.9820  141.8321  155.4324 C   0  0  0  0  0  0  0  0  0  0  0  0
  147.9465  141.7251  156.6252 C   0  0  0  0  0  0  0  0  0  0  0  0
  149.2558  141.1296  156.0721 C   0  0  2  0  0  0  0  0  0  0  0  0
  150.5658  141.5561  156.8022 C   0  0  1  0  0  0  0  0  0  0  0  0
  150.3469  142.6259  157.9027 C   0  0  0  0  0  0  0  0  0  0  0  0
  151.5878  142.9748  158.5054 O   0  0  0  0  0  0  0  0  0  0  0  0
  152.1974  141.8621  159.1452 C   0  0  0  0  0  0  0  0  0  0  0  0
  152.5068  140.7916  158.0911 C   0  0  0  0  0  0  0  0  0  0  0  0
  151.2924  140.4149  157.3771 N   0  0  0  0  0  0  0  0  0  0  0  0
  151.5294  139.3584  156.5666 C   0  0  0  0  0  0  0  0  0  0  0  0
  152.4326  139.5390  155.5718 N   0  0  0  0  0  0  0  0  0  0  0  0
  152.7176  138.5343  154.7381 C   0  0  0  0  0  0  0  0  0  0  0  0
  152.2175  137.2968  154.7200 N   0  0  0  0  0  0  0  0  0  0  0  0
  151.2975  137.1172  155.7113 C   0  0  0  0  0  0  0  0  0  0  0  0
  150.8963  138.0868  156.6725 C   0  0  0  0  0  0  0  0  0  0  0  0
  149.9429  137.5421  157.5242 N   0  0  0  0  0  0  0  0  0  0  0  0
  149.7952  136.3184  157.0961 C   0  0  0  0  0  0  0  0  0  0  0  0
  150.5609  135.9818  156.0023 N   0  0  0  0  0  0  0  0  0  0  0  0
  150.5918  134.6985  155.3168 C   0  0  0  0  0  0  0  0  0  0  0  0
  149.2660  134.3447  154.6015 C   0  0  1  0  0  0  0  0  0  0  0  0
  148.6853  135.5289  154.0824 O   0  0  0  0  0  0  0  0  0  0  0  0
  149.4601  133.3639  153.4514 C   0  0  0  0  0  0  0  0  0  0  0  0
  148.1307  132.6228  153.4116 C   0  0  0  0  0  0  0  0  0  0  0  0
  147.8199  132.4623  154.7849 O   0  0  0  0  0  0  0  0  0  0  0  0
  148.2204  133.6351  155.4878 C   0  0  0  0  0  0  0  0  0  0  0  0
  149.6414  140.4391  152.9570 H   0  0  0  0  0  0  0  0  0  0  0  0
  149.4901  142.4447  154.3434 H   0  0  0  0  0  0  0  0  0  0  0  0
  147.4429  141.7192  153.2874 H   0  0  0  0  0  0  0  0  0  0  0  0
  147.4809  140.1804  154.1432 H   0  0  0  0  0  0  0  0  0  0  0  0
  146.7474  142.8807  155.2457 H   0  0  0  0  0  0  0  0  0  0  0  0
  146.0399  141.3153  155.6182 H   0  0  0  0  0  0  0  0  0  0  0  0
  148.0952  142.7120  157.0606 H   0  0  0  0  0  0  0  0  0  0  0  0
  147.5367  141.0913  157.4125 H   0  0  0  0  0  0  0  0  0  0  0  0
  149.1530  140.0467  156.1585 H   0  0  0  0  0  0  0  0  0  0  0  0
  151.2176  142.0135  156.0581 H   0  0  0  0  0  0  0  0  0  0  0  0
  149.9275  143.5384  157.4827 H   0  0  0  0  0  0  0  0  0  0  0  0
  149.6570  142.2844  158.6744 H   0  0  0  0  0  0  0  0  0  0  0  0
  153.1169  142.1892  159.6306 H   0  0  0  0  0  0  0  0  0  0  0  0
  151.5450  141.4675  159.9260 H   0  0  0  0  0  0  0  0  0  0  0  0
  153.2440  141.1719  157.3822 H   0  0  0  0  0  0  0  0  0  0  0  0
  152.9452  139.9168  158.5738 H   0  0  0  0  0  0  0  0  0  0  0  0
  153.4523  138.7526  153.9771 H   0  0  0  0  0  0  0  0  0  0  0  0
  149.1149  135.6254  157.5692 H   0  0  0  0  0  0  0  0  0  0  0  0
  151.4130  134.7134  154.5992 H   0  0  0  0  0  0  0  0  0  0  0  0
  150.8412  133.9294  156.0491 H   0  0  0  0  0  0  0  0  0  0  0  0
  148.9769  135.6402  153.1906 H   0  0  0  0  0  0  0  0  0  0  0  0
  149.7147  133.8414  152.5042 H   0  0  0  0  0  0  0  0  0  0  0  0
  150.2543  132.6544  153.6884 H   0  0  0  0  0  0  0  0  0  0  0  0
  147.3596  133.2244  152.9281 H   0  0  0  0  0  0  0  0  0  0  0  0
  148.1954  131.6634  152.8980 H   0  0  0  0  0  0  0  0  0  0  0  0
  148.6307  133.3258  156.4485 H   0  0  0  0  0  0  0  0  0  0  0  0
  147.3529  134.2653  155.6905 H   0  0  0  0  0  0  0  0  0  0  0  0
  1  2  1  0  0  0  0
  1 29  1  0  0  0  0
  2  6  1  0  0  0  0
  2  3  1  0  0  0  0
  2 30  1  0  0  0  0
  3  4  1  0  0  0  0
  3 31  1  0  0  0  0
  3 32  1  0  0  0  0
  4  5  1  0  0  0  0
  4 33  1  0  0  0  0
  4 34  1  0  0  0  0
  5  6  1  0  0  0  0
  5 35  1  0  0  0  0
  5 36  1  0  0  0  0
  6  7  1  0  0  0  0
  6 37  1  0  0  0  0
  7 12  1  0  0  0  0
  7  8  1  0  0  0  0
  7 38  1  0  0  0  0
  8  9  1  0  0  0  0
  8 39  1  0  0  0  0
  8 40  1  0  0  0  0
  9 10  1  0  0  0  0
 10 11  1  0  0  0  0
 10 41  1  0  0  0  0
 10 42  1  0  0  0  0
 11 12  1  0  0  0  0
 11 43  1  0  0  0  0
 11 44  1  0  0  0  0
 12 13  1  0  0  0  0
 13 18  1  0  0  0  0
 13 14  2  0  0  0  0
 14 15  1  0  0  0  0
 15 16  2  0  0  0  0
 15 45  1  0  0  0  0
 16 17  1  0  0  0  0
 17 21  1  0  0  0  0
 17 18  2  0  0  0  0
 18 19  1  0  0  0  0
 19 20  2  0  0  0  0
 20 21  1  0  0  0  0
 20 46  1  0  0  0  0
 21 22  1  0  0  0  0
 22 23  1  0  0  0  0
 22 47  1  0  0  0  0
 22 48  1  0  0  0  0
 23 28  1  0  0  0  0
 23 24  1  0  0  0  0
 23 25  1  0  0  0  0
 24 49  1  0  0  0  0
 25 26  1  0  0  0  0
 25 50  1  0  0  0  0
 25 51  1  0  0  0  0
 26 27  1  0  0  0  0
 26 52  1  0  0  0  0
 26 53  1  0  0  0  0
 27 28  1  0  0  0  0
 28 54  1  0  0  0  0
 28 55  1  0  0  0  0
M  END
> <s_m_source_file>
AV-unprocessed.smi

> <i_m_source_file_index>
240

> <i_lp_mmshare_version>
43012

> <i_f3d_flags>
0

> <s_epik_input>
W09IXVtDQEBIXTFbQ0gyXVtDSDJdW0NIMl1bQ0BIXTFbQ0BASF0yW0NIMl1PW0NIMl1bQ0gyXU4yYyhuW2NIXW4zKWMoYzM0KW5bY0hdbjRbQ0gyXVtDQEBdNShbT0hdKVtDSDJdW0NIMl1PW0NIMl01

> <s_epik_cmdline>
J2VwaWtfcHl0aG9uJywgJy1waCcsICc3LjAnLCAnLXRuJywgJzgnLCAnLW1hJywgJzIwMCcsICctbWV0YWxfYmluZGluZycsICctaW1hZScsICc8aW5maWxlLm1hZT4nLCAnLW9tYWUnLCAnPG91dGZpbGUubWFlPic=

> <r_lp_tautomer_probability>
1

> <r_epik_Ionization_Penalty>
0.000130618

> <r_epik_Ionization_Penalty_Charging>
0

> <r_epik_Ionization_Penalty_Neutral>
0.000130618

> <r_epik_State_Penalty>
-0

> <r_epik_Charging_Adjusted_Penalty>
0

> <i_epik_Tot_Q>
0

> <i_epik_Tot_abs_Q>
0

> <r_epik_Metal_State_Penalty>
-0

> <b_epik_Metal_Only>
0

> <s_lp_Force_Field>
OPLS_2005

> <r_lp_Energy>
62.0257

> <b_lp_Chiralities_Consistent>
1

> <s_lp_Variant>
AV-unprocessed.smi:240-8

> <Gold.Version>
5.8.1

> <Gold.Id.Protein>
6NUR|6NUR_protein|mol2

> <Gold.PLP.Fitness>
50.9083

> <Gold.PLP.PLP>
-41.7173

> <Gold.PLP.part.hbond>
-4.1967

> <Gold.PLP.part.metal>
0.0000

> <Gold.PLP.part.buried>
-5.7404

> <Gold.PLP.part.nonpolar>
-30.4987

> <Gold.PLP.part.repulsive>
0.1343

> <Gold.PLP.ligand.clash>
0.0000

> <Gold.PLP.ligand.torsion>
2.0556

> <Gold.PLP.Chemscore.Hbond>
4.3655

> <Gold.PLP.Chemscore.CHOScore>
0.0000

> <Gold.PLP.Chemscore.Metal>
0.0000

> <Gold.Chemscore.Hbonds>
donor molecule, donor type, donor heavy atom, donor atom, acceptor molecule, acceptor atom, score
      L1  H     1    29       P1  7957  1.00
      L1  H    24    49       P1  7948  0.75
      P1  H  7989  7998       L1     1  0.64
      P1  H  7997  8009       L1    14  0.83
      P1  H 10752 10765       L1    16  0.80

> <Gold.PLP.Chemscore.Internal.Correction>
0.2057

> <Gold.Rescore>
     Score         DG    S(hbond)    S(metal)    S(lipo)     H(rot)  DE(clash)    DE(int)     intcor
     17.76     -20.24       3.71        0.00      86.00       3.00       0.36       2.11       ----

> <Gold.Chemscore.Fitness>
17.7621

> <Gold.Chemscore.DG>
-20.2395

> <Gold.Chemscore.ZeroCoef>
-5.4800

> <Gold.Chemscore.Hbond>
3.7088

> <Gold.Chemscore.Metal>
0.0000

> <Gold.Chemscore.Lipo>
85.9999

> <Gold.Chemscore.Internal_Hbond>
0.0000

> <Gold.Chemscore.DEClash>
0.3633

> <Gold.Chemscore.DEInternal>
2.1141

> <Gold.Chemscore.Rot>
3.0039

> <Gold.Chemscore.Internal.Correction>
   9.000000E+99

> <Gold.Chemscore.Hbonds>
donor molecule, donor type, donor heavy atom, donor atom, acceptor molecule, acceptor atom, score
      L1  H     1    29       P1  7957  0.99
      L1  H    24    49       P1  7948  0.54
      P1  H  7989  7998       L1     1  0.19
      P1  H  7997  8009       L1    14  0.25
      P1  H 10752 10765       L1    16  0.44

> <Gold.Chemscore.Hbond.Weighted>
-12.3874

> <Gold.Chemscore.Metal.Weighted>
-0.0000

> <Gold.Chemscore.Lipo.Weighted>
-10.0620

> <Gold.Chemscore.Internal_Hbond.Weighted>
0.0000

> <Gold.Chemscore.DEClash.Weighted>
0.3633

> <Gold.Chemscore.DEInternal.Weighted>
2.1141

> <Gold.Chemscore.Rot.Weighted>
7.6899

> <Gold.Chemscore.Internal.Correction.Weighted>
   9.000000E+99

> <Gold.Protein.RotatedTorsions>
[ 6907 6896 6895 6894 ] final   90.16 input  -60.11 | X-H torsion
[ 7974 7965 7964 7962 ] final   -6.35 input  175.53 | X-H torsion
[ 8008 7997 7996 7995 ] final -154.47 input   59.86 | X-H torsion
[ 10167 10162 10161 10158 ] final   67.69 input  -65.29 | X-H torsion
[ 10718 10713 10712 10709 ] final  158.93 input   66.30 | X-H torsion
[ 10763 10752 10751 10750 ] final  169.82 input  -60.55 | X-H torsion
[ 11005 11000 10999 10996 ] final -166.23 input  -57.11 | X-H torsion

> <Gold.Protein.ActiveResidues>
 VAL166  LYS551  ARG553  GLY616  TRP617  ASP618  TYR619  PRO620  LYS621  CYS622 
 ASP623  PHE694  ASN695  SER759  ASP760  ASP761  ALA762  ILE779  LEU786  VAL792 
 PHE793  MET794  SER795  GLU796  ALA797  LYS798  CYS799  TRP800  GLU811  SER814 

> <Gold.Protein.RotatedAtoms>
  152.5442  134.1854  159.8652 H   0  0  0  0  0  0  0  0  0  0  0  0  # atno 6907 bound_to 6896
  151.1853  133.4693  159.2602 H   0  0  0  0  0  0  0  0  0  0  0  0  # atno 6908 bound_to 6896
  151.1137  135.0053  159.8561 H   0  0  0  0  0  0  0  0  0  0  0  0  # atno 6909 bound_to 6896
  146.2333  140.2158  142.8336 H   0  0  0  0  0  0  0  0  0  0  0  0  # atno 7974 bound_to 7965
  155.6868  140.0751  157.2463 H   0  0  0  0  0  0  0  0  0  0  0  0  # atno 8008 bound_to 7997
  154.4095  140.1672  156.2095 H   0  0  0  0  0  0  0  0  0  0  0  0  # atno 8009 bound_to 7997
  155.9486  140.3379  155.6392 H   0  0  0  0  0  0  0  0  0  0  0  0  # atno 8010 bound_to 7997
  140.0868  144.5023  150.7125 H   0  0  0  0  0  0  0  0  0  0  0  0  # atno 10167 bound_to 10162
  157.1711  131.0610  151.2182 H   0  0  0  0  0  0  0  0  0  0  0  0  # atno 10718 bound_to 10713
  154.3886  135.2754  155.2168 H   0  0  0  0  0  0  0  0  0  0  0  0  # atno 10763 bound_to 10752
  154.4244  135.5992  153.6033 H   0  0  0  0  0  0  0  0  0  0  0  0  # atno 10764 bound_to 10752
  152.9832  135.5980  154.4138 H   0  0  0  0  0  0  0  0  0  0  0  0  # atno 10765 bound_to 10752
  140.5668  134.5278  157.5154 H   0  0  0  0  0  0  0  0  0  0  0  0  # atno 11005 bound_to 11000
  144.9671  140.8332  143.5478 LP  0  0  0  0  0  0  0  0  0  0  0  0  # atno 17320 bound_to 7965
  145.2135  139.2193  143.5130 LP  0  0  0  0  0  0  0  0  0  0  0  0  # atno 17321 bound_to 7965
  140.7049  143.2461  151.4755 LP  0  0  0  0  0  0  0  0  0  0  0  0  # atno 17342 bound_to 10162
  139.5748  144.1845  152.1887 LP  0  0  0  0  0  0  0  0  0  0  0  0  # atno 17343 bound_to 10162
  157.4042  130.7350  149.6790 LP  0  0  0  0  0  0  0  0  0  0  0  0  # atno 17370 bound_to 10713
  155.9738  130.4112  150.3972 LP  0  0  0  0  0  0  0  0  0  0  0  0  # atno 17371 bound_to 10713
  139.9381  134.7837  156.0749 LP  0  0  0  0  0  0  0  0  0  0  0  0  # atno 17394 bound_to 11000
  141.1081  133.6653  156.2912 LP  0  0  0  0  0  0  0  0  0  0  0  0  # atno 17395 bound_to 11000

$$$$
