AV-unprocessed.smi:2856|AV-procd|sdf|10994|dock7
  -GOLD-   2272015453D 1   1.00000     0.00000
 Structure written by MMmdl.
 37 38  0  0  0  0  0  0  0  0  1 V2000
  144.7044  144.1120  154.5621 C   0  0  0  0  0  0  0  0  0  0  0  0
  145.5043  143.3487  155.9992 S   0  0  0  0  0  0  0  0  0  0  0  0
  146.1540  141.8155  155.2609 C   0  0  1  0  0  0  0  0  0  0  0  0
  146.7013  142.0832  153.8451 C   0  0  0  0  0  0  0  0  0  0  0  0
  147.2185  140.7935  153.1884 C   0  0  0  0  0  0  0  0  0  0  0  0
  148.2787  140.1084  154.0637 C   0  0  0  0  0  0  0  0  0  0  0  0
  147.7432  139.8390  155.4805 C   0  0  0  0  0  0  0  0  0  0  0  0
  147.2092  141.1203  156.1568 C   0  0  1  0  0  0  0  0  0  0  0  0
  148.3087  142.0312  156.4794 N   0  0  0  0  0  0  0  0  0  0  0  0
  149.3224  141.7613  157.3143 C   0  0  0  0  0  0  0  0  0  0  0  0
  149.4428  140.6938  157.9159 O   0  0  0  0  0  0  0  0  0  0  0  0
  150.1747  142.7971  157.3963 N   0  0  0  0  0  0  0  0  0  0  0  0
  151.3628  142.8794  158.1666 C   0  0  0  0  0  0  0  0  0  0  0  0
  151.7655  141.8046  159.0032 C   0  0  0  0  0  0  0  0  0  0  0  0
  152.9227  142.2681  159.5637 C   0  0  0  0  0  0  0  0  0  0  0  0
  153.8821  141.6826  160.5422 C   0  0  0  0  0  0  0  0  0  0  0  0
  153.2059  143.5165  159.1027 O   0  0  0  0  0  0  0  0  0  0  0  0
  152.2017  143.9032  158.2073 N   0  0  0  0  0  0  0  0  0  0  0  0
  144.3403  145.1059  154.8223 H   0  0  0  0  0  0  0  0  0  0  0  0
  143.8554  143.5158  154.2293 H   0  0  0  0  0  0  0  0  0  0  0  0
  145.4101  144.2092  153.7371 H   0  0  0  0  0  0  0  0  0  0  0  0
  145.3025  141.1414  155.1567 H   0  0  0  0  0  0  0  0  0  0  0  0
  145.9204  142.5201  153.2219 H   0  0  0  0  0  0  0  0  0  0  0  0
  147.5053  142.8190  153.8882 H   0  0  0  0  0  0  0  0  0  0  0  0
  146.3855  140.1095  153.0216 H   0  0  0  0  0  0  0  0  0  0  0  0
  147.6353  141.0177  152.2062 H   0  0  0  0  0  0  0  0  0  0  0  0
  148.5906  139.1714  153.6017 H   0  0  0  0  0  0  0  0  0  0  0  0
  149.1695  140.7353  154.1181 H   0  0  0  0  0  0  0  0  0  0  0  0
  146.9376  139.1061  155.4211 H   0  0  0  0  0  0  0  0  0  0  0  0
  148.5208  139.3802  156.0924 H   0  0  0  0  0  0  0  0  0  0  0  0
  146.7215  140.8242  157.0863 H   0  0  0  0  0  0  0  0  0  0  0  0
  148.2891  142.9364  156.0329 H   0  0  0  0  0  0  0  0  0  0  0  0
  149.9562  143.6098  156.8394 H   0  0  0  0  0  0  0  0  0  0  0  0
  151.2853  140.8520  159.1708 H   0  0  0  0  0  0  0  0  0  0  0  0
  153.5188  140.7268  160.9205 H   0  0  0  0  0  0  0  0  0  0  0  0
  154.0225  142.3507  161.3922 H   0  0  0  0  0  0  0  0  0  0  0  0
  154.8541  141.5155  160.0783 H   0  0  0  0  0  0  0  0  0  0  0  0
  1  2  1  0  0  0  0
  1 19  1  0  0  0  0
  1 20  1  0  0  0  0
  1 21  1  0  0  0  0
  2  3  1  0  0  0  0
  3  8  1  0  0  0  0
  3  4  1  0  0  0  0
  3 22  1  0  0  0  0
  4  5  1  0  0  0  0
  4 23  1  0  0  0  0
  4 24  1  0  0  0  0
  5  6  1  0  0  0  0
  5 25  1  0  0  0  0
  5 26  1  0  0  0  0
  6  7  1  0  0  0  0
  6 27  1  0  0  0  0
  6 28  1  0  0  0  0
  7  8  1  0  0  0  0
  7 29  1  0  0  0  0
  7 30  1  0  0  0  0
  8  9  1  0  0  0  0
  8 31  1  0  0  0  0
  9 10  1  0  0  0  0
  9 32  1  0  0  0  0
 10 11  2  0  0  0  0
 10 12  1  0  0  0  0
 12 13  1  0  0  0  0
 12 33  1  0  0  0  0
 13 18  2  0  0  0  0
 13 14  1  0  0  0  0
 14 15  2  0  0  0  0
 14 34  1  0  0  0  0
 15 16  1  0  0  0  0
 15 17  1  0  0  0  0
 16 35  1  0  0  0  0
 16 36  1  0  0  0  0
 16 37  1  0  0  0  0
 17 18  1  0  0  0  0
M  END
> <s_m_source_file>
AV-unprocessed.smi

> <i_m_source_file_index>
2856

> <i_lp_mmshare_version>
43012

> <i_f3d_flags>
0

> <s_epik_input>
W0NIM11TW0NAQEhdMVtDSDJdW0NIMl1bQ0gyXVtDSDJdW0NASF0xW05IXUMoPU8pW05IXWMyW2NIXWMoW0NIM10pb24y

> <s_epik_cmdline>
J2VwaWtfcHl0aG9uJywgJy1waCcsICc3LjAnLCAnLXRuJywgJzgnLCAnLW1hJywgJzIwMCcsICctbWV0YWxfYmluZGluZycsICctaW1hZScsICc8aW5maWxlLm1hZT4nLCAnLW9tYWUnLCAnPG91dGZpbGUubWFlPic=

> <r_lp_tautomer_probability>
1

> <r_epik_Ionization_Penalty>
2.20874e-05

> <r_epik_Ionization_Penalty_Charging>
0

> <r_epik_Ionization_Penalty_Neutral>
2.20874e-05

> <r_epik_State_Penalty>
-0

> <r_epik_Charging_Adjusted_Penalty>
0

> <i_epik_Tot_Q>
0

> <i_epik_Tot_abs_Q>
0

> <r_epik_Metal_State_Penalty>
-0

> <b_epik_Metal_Only>
0

> <s_lp_Force_Field>
OPLS_2005

> <r_lp_Energy>
4.92743

> <b_lp_Chiralities_Consistent>
1

> <s_lp_Variant>
AV-unprocessed.smi:2856-2

> <Gold.Version>
5.8.1

> <Gold.Id.Protein>
6NUR|6NUR_protein|mol2

> <Gold.PLP.Fitness>
37.7048

> <Gold.PLP.PLP>
-32.0318

> <Gold.PLP.part.hbond>
-2.0000

> <Gold.PLP.part.metal>
0.0000

> <Gold.PLP.part.buried>
-6.3961

> <Gold.PLP.part.nonpolar>
-23.5816

> <Gold.PLP.part.repulsive>
0.0870

> <Gold.PLP.ligand.clash>
0.0000

> <Gold.PLP.ligand.torsion>
0.1709

> <Gold.PLP.Chemscore.Hbond>
2.0000

> <Gold.PLP.Chemscore.CHOScore>
0.0000

> <Gold.PLP.Chemscore.Metal>
0.0000

> <Gold.Chemscore.Hbonds>
donor molecule, donor type, donor heavy atom, donor atom, acceptor molecule, acceptor atom, score
      L1  H     9    32       P1  8028  1.00
      L1  H    12    33       P1  8028  1.00

> <Gold.PLP.Chemscore.Internal.Correction>
0.0147

> <Gold.Rescore>
     Score         DG    S(hbond)    S(metal)    S(lipo)     H(rot)  DE(clash)    DE(int)     intcor
     15.09     -16.76       1.89        0.00      68.86       1.21       0.01       1.66       ----

> <Gold.Chemscore.Fitness>
15.0938

> <Gold.Chemscore.DG>
-16.7638

> <Gold.Chemscore.ZeroCoef>
-5.4800

> <Gold.Chemscore.Hbond>
1.8943

> <Gold.Chemscore.Metal>
0.0000

> <Gold.Chemscore.Lipo>
68.8629

> <Gold.Chemscore.Internal_Hbond>
0.0000

> <Gold.Chemscore.DEClash>
0.0098

> <Gold.Chemscore.DEInternal>
1.6602

> <Gold.Chemscore.Rot>
1.2109

> <Gold.Chemscore.Internal.Correction>
   9.000000E+99

> <Gold.Chemscore.Hbonds>
donor molecule, donor type, donor heavy atom, donor atom, acceptor molecule, acceptor atom, score
      L1  H     9    32       P1  8028  0.87
      L1  H    12    33       P1  8028  0.98

> <Gold.Chemscore.Hbond.Weighted>
-6.3268

> <Gold.Chemscore.Metal.Weighted>
-0.0000

> <Gold.Chemscore.Lipo.Weighted>
-8.0570

> <Gold.Chemscore.Internal_Hbond.Weighted>
0.0000

> <Gold.Chemscore.DEClash.Weighted>
0.0098

> <Gold.Chemscore.DEInternal.Weighted>
1.6602

> <Gold.Chemscore.Rot.Weighted>
3.1000

> <Gold.Chemscore.Internal.Correction.Weighted>
   9.000000E+99

> <Gold.Protein.RotatedTorsions>
[ 6907 6896 6895 6894 ] final  132.81 input  -60.11 | X-H torsion
[ 7974 7965 7964 7962 ] final   46.40 input  175.53 | X-H torsion
[ 8008 7997 7996 7995 ] final   -7.18 input   59.86 | X-H torsion
[ 10167 10162 10161 10158 ] final   87.30 input  -65.29 | X-H torsion
[ 10718 10713 10712 10709 ] final -104.85 input   66.30 | X-H torsion
[ 10763 10752 10751 10750 ] final  -51.23 input  -60.55 | X-H torsion
[ 11005 11000 10999 10996 ] final   26.75 input  -57.11 | X-H torsion

> <Gold.Protein.ActiveResidues>
 VAL166  LYS551  ARG553  GLY616  TRP617  ASP618  TYR619  PRO620  LYS621  CYS622 
 ASP623  PHE694  ASN695  SER759  ASP760  ASP761  ALA762  ILE779  LEU786  VAL792 
 PHE793  MET794  SER795  GLU796  ALA797  LYS798  CYS799  TRP800  GLU811  SER814 

> <Gold.Protein.RotatedAtoms>
  152.3285  133.5932  159.5793 H   0  0  0  0  0  0  0  0  0  0  0  0  # atno 6907 bound_to 6896
  150.7410  133.9903  159.3614 H   0  0  0  0  0  0  0  0  0  0  0  0  # atno 6908 bound_to 6896
  151.7780  135.0769  160.0420 H   0  0  0  0  0  0  0  0  0  0  0  0  # atno 6909 bound_to 6896
  146.0393  139.4860  142.9788 H   0  0  0  0  0  0  0  0  0  0  0  0  # atno 7974 bound_to 7965
  154.5864  140.2413  155.7982 H   0  0  0  0  0  0  0  0  0  0  0  0  # atno 8008 bound_to 7997
  156.2216  140.2996  155.9921 H   0  0  0  0  0  0  0  0  0  0  0  0  # atno 8009 bound_to 7997
  155.2451  140.0408  157.2970 H   0  0  0  0  0  0  0  0  0  0  0  0  # atno 8010 bound_to 7997
  139.8787  144.6452  150.8867 H   0  0  0  0  0  0  0  0  0  0  0  0  # atno 10167 bound_to 10162
  156.0321  130.5535  150.7455 H   0  0  0  0  0  0  0  0  0  0  0  0  # atno 10718 bound_to 10713
  154.1233  135.6531  153.4907 H   0  0  0  0  0  0  0  0  0  0  0  0  # atno 10763 bound_to 10752
  153.0218  135.5275  154.7075 H   0  0  0  0  0  0  0  0  0  0  0  0  # atno 10764 bound_to 10752
  154.6289  135.2973  155.0210 H   0  0  0  0  0  0  0  0  0  0  0  0  # atno 10765 bound_to 10752
  140.3337  134.2409  155.7699 H   0  0  0  0  0  0  0  0  0  0  0  0  # atno 11005 bound_to 11000
  145.6910  141.0164  143.1555 LP  0  0  0  0  0  0  0  0  0  0  0  0  # atno 17320 bound_to 7965
  144.7067  139.8533  143.7428 LP  0  0  0  0  0  0  0  0  0  0  0  0  # atno 17321 bound_to 7965
  140.7748  143.3603  151.1841 LP  0  0  0  0  0  0  0  0  0  0  0  0  # atno 17342 bound_to 10162
  139.7216  143.9215  152.2987 LP  0  0  0  0  0  0  0  0  0  0  0  0  # atno 17343 bound_to 10162
  157.5013  131.0919  151.0311 LP  0  0  0  0  0  0  0  0  0  0  0  0  # atno 17370 bound_to 10713
  157.0691  130.5856  149.5399 LP  0  0  0  0  0  0  0  0  0  0  0  0  # atno 17371 bound_to 10713
  141.2057  133.7854  157.0220 LP  0  0  0  0  0  0  0  0  0  0  0  0  # atno 17394 bound_to 11000
  140.0839  134.9632  157.1668 LP  0  0  0  0  0  0  0  0  0  0  0  0  # atno 17395 bound_to 11000

$$$$
