AV-unprocessed.smi:281|AV-procd|sdf|2115|dock3
  -GOLD-   2262021413D 1   1.00000     0.00000
 Structure written by MMmdl.
 55 59  0  0  0  0  0  0  0  0  1 V2000
  154.7132  140.2832  161.0169 C   0  0  0  0  0  0  0  0  0  0  0  0
  153.4159  140.9482  160.5470 C   0  0  2  0  0  0  0  0  0  0  0  0
  152.6146  140.0479  159.5952 C   0  0  0  0  0  0  0  0  0  0  0  0
  151.4386  140.7645  159.1210 N   0  0  0  0  0  0  0  0  0  0  0  0
  150.4810  139.9893  158.5517 C   0  0  0  0  0  0  0  0  0  0  0  0
  149.9733  138.9263  159.2318 N   0  0  0  0  0  0  0  0  0  0  0  0
  149.0268  138.1608  158.6809 C   0  0  0  0  0  0  0  0  0  0  0  0
  148.4552  138.2753  157.4810 N   0  0  0  0  0  0  0  0  0  0  0  0
  148.9630  139.3360  156.7903 C   0  0  0  0  0  0  0  0  0  0  0  0
  149.9704  140.2333  157.2450 C   0  0  0  0  0  0  0  0  0  0  0  0
  150.2451  141.1729  156.2581 N   0  0  0  0  0  0  0  0  0  0  0  0
  149.4403  140.8549  155.2814 C   0  0  0  0  0  0  0  0  0  0  0  0
  148.6261  139.7706  155.5198 N   0  0  0  0  0  0  0  0  0  0  0  0
  147.6404  139.1996  154.6138 C   0  0  0  0  0  0  0  0  0  0  0  0
  146.4745  140.1599  154.2771 C   0  0  2  0  0  0  0  0  0  0  0  0
  145.6280  139.5478  153.3193 O   0  0  0  0  0  0  0  0  0  0  0  0
  146.9528  141.4912  153.7100 C   0  0  0  0  0  0  0  0  0  0  0  0
  145.8613  142.4573  154.1500 C   0  0  0  0  0  0  0  0  0  0  0  0
  145.5554  142.0104  155.4597 O   0  0  0  0  0  0  0  0  0  0  0  0
  145.6164  140.5872  155.4865 C   0  0  0  0  0  0  0  0  0  0  0  0
  151.7705  142.0326  158.4793 C   0  0  0  0  0  0  0  0  0  0  0  0
  152.6381  142.9206  159.4065 C   0  0  1  0  0  0  0  0  0  0  0  0
  153.1587  144.1295  158.6456 C   0  0  0  0  0  0  0  0  0  0  0  0
  151.9885  145.1048  158.7169 C   0  0  0  0  0  0  0  0  0  0  0  0
  151.3106  144.8082  159.9336 O   0  0  0  0  0  0  0  0  0  0  0  0
  151.8223  143.6133  160.5226 C   0  0  2  0  0  0  0  0  0  0  0  0
  152.6437  144.0654  161.7458 C   0  0  0  0  0  0  0  0  0  0  0  0
  153.7574  142.1652  159.8811 O   0  0  0  0  0  0  0  0  0  0  0  0
  154.5077  139.3531  161.5475 H   0  0  0  0  0  0  0  0  0  0  0  0
  155.2623  140.9376  161.6944 H   0  0  0  0  0  0  0  0  0  0  0  0
  155.3657  140.0522  160.1745 H   0  0  0  0  0  0  0  0  0  0  0  0
  152.8039  141.1622  161.4231 H   0  0  0  0  0  0  0  0  0  0  0  0
  153.2270  139.7650  158.7378 H   0  0  0  0  0  0  0  0  0  0  0  0
  152.3426  139.1257  160.1072 H   0  0  0  0  0  0  0  0  0  0  0  0
  148.6775  137.3393  159.2886 H   0  0  0  0  0  0  0  0  0  0  0  0
  149.4210  141.4079  154.3536 H   0  0  0  0  0  0  0  0  0  0  0  0
  148.1548  138.8982  153.7003 H   0  0  0  0  0  0  0  0  0  0  0  0
  147.2543  138.2830  155.0620 H   0  0  0  0  0  0  0  0  0  0  0  0
  144.7326  139.7671  153.5265 H   0  0  0  0  0  0  0  0  0  0  0  0
  147.8944  141.7844  154.1760 H   0  0  0  0  0  0  0  0  0  0  0  0
  147.1074  141.4798  152.6301 H   0  0  0  0  0  0  0  0  0  0  0  0
  146.1883  143.4973  154.1451 H   0  0  0  0  0  0  0  0  0  0  0  0
  144.9782  142.3684  153.5153 H   0  0  0  0  0  0  0  0  0  0  0  0
  144.6095  140.1685  155.4476 H   0  0  0  0  0  0  0  0  0  0  0  0
  146.0577  140.2880  156.4365 H   0  0  0  0  0  0  0  0  0  0  0  0
  152.3143  141.8203  157.5575 H   0  0  0  0  0  0  0  0  0  0  0  0
  150.8575  142.5598  158.1991 H   0  0  0  0  0  0  0  0  0  0  0  0
  154.0217  144.5557  159.1587 H   0  0  0  0  0  0  0  0  0  0  0  0
  153.4647  143.9058  157.6232 H   0  0  0  0  0  0  0  0  0  0  0  0
  152.3138  146.1449  158.6867 H   0  0  0  0  0  0  0  0  0  0  0  0
  151.3009  144.9425  157.8862 H   0  0  0  0  0  0  0  0  0  0  0  0
  150.9983  142.9841  160.8612 H   0  0  0  0  0  0  0  0  0  0  0  0
  153.0725  143.2241  162.2879 H   0  0  0  0  0  0  0  0  0  0  0  0
  152.0137  144.6115  162.4479 H   0  0  0  0  0  0  0  0  0  0  0  0
  153.4629  144.7260  161.4620 H   0  0  0  0  0  0  0  0  0  0  0  0
  1  2  1  0  0  0  0
  1 29  1  0  0  0  0
  1 30  1  0  0  0  0
  1 31  1  0  0  0  0
  2 28  1  0  0  0  0
  2  3  1  0  0  0  0
  2 32  1  0  0  0  0
  3  4  1  0  0  0  0
  3 33  1  0  0  0  0
  3 34  1  0  0  0  0
  4  5  1  0  0  0  0
  4 21  1  0  0  0  0
  5 10  1  0  0  0  0
  5  6  2  0  0  0  0
  6  7  1  0  0  0  0
  7  8  2  0  0  0  0
  7 35  1  0  0  0  0
  8  9  1  0  0  0  0
  9 13  1  0  0  0  0
  9 10  2  0  0  0  0
 10 11  1  0  0  0  0
 11 12  2  0  0  0  0
 12 13  1  0  0  0  0
 12 36  1  0  0  0  0
 13 14  1  0  0  0  0
 14 15  1  0  0  0  0
 14 37  1  0  0  0  0
 14 38  1  0  0  0  0
 15 20  1  0  0  0  0
 15 16  1  0  0  0  0
 15 17  1  0  0  0  0
 16 39  1  0  0  0  0
 17 18  1  0  0  0  0
 17 40  1  0  0  0  0
 17 41  1  0  0  0  0
 18 19  1  0  0  0  0
 18 42  1  0  0  0  0
 18 43  1  0  0  0  0
 19 20  1  0  0  0  0
 20 44  1  0  0  0  0
 20 45  1  0  0  0  0
 21 22  1  0  0  0  0
 21 46  1  0  0  0  0
 21 47  1  0  0  0  0
 22 26  1  0  0  0  0
 22 23  1  0  0  0  0
 22 28  1  0  0  0  0
 23 24  1  0  0  0  0
 23 48  1  0  0  0  0
 23 49  1  0  0  0  0
 24 25  1  0  0  0  0
 24 50  1  0  0  0  0
 24 51  1  0  0  0  0
 25 26  1  0  0  0  0
 26 27  1  0  0  0  0
 26 52  1  0  0  0  0
 27 53  1  0  0  0  0
 27 54  1  0  0  0  0
 27 55  1  0  0  0  0
M  END
> <s_m_source_file>
AV-unprocessed.smi

> <i_m_source_file_index>
281

> <i_lp_mmshare_version>
43012

> <i_f3d_flags>
0

> <s_epik_input>
W0NIM11bQ0BASF0xT1tDSDJdW0NIMl1bQ0BAXTEyW0NIMl1OKFtDSDJdW0NASF0oTzIpW0NIM10pYyhuW2NIXW4zKWMoYzM0KW5bY0hdbjRbQ0gyXVtDQEBdNShbT0hdKVtDSDJdW0NIMl1PW0NIMl01

> <s_epik_cmdline>
J2VwaWtfcHl0aG9uJywgJy1waCcsICc3LjAnLCAnLXRuJywgJzgnLCAnLW1hJywgJzIwMCcsICctbWV0YWxfYmluZGluZycsICctaW1hZScsICc8aW5maWxlLm1hZT4nLCAnLW9tYWUnLCAnPG91dGZpbGUubWFlPic=

> <r_lp_tautomer_probability>
1

> <r_epik_Ionization_Penalty>
0.00571331

> <r_epik_Ionization_Penalty_Charging>
0

> <r_epik_Ionization_Penalty_Neutral>
0.00571331

> <r_epik_State_Penalty>
0.00399586

> <r_epik_Charging_Adjusted_Penalty>
0.00399586

> <i_epik_Tot_Q>
0

> <i_epik_Tot_abs_Q>
0

> <r_epik_Metal_State_Penalty>
-0

> <b_epik_Metal_Only>
0

> <s_lp_Force_Field>
OPLS_2005

> <r_lp_Energy>
55.4075

> <b_lp_Chiralities_Consistent>
1

> <s_lp_Variant>
AV-unprocessed.smi:281-15

> <Gold.Version>
5.8.1

> <Gold.Id.Protein>
6NUR|6NUR_protein|mol2

> <Gold.PLP.Fitness>
51.4742

> <Gold.PLP.PLP>
-48.5369

> <Gold.PLP.part.hbond>
-1.0000

> <Gold.PLP.part.metal>
0.0000

> <Gold.PLP.part.buried>
-9.1556

> <Gold.PLP.part.nonpolar>
-37.3568

> <Gold.PLP.part.repulsive>
0.3249

> <Gold.PLP.ligand.clash>
0.0000

> <Gold.PLP.ligand.torsion>
0.1807

> <Gold.PLP.Chemscore.Hbond>
1.0000

> <Gold.PLP.Chemscore.CHOScore>
0.0000

> <Gold.PLP.Chemscore.Metal>
0.0000

> <Gold.Chemscore.Hbonds>
donor molecule, donor type, donor heavy atom, donor atom, acceptor molecule, acceptor atom, score
      L1  H    16    39       P1 10175  0.50

> <Gold.PLP.Chemscore.Internal.Correction>
0.2987

> <Gold.Rescore>
     Score         DG    S(hbond)    S(metal)    S(lipo)     H(rot)  DE(clash)    DE(int)     intcor
     15.93     -17.92       0.86        0.00     127.50       2.09       0.35       1.64       ----

> <Gold.Chemscore.Fitness>
15.9301

> <Gold.Chemscore.DG>
-17.9234

> <Gold.Chemscore.ZeroCoef>
-5.4800

> <Gold.Chemscore.Hbond>
0.8633

> <Gold.Chemscore.Metal>
0.0000

> <Gold.Chemscore.Lipo>
127.4990

> <Gold.Chemscore.Internal_Hbond>
0.0000

> <Gold.Chemscore.DEClash>
0.3527

> <Gold.Chemscore.DEInternal>
1.6407

> <Gold.Chemscore.Rot>
2.0927

> <Gold.Chemscore.Internal.Correction>
   9.000000E+99

> <Gold.Chemscore.Hbonds>
donor molecule, donor type, donor heavy atom, donor atom, acceptor molecule, acceptor atom, score
      L1  H    16    39       P1 10175  0.50

> <Gold.Chemscore.Hbond.Weighted>
-2.8834

> <Gold.Chemscore.Metal.Weighted>
-0.0000

> <Gold.Chemscore.Lipo.Weighted>
-14.9174

> <Gold.Chemscore.Internal_Hbond.Weighted>
0.0000

> <Gold.Chemscore.DEClash.Weighted>
0.3527

> <Gold.Chemscore.DEInternal.Weighted>
1.6407

> <Gold.Chemscore.Rot.Weighted>
5.3573

> <Gold.Chemscore.Internal.Correction.Weighted>
   9.000000E+99

> <Gold.Protein.RotatedTorsions>
[ 6907 6896 6895 6894 ] final   98.03 input  -60.11 | X-H torsion
[ 7974 7965 7964 7962 ] final -164.27 input  175.53 | X-H torsion
[ 8008 7997 7996 7995 ] final  -69.71 input   59.86 | X-H torsion
[ 10167 10162 10161 10158 ] final -177.30 input  -65.29 | X-H torsion
[ 10718 10713 10712 10709 ] final  -74.01 input   66.30 | X-H torsion
[ 10763 10752 10751 10750 ] final  157.03 input  -60.55 | X-H torsion
[ 11005 11000 10999 10996 ] final  -87.01 input  -57.11 | X-H torsion

> <Gold.Protein.ActiveResidues>
 VAL166  LYS551  ARG553  GLY616  TRP617  ASP618  TYR619  PRO620  LYS621  CYS622 
 ASP623  PHE694  ASN695  SER759  ASP760  ASP761  ALA762  ILE779  LEU786  VAL792 
 PHE793  MET794  SER795  GLU796  ALA797  LYS798  CYS799  TRP800  GLU811  SER814 

> <Gold.Protein.RotatedAtoms>
  152.5415  134.0643  159.8165 H   0  0  0  0  0  0  0  0  0  0  0  0  # atno 6907 bound_to 6896
  151.0766  133.5416  159.2630 H   0  0  0  0  0  0  0  0  0  0  0  0  # atno 6908 bound_to 6896
  151.2259  135.0544  159.9022 H   0  0  0  0  0  0  0  0  0  0  0  0  # atno 6909 bound_to 6896
  144.7301  140.2985  143.6208 H   0  0  0  0  0  0  0  0  0  0  0  0  # atno 7974 bound_to 7965
  154.4958  140.0848  156.7693 H   0  0  0  0  0  0  0  0  0  0  0  0  # atno 8008 bound_to 7997
  155.4120  140.3442  155.4246 H   0  0  0  0  0  0  0  0  0  0  0  0  # atno 8009 bound_to 7997
  156.1392  140.1524  156.8935 H   0  0  0  0  0  0  0  0  0  0  0  0  # atno 8010 bound_to 7997
  139.5487  144.2167  152.1036 H   0  0  0  0  0  0  0  0  0  0  0  0  # atno 10167 bound_to 10162
  156.0258  130.4407  150.2828 H   0  0  0  0  0  0  0  0  0  0  0  0  # atno 10718 bound_to 10713
  154.1938  135.2793  155.3013 H   0  0  0  0  0  0  0  0  0  0  0  0  # atno 10763 bound_to 10752
  154.5908  135.5560  153.7280 H   0  0  0  0  0  0  0  0  0  0  0  0  # atno 10764 bound_to 10752
  153.0105  135.6368  154.2076 H   0  0  0  0  0  0  0  0  0  0  0  0  # atno 10765 bound_to 10752
  141.1622  133.7487  156.9245 H   0  0  0  0  0  0  0  0  0  0  0  0  # atno 11005 bound_to 11000
  145.7784  139.1882  143.2172 LP  0  0  0  0  0  0  0  0  0  0  0  0  # atno 17320 bound_to 7965
  146.0854  140.7717  142.9621 LP  0  0  0  0  0  0  0  0  0  0  0  0  # atno 17321 bound_to 7965
  140.1659  144.4982  150.6606 LP  0  0  0  0  0  0  0  0  0  0  0  0  # atno 17342 bound_to 10162
  140.6743  143.2298  151.5547 LP  0  0  0  0  0  0  0  0  0  0  0  0  # atno 17343 bound_to 10162
  157.0932  131.0175  151.3114 LP  0  0  0  0  0  0  0  0  0  0  0  0  # atno 17370 bound_to 10713
  157.4838  130.7781  149.7440 LP  0  0  0  0  0  0  0  0  0  0  0  0  # atno 17371 bound_to 10713
  140.1428  134.9282  157.2490 LP  0  0  0  0  0  0  0  0  0  0  0  0  # atno 17394 bound_to 11000
  140.2815  134.3344  155.7341 LP  0  0  0  0  0  0  0  0  0  0  0  0  # atno 17395 bound_to 11000

$$$$
