AV-unprocessed.smi:1643|AV-procd|sdf|6580|dock8
  -GOLD-   22720 7273D 1   1.00000     0.00000
 Structure written by MMmdl.
 55 57  0  0  0  0  0  0  0  0  3 V2000
  148.1036  135.0876  159.1324 C   0  0  0  0  0  0  0  0  0  0  0  0
  148.5602  134.2651  157.9243 C   0  0  0  0  0  0  0  0  0  0  0  0
  149.1871  133.2268  158.1351 O   0  0  0  0  0  0  0  0  0  0  0  0
  148.2530  134.6952  156.6757 N   0  0  0  0  0  0  0  0  0  0  0  0
  148.5741  133.8834  155.4918 C   0  0  0  0  0  0  0  0  0  0  0  0
  149.8598  134.3656  154.7855 C   0  0  0  0  0  0  0  0  0  0  0  0
  150.3000  135.8077  155.1188 C   0  0  0  0  0  0  0  0  0  0  0  0
  149.3331  136.8637  154.7103 N   0  3  2  0  0  0  0  0  0  0  0  0
  149.7730  138.2250  155.1194 C   0  0  0  0  0  0  0  0  0  0  0  0
  151.3022  138.3693  155.0273 C   0  0  1  0  0  0  0  0  0  0  0  0
  151.6434  139.0485  153.8342 O   0  0  0  0  0  0  0  0  0  0  0  0
  151.8838  139.1432  156.2269 C   0  0  0  0  0  0  0  0  0  0  0  0
  151.2876  140.4764  156.3850 N   0  0  0  0  0  0  0  0  0  0  0  0
  150.4081  141.1450  155.5898 C   0  0  0  0  0  0  0  0  0  0  0  0
  150.1629  142.3512  156.1729 N   0  3  0  0  0  0  0  0  0  0  0  0
  150.8944  142.4536  157.3580 C   0  0  0  0  0  0  0  0  0  0  0  0
  150.9756  143.4786  158.2931 C   0  0  0  0  0  0  0  0  0  0  0  0
  151.8213  143.2704  159.4063 C   0  0  0  0  0  0  0  0  0  0  0  0
  151.9305  144.3694  160.4493 C   0  0  0  0  0  0  0  0  0  0  0  0
  152.5532  142.0633  159.5519 C   0  0  0  0  0  0  0  0  0  0  0  0
  153.4592  141.8503  160.7527 C   0  0  0  0  0  0  0  0  0  0  0  0
  152.4568  141.0328  158.5896 C   0  0  0  0  0  0  0  0  0  0  0  0
  151.6181  141.2540  157.5001 C   0  0  0  0  0  0  0  0  0  0  0  0
  147.8941  136.6017  155.0077 C   0  0  0  0  0  0  0  0  0  0  0  0
  147.6052  135.9948  156.4070 C   0  0  0  0  0  0  0  0  0  0  0  0
  147.0448  135.3375  159.0599 H   0  0  0  0  0  0  0  0  0  0  0  0
  148.6811  136.0084  159.2131 H   0  0  0  0  0  0  0  0  0  0  0  0
  148.2467  134.5232  160.0545 H   0  0  0  0  0  0  0  0  0  0  0  0
  148.6715  132.8242  155.7360 H   0  0  0  0  0  0  0  0  0  0  0  0
  147.7292  133.9033  154.8042 H   0  0  0  0  0  0  0  0  0  0  0  0
  150.6742  133.7001  155.0747 H   0  0  0  0  0  0  0  0  0  0  0  0
  149.7518  134.2449  153.7070 H   0  0  0  0  0  0  0  0  0  0  0  0
  150.5189  135.8950  156.1843 H   0  0  0  0  0  0  0  0  0  0  0  0
  151.2436  136.0082  154.6098 H   0  0  0  0  0  0  0  0  0  0  0  0
  149.2719  138.9988  154.5352 H   0  0  0  0  0  0  0  0  0  0  0  0
  149.4760  138.4108  156.1529 H   0  0  0  0  0  0  0  0  0  0  0  0
  151.7505  137.3754  154.9926 H   0  0  0  0  0  0  0  0  0  0  0  0
  152.4019  138.6317  153.4538 H   0  0  0  0  0  0  0  0  0  0  0  0
  151.7140  138.5944  157.1544 H   0  0  0  0  0  0  0  0  0  0  0  0
  152.9640  139.2606  156.1322 H   0  0  0  0  0  0  0  0  0  0  0  0
  149.9837  140.7863  154.6632 H   0  0  0  0  0  0  0  0  0  0  0  0
  150.4158  144.3951  158.1755 H   0  0  0  0  0  0  0  0  0  0  0  0
  151.6188  144.0016  161.4272 H   0  0  0  0  0  0  0  0  0  0  0  0
  151.2993  145.2223  160.1981 H   0  0  0  0  0  0  0  0  0  0  0  0
  152.9581  144.7258  160.5239 H   0  0  0  0  0  0  0  0  0  0  0  0
  153.9650  140.8854  160.7053 H   0  0  0  0  0  0  0  0  0  0  0  0
  152.8820  141.8790  161.6771 H   0  0  0  0  0  0  0  0  0  0  0  0
  154.2255  142.6247  160.7980 H   0  0  0  0  0  0  0  0  0  0  0  0
  153.0127  140.1138  158.7015 H   0  0  0  0  0  0  0  0  0  0  0  0
  147.3287  137.5281  154.8996 H   0  0  0  0  0  0  0  0  0  0  0  0
  147.4948  135.9662  154.2184 H   0  0  0  0  0  0  0  0  0  0  0  0
  146.5288  135.8679  156.5284 H   0  0  0  0  0  0  0  0  0  0  0  0
  147.9116  136.7369  157.1442 H   0  0  0  0  0  0  0  0  0  0  0  0
  149.3776  136.8791  153.7012 H   0  0  0  0  0  0  0  0  0  0  0  0
  149.5406  143.0510  155.7887 H   0  0  0  0  0  0  0  0  0  0  0  0
  1  2  1  0  0  0  0
  1 26  1  0  0  0  0
  1 27  1  0  0  0  0
  1 28  1  0  0  0  0
  2  3  2  0  0  0  0
  2  4  1  0  0  0  0
  4 25  1  0  0  0  0
  4  5  1  0  0  0  0
  5  6  1  0  0  0  0
  5 29  1  0  0  0  0
  5 30  1  0  0  0  0
  6  7  1  0  0  0  0
  6 31  1  0  0  0  0
  6 32  1  0  0  0  0
  7  8  1  0  0  0  0
  7 33  1  0  0  0  0
  7 34  1  0  0  0  0
  8  9  1  0  0  0  0
  8 24  1  0  0  0  0
  8 54  1  0  0  0  0
  9 10  1  0  0  0  0
  9 35  1  0  0  0  0
  9 36  1  0  0  0  0
 10 11  1  0  0  0  0
 10 12  1  0  0  0  0
 10 37  1  0  0  0  0
 11 38  1  0  0  0  0
 12 13  1  0  0  0  0
 12 39  1  0  0  0  0
 12 40  1  0  0  0  0
 13 23  1  0  0  0  0
 13 14  1  0  0  0  0
 14 15  2  0  0  0  0
 14 41  1  0  0  0  0
 15 16  1  0  0  0  0
 15 55  1  0  0  0  0
 16 23  2  0  0  0  0
 16 17  1  0  0  0  0
 17 18  2  0  0  0  0
 17 42  1  0  0  0  0
 18 19  1  0  0  0  0
 18 20  1  0  0  0  0
 19 43  1  0  0  0  0
 19 44  1  0  0  0  0
 19 45  1  0  0  0  0
 20 21  1  0  0  0  0
 20 22  2  0  0  0  0
 21 46  1  0  0  0  0
 21 47  1  0  0  0  0
 21 48  1  0  0  0  0
 22 23  1  0  0  0  0
 22 49  1  0  0  0  0
 24 25  1  0  0  0  0
 24 50  1  0  0  0  0
 24 51  1  0  0  0  0
 25 52  1  0  0  0  0
 25 53  1  0  0  0  0
M  CHG  1   8   1
M  CHG  1  15   1
M  END
> <s_m_source_file>
AV-unprocessed.smi

> <i_m_source_file_index>
1643

> <i_lp_mmshare_version>
43012

> <i_f3d_flags>
0

> <s_epik_input>
W0NIM11DKD1PKU4xW0NIMl1bQ0gyXVtDSDJdTihbQ0gyXVtDSDJdMSlbQ0gyXVtDQEhdKFtPSF0pW0NIMl1uKFtjSF1uMiljKGMyMylbY0hdYyhbQ0gzXSljKFtjSF0zKVtDSDNd

> <s_epik_cmdline>
J2VwaWtfcHl0aG9uJywgJy1waCcsICc3LjAnLCAnLXRuJywgJzgnLCAnLW1hJywgJzIwMCcsICctbWV0YWxfYmluZGluZycsICctaW1hZScsICc8aW5maWxlLm1hZT4nLCAnLW9tYWUnLCAnPG91dGZpbGUubWFlPic=

> <r_epik_Ionization_Penalty>
1.2865

> <r_epik_Ionization_Penalty_Charging>
1.2865

> <r_epik_Ionization_Penalty_Neutral>
2.89706e-06

> <r_epik_State_Penalty>
1.3566

> <r_epik_Charging_Adjusted_Penalty>
2.6431

> <i_epik_Tot_Q>
2

> <i_epik_Tot_abs_Q>
2

> <r_epik_Metal_State_Penalty>
5.37339

> <b_epik_Metal_Only>
0

> <s_lp_Force_Field>
OPLS_2005

> <r_lp_Energy>
57.2213

> <b_lp_Chiralities_Consistent>
1

> <s_lp_Variant>
AV-unprocessed.smi:1643-9

> <Gold.Version>
5.8.1

> <Gold.Id.Protein>
6NUR|6NUR_protein|mol2

> <Gold.PLP.Fitness>
56.8315

> <Gold.PLP.PLP>
-40.7721

> <Gold.PLP.part.hbond>
-4.0000

> <Gold.PLP.part.metal>
0.0000

> <Gold.PLP.part.buried>
-0.8506

> <Gold.PLP.part.nonpolar>
-36.2079

> <Gold.PLP.part.repulsive>
0.1104

> <Gold.PLP.ligand.clash>
0.0000

> <Gold.PLP.ligand.torsion>
0.7919

> <Gold.PLP.Chemscore.Hbond>
5.8480

> <Gold.PLP.Chemscore.CHOScore>
0.0000

> <Gold.PLP.Chemscore.Metal>
0.0000

> <Gold.Chemscore.Hbonds>
donor molecule, donor type, donor heavy atom, donor atom, acceptor molecule, acceptor atom, score
      L1  H     8    54       P1  7948  2.00
      L1  H    15    55       P1  8028  2.00
      P1  H  6896  6909       L1     3  0.96
      P1  H  7989  7998       L1    11  0.82

> <Gold.PLP.Chemscore.Internal.Correction>
0.0994

> <Gold.Rescore>
     Score         DG    S(hbond)    S(metal)    S(lipo)     H(rot)  DE(clash)    DE(int)     intcor
     18.70     -22.06       2.62        0.00     114.59       2.17       1.38       1.98       ----

> <Gold.Chemscore.Fitness>
18.6993

> <Gold.Chemscore.DG>
-22.0573

> <Gold.Chemscore.ZeroCoef>
-5.4800

> <Gold.Chemscore.Hbond>
2.6158

> <Gold.Chemscore.Metal>
0.0000

> <Gold.Chemscore.Lipo>
114.5898

> <Gold.Chemscore.Internal_Hbond>
0.0000

> <Gold.Chemscore.DEClash>
1.3765

> <Gold.Chemscore.DEInternal>
1.9815

> <Gold.Chemscore.Rot>
2.1744

> <Gold.Chemscore.Internal.Correction>
   9.000000E+99

> <Gold.Chemscore.Hbonds>
donor molecule, donor type, donor heavy atom, donor atom, acceptor molecule, acceptor atom, score
      L1  H     8    54       P1  7948  0.91
      L1  H    15    55       P1  8028  0.97
      P1  H  6896  6909       L1     3  0.60
      P1  H  7989  7998       L1    11  0.61

> <Gold.Chemscore.Hbond.Weighted>
-8.7369

> <Gold.Chemscore.Metal.Weighted>
-0.0000

> <Gold.Chemscore.Lipo.Weighted>
-13.4070

> <Gold.Chemscore.Internal_Hbond.Weighted>
0.0000

> <Gold.Chemscore.DEClash.Weighted>
1.3765

> <Gold.Chemscore.DEInternal.Weighted>
1.9815

> <Gold.Chemscore.Rot.Weighted>
5.5666

> <Gold.Chemscore.Internal.Correction.Weighted>
   9.000000E+99

> <Gold.Protein.RotatedTorsions>
[ 6907 6896 6895 6894 ] final   -5.77 input  -60.11 | X-H torsion
[ 7974 7965 7964 7962 ] final   26.07 input  175.53 | X-H torsion
[ 8008 7997 7996 7995 ] final -114.02 input   59.86 | X-H torsion
[ 10167 10162 10161 10158 ] final -171.90 input  -65.29 | X-H torsion
[ 10718 10713 10712 10709 ] final -176.53 input   66.30 | X-H torsion
[ 10763 10752 10751 10750 ] final   21.66 input  -60.55 | X-H torsion
[ 11005 11000 10999 10996 ] final  109.06 input  -57.11 | X-H torsion

> <Gold.Protein.ActiveResidues>
 VAL166  LYS551  ARG553  GLY616  TRP617  ASP618  TYR619  PRO620  LYS621  CYS622 
 ASP623  PHE694  ASN695  SER759  ASP760  ASP761  ALA762  ILE779  LEU786  VAL792 
 PHE793  MET794  SER795  GLU796  ALA797  LYS798  CYS799  TRP800  GLU811  SER814 

> <Gold.Protein.RotatedAtoms>
  151.4763  135.1049  159.9765 H   0  0  0  0  0  0  0  0  0  0  0  0  # atno 6907 bound_to 6896
  152.4797  133.8219  159.7068 H   0  0  0  0  0  0  0  0  0  0  0  0  # atno 6908 bound_to 6896
  150.8859  133.7247  159.2945 H   0  0  0  0  0  0  0  0  0  0  0  0  # atno 6909 bound_to 6896
  146.1857  139.7379  142.8868 H   0  0  0  0  0  0  0  0  0  0  0  0  # atno 7974 bound_to 7965
  155.0298  140.0393  157.2469 H   0  0  0  0  0  0  0  0  0  0  0  0  # atno 8008 bound_to 7997
  154.7307  140.2730  155.6435 H   0  0  0  0  0  0  0  0  0  0  0  0  # atno 8009 bound_to 7997
  156.2840  140.2685  156.2006 H   0  0  0  0  0  0  0  0  0  0  0  0  # atno 8010 bound_to 7997
  139.5775  144.1498  152.1471 H   0  0  0  0  0  0  0  0  0  0  0  0  # atno 10167 bound_to 10162
  156.8161  130.9603  151.3114 H   0  0  0  0  0  0  0  0  0  0  0  0  # atno 10718 bound_to 10713
  153.0977  135.6664  153.9732 H   0  0  0  0  0  0  0  0  0  0  0  0  # atno 10763 bound_to 10752
  153.9311  135.3004  155.3447 H   0  0  0  0  0  0  0  0  0  0  0  0  # atno 10764 bound_to 10752
  154.7396  135.5085  153.9175 H   0  0  0  0  0  0  0  0  0  0  0  0  # atno 10765 bound_to 10752
  139.8855  134.9448  156.6067 H   0  0  0  0  0  0  0  0  0  0  0  0  # atno 11005 bound_to 11000
  145.3947  141.0377  143.3104 LP  0  0  0  0  0  0  0  0  0  0  0  0  # atno 17320 bound_to 7965
  144.8392  139.5499  143.6908 LP  0  0  0  0  0  0  0  0  0  0  0  0  # atno 17321 bound_to 7965
  140.1044  144.5511  150.6967 LP  0  0  0  0  0  0  0  0  0  0  0  0  # atno 17342 bound_to 10162
  140.7057  143.2466  151.4734 LP  0  0  0  0  0  0  0  0  0  0  0  0  # atno 17343 bound_to 10162
  157.6481  130.8861  149.9578 LP  0  0  0  0  0  0  0  0  0  0  0  0  # atno 17370 bound_to 10713
  156.1016  130.3655  150.0208 LP  0  0  0  0  0  0  0  0  0  0  0  0  # atno 17371 bound_to 10713
  140.7842  133.8635  155.8592 LP  0  0  0  0  0  0  0  0  0  0  0  0  # atno 17394 bound_to 11000
  140.9734  134.1501  157.4557 LP  0  0  0  0  0  0  0  0  0  0  0  0  # atno 17395 bound_to 11000

$$$$
