AV-unprocessed.smi:215|AV-procd|sdf|1651|dock4
  -GOLD-   2262020 33D 1   1.00000     0.00000
 Structure written by MMmdl.
 59 62  0  0  0  0  0  0  0  0  2 V2000
  146.6242  142.4602  154.6229 C   0  0  0  0  0  0  0  0  0  0  0  0
  147.7020  141.4149  154.9872 C   0  0  1  0  0  0  0  0  0  0  0  0
  148.1246  141.4880  156.4798 C   0  0  2  0  0  0  0  0  0  0  0  0
  149.3637  142.2802  156.7635 N   0  3  2  0  0  0  0  0  0  0  0  0
  150.5412  141.7281  156.0430 C   0  0  0  0  0  0  0  0  0  0  0  0
  149.6423  142.4996  158.2128 C   0  0  0  0  0  0  0  0  0  0  0  0
  150.8246  143.4485  158.4875 C   0  0  0  0  0  0  0  0  0  0  0  0
  150.5473  144.7377  157.9812 O   0  0  0  0  0  0  0  0  0  0  0  0
  148.2792  140.0085  156.8720 C   0  0  0  0  0  0  0  0  0  0  0  0
  147.2479  139.2835  156.0182 C   0  0  0  0  0  0  0  0  0  0  0  0
  147.1778  140.0660  154.7974 N   0  0  0  0  0  0  0  0  0  0  0  0
  146.9042  139.4927  153.5951 C   0  0  0  0  0  0  0  0  0  0  0  0
  147.0612  140.2585  152.4834 N   0  0  0  0  0  0  0  0  0  0  0  0
  146.8179  139.7561  151.2701 C   0  0  0  0  0  0  0  0  0  0  0  0
  146.4150  138.5283  150.9429 N   0  0  0  0  0  0  0  0  0  0  0  0
  146.2498  137.7507  152.0505 C   0  0  0  0  0  0  0  0  0  0  0  0
  146.4625  138.1485  153.4030 C   0  0  0  0  0  0  0  0  0  0  0  0
  146.1587  137.0860  154.2487 N   0  0  0  0  0  0  0  0  0  0  0  0
  145.7964  136.1227  153.4473 C   0  0  0  0  0  0  0  0  0  0  0  0
  145.8490  136.4273  152.1071 N   0  0  0  0  0  0  0  0  0  0  0  0
  145.4726  135.5781  151.0150 C   0  0  0  0  0  0  0  0  0  0  0  0
  144.0597  134.9939  150.9066 C   0  0  0  0  0  0  0  0  0  0  0  0
  144.6489  133.7269  150.2442 C   0  0  0  0  0  0  0  0  0  0  0  0
  144.0216  132.3792  150.6531 C   0  0  0  0  0  0  0  0  0  0  0  0
  142.7838  132.1392  150.0139 O   0  0  0  0  0  0  0  0  0  0  0  0
  144.6666  133.7719  148.7042 C   0  0  0  0  0  0  0  0  0  0  0  0
  143.3887  134.0683  148.1780 O   0  0  0  0  0  0  0  0  0  0  0  0
  145.9718  134.1326  150.9346 C   0  0  0  0  0  0  0  0  0  0  0  0
  148.5858  141.5244  154.3600 H   0  0  0  0  0  0  0  0  0  0  0  0
  147.2991  141.9085  157.0574 H   0  0  0  0  0  0  0  0  0  0  0  0
  146.9560  143.4820  154.7962 H   0  0  0  0  0  0  0  0  0  0  0  0
  145.7206  142.3110  155.2151 H   0  0  0  0  0  0  0  0  0  0  0  0
  146.3345  142.3929  153.5748 H   0  0  0  0  0  0  0  0  0  0  0  0
  150.8338  140.7628  156.4581 H   0  0  0  0  0  0  0  0  0  0  0  0
  151.3985  142.3971  156.0942 H   0  0  0  0  0  0  0  0  0  0  0  0
  150.3419  141.5897  154.9816 H   0  0  0  0  0  0  0  0  0  0  0  0
  148.7799  142.9458  158.7034 H   0  0  0  0  0  0  0  0  0  0  0  0
  149.8159  141.5367  158.6952 H   0  0  0  0  0  0  0  0  0  0  0  0
  150.9792  143.5353  159.5633 H   0  0  0  0  0  0  0  0  0  0  0  0
  151.7637  143.0796  158.0776 H   0  0  0  0  0  0  0  0  0  0  0  0
  150.1036  144.6496  157.1509 H   0  0  0  0  0  0  0  0  0  0  0  0
  149.2768  139.6530  156.6085 H   0  0  0  0  0  0  0  0  0  0  0  0
  148.1252  139.8230  157.9352 H   0  0  0  0  0  0  0  0  0  0  0  0
  147.5431  138.2485  155.8401 H   0  0  0  0  0  0  0  0  0  0  0  0
  146.2692  139.2862  156.4995 H   0  0  0  0  0  0  0  0  0  0  0  0
  146.9696  140.4342  150.4433 H   0  0  0  0  0  0  0  0  0  0  0  0
  145.4834  135.1568  153.8163 H   0  0  0  0  0  0  0  0  0  0  0  0
  145.7340  136.1248  150.1075 H   0  0  0  0  0  0  0  0  0  0  0  0
  143.6111  134.8106  151.8841 H   0  0  0  0  0  0  0  0  0  0  0  0
  143.3834  135.5693  150.2737 H   0  0  0  0  0  0  0  0  0  0  0  0
  144.6887  131.5516  150.4102 H   0  0  0  0  0  0  0  0  0  0  0  0
  143.8475  132.3376  151.7286 H   0  0  0  0  0  0  0  0  0  0  0  0
  142.3938  132.9709  149.7928 H   0  0  0  0  0  0  0  0  0  0  0  0
  145.3760  134.5169  148.3418 H   0  0  0  0  0  0  0  0  0  0  0  0
  144.9861  132.8185  148.2830 H   0  0  0  0  0  0  0  0  0  0  0  0
  142.7382  133.8545  148.8292 H   0  0  0  0  0  0  0  0  0  0  0  0
  146.8691  134.0023  150.3288 H   0  0  0  0  0  0  0  0  0  0  0  0
  146.1049  133.6871  151.9217 H   0  0  0  0  0  0  0  0  0  0  0  0
  149.1965  143.1990  156.3780 H   0  0  0  0  0  0  0  0  0  0  0  0
  1  2  1  0  0  0  0
  1 31  1  0  0  0  0
  1 32  1  0  0  0  0
  1 33  1  0  0  0  0
  2 29  1  0  0  0  0
  2 11  1  0  0  0  0
  2  3  1  0  0  0  0
  3 30  1  0  0  0  0
  3  4  1  0  0  0  0
  3  9  1  0  0  0  0
  4  5  1  0  0  0  0
  4  6  1  0  0  0  0
  4 59  1  0  0  0  0
  5 34  1  0  0  0  0
  5 35  1  0  0  0  0
  5 36  1  0  0  0  0
  6  7  1  0  0  0  0
  6 37  1  0  0  0  0
  6 38  1  0  0  0  0
  7  8  1  0  0  0  0
  7 39  1  0  0  0  0
  7 40  1  0  0  0  0
  8 41  1  0  0  0  0
  9 10  1  0  0  0  0
  9 42  1  0  0  0  0
  9 43  1  0  0  0  0
 10 11  1  0  0  0  0
 10 44  1  0  0  0  0
 10 45  1  0  0  0  0
 11 12  1  0  0  0  0
 12 17  1  0  0  0  0
 12 13  2  0  0  0  0
 13 14  1  0  0  0  0
 14 15  2  0  0  0  0
 14 46  1  0  0  0  0
 15 16  1  0  0  0  0
 16 20  1  0  0  0  0
 16 17  2  0  0  0  0
 17 18  1  0  0  0  0
 18 19  2  0  0  0  0
 19 20  1  0  0  0  0
 19 47  1  0  0  0  0
 20 21  1  0  0  0  0
 21 28  1  0  0  0  0
 21 22  1  0  0  0  0
 21 48  1  0  0  0  0
 22 23  1  0  0  0  0
 22 49  1  0  0  0  0
 22 50  1  0  0  0  0
 23 24  1  0  0  0  0
 23 26  1  0  0  0  0
 23 28  1  0  0  0  0
 24 25  1  0  0  0  0
 24 51  1  0  0  0  0
 24 52  1  0  0  0  0
 25 53  1  0  0  0  0
 26 27  1  0  0  0  0
 26 54  1  0  0  0  0
 26 55  1  0  0  0  0
 27 56  1  0  0  0  0
 28 57  1  0  0  0  0
 28 58  1  0  0  0  0
M  CHG  1   4   1
M  END
> <s_m_source_file>
AV-unprocessed.smi

> <i_m_source_file_index>
215

> <i_lp_mmshare_version>
43012

> <i_f3d_flags>
0

> <s_epik_input>
W09IXVtDSDJdW0NIMl1OKFtDSDNdKVtDQEBIXShbQ0BIXTFbQ0gzXSlbQ0gyXVtDSDJdTjFjKG5bY0hdbjIpYyhjMjMpbltjSF1uM1tDSF0oW0NIMl00KVtDSDJdQzQoW0NIMl1bT0hdKVtDSDJdW09IXQ==

> <s_epik_cmdline>
J2VwaWtfcHl0aG9uJywgJy1waCcsICc3LjAnLCAnLXRuJywgJzgnLCAnLW1hJywgJzIwMCcsICctbWV0YWxfYmluZGluZycsICctaW1hZScsICc8aW5maWxlLm1hZT4nLCAnLW9tYWUnLCAnPG91dGZpbGUubWFlPic=

> <r_lp_tautomer_probability>
1

> <r_epik_Ionization_Penalty>
0.0036237

> <r_epik_Ionization_Penalty_Charging>
0.0032725

> <r_epik_Ionization_Penalty_Neutral>
0.000351196

> <r_epik_State_Penalty>
-0

> <r_epik_Charging_Adjusted_Penalty>
0.0032725

> <i_epik_Tot_Q>
1

> <i_epik_Tot_abs_Q>
1

> <r_epik_Metal_State_Penalty>
-0

> <b_epik_Metal_Only>
0

> <s_lp_Force_Field>
OPLS_2005

> <r_lp_Energy>
68.3917

> <b_lp_Chiralities_Consistent>
1

> <s_lp_Variant>
AV-unprocessed.smi:215-2

> <Gold.Version>
5.8.1

> <Gold.Id.Protein>
6NUR|6NUR_protein|mol2

> <Gold.PLP.Fitness>
57.1228

> <Gold.PLP.PLP>
-39.3280

> <Gold.PLP.part.hbond>
-8.5668

> <Gold.PLP.part.metal>
0.0000

> <Gold.PLP.part.buried>
-0.4865

> <Gold.PLP.part.nonpolar>
-35.4917

> <Gold.PLP.part.repulsive>
4.4171

> <Gold.PLP.ligand.clash>
0.0000

> <Gold.PLP.ligand.torsion>
0.6261

> <Gold.PLP.Chemscore.Hbond>
6.0932

> <Gold.PLP.Chemscore.CHOScore>
0.0610

> <Gold.PLP.Chemscore.Metal>
0.0000

> <Gold.Chemscore.Hbonds>
donor molecule, donor type, donor heavy atom, donor atom, acceptor molecule, acceptor atom, score
      L1  H     4    59       P1  8028  2.00
      L1  H     8    41       P1  8028  1.00
      L1  H    25    53       P1 10186  1.00
      L1  H    27    56       P1 10186  0.83
      P1  H  7954  7966       L1    15  0.68
      P1  H 10192 10197       L1    27  0.50
      P1  H 10785 10796       L1    25  0.06
      L1  C    14    46       P1  7957  0.03

> <Gold.PLP.Chemscore.Internal.Correction>
0.5844

> <Gold.Rescore>
     Score         DG    S(hbond)    S(metal)    S(lipo)     H(rot)  DE(clash)    DE(int)     intcor
      9.26     -16.34       3.65        0.00      86.57       4.48       5.27       1.81       ----

> <Gold.Chemscore.Fitness>
9.2557

> <Gold.Chemscore.DG>
-16.3400

> <Gold.Chemscore.ZeroCoef>
-5.4800

> <Gold.Chemscore.Hbond>
3.6518

> <Gold.Chemscore.Metal>
0.0000

> <Gold.Chemscore.Lipo>
86.5676

> <Gold.Chemscore.Internal_Hbond>
0.0000

> <Gold.Chemscore.DEClash>
5.2728

> <Gold.Chemscore.DEInternal>
1.8114

> <Gold.Chemscore.Rot>
4.4787

> <Gold.Chemscore.Internal.Correction>
   9.000000E+99

> <Gold.Chemscore.Hbonds>
donor molecule, donor type, donor heavy atom, donor atom, acceptor molecule, acceptor atom, score
      L1  H     4    59       P1  8028  1.00
      L1  H     8    41       P1  8028  0.40
      L1  H    25    53       P1 10186  0.94
      L1  H    27    56       P1 10186  0.82
      P1  H  7954  7966       L1    15  0.10
      P1  H 10192 10197       L1    27  0.02
      P1  H 10785 10796       L1    25  0.04

> <Gold.Chemscore.Hbond.Weighted>
-12.1971

> <Gold.Chemscore.Metal.Weighted>
-0.0000

> <Gold.Chemscore.Lipo.Weighted>
-10.1284

> <Gold.Chemscore.Internal_Hbond.Weighted>
0.0000

> <Gold.Chemscore.DEClash.Weighted>
5.2728

> <Gold.Chemscore.DEInternal.Weighted>
1.8114

> <Gold.Chemscore.Rot.Weighted>
11.4655

> <Gold.Chemscore.Internal.Correction.Weighted>
   9.000000E+99

> <Gold.Protein.RotatedTorsions>
[ 6907 6896 6895 6894 ] final    6.63 input  -60.11 | X-H torsion
[ 7974 7965 7964 7962 ] final -165.55 input  175.53 | X-H torsion
[ 8008 7997 7996 7995 ] final -163.29 input   59.86 | X-H torsion
[ 10167 10162 10161 10158 ] final   50.30 input  -65.29 | X-H torsion
[ 10718 10713 10712 10709 ] final   92.14 input   66.30 | X-H torsion
[ 10763 10752 10751 10750 ] final -167.26 input  -60.55 | X-H torsion
[ 11005 11000 10999 10996 ] final  -78.97 input  -57.11 | X-H torsion

> <Gold.Protein.ActiveResidues>
 VAL166  LYS551  ARG553  GLY616  TRP617  ASP618  TYR619  PRO620  LYS621  CYS622 
 ASP623  PHE694  ASN695  SER759  ASP760  ASP761  ALA762  ILE779  LEU786  VAL792 
 PHE793  MET794  SER795  GLU796  ALA797  LYS798  CYS799  TRP800  GLU811  SER814 

> <Gold.Protein.RotatedAtoms>
  151.6769  135.0968  160.0208 H   0  0  0  0  0  0  0  0  0  0  0  0  # atno 6907 bound_to 6896
  152.3859  133.6606  159.6206 H   0  0  0  0  0  0  0  0  0  0  0  0  # atno 6908 bound_to 6896
  150.7784  133.8953  159.3366 H   0  0  0  0  0  0  0  0  0  0  0  0  # atno 6909 bound_to 6896
  144.7267  140.2797  143.6238 H   0  0  0  0  0  0  0  0  0  0  0  0  # atno 7974 bound_to 7965
  155.8192  140.0917  157.1859 H   0  0  0  0  0  0  0  0  0  0  0  0  # atno 8008 bound_to 7997
  154.3979  140.1440  156.3539 H   0  0  0  0  0  0  0  0  0  0  0  0  # atno 8009 bound_to 7997
  155.8284  140.3443  155.5560 H   0  0  0  0  0  0  0  0  0  0  0  0  # atno 8010 bound_to 7997
  140.2739  144.3234  150.6282 H   0  0  0  0  0  0  0  0  0  0  0  0  # atno 10167 bound_to 10162
  157.6959  131.0432  150.3836 H   0  0  0  0  0  0  0  0  0  0  0  0  # atno 10718 bound_to 10713
  154.6750  135.2945  154.9690 H   0  0  0  0  0  0  0  0  0  0  0  0  # atno 10763 bound_to 10752
  154.0704  135.6619  153.4827 H   0  0  0  0  0  0  0  0  0  0  0  0  # atno 10764 bound_to 10752
  153.0511  135.5173  154.7765 H   0  0  0  0  0  0  0  0  0  0  0  0  # atno 10765 bound_to 10752
  141.1666  133.7085  156.8052 H   0  0  0  0  0  0  0  0  0  0  0  0  # atno 11005 bound_to 11000
  145.7961  139.1946  143.2075 LP  0  0  0  0  0  0  0  0  0  0  0  0  # atno 17320 bound_to 7965
  146.0715  140.7863  142.9685 LP  0  0  0  0  0  0  0  0  0  0  0  0  # atno 17321 bound_to 7965
  140.5867  143.2169  151.7328 LP  0  0  0  0  0  0  0  0  0  0  0  0  # atno 17342 bound_to 10162
  139.4981  144.4000  152.0192 LP  0  0  0  0  0  0  0  0  0  0  0  0  # atno 17343 bound_to 10162
  156.4247  130.3960  149.6801 LP  0  0  0  0  0  0  0  0  0  0  0  0  # atno 17370 bound_to 10713
  156.4039  130.7688  151.2698 LP  0  0  0  0  0  0  0  0  0  0  0  0  # atno 17371 bound_to 10713
  140.2228  134.8744  157.3395 LP  0  0  0  0  0  0  0  0  0  0  0  0  # atno 17394 bound_to 11000
  140.1971  134.4300  155.7683 LP  0  0  0  0  0  0  0  0  0  0  0  0  # atno 17395 bound_to 11000

$$$$
